data_PCOD9492931
_publ_section_title
;
Structure prediction by ZEFSAII (Michael W. Deem and Ramdas Pophale) SiO2 
 PCOD9492931
Probable space group: C M M M
;
_chemical_formula_sum "Si O2"
_cell_formula_units_Z 96
_cell_length_a 29.504063
_cell_length_b 8.676898
_cell_length_c 20.938060
_cell_angle_alpha 90.000000
_cell_angle_beta 90.000000
_cell_angle_gamma 90.000000
_cell_volume 5360.221778
_symmetry_space_group_name_H-M "C M M M"
_symmetry_group_IT_number 65
_symmetry_cell_setting 'orthorhombic'
loop_
_space_group_symop_operation_xyz
x,y,z
-x,-y,z
x,-y,-z
-x,y,-z
-x,-y,-z
x,y,-z
-x,y,z
x,-y,z
1/2+x,1/2+y,z
1/2-x,1/2-y,z
1/2+x,1/2-y,-z
1/2-x,1/2+y,-z
1/2-x,1/2-y,-z
1/2+x,1/2+y,-z
1/2-x,1/2+y,z
1/2+x,1/2-y,z
loop_
_atom_site_type_symbol
_atom_site_label
_atom_site_fract_x
_atom_site_fract_y
_atom_site_fract_z
Si Si1 0.798193 0.684117 0.880970
Si Si2 0.552323 0.185995 0.810889
Si Si3 0.388495 0.815835 0.687145
Si Si4 0.608751 0.684110 0.928628
Si Si5 0.947483 0.814603 0.574154
Si Si6 0.297679 0.316279 0.262547
O O1 0.796978 0.500000 0.881269
O O2 0.750000 0.750000 0.904128
O O3 0.841356 0.745079 0.919089
O O4 0.804031 0.743384 0.808071
O O5 0.500000 0.235115 0.806292
O O6 0.580480 0.230928 0.747900
O O7 0.576504 0.252125 0.873386
O O8 0.553412 0.000000 0.814465
O O9 0.414323 0.766873 0.623301
O O10 0.340197 0.734612 0.695446
O O11 0.382511 0.000000 0.689463
O O12 0.612049 0.500000 0.922506
O O13 0.592120 0.721458 0.000000
O O14 0.938411 0.776126 0.500000
O O15 0.000000 0.773468 0.587864
O O16 0.943603 0.000000 0.580559
O O17 0.295187 0.500000 0.256448
O O18 0.250000 0.250000 0.287164
#
# Coordination Sequence:
#
# PCOD9492931 Si02
#       6
#    16  16  16  16  16  16
#     4  11  21  36  58  83 111 144 181 227 283 340
#     4  10  22  39  58  81 110 145 187 235 284 336
#     4  11  21  35  58  88 118 151 190 234 281 333
#     4  11  24  40  57  79 108 145 189 235 285 342
#     4   9  19  36  57  84 120 160 199 237 280 332
#     4  11  21  35  57  85 116 149 186 230 280 333
#
# _framework density 17.909706
#
# number of rings (size 3 to 8) (size 9 to 14) (size 15 to 20)
#    0.000    1.500    1.667    6.000    0.000    4.333 
#    0.000    2.500    0.000    0.500    0.000    0.000 
#    0.000    0.000    0.000    0.000    0.000    0.000 
#
# Total GULP energy -268271.730693 kJ/mol
# GULP energy per Si atom -5588.994389 kJ/mol
# Density = 1.786894 g / cm^3
# Si number density = 17.909706 Si / 1000 Ang^3
#
#
#
# Elastic Constant Matrix: (Units=GPa)
#
#
# Indices 1 2 3 4 5 6 
#
# 1 128.5002 40.1578 59.6446 0.0000 0.0000 0.0000
# 2 40.1578 58.3665 30.7727 0.0000 0.0000 0.0000
# 3 59.6446 30.7727 83.6597 0.0000 0.0000 0.0000
# 4 0.0000 0.0000 0.0000 23.3750 0.0000 0.0000
# 5 0.0000 0.0000 0.0000 0.0000 13.0819 0.0000
# 6 0.0000 0.0000 0.0000 0.0000 0.0000 24.9282
#
#
#
# Elastic Compliance Matrix: (Units=1/GPa)
#
#
# Indices 1 2 3 4 5 6 
#
# 1 0.012671 -0.004907 -0.007229 0.000000 0.000000 0.000000
# 2 -0.004907 0.023155 -0.005019 0.000000 0.000000 0.000000
# 3 -0.007229 -0.005019 0.018953 0.000000 0.000000 0.000000
# 4 0.000000 0.000000 0.000000 0.042781 0.000000 0.000000
# 5 0.000000 0.000000 0.000000 0.000000 0.076442 0.000000
# 6 0.000000 0.000000 0.000000 0.000000 0.000000 0.040115
#
#
# Mechanical properties :
#
#
# Convention : Reuss Voigt Hill
#
# Bulk Modulus (GPa) = 48.85160 59.07520 53.96340
# Shear Modulus (GPa) = 19.58873 21.60710 20.59792
#
# Velocity S-wave (km/s) = 3.31078 3.47716 3.39499
# Velocity P-wave (km/s) = 6.47694 7.01267 6.75012
#
# Compressibility (1/GPa) = 0.02047016
#
# Stress axis : x y z
#
# Youngs Moduli (GPa) = 78.92203 43.18677 52.76205
#
# Poissons Ratio (x) = 0.21190 0.38140
# Poissons Ratio (y) = 0.38724 0.26482
# Poissons Ratio (z) = 0.57050 0.21676
#
# Static dielectric constant tensor:
#      x y z
#    x 1.605870 0.000000 0.000000 
#    y 0.000000 1.600560 0.000000 
#    z 0.000000 0.000000 1.595880 
# 
# From -- ./inp_files/60290.got.cif
#   From: 2010.05.17/outbox.cif.g08.bks.cpg/sg65_31_cif.got.tgz:60290.got - 2010.06.03 17:01:31.
