data_PCOD9492236
_publ_section_title
;
Structure prediction by ZEFSAII (Michael W. Deem and Ramdas Pophale) SiO2 
 PCOD9492236
Probable space group: C M M M
;
_chemical_formula_sum "Si O2"
_cell_formula_units_Z 104
_cell_length_a 14.195697
_cell_length_b 30.076290
_cell_length_c 13.138584
_cell_angle_alpha 90.000000
_cell_angle_beta 90.000000
_cell_angle_gamma 90.000000
_cell_volume 5609.569676
_symmetry_space_group_name_H-M "C M M M"
_symmetry_group_IT_number 65
_symmetry_cell_setting 'orthorhombic'
loop_
_space_group_symop_operation_xyz
x,y,z
-x,-y,z
x,-y,-z
-x,y,-z
-x,-y,-z
x,y,-z
-x,y,z
x,-y,z
1/2+x,1/2+y,z
1/2-x,1/2-y,z
1/2+x,1/2-y,-z
1/2-x,1/2+y,-z
1/2-x,1/2-y,-z
1/2+x,1/2+y,-z
1/2-x,1/2+y,z
1/2+x,1/2-y,z
loop_
_atom_site_type_symbol
_atom_site_label
_atom_site_fract_x
_atom_site_fract_y
_atom_site_fract_z
Si Si1 0.104510 0.052705 0.500000
Si Si2 0.890743 0.451471 0.197213
Si Si3 0.890113 0.646791 0.117188
Si Si4 0.387335 0.446955 0.882949
Si Si5 0.725530 0.582759 0.310554
Si Si6 0.610435 0.738906 0.381095
Si Si7 0.775881 0.317946 0.699172
O O1 0.159860 0.065795 0.399353
O O2 0.000000 0.072940 0.500000
O O3 0.096322 0.000000 0.500000
O O4 0.874388 0.500000 0.147261
O O5 0.875383 0.406546 0.132227
O O6 0.818622 0.446166 0.289904
O O7 0.000000 0.450337 0.228269
O O8 0.821032 0.674145 0.189858
O O9 0.000000 0.655221 0.144668
O O10 0.876408 0.657942 0.000000
O O11 0.500000 0.440300 0.873051
O O12 0.370084 0.500000 0.868211
O O13 0.331865 0.420532 0.796184
O O14 0.360897 0.435941 0.000000
O O15 0.757760 0.632281 0.337807
O O16 0.624613 0.726747 0.500000
O O17 0.500000 0.735510 0.357766
O O18 0.677415 0.708273 0.311469
O O19 0.649684 0.788625 0.363851
#
# Coordination Sequence:
#
# PCOD9492236 Si02
#       7
#     8  16  16  16  16  16  16
#     4  11  24  38  53  78 117 161 196 226 271 339
#     4   9  18  33  52  76 110 153 203 251 282 311
#     4   9  18  33  55  84 118 157 195 231 278 335
#     4   9  18  34  56  81 111 151 200 247 284 321
#     4  11  22  34  56  82 116 152 188 233 284 342
#     4  10  22  41  66  87 108 137 176 232 295 354
#     4  10  21  37  59  85 115 140 179 232 285 338
#
# _framework density 18.539746999999998
#
# number of rings (size 3 to 8) (size 9 to 14) (size 15 to 20)
#    0.000    2.231    0.000    3.692    2.154    5.846 
#    0.000    3.462    0.000    2.769    0.000    2.154 
#    0.000    0.000    0.000    0.000    0.000    0.000 
#
# Total GULP energy -289915.232949 kJ/mol
# GULP energy per Si atom -5575.292941 kJ/mol
# Density = 1.849755 g / cm^3
# Si number density = 18.539747 Si / 1000 Ang^3
#
#
#
# Elastic Constant Matrix: (Units=GPa)
#
#
# Indices 1 2 3 4 5 6 
#
# 1 130.4955 38.6395 65.9123 0.0000 0.0000 0.0000
# 2 38.6395 79.1961 31.7282 0.0000 0.0000 0.0000
# 3 65.9123 31.7282 90.9872 0.0000 0.0000 0.0000
# 4 0.0000 0.0000 0.0000 2.7487 0.0000 0.0000
# 5 0.0000 0.0000 0.0000 0.0000 472.6133 0.0000
# 6 0.0000 0.0000 0.0000 0.0000 0.0000 22.1061
#
#
#
# Elastic Compliance Matrix: (Units=1/GPa)
#
#
# Indices 1 2 3 4 5 6 
#
# 1 0.012634 -0.002903 -0.008140 0.000000 0.000000 0.000000
# 2 -0.002903 0.015344 -0.003248 0.000000 0.000000 0.000000
# 3 -0.008140 -0.003248 0.018020 0.000000 0.000000 0.000000
# 4 0.000000 0.000000 0.000000 0.363806 0.000000 0.000000
# 5 0.000000 0.000000 0.000000 0.000000 0.002116 0.000000
# 6 0.000000 0.000000 0.000000 0.000000 0.000000 0.045236
#
#
# Mechanical properties :
#
#
# Convention : Reuss Voigt Hill
#
# Bulk Modulus (GPa) = 57.41601 63.69321 60.55461
# Shear Modulus (GPa) = 10.17203 110.45353 60.31278
#
# Velocity S-wave (km/s) = 2.34489 7.72696 5.70984
# Velocity P-wave (km/s) = 6.19417 10.67883 8.72941
#
# Compressibility (1/GPa) = 0.01741675
#
# Stress axis : x y z
#
# Youngs Moduli (GPa) = 79.15057 65.17025 55.49440
#
# Poissons Ratio (x) = 0.18919 0.45173
# Poissons Ratio (y) = 0.22978 0.18023
# Poissons Ratio (z) = 0.64429 0.21166
#
# Static dielectric constant tensor:
#      x y z
#    x 1.664960 0.000000 0.000000 
#    y 0.000000 1.650850 0.000000 
#    z 0.000000 0.000000 1.617950 
# 
# From -- ./inp_files/25583.got.cif
#   From: 2010.05.17/outbox.cif.g08.bks.cpg/sg65_13_cif.got.tgz:25583.got - 2010.06.03 17:01:31.
