data_PCOD9492816
_publ_section_title
;
Structure prediction by ZEFSAII (Michael W. Deem and Ramdas Pophale) SiO2 
 PCOD9492816
Probable space group: C M M M
;
_chemical_formula_sum "Si O2"
_cell_formula_units_Z 116
_cell_length_a 30.028268
_cell_length_b 8.076866
_cell_length_c 26.268340
_cell_angle_alpha 90.000000
_cell_angle_beta 90.000000
_cell_angle_gamma 90.000000
_cell_volume 6370.973371
_symmetry_space_group_name_H-M "C M M M"
_symmetry_group_IT_number 65
_symmetry_cell_setting 'orthorhombic'
loop_
_space_group_symop_operation_xyz
x,y,z
-x,-y,z
x,-y,-z
-x,y,-z
-x,-y,-z
x,y,-z
-x,y,z
x,-y,z
1/2+x,1/2+y,z
1/2-x,1/2-y,z
1/2+x,1/2-y,-z
1/2-x,1/2+y,-z
1/2-x,1/2-y,-z
1/2+x,1/2+y,-z
1/2-x,1/2+y,z
1/2+x,1/2-y,z
loop_
_atom_site_type_symbol
_atom_site_label
_atom_site_fract_x
_atom_site_fract_y
_atom_site_fract_z
Si Si1 0.070328 0.310591 0.057578
Si Si2 0.110639 0.306620 0.348252
Si Si3 0.000000 0.000000 0.065475
Si Si4 0.200948 0.309571 0.202190
Si Si5 0.610938 0.306546 0.843523
Si Si6 0.203567 0.191795 0.683664
Si Si7 0.448688 0.700236 0.441877
Si Si8 0.448573 0.299626 0.748434
O O1 0.051448 0.500000 0.061768
O O2 0.037718 0.151269 0.063445
O O3 0.104293 0.288784 0.103991
O O4 0.088507 0.299547 0.000000
O O5 0.119358 0.500000 0.343074
O O6 0.158324 0.217227 0.347131
O O7 0.083757 0.270725 0.399610
O O8 0.080152 0.251664 0.300517
O O9 0.195065 0.500000 0.188790
O O10 0.250000 0.250000 0.186928
O O11 0.160393 0.210277 0.178191
O O12 0.198398 0.289165 0.263307
O O13 0.600883 0.500000 0.851218
O O14 0.576523 0.244334 0.799890
O O15 0.250000 0.250000 0.658974
O O16 0.208181 0.000000 0.697273
O O17 0.437968 0.748936 0.500000
O O18 0.500000 0.749146 0.431522
O O19 0.447073 0.500000 0.439389
O O20 0.500000 0.242778 0.745996
O O21 0.449202 0.500000 0.749274
#
# Coordination Sequence:
#
# PCOD9492816 Si02
#       8
#    16  16   4  16  16  16  16  16
#     4  11  24  40  61  88 117 156 205 252 299 353
#     4  12  23  35  54  82 116 152 188 231 285 343
#     4  12  23  42  64  86 118 160 206 254 297 346
#     4  11  21  36  58  86 116 149 191 240 291 351
#     4  11  22  37  61  85 116 156 196 242 298 351
#     4  11  21  36  57  82 112 148 189 236 287 344
#     4   9  19  37  60  83 109 148 197 242 283 331
#     4  10  22  37  54  78 112 154 194 231 280 342
#
# _framework density 18.207578999999999
#
# number of rings (size 3 to 8) (size 9 to 14) (size 15 to 20)
#    0.000    1.241    2.069    6.621    0.966    3.586 
#    0.000    0.690    0.000    0.828    0.000    0.000 
#    0.000    0.000    0.000    0.000    0.000    0.000 
#
# Total GULP energy -323209.765504 kJ/mol
# GULP energy per Si atom -5572.582164 kJ/mol
# Density = 1.816614 g / cm^3
# Si number density = 18.207579 Si / 1000 Ang^3
#
#
#
# Elastic Constant Matrix: (Units=GPa)
#
#
# Indices 1 2 3 4 5 6 
#
# 1 122.9435 13.1071 60.4878 0.0000 0.0000 0.0000
# 2 13.1071 77.8962 16.2766 0.0000 0.0000 0.0000
# 3 60.4878 16.2766 88.3397 0.0000 0.0000 0.0000
# 4 0.0000 0.0000 0.0000 17.7859 0.0000 0.0000
# 5 0.0000 0.0000 0.0000 0.0000 31.7792 0.0000
# 6 0.0000 0.0000 0.0000 0.0000 0.0000 26.6254
#
#
#
# Elastic Compliance Matrix: (Units=1/GPa)
#
#
# Indices 1 2 3 4 5 6 
#
# 1 0.012274 -0.000322 -0.008345 0.000000 0.000000 0.000000
# 2 -0.000322 0.013360 -0.002241 0.000000 0.000000 0.000000
# 3 -0.008345 -0.002241 0.017447 0.000000 0.000000 0.000000
# 4 0.000000 0.000000 0.000000 0.056224 0.000000 0.000000
# 5 0.000000 0.000000 0.000000 0.000000 0.031467 0.000000
# 6 0.000000 0.000000 0.000000 0.000000 0.000000 0.037558
#
#
# Mechanical properties :
#
#
# Convention : Reuss Voigt Hill
#
# Bulk Modulus (GPa) = 47.02564 52.10249 49.56407
# Shear Modulus (GPa) = 25.35064 28.52531 26.93797
#
# Velocity S-wave (km/s) = 3.73542 3.96242 3.85059
# Velocity P-wave (km/s) = 6.66994 7.04360 6.85931
#
# Compressibility (1/GPa) = 0.02126499
#
# Stress axis : x y z
#
# Youngs Moduli (GPa) = 81.47510 74.85001 57.31736
#
# Poissons Ratio (x) = 0.02407 0.47830
# Poissons Ratio (y) = 0.02620 0.12847
# Poissons Ratio (z) = 0.67989 0.16777
#
# Static dielectric constant tensor:
#      x y z
#    x 1.654980 0.000000 0.000000 
#    y 0.000000 1.645080 0.000000 
#    z 0.000000 0.000000 1.610570 
# 
# From -- ./inp_files/72281.got.cif
#   From: 2010.05.17/outbox.cif.g08.bks.cpg/sg65_37_cif.got.tgz:72281.got - 2010.06.03 17:01:31.
