data_PCOD9492933
_publ_section_title
;
Structure prediction by ZEFSAII (Michael W. Deem and Ramdas Pophale) SiO2 
 PCOD9492933
Probable space group: C M M M
;
_chemical_formula_sum "Si O2"
_cell_formula_units_Z 80
_cell_length_a 24.802660
_cell_length_b 13.652191
_cell_length_c 11.178893
_cell_angle_alpha 90.000000
_cell_angle_beta 90.000000
_cell_angle_gamma 90.000000
_cell_volume 3785.292243
_symmetry_space_group_name_H-M "C M M M"
_symmetry_group_IT_number 65
_symmetry_cell_setting 'orthorhombic'
loop_
_space_group_symop_operation_xyz
x,y,z
-x,-y,z
x,-y,-z
-x,y,-z
-x,-y,-z
x,y,-z
-x,y,z
x,-y,z
1/2+x,1/2+y,z
1/2-x,1/2-y,z
1/2+x,1/2-y,-z
1/2-x,1/2+y,-z
1/2-x,1/2-y,-z
1/2+x,1/2+y,-z
1/2-x,1/2+y,z
1/2+x,1/2-y,z
loop_
_atom_site_type_symbol
_atom_site_label
_atom_site_fract_x
_atom_site_fract_y
_atom_site_fract_z
Si Si1 0.163710 0.110806 0.731568
Si Si2 0.669762 0.185835 0.627477
Si Si3 0.728593 0.884699 0.132411
Si Si4 0.561804 0.887028 0.272204
Si Si5 0.938873 0.188560 0.139772
O O1 0.170858 0.196657 0.635907
O O2 0.208328 0.126891 0.835654
O O3 0.105138 0.129178 0.787172
O O4 0.170378 0.000000 0.687841
O O5 0.693429 0.153354 0.500000
O O6 0.698364 0.153871 0.750199
O O7 0.609045 0.143920 0.637675
O O8 0.717131 0.000000 0.128268
O O9 0.715273 0.844534 0.000000
O O10 0.500000 0.879870 0.318145
O O11 0.567009 0.804584 0.169358
O O12 0.569955 0.000000 0.234216
O O13 0.000000 0.161431 0.172969
O O14 0.931424 0.172196 0.000000
#
# Coordination Sequence:
#
# PCOD9492933 Si02
#       5
#    16  16  16  16  16
#     4  10  22  39  58  81 113 154 199 243 288 343
#     4  11  24  40  60  88 119 151 193 246 297 343
#     4  10  22  40  62  88 119 156 194 233 285 351
#     4   9  19  36  57  82 114 152 191 232 285 351
#     4   9  18  33  55  85 119 153 192 241 293 343
#
# _framework density 21.134432
#
# number of rings (size 3 to 8) (size 9 to 14) (size 15 to 20)
#    0.000    2.200    0.000    1.800    0.000   10.800 
#    0.000    6.000    0.000    0.000    0.000    5.600 
#    0.000    0.000    0.000    0.000    0.000    0.000 
#
# Total GULP energy -223157.971689 kJ/mol
# GULP energy per Si atom -5578.949292 kJ/mol
# Density = 2.108633 g / cm^3
# Si number density = 21.134432 Si / 1000 Ang^3
#
#
#
# Elastic Constant Matrix: (Units=GPa)
#
#
# Indices 1 2 3 4 5 6 
#
# 1 75.9131 19.2905 43.0813 0.0000 0.0000 0.0000
# 2 19.2905 78.4851 22.2947 0.0000 0.0000 0.0000
# 3 43.0813 22.2947 118.3873 0.0000 0.0000 0.0000
# 4 0.0000 0.0000 0.0000 -0.9945 0.0000 0.0000
# 5 0.0000 0.0000 0.0000 0.0000 -3.4765 0.0000
# 6 0.0000 0.0000 0.0000 0.0000 0.0000 30.7348
#
#
#
# Elastic Compliance Matrix: (Units=1/GPa)
#
#
# Indices 1 2 3 4 5 6 
#
# 1 0.017078 -0.002570 -0.005731 0.000000 0.000000 0.000000
# 2 -0.002570 0.013848 -0.001673 0.000000 0.000000 0.000000
# 3 -0.005731 -0.001673 0.010847 0.000000 0.000000 0.000000
# 4 0.000000 0.000000 0.000000 -1.005518 0.000000 0.000000
# 5 0.000000 0.000000 0.000000 0.000000 -0.287643 0.000000
# 6 0.000000 0.000000 0.000000 0.000000 0.000000 0.032536
#
#
# Mechanical properties :
#
#
# Convention : Reuss Voigt Hill
#
# Bulk Modulus (GPa) = 45.81478 49.12429 47.46953
# Shear Modulus (GPa) = -4.19594 17.79402 6.79904
#
# Velocity S-wave (km/s) = -1.41056 2.90478 1.79556
# Velocity P-wave (km/s) = 4.36715 5.87746 5.17767
#
# Compressibility (1/GPa) = 0.02182702
#
# Stress axis : x y z
#
# Youngs Moduli (GPa) = 58.55396 72.21244 92.18843
#
# Poissons Ratio (x) = 0.18556 0.52832
# Poissons Ratio (y) = 0.15046 0.15421
# Poissons Ratio (z) = 0.33557 0.12079
#
# Static dielectric constant tensor:
#      x y z
#    x 1.790470 0.000000 0.000000 
#    y 0.000000 1.779260 0.000000 
#    z 0.000000 0.000000 1.749190 
# 
# From -- ./inp_files/30400.got.cif
#   From: 2010.05.17/outbox.cif.g08.bks.cpg/sg65_16_cif.got.tgz:30400.got - 2010.06.03 17:01:31.
