data_PCOD9492355
_publ_section_title
;
Structure prediction by ZEFSAII (Michael W. Deem and Ramdas Pophale) SiO2 
 PCOD9492355
Probable space group: C M M M
;
_chemical_formula_sum "Si O2"
_cell_formula_units_Z 80
_cell_length_a 8.831119
_cell_length_b 19.417079
_cell_length_c 25.978720
_cell_angle_alpha 90.000000
_cell_angle_beta 90.000000
_cell_angle_gamma 90.000000
_cell_volume 4454.688939
_symmetry_space_group_name_H-M "C M M M"
_symmetry_group_IT_number 65
_symmetry_cell_setting 'orthorhombic'
loop_
_space_group_symop_operation_xyz
x,y,z
-x,-y,z
x,-y,-z
-x,y,-z
-x,-y,-z
x,y,-z
-x,y,z
x,-y,z
1/2+x,1/2+y,z
1/2-x,1/2-y,z
1/2+x,1/2-y,-z
1/2-x,1/2+y,-z
1/2-x,1/2-y,-z
1/2+x,1/2+y,-z
1/2-x,1/2+y,z
1/2+x,1/2-y,z
loop_
_atom_site_type_symbol
_atom_site_label
_atom_site_fract_x
_atom_site_fract_y
_atom_site_fract_z
Si Si1 0.681125 0.580838 0.846789
Si Si2 0.680081 0.326108 0.647018
Si Si3 0.180909 0.419210 0.263465
Si Si4 0.181075 0.579412 0.560758
Si Si5 0.182729 0.174083 0.057615
O O1 0.500000 0.590129 0.839565
O O2 0.707861 0.500000 0.856575
O O3 0.764797 0.599420 0.793964
O O4 0.730772 0.624994 0.895893
O O5 0.500000 0.321478 0.649081
O O6 0.750000 0.250000 0.647811
O O7 0.741276 0.370774 0.694839
O O8 0.732511 0.366988 0.596125
O O9 0.221069 0.500000 0.271985
O O10 0.000000 0.413163 0.267605
O O11 0.210052 0.589219 0.500000
O O12 0.220649 0.500000 0.573834
O O13 0.000000 0.586654 0.568911
O O14 0.250000 0.250000 0.064437
O O15 0.000000 0.177985 0.058928
O O16 0.225846 0.149639 0.000000
#
# Coordination Sequence:
#
# PCOD9492355 Si02
#       5
#    16  16  16  16  16
#     4   9  18  33  53  77 104 135 175 221 265 312
#     4  12  25  39  57  82 113 147 184 227 273 321
#     4  10  21  38  59  81 108 142 179 221 271 327
#     4   9  19  38  63  88 115 148 184 222 267 320
#     4   9  18  32  50  73 102 137 174 213 261 316
#
# _framework density 17.958604999999999
#
# number of rings (size 3 to 8) (size 9 to 14) (size 15 to 20)
#    0.000    2.200    0.000    3.600    0.000    6.800 
#    0.000    5.000    0.000    0.000    0.000    5.600 
#    0.000    0.000    0.000    0.000    0.000    0.000 
#
# Total GULP energy -223341.059645 kJ/mol
# GULP energy per Si atom -5583.526491 kJ/mol
# Density = 1.791773 g / cm^3
# Si number density = 17.958605 Si / 1000 Ang^3
#
#
#
# Elastic Constant Matrix: (Units=GPa)
#
#
# Indices 1 2 3 4 5 6 
#
# 1 70.3519 67.6760 71.4674 0.0000 0.0000 0.0000
# 2 67.6760 118.6660 103.7311 0.0000 0.0000 0.0000
# 3 71.4674 103.7311 133.5094 0.0000 0.0000 0.0000
# 4 0.0000 0.0000 0.0000-1579.3804 0.0000 0.0000
# 5 0.0000 0.0000 0.0000 0.0000 27.9053 0.0000
# 6 0.0000 0.0000 0.0000 0.0000 0.0000 28.2707
#
#
#
# Elastic Compliance Matrix: (Units=1/GPa)
#
#
# Indices 1 2 3 4 5 6 
#
# 1 0.035438 -0.011308 -0.010184 0.000000 0.000000 0.000000
# 2 -0.011308 0.029875 -0.017158 0.000000 0.000000 0.000000
# 3 -0.010184 -0.017158 0.026273 0.000000 0.000000 0.000000
# 4 0.000000 0.000000 0.000000 -0.000633 0.000000 0.000000
# 5 0.000000 0.000000 0.000000 0.000000 0.035836 0.000000
# 6 0.000000 0.000000 0.000000 0.000000 0.000000 0.035372
#
#
# Mechanical properties :
#
#
# Convention : Reuss Voigt Hill
#
# Bulk Modulus (GPa) = 70.00455 89.80849 79.90652
# Shear Modulus (GPa) = 20.47319 -299.33069 -139.42875
#
# Velocity S-wave (km/s) = 3.38008 -12.92440 -8.82086
# Velocity P-wave (km/s) = 7.36878 13.13784 7.69103
#
# Compressibility (1/GPa) = 0.01428479
#
# Stress axis : x y z
#
# Youngs Moduli (GPa) = 28.21866 33.47277 38.06252
#
# Poissons Ratio (x) = 0.37852 0.38761
# Poissons Ratio (y) = 0.31911 0.65309
# Poissons Ratio (z) = 0.28737 0.57433
#
# Static dielectric constant tensor:
#      x y z
#    x 1.601590 0.000000 0.000000 
#    y 0.000000 1.584980 0.000000 
#    z 0.000000 0.000000 1.607480 
# 
# From -- ./inp_files/72769.got.cif
#   From: 2010.05.17/outbox.cif.g08.bks.cpg/sg65_37_cif.got.tgz:72769.got - 2010.06.03 17:01:31.
