data_PCOD9492918
_publ_section_title
;
Structure prediction by ZEFSAII (Michael W. Deem and Ramdas Pophale) SiO2 
 PCOD9492918
Probable space group: C M M M
;
_chemical_formula_sum "Si O2"
_cell_formula_units_Z 80
_cell_length_a 13.569086
_cell_length_b 12.696213
_cell_length_c 19.316898
_cell_angle_alpha 90.000000
_cell_angle_beta 90.000000
_cell_angle_gamma 90.000000
_cell_volume 3327.838037
_symmetry_space_group_name_H-M "C M M M"
_symmetry_group_IT_number 65
_symmetry_cell_setting 'orthorhombic'
loop_
_space_group_symop_operation_xyz
x,y,z
-x,-y,z
x,-y,-z
-x,y,-z
-x,-y,-z
x,y,-z
-x,y,z
x,-y,z
1/2+x,1/2+y,z
1/2-x,1/2-y,z
1/2+x,1/2-y,-z
1/2-x,1/2+y,-z
1/2-x,1/2-y,-z
1/2+x,1/2+y,-z
1/2-x,1/2+y,z
1/2+x,1/2-y,z
loop_
_atom_site_type_symbol
_atom_site_label
_atom_site_fract_x
_atom_site_fract_y
_atom_site_fract_z
Si Si1 0.619734 0.110563 0.228245
Si Si2 0.215279 0.878180 0.577208
Si Si3 0.879956 0.335098 0.074353
Si Si4 0.119704 0.888908 0.126562
Si Si5 0.118178 0.168300 0.281703
O O1 0.500000 0.113316 0.226045
O O2 0.651112 0.118122 0.148000
O O3 0.648654 0.209279 0.273699
O O4 0.651349 0.000000 0.258448
O O5 0.168909 0.880532 0.500000
O O6 0.250000 0.750000 0.579046
O O7 0.154109 0.880353 0.647663
O O8 0.266896 0.000000 0.578644
O O9 0.853060 0.212421 0.082902
O O10 0.000000 0.343768 0.074189
O O11 0.846911 0.375958 0.000000
O O12 0.149010 0.878760 0.207287
O O13 0.000000 0.887344 0.127205
O O14 0.152336 0.000000 0.097487
O O15 0.000000 0.163292 0.281829
#
# Coordination Sequence:
#
# PCOD9492918 Si02
#       5
#    16  16  16  16  16
#     4   8  14  24  38  59  89 125 163 203 249 297
#     4  10  22  39  57  78 106 138 168 202 249 303
#     4   8  13  19  27  45  77 118 162 200 234 281
#     4   8  13  21  34  54  82 115 150 193 245 293
#     4   9  17  30  50  75 100 127 165 212 254 294
#
# _framework density 24.039632000000001
#
# number of rings (size 3 to 8) (size 9 to 14) (size 15 to 20)
#    0.000    3.400    0.000    3.000    0.000    3.200 
#    0.000    5.000    0.000    0.000    0.000    5.600 
#    0.000   12.800    0.000   22.400    0.000   36.800 
#
# Total GULP energy -222720.136441 kJ/mol
# GULP energy per Si atom -5568.003411 kJ/mol
# Density = 2.398492 g / cm^3
# Si number density = 24.039632 Si / 1000 Ang^3
#
#
#
# Elastic Constant Matrix: (Units=GPa)
#
#
# Indices 1 2 3 4 5 6 
#
# 1 80.2574 23.3068 43.9363 0.0000 0.0000 0.0000
# 2 23.3068 184.4179 32.8501 0.0000 0.0000 0.0000
# 3 43.9363 32.8501 160.2381 0.0000 0.0000 0.0000
# 4 0.0000 0.0000 0.0000 -31.7287 0.0000 0.0000
# 5 0.0000 0.0000 0.0000 0.0000 20.9241 0.0000
# 6 0.0000 0.0000 0.0000 0.0000 0.0000 17.0287
#
#
#
# Elastic Compliance Matrix: (Units=1/GPa)
#
#
# Indices 1 2 3 4 5 6 
#
# 1 0.014912 -0.001200 -0.003843 0.000000 0.000000 0.000000
# 2 -0.001200 0.005725 -0.000845 0.000000 0.000000 0.000000
# 3 -0.003843 -0.000845 0.007468 0.000000 0.000000 0.000000
# 4 0.000000 0.000000 0.000000 -0.031517 0.000000 0.000000
# 5 0.000000 0.000000 0.000000 0.000000 0.047792 0.000000
# 6 0.000000 0.000000 0.000000 0.000000 0.000000 0.058724
#
#
# Mechanical properties :
#
#
# Convention : Reuss Voigt Hill
#
# Bulk Modulus (GPa) = 61.23922 69.45554 65.34738
# Shear Modulus (GPa) = 41.55548 22.89950 32.22749
#
# Velocity S-wave (km/s) = 4.16218 3.08973 3.66539
# Velocity P-wave (km/s) = 6.97337 6.45627 6.71980
#
# Compressibility (1/GPa) = 0.01632940
#
# Stress axis : x y z
#
# Youngs Moduli (GPa) = 67.05958 174.68562 133.91330
#
# Poissons Ratio (x) = 0.20964 0.51460
# Poissons Ratio (y) = 0.08048 0.11309
# Poissons Ratio (z) = 0.25770 0.14753
#
# Static dielectric constant tensor:
#      x y z
#    x 2.000870 0.000000 0.000000 
#    y 0.000000 2.011170 0.000000 
#    z 0.000000 0.000000 1.797490 
# 
# From -- ./inp_files/54199.got.cif
#   From: 2010.05.17/outbox.cif.g08.bks.cpg/sg65_28_cif.got.tgz:54199.got - 2010.06.03 17:01:31.
