data_PCOD9492017
_publ_section_title
;
Structure prediction by ZEFSAII (Michael W. Deem and Ramdas Pophale) SiO2 
 PCOD9492017
Probable space group: C M M M
;
_chemical_formula_sum "Si O2"
_cell_formula_units_Z 88
_cell_length_a 22.076048
_cell_length_b 8.576002
_cell_length_c 25.288123
_cell_angle_alpha 90.000000
_cell_angle_beta 90.000000
_cell_angle_gamma 90.000000
_cell_volume 4787.654461
_symmetry_space_group_name_H-M "C M M M"
_symmetry_group_IT_number 65
_symmetry_cell_setting 'orthorhombic'
loop_
_space_group_symop_operation_xyz
x,y,z
-x,-y,z
x,-y,-z
-x,y,-z
-x,-y,-z
x,y,-z
-x,y,z
x,-y,z
1/2+x,1/2+y,z
1/2-x,1/2-y,z
1/2+x,1/2-y,-z
1/2-x,1/2+y,-z
1/2-x,1/2-y,-z
1/2+x,1/2+y,-z
1/2-x,1/2+y,z
1/2+x,1/2-y,z
loop_
_atom_site_type_symbol
_atom_site_label
_atom_site_fract_x
_atom_site_fract_y
_atom_site_fract_z
Si Si1 0.817117 0.813195 0.942073
Si Si2 0.180209 0.813948 0.670496
Si Si3 0.069928 0.310892 0.257511
Si Si4 0.500000 0.314610 0.058788
Si Si5 0.681381 0.812657 0.442481
Si Si6 0.598108 0.814722 0.862567
O O1 0.750000 0.750000 0.947493
O O2 0.838874 0.736355 0.887415
O O3 0.820373 0.000000 0.937564
O O4 0.847358 0.773974 0.000000
O O5 0.250000 0.750000 0.679011
O O6 0.126978 0.753694 0.709244
O O7 0.158576 0.761616 0.611734
O O8 0.184352 0.000000 0.673314
O O9 0.072003 0.500000 0.260542
O O10 0.081499 0.263438 0.196410
O O11 0.000000 0.265076 0.272145
O O12 0.500000 0.500000 0.055296
O O13 0.555651 0.260418 0.093567
O O14 0.500000 0.248118 0.000000
O O15 0.652944 0.773983 0.500000
O O16 0.750000 0.750000 0.445136
O O17 0.681770 0.000000 0.437293
O O18 0.591130 0.000000 0.863360
#
# Coordination Sequence:
#
# PCOD9492017 Si02
#       6
#    16  16  16   8  16  16
#     4  10  21  37  56  80 110 143 177 218 273 335
#     4  11  22  36  58  88 120 156 198 243 291 342
#     4  10  22  42  62  81 112 152 194 241 293 349
#     4  11  23  37  55  81 111 139 170 217 272 327
#     4   9  16  28  50  81 117 155 193 237 290 342
#     4  11  22  38  59  82 105 138 181 225 276 332
#
# _framework density 18.380609
#
# number of rings (size 3 to 8) (size 9 to 14) (size 15 to 20)
#    0.000    1.727    0.909    5.182    0.000    7.636 
#    0.000    0.000    0.000    0.545    0.000    3.818 
#    0.000    0.000    0.000    0.000    0.000    0.000 
#
# Total GULP energy -244980.437204 kJ/mol
# GULP energy per Si atom -5567.737209 kJ/mol
# Density = 1.833877 g / cm^3
# Si number density = 18.380609 Si / 1000 Ang^3
#
#
#
# Elastic Constant Matrix: (Units=GPa)
#
#
# Indices 1 2 3 4 5 6 
#
# 1 93.2615 29.2525 68.8801 0.0000 0.0000 0.0000
# 2 29.2525 68.1972 47.6531 0.0000 0.0000 0.0000
# 3 68.8801 47.6531 160.8746 0.0000 0.0000 0.0000
# 4 0.0000 0.0000 0.0000 28.5193 0.0000 0.0000
# 5 0.0000 0.0000 0.0000 0.0000 64.9744 0.0000
# 6 0.0000 0.0000 0.0000 0.0000 0.0000 32.4909
#
#
#
# Elastic Compliance Matrix: (Units=1/GPa)
#
#
# Indices 1 2 3 4 5 6 
#
# 1 0.016046 -0.002626 -0.006092 0.000000 0.000000 0.000000
# 2 -0.002626 0.018920 -0.004480 0.000000 0.000000 0.000000
# 3 -0.006092 -0.004480 0.010152 0.000000 0.000000 0.000000
# 4 0.000000 0.000000 0.000000 0.035064 0.000000 0.000000
# 5 0.000000 0.000000 0.000000 0.000000 0.015391 0.000000
# 6 0.000000 0.000000 0.000000 0.000000 0.000000 0.030778
#
#
# Mechanical properties :
#
#
# Convention : Reuss Voigt Hill
#
# Bulk Modulus (GPa) = 53.41555 68.21162 60.81359
# Shear Modulus (GPa) = 31.44914 36.96676 34.20795
#
# Velocity S-wave (km/s) = 4.14091 4.48949 4.31871
# Velocity P-wave (km/s) = 7.21018 8.00407 7.61748
#
# Compressibility (1/GPa) = 0.01872114
#
# Stress axis : x y z
#
# Youngs Moduli (GPa) = 62.32180 52.85370 98.50601
#
# Poissons Ratio (x) = 0.13877 0.60014
# Poissons Ratio (y) = 0.16363 0.44133
# Poissons Ratio (z) = 0.37969 0.23680
#
# Static dielectric constant tensor:
#      x y z
#    x 1.828140 0.000000 0.000000 
#    y 0.000000 1.623540 0.000000 
#    z 0.000000 0.000000 1.667290 
# 
# From -- ./inp_files/71020.got.cif
#   From: 2010.05.17/outbox.cif.g08.bks.cpg/sg65_36_cif.got.tgz:71020.got - 2010.06.03 17:01:31.
