data_PCOD9492973
_publ_section_title
;
Structure prediction by ZEFSAII (Michael W. Deem and Ramdas Pophale) SiO2 
 PCOD9492973
Probable space group: C M M M
;
_chemical_formula_sum "Si O2"
_cell_formula_units_Z 60
_cell_length_a 13.993364
_cell_length_b 18.599992
_cell_length_c 11.790677
_cell_angle_alpha 90.000000
_cell_angle_beta 90.000000
_cell_angle_gamma 90.000000
_cell_volume 3068.835652
_symmetry_space_group_name_H-M "C M M M"
_symmetry_group_IT_number 65
_symmetry_cell_setting 'orthorhombic'
loop_
_space_group_symop_operation_xyz
x,y,z
-x,-y,z
x,-y,-z
-x,y,-z
-x,-y,-z
x,y,-z
-x,y,z
x,-y,z
1/2+x,1/2+y,z
1/2-x,1/2-y,z
1/2+x,1/2-y,-z
1/2-x,1/2+y,-z
1/2-x,1/2-y,-z
1/2+x,1/2+y,-z
1/2-x,1/2+y,z
1/2+x,1/2-y,z
loop_
_atom_site_type_symbol
_atom_site_label
_atom_site_fract_x
_atom_site_fract_y
_atom_site_fract_z
Si Si1 0.500000 0.772485 0.500000
Si Si2 0.500000 0.581154 0.217508
Si Si3 0.323793 0.184160 0.872190
Si Si4 0.791833 0.329633 0.500000
Si Si5 0.717276 0.581744 0.287920
Si Si6 0.000000 0.241081 0.756982
O O1 0.405473 0.821013 0.500000
O O2 0.500000 0.729377 0.620139
O O3 0.500000 0.500000 0.158854
O O4 0.602025 0.581720 0.280752
O O5 0.500000 0.664864 0.173922
O O6 0.250000 0.250000 0.875112
O O7 0.265477 0.117003 0.822536
O O8 0.408642 0.211856 0.792055
O O9 0.358734 0.170650 0.000000
O O10 0.750000 0.250000 0.500000
O O11 0.752988 0.370484 0.609040
O O12 0.748794 0.500000 0.301850
#
# Coordination Sequence:
#
# PCOD9492973 Si02
#       6
#     4   8  16   8  16   8
#     4  12  24  36  70  98 126 160 216 266 318 370
#     4  10  22  39  64  96 133 165 204 265 329 392
#     4  11  23  41  66  92 125 173 220 265 311 373
#     4  12  23  41  65  96 131 172 215 263 317 389
#     4  11  23  42  64  96 133 168 210 263 332 389
#     4  12  21  42  66 100 127 164 215 269 317 392
#
# _framework density 19.551389
#
# number of rings (size 3 to 8) (size 9 to 14) (size 15 to 20)
#    0.000    0.800    5.333    3.200    0.000    1.067 
#    0.000    7.667    0.000    5.600    0.000    0.000 
#    0.000    0.000    0.000    0.000    0.000    0.000 
#
# Total GULP energy -167324.997526 kJ/mol
# GULP energy per Si atom -5577.499918 kJ/mol
# Density = 1.950689 g / cm^3
# Si number density = 19.551389 Si / 1000 Ang^3
#
#
#
# Elastic Constant Matrix: (Units=GPa)
#
#
# Indices 1 2 3 4 5 6 
#
# 1 121.7744 41.0609 21.9590 0.0000 0.0000 0.0000
# 2 41.0609 153.0804 34.6712 0.0000 0.0000 0.0000
# 3 21.9590 34.6712 97.3180 0.0000 0.0000 0.0000
# 4 0.0000 0.0000 0.0000 -45.7069 0.0000 0.0000
# 5 0.0000 0.0000 0.0000 0.0000 -309.7027 0.0000
# 6 0.0000 0.0000 0.0000 0.0000 0.0000 21.8600
#
#
#
# Elastic Compliance Matrix: (Units=1/GPa)
#
#
# Indices 1 2 3 4 5 6 
#
# 1 0.009177 -0.002167 -0.001299 0.000000 0.000000 0.000000
# 2 -0.002167 0.007618 -0.002225 0.000000 0.000000 0.000000
# 3 -0.001299 -0.002225 0.011361 0.000000 0.000000 0.000000
# 4 0.000000 0.000000 0.000000 -0.021879 0.000000 0.000000
# 5 0.000000 0.000000 0.000000 0.000000 -0.003229 0.000000
# 6 0.000000 0.000000 0.000000 0.000000 0.000000 0.045746
#
#
# Mechanical properties :
#
#
# Convention : Reuss Voigt Hill
#
# Bulk Modulus (GPa) = 59.61517 63.06167 61.33842
# Shear Modulus (GPa) = 76.02565 -48.41113 13.80726
#
# Velocity S-wave (km/s) = 6.24255 -4.98144 2.66033
# Velocity P-wave (km/s) = 9.08389 0.87290 6.39355
#
# Compressibility (1/GPa) = 0.01677425
#
# Stress axis : x y z
#
# Youngs Moduli (GPa) = 108.96934 131.27139 88.01849
#
# Poissons Ratio (x) = 0.28452 0.11429
# Poissons Ratio (y) = 0.23618 0.19583
# Poissons Ratio (z) = 0.14150 0.29207
#
# Static dielectric constant tensor:
#      x y z
#    x 1.676640 0.000000 0.000000 
#    y 0.000000 1.679290 0.000000 
#    z 0.000000 0.000000 1.722230 
# 
# From -- ./inp_files/24209.got.cif
#   From: 2010.05.17/outbox.cif.g08.bks.cpg/sg65_13_cif.got.tgz:24209.got - 2010.06.03 17:01:31.
