data_PCOD9492661
_publ_section_title
;
Structure prediction by ZEFSAII (Michael W. Deem and Ramdas Pophale) SiO2 
 PCOD9492661
Probable space group: C M M M
;
_chemical_formula_sum "Si O2"
_cell_formula_units_Z 96
_cell_length_a 22.620854
_cell_length_b 14.884922
_cell_length_c 14.968977
_cell_angle_alpha 90.000000
_cell_angle_beta 90.000000
_cell_angle_gamma 90.000000
_cell_volume 5040.198967
_symmetry_space_group_name_H-M "C M M M"
_symmetry_group_IT_number 65
_symmetry_cell_setting 'orthorhombic'
loop_
_space_group_symop_operation_xyz
x,y,z
-x,-y,z
x,-y,-z
-x,y,-z
-x,-y,-z
x,y,-z
-x,y,z
x,-y,z
1/2+x,1/2+y,z
1/2-x,1/2-y,z
1/2+x,1/2-y,-z
1/2-x,1/2+y,-z
1/2-x,1/2-y,-z
1/2+x,1/2+y,-z
1/2-x,1/2+y,z
1/2+x,1/2-y,z
loop_
_atom_site_type_symbol
_atom_site_label
_atom_site_fract_x
_atom_site_fract_y
_atom_site_fract_z
Si Si1 0.068887 0.900919 0.332506
Si Si2 0.634776 0.596437 0.854061
Si Si3 0.734422 0.855496 0.103711
Si Si4 0.930215 0.297772 0.602558
Si Si5 0.434401 0.769403 0.096694
Si Si6 0.876494 0.606051 0.232785
O O1 0.112414 0.897010 0.247947
O O2 0.077722 0.810253 0.388184
O O3 0.000000 0.897767 0.301854
O O4 0.076642 0.000000 0.375696
O O5 0.612149 0.500000 0.888542
O O6 0.704757 0.597991 0.867351
O O7 0.609598 0.686037 0.897901
O O8 0.750000 0.750000 0.105020
O O9 0.683742 0.876199 0.176306
O O10 0.718901 0.879033 0.000000
O O11 0.920377 0.324260 0.500000
O O12 0.886337 0.347651 0.670905
O O13 0.000000 0.316177 0.624151
O O14 0.500000 0.731450 0.105091
O O15 0.423771 0.841799 0.172148
O O16 0.427814 0.813358 0.000000
O O17 0.885529 0.500000 0.239605
#
# Coordination Sequence:
#
# PCOD9492661 Si02
#       6
#    16  16  16  16  16  16
#     4   9  17  32  58  91 126 162 198 241 302 370
#     4  11  21  35  59  89 123 159 199 245 294 354
#     4  11  22  39  63  88 119 161 206 252 299 350
#     4  10  21  39  64  92 121 154 197 252 312 369
#     4  11  23  38  57  84 120 161 203 245 297 357
#     4  12  25  41  61  85 119 159 203 252 302 353
#
# _framework density 19.046868
#
# number of rings (size 3 to 8) (size 9 to 14) (size 15 to 20)
#    0.000    1.333    3.333    2.500    0.000    6.333 
#    0.000    4.167    0.000    4.500    0.000    4.667 
#    0.000    0.000    0.000    0.000    0.000    0.000 
#
# Total GULP energy -267701.666223 kJ/mol
# GULP energy per Si atom -5577.118046 kJ/mol
# Density = 1.900352 g / cm^3
# Si number density = 19.046868 Si / 1000 Ang^3
#
#
#
# Elastic Constant Matrix: (Units=GPa)
#
#
# Indices 1 2 3 4 5 6 
#
# 1 97.5746 27.8565 49.5734 0.0000 0.0000 0.0000
# 2 27.8565 119.9161 47.9737 0.0000 0.0000 0.0000
# 3 49.5734 47.9737 125.8024 0.0000 0.0000 0.0000
# 4 0.0000 0.0000 0.0000 -23.3223 0.0000 0.0000
# 5 0.0000 0.0000 0.0000 0.0000 29.6910 0.0000
# 6 0.0000 0.0000 0.0000 0.0000 0.0000 16.1009
#
#
#
# Elastic Compliance Matrix: (Units=1/GPa)
#
#
# Indices 1 2 3 4 5 6 
#
# 1 0.012945 -0.001140 -0.004666 0.000000 0.000000 0.000000
# 2 -0.001140 0.009941 -0.003342 0.000000 0.000000 0.000000
# 3 -0.004666 -0.003342 0.011062 0.000000 0.000000 0.000000
# 4 0.000000 0.000000 0.000000 -0.042877 0.000000 0.000000
# 5 0.000000 0.000000 0.000000 0.000000 0.033680 0.000000
# 6 0.000000 0.000000 0.000000 0.000000 0.000000 0.062108
#
#
# Mechanical properties :
#
#
# Convention : Reuss Voigt Hill
#
# Bulk Modulus (GPa) = 63.89105 66.01115 64.95110
# Shear Modulus (GPa) = 45.30132 19.01988 32.16060
#
# Velocity S-wave (km/s) = 4.88219 3.16346 4.11359
# Velocity P-wave (km/s) = 8.08690 6.93367 7.53239
#
# Compressibility (1/GPa) = 0.01565165
#
# Stress axis : x y z
#
# Youngs Moduli (GPa) = 77.25123 100.59487 90.39998
#
# Poissons Ratio (x) = 0.11471 0.42182
# Poissons Ratio (y) = 0.08809 0.30207
# Poissons Ratio (z) = 0.36046 0.33614
#
# Static dielectric constant tensor:
#      x y z
#    x 1.664820 0.000000 0.000000 
#    y 0.000000 1.681250 0.000000 
#    z 0.000000 0.000000 1.672180 
# 
# From -- ./inp_files/40326.got.cif
#   From: 2010.05.17/outbox.cif.g08.bks.cpg/sg65_21_cif.got.tgz:40326.got - 2010.06.03 17:01:31.
