data_PCOD9492346
_publ_section_title
;
Structure prediction by ZEFSAII (Michael W. Deem and Ramdas Pophale) SiO2 
 PCOD9492346
Probable space group: C M M M
;
_chemical_formula_sum "Si O2"
_cell_formula_units_Z 72
_cell_length_a 8.486987
_cell_length_b 32.234933
_cell_length_c 14.692275
_cell_angle_alpha 90.000000
_cell_angle_beta 90.000000
_cell_angle_gamma 90.000000
_cell_volume 4019.475237
_symmetry_space_group_name_H-M "C M M M"
_symmetry_group_IT_number 65
_symmetry_cell_setting 'orthorhombic'
loop_
_space_group_symop_operation_xyz
x,y,z
-x,-y,z
x,-y,-z
-x,y,-z
-x,-y,-z
x,y,-z
-x,y,z
x,-y,z
1/2+x,1/2+y,z
1/2-x,1/2-y,z
1/2+x,1/2-y,-z
1/2-x,1/2+y,-z
1/2-x,1/2-y,-z
1/2+x,1/2+y,-z
1/2-x,1/2+y,z
1/2+x,1/2-y,z
loop_
_atom_site_type_symbol
_atom_site_label
_atom_site_fract_x
_atom_site_fract_y
_atom_site_fract_z
Si Si1 0.810320 0.046438 0.891925
Si Si2 0.687863 0.126920 0.787437
Si Si3 0.312064 0.294471 0.895542
Si Si4 0.693108 0.909496 0.396372
Si Si5 0.320882 0.000000 0.610608
O O1 0.735133 0.084559 0.838803
O O2 0.000000 0.048647 0.882475
O O3 0.759798 0.000000 0.861838
O O4 0.775655 0.049964 0.000000
O O5 0.500000 0.130556 0.789456
O O6 0.759116 0.166667 0.836443
O O7 0.739396 0.122016 0.682290
O O8 0.500000 0.293107 0.897382
O O9 0.250000 0.250000 0.862282
O O10 0.254276 0.299839 0.000000
O O11 0.742251 0.900498 0.500000
O O12 0.500000 0.911881 0.397593
O O13 0.752166 0.955550 0.367678
O O14 0.500000 0.000000 0.646963
O O15 0.331235 0.000000 0.500000
#
# Coordination Sequence:
#
# PCOD9492346 Si02
#       5
#    16  16  16  16   8
#     4   9  19  35  50  65  95 141 182 211 248 303
#     4  11  21  30  50  81 107 132 168 214 259 305
#     4  10  21  38  59  80 104 133 165 205 255 310
#     4   8  15  27  43  67 101 138 173 211 254 299
#     4   7  10  20  38  58  86 127 170 208 245 283
#
# _framework density 17.912786000000001
#
# number of rings (size 3 to 8) (size 9 to 14) (size 15 to 20)
#    0.000    2.778    0.000    4.000    1.556    4.889 
#    0.000    1.111    0.000    3.333    0.000    1.556 
#    0.000    0.000    0.000    0.000    0.000    0.000 
#
# Total GULP energy -200715.629530 kJ/mol
# GULP energy per Si atom -5575.434154 kJ/mol
# Density = 1.787202 g / cm^3
# Si number density = 17.912786 Si / 1000 Ang^3
#
#
#
# Elastic Constant Matrix: (Units=GPa)
#
#
# Indices 1 2 3 4 5 6 
#
# 1 23.1500 28.6884 19.3478 0.0000 0.0000 0.0000
# 2 28.6884 147.5255 80.1765 0.0000 0.0000 0.0000
# 3 19.3478 80.1765 87.0651 0.0000 0.0000 0.0000
# 4 0.0000 0.0000 0.0000 20.4283 0.0000 0.0000
# 5 0.0000 0.0000 0.0000 0.0000 -5.4074 0.0000
# 6 0.0000 0.0000 0.0000 0.0000 0.0000 29.9856
#
#
#
# Elastic Compliance Matrix: (Units=1/GPa)
#
#
# Indices 1 2 3 4 5 6 
#
# 1 0.057982 -0.008554 -0.005008 0.000000 0.000000 0.000000
# 2 -0.008554 0.014832 -0.011757 0.000000 0.000000 0.000000
# 3 -0.005008 -0.011757 0.023426 0.000000 0.000000 0.000000
# 4 0.000000 0.000000 0.000000 0.048952 0.000000 0.000000
# 5 0.000000 0.000000 0.000000 0.000000 -0.184932 0.000000
# 6 0.000000 0.000000 0.000000 0.000000 0.000000 0.033349
#
#
# Mechanical properties :
#
#
# Convention : Reuss Voigt Hill
#
# Bulk Modulus (GPa) = 21.92915 57.12956 39.52935
# Shear Modulus (GPa) = 84.10761 17.63650 50.87205
#
# Velocity S-wave (km/s) = 6.85973 3.14120 5.33493
# Velocity P-wave (km/s) = 8.66083 6.71704 7.75011
#
# Compressibility (1/GPa) = 0.04560141
#
# Stress axis : x y z
#
# Youngs Moduli (GPa) = 17.24667 67.42274 42.68811
#
# Poissons Ratio (x) = 0.57672 0.21378
# Poissons Ratio (y) = 0.14752 0.50190
# Poissons Ratio (z) = 0.08637 0.79272
#
# Static dielectric constant tensor:
#      x y z
#    x 1.620920 0.000000 0.000000 
#    y 0.000000 1.599840 0.000000 
#    z 0.000000 0.000000 1.638180 
# 
# From -- ./inp_files/36513.got.cif
#   From: 2010.05.17/outbox.cif.g08.bks.cpg/sg65_19_cif.got.tgz:36513.got - 2010.06.03 17:01:31.
