data_PCOD9492951
_publ_section_title
;
Structure prediction by ZEFSAII (Michael W. Deem and Ramdas Pophale) SiO2 
 PCOD9492951
Probable space group: C M M M
;
_chemical_formula_sum "Si O2"
_cell_formula_units_Z 68
_cell_length_a 19.945055
_cell_length_b 7.787479
_cell_length_c 20.430907
_cell_angle_alpha 90.000000
_cell_angle_beta 90.000000
_cell_angle_gamma 90.000000
_cell_volume 3173.363146
_symmetry_space_group_name_H-M "C M M M"
_symmetry_group_IT_number 65
_symmetry_cell_setting 'orthorhombic'
loop_
_space_group_symop_operation_xyz
x,y,z
-x,-y,z
x,-y,-z
-x,y,-z
-x,-y,-z
x,y,-z
-x,y,z
x,-y,z
1/2+x,1/2+y,z
1/2-x,1/2-y,z
1/2+x,1/2-y,-z
1/2-x,1/2+y,-z
1/2-x,1/2-y,-z
1/2+x,1/2+y,-z
1/2-x,1/2+y,z
1/2+x,1/2-y,z
loop_
_atom_site_type_symbol
_atom_site_label
_atom_site_fract_x
_atom_site_fract_y
_atom_site_fract_z
Si Si1 0.390613 0.306715 0.074907
Si Si2 0.326148 0.706741 0.425602
Si Si3 0.076434 0.207303 0.688457
Si Si4 0.000000 0.500000 0.092888
Si Si5 0.178248 0.700968 0.198416
O O1 0.419901 0.500000 0.080170
O O2 0.442263 0.152859 0.089335
O O3 0.333506 0.293362 0.129588
O O4 0.367496 0.286157 0.000000
O O5 0.336374 0.770605 0.500000
O O6 0.331194 0.500000 0.427219
O O7 0.250000 0.750000 0.405976
O O8 0.380737 0.770556 0.373832
O O9 0.117735 0.253572 0.753049
O O10 0.000000 0.270994 0.690011
O O11 0.073983 0.000000 0.684774
O O12 0.177745 0.500000 0.187386
O O13 0.250000 0.750000 0.228150
#
# Coordination Sequence:
#
# PCOD9492951 Si02
#       5
#    16  16  16   4  16
#     4  11  24  42  67  99 134 172 217 269 324 387
#     4   9  18  34  58  87 120 161 207 255 310 375
#     4  10  22  39  60  89 124 162 207 260 319 383
#     4  12  23  42  68 102 138 172 213 264 329 392
#     4  12  26  44  65  90 124 166 214 268 328 393
#
# _framework density 21.428370999999999
#
# number of rings (size 3 to 8) (size 9 to 14) (size 15 to 20)
#    0.000    1.412    1.176    4.235    1.647    5.176 
#    0.000    2.353    0.000    0.000    0.000    4.941 
#    0.000    0.000    0.000    0.000    0.000    0.000 
#
# Total GULP energy -189468.088436 kJ/mol
# GULP energy per Si atom -5572.590836 kJ/mol
# Density = 2.137960 g / cm^3
# Si number density = 21.428371 Si / 1000 Ang^3
#
#
#
# Elastic Constant Matrix: (Units=GPa)
#
#
# Indices 1 2 3 4 5 6 
#
# 1 158.0807 25.3870 81.4553 0.0000 0.0000 0.0000
# 2 25.3870 108.7266 22.7976 0.0000 0.0000 0.0000
# 3 81.4553 22.7976 103.2712 0.0000 0.0000 0.0000
# 4 0.0000 0.0000 0.0000 -26.7298 0.0000 0.0000
# 5 0.0000 0.0000 0.0000 0.0000 242.7350 0.0000
# 6 0.0000 0.0000 0.0000 0.0000 0.0000 22.9734
#
#
#
# Elastic Compliance Matrix: (Units=1/GPa)
#
#
# Indices 1 2 3 4 5 6 
#
# 1 0.010718 -0.000765 -0.008285 0.000000 0.000000 0.000000
# 2 -0.000765 0.009698 -0.001537 0.000000 0.000000 0.000000
# 3 -0.008285 -0.001537 0.016557 0.000000 0.000000 0.000000
# 4 0.000000 0.000000 0.000000 -0.037411 0.000000 0.000000
# 5 0.000000 0.000000 0.000000 0.000000 0.004120 0.000000
# 6 0.000000 0.000000 0.000000 0.000000 0.000000 0.043529
#
#
# Mechanical properties :
#
#
# Convention : Reuss Voigt Hill
#
# Bulk Modulus (GPa) = 63.29656 69.92870 66.61263
# Shear Modulus (GPa) = 67.88789 63.82497 65.85643
#
# Velocity S-wave (km/s) = 5.63472 5.46351 5.54978
# Velocity P-wave (km/s) = 8.48152 8.51495 8.49826
#
# Compressibility (1/GPa) = 0.01579865
#
# Stress axis : x y z
#
# Youngs Moduli (GPa) = 93.30384 103.10950 60.39710
#
# Poissons Ratio (x) = 0.07892 0.50037
# Poissons Ratio (y) = 0.07142 0.09285
# Poissons Ratio (z) = 0.77299 0.15850
#
# Static dielectric constant tensor:
#      x y z
#    x 1.785430 0.000000 0.000000 
#    y 0.000000 1.777550 0.000000 
#    z 0.000000 0.000000 1.787160 
# 
# From -- ./inp_files/55396.got.cif
#   From: 2010.05.17/outbox.cif.g08.bks.cpg/sg65_28_cif.got.tgz:55396.got - 2010.06.03 17:01:31.
