data_PCOD9492111
_publ_section_title
;
Structure prediction by ZEFSAII (Michael W. Deem and Ramdas Pophale) SiO2 
 PCOD9492111
Probable space group: C M M M
;
_chemical_formula_sum "Si O2"
_cell_formula_units_Z 104
_cell_length_a 28.516832
_cell_length_b 25.997057
_cell_length_c 7.510676
_cell_angle_alpha 90.000000
_cell_angle_beta 90.000000
_cell_angle_gamma 90.000000
_cell_volume 5568.067494
_symmetry_space_group_name_H-M "C M M M"
_symmetry_group_IT_number 65
_symmetry_cell_setting 'orthorhombic'
loop_
_space_group_symop_operation_xyz
x,y,z
-x,-y,z
x,-y,-z
-x,y,-z
-x,-y,-z
x,y,-z
-x,y,z
x,-y,z
1/2+x,1/2+y,z
1/2-x,1/2-y,z
1/2+x,1/2-y,-z
1/2-x,1/2+y,-z
1/2-x,1/2-y,-z
1/2+x,1/2+y,-z
1/2-x,1/2+y,z
1/2+x,1/2-y,z
loop_
_atom_site_type_symbol
_atom_site_label
_atom_site_fract_x
_atom_site_fract_y
_atom_site_fract_z
Si Si1 0.382726 0.656686 0.706980
Si Si2 0.194132 0.822404 0.000000
Si Si3 0.000000 0.438008 0.199721
Si Si4 0.946374 0.746052 0.715861
Si Si5 0.867604 0.335439 0.715783
Si Si6 0.703941 0.800947 0.000000
Si Si7 0.446106 0.440912 0.215422
Si Si8 0.602942 0.942934 0.295173
O O1 0.370899 0.666171 0.500000
O O2 0.418803 0.701850 0.767095
O O3 0.410092 0.602487 0.721559
O O4 0.336998 0.660153 0.831221
O O5 0.249097 0.835925 0.000000
O O6 0.202320 0.761078 0.000000
O O7 0.951573 0.425996 0.293028
O O8 0.000000 0.500000 0.190231
O O9 0.000000 0.417108 0.000000
O O10 0.948523 0.746374 0.500000
O O11 0.913748 0.697746 0.765576
O O12 0.000000 0.743897 0.780774
O O13 0.863668 0.333709 0.500000
O O14 0.871115 0.394204 0.781084
O O15 0.824108 0.312714 0.819522
O O16 0.500000 0.429432 0.271142
O O17 0.435411 0.500000 0.269913
O O18 0.445426 0.439984 0.000000
O O19 0.617299 0.947260 0.500000
O O20 0.607043 0.000000 0.213928
#
# Coordination Sequence:
#
# PCOD9492111 Si02
#       8
#    16   8   8  16  16   8  16  16
#     4  11  21  37  60  86 118 156 195 238 287 343
#     4  11  24  42  61  86 113 139 188 246 302 356
#     4   9  17  27  41  69 105 139 181 221 250 301
#     4   9  18  32  51  80 117 152 184 223 274 331
#     4  10  21  37  57  82 112 144 187 234 278 338
#     4  11  24  42  63  83 108 143 186 243 303 356
#     4   9  18  33  56  89 130 172 207 237 272 329
#     4   9  18  32  50  72 104 146 183 220 268 320
#
# _framework density 18.677935000000002
#
# number of rings (size 3 to 8) (size 9 to 14) (size 15 to 20)
#    0.000    2.231    2.308    1.154    2.154    2.769 
#    0.000    3.462    0.000    1.846    0.000    2.154 
#    0.000    0.000    0.000    0.000    0.000    0.000 
#
# Total GULP energy -289730.931580 kJ/mol
# GULP energy per Si atom -5571.748684 kJ/mol
# Density = 1.863542 g / cm^3
# Si number density = 18.677935 Si / 1000 Ang^3
#
#
#
# Elastic Constant Matrix: (Units=GPa)
#
#
# Indices 1 2 3 4 5 6 
#
# 1 94.1461 24.1690 27.0213 0.0000 0.0000 0.0000
# 2 24.1690 90.7076 11.1090 0.0000 0.0000 0.0000
# 3 27.0213 11.1090 74.0737 0.0000 0.0000 0.0000
# 4 0.0000 0.0000 0.0000 4.4330 0.0000 0.0000
# 5 0.0000 0.0000 0.0000 0.0000 10.6936 0.0000
# 6 0.0000 0.0000 0.0000 0.0000 0.0000 18.2798
#
#
#
# Elastic Compliance Matrix: (Units=1/GPa)
#
#
# Indices 1 2 3 4 5 6 
#
# 1 0.012540 -0.002833 -0.004150 0.000000 0.000000 0.000000
# 2 -0.002833 0.011871 -0.000747 0.000000 0.000000 0.000000
# 3 -0.004150 -0.000747 0.015126 0.000000 0.000000 0.000000
# 4 0.000000 0.000000 0.000000 0.225579 0.000000 0.000000
# 5 0.000000 0.000000 0.000000 0.000000 0.093514 0.000000
# 6 0.000000 0.000000 0.000000 0.000000 0.000000 0.054705
#
#
# Mechanical properties :
#
#
# Convention : Reuss Voigt Hill
#
# Bulk Modulus (GPa) = 41.53231 42.61403 42.07317
# Shear Modulus (GPa) = 11.44639 19.78983 15.61811
#
# Velocity S-wave (km/s) = 2.47822 3.25857 2.89481
# Velocity P-wave (km/s) = 5.52024 6.08461 5.80928
#
# Compressibility (1/GPa) = 0.02407764
#
# Stress axis : x y z
#
# Youngs Moduli (GPa) = 79.74422 84.24052 66.11218
#
# Poissons Ratio (x) = 0.23866 0.27434
# Poissons Ratio (y) = 0.22592 0.04937
# Poissons Ratio (z) = 0.33091 0.06291
#
# Static dielectric constant tensor:
#      x y z
#    x 1.661760 0.000000 0.000000 
#    y 0.000000 1.678700 0.000000 
#    z 0.000000 0.000000 1.677570 
# 
# From -- ./inp_files/18904.got.cif
#   From: 2010.05.17/outbox.cif.g08.bks.cpg/sg65_10_cif.got.tgz:18904.got - 2010.06.03 17:01:31.
