data_PCOD9492940
_publ_section_title
;
Structure prediction by ZEFSAII (Michael W. Deem and Ramdas Pophale) SiO2 
 PCOD9492940
Probable space group: C M M M
;
_chemical_formula_sum "Si O2"
_cell_formula_units_Z 116
_cell_length_a 17.581231
_cell_length_b 15.732791
_cell_length_c 24.023738
_cell_angle_alpha 90.000000
_cell_angle_beta 90.000000
_cell_angle_gamma 90.000000
_cell_volume 6645.009963
_symmetry_space_group_name_H-M "C M M M"
_symmetry_group_IT_number 65
_symmetry_cell_setting 'orthorhombic'
loop_
_space_group_symop_operation_xyz
x,y,z
-x,-y,z
x,-y,-z
-x,y,-z
-x,-y,-z
x,y,-z
-x,y,z
x,-y,z
1/2+x,1/2+y,z
1/2-x,1/2-y,z
1/2+x,1/2-y,-z
1/2-x,1/2+y,-z
1/2-x,1/2-y,-z
1/2+x,1/2+y,-z
1/2-x,1/2+y,z
1/2+x,1/2-y,z
loop_
_atom_site_type_symbol
_atom_site_label
_atom_site_fract_x
_atom_site_fract_y
_atom_site_fract_z
Si Si1 0.214504 0.901675 0.753719
Si Si2 0.414868 0.774101 0.132708
Si Si3 0.411712 0.682421 0.323972
Si Si4 0.884750 0.660710 0.255234
Si Si5 0.500000 0.000000 0.746217
Si Si6 0.407891 0.598012 0.437820
Si Si7 0.652585 0.595588 0.120652
Si Si8 0.810960 0.597107 0.065192
O O1 0.145965 0.863759 0.717774
O O2 0.294601 0.855751 0.744493
O O3 0.192210 0.897784 0.818687
O O4 0.224270 0.000000 0.738686
O O5 0.500000 0.801409 0.118045
O O6 0.403659 0.787689 0.198660
O O7 0.402254 0.675897 0.117079
O O8 0.355349 0.834169 0.101314
O O9 0.500000 0.654841 0.316338
O O10 0.406699 0.781069 0.307641
O O11 0.387479 0.658352 0.386610
O O12 0.933484 0.574973 0.253440
O O13 0.381126 0.621897 0.500000
O O14 0.500000 0.597918 0.439798
O O15 0.384660 0.500000 0.426741
O O16 0.619870 0.500000 0.115830
O O17 0.721160 0.604805 0.076832
O O18 0.832264 0.500000 0.081793
O O19 0.826873 0.607849 0.000000
#
# Coordination Sequence:
#
# PCOD9492940 Si02
#       8
#    16  16  16  16   4  16  16  16
#     4  11  22  35  56  82 116 157 194 236 292 346
#     4  12  24  37  59  86 116 150 189 239 296 355
#     4  11  21  34  55  89 123 152 191 241 291 344
#     4  12  23  38  55  83 116 156 202 242 293 352
#     4  12  24  40  60  76 118 166 200 244 290 362
#     4   8  15  30  53  82 119 161 198 234 286 348
#     4  10  22  39  59  82 113 154 190 229 284 355
#     4  10  23  42  64  87 111 146 193 244 294 347
#
# _framework density 17.456707999999999
#
# number of rings (size 3 to 8) (size 9 to 14) (size 15 to 20)
#    0.000    1.379    4.828    1.655    0.966    2.759 
#    0.000    2.069    0.000    1.655    0.000    3.862 
#    0.000    0.000    0.000    0.000    0.000    0.000 
#
# Total GULP energy -323124.753404 kJ/mol
# GULP energy per Si atom -5571.116438 kJ/mol
# Density = 1.741698 g / cm^3
# Si number density = 17.456708 Si / 1000 Ang^3
#
#
#
# Elastic Constant Matrix: (Units=GPa)
#
#
# Indices 1 2 3 4 5 6 
#
# 1 53.4640 6.4414 -0.9674 0.0000 0.0000 0.0000
# 2 6.4414 88.3565 31.9785 0.0000 0.0000 0.0000
# 3 -0.9674 31.9785 60.4497 0.0000 0.0000 0.0000
# 4 0.0000 0.0000 0.0000 24.0002 0.0000 0.0000
# 5 0.0000 0.0000 0.0000 0.0000 12.5782 0.0000
# 6 0.0000 0.0000 0.0000 0.0000 0.0000 2.8267
#
#
#
# Elastic Compliance Matrix: (Units=1/GPa)
#
#
# Indices 1 2 3 4 5 6 
#
# 1 0.018950 -0.001844 0.001279 0.000000 0.000000 0.000000
# 2 -0.001844 0.014177 -0.007529 0.000000 0.000000 0.000000
# 3 0.001279 -0.007529 0.020546 0.000000 0.000000 0.000000
# 4 0.000000 0.000000 0.000000 0.041666 0.000000 0.000000
# 5 0.000000 0.000000 0.000000 0.000000 0.079502 0.000000
# 6 0.000000 0.000000 0.000000 0.000000 0.000000 0.353774
#
#
# Mechanical properties :
#
#
# Convention : Reuss Voigt Hill
#
# Bulk Modulus (GPa) = 26.67848 30.79725 28.73787
# Shear Modulus (GPa) = 8.97183 18.86886 13.92035
#
# Velocity S-wave (km/s) = 2.26950 3.29126 2.82693
# Velocity P-wave (km/s) = 4.70992 5.66777 5.21090
#
# Compressibility (1/GPa) = 0.03748340
#
# Stress axis : x y z
#
# Youngs Moduli (GPa) = 52.77182 70.53506 48.67050
#
# Poissons Ratio (x) = 0.13009 -0.06225
# Poissons Ratio (y) = 0.09733 0.36646
# Poissons Ratio (z) = -0.06749 0.53109
#
# Static dielectric constant tensor:
#      x y z
#    x 1.583610 0.000000 0.000000 
#    y 0.000000 1.614850 0.000000 
#    z 0.000000 0.000000 1.587460 
# 
# From -- ./inp_files/70197.got.cif
#   From: 2010.05.17/outbox.cif.g08.bks.cpg/sg65_36_cif.got.tgz:70197.got - 2010.06.03 17:01:31.
