data_PCOD9492763
_publ_section_title
;
Structure prediction by ZEFSAII (Michael W. Deem and Ramdas Pophale) SiO2 
 PCOD9492763
Probable space group: C M M M
;
_chemical_formula_sum "Si O2"
_cell_formula_units_Z 48
_cell_length_a 12.818252
_cell_length_b 14.930486
_cell_length_c 13.142291
_cell_angle_alpha 90.000000
_cell_angle_beta 90.000000
_cell_angle_gamma 90.000000
_cell_volume 2515.207557
_symmetry_space_group_name_H-M "C M M M"
_symmetry_group_IT_number 65
_symmetry_cell_setting 'orthorhombic'
loop_
_space_group_symop_operation_xyz
x,y,z
-x,-y,z
x,-y,-z
-x,y,-z
-x,-y,-z
x,y,-z
-x,y,z
x,-y,z
1/2+x,1/2+y,z
1/2-x,1/2-y,z
1/2+x,1/2-y,-z
1/2-x,1/2+y,-z
1/2-x,1/2-y,-z
1/2+x,1/2+y,-z
1/2-x,1/2+y,z
1/2+x,1/2-y,z
loop_
_atom_site_type_symbol
_atom_site_label
_atom_site_fract_x
_atom_site_fract_y
_atom_site_fract_z
Si Si1 0.276959 0.144830 0.886169
Si Si2 0.500000 0.252475 0.383149
Si Si3 0.114382 0.902795 0.716519
Si Si4 0.000000 0.394608 0.207659
O O1 0.250000 0.250000 0.886507
O O2 0.204417 0.105334 0.798192
O O3 0.396518 0.127941 0.856375
O O4 0.256420 0.110186 0.000000
O O5 0.500000 0.226213 0.500000
O O6 0.401085 0.317885 0.357332
O O7 0.500000 0.169509 0.306358
O O8 0.000000 0.901524 0.770279
O O9 0.123110 0.000000 0.664050
O O10 0.000000 0.500000 0.233111
#
# Coordination Sequence:
#
# PCOD9492763 Si02
#       4
#    16   8  16   8
#     4  11  22  39  64  91 128 170 206 246 305 371
#     4  10  21  42  65  87 121 158 203 262 319 360
#     4   9  19  37  62  92 123 156 204 254 307 368
#     4  12  25  42  63  92 130 167 210 251 302 372
#
# _framework density 19.083912999999999
#
# number of rings (size 3 to 8) (size 9 to 14) (size 15 to 20)
#    1.000    0.667    3.333    1.500    0.000    5.667 
#    0.000    5.000    0.000    4.000    0.000    0.000 
#    0.000    0.000    0.000    0.000    0.000    0.000 
#
# Total GULP energy -133657.991570 kJ/mol
# GULP energy per Si atom -5569.082982 kJ/mol
# Density = 1.904048 g / cm^3
# Si number density = 19.083913 Si / 1000 Ang^3
#
#
#
# Elastic Constant Matrix: (Units=GPa)
#
#
# Indices 1 2 3 4 5 6 
#
# 1 82.1262 -7.4506 -4.1425 0.0000 0.0000 0.0000
# 2 -7.4506 129.1248 16.2211 0.0000 0.0000 0.0000
# 3 -4.1425 16.2211 65.3073 0.0000 0.0000 0.0000
# 4 0.0000 0.0000 0.0000 -7.3842 0.0000 0.0000
# 5 0.0000 0.0000 0.0000 0.0000 12.5354 0.0000
# 6 0.0000 0.0000 0.0000 0.0000 0.0000 25.5480
#
#
#
# Elastic Compliance Matrix: (Units=1/GPa)
#
#
# Indices 1 2 3 4 5 6 
#
# 1 0.012265 0.000630 0.000622 0.000000 0.000000 0.000000
# 2 0.000630 0.008026 -0.001954 0.000000 0.000000 0.000000
# 3 0.000622 -0.001954 0.015837 0.000000 0.000000 0.000000
# 4 0.000000 0.000000 0.000000 -0.135424 0.000000 0.000000
# 5 0.000000 0.000000 0.000000 0.000000 0.079774 0.000000
# 6 0.000000 0.000000 0.000000 0.000000 0.000000 0.039142
#
#
# Mechanical properties :
#
#
# Convention : Reuss Voigt Hill
#
# Bulk Modulus (GPa) = 28.79928 31.75715 30.27822
# Shear Modulus (GPa) = 153.37638 24.26852 88.82245
#
# Velocity S-wave (km/s) = 8.97463 3.56992 6.82965
# Velocity P-wave (km/s) = 11.06867 5.80253 8.83699
#
# Compressibility (1/GPa) = 0.03472308
#
# Stress axis : x y z
#
# Youngs Moduli (GPa) = 81.53383 124.59209 63.14368
#
# Poissons Ratio (x) = -0.07844 -0.03925
# Poissons Ratio (y) = -0.05133 0.12336
# Poissons Ratio (z) = -0.05068 0.24340
#
# Static dielectric constant tensor:
#      x y z
#    x 1.657450 0.000000 0.000000 
#    y 0.000000 1.751960 0.000000 
#    z 0.000000 0.000000 1.615650 
# 
# From -- ./inp_files/37340.got.cif
#   From: 2010.05.17/outbox.cif.g08.bks.cpg/sg65_19_cif.got.tgz:37340.got - 2010.06.03 17:01:31.
