data_PCOD9492084
_publ_section_title
;
Structure prediction by ZEFSAII (Michael W. Deem and Ramdas Pophale) SiO2 
 PCOD9492084
Probable space group: C M M M
;
_chemical_formula_sum "Si O2"
_cell_formula_units_Z 80
_cell_length_a 13.734686
_cell_length_b 29.830285
_cell_length_c 9.366097
_cell_angle_alpha 90.000000
_cell_angle_beta 90.000000
_cell_angle_gamma 90.000000
_cell_volume 3837.379835
_symmetry_space_group_name_H-M "C M M M"
_symmetry_group_IT_number 65
_symmetry_cell_setting 'orthorhombic'
loop_
_space_group_symop_operation_xyz
x,y,z
-x,-y,z
x,-y,-z
-x,y,-z
-x,-y,-z
x,y,-z
-x,y,z
x,-y,z
1/2+x,1/2+y,z
1/2-x,1/2-y,z
1/2+x,1/2-y,-z
1/2-x,1/2+y,-z
1/2-x,1/2-y,-z
1/2+x,1/2+y,-z
1/2-x,1/2+y,z
1/2+x,1/2-y,z
loop_
_atom_site_type_symbol
_atom_site_label
_atom_site_fract_x
_atom_site_fract_y
_atom_site_fract_z
Si Si1 0.882960 0.634771 0.662597
Si Si2 0.380959 0.777354 0.836146
Si Si3 0.381444 0.310677 0.663086
Si Si4 0.612232 0.399832 0.833643
Si Si5 0.803641 0.449638 0.168662
O O1 0.847034 0.634177 0.500000
O O2 0.849893 0.679227 0.746324
O O3 0.854768 0.589705 0.744813
O O4 0.000000 0.637168 0.658133
O O5 0.500000 0.777560 0.837609
O O6 0.351596 0.731142 0.760573
O O7 0.348826 0.780277 0.000000
O O8 0.347779 0.306079 0.500000
O O9 0.500000 0.309456 0.660019
O O10 0.358062 0.358420 0.733725
O O11 0.500000 0.411928 0.804733
O O12 0.688330 0.439861 0.816053
O O13 0.617804 0.385097 0.000000
O O14 0.828203 0.500000 0.214885
O O15 0.826991 0.445482 0.000000
#
# Coordination Sequence:
#
# PCOD9492084 Si02
#       5
#    16  16  16  16  16
#     4  10  21  37  57  81 110 144 181 222 270 323
#     4   9  16  28  50  79 110 144 180 218 263 316
#     4   9  16  27  47  77 112 147 181 217 260 313
#     4   9  18  34  56  81 110 144 181 221 267 320
#     4  10  22  39  58  81 108 139 179 228 278 325
#
# _framework density 20.847559
#
# number of rings (size 3 to 8) (size 9 to 14) (size 15 to 20)
#    0.000    2.600    0.000    1.800    0.000    8.000 
#    0.000    5.000    0.000    6.000    0.000    4.200 
#    0.000    0.000    0.000    0.000    0.000    0.000 
#
# Total GULP energy -223600.922237 kJ/mol
# GULP energy per Si atom -5590.023056 kJ/mol
# Density = 2.080011 g / cm^3
# Si number density = 20.847559 Si / 1000 Ang^3
#
#
#
# Elastic Constant Matrix: (Units=GPa)
#
#
# Indices 1 2 3 4 5 6 
#
# 1 44.5829 1.3032 4.2169 0.0000 0.0000 0.0000
# 2 1.3032 130.4538 62.6116 0.0000 0.0000 0.0000
# 3 4.2169 62.6116 105.9690 0.0000 0.0000 0.0000
# 4 0.0000 0.0000 0.0000 -20.1392 0.0000 0.0000
# 5 0.0000 0.0000 0.0000 0.0000 16.6906 0.0000
# 6 0.0000 0.0000 0.0000 0.0000 0.0000 25.1911
#
#
#
# Elastic Compliance Matrix: (Units=1/GPa)
#
#
# Indices 1 2 3 4 5 6 
#
# 1 0.022523 0.000286 -0.001065 0.000000 0.000000 0.000000
# 2 0.000286 0.010703 -0.006336 0.000000 0.000000 0.000000
# 3 -0.001065 -0.006336 0.013222 0.000000 0.000000 0.000000
# 4 0.000000 0.000000 0.000000 -0.049654 0.000000 0.000000
# 5 0.000000 0.000000 0.000000 0.000000 0.059914 0.000000
# 6 0.000000 0.000000 0.000000 0.000000 0.000000 0.039697
#
#
# Mechanical properties :
#
#
# Convention : Reuss Voigt Hill
#
# Bulk Modulus (GPa) = 31.03736 46.36323 38.70029
# Shear Modulus (GPa) = 41.19519 18.54010 29.86764
#
# Velocity S-wave (km/s) = 4.45007 2.98538 3.78917
# Velocity P-wave (km/s) = 6.42839 5.84558 6.14390
#
# Compressibility (1/GPa) = 0.03221924
#
# Stress axis : x y z
#
# Youngs Moduli (GPa) = 44.39998 93.42798 75.62897
#
# Poissons Ratio (x) = -0.02675 0.08058
# Poissons Ratio (y) = -0.01271 0.47915
# Poissons Ratio (z) = 0.04731 0.59191
#
# Static dielectric constant tensor:
#      x y z
#    x 1.816620 0.000000 0.000000 
#    y 0.000000 1.673060 0.000000 
#    z 0.000000 0.000000 1.710870 
# 
# From -- ./inp_files/9630.got.cif
#   From: 2010.05.17/outbox.cif.g08.bks.cpg/sg65_5_cif.got.tgz:9630.got - 2010.06.03 17:01:31.
