data_PCOD9492216
_publ_section_title
;
Structure prediction by ZEFSAII (Michael W. Deem and Ramdas Pophale) SiO2 
 PCOD9492216
Probable space group: C M M M
;
_chemical_formula_sum "Si O2"
_cell_formula_units_Z 64
_cell_length_a 8.776852
_cell_length_b 14.955546
_cell_length_c 26.439770
_cell_angle_alpha 90.000000
_cell_angle_beta 90.000000
_cell_angle_gamma 90.000000
_cell_volume 3470.553319
_symmetry_space_group_name_H-M "C M M M"
_symmetry_group_IT_number 65
_symmetry_cell_setting 'orthorhombic'
loop_
_space_group_symop_operation_xyz
x,y,z
-x,-y,z
x,-y,-z
-x,y,-z
-x,-y,-z
x,y,-z
-x,y,z
x,-y,z
1/2+x,1/2+y,z
1/2-x,1/2-y,z
1/2+x,1/2-y,-z
1/2-x,1/2+y,-z
1/2-x,1/2-y,-z
1/2+x,1/2+y,-z
1/2-x,1/2+y,z
1/2+x,1/2-y,z
loop_
_atom_site_type_symbol
_atom_site_label
_atom_site_fract_x
_atom_site_fract_y
_atom_site_fract_z
Si Si1 0.182222 0.500000 0.059658
Si Si2 0.181657 0.155919 0.607439
Si Si3 0.817084 0.850307 0.131506
Si Si4 0.318646 0.000000 0.325071
Si Si5 0.674947 0.892604 0.500000
Si Si6 0.182205 0.000000 0.214325
O O1 0.251526 0.411587 0.086125
O O2 0.000000 0.500000 0.067340
O O3 0.213966 0.500000 0.000000
O O4 0.250000 0.250000 0.623269
O O5 0.240716 0.137281 0.550654
O O6 0.000000 0.155126 0.607960
O O7 0.248160 0.083502 0.645462
O O8 0.750000 0.750000 0.133278
O O9 0.782204 0.911624 0.180924
O O10 0.000000 0.845026 0.127017
O O11 0.269915 0.000000 0.266836
O O12 0.500000 0.000000 0.330304
O O13 0.500000 0.859241 0.500000
O O14 0.670944 0.000000 0.500000
O O15 0.000000 0.000000 0.223520
#
# Coordination Sequence:
#
# PCOD9492216 Si02
#       6
#     8  16  16   8   8   8
#     4  10  21  37  58  87 124 163 204 250 299 350
#     4  12  25  42  64  89 120 156 196 240 292 351
#     4  10  21  38  62  89 120 158 202 248 296 353
#     4  12  25  42  63  90 121 154 194 243 299 354
#     4  11  22  39  64  90 121 155 193 237 288 352
#     4   9  21  41  61  85 117 155 198 246 298 350
#
# _framework density 18.440863
#
# number of rings (size 3 to 8) (size 9 to 14) (size 15 to 20)
#    0.000    1.250    1.250    6.000    0.000    6.000 
#    0.000    2.500    0.000    0.000    0.000    0.000 
#    0.000    0.000    0.000    0.000    0.000    0.000 
#
# Total GULP energy -178883.450116 kJ/mol
# GULP energy per Si atom -5590.107816 kJ/mol
# Density = 1.839889 g / cm^3
# Si number density = 18.440863 Si / 1000 Ang^3
#
#
#
# Elastic Constant Matrix: (Units=GPa)
#
#
# Indices 1 2 3 4 5 6 
#
# 1 172.8890 92.4763 99.7686 0.0000 0.0000 0.0000
# 2 92.4763 200.3493 91.9714 0.0000 0.0000 0.0000
# 3 99.7686 91.9714 149.3419 0.0000 0.0000 0.0000
# 4 0.0000 0.0000 0.0000 20.2414 0.0000 0.0000
# 5 0.0000 0.0000 0.0000 0.0000 36.6819 0.0000
# 6 0.0000 0.0000 0.0000 0.0000 0.0000 35.2771
#
#
#
# Elastic Compliance Matrix: (Units=1/GPa)
#
#
# Indices 1 2 3 4 5 6 
#
# 1 0.010047 -0.002170 -0.005376 0.000000 0.000000 0.000000
# 2 -0.002170 0.007427 -0.003124 0.000000 0.000000 0.000000
# 3 -0.005376 -0.003124 0.012211 0.000000 0.000000 0.000000
# 4 0.000000 0.000000 0.000000 0.049404 0.000000 0.000000
# 5 0.000000 0.000000 0.000000 0.000000 0.027261 0.000000
# 6 0.000000 0.000000 0.000000 0.000000 0.000000 0.028347
#
#
# Mechanical properties :
#
#
# Convention : Reuss Voigt Hill
#
# Bulk Modulus (GPa) = 119.82111 121.22366 120.52239
# Shear Modulus (GPa) = 31.48254 34.33102 32.90678
#
# Velocity S-wave (km/s) = 4.13633 4.31940 4.22886
# Velocity P-wave (km/s) = 9.37706 9.52657 9.45211
#
# Compressibility (1/GPa) = 0.00834577
#
# Stress axis : x y z
#
# Youngs Moduli (GPa) = 99.53616 134.64341 81.89063
#
# Poissons Ratio (x) = 0.29212 0.44021
# Poissons Ratio (y) = 0.21595 0.25587
# Poissons Ratio (z) = 0.53506 0.42069
#
# Static dielectric constant tensor:
#      x y z
#    x 1.616590 0.000000 0.000000 
#    y 0.000000 1.616720 0.000000 
#    z 0.000000 0.000000 1.613200 
# 
# From -- ./inp_files/66873.got.cif
#   From: 2010.05.17/outbox.cif.g08.bks.cpg/sg65_34_cif.got.tgz:66873.got - 2010.06.03 17:01:31.
