data_PCOD9492104
_publ_section_title
;
Structure prediction by ZEFSAII (Michael W. Deem and Ramdas Pophale) SiO2 
 PCOD9492104
Probable space group: C M M M
;
_chemical_formula_sum "Si O2"
_cell_formula_units_Z 104
_cell_length_a 20.236712
_cell_length_b 24.879790
_cell_length_c 9.585046
_cell_angle_alpha 90.000000
_cell_angle_beta 90.000000
_cell_angle_gamma 90.000000
_cell_volume 4825.928274
_symmetry_space_group_name_H-M "C M M M"
_symmetry_group_IT_number 65
_symmetry_cell_setting 'orthorhombic'
loop_
_space_group_symop_operation_xyz
x,y,z
-x,-y,z
x,-y,-z
-x,y,-z
-x,-y,-z
x,y,-z
-x,y,z
x,-y,z
1/2+x,1/2+y,z
1/2-x,1/2-y,z
1/2+x,1/2-y,-z
1/2-x,1/2+y,-z
1/2-x,1/2-y,-z
1/2+x,1/2+y,-z
1/2-x,1/2+y,z
1/2+x,1/2-y,z
loop_
_atom_site_type_symbol
_atom_site_label
_atom_site_fract_x
_atom_site_fract_y
_atom_site_fract_z
Si Si1 0.244765 0.604803 0.844220
Si Si2 0.079450 0.768851 0.832174
Si Si3 0.000000 0.934027 0.347694
Si Si4 0.077231 0.663896 0.656453
Si Si5 0.102957 0.560960 0.839215
Si Si6 0.794438 0.196632 0.335522
Si Si7 0.610816 0.436352 0.148538
O O1 0.182296 0.566296 0.836393
O O2 0.248820 0.648951 0.724564
O O3 0.312437 0.572389 0.832526
O O4 0.243175 0.630252 0.000000
O O5 0.096509 0.709990 0.766632
O O6 0.137430 0.803061 0.755434
O O7 0.000000 0.780291 0.805100
O O8 0.087713 0.769742 0.000000
O O9 0.935380 0.915492 0.268279
O O10 0.000000 0.911990 0.500000
O O11 0.000000 0.000000 0.353850
O O12 0.108095 0.667381 0.500000
O O13 0.082293 0.605952 0.729276
O O14 0.000000 0.673867 0.637689
O O15 0.082616 0.500000 0.807290
O O16 0.082222 0.573197 0.000000
O O17 0.809488 0.190664 0.500000
O O18 0.750000 0.250000 0.317601
O O19 0.598495 0.500000 0.142206
O O20 0.590577 0.412070 0.000000
#
# Coordination Sequence:
#
# PCOD9492104 Si02
#       7
#    16  16   8  16  16  16  16
#     4  10  21  37  57  82 110 144 187 235 284 335
#     4  10  21  39  64  91 117 150 195 245 296 352
#     4   9  17  29  47  73 103 135 173 215 259 309
#     4  10  21  37  58  85 118 155 192 232 284 348
#     4  10  21  37  58  85 117 153 195 244 292 338
#     4  11  24  40  59  85 117 152 191 236 289 352
#     4   9  17  32  54  77 103 138 179 221 267 320
#
# _framework density 21.550256999999998
#
# number of rings (size 3 to 8) (size 9 to 14) (size 15 to 20)
#    0.000    2.077    0.000    3.000    0.000   10.154 
#    1.385    1.538    0.000    2.769    0.000    0.000 
#    0.000    0.000    0.000    0.000    0.000    0.000 
#
# Total GULP energy -290139.594538 kJ/mol
# GULP energy per Si atom -5579.607587 kJ/mol
# Density = 2.150121 g / cm^3
# Si number density = 21.550257 Si / 1000 Ang^3
#
#
#
# Elastic Constant Matrix: (Units=GPa)
#
#
# Indices 1 2 3 4 5 6 
#
# 1 85.4426 -0.1330 47.6396 0.0000 0.0000 0.0000
# 2 -0.1330 59.5115 23.0961 0.0000 0.0000 0.0000
# 3 47.6396 23.0961 121.3803 0.0000 0.0000 0.0000
# 4 0.0000 0.0000 0.0000 16.3281 0.0000 0.0000
# 5 0.0000 0.0000 0.0000 0.0000 -0.8020 0.0000
# 6 0.0000 0.0000 0.0000 0.0000 0.0000 27.4564
#
#
#
# Elastic Compliance Matrix: (Units=1/GPa)
#
#
# Indices 1 2 3 4 5 6 
#
# 1 0.015335 0.002559 -0.006506 0.000000 0.000000 0.000000
# 2 0.002559 0.018570 -0.004538 0.000000 0.000000 0.000000
# 3 -0.006506 -0.004538 0.011655 0.000000 0.000000 0.000000
# 4 0.000000 0.000000 0.000000 0.061244 0.000000 0.000000
# 5 0.000000 0.000000 0.000000 0.000000 -1.246909 0.000000
# 6 0.000000 0.000000 0.000000 0.000000 0.000000 0.036421
#
#
# Mechanical properties :
#
#
# Convention : Reuss Voigt Hill
#
# Bulk Modulus (GPa) = 34.97512 45.28220 40.12866
# Shear Modulus (GPa) = -4.64174 21.64527 8.50177
#
# Velocity S-wave (km/s) = -1.46921 3.17268 1.98838
# Velocity P-wave (km/s) = 3.65878 5.87190 4.89213
#
# Compressibility (1/GPa) = 0.02859175
#
# Stress axis : x y z
#
# Youngs Moduli (GPa) = 65.20998 53.84934 85.79705
#
# Poissons Ratio (x) = -0.13781 0.55817
# Poissons Ratio (y) = -0.16688 0.38934
# Poissons Ratio (z) = 0.42424 0.24436
#
# Static dielectric constant tensor:
#      x y z
#    x 1.804060 0.000000 0.000000 
#    y 0.000000 1.792810 0.000000 
#    z 0.000000 0.000000 1.783570 
# 
# From -- ./inp_files/12391.got.cif
#   From: 2010.05.17/outbox.cif.g08.bks.cpg/sg65_7_cif.got.tgz:12391.got - 2010.06.03 17:01:31.
