data_PCOD9492391
_publ_section_title
;
Structure prediction by ZEFSAII (Michael W. Deem and Ramdas Pophale) SiO2 
 PCOD9492391
Probable space group: C M M M
;
_chemical_formula_sum "Si O2"
_cell_formula_units_Z 88
_cell_length_a 8.764905
_cell_length_b 26.175968
_cell_length_c 21.279829
_cell_angle_alpha 90.000000
_cell_angle_beta 90.000000
_cell_angle_gamma 90.000000
_cell_volume 4882.228461
_symmetry_space_group_name_H-M "C M M M"
_symmetry_group_IT_number 65
_symmetry_cell_setting 'orthorhombic'
loop_
_space_group_symop_operation_xyz
x,y,z
-x,-y,z
x,-y,-z
-x,y,-z
-x,-y,-z
x,y,-z
-x,y,z
x,-y,z
1/2+x,1/2+y,z
1/2-x,1/2-y,z
1/2+x,1/2-y,-z
1/2-x,1/2+y,-z
1/2-x,1/2-y,-z
1/2+x,1/2+y,-z
1/2-x,1/2+y,z
1/2+x,1/2-y,z
loop_
_atom_site_type_symbol
_atom_site_label
_atom_site_fract_x
_atom_site_fract_y
_atom_site_fract_z
Si Si1 0.682756 0.000000 0.141394
Si Si2 0.182398 0.694629 0.147797
Si Si3 0.182864 0.900698 0.073617
Si Si4 0.317509 0.194554 0.704454
Si Si5 0.183722 0.096642 0.636480
Si Si6 0.814612 0.059050 0.500000
Si Si7 0.316737 0.000000 0.710740
O O1 0.749269 0.050137 0.108429
O O2 0.720753 0.000000 0.215360
O O3 0.500000 0.000000 0.135624
O O4 0.250000 0.750000 0.131301
O O5 0.253197 0.650099 0.106135
O O6 0.217706 0.685173 0.221626
O O7 0.000000 0.695330 0.140917
O O8 0.000000 0.901538 0.078741
O O9 0.223761 0.901998 0.000000
O O10 0.500000 0.195124 0.697688
O O11 0.250000 0.250000 0.688163
O O12 0.246231 0.149552 0.663487
O O13 0.231629 0.086488 0.564327
O O14 0.248474 0.050002 0.677654
O O15 0.000000 0.096039 0.639529
O O16 0.000000 0.057776 0.500000
O O17 0.762540 0.000000 0.500000
O O18 0.500000 0.000000 0.704304
#
# Coordination Sequence:
#
# PCOD9492391 Si02
#       7
#     8  16  16  16  16   8   8
#     4  11  24  40  58  81 112 150 189 232 283 338
#     4  10  21  38  61  86 114 148 186 233 284 335
#     4  11  24  40  58  82 113 148 188 234 282 337
#     4  10  21  38  59  86 117 148 188 235 282 334
#     4  11  21  36  60  86 114 152 192 232 282 334
#     4   9  18  36  57  82 117 152 191 233 274 330
#     4  11  23  37  55  85 119 146 183 236 285 335
#
# _framework density 18.024557000000001
#
# number of rings (size 3 to 8) (size 9 to 14) (size 15 to 20)
#    0.000    1.545    0.909    4.091    0.000   10.909 
#    0.000    2.727    0.000    0.000    0.000    0.000 
#    0.000    0.000    0.000    0.000    0.000    0.000 
#
# Total GULP energy -245965.074901 kJ/mol
# GULP energy per Si atom -5590.115339 kJ/mol
# Density = 1.798353 g / cm^3
# Si number density = 18.024557 Si / 1000 Ang^3
#
#
#
# Elastic Constant Matrix: (Units=GPa)
#
#
# Indices 1 2 3 4 5 6 
#
# 1 63.6539 67.7141 75.8510 0.0000 0.0000 0.0000
# 2 67.7141 187.5046 135.6632 0.0000 0.0000 0.0000
# 3 75.8510 135.6632 170.7414 0.0000 0.0000 0.0000
# 4 0.0000 0.0000 0.0000 180.4905 0.0000 0.0000
# 5 0.0000 0.0000 0.0000 0.0000 24.8743 0.0000
# 6 0.0000 0.0000 0.0000 0.0000 0.0000 41.5564
#
#
#
# Elastic Compliance Matrix: (Units=1/GPa)
#
#
# Indices 1 2 3 4 5 6 
#
# 1 0.034174 -0.003192 -0.012645 0.000000 0.000000 0.000000
# 2 -0.003192 0.012843 -0.008786 0.000000 0.000000 0.000000
# 3 -0.012645 -0.008786 0.018456 0.000000 0.000000 0.000000
# 4 0.000000 0.000000 0.000000 0.005540 0.000000 0.000000
# 5 0.000000 0.000000 0.000000 0.000000 0.040202 0.000000
# 6 0.000000 0.000000 0.000000 0.000000 0.000000 0.024064
#
#
# Mechanical properties :
#
#
# Convention : Reuss Voigt Hill
#
# Bulk Modulus (GPa) = 61.63301 108.92850 85.28075
# Shear Modulus (GPa) = 26.32468 58.89569 42.61019
#
# Velocity S-wave (km/s) = 3.82578 5.72243 4.86738
# Velocity P-wave (km/s) = 7.33373 10.20912 8.88847
#
# Compressibility (1/GPa) = 0.01622507
#
# Stress axis : x y z
#
# Youngs Moduli (GPa) = 29.26183 77.86192 54.18382
#
# Poissons Ratio (x) = 0.24856 0.68517
# Poissons Ratio (y) = 0.09341 0.47608
# Poissons Ratio (z) = 0.37002 0.68413
#
# Static dielectric constant tensor:
#      x y z
#    x 1.604020 0.000000 0.000000 
#    y 0.000000 1.574050 0.000000 
#    z 0.000000 0.000000 1.604130 
# 
# From -- ./inp_files/59878.got.cif
#   From: 2010.05.17/outbox.cif.g08.bks.cpg/sg65_30_cif.got.tgz:59878.got - 2010.06.03 17:01:31.
