data_PCOD9492046
_publ_section_title
;
Structure prediction by ZEFSAII (Michael W. Deem and Ramdas Pophale) SiO2 
 PCOD9492046
Probable space group: C M M M
;
_chemical_formula_sum "Si O2"
_cell_formula_units_Z 104
_cell_length_a 27.959422
_cell_length_b 9.060895
_cell_length_c 21.739089
_cell_angle_alpha 90.000000
_cell_angle_beta 90.000000
_cell_angle_gamma 90.000000
_cell_volume 5507.324003
_symmetry_space_group_name_H-M "C M M M"
_symmetry_group_IT_number 65
_symmetry_cell_setting 'orthorhombic'
loop_
_space_group_symop_operation_xyz
x,y,z
-x,-y,z
x,-y,-z
-x,y,-z
-x,-y,-z
x,y,-z
-x,y,z
x,-y,z
1/2+x,1/2+y,z
1/2-x,1/2-y,z
1/2+x,1/2-y,-z
1/2-x,1/2+y,-z
1/2-x,1/2-y,-z
1/2+x,1/2+y,-z
1/2-x,1/2+y,z
1/2+x,1/2-y,z
loop_
_atom_site_type_symbol
_atom_site_label
_atom_site_fract_x
_atom_site_fract_y
_atom_site_fract_z
Si Si1 0.199065 0.823990 0.123751
Si Si2 0.698686 0.177615 0.500000
Si Si3 0.393466 0.823754 0.068727
Si Si4 0.944274 0.173663 0.427137
Si Si5 0.644377 0.175388 0.375416
Si Si6 0.945288 0.322544 0.805868
Si Si7 0.147044 0.824528 0.748786
O O1 0.250000 0.750000 0.111139
O O2 0.156222 0.758445 0.082771
O O3 0.182069 0.792260 0.193958
O O4 0.202058 0.000000 0.116007
O O5 0.750000 0.250000 0.500000
O O6 0.671298 0.221098 0.437835
O O7 0.701964 0.000000 0.500000
O O8 0.430620 0.789148 0.123265
O O9 0.384761 0.000000 0.071883
O O10 0.410572 0.788274 0.000000
O O11 0.937542 0.205595 0.500000
O O12 0.909860 0.272596 0.386646
O O13 0.000000 0.196688 0.413237
O O14 0.933387 0.000000 0.417949
O O15 0.663924 0.253338 0.314712
O O16 0.647138 0.000000 0.368700
O O17 0.941672 0.500000 0.797514
O O18 0.904711 0.243762 0.765706
O O19 0.000000 0.278469 0.793275
O O20 0.142885 0.000000 0.742733
#
# Coordination Sequence:
#
# PCOD9492046 Si02
#       7
#    16   8  16  16  16  16  16
#     4  10  21  37  57  79 106 140 181 228 277 328
#     4  10  24  42  59  82 109 139 176 219 269 328
#     4   9  18  33  54  82 115 148 183 224 269 319
#     4   9  18  33  54  80 108 139 174 211 257 315
#     4  11  22  38  58  82 111 141 178 223 273 326
#     4   9  18  34  56  82 113 149 187 226 269 315
#     4  10  22  38  56  80 107 141 184 226 272 325
#
# _framework density 18.883944
#
# number of rings (size 3 to 8) (size 9 to 14) (size 15 to 20)
#    0.000    2.308    0.769    1.846    0.000    5.846 
#    0.000    5.385    0.000    0.000    0.000    4.308 
#    0.000    0.000    0.000    0.000    0.000    0.000 
#
# Total GULP energy -290296.422037 kJ/mol
# GULP energy per Si atom -5582.623501 kJ/mol
# Density = 1.884096 g / cm^3
# Si number density = 18.883944 Si / 1000 Ang^3
#
#
#
# Elastic Constant Matrix: (Units=GPa)
#
#
# Indices 1 2 3 4 5 6 
#
# 1 39.7444 5.3612 -12.2402 0.0000 0.0000 0.0000
# 2 5.3612 17.2187 16.4312 0.0000 0.0000 0.0000
# 3 -12.2402 16.4312 78.0462 0.0000 0.0000 0.0000
# 4 0.0000 0.0000 0.0000 25.1062 0.0000 0.0000
# 5 0.0000 0.0000 0.0000 0.0000 4.6591 0.0000
# 6 0.0000 0.0000 0.0000 0.0000 0.0000 28.1742
#
#
#
# Elastic Compliance Matrix: (Units=1/GPa)
#
#
# Indices 1 2 3 4 5 6 
#
# 1 0.030080 -0.017354 0.008371 0.000000 0.000000 0.000000
# 2 -0.017354 0.082690 -0.020130 0.000000 0.000000 0.000000
# 3 0.008371 -0.020130 0.018364 0.000000 0.000000 0.000000
# 4 0.000000 0.000000 0.000000 0.039831 0.000000 0.000000
# 5 0.000000 0.000000 0.000000 0.000000 0.214633 0.000000
# 6 0.000000 0.000000 0.000000 0.000000 0.000000 0.035493
#
#
# Mechanical properties :
#
#
# Convention : Reuss Voigt Hill
#
# Bulk Modulus (GPa) = 13.71614 17.12375 15.41995
# Shear Modulus (GPa) = 9.92813 19.95171 14.93992
#
# Velocity S-wave (km/s) = 2.29540 3.25398 2.81578
# Velocity P-wave (km/s) = 3.78210 4.81720 4.33069
#
# Compressibility (1/GPa) = 0.07290679
#
# Stress axis : x y z
#
# Youngs Moduli (GPa) = 33.24501 12.09340 54.45473
#
# Poissons Ratio (x) = 0.20987 -0.45584
# Poissons Ratio (y) = 0.57693 1.09620
# Poissons Ratio (z) = -0.27829 0.24345
#
# Static dielectric constant tensor:
#      x y z
#    x 1.623430 0.000000 0.000000 
#    y 0.000000 1.627460 0.000000 
#    z 0.000000 0.000000 1.680810 
# 
# From -- ./inp_files/65943.got.cif
#   From: 2010.05.17/outbox.cif.g08.bks.cpg/sg65_33_cif.got.tgz:65943.got - 2010.06.03 17:01:31.
