data_PCOD9492402
_publ_section_title
;
Structure prediction by ZEFSAII (Michael W. Deem and Ramdas Pophale) SiO2 
 PCOD9492402
Probable space group: C M M M
;
_chemical_formula_sum "Si O2"
_cell_formula_units_Z 112
_cell_length_a 14.878064
_cell_length_b 28.191296
_cell_length_c 15.072225
_cell_angle_alpha 90.000000
_cell_angle_beta 90.000000
_cell_angle_gamma 90.000000
_cell_volume 6321.772061
_symmetry_space_group_name_H-M "C M M M"
_symmetry_group_IT_number 65
_symmetry_cell_setting 'orthorhombic'
loop_
_space_group_symop_operation_xyz
x,y,z
-x,-y,z
x,-y,-z
-x,y,-z
-x,-y,-z
x,y,-z
-x,y,z
x,-y,z
1/2+x,1/2+y,z
1/2-x,1/2-y,z
1/2+x,1/2-y,-z
1/2-x,1/2+y,-z
1/2-x,1/2-y,-z
1/2+x,1/2+y,-z
1/2-x,1/2+y,z
1/2+x,1/2-y,z
loop_
_atom_site_type_symbol
_atom_site_label
_atom_site_fract_x
_atom_site_fract_y
_atom_site_fract_z
Si Si1 0.363771 0.296013 0.601627
Si Si2 0.265922 0.053062 0.401282
Si Si3 0.351598 0.811107 0.603157
Si Si4 0.198759 0.443465 0.100650
Si Si5 0.393915 0.899067 0.268318
Si Si6 0.401310 0.443682 0.850814
Si Si7 0.903964 0.106394 0.661425
O O1 0.391807 0.305527 0.500000
O O2 0.388365 0.241767 0.621799
O O3 0.255938 0.303134 0.604067
O O4 0.401582 0.336908 0.663216
O O5 0.303141 0.057547 0.500000
O O6 0.342612 0.063891 0.331353
O O7 0.182846 0.088438 0.390454
O O8 0.230545 0.000000 0.388222
O O9 0.375589 0.824295 0.500000
O O10 0.377334 0.849530 0.677754
O O11 0.185578 0.500000 0.122815
O O12 0.151822 0.409260 0.172681
O O13 0.306665 0.434597 0.101641
O O14 0.165800 0.436263 0.000000
O O15 0.500000 0.906492 0.261577
O O16 0.500000 0.432992 0.892129
O O17 0.401461 0.500000 0.832859
O O18 0.397035 0.415774 0.758588
O O19 0.000000 0.091113 0.622392
#
# Coordination Sequence:
#
# PCOD9492402 Si02
#       7
#    16  16  16  16  16  16  16
#     4   9  17  31  52  78 110 145 183 228 274 321
#     4  11  23  37  52  73 107 149 191 230 265 313
#     4   9  18  34  56  80 108 145 186 229 275 321
#     4  10  21  38  60  84 110 140 176 224 284 342
#     4  12  24  38  57  78 105 144 187 233 279 323
#     4   9  17  31  54  83 113 145 181 221 268 330
#     4  11  20  31  52  80 112 150 183 217 267 326
#
# _framework density 17.716553000000001
#
# number of rings (size 3 to 8) (size 9 to 14) (size 15 to 20)
#    0.000    1.857    2.857    2.571    0.000    5.429 
#    0.000    5.000    0.000    0.000    0.000    8.000 
#    0.000    6.857    0.000    0.000    0.000    0.000 
#
# Total GULP energy -312085.934253 kJ/mol
# GULP energy per Si atom -5572.963112 kJ/mol
# Density = 1.767623 g / cm^3
# Si number density = 17.716553 Si / 1000 Ang^3
#
#
#
# Elastic Constant Matrix: (Units=GPa)
#
#
# Indices 1 2 3 4 5 6 
#
# 1 100.4253 31.4591 42.5755 0.0000 0.0000 0.0000
# 2 31.4591 79.6255 41.2754 0.0000 0.0000 0.0000
# 3 42.5755 41.2754 103.1077 0.0000 0.0000 0.0000
# 4 0.0000 0.0000 0.0000 15.0640 0.0000 0.0000
# 5 0.0000 0.0000 0.0000 0.0000 -37.8576 0.0000
# 6 0.0000 0.0000 0.0000 0.0000 0.0000 4.1810
#
#
#
# Elastic Compliance Matrix: (Units=1/GPa)
#
#
# Indices 1 2 3 4 5 6 
#
# 1 0.012570 -0.002872 -0.004041 0.000000 0.000000 0.000000
# 2 -0.002872 0.016503 -0.005421 0.000000 0.000000 0.000000
# 3 -0.004041 -0.005421 0.013537 0.000000 0.000000 0.000000
# 4 0.000000 0.000000 0.000000 0.066384 0.000000 0.000000
# 5 0.000000 0.000000 0.000000 0.000000 -0.026415 0.000000
# 6 0.000000 0.000000 0.000000 0.000000 0.000000 0.239175
#
#
# Mechanical properties :
#
#
# Convention : Reuss Voigt Hill
#
# Bulk Modulus (GPa) = 55.72870 57.08651 56.40761
# Shear Modulus (GPa) = 14.18831 7.46738 10.82785
#
# Velocity S-wave (km/s) = 2.83300 2.05525 2.47487
# Velocity P-wave (km/s) = 6.49809 6.15826 6.33046
#
# Compressibility (1/GPa) = 0.01794407
#
# Stress axis : x y z
#
# Youngs Moduli (GPa) = 79.55170 60.59401 73.87035
#
# Poissons Ratio (x) = 0.17401 0.29851
# Poissons Ratio (y) = 0.22845 0.40043
# Poissons Ratio (z) = 0.32147 0.32846
#
# Static dielectric constant tensor:
#      x y z
#    x 1.652520 0.000000 0.000000 
#    y 0.000000 1.619500 0.000000 
#    z 0.000000 0.000000 1.600080 
# 
# From -- ./inp_files/41146.got.cif
#   From: 2010.05.17/outbox.cif.g08.bks.cpg/sg65_21_cif.got.tgz:41146.got - 2010.06.03 17:01:31.
