data_PCOD9492383
_publ_section_title
;
Structure prediction by ZEFSAII (Michael W. Deem and Ramdas Pophale) SiO2 
 PCOD9492383
Probable space group: C M M M
;
_chemical_formula_sum "Si O2"
_cell_formula_units_Z 64
_cell_length_a 22.253456
_cell_length_b 8.131577
_cell_length_c 17.454744
_cell_angle_alpha 90.000000
_cell_angle_beta 90.000000
_cell_angle_gamma 90.000000
_cell_volume 3158.535261
_symmetry_space_group_name_H-M "C M M M"
_symmetry_group_IT_number 65
_symmetry_cell_setting 'orthorhombic'
loop_
_space_group_symop_operation_xyz
x,y,z
-x,-y,z
x,-y,-z
-x,y,-z
-x,-y,-z
x,y,-z
-x,y,z
x,-y,z
1/2+x,1/2+y,z
1/2-x,1/2-y,z
1/2+x,1/2-y,-z
1/2-x,1/2+y,-z
1/2-x,1/2-y,-z
1/2+x,1/2+y,-z
1/2-x,1/2+y,z
1/2+x,1/2-y,z
loop_
_atom_site_type_symbol
_atom_site_label
_atom_site_fract_x
_atom_site_fract_y
_atom_site_fract_z
Si Si1 0.317904 0.195872 0.688202
Si Si2 0.623957 0.195638 0.843527
Si Si3 0.817671 0.804308 0.000000
Si Si4 0.500000 0.201926 0.909168
Si Si5 0.433087 0.698358 0.410288
O O1 0.250000 0.250000 0.667586
O O2 0.338518 0.263064 0.771831
O O3 0.373703 0.241045 0.633106
O O4 0.314858 0.000000 0.691601
O O5 0.557329 0.259512 0.860848
O O6 0.618870 0.000000 0.831051
O O7 0.655351 0.228875 0.923579
O O8 0.750000 0.750000 0.000000
O O9 0.825554 0.000000 0.000000
O O10 0.500000 0.000000 0.911456
O O11 0.500000 0.252075 0.000000
O O12 0.429329 0.744439 0.500000
O O13 0.500000 0.753764 0.381956
O O14 0.432894 0.500000 0.406076
#
# Coordination Sequence:
#
# PCOD9492383 Si02
#       5
#    16  16   8   8  16
#     4  11  24  39  61  90 124 161 204 252 299 356
#     4  10  21  38  59  84 116 154 195 240 295 355
#     4  12  24  37  56  79 109 150 198 246 295 350
#     4   9  16  32  60  84 109 148 189 235 294 354
#     4   9  20  41  67  93 124 161 197 239 298 363
#
# _framework density 20.262559
#
# number of rings (size 3 to 8) (size 9 to 14) (size 15 to 20)
#    0.000    1.875    1.250    3.375    1.750    5.500 
#    0.000    2.500    0.000    0.000    0.000    0.000 
#    0.000    0.000    0.000    0.000    0.000    0.000 
#
# Total GULP energy -178446.278557 kJ/mol
# GULP energy per Si atom -5576.446205 kJ/mol
# Density = 2.021644 g / cm^3
# Si number density = 20.262559 Si / 1000 Ang^3
#
#
#
# Elastic Constant Matrix: (Units=GPa)
#
#
# Indices 1 2 3 4 5 6 
#
# 1 227.1176 18.0056 78.2840 0.0000 0.0000 0.0000
# 2 18.0056 16.5458 8.0308 0.0000 0.0000 0.0000
# 3 78.2840 8.0308 91.0811 0.0000 0.0000 0.0000
# 4 0.0000 0.0000 0.0000 18.2415 0.0000 0.0000
# 5 0.0000 0.0000 0.0000 0.0000 -34.9241 0.0000
# 6 0.0000 0.0000 0.0000 0.0000 0.0000 20.1539
#
#
#
# Elastic Compliance Matrix: (Units=1/GPa)
#
#
# Indices 1 2 3 4 5 6 
#
# 1 0.006577 -0.004611 -0.005246 0.000000 0.000000 0.000000
# 2 -0.004611 0.066373 -0.001889 0.000000 0.000000 0.000000
# 3 -0.005246 -0.001889 0.015655 0.000000 0.000000 0.000000
# 4 0.000000 0.000000 0.000000 0.054820 0.000000 0.000000
# 5 0.000000 0.000000 0.000000 0.000000 -0.028634 0.000000
# 6 0.000000 0.000000 0.000000 0.000000 0.000000 0.049618
#
#
# Mechanical properties :
#
#
# Convention : Reuss Voigt Hill
#
# Bulk Modulus (GPa) = 15.35816 60.37614 37.86715
# Shear Modulus (GPa) = 23.85429 16.05586 19.95508
#
# Velocity S-wave (km/s) = 3.43484 2.81800 3.14160
# Velocity P-wave (km/s) = 4.82979 6.36001 5.64697
#
# Compressibility (1/GPa) = 0.06511196
#
# Stress axis : x y z
#
# Youngs Moduli (GPa) = 152.04880 15.06644 63.87767
#
# Poissons Ratio (x) = 0.06947 0.33512
# Poissons Ratio (y) = 0.70106 0.12068
# Poissons Ratio (z) = 0.79768 0.02846
#
# Static dielectric constant tensor:
#      x y z
#    x 1.882070 0.000000 0.000000 
#    y 0.000000 1.710900 0.000000 
#    z 0.000000 0.000000 1.685150 
# 
# From -- ./inp_files/36066.got.cif
#   From: 2010.05.17/outbox.cif.g08.bks.cpg/sg65_19_cif.got.tgz:36066.got - 2010.06.03 17:01:31.
