data_PCOD9492563
_publ_section_title
;
Structure prediction by ZEFSAII (Michael W. Deem and Ramdas Pophale) SiO2 
 PCOD9492563
Probable space group: C M M M
;
_chemical_formula_sum "Si O2"
_cell_formula_units_Z 64
_cell_length_a 31.432516
_cell_length_b 8.876958
_cell_length_c 12.065186
_cell_angle_alpha 90.000000
_cell_angle_beta 90.000000
_cell_angle_gamma 90.000000
_cell_volume 3366.490024
_symmetry_space_group_name_H-M "C M M M"
_symmetry_group_IT_number 65
_symmetry_cell_setting 'orthorhombic'
loop_
_space_group_symop_operation_xyz
x,y,z
-x,-y,z
x,-y,-z
-x,y,-z
-x,-y,-z
x,y,-z
-x,y,z
x,-y,z
1/2+x,1/2+y,z
1/2-x,1/2-y,z
1/2+x,1/2-y,-z
1/2-x,1/2+y,-z
1/2-x,1/2-y,-z
1/2+x,1/2+y,-z
1/2-x,1/2+y,z
1/2+x,1/2-y,z
loop_
_atom_site_type_symbol
_atom_site_label
_atom_site_fract_x
_atom_site_fract_y
_atom_site_fract_z
Si Si1 0.204546 0.179583 0.759222
Si Si2 0.332512 0.679070 0.000000
Si Si3 0.951722 0.179557 0.231721
Si Si4 0.074546 0.679402 0.000000
Si Si5 0.874958 0.679421 0.368826
O O1 0.250000 0.250000 0.731095
O O2 0.193438 0.210772 0.888250
O O3 0.166724 0.249354 0.686955
O O4 0.205583 0.000000 0.744353
O O5 0.343386 0.500000 0.000000
O O6 0.375862 0.773259 0.000000
O O7 0.916355 0.250031 0.311158
O O8 0.000000 0.207793 0.270203
O O9 0.945176 0.000000 0.224182
O O10 0.945651 0.250563 0.110295
O O11 0.070058 0.500000 0.000000
O O12 0.875247 0.708130 0.500000
O O13 0.874811 0.500000 0.350108
#
# Coordination Sequence:
#
# PCOD9492563 Si02
#       5
#    16   8  16   8  16
#     4  11  23  40  65  94 128 166 207 255 310 373
#     4  10  21  38  62  93 128 165 202 248 308 373
#     4  11  24  42  65  93 127 166 208 255 310 375
#     4  12  23  36  63  96 129 166 204 252 310 371
#     4  11  25  44  65  91 124 163 211 264 315 370
#
# _framework density 19.010898999999998
#
# number of rings (size 3 to 8) (size 9 to 14) (size 15 to 20)
#    0.000    1.000    2.500    4.125    0.000    7.500 
#    0.000    2.500    0.000    0.000    0.000    0.000 
#    0.000    0.000    0.000    0.000    0.000    0.000 
#
# Total GULP energy -179052.209027 kJ/mol
# GULP energy per Si atom -5595.381532 kJ/mol
# Density = 1.896763 g / cm^3
# Si number density = 19.010899 Si / 1000 Ang^3
#
#
#
# Elastic Constant Matrix: (Units=GPa)
#
#
# Indices 1 2 3 4 5 6 
#
# 1 196.1862 101.0725 97.1180 0.0000 0.0000 0.0000
# 2 101.0725 106.3990 88.6496 0.0000 0.0000 0.0000
# 3 97.1180 88.6496 126.8453 0.0000 0.0000 0.0000
# 4 0.0000 0.0000 0.0000 2.1629 0.0000 0.0000
# 5 0.0000 0.0000 0.0000 0.0000 -5.1708 0.0000
# 6 0.0000 0.0000 0.0000 0.0000 0.0000 36.5138
#
#
#
# Elastic Compliance Matrix: (Units=1/GPa)
#
#
# Indices 1 2 3 4 5 6 
#
# 1 0.010306 -0.007699 -0.002510 0.000000 0.000000 0.000000
# 2 -0.007699 0.028251 -0.013850 0.000000 0.000000 0.000000
# 3 -0.002510 -0.013850 0.019485 0.000000 0.000000 0.000000
# 4 0.000000 0.000000 0.000000 0.462332 0.000000 0.000000
# 5 0.000000 0.000000 0.000000 0.000000 -0.193394 0.000000
# 6 0.000000 0.000000 0.000000 0.000000 0.000000 0.027387
#
#
# Mechanical properties :
#
#
# Convention : Reuss Voigt Hill
#
# Bulk Modulus (GPa) = 100.75843 111.45673 106.10758
# Shear Modulus (GPa) = 12.32153 16.20721 14.26437
#
# Velocity S-wave (km/s) = 2.54860 2.92297 2.74218
# Velocity P-wave (km/s) = 7.85976 8.37536 8.12166
#
# Compressibility (1/GPa) = 0.00992473
#
# Stress axis : x y z
#
# Youngs Moduli (GPa) = 97.02971 35.39684 51.32139
#
# Poissons Ratio (x) = 0.27250 0.12884
# Poissons Ratio (y) = 0.74699 0.71079
# Poissons Ratio (z) = 0.24359 0.49024
#
# Static dielectric constant tensor:
#      x y z
#    x 1.636420 0.000000 0.000000 
#    y 0.000000 1.634630 0.000000 
#    z 0.000000 0.000000 1.635770 
# 
# From -- ./inp_files/21003.got.cif
#   From: 2010.05.17/outbox.cif.g08.bks.cpg/sg65_11_cif.got.tgz:21003.got - 2010.06.03 17:01:31.
