data_PCOD9492146
_publ_section_title
;
Structure prediction by ZEFSAII (Michael W. Deem and Ramdas Pophale) SiO2 
 PCOD9492146
Probable space group: C M M M
;
_chemical_formula_sum "Si O2"
_cell_formula_units_Z 88
_cell_length_a 8.596123
_cell_length_b 21.844563
_cell_length_c 26.043653
_cell_angle_alpha 90.000000
_cell_angle_beta 90.000000
_cell_angle_gamma 90.000000
_cell_volume 4890.439408
_symmetry_space_group_name_H-M "C M M M"
_symmetry_group_IT_number 65
_symmetry_cell_setting 'orthorhombic'
loop_
_space_group_symop_operation_xyz
x,y,z
-x,-y,z
x,-y,-z
-x,y,-z
-x,-y,-z
x,y,-z
-x,y,z
x,-y,z
1/2+x,1/2+y,z
1/2-x,1/2-y,z
1/2+x,1/2-y,-z
1/2-x,1/2+y,-z
1/2-x,1/2-y,-z
1/2+x,1/2+y,-z
1/2-x,1/2+y,z
1/2+x,1/2-y,z
loop_
_atom_site_type_symbol
_atom_site_label
_atom_site_fract_x
_atom_site_fract_y
_atom_site_fract_z
Si Si1 0.815677 0.571381 0.779100
Si Si2 0.812556 0.623734 0.394461
Si Si3 0.821267 0.074037 0.888956
Si Si4 0.685987 0.816381 0.500000
Si Si5 0.185410 0.181649 0.290609
Si Si6 0.309828 0.570610 0.000000
Si Si7 0.313349 0.500000 0.561639
O O1 0.762050 0.500000 0.769413
O O2 0.779666 0.585837 0.838783
O O3 0.739009 0.625579 0.746141
O O4 0.000000 0.572181 0.769622
O O5 0.760734 0.654153 0.447545
O O6 0.744709 0.660357 0.346578
O O7 0.749597 0.556300 0.404856
O O8 0.000000 0.623198 0.390165
O O9 0.000000 0.094299 0.880251
O O10 0.826452 0.000000 0.894037
O O11 0.764726 0.097788 0.944641
O O12 0.750000 0.750000 0.500000
O O13 0.000000 0.680991 0.500000
O O14 0.250000 0.250000 0.278312
O O15 0.000000 0.185291 0.289977
O O16 0.255223 0.500000 0.000000
O O17 0.500000 0.569567 0.000000
O O18 0.500000 0.500000 0.560229
O O19 0.261532 0.500000 0.500000
#
# Coordination Sequence:
#
# PCOD9492146 Si02
#       7
#    16  16  16   8  16   8   8
#     4  10  21  37  57  83 116 154 194 239 291 343
#     4  11  23  41  62  86 116 151 187 230 283 338
#     4   8  13  24  44  72 107 147 190 235 282 335
#     4  10  22  37  58  83 109 144 180 220 275 334
#     4  12  26  44  64  87 115 149 194 242 292 349
#     4   7  10  18  37  67 104 145 186 229 280 333
#     4  11  23  39  61  91 121 153 189 228 275 334
#
# _framework density 17.994292999999999
#
# number of rings (size 3 to 8) (size 9 to 14) (size 15 to 20)
#    0.000    2.000    0.909    4.636    1.273    4.364 
#    0.000    0.455    0.000    2.727    0.000    0.636 
#    0.000    0.000    0.000    0.000    0.000    0.000 
#
# Total GULP energy -245080.652473 kJ/mol
# GULP energy per Si atom -5570.014829 kJ/mol
# Density = 1.795334 g / cm^3
# Si number density = 17.994293 Si / 1000 Ang^3
#
#
#
# Elastic Constant Matrix: (Units=GPa)
#
#
# Indices 1 2 3 4 5 6 
#
# 1 71.4927 40.4944 38.1272 0.0000 0.0000 0.0000
# 2 40.4944 123.4516 60.2251 0.0000 0.0000 0.0000
# 3 38.1272 60.2251 123.7039 0.0000 0.0000 0.0000
# 4 0.0000 0.0000 0.0000 -17.4181 0.0000 0.0000
# 5 0.0000 0.0000 0.0000 0.0000 28.6487 0.0000
# 6 0.0000 0.0000 0.0000 0.0000 0.0000 25.4658
#
#
#
# Elastic Compliance Matrix: (Units=1/GPa)
#
#
# Indices 1 2 3 4 5 6 
#
# 1 0.018305 -0.004265 -0.003565 0.000000 0.000000 0.000000
# 2 -0.004265 0.011617 -0.004341 0.000000 0.000000 0.000000
# 3 -0.003565 -0.004341 0.011296 0.000000 0.000000 0.000000
# 4 0.000000 0.000000 0.000000 -0.057411 0.000000 0.000000
# 5 0.000000 0.000000 0.000000 0.000000 0.034906 0.000000
# 6 0.000000 0.000000 0.000000 0.000000 0.000000 0.039268
#
#
# Mechanical properties :
#
#
# Convention : Reuss Voigt Hill
#
# Bulk Modulus (GPa) = 59.25968 66.26020 62.75994
# Shear Modulus (GPa) = 56.85142 19.32605 38.08873
#
# Velocity S-wave (km/s) = 5.62696 3.28076 4.60576
# Velocity P-wave (km/s) = 8.67300 7.15919 7.95220
#
# Compressibility (1/GPa) = 0.01687488
#
# Stress axis : x y z
#
# Youngs Moduli (GPa) = 54.63124 86.07937 88.52481
#
# Poissons Ratio (x) = 0.36712 0.31562
# Poissons Ratio (y) = 0.23300 0.38431
# Poissons Ratio (z) = 0.19478 0.37370
#
# Static dielectric constant tensor:
#      x y z
#    x 1.623990 0.000000 0.000000 
#    y 0.000000 1.453780 0.000000 
#    z 0.000000 0.000000 1.644500 
# 
# From -- ./inp_files/67608.got.cif
#   From: 2010.05.17/outbox.cif.g08.bks.cpg/sg65_34_cif.got.tgz:67608.got - 2010.06.03 17:01:31.
