data_PCOD9492976
_publ_section_title
;
Structure prediction by ZEFSAII (Michael W. Deem and Ramdas Pophale) SiO2 
 PCOD9492976
Probable space group: C M M M
;
_chemical_formula_sum "Si O2"
_cell_formula_units_Z 52
_cell_length_a 10.806848
_cell_length_b 30.005652
_cell_length_c 7.288615
_cell_angle_alpha 90.000000
_cell_angle_beta 90.000000
_cell_angle_gamma 90.000000
_cell_volume 2363.453824
_symmetry_space_group_name_H-M "C M M M"
_symmetry_group_IT_number 65
_symmetry_cell_setting 'orthorhombic'
loop_
_space_group_symop_operation_xyz
x,y,z
-x,-y,z
x,-y,-z
-x,y,-z
-x,-y,-z
x,y,-z
-x,y,z
x,-y,z
1/2+x,1/2+y,z
1/2-x,1/2-y,z
1/2+x,1/2-y,-z
1/2-x,1/2+y,-z
1/2-x,1/2-y,-z
1/2+x,1/2+y,-z
1/2-x,1/2+y,z
1/2+x,1/2-y,z
loop_
_atom_site_type_symbol
_atom_site_label
_atom_site_fract_x
_atom_site_fract_y
_atom_site_fract_z
Si Si1 0.141399 0.050535 0.777123
Si Si2 0.136381 0.779927 0.278457
Si Si3 0.500000 0.157740 0.500000
Si Si4 0.285383 0.863557 0.212251
O O1 0.238191 0.088144 0.721443
O O2 0.000000 0.060074 0.718856
O O3 0.172367 0.000000 0.721102
O O4 0.140477 0.051260 0.000000
O O5 0.135011 0.776627 0.500000
O O6 0.250000 0.750000 0.211581
O O7 0.169017 0.830155 0.224912
O O8 0.000000 0.766238 0.215676
O O9 0.608473 0.155637 0.340949
O O10 0.324429 0.866634 0.000000
#
# Coordination Sequence:
#
# PCOD9492976 Si02
#       4
#    16  16   4  16
#     4   8  15  32  61  94 125 159 204 261 322 382
#     4  10  22  39  65  97 134 173 208 258 320 377
#     4  12  26  44  61  90 126 172 214 268 323 384
#     4  11  23  41  66  91 124 168 216 264 320 381
#
# _framework density 22.001698000000001
#
# number of rings (size 3 to 8) (size 9 to 14) (size 15 to 20)
#    0.000    2.154    1.538    2.308    2.154    2.462 
#    0.000    2.308    0.000    5.538    0.000    0.000 
#    0.000    0.000    0.000    0.000    0.000    0.000 
#
# Total GULP energy -144828.434411 kJ/mol
# GULP energy per Si atom -5570.324400 kJ/mol
# Density = 2.195162 g / cm^3
# Si number density = 22.001698 Si / 1000 Ang^3
#
#
#
# Elastic Constant Matrix: (Units=GPa)
#
#
# Indices 1 2 3 4 5 6 
#
# 1 132.9552 37.1152 31.8903 0.0000 0.0000 0.0000
# 2 37.1152 75.8370 -0.0673 0.0000 0.0000 0.0000
# 3 31.8903 -0.0673 128.9564 0.0000 0.0000 0.0000
# 4 0.0000 0.0000 0.0000 10.2338 0.0000 0.0000
# 5 0.0000 0.0000 0.0000 0.0000 -564.3581 0.0000
# 6 0.0000 0.0000 0.0000 0.0000 0.0000 3.0629
#
#
#
# Elastic Compliance Matrix: (Units=1/GPa)
#
#
# Indices 1 2 3 4 5 6 
#
# 1 0.009356 -0.004581 -0.002316 0.000000 0.000000 0.000000
# 2 -0.004581 0.015429 0.001141 0.000000 0.000000 0.000000
# 3 -0.002316 0.001141 0.008328 0.000000 0.000000 0.000000
# 4 0.000000 0.000000 0.000000 0.097716 0.000000 0.000000
# 5 0.000000 0.000000 0.000000 0.000000 -0.001772 0.000000
# 6 0.000000 0.000000 0.000000 0.000000 0.000000 0.326483
#
#
# Mechanical properties :
#
#
# Convention : Reuss Voigt Hill
#
# Bulk Modulus (GPa) = 46.29468 52.84721 49.57095
# Shear Modulus (GPa) = 10.54294 -92.29159 -40.87433
#
# Velocity S-wave (km/s) = 2.19141 -6.48371 -4.31487
# Velocity P-wave (km/s) = 5.24310 5.65506 1.49825
#
# Compressibility (1/GPa) = 0.02160075
#
# Stress axis : x y z
#
# Youngs Moduli (GPa) = 106.88812 64.81281 120.07851
#
# Poissons Ratio (x) = 0.29689 0.27810
# Poissons Ratio (y) = 0.48963 -0.13699
# Poissons Ratio (z) = 0.24755 -0.07394
#
# Static dielectric constant tensor:
#      x y z
#    x 1.764960 0.000000 0.000000 
#    y 0.000000 1.830830 0.000000 
#    z 0.000000 0.000000 1.844210 
# 
# From -- ./inp_files/4282.got.cif
#   From: 2010.05.17/outbox.cif.g08.bks.cpg/sg65_3_cif.got.tgz:4282.got - 2010.06.03 17:01:31.
