data_PCOD9492897
_publ_section_title
;
Structure prediction by ZEFSAII (Michael W. Deem and Ramdas Pophale) SiO2 
 PCOD9492897
Probable space group: C M M M
;
_chemical_formula_sum "Si O2"
_cell_formula_units_Z 72
_cell_length_a 18.121584
_cell_length_b 24.089851
_cell_length_c 7.495418
_cell_angle_alpha 90.000000
_cell_angle_beta 90.000000
_cell_angle_gamma 90.000000
_cell_volume 3272.096683
_symmetry_space_group_name_H-M "C M M M"
_symmetry_group_IT_number 65
_symmetry_cell_setting 'orthorhombic'
loop_
_space_group_symop_operation_xyz
x,y,z
-x,-y,z
x,-y,-z
-x,y,-z
-x,-y,-z
x,y,-z
-x,y,z
x,-y,z
1/2+x,1/2+y,z
1/2-x,1/2-y,z
1/2+x,1/2-y,-z
1/2-x,1/2+y,-z
1/2-x,1/2-y,-z
1/2+x,1/2+y,-z
1/2-x,1/2+y,z
1/2+x,1/2-y,z
loop_
_atom_site_type_symbol
_atom_site_label
_atom_site_fract_x
_atom_site_fract_y
_atom_site_fract_z
Si Si1 0.500000 0.773281 0.216766
Si Si2 0.728722 0.500000 0.214249
Si Si3 0.149365 0.885967 0.292538
Si Si4 0.894806 0.500000 0.217085
Si Si5 0.500000 0.563606 0.281540
Si Si6 0.168432 0.234976 0.201131
Si Si7 0.500000 0.902269 0.783316
O O1 0.583236 0.749223 0.270915
O O2 0.500000 0.838395 0.273427
O O3 0.500000 0.768376 0.000000
O O4 0.693622 0.442999 0.279219
O O5 0.812042 0.500000 0.274499
O O6 0.724400 0.500000 0.000000
O O7 0.143849 0.870383 0.500000
O O8 0.070342 0.903500 0.220902
O O9 0.174869 0.831379 0.195506
O O10 0.932855 0.442402 0.272839
O O11 0.899107 0.500000 0.000000
O O12 0.500000 0.500000 0.222707
O O13 0.500000 0.562164 0.500000
O O14 0.250000 0.250000 0.283621
O O15 0.168875 0.259330 0.000000
O O16 0.500000 0.899648 0.000000
#
# Coordination Sequence:
#
# PCOD9492897 Si02
#       7
#     8   8  16   8   8  16   8
#     4   9  18  33  55  81 114 151 188 234 286 335
#     4  11  22  34  55  88 118 143 176 228 286 339
#     4  11  22  38  59  81 110 150 190 232 279 338
#     4   8  16  28  48  81 115 141 174 223 280 335
#     4   9  17  34  56  77 105 144 187 224 272 335
#     4  10  22  38  58  85 116 150 190 240 289 333
#     4   8  14  28  51  79 108 143 182 222 273 336
#
# _framework density 22.004239999999999
#
# number of rings (size 3 to 8) (size 9 to 14) (size 15 to 20)
#    0.000    2.333    1.111    2.333    3.111    0.444 
#    0.000    2.222    0.000    0.000    0.000    6.222 
#    0.000    0.000    0.000    0.000    0.000    0.000 
#
# Total GULP energy -200414.293651 kJ/mol
# GULP energy per Si atom -5567.063713 kJ/mol
# Density = 2.195416 g / cm^3
# Si number density = 22.004240 Si / 1000 Ang^3
#
#
#
# Elastic Constant Matrix: (Units=GPa)
#
#
# Indices 1 2 3 4 5 6 
#
# 1 200.7654 77.0032 1.8341 0.0000 0.0000 0.0000
# 2 77.0032 160.9452 -0.4751 0.0000 0.0000 0.0000
# 3 1.8341 -0.4751 67.2666 0.0000 0.0000 0.0000
# 4 0.0000 0.0000 0.0000 34.7363 0.0000 0.0000
# 5 0.0000 0.0000 0.0000 0.0000 14.7019 0.0000
# 6 0.0000 0.0000 0.0000 0.0000 0.0000 19.6858
#
#
#
# Elastic Compliance Matrix: (Units=1/GPa)
#
#
# Indices 1 2 3 4 5 6 
#
# 1 0.006103 -0.002920 -0.000187 0.000000 0.000000 0.000000
# 2 -0.002920 0.007611 0.000133 0.000000 0.000000 0.000000
# 3 -0.000187 0.000133 0.014872 0.000000 0.000000 0.000000
# 4 0.000000 0.000000 0.000000 0.028788 0.000000 0.000000
# 5 0.000000 0.000000 0.000000 0.000000 0.068019 0.000000
# 6 0.000000 0.000000 0.000000 0.000000 0.000000 0.050798
#
#
# Mechanical properties :
#
#
# Convention : Reuss Voigt Hill
#
# Bulk Modulus (GPa) = 44.17371 65.07795 54.62583
# Shear Modulus (GPa) = 26.35951 37.19913 31.77932
#
# Velocity S-wave (km/s) = 3.46487 4.11608 3.80443
# Velocity P-wave (km/s) = 6.01047 7.22696 6.64660
#
# Compressibility (1/GPa) = 0.02263790
#
# Stress axis : x y z
#
# Youngs Moduli (GPa) = 163.86049 131.39012 67.23929
#
# Poissons Ratio (x) = 0.38371 0.01258
# Poissons Ratio (y) = 0.47853 -0.00897
# Poissons Ratio (z) = 0.03065 -0.01753
#
# Static dielectric constant tensor:
#      x y z
#    x 1.843980 0.000000 0.000000 
#    y 0.000000 2.143800 0.000000 
#    z 0.000000 0.000000 1.856190 
# 
# From -- ./inp_files/9360.got.cif
#   From: 2010.05.17/outbox.cif.g08.bks.cpg/sg65_5_cif.got.tgz:9360.got - 2010.06.03 17:01:31.
