data_PCOD9492985
_publ_section_title
;
Structure prediction by ZEFSAII (Michael W. Deem and Ramdas Pophale) SiO2 
 PCOD9492985
Probable space group: C M M M
;
_chemical_formula_sum "Si O2"
_cell_formula_units_Z 88
_cell_length_a 8.089508
_cell_length_b 24.307757
_cell_length_c 25.362636
_cell_angle_alpha 90.000000
_cell_angle_beta 90.000000
_cell_angle_gamma 90.000000
_cell_volume 4987.252811
_symmetry_space_group_name_H-M "C M M M"
_symmetry_group_IT_number 65
_symmetry_cell_setting 'orthorhombic'
loop_
_space_group_symop_operation_xyz
x,y,z
-x,-y,z
x,-y,-z
-x,y,-z
-x,-y,-z
x,y,-z
-x,y,z
x,-y,z
1/2+x,1/2+y,z
1/2-x,1/2-y,z
1/2+x,1/2-y,-z
1/2-x,1/2+y,-z
1/2-x,1/2-y,-z
1/2+x,1/2+y,-z
1/2-x,1/2+y,z
1/2+x,1/2-y,z
loop_
_atom_site_type_symbol
_atom_site_label
_atom_site_fract_x
_atom_site_fract_y
_atom_site_fract_z
Si Si1 0.694134 0.187274 0.842051
Si Si2 0.302872 0.433877 0.363898
Si Si3 0.000000 0.433549 0.440117
Si Si4 0.192378 0.112919 0.251890
Si Si5 0.310603 0.000000 0.204406
Si Si6 0.299728 0.881752 0.942423
Si Si7 0.808167 0.000000 0.910296
O O1 0.500000 0.187278 0.850171
O O2 0.750000 0.250000 0.841991
O O3 0.727025 0.157654 0.786261
O O4 0.763899 0.152231 0.891669
O O5 0.500000 0.425402 0.375870
O O6 0.286457 0.500000 0.352543
O O7 0.169198 0.419619 0.408856
O O8 0.256145 0.398498 0.312162
O O9 0.000000 0.500000 0.442584
O O10 0.000000 0.412334 0.500000
O O11 0.000000 0.126123 0.253354
O O12 0.221801 0.054369 0.224275
O O13 0.303751 0.000000 0.141702
O O14 0.500000 0.000000 0.223155
O O15 0.500000 0.885168 0.939462
O O16 0.231140 0.943567 0.939714
O O17 0.257307 0.857490 0.000000
O O18 0.000000 0.000000 0.894420
#
# Coordination Sequence:
#
# PCOD9492985 Si02
#       7
#    16  16   8  16   8  16   8
#     4  11  24  40  58  78 104 142 180 224 281 336
#     4   9  18  30  48  76 110 149 190 229 273 321
#     4   9  18  30  46  72 112 158 197 229 263 312
#     4  11  21  35  55  81 111 141 179 230 278 330
#     4  12  22  31  53  82 108 142 177 216 276 341
#     4  10  22  40  59  78 104 139 179 222 272 332
#     4  12  23  35  54  83 112 136 173 219 273 328
#
# _framework density 17.644984999999998
#
# number of rings (size 3 to 8) (size 9 to 14) (size 15 to 20)
#    0.000    1.545    2.727    3.000    2.545    2.909 
#    0.000    1.818    0.000    0.000    0.000    0.000 
#    0.000    0.727    0.364    0.000    0.000    0.000 
#
# Total GULP energy -245385.568203 kJ/mol
# GULP energy per Si atom -5576.944732 kJ/mol
# Density = 1.760482 g / cm^3
# Si number density = 17.644985 Si / 1000 Ang^3
#
#
#
# Elastic Constant Matrix: (Units=GPa)
#
#
# Indices 1 2 3 4 5 6 
#
# 1 54.4115 22.8572 49.9062 0.0000 0.0000 0.0000
# 2 22.8572 91.4801 52.4023 0.0000 0.0000 0.0000
# 3 49.9062 52.4023 136.1112 0.0000 0.0000 0.0000
# 4 0.0000 0.0000 0.0000 9.5983 0.0000 0.0000
# 5 0.0000 0.0000 0.0000 0.0000 14.2212 0.0000
# 6 0.0000 0.0000 0.0000 0.0000 0.0000 27.1363
#
#
#
# Elastic Compliance Matrix: (Units=1/GPa)
#
#
# Indices 1 2 3 4 5 6 
#
# 1 0.027834 -0.001422 -0.009658 0.000000 0.000000 0.000000
# 2 -0.001422 0.014097 -0.004906 0.000000 0.000000 0.000000
# 3 -0.009658 -0.004906 0.012777 0.000000 0.000000 0.000000
# 4 0.000000 0.000000 0.000000 0.104185 0.000000 0.000000
# 5 0.000000 0.000000 0.000000 0.000000 0.070317 0.000000
# 6 0.000000 0.000000 0.000000 0.000000 0.000000 0.036851
#
#
# Mechanical properties :
#
#
# Convention : Reuss Voigt Hill
#
# Bulk Modulus (GPa) = 43.98344 59.14822 51.56583
# Shear Modulus (GPa) = 16.36059 20.64697 18.50378
#
# Velocity S-wave (km/s) = 3.04831 3.42443 3.24183
# Velocity P-wave (km/s) = 6.11315 7.01639 6.58028
#
# Compressibility (1/GPa) = 0.02273583
#
# Stress axis : x y z
#
# Youngs Moduli (GPa) = 35.92679 70.93782 78.26650
#
# Poissons Ratio (x) = 0.10089 0.75591
# Poissons Ratio (y) = 0.05110 0.38396
# Poissons Ratio (z) = 0.34699 0.34800
#
# Static dielectric constant tensor:
#      x y z
#    x 1.605060 0.000000 0.000000 
#    y 0.000000 1.601290 0.000000 
#    z 0.000000 0.000000 1.638680 
# 
# From -- ./inp_files/67622.got.cif
#   From: 2010.05.17/outbox.cif.g08.bks.cpg/sg65_34_cif.got.tgz:67622.got - 2010.06.03 17:01:31.
