data_PCOD9492407
_publ_section_title
;
Structure prediction by ZEFSAII (Michael W. Deem and Ramdas Pophale) SiO2 
 PCOD9492407
Probable space group: C M M M
;
_chemical_formula_sum "Si O2"
_cell_formula_units_Z 72
_cell_length_a 15.870987
_cell_length_b 8.260413
_cell_length_c 27.560947
_cell_angle_alpha 90.000000
_cell_angle_beta 90.000000
_cell_angle_gamma 90.000000
_cell_volume 3613.265159
_symmetry_space_group_name_H-M "C M M M"
_symmetry_group_IT_number 65
_symmetry_cell_setting 'orthorhombic'
loop_
_space_group_symop_operation_xyz
x,y,z
-x,-y,z
x,-y,-z
-x,y,-z
-x,-y,-z
x,y,-z
-x,y,z
x,-y,z
1/2+x,1/2+y,z
1/2-x,1/2-y,z
1/2+x,1/2-y,-z
1/2-x,1/2+y,-z
1/2-x,1/2-y,-z
1/2+x,1/2+y,-z
1/2-x,1/2+y,z
1/2+x,1/2-y,z
loop_
_atom_site_type_symbol
_atom_site_label
_atom_site_fract_x
_atom_site_fract_y
_atom_site_fract_z
Si Si1 0.340226 0.306810 0.208137
Si Si2 0.599179 0.302430 0.895174
Si Si3 0.500000 0.695873 0.620001
Si Si4 0.102847 0.809491 0.000000
Si Si5 0.156786 0.804621 0.555735
Si Si6 0.000000 0.308200 0.269399
O O1 0.341517 0.500000 0.206229
O O2 0.250000 0.250000 0.226755
O O3 0.353945 0.244564 0.152900
O O4 0.417530 0.251976 0.241044
O O5 0.500000 0.261997 0.890025
O O6 0.603267 0.500000 0.896508
O O7 0.630098 0.241030 0.947824
O O8 0.500000 0.500000 0.618505
O O9 0.416896 0.752487 0.591212
O O10 0.500000 0.747707 0.675518
O O11 0.000000 0.802468 0.000000
O O12 0.125040 0.000000 0.000000
O O13 0.142505 0.749996 0.500000
O O14 0.250000 0.750000 0.570597
O O15 0.155138 0.000000 0.555392
O O16 0.000000 0.500000 0.269134
#
# Coordination Sequence:
#
# PCOD9492407 Si02
#       6
#    16  16   8   8  16   8
#     4  11  22  39  61  85 113 148 192 239 292 349
#     4   8  13  25  48  77 108 142 179 224 276 337
#     4  10  21  38  60  84 115 155 194 235 285 339
#     4   7  10  18  39  74 108 137 174 216 268 333
#     4   9  18  34  58  88 121 156 192 229 274 330
#     4  12  26  43  61  84 113 150 197 249 300 347
#
# _framework density 19.926573000000001
#
# number of rings (size 3 to 8) (size 9 to 14) (size 15 to 20)
#    0.000    2.556    1.111    3.333    0.000    3.111 
#    0.000    2.778    0.000    3.333    0.000    3.111 
#    0.000    0.000    0.000    0.000    0.000    0.000 
#
# Total GULP energy -200870.366847 kJ/mol
# GULP energy per Si atom -5579.732412 kJ/mol
# Density = 1.988122 g / cm^3
# Si number density = 19.926573 Si / 1000 Ang^3
#
#
#
# Elastic Constant Matrix: (Units=GPa)
#
#
# Indices 1 2 3 4 5 6 
#
# 1 154.1689 22.0024 107.3569 0.0000 0.0000 0.0000
# 2 22.0024 25.5176 23.0557 0.0000 0.0000 0.0000
# 3 107.3569 23.0557 159.0439 0.0000 0.0000 0.0000
# 4 0.0000 0.0000 0.0000 8.4055 0.0000 0.0000
# 5 0.0000 0.0000 0.0000 0.0000 -9.4555 0.0000
# 6 0.0000 0.0000 0.0000 0.0000 0.0000 21.7743
#
#
#
# Elastic Compliance Matrix: (Units=1/GPa)
#
#
# Indices 1 2 3 4 5 6 
#
# 1 0.012526 -0.003638 -0.007928 0.000000 0.000000 0.000000
# 2 -0.003638 0.046152 -0.004235 0.000000 0.000000 0.000000
# 3 -0.007928 -0.004235 0.012253 0.000000 0.000000 0.000000
# 4 0.000000 0.000000 0.000000 0.118969 0.000000 0.000000
# 5 0.000000 0.000000 0.000000 0.000000 -0.105759 0.000000
# 6 0.000000 0.000000 0.000000 0.000000 0.000000 0.045926
#
#
# Mechanical properties :
#
#
# Convention : Reuss Voigt Hill
#
# Bulk Modulus (GPa) = 25.42608 71.50673 48.46640
# Shear Modulus (GPa) = 28.60769 16.56589 22.58679
#
# Velocity S-wave (km/s) = 3.79311 2.88644 3.37040
# Velocity P-wave (km/s) = 5.65431 6.86088 6.28661
#
# Compressibility (1/GPa) = 0.03932970
#
# Stress axis : x y z
#
# Youngs Moduli (GPa) = 79.83139 21.66777 81.61177
#
# Poissons Ratio (x) = 0.07882 0.64703
# Poissons Ratio (y) = 0.29039 0.34562
# Poissons Ratio (z) = 0.63292 0.09176
#
# Static dielectric constant tensor:
#      x y z
#    x 1.686400 0.000000 0.000000 
#    y 0.000000 1.683740 0.000000 
#    z 0.000000 0.000000 1.723360 
# 
# From -- ./inp_files/74665.got.cif
#   From: 2010.05.17/outbox.cif.g08.bks.cpg/sg65_38_cif.got.tgz:74665.got - 2010.06.03 17:01:31.
