data_PCOD9492047
_publ_section_title
;
Structure prediction by ZEFSAII (Michael W. Deem and Ramdas Pophale) SiO2 
 PCOD9492047
Probable space group: C M M M
;
_chemical_formula_sum "Si O2"
_cell_formula_units_Z 80
_cell_length_a 21.956778
_cell_length_b 13.611606
_cell_length_c 13.069327
_cell_angle_alpha 90.000000
_cell_angle_beta 90.000000
_cell_angle_gamma 90.000000
_cell_volume 3905.990698
_symmetry_space_group_name_H-M "C M M M"
_symmetry_group_IT_number 65
_symmetry_cell_setting 'orthorhombic'
loop_
_space_group_symop_operation_xyz
x,y,z
-x,-y,z
x,-y,-z
-x,y,-z
-x,-y,-z
x,y,-z
-x,y,z
x,-y,z
1/2+x,1/2+y,z
1/2-x,1/2-y,z
1/2+x,1/2-y,-z
1/2-x,1/2+y,-z
1/2-x,1/2-y,-z
1/2+x,1/2+y,-z
1/2-x,1/2+y,z
1/2+x,1/2-y,z
loop_
_atom_site_type_symbol
_atom_site_label
_atom_site_fract_x
_atom_site_fract_y
_atom_site_fract_z
Si Si1 0.932456 0.750834 0.715307
Si Si2 0.362791 0.381345 0.118802
Si Si3 0.094333 0.616521 0.108511
Si Si4 0.227723 0.382903 0.175309
Si Si5 0.664736 0.116321 0.384040
O O1 0.902276 0.833781 0.789167
O O2 0.937645 0.662460 0.796068
O O3 0.887189 0.699361 0.633770
O O4 0.000000 0.778424 0.677804
O O5 0.365554 0.500000 0.128013
O O6 0.292762 0.347251 0.137270
O O7 0.380014 0.358859 0.000000
O O8 0.090785 0.500000 0.112670
O O9 0.165575 0.645160 0.118268
O O10 0.070117 0.649832 0.000000
O O11 0.230900 0.500000 0.161142
O O12 0.214206 0.364785 0.295211
O O13 0.687476 0.122867 0.500000
O O14 0.644647 0.000000 0.369063
#
# Coordination Sequence:
#
# PCOD9492047 Si02
#       5
#    16  16  16  16  16
#     4  11  23  36  50  74 108 143 187 236 269 303
#     4  10  21  37  57  79 106 146 191 230 271 320
#     4   9  17  29  47  73 105 137 165 204 269 341
#     4   8  15  31  54  80 108 134 169 221 275 327
#     4   9  19  37  61  87 113 141 173 215 274 341
#
# _framework density 20.481359999999999
#
# number of rings (size 3 to 8) (size 9 to 14) (size 15 to 20)
#    0.000    2.600    0.000    3.000    0.000    9.600 
#    0.000   10.000    0.000    1.800    0.000    1.400 
#    0.000    0.000    0.000    0.000    0.000    0.000 
#
# Total GULP energy -222827.535210 kJ/mol
# GULP energy per Si atom -5570.688380 kJ/mol
# Density = 2.043474 g / cm^3
# Si number density = 20.481360 Si / 1000 Ang^3
#
#
#
# Elastic Constant Matrix: (Units=GPa)
#
#
# Indices 1 2 3 4 5 6 
#
# 1 65.1010 35.9150 -10.9466 0.0000 0.0000 0.0000
# 2 35.9150 80.2573 13.2974 0.0000 0.0000 0.0000
# 3 -10.9466 13.2974 87.6235 0.0000 0.0000 0.0000
# 4 0.0000 0.0000 0.0000 23.4823 0.0000 0.0000
# 5 0.0000 0.0000 0.0000 0.0000 63.5280 0.0000
# 6 0.0000 0.0000 0.0000 0.0000 0.0000 -2.0404
#
#
#
# Elastic Compliance Matrix: (Units=1/GPa)
#
#
# Indices 1 2 3 4 5 6 
#
# 1 0.021888 -0.010512 0.004330 0.000000 0.000000 0.000000
# 2 -0.010512 0.017830 -0.004019 0.000000 0.000000 0.000000
# 3 0.004330 -0.004019 0.012563 0.000000 0.000000 0.000000
# 4 0.000000 0.000000 0.000000 0.042585 0.000000 0.000000
# 5 0.000000 0.000000 0.000000 0.000000 0.015741 0.000000
# 6 0.000000 0.000000 0.000000 0.000000 0.000000 -0.490099
#
#
# Mechanical properties :
#
#
# Convention : Reuss Voigt Hill
#
# Bulk Modulus (GPa) = 31.36932 34.39037 32.87984
# Shear Modulus (GPa) = -14.34879 29.97504 7.81312
#
# Velocity S-wave (km/s) = -2.64971 3.82976 1.95526
# Velocity P-wave (km/s) = 2.44703 6.03188 4.60280
#
# Compressibility (1/GPa) = 0.03187828
#
# Stress axis : x y z
#
# Youngs Moduli (GPa) = 45.68662 56.08497 79.59693
#
# Poissons Ratio (x) = 0.58958 -0.34464
# Poissons Ratio (y) = 0.48027 0.31991
# Poissons Ratio (z) = -0.19781 0.22541
#
# Static dielectric constant tensor:
#      x y z
#    x 1.800030 0.000000 0.000000 
#    y 0.000000 1.799890 0.000000 
#    z 0.000000 0.000000 1.698120 
# 
# From -- ./inp_files/45503.got.cif
#   From: 2010.05.17/outbox.cif.g08.bks.cpg/sg65_23_cif.got.tgz:45503.got - 2010.06.03 17:01:31.
