data_PCOD9492708
_publ_section_title
;
Structure prediction by ZEFSAII (Michael W. Deem and Ramdas Pophale) SiO2 
 PCOD9492708
Probable space group: C M M M
;
_chemical_formula_sum "Si O2"
_cell_formula_units_Z 50
_cell_length_a 10.484785
_cell_length_b 29.884914
_cell_length_c 7.401721
_cell_angle_alpha 90.000000
_cell_angle_beta 90.000000
_cell_angle_gamma 90.000000
_cell_volume 2319.232298
_symmetry_space_group_name_H-M "C M M M"
_symmetry_group_IT_number 65
_symmetry_cell_setting 'orthorhombic'
loop_
_space_group_symop_operation_xyz
x,y,z
-x,-y,z
x,-y,-z
-x,y,-z
-x,-y,-z
x,y,-z
-x,y,z
x,-y,z
1/2+x,1/2+y,z
1/2-x,1/2-y,z
1/2+x,1/2-y,-z
1/2-x,1/2+y,-z
1/2-x,1/2-y,-z
1/2+x,1/2+y,-z
1/2-x,1/2+y,z
1/2+x,1/2-y,z
loop_
_atom_site_type_symbol
_atom_site_label
_atom_site_fract_x
_atom_site_fract_y
_atom_site_fract_z
Si Si1 0.000000 0.082522 0.719054
Si Si2 0.500000 0.500000 0.000000
Si Si3 0.500000 0.051663 0.720627
Si Si4 0.222957 0.381789 0.716737
Si Si5 0.859710 0.718745 0.211844
O O1 0.130586 0.108648 0.763630
O O2 0.000000 0.073798 0.500000
O O3 0.000000 0.038695 0.840726
O O4 0.500000 0.050938 0.500000
O O5 0.374641 0.079374 0.778948
O O6 0.500000 0.000000 0.779884
O O7 0.215261 0.381900 0.500000
O O8 0.176892 0.333258 0.776996
O O9 0.750000 0.750000 0.291442
O O10 0.000000 0.725487 0.291446
O O11 0.868436 0.730182 0.000000
#
# Coordination Sequence:
#
# PCOD9492708 Si02
#       5
#     8   2   8  16  16
#     4  10  25  43  64  95 131 167 215 268 316 379
#     4  12  26  44  68  96 124 180 214 262 324 390
#     4   9  18  34  60  87 117 161 201 244 316 380
#     4  10  21  40  62  89 124 162 206 261 317 376
#     4  10  22  39  60  88 124 165 209 262 320 384
#
# _framework density 21.558859000000002
#
# number of rings (size 3 to 8) (size 9 to 14) (size 15 to 20)
#    0.000    2.080    1.600    0.240    6.720    0.640 
#    0.000    0.000    0.000    1.920    0.000    0.000 
#    0.000    0.000    0.000    0.000    0.000    0.000 
#
# Total GULP energy -139391.588447 kJ/mol
# GULP energy per Si atom -5575.663538 kJ/mol
# Density = 2.150979 g / cm^3
# Si number density = 21.558859 Si / 1000 Ang^3
#
#
#
# Elastic Constant Matrix: (Units=GPa)
#
#
# Indices 1 2 3 4 5 6 
#
# 1 240.6872 108.9439 24.7056 0.0000 0.0000 0.0000
# 2 108.9439 150.7735 3.4982 0.0000 0.0000 0.0000
# 3 24.7056 3.4982 76.4210 0.0000 0.0000 0.0000
# 4 0.0000 0.0000 0.0000 32.0666 0.0000 0.0000
# 5 0.0000 0.0000 0.0000 0.0000 14.7970 0.0000
# 6 0.0000 0.0000 0.0000 0.0000 0.0000 89.8173
#
#
#
# Elastic Compliance Matrix: (Units=1/GPa)
#
#
# Indices 1 2 3 4 5 6 
#
# 1 0.006430 -0.004603 -0.001868 0.000000 0.000000 0.000000
# 2 -0.004603 0.009934 0.001033 0.000000 0.000000 0.000000
# 3 -0.001868 0.001033 0.013642 0.000000 0.000000 0.000000
# 4 0.000000 0.000000 0.000000 0.031185 0.000000 0.000000
# 5 0.000000 0.000000 0.000000 0.000000 0.067581 0.000000
# 6 0.000000 0.000000 0.000000 0.000000 0.000000 0.011134
#
#
# Mechanical properties :
#
#
# Convention : Reuss Voigt Hill
#
# Bulk Modulus (GPa) = 52.27051 82.46411 67.36731
# Shear Modulus (GPa) = 31.81516 49.38512 40.60014
#
# Velocity S-wave (km/s) = 3.84570 4.79133 4.34432
# Velocity P-wave (km/s) = 6.63455 8.30318 7.51532
#
# Compressibility (1/GPa) = 0.01913125
#
# Stress axis : x y z
#
# Youngs Moduli (GPa) = 155.52497 100.66226 73.30305
#
# Poissons Ratio (x) = 0.46331 0.13693
# Poissons Ratio (y) = 0.71583 -0.07574
# Poissons Ratio (z) = 0.29052 -0.10401
#
# Static dielectric constant tensor:
#      x y z
#    x 1.803180 0.000000 0.000000 
#    y 0.000000 1.707710 0.000000 
#    z 0.000000 0.000000 1.820320 
# 
# From -- ./inp_files/3129.got.cif
#   From: 2010.05.17/outbox.cif.g08.bks.cpg/sg65_2_cif.got.tgz:3129.got - 2010.06.03 17:01:31.
