data_PCOD9492052
_publ_section_title
;
Structure prediction by ZEFSAII (Michael W. Deem and Ramdas Pophale) SiO2 
 PCOD9492052
Probable space group: C M M M
;
_chemical_formula_sum "Si O2"
_cell_formula_units_Z 96
_cell_length_a 19.005823
_cell_length_b 8.841441
_cell_length_c 32.194261
_cell_angle_alpha 90.000000
_cell_angle_beta 90.000000
_cell_angle_gamma 90.000000
_cell_volume 5409.887004
_symmetry_space_group_name_H-M "C M M M"
_symmetry_group_IT_number 65
_symmetry_cell_setting 'orthorhombic'
loop_
_space_group_symop_operation_xyz
x,y,z
-x,-y,z
x,-y,-z
-x,y,-z
-x,-y,-z
x,y,-z
-x,y,z
x,-y,z
1/2+x,1/2+y,z
1/2-x,1/2-y,z
1/2+x,1/2-y,-z
1/2-x,1/2+y,-z
1/2-x,1/2-y,-z
1/2+x,1/2+y,-z
1/2-x,1/2+y,z
1/2+x,1/2-y,z
loop_
_atom_site_type_symbol
_atom_site_label
_atom_site_fract_x
_atom_site_fract_y
_atom_site_fract_z
Si Si1 0.914897 0.821389 0.454676
Si Si2 0.581516 0.818172 0.368434
Si Si3 0.082999 0.819505 0.786199
Si Si4 0.827704 0.317452 0.046170
Si Si5 0.582967 0.180784 0.874378
Si Si6 0.827863 0.681938 0.288577
O O1 0.889487 0.765763 0.500000
O O2 0.891025 0.740446 0.412814
O O3 0.000000 0.805002 0.455109
O O4 0.899867 0.000000 0.451986
O O5 0.500000 0.767118 0.362804
O O6 0.629420 0.770056 0.329919
O O7 0.580633 0.000000 0.369419
O O8 0.104390 0.763792 0.832077
O O9 0.129006 0.739855 0.751151
O O10 0.000000 0.780980 0.780815
O O11 0.090224 0.000000 0.783198
O O12 0.823774 0.500000 0.047295
O O13 0.750000 0.250000 0.050411
O O14 0.875222 0.268949 0.084805
O O15 0.854653 0.275021 0.000000
O O16 0.500000 0.207381 0.880596
O O17 0.593029 0.000000 0.868945
O O18 0.824364 0.500000 0.287881
O O19 0.750000 0.750000 0.288703
#
# Coordination Sequence:
#
# PCOD9492052 Si02
#       6
#    16  16  16  16  16  16
#     4   8  14  25  43  70 102 132 163 202 247 294
#     4   9  18  32  51  75 101 131 166 205 252 303
#     4  10  21  37  57  80 105 134 170 211 256 309
#     4   9  18  32  50  73 101 134 171 209 250 298
#     4   9  18  33  53  76 102 133 168 208 254 300
#     4  11  23  38  55  76 104 136 172 214 259 308
#
# _framework density 17.745287999999999
#
# number of rings (size 3 to 8) (size 9 to 14) (size 15 to 20)
#    0.000    2.667    0.000    2.000    0.000    5.000 
#    0.000    6.667    0.000    0.500    0.000    4.667 
#    0.000    0.000    0.000    0.000    0.000    0.000 
#
# Total GULP energy -267615.214959 kJ/mol
# GULP energy per Si atom -5575.316978 kJ/mol
# Density = 1.770490 g / cm^3
# Si number density = 17.745288 Si / 1000 Ang^3
#
#
#
# Elastic Constant Matrix: (Units=GPa)
#
#
# Indices 1 2 3 4 5 6 
#
# 1 67.6643 32.0856 88.2316 0.0000 0.0000 0.0000
# 2 32.0856 26.0712 52.9007 0.0000 0.0000 0.0000
# 3 88.2316 52.9007 206.9540 0.0000 0.0000 0.0000
# 4 0.0000 0.0000 0.0000 24.6995 0.0000 0.0000
# 5 0.0000 0.0000 0.0000 0.0000 -12.5468 0.0000
# 6 0.0000 0.0000 0.0000 0.0000 0.0000 20.4397
#
#
#
# Elastic Compliance Matrix: (Units=1/GPa)
#
#
# Indices 1 2 3 4 5 6 
#
# 1 0.043845 -0.033305 -0.010180 0.000000 0.000000 0.000000
# 2 -0.033305 0.104987 -0.012637 0.000000 0.000000 0.000000
# 3 -0.010180 -0.012637 0.012402 0.000000 0.000000 0.000000
# 4 0.000000 0.000000 0.000000 0.040487 0.000000 0.000000
# 5 0.000000 0.000000 0.000000 0.000000 -0.079701 0.000000
# 6 0.000000 0.000000 0.000000 0.000000 0.000000 0.048924
#
#
# Mechanical properties :
#
#
# Convention : Reuss Voigt Hill
#
# Bulk Modulus (GPa) = 20.41199 71.90280 46.15740
# Shear Modulus (GPa) = 16.69352 15.01659 15.85506
#
# Velocity S-wave (km/s) = 3.07046 2.91216 2.99236
# Velocity P-wave (km/s) = 4.90897 7.20520 6.16494
#
# Compressibility (1/GPa) = 0.04899082
#
# Stress axis : x y z
#
# Youngs Moduli (GPa) = 22.80744 9.52501 80.63132
#
# Poissons Ratio (x) = 0.31723 0.82079
# Poissons Ratio (y) = 0.75960 1.01895
# Poissons Ratio (z) = 0.23217 0.12037
#
# Static dielectric constant tensor:
#      x y z
#    x 1.583030 0.000000 0.000000 
#    y 0.000000 1.597570 0.000000 
#    z 0.000000 0.000000 1.614370 
# 
# From -- ./inp_files/75355.got.cif
#   From: 2010.05.17/outbox.cif.g08.bks.cpg/sg65_38_cif.got.tgz:75355.got - 2010.06.03 17:01:31.
