data_PCOD9492932
_publ_section_title
;
Structure prediction by ZEFSAII (Michael W. Deem and Ramdas Pophale) SiO2 
 PCOD9492932
Probable space group: C M M M
;
_chemical_formula_sum "Si O2"
_cell_formula_units_Z 64
_cell_length_a 27.522687
_cell_length_b 10.206620
_cell_length_c 13.995762
_cell_angle_alpha 90.000000
_cell_angle_beta 90.000000
_cell_angle_gamma 90.000000
_cell_volume 3931.599994
_symmetry_space_group_name_H-M "C M M M"
_symmetry_group_IT_number 65
_symmetry_cell_setting 'orthorhombic'
loop_
_space_group_symop_operation_xyz
x,y,z
-x,-y,z
x,-y,-z
-x,y,-z
-x,-y,-z
x,y,-z
-x,y,z
x,-y,z
1/2+x,1/2+y,z
1/2-x,1/2-y,z
1/2+x,1/2-y,-z
1/2-x,1/2+y,-z
1/2-x,1/2-y,-z
1/2+x,1/2+y,-z
1/2-x,1/2+y,z
1/2+x,1/2-y,z
loop_
_atom_site_type_symbol
_atom_site_label
_atom_site_fract_x
_atom_site_fract_y
_atom_site_fract_z
Si Si1 0.443450 0.342632 0.111753
Si Si2 0.796546 0.656104 0.387307
Si Si3 0.557470 0.000000 0.391882
Si Si4 0.056789 0.000000 0.385607
Si Si5 0.894777 0.254102 0.706169
O O1 0.500000 0.311410 0.134999
O O2 0.438040 0.500000 0.123609
O O3 0.407374 0.269572 0.183127
O O4 0.435694 0.312992 0.000000
O O5 0.810434 0.666507 0.500000
O O6 0.787914 0.500000 0.368956
O O7 0.750000 0.750000 0.373993
O O8 0.839760 0.711607 0.321798
O O9 0.574909 0.125954 0.335651
O O10 0.500000 0.000000 0.398257
O O11 0.577825 0.000000 0.500000
O O12 0.084949 0.125760 0.346777
O O13 0.056984 0.000000 0.500000
O O14 0.000000 0.000000 0.354098
#
# Coordination Sequence:
#
# PCOD9492932 Si02
#       5
#    16  16   8   8  16
#     4   9  18  34  56  82 112 148 193 240 281 325
#     4  10  22  39  58  81 110 147 191 236 283 336
#     4  11  22  34  50  76 116 157 182 214 274 345
#     4  11  22  32  48  80 116 149 190 228 262 329
#     4  12  21  35  56  80 112 152 191 229 281 335
#
# _framework density 16.278361
#
# number of rings (size 3 to 8) (size 9 to 14) (size 15 to 20)
#    0.000    1.500    2.500    5.250    1.750    2.000 
#    0.000    0.625    0.000    3.000    0.000    0.000 
#    0.000    0.000    0.000    0.000    0.000    0.000 
#
# Total GULP energy -178604.345819 kJ/mol
# GULP energy per Si atom -5581.385807 kJ/mol
# Density = 1.624131 g / cm^3
# Si number density = 16.278361 Si / 1000 Ang^3
#
#
#
# Elastic Constant Matrix: (Units=GPa)
#
#
# Indices 1 2 3 4 5 6 
#
# 1 118.0213 56.9195 63.3861 0.0000 0.0000 0.0000
# 2 56.9195 128.3818 50.1732 0.0000 0.0000 0.0000
# 3 63.3861 50.1732 112.0677 0.0000 0.0000 0.0000
# 4 0.0000 0.0000 0.0000 30.3427 0.0000 0.0000
# 5 0.0000 0.0000 0.0000 0.0000 27.7574 0.0000
# 6 0.0000 0.0000 0.0000 0.0000 0.0000 0.5980
#
#
#
# Elastic Compliance Matrix: (Units=1/GPa)
#
#
# Indices 1 2 3 4 5 6 
#
# 1 0.013427 -0.003618 -0.005974 0.000000 0.000000 0.000000
# 2 -0.003618 0.010416 -0.002617 0.000000 0.000000 0.000000
# 3 -0.005974 -0.002617 0.013474 0.000000 0.000000 0.000000
# 4 0.000000 0.000000 0.000000 0.032957 0.000000 0.000000
# 5 0.000000 0.000000 0.000000 0.000000 0.036026 0.000000
# 6 0.000000 0.000000 0.000000 0.000000 0.000000 1.672204
#
#
# Mechanical properties :
#
#
# Convention : Reuss Voigt Hill
#
# Bulk Modulus (GPa) = 77.53155 77.71427 77.62291
# Shear Modulus (GPa) = 2.76668 24.27242 13.51955
#
# Velocity S-wave (km/s) = 1.30510 3.86565 2.88501
# Velocity P-wave (km/s) = 7.07128 8.23218 7.67372
#
# Compressibility (1/GPa) = 0.01289798
#
# Stress axis : x y z
#
# Youngs Moduli (GPa) = 74.47895 96.00536 74.21724
#
# Poissons Ratio (x) = 0.34735 0.44340
# Poissons Ratio (y) = 0.26946 0.19422
# Poissons Ratio (z) = 0.44497 0.25124
#
# Static dielectric constant tensor:
#      x y z
#    x 1.548950 0.000000 0.000000 
#    y 0.000000 1.523910 0.000000 
#    z 0.000000 0.000000 1.552080 
# 
# From -- ./inp_files/46377.got.cif
#   From: 2010.05.17/outbox.cif.g08.bks.cpg/sg65_24_cif.got.tgz:46377.got - 2010.06.03 17:01:31.
