data_PCOD9492967
_publ_section_title
;
Structure prediction by ZEFSAII (Michael W. Deem and Ramdas Pophale) SiO2 
 PCOD9492967
Probable space group: C M M M
;
_chemical_formula_sum "Si O2"
_cell_formula_units_Z 56
_cell_length_a 17.262896
_cell_length_b 7.383235
_cell_length_c 23.011592
_cell_angle_alpha 90.000000
_cell_angle_beta 90.000000
_cell_angle_gamma 90.000000
_cell_volume 2932.965883
_symmetry_space_group_name_H-M "C M M M"
_symmetry_group_IT_number 65
_symmetry_cell_setting 'orthorhombic'
loop_
_space_group_symop_operation_xyz
x,y,z
-x,-y,z
x,-y,-z
-x,y,-z
-x,-y,-z
x,y,-z
-x,y,z
x,-y,z
1/2+x,1/2+y,z
1/2-x,1/2-y,z
1/2+x,1/2-y,-z
1/2-x,1/2+y,-z
1/2-x,1/2-y,-z
1/2+x,1/2+y,-z
1/2-x,1/2+y,z
1/2+x,1/2-y,z
loop_
_atom_site_type_symbol
_atom_site_label
_atom_site_fract_x
_atom_site_fract_y
_atom_site_fract_z
Si Si1 0.405496 0.000000 0.222886
Si Si2 0.841958 0.215362 0.000000
Si Si3 0.658162 0.716198 0.436845
Si Si4 0.406739 0.707711 0.684834
Si Si5 0.093160 0.500000 0.910524
O O1 0.380666 0.827414 0.260904
O O2 0.500000 0.000000 0.221781
O O3 0.380232 0.000000 0.156302
O O4 0.750000 0.250000 0.000000
O O5 0.876871 0.323048 0.944833
O O6 0.857519 0.000000 0.000000
O O7 0.630735 0.785779 0.500000
O O8 0.644515 0.500000 0.437280
O O9 0.750000 0.750000 0.434147
O O10 0.620819 0.783349 0.377344
O O11 0.500000 0.708016 0.684204
O O12 0.380043 0.500000 0.690495
O O13 0.000000 0.500000 0.912529
#
# Coordination Sequence:
#
# PCOD9492967 Si02
#       5
#     8   8  16  16   8
#     4   9  19  36  56  80 113 145 177 224 271 316
#     4  11  21  39  66  89 124 161 187 236 293 333
#     4   9  18  31  48  69  97 133 173 224 281 328
#     4   9  18  33  53  75 102 137 179 224 273 325
#     4  10  22  39  62  95 124 154 201 239 276 343
#
# _framework density 19.093302000000001
#
# number of rings (size 3 to 8) (size 9 to 14) (size 15 to 20)
#    0.000    2.571    1.429    0.857    2.000    2.857 
#    0.000    7.143    0.000    2.571    0.000    0.000 
#    0.000    0.000    0.000    0.000    0.000    0.000 
#
# Total GULP energy -156106.791259 kJ/mol
# GULP energy per Si atom -5575.242545 kJ/mol
# Density = 1.904984 g / cm^3
# Si number density = 19.093302 Si / 1000 Ang^3
#
#
#
# Elastic Constant Matrix: (Units=GPa)
#
#
# Indices 1 2 3 4 5 6 
#
# 1 32.5353 18.9048 34.6309 0.0000 0.0000 0.0000
# 2 18.9048 142.6261 90.3229 0.0000 0.0000 0.0000
# 3 34.6309 90.3229 229.7084 0.0000 0.0000 0.0000
# 4 0.0000 0.0000 0.0000 18.2455 0.0000 0.0000
# 5 0.0000 0.0000 0.0000 0.0000 -140.0154 0.0000
# 6 0.0000 0.0000 0.0000 0.0000 0.0000 19.9213
#
#
#
# Elastic Compliance Matrix: (Units=1/GPa)
#
#
# Indices 1 2 3 4 5 6 
#
# 1 0.036964 -0.001825 -0.004855 0.000000 0.000000 0.000000
# 2 -0.001825 0.009426 -0.003431 0.000000 0.000000 0.000000
# 3 -0.004855 -0.003431 0.006435 0.000000 0.000000 0.000000
# 4 0.000000 0.000000 0.000000 0.054808 0.000000 0.000000
# 5 0.000000 0.000000 0.000000 0.000000 -0.007142 0.000000
# 6 0.000000 0.000000 0.000000 0.000000 0.000000 0.050197
#
#
# Mechanical properties :
#
#
# Convention : Reuss Voigt Hill
#
# Bulk Modulus (GPa) = 30.67280 76.95411 53.81346
# Shear Modulus (GPa) = 27.50605 -2.96896 12.26854
#
# Velocity S-wave (km/s) = 3.79966 -1.24834 2.53762
# Velocity P-wave (km/s) = 5.94554 6.18983 6.06891
#
# Compressibility (1/GPa) = 0.03260217
#
# Stress axis : x y z
#
# Youngs Moduli (GPa) = 27.05329 106.08692 155.41107
#
# Poissons Ratio (x) = 0.19359 0.75455
# Poissons Ratio (y) = 0.04937 0.53327
# Poissons Ratio (z) = 0.13135 0.36402
#
# Static dielectric constant tensor:
#      x y z
#    x 1.640740 0.000000 0.000000 
#    y 0.000000 1.674880 0.000000 
#    z 0.000000 0.000000 1.669900 
# 
# From -- ./inp_files/62206.got.cif
#   From: 2010.05.17/outbox.cif.g08.bks.cpg/sg65_32_cif.got.tgz:62206.got - 2010.06.03 17:01:31.
