data_PCOD9492778
_publ_section_title
;
Structure prediction by ZEFSAII (Michael W. Deem and Ramdas Pophale) SiO2 
 PCOD9492778
Probable space group: C M M M
;
_chemical_formula_sum "Si O2"
_cell_formula_units_Z 72
_cell_length_a 8.591101
_cell_length_b 23.844627
_cell_length_c 21.602133
_cell_angle_alpha 90.000000
_cell_angle_beta 90.000000
_cell_angle_gamma 90.000000
_cell_volume 4425.231484
_symmetry_space_group_name_H-M "C M M M"
_symmetry_group_IT_number 65
_symmetry_cell_setting 'orthorhombic'
loop_
_space_group_symop_operation_xyz
x,y,z
-x,-y,z
x,-y,-z
-x,y,-z
-x,-y,-z
x,y,-z
-x,y,z
x,-y,z
1/2+x,1/2+y,z
1/2-x,1/2-y,z
1/2+x,1/2-y,-z
1/2-x,1/2+y,-z
1/2-x,1/2-y,-z
1/2+x,1/2+y,-z
1/2-x,1/2+y,z
1/2+x,1/2-y,z
loop_
_atom_site_type_symbol
_atom_site_label
_atom_site_fract_x
_atom_site_fract_y
_atom_site_fract_z
Si Si1 0.312679 0.186149 0.866026
Si Si2 0.687501 0.813724 0.000000
Si Si3 0.313036 0.500000 0.572820
Si Si4 0.812669 0.617221 0.620249
Si Si5 0.814426 0.813805 0.735834
Si Si6 0.312837 0.187591 0.500000
O O1 0.500000 0.186548 0.861054
O O2 0.250000 0.250000 0.867888
O O3 0.267292 0.160799 0.933220
O O4 0.241846 0.163192 0.802633
O O5 0.750000 0.750000 0.000000
O O6 0.500000 0.810971 0.000000
O O7 0.500000 0.500000 0.574084
O O8 0.263614 0.500000 0.500000
O O9 0.249511 0.444791 0.606616
O O10 0.747620 0.646780 0.681403
O O11 0.762881 0.654617 0.561273
O O12 0.000000 0.616265 0.622983
O O13 0.750000 0.750000 0.728395
O O14 0.000000 0.810794 0.734668
O O15 0.500000 0.189132 0.500000
O O16 0.250000 0.250000 0.500000
#
# Coordination Sequence:
#
# PCOD9492778 Si02
#       6
#    16   8   8  16  16   8
#     4   9  15  25  40  61  90 127 165 203 243 289
#     4   8  14  22  36  58  86 121 164 203 238 282
#     4  11  23  39  59  81 101 126 159 202 251 299
#     4  11  22  38  56  75  98 130 166 206 249 297
#     4  11  21  33  48  71 101 135 170 207 251 302
#     4  10  22  35  52  75  99 126 160 198 241 290
#
# _framework density 16.270334999999999
#
# number of rings (size 3 to 8) (size 9 to 14) (size 15 to 20)
#    0.000    1.889    1.111    5.667    0.000    4.889 
#    0.000    0.000    0.000    0.000    0.000    0.000 
#    0.000    0.889    0.000    9.556    0.000    4.889 
#
# Total GULP energy -200709.721556 kJ/mol
# GULP energy per Si atom -5575.270043 kJ/mol
# Density = 1.623330 g / cm^3
# Si number density = 16.270335 Si / 1000 Ang^3
#
#
#
# Elastic Constant Matrix: (Units=GPa)
#
#
# Indices 1 2 3 4 5 6 
#
# 1 78.8384 31.3330 55.5193 0.0000 0.0000 0.0000
# 2 31.3330 92.1440 68.3735 0.0000 0.0000 0.0000
# 3 55.5193 68.3735 200.6153 0.0000 0.0000 0.0000
# 4 0.0000 0.0000 0.0000 -0.2905 0.0000 0.0000
# 5 0.0000 0.0000 0.0000 0.0000 -10.4647 0.0000
# 6 0.0000 0.0000 0.0000 0.0000 0.0000 23.1218
#
#
#
# Elastic Compliance Matrix: (Units=1/GPa)
#
#
# Indices 1 2 3 4 5 6 
#
# 1 0.016330 -0.002944 -0.003516 0.000000 0.000000 0.000000
# 2 -0.002944 0.015057 -0.004317 0.000000 0.000000 0.000000
# 3 -0.003516 -0.004317 0.007429 0.000000 0.000000 0.000000
# 4 0.000000 0.000000 0.000000 -3.441908 0.000000 0.000000
# 5 0.000000 0.000000 0.000000 0.000000 -0.095559 0.000000
# 6 0.000000 0.000000 0.000000 0.000000 0.000000 0.043249
#
#
# Mechanical properties :
#
#
# Convention : Reuss Voigt Hill
#
# Bulk Modulus (GPa) = 57.92974 75.78325 66.85649
# Shear Modulus (GPa) = -1.45854 16.89811 7.71979
#
# Velocity S-wave (km/s) = -0.94783 3.22620 2.18060
# Velocity P-wave (km/s) = 5.87230 7.78181 6.89349
#
# Compressibility (1/GPa) = 0.01726229
#
# Stress axis : x y z
#
# Youngs Moduli (GPa) = 61.23625 66.41435 134.60826
#
# Poissons Ratio (x) = 0.19553 0.47327
# Poissons Ratio (y) = 0.18029 0.58110
# Poissons Ratio (z) = 0.21530 0.28671
#
# Static dielectric constant tensor:
#      x y z
#    x 1.544760 0.000000 0.000000 
#    y 0.000000 1.511920 0.000000 
#    z 0.000000 0.000000 1.602760 
# 
# From -- ./inp_files/59423.got.cif
#   From: 2010.05.17/outbox.cif.g08.bks.cpg/sg65_30_cif.got.tgz:59423.got - 2010.06.03 17:01:31.
