data_PCOD9492009
_publ_section_title
;
Structure prediction by ZEFSAII (Michael W. Deem and Ramdas Pophale) SiO2 
 PCOD9492009
Probable space group: C M M M
;
_chemical_formula_sum "Si O2"
_cell_formula_units_Z 96
_cell_length_a 21.663395
_cell_length_b 16.958210
_cell_length_c 14.042077
_cell_angle_alpha 90.000000
_cell_angle_beta 90.000000
_cell_angle_gamma 90.000000
_cell_volume 5158.671553
_symmetry_space_group_name_H-M "C M M M"
_symmetry_group_IT_number 65
_symmetry_cell_setting 'orthorhombic'
loop_
_space_group_symop_operation_xyz
x,y,z
-x,-y,z
x,-y,-z
-x,y,-z
-x,-y,-z
x,y,-z
-x,y,z
x,-y,z
1/2+x,1/2+y,z
1/2-x,1/2-y,z
1/2+x,1/2-y,-z
1/2-x,1/2+y,-z
1/2-x,1/2-y,-z
1/2+x,1/2+y,-z
1/2-x,1/2+y,z
1/2+x,1/2-y,z
loop_
_atom_site_type_symbol
_atom_site_label
_atom_site_fract_x
_atom_site_fract_y
_atom_site_fract_z
Si Si1 0.688821 0.331768 0.888448
Si Si2 0.240599 0.593827 0.390151
Si Si3 0.931007 0.594862 0.890604
Si Si4 0.432596 0.405004 0.191504
Si Si5 0.811466 0.338876 0.205289
Si Si6 0.386944 0.595297 0.605235
O O1 0.626128 0.378117 0.868444
O O2 0.751576 0.373086 0.851441
O O3 0.684722 0.251649 0.827341
O O4 0.694735 0.314255 0.000000
O O5 0.223484 0.607922 0.500000
O O6 0.232236 0.500000 0.370404
O O7 0.203411 0.645452 0.315087
O O8 0.313901 0.610551 0.381209
O O9 0.931443 0.500000 0.891161
O O10 0.875436 0.623074 0.825874
O O11 0.000000 0.621382 0.862048
O O12 0.920343 0.621325 0.000000
O O13 0.500000 0.378171 0.156876
O O14 0.432612 0.500000 0.192424
O O15 0.422345 0.377341 0.300911
O O16 0.405783 0.624558 0.500000
O O17 0.393535 0.500000 0.602608
#
# Coordination Sequence:
#
# PCOD9492009 Si02
#       6
#    16  16  16  16  16  16
#     4  11  24  38  52  77 110 144 189 235 274 327
#     4   9  17  31  56  88 116 143 179 222 270 327
#     4   9  18  32  52  80 107 132 172 222 269 323
#     4  10  21  37  56  79 109 147 190 235 284 333
#     4  11  20  36  57  77 108 146 179 220 275 327
#     4   8  14  28  51  79 109 138 173 220 270 320
#
# _framework density 18.609442000000001
#
# number of rings (size 3 to 8) (size 9 to 14) (size 15 to 20)
#    0.000    2.333    1.667    4.000    0.000    2.333 
#    0.000    5.000    0.000    0.500    0.000    2.333 
#    0.000    0.000    0.000    0.000    0.000    0.000 
#
# Total GULP energy -267682.210942 kJ/mol
# GULP energy per Si atom -5576.712728 kJ/mol
# Density = 1.856709 g / cm^3
# Si number density = 18.609442 Si / 1000 Ang^3
#
#
#
# Elastic Constant Matrix: (Units=GPa)
#
#
# Indices 1 2 3 4 5 6 
#
# 1 122.9106 23.8258 42.8371 0.0000 0.0000 0.0000
# 2 23.8258 18.2093 28.0313 0.0000 0.0000 0.0000
# 3 42.8371 28.0313 90.2402 0.0000 0.0000 0.0000
# 4 0.0000 0.0000 0.0000 11.4829 0.0000 0.0000
# 5 0.0000 0.0000 0.0000 0.0000 13.4559 0.0000
# 6 0.0000 0.0000 0.0000 0.0000 0.0000 18.2026
#
#
#
# Elastic Compliance Matrix: (Units=1/GPa)
#
#
# Indices 1 2 3 4 5 6 
#
# 1 0.010997 -0.012175 -0.001439 0.000000 0.000000 0.000000
# 2 -0.012175 0.118720 -0.031099 0.000000 0.000000 0.000000
# 3 -0.001439 -0.031099 0.021425 0.000000 0.000000 0.000000
# 4 0.000000 0.000000 0.000000 0.087086 0.000000 0.000000
# 5 0.000000 0.000000 0.000000 0.000000 0.074317 0.000000
# 6 0.000000 0.000000 0.000000 0.000000 0.000000 0.054937
#
#
# Mechanical properties :
#
#
# Convention : Reuss Voigt Hill
#
# Bulk Modulus (GPa) = 16.20274 46.74985 31.47629
# Shear Modulus (GPa) = 10.47165 17.73933 14.10549
#
# Velocity S-wave (km/s) = 2.37472 3.09081 2.75612
# Velocity P-wave (km/s) = 4.03047 6.15740 5.20376
#
# Compressibility (1/GPa) = 0.06171796
#
# Stress axis : x y z
#
# Youngs Moduli (GPa) = 90.93008 8.42316 46.67533
#
# Poissons Ratio (x) = 0.10255 0.06715
# Poissons Ratio (y) = 1.10707 1.45154
# Poissons Ratio (z) = 0.13081 0.26195
#
# Static dielectric constant tensor:
#      x y z
#    x 1.660920 0.000000 0.000000 
#    y 0.000000 1.658100 0.000000 
#    z 0.000000 0.000000 1.655420 
# 
# From -- ./inp_files/29041.got.cif
#   From: 2010.05.17/outbox.cif.g08.bks.cpg/sg65_15_cif.got.tgz:29041.got - 2010.06.03 17:01:31.
