data_PCOD9492549
_publ_section_title
;
Structure prediction by ZEFSAII (Michael W. Deem and Ramdas Pophale) SiO2 
 PCOD9492549
Probable space group: C M M M
;
_chemical_formula_sum "Si O2"
_cell_formula_units_Z 72
_cell_length_a 7.681229
_cell_length_b 16.449464
_cell_length_c 26.657607
_cell_angle_alpha 90.000000
_cell_angle_beta 90.000000
_cell_angle_gamma 90.000000
_cell_volume 3368.244623
_symmetry_space_group_name_H-M "C M M M"
_symmetry_group_IT_number 65
_symmetry_cell_setting 'orthorhombic'
loop_
_space_group_symop_operation_xyz
x,y,z
-x,-y,z
x,-y,-z
-x,y,-z
-x,-y,-z
x,y,-z
-x,y,z
x,-y,z
1/2+x,1/2+y,z
1/2-x,1/2-y,z
1/2+x,1/2-y,-z
1/2-x,1/2+y,-z
1/2-x,1/2-y,-z
1/2+x,1/2+y,-z
1/2-x,1/2+y,z
1/2+x,1/2-y,z
loop_
_atom_site_type_symbol
_atom_site_label
_atom_site_fract_x
_atom_site_fract_y
_atom_site_fract_z
Si Si1 0.706316 0.000000 0.056308
Si Si2 0.706218 0.345138 0.124341
Si Si3 0.709612 0.345422 0.446034
Si Si4 0.300487 0.596075 0.659630
Si Si5 0.209104 0.155047 0.234861
O O1 0.750744 0.083566 0.085403
O O2 0.500000 0.000000 0.052341
O O3 0.782092 0.000000 0.000000
O O4 0.500000 0.344733 0.129017
O O5 0.750000 0.250000 0.112493
O O6 0.777748 0.369279 0.179765
O O7 0.772814 0.379200 0.500000
O O8 0.500000 0.358583 0.445535
O O9 0.750000 0.250000 0.446703
O O10 0.780765 0.376871 0.393055
O O11 0.500000 0.630092 0.660110
O O12 0.311309 0.500000 0.658046
O O13 0.220037 0.619037 0.713218
O O14 0.250000 0.250000 0.237454
O O15 0.000000 0.139303 0.234774
#
# Coordination Sequence:
#
# PCOD9492549 Si02
#       5
#     8  16  16  16  16
#     4  11  25  43  63  89 121 157 196 239 286 338
#     4  10  21  38  62  90 120 156 197 241 290 345
#     4   9  17  29  46  67  90 123 166 210 256 306
#     4   9  17  28  45  70  99 130 165 210 260 311
#     4   9  18  32  53  77 103 136 175 217 266 321
#
# _framework density 21.376118999999999
#
# number of rings (size 3 to 8) (size 9 to 14) (size 15 to 20)
#    0.000    2.556    0.000    1.667    1.556    2.667 
#    0.000    2.222    0.000    2.000    0.000    3.111 
#    0.000    0.000    0.000    0.000    0.000    0.000 
#
# Total GULP energy -200475.238679 kJ/mol
# GULP energy per Si atom -5568.756630 kJ/mol
# Density = 2.132747 g / cm^3
# Si number density = 21.376119 Si / 1000 Ang^3
#
#
#
# Elastic Constant Matrix: (Units=GPa)
#
#
# Indices 1 2 3 4 5 6 
#
# 1 48.5133 -0.2801 13.9008 0.0000 0.0000 0.0000
# 2 -0.2801 77.0111 108.3366 0.0000 0.0000 0.0000
# 3 13.9008 108.3366 258.9784 0.0000 0.0000 0.0000
# 4 0.0000 0.0000 0.0000 64.2395 0.0000 0.0000
# 5 0.0000 0.0000 0.0000 0.0000 15.1623 0.0000
# 6 0.0000 0.0000 0.0000 0.0000 0.0000 25.1051
#
#
#
# Elastic Compliance Matrix: (Units=1/GPa)
#
#
# Indices 1 2 3 4 5 6 
#
# 1 0.021462 0.004128 -0.002879 0.000000 0.000000 0.000000
# 2 0.004128 0.032348 -0.013754 0.000000 0.000000 0.000000
# 3 -0.002879 -0.013754 0.009769 0.000000 0.000000 0.000000
# 4 0.000000 0.000000 0.000000 0.015567 0.000000 0.000000
# 5 0.000000 0.000000 0.000000 0.000000 0.065953 0.000000
# 6 0.000000 0.000000 0.000000 0.000000 0.000000 0.039833
#
#
# Mechanical properties :
#
#
# Convention : Reuss Voigt Hill
#
# Bulk Modulus (GPa) = 25.92699 69.82415 47.87557
# Shear Modulus (GPa) = 22.44198 38.40441 30.42320
#
# Velocity S-wave (km/s) = 3.24367 4.24323 3.77667
# Velocity P-wave (km/s) = 5.11701 7.53274 6.43918
#
# Compressibility (1/GPa) = 0.03856984
#
# Stress axis : x y z
#
# Youngs Moduli (GPa) = 46.59495 30.91372 102.36210
#
# Poissons Ratio (x) = -0.12760 0.29466
# Poissons Ratio (y) = -0.19233 1.40784
# Poissons Ratio (z) = 0.13413 0.42517
#
# Static dielectric constant tensor:
#      x y z
#    x 1.814670 0.000000 0.000000 
#    y 0.000000 1.815780 0.000000 
#    z 0.000000 0.000000 1.891660 
# 
# From -- ./inp_files/67099.got.cif
#   From: 2010.05.17/outbox.cif.g08.bks.cpg/sg65_34_cif.got.tgz:67099.got - 2010.06.03 17:01:31.
