data_PCOD9492174
_publ_section_title
;
Structure prediction by ZEFSAII (Michael W. Deem and Ramdas Pophale) SiO2 
 PCOD9492174
Probable space group: C M M M
;
_chemical_formula_sum "Si O2"
_cell_formula_units_Z 96
_cell_length_a 19.371102
_cell_length_b 8.199675
_cell_length_c 31.648009
_cell_angle_alpha 90.000000
_cell_angle_beta 90.000000
_cell_angle_gamma 90.000000
_cell_volume 5026.866602
_symmetry_space_group_name_H-M "C M M M"
_symmetry_group_IT_number 65
_symmetry_cell_setting 'orthorhombic'
loop_
_space_group_symop_operation_xyz
x,y,z
-x,-y,z
x,-y,-z
-x,y,-z
-x,-y,-z
x,y,-z
-x,y,z
x,-y,z
1/2+x,1/2+y,z
1/2-x,1/2-y,z
1/2+x,1/2-y,-z
1/2-x,1/2+y,-z
1/2-x,1/2-y,-z
1/2+x,1/2+y,-z
1/2-x,1/2+y,z
1/2+x,1/2-y,z
loop_
_atom_site_type_symbol
_atom_site_label
_atom_site_fract_x
_atom_site_fract_y
_atom_site_fract_z
Si Si1 0.920432 0.801106 0.875368
Si Si2 0.829037 0.305705 0.297940
Si Si3 0.826738 0.195197 0.548407
Si Si4 0.578786 0.196492 0.623939
Si Si5 0.829086 0.802860 0.046812
Si Si6 0.579650 0.696995 0.219753
O O1 0.873387 0.741845 0.913671
O O2 0.900666 0.749595 0.827851
O O3 0.000000 0.754734 0.882103
O O4 0.918042 0.000000 0.875495
O O5 0.828736 0.500000 0.300792
O O6 0.750000 0.250000 0.298971
O O7 0.873831 0.240938 0.337540
O O8 0.868291 0.256970 0.255179
O O9 0.836858 0.252973 0.500000
O O10 0.750000 0.250000 0.561988
O O11 0.884005 0.259209 0.580322
O O12 0.828519 0.000000 0.548473
O O13 0.500000 0.257139 0.626368
O O14 0.576391 0.000000 0.626973
O O15 0.750000 0.750000 0.051329
O O16 0.831883 0.000000 0.047217
O O17 0.853266 0.749072 0.000000
O O18 0.500000 0.749322 0.227899
O O19 0.579746 0.500000 0.220159
#
# Coordination Sequence:
#
# PCOD9492174 Si02
#       6
#    16  16  16  16  16  16
#     4   8  15  29  49  73  99 126 161 206 250 295
#     4  11  23  38  56  79 107 137 174 218 260 307
#     4  10  21  37  58  84 113 145 181 220 261 306
#     4  10  22  39  58  81 109 141 176 216 263 311
#     4   9  17  29  46  68  95 128 164 203 248 296
#     4   9  18  34  55  77 103 135 169 208 258 312
#
# _framework density 19.097384999999999
#
# number of rings (size 3 to 8) (size 9 to 14) (size 15 to 20)
#    0.000    2.500    0.000    3.000    0.000    6.333 
#    0.000    5.833    0.000    1.500    0.000    2.333 
#    0.000    0.000    0.000    0.000    0.000    0.000 
#
# Total GULP energy -267842.115807 kJ/mol
# GULP energy per Si atom -5580.044079 kJ/mol
# Density = 1.905392 g / cm^3
# Si number density = 19.097385 Si / 1000 Ang^3
#
#
#
# Elastic Constant Matrix: (Units=GPa)
#
#
# Indices 1 2 3 4 5 6 
#
# 1 156.2439 17.7040 120.4328 0.0000 0.0000 0.0000
# 2 17.7040 13.0590 14.4328 0.0000 0.0000 0.0000
# 3 120.4328 14.4328 155.9046 0.0000 0.0000 0.0000
# 4 0.0000 0.0000 0.0000 12.0668 0.0000 0.0000
# 5 0.0000 0.0000 0.0000 0.0000 36.5768 0.0000
# 6 0.0000 0.0000 0.0000 0.0000 0.0000 18.0426
#
#
#
# Elastic Compliance Matrix: (Units=1/GPa)
#
#
# Indices 1 2 3 4 5 6 
#
# 1 0.016793 -0.009390 -0.012103 0.000000 0.000000 0.000000
# 2 -0.009390 0.090554 -0.001129 0.000000 0.000000 0.000000
# 3 -0.012103 -0.001129 0.015868 0.000000 0.000000 0.000000
# 4 0.000000 0.000000 0.000000 0.082872 0.000000 0.000000
# 5 0.000000 0.000000 0.000000 0.000000 0.027340 0.000000
# 6 0.000000 0.000000 0.000000 0.000000 0.000000 0.055424
#
#
# Mechanical properties :
#
#
# Convention : Reuss Voigt Hill
#
# Bulk Modulus (GPa) = 12.82545 70.03851 41.43198
# Shear Modulus (GPa) = 13.88554 24.84645 19.36600
#
# Velocity S-wave (km/s) = 2.69939 3.61091 3.18789
# Velocity P-wave (km/s) = 4.05537 7.35791 5.94074
#
# Compressibility (1/GPa) = 0.07797000
#
# Stress axis : x y z
#
# Youngs Moduli (GPa) = 59.54703 11.04316 63.01906
#
# Poissons Ratio (x) = 0.10370 0.76274
# Poissons Ratio (y) = 0.55916 0.07116
# Poissons Ratio (z) = 0.72071 0.01247
#
# Static dielectric constant tensor:
#      x y z
#    x 1.634590 0.000000 0.000000 
#    y 0.000000 1.676050 0.000000 
#    z 0.000000 0.000000 1.675890 
# 
# From -- ./inp_files/73174.got.cif
#   From: 2010.05.17/outbox.cif.g08.bks.cpg/sg65_37_cif.got.tgz:73174.got - 2010.06.03 17:01:31.
