data_PCOD9492868
_publ_section_title
;
Structure prediction by ZEFSAII (Michael W. Deem and Ramdas Pophale) SiO2 
 PCOD9492868
Probable space group: C M M M
;
_chemical_formula_sum "Si O2"
_cell_formula_units_Z 72
_cell_length_a 9.898621
_cell_length_b 28.383807
_cell_length_c 14.635868
_cell_angle_alpha 90.000000
_cell_angle_beta 90.000000
_cell_angle_gamma 90.000000
_cell_volume 4112.101494
_symmetry_space_group_name_H-M "C M M M"
_symmetry_group_IT_number 65
_symmetry_cell_setting 'orthorhombic'
loop_
_space_group_symop_operation_xyz
x,y,z
-x,-y,z
x,-y,-z
-x,y,-z
-x,-y,-z
x,y,-z
-x,y,z
x,-y,z
1/2+x,1/2+y,z
1/2-x,1/2-y,z
1/2+x,1/2-y,-z
1/2-x,1/2+y,-z
1/2-x,1/2-y,-z
1/2+x,1/2+y,-z
1/2-x,1/2+y,z
1/2+x,1/2-y,z
loop_
_atom_site_type_symbol
_atom_site_label
_atom_site_fract_x
_atom_site_fract_y
_atom_site_fract_z
Si Si1 0.239709 0.348283 0.718223
Si Si2 0.347765 0.443815 0.500000
Si Si3 0.340314 0.296825 0.897416
Si Si4 0.000000 0.181834 0.609041
Si Si5 0.842603 0.554143 0.670986
Si Si6 0.000000 0.294824 0.611445
O O1 0.281520 0.327502 0.815660
O O2 0.371078 0.342273 0.654796
O O3 0.187701 0.401490 0.734742
O O4 0.126981 0.318759 0.662306
O O5 0.362658 0.500000 0.500000
O O6 0.500000 0.424222 0.500000
O O7 0.255709 0.434161 0.587073
O O8 0.500000 0.286983 0.881437
O O9 0.250000 0.250000 0.897023
O O10 0.329480 0.317584 0.000000
O O11 0.000000 0.238439 0.627802
O O12 0.000000 0.178080 0.500000
O O13 0.816201 0.500000 0.701784
O O14 0.000000 0.555730 0.643181
O O15 0.000000 0.302594 0.500000
#
# Coordination Sequence:
#
# PCOD9492868 Si02
#       6
#    16   8  16   8  16   8
#     4  12  23  37  61  86 113 161 198 240 291 351
#     4   9  19  33  53  79 108 143 192 250 296 336
#     4  10  22  40  63  91 121 152 192 245 300 352
#     4  11  24  38  54  82 122 157 198 240 286 344
#     4  10  22  38  55  78 112 153 198 246 292 344
#     4  11  24  40  56  82 122 163 202 236 278 352
#
# _framework density 17.509295000000002
#
# number of rings (size 3 to 8) (size 9 to 14) (size 15 to 20)
#    0.000    1.444    2.222    3.000    6.222    3.111 
#    0.000    0.000    0.000    0.667    0.000    3.111 
#    0.000    0.000    0.000    0.000    0.000    0.000 
#
# Total GULP energy -200720.554933 kJ/mol
# GULP energy per Si atom -5575.570970 kJ/mol
# Density = 1.746944 g / cm^3
# Si number density = 17.509295 Si / 1000 Ang^3
#
#
#
# Elastic Constant Matrix: (Units=GPa)
#
#
# Indices 1 2 3 4 5 6 
#
# 1 147.5776 53.9011 54.2308 0.0000 0.0000 0.0000
# 2 53.9011 130.8581 50.8268 0.0000 0.0000 0.0000
# 3 54.2308 50.8268 109.4571 0.0000 0.0000 0.0000
# 4 0.0000 0.0000 0.0000 24.2740 0.0000 0.0000
# 5 0.0000 0.0000 0.0000 0.0000 26.4405 0.0000
# 6 0.0000 0.0000 0.0000 0.0000 0.0000 20.2647
#
#
#
# Elastic Compliance Matrix: (Units=1/GPa)
#
#
# Indices 1 2 3 4 5 6 
#
# 1 0.008848 -0.002369 -0.003284 0.000000 0.000000 0.000000
# 2 -0.002369 0.009958 -0.003450 0.000000 0.000000 0.000000
# 3 -0.003284 -0.003450 0.012365 0.000000 0.000000 0.000000
# 4 0.000000 0.000000 0.000000 0.041196 0.000000 0.000000
# 5 0.000000 0.000000 0.000000 0.000000 0.037821 0.000000
# 6 0.000000 0.000000 0.000000 0.000000 0.000000 0.049347
#
#
# Mechanical properties :
#
#
# Convention : Reuss Voigt Hill
#
# Bulk Modulus (GPa) = 77.13111 78.42333 77.77722
# Shear Modulus (GPa) = 27.46310 29.45811 28.46061
#
# Velocity S-wave (km/s) = 3.96471 4.10619 4.03607
# Velocity P-wave (km/s) = 8.06881 8.20779 8.13860
#
# Compressibility (1/GPa) = 0.01296494
#
# Stress axis : x y z
#
# Youngs Moduli (GPa) = 113.01917 100.42378 80.87350
#
# Poissons Ratio (x) = 0.23792 0.26556
# Poissons Ratio (y) = 0.26776 0.27903
# Poissons Ratio (z) = 0.37112 0.34648
#
# Static dielectric constant tensor:
#      x y z
#    x 1.614610 0.000000 0.000000 
#    y 0.000000 1.629090 0.000000 
#    z 0.000000 0.000000 1.533420 
# 
# From -- ./inp_files/36635.got.cif
#   From: 2010.05.17/outbox.cif.g08.bks.cpg/sg65_19_cif.got.tgz:36635.got - 2010.06.03 17:01:31.
