data_PCOD9492060
_publ_section_title
;
Structure prediction by ZEFSAII (Michael W. Deem and Ramdas Pophale) SiO2 
 PCOD9492060
Probable space group: C M M M
;
_chemical_formula_sum "Si O2"
_cell_formula_units_Z 80
_cell_length_a 18.945321
_cell_length_b 9.485740
_cell_length_c 23.451591
_cell_angle_alpha 90.000000
_cell_angle_beta 90.000000
_cell_angle_gamma 90.000000
_cell_volume 4214.494546
_symmetry_space_group_name_H-M "C M M M"
_symmetry_group_IT_number 65
_symmetry_cell_setting 'orthorhombic'
loop_
_space_group_symop_operation_xyz
x,y,z
-x,-y,z
x,-y,-z
-x,y,-z
-x,-y,-z
x,y,-z
-x,y,z
x,-y,z
1/2+x,1/2+y,z
1/2-x,1/2-y,z
1/2+x,1/2-y,-z
1/2-x,1/2+y,-z
1/2-x,1/2-y,-z
1/2+x,1/2+y,-z
1/2-x,1/2+y,z
1/2+x,1/2-y,z
loop_
_atom_site_type_symbol
_atom_site_label
_atom_site_fract_x
_atom_site_fract_y
_atom_site_fract_z
Si Si1 0.086129 0.664324 0.000000
Si Si2 0.333456 0.277952 0.563945
Si Si3 0.821578 0.841965 0.689232
Si Si4 0.415001 0.834546 0.226394
Si Si5 0.585907 0.663888 0.112507
Si Si6 0.077807 0.500000 0.432167
O O1 0.108343 0.751057 0.056070
O O2 0.108562 0.500000 0.000000
O O3 0.000000 0.662167 0.000000
O O4 0.355705 0.328075 0.500000
O O5 0.250000 0.250000 0.559147
O O6 0.341713 0.358877 0.622758
O O7 0.375674 0.136139 0.578291
O O8 0.750000 0.750000 0.692128
O O9 0.879817 0.752588 0.722725
O O10 0.812349 0.000000 0.713179
O O11 0.500000 0.829350 0.230625
O O12 0.393946 0.753915 0.168169
O O13 0.394531 0.000000 0.226237
O O14 0.500000 0.660402 0.111646
O O15 0.609321 0.500000 0.113784
O O16 0.068426 0.500000 0.500000
O O17 0.000000 0.500000 0.404923
#
# Coordination Sequence:
#
# PCOD9492060 Si02
#       6
#     8  16  16  16  16   8
#     4   9  15  23  39  67 104 143 182 225 276 331
#     4   9  20  35  57  84 111 143 184 233 286 348
#     4  11  24  39  58  82 111 145 185 233 284 339
#     4  10  21  37  57  80 109 147 189 232 280 338
#     4   9  16  27  45  71 105 142 182 228 279 332
#     4   9  18  34  56  84 115 147 185 230 285 349
#
# _framework density 18.982111
#
# number of rings (size 3 to 8) (size 9 to 14) (size 15 to 20)
#    0.000    2.400    0.000    2.100    7.000    6.000 
#    0.000    0.000    0.000    0.000    0.000    4.900 
#    0.000    0.000    0.000    0.000    0.000    0.000 
#
# Total GULP energy -222751.368366 kJ/mol
# GULP energy per Si atom -5568.784209 kJ/mol
# Density = 1.893891 g / cm^3
# Si number density = 18.982111 Si / 1000 Ang^3
#
#
#
# Elastic Constant Matrix: (Units=GPa)
#
#
# Indices 1 2 3 4 5 6 
#
# 1 50.4465 47.1053 18.7754 0.0000 0.0000 0.0000
# 2 47.1053 202.1644 75.7088 0.0000 0.0000 0.0000
# 3 18.7754 75.7088 152.0980 0.0000 0.0000 0.0000
# 4 0.0000 0.0000 0.0000 28.8659 0.0000 0.0000
# 5 0.0000 0.0000 0.0000 0.0000 6.1843 0.0000
# 6 0.0000 0.0000 0.0000 0.0000 0.0000 39.0491
#
#
#
# Elastic Compliance Matrix: (Units=1/GPa)
#
#
# Indices 1 2 3 4 5 6 
#
# 1 0.025342 -0.005818 -0.000232 0.000000 0.000000 0.000000
# 2 -0.005818 0.007415 -0.002973 0.000000 0.000000 0.000000
# 3 -0.000232 -0.002973 0.008083 0.000000 0.000000 0.000000
# 4 0.000000 0.000000 0.000000 0.034643 0.000000 0.000000
# 5 0.000000 0.000000 0.000000 0.000000 0.161699 0.000000
# 6 0.000000 0.000000 0.000000 0.000000 0.000000 0.025609
#
#
# Mechanical properties :
#
#
# Convention : Reuss Voigt Hill
#
# Bulk Modulus (GPa) = 43.87060 76.43198 60.15129
# Shear Modulus (GPa) = 17.33487 32.36116 24.84801
#
# Velocity S-wave (km/s) = 3.02523 4.13343 3.62197
# Velocity P-wave (km/s) = 5.94680 7.94563 7.01774
#
# Compressibility (1/GPa) = 0.02279431
#
# Stress axis : x y z
#
# Youngs Moduli (GPa) = 39.46030 134.85495 123.71311
#
# Poissons Ratio (x) = 0.78455 0.02875
# Poissons Ratio (y) = 0.22957 0.36779
# Poissons Ratio (z) = 0.00917 0.40092
#
# Static dielectric constant tensor:
#      x y z
#    x 1.650740 0.000000 0.000000 
#    y 0.000000 1.629920 0.000000 
#    z 0.000000 0.000000 1.683550 
# 
# From -- ./inp_files/70805.got.cif
#   From: 2010.05.17/outbox.cif.g08.bks.cpg/sg65_36_cif.got.tgz:70805.got - 2010.06.03 17:01:31.
