data_PCOD9492814
_publ_section_title
;
Structure prediction by ZEFSAII (Michael W. Deem and Ramdas Pophale) SiO2 
 PCOD9492814
Probable space group: C M M M
;
_chemical_formula_sum "Si O2"
_cell_formula_units_Z 116
_cell_length_a 24.539531
_cell_length_b 29.813542
_cell_length_c 7.780696
_cell_angle_alpha 90.000000
_cell_angle_beta 90.000000
_cell_angle_gamma 90.000000
_cell_volume 5692.437631
_symmetry_space_group_name_H-M "C M M M"
_symmetry_group_IT_number 65
_symmetry_cell_setting 'orthorhombic'
loop_
_space_group_symop_operation_xyz
x,y,z
-x,-y,z
x,-y,-z
-x,y,-z
-x,-y,-z
x,y,-z
-x,y,z
x,-y,z
1/2+x,1/2+y,z
1/2-x,1/2-y,z
1/2+x,1/2-y,-z
1/2-x,1/2+y,-z
1/2-x,1/2-y,-z
1/2+x,1/2+y,-z
1/2-x,1/2+y,z
1/2+x,1/2-y,z
loop_
_atom_site_type_symbol
_atom_site_label
_atom_site_fract_x
_atom_site_fract_y
_atom_site_fract_z
Si Si1 0.808245 0.145084 0.207004
Si Si2 0.212967 0.707991 0.704095
Si Si3 0.080295 0.187836 0.309413
Si Si4 0.344108 0.948779 0.292672
Si Si5 0.589647 0.786564 0.804173
Si Si6 0.940749 0.385982 0.294551
Si Si7 0.500000 0.664753 0.000000
Si Si8 0.718498 0.450582 0.797066
O O1 0.749721 0.164806 0.259587
O O2 0.856203 0.175316 0.283402
O O3 0.811603 0.093617 0.269533
O O4 0.811844 0.146484 0.000000
O O5 0.202682 0.711529 0.500000
O O6 0.250000 0.750000 0.759126
O O7 0.154974 0.708451 0.794262
O O8 0.063934 0.173118 0.500000
O O9 0.073892 0.241654 0.295639
O O10 0.047041 0.166910 0.152645
O O11 0.339947 0.944651 0.500000
O O12 0.388956 0.913696 0.227667
O O13 0.283293 0.942714 0.222514
O O14 0.361076 0.000000 0.253758
O O15 0.566059 0.833217 0.738161
O O16 0.571995 0.779425 0.000000
O O17 0.940925 0.392879 0.500000
O O18 0.000000 0.400563 0.227266
O O19 0.706413 0.500000 0.722343
O O20 0.706659 0.452571 0.000000
#
# Coordination Sequence:
#
# PCOD9492814 Si02
#       8
#    16  16  16  16  16  16   4  16
#     4  11  21  37  60  91 126 161 204 250 301 369
#     4  11  22  35  55  83 117 159 200 243 305 369
#     4  12  25  43  66  91 122 163 207 255 307 360
#     4   9  18  34  55  80 112 149 196 253 310 373
#     4  12  24  39  56  82 118 157 206 255 310 371
#     4  10  22  37  54  77 106 150 205 260 317 368
#     4  12  26  48  64  92 121 162 211 252 298 362
#     4   9  19  35  58  88 123 159 192 235 299 368
#
# _framework density 20.377912999999999
#
# number of rings (size 3 to 8) (size 9 to 14) (size 15 to 20)
#    0.000    1.379    2.759    3.103    0.966    4.966 
#    0.000    1.379    0.000    0.000    0.000    3.862 
#    0.000    1.103    0.000    0.000    0.000    0.000 
#
# Total GULP energy -323632.705373 kJ/mol
# GULP energy per Si atom -5579.874231 kJ/mol
# Density = 2.033153 g / cm^3
# Si number density = 20.377913 Si / 1000 Ang^3
#
#
#
# Elastic Constant Matrix: (Units=GPa)
#
#
# Indices 1 2 3 4 5 6 
#
# 1 40.3792 -13.5916 1.4509 0.0000 0.0000 0.0000
# 2 -13.5916 76.3504 -10.0516 0.0000 0.0000 0.0000
# 3 1.4509 -10.0516 73.1442 0.0000 0.0000 0.0000
# 4 0.0000 0.0000 0.0000 15.6789 0.0000 0.0000
# 5 0.0000 0.0000 0.0000 0.0000 1.8757 0.0000
# 6 0.0000 0.0000 0.0000 0.0000 0.0000 35.9909
#
#
#
# Elastic Compliance Matrix: (Units=1/GPa)
#
#
# Indices 1 2 3 4 5 6 
#
# 1 0.026345 0.004706 0.000124 0.000000 0.000000 0.000000
# 2 0.004706 0.014180 0.001855 0.000000 0.000000 0.000000
# 3 0.000124 0.001855 0.013924 0.000000 0.000000 0.000000
# 4 0.000000 0.000000 0.000000 0.063780 0.000000 0.000000
# 5 0.000000 0.000000 0.000000 0.000000 0.533135 0.000000
# 6 0.000000 0.000000 0.000000 0.000000 0.000000 0.027785
#
#
# Mechanical properties :
#
#
# Convention : Reuss Voigt Hill
#
# Bulk Modulus (GPa) = 14.74501 16.16546 15.45524
# Shear Modulus (GPa) = 7.26339 24.84684 16.05512
#
# Velocity S-wave (km/s) = 1.89000 3.49564 2.80994
# Velocity P-wave (km/s) = 3.46616 4.92369 4.25776
#
# Compressibility (1/GPa) = 0.06781955
#
# Stress axis : x y z
#
# Youngs Moduli (GPa) = 37.95811 70.52421 71.81789
#
# Poissons Ratio (x) = -0.33190 -0.00892
# Poissons Ratio (y) = -0.17864 -0.13324
# Poissons Ratio (z) = -0.00471 -0.13084
#
# Static dielectric constant tensor:
#      x y z
#    x 1.722060 0.000000 0.000000 
#    y 0.000000 1.747030 0.000000 
#    z 0.000000 0.000000 1.738700 
# 
# From -- ./inp_files/15139.got.cif
#   From: 2010.05.17/outbox.cif.g08.bks.cpg/sg65_8_cif.got.tgz:15139.got - 2010.06.03 17:01:31.
