data_PCOD9492378
_publ_section_title
;
Structure prediction by ZEFSAII (Michael W. Deem and Ramdas Pophale) SiO2 
 PCOD9492378
Probable space group: C M M M
;
_chemical_formula_sum "Si O2"
_cell_formula_units_Z 104
_cell_length_a 8.626968
_cell_length_b 22.409383
_cell_length_c 26.839588
_cell_angle_alpha 90.000000
_cell_angle_beta 90.000000
_cell_angle_gamma 90.000000
_cell_volume 5188.764156
_symmetry_space_group_name_H-M "C M M M"
_symmetry_group_IT_number 65
_symmetry_cell_setting 'orthorhombic'
loop_
_space_group_symop_operation_xyz
x,y,z
-x,-y,z
x,-y,-z
-x,y,-z
-x,-y,-z
x,y,-z
-x,y,z
x,-y,z
1/2+x,1/2+y,z
1/2-x,1/2-y,z
1/2+x,1/2-y,-z
1/2-x,1/2+y,-z
1/2-x,1/2-y,-z
1/2+x,1/2+y,-z
1/2-x,1/2+y,z
1/2+x,1/2-y,z
loop_
_atom_site_type_symbol
_atom_site_label
_atom_site_fract_x
_atom_site_fract_y
_atom_site_fract_z
Si Si1 0.183476 0.314255 0.386258
Si Si2 0.318536 0.627214 0.294548
Si Si3 0.819926 0.188476 0.809287
Si Si4 0.812054 0.434114 0.441097
Si Si5 0.685057 0.500000 0.848298
Si Si6 0.689764 0.500000 0.267987
Si Si7 0.188004 0.682270 0.000000
Si Si8 0.316625 0.881342 0.101762
O O1 0.250000 0.250000 0.401504
O O2 0.224595 0.327879 0.328842
O O3 0.244826 0.373896 0.414297
O O4 0.000000 0.311699 0.393281
O O5 0.500000 0.630862 0.308951
O O6 0.310025 0.642928 0.236303
O O7 0.260620 0.559368 0.296793
O O8 0.750000 0.250000 0.790674
O O9 0.722672 0.167096 0.856238
O O10 0.000000 0.194362 0.823323
O O11 0.778476 0.429989 0.500000
O O12 0.756461 0.500000 0.423669
O O13 0.000000 0.434438 0.435918
O O14 0.500000 0.500000 0.845733
O O15 0.740855 0.500000 0.790301
O O16 0.739247 0.558218 0.878327
O O17 0.500000 0.500000 0.266940
O O18 0.250000 0.750000 0.000000
O O19 0.237182 0.645468 0.049057
O O20 0.000000 0.685498 0.000000
O O21 0.500000 0.891490 0.098487
#
# Coordination Sequence:
#
# PCOD9492378 Si02
#       8
#    16  16  16  16   8   8   8  16
#     4  11  23  37  57  87 122 157 201 250 297 354
#     4  10  21  38  59  83 117 157 193 236 293 350
#     4  11  22  37  58  83 113 151 194 239 288 349
#     4   8  16  34  59  85 115 153 198 249 303 355
#     4  11  21  40  64  89 118 149 189 234 284 348
#     4   9  18  37  60  84 114 153 192 235 290 346
#     4  10  24  43  62  85 117 150 188 234 285 342
#     4  11  23  40  61  87 116 150 190 237 288 342
#
# _framework density 20.043309000000001
#
# number of rings (size 3 to 8) (size 9 to 14) (size 15 to 20)
#    0.000    1.846    1.538    3.000    1.077    5.538 
#    0.000    1.538    0.000    1.385    0.000    4.308 
#    0.000    0.000    0.000    0.000    0.000    0.000 
#
# Total GULP energy -290268.427852 kJ/mol
# GULP energy per Si atom -5582.085151 kJ/mol
# Density = 1.999769 g / cm^3
# Si number density = 20.043309 Si / 1000 Ang^3
#
#
#
# Elastic Constant Matrix: (Units=GPa)
#
#
# Indices 1 2 3 4 5 6 
#
# 1 21.1721 21.4180 6.1808 0.0000 0.0000 0.0000
# 2 21.4180 138.4483 28.6178 0.0000 0.0000 0.0000
# 3 6.1808 28.6178 57.6067 0.0000 0.0000 0.0000
# 4 0.0000 0.0000 0.0000 28.8057 0.0000 0.0000
# 5 0.0000 0.0000 0.0000 0.0000 7.3758 0.0000
# 6 0.0000 0.0000 0.0000 0.0000 0.0000 27.8290
#
#
#
# Elastic Compliance Matrix: (Units=1/GPa)
#
#
# Indices 1 2 3 4 5 6 
#
# 1 0.056182 -0.008297 -0.001906 0.000000 0.000000 0.000000
# 2 -0.008297 0.009275 -0.003717 0.000000 0.000000 0.000000
# 3 -0.001906 -0.003717 0.019410 0.000000 0.000000 0.000000
# 4 0.000000 0.000000 0.000000 0.034715 0.000000 0.000000
# 5 0.000000 0.000000 0.000000 0.000000 0.135579 0.000000
# 6 0.000000 0.000000 0.000000 0.000000 0.000000 0.035934
#
#
# Mechanical properties :
#
#
# Convention : Reuss Voigt Hill
#
# Bulk Modulus (GPa) = 17.53586 36.62891 27.08239
# Shear Modulus (GPa) = 14.79529 23.53614 19.16571
#
# Velocity S-wave (km/s) = 2.71987 3.43047 3.09563
# Velocity P-wave (km/s) = 4.31643 5.83142 5.13015
#
# Compressibility (1/GPa) = 0.05702599
#
# Stress axis : x y z
#
# Youngs Moduli (GPa) = 17.79922 107.81770 51.51913
#
# Poissons Ratio (x) = 0.89461 0.09819
# Poissons Ratio (y) = 0.14769 0.19151
# Poissons Ratio (z) = 0.03392 0.40079
#
# Static dielectric constant tensor:
#      x y z
#    x 1.683300 0.000000 0.000000 
#    y 0.000000 1.743000 0.000000 
#    z 0.000000 0.000000 1.693300 
# 
# From -- ./inp_files/73412.got.cif
#   From: 2010.05.17/outbox.cif.g08.bks.cpg/sg65_37_cif.got.tgz:73412.got - 2010.06.03 17:01:31.
