data_PCOD9492229
_publ_section_title
;
Structure prediction by ZEFSAII (Michael W. Deem and Ramdas Pophale) SiO2 
 PCOD9492229
Probable space group: C M M M
;
_chemical_formula_sum "Si O2"
_cell_formula_units_Z 72
_cell_length_a 18.305191
_cell_length_b 8.556487
_cell_length_c 24.778824
_cell_angle_alpha 90.000000
_cell_angle_beta 90.000000
_cell_angle_gamma 90.000000
_cell_volume 3881.060838
_symmetry_space_group_name_H-M "C M M M"
_symmetry_group_IT_number 65
_symmetry_cell_setting 'orthorhombic'
loop_
_space_group_symop_operation_xyz
x,y,z
-x,-y,z
x,-y,-z
-x,y,-z
-x,-y,-z
x,y,-z
-x,y,z
x,-y,z
1/2+x,1/2+y,z
1/2-x,1/2-y,z
1/2+x,1/2-y,-z
1/2-x,1/2+y,-z
1/2-x,1/2-y,-z
1/2+x,1/2+y,-z
1/2-x,1/2+y,z
1/2+x,1/2-y,z
loop_
_atom_site_type_symbol
_atom_site_label
_atom_site_fract_x
_atom_site_fract_y
_atom_site_fract_z
Si Si1 0.833501 0.811113 0.558072
Si Si2 0.915247 0.188931 0.891523
Si Si3 0.167249 0.685638 0.787172
Si Si4 0.333534 0.687769 0.674797
Si Si5 0.832012 0.811074 0.000000
O O1 0.866276 0.761469 0.500000
O O2 0.750000 0.750000 0.557949
O O3 0.866102 0.764498 0.616325
O O4 0.831666 0.000000 0.558267
O O5 0.877946 0.256737 0.838340
O O6 0.000000 0.233348 0.894532
O O7 0.911161 0.000000 0.888912
O O8 0.873521 0.239857 0.945739
O O9 0.170670 0.500000 0.785813
O O10 0.250000 0.750000 0.791870
O O11 0.134609 0.745933 0.730239
O O12 0.332739 0.500000 0.678119
O O13 0.250000 0.750000 0.673989
O O14 0.750000 0.750000 0.000000
O O15 0.831434 0.000000 0.000000
#
# Coordination Sequence:
#
# PCOD9492229 Si02
#       5
#    16  16  16  16   8
#     4   8  13  20  31  50  78 113 152 194 241 293
#     4  10  21  38  58  79 105 135 167 204 248 296
#     4  11  21  33  50  72 100 133 172 213 252 297
#     4   9  15  24  39  59  86 121 161 203 248 296
#     4  10  21  37  59  85 109 136 167 200 240 288
#
# _framework density 18.551629999999999
#
# number of rings (size 3 to 8) (size 9 to 14) (size 15 to 20)
#    0.000    2.444    0.000    5.000    0.000    5.333 
#    0.000    0.000    0.000    2.000    0.000    0.000 
#    0.000    0.889    0.000   10.222    0.000    6.667 
#
# Total GULP energy -200575.894770 kJ/mol
# GULP energy per Si atom -5571.552632 kJ/mol
# Density = 1.850941 g / cm^3
# Si number density = 18.551630 Si / 1000 Ang^3
#
#
#
# Elastic Constant Matrix: (Units=GPa)
#
#
# Indices 1 2 3 4 5 6 
#
# 1 63.7908 25.9259 73.4357 0.0000 0.0000 0.0000
# 2 25.9259 41.3029 49.6029 0.0000 0.0000 0.0000
# 3 73.4357 49.6029 259.5227 0.0000 0.0000 0.0000
# 4 0.0000 0.0000 0.0000 16.6969 0.0000 0.0000
# 5 0.0000 0.0000 0.0000 0.0000 -9.7769 0.0000
# 6 0.0000 0.0000 0.0000 0.0000 0.0000 15.5877
#
#
#
# Elastic Compliance Matrix: (Units=1/GPa)
#
#
# Indices 1 2 3 4 5 6 
#
# 1 0.025928 -0.009688 -0.005485 0.000000 0.000000 0.000000
# 2 -0.009688 0.035044 -0.003957 0.000000 0.000000 0.000000
# 3 -0.005485 -0.003957 0.006162 0.000000 0.000000 0.000000
# 4 0.000000 0.000000 0.000000 0.059891 0.000000 0.000000
# 5 0.000000 0.000000 0.000000 0.000000 -0.102282 0.000000
# 6 0.000000 0.000000 0.000000 0.000000 0.000000 0.064153
#
#
# Mechanical properties :
#
#
# Convention : Reuss Voigt Hill
#
# Bulk Modulus (GPa) = 34.63238 73.61615 54.12426
# Shear Modulus (GPa) = 36.55511 18.87835 27.71673
#
# Velocity S-wave (km/s) = 4.44379 3.19346 3.86946
# Velocity P-wave (km/s) = 6.71106 7.30517 7.01441
#
# Compressibility (1/GPa) = 0.02887471
#
# Stress axis : x y z
#
# Youngs Moduli (GPa) = 38.56856 28.53533 162.29637
#
# Poissons Ratio (x) = 0.27644 0.89020
# Poissons Ratio (y) = 0.37364 0.64217
# Poissons Ratio (z) = 0.21155 0.11291
#
# Static dielectric constant tensor:
#      x y z
#    x 1.590840 0.000000 0.000000 
#    y 0.000000 1.623550 0.000000 
#    z 0.000000 0.000000 1.713690 
# 
# From -- ./inp_files/70346.got.cif
#   From: 2010.05.17/outbox.cif.g08.bks.cpg/sg65_36_cif.got.tgz:70346.got - 2010.06.03 17:01:31.
