data_PCOD9492316
_publ_section_title
;
Structure prediction by ZEFSAII (Michael W. Deem and Ramdas Pophale) SiO2 
 PCOD9492316
Probable space group: C M M M
;
_chemical_formula_sum "Si O2"
_cell_formula_units_Z 96
_cell_length_a 27.107844
_cell_length_b 8.917810
_cell_length_c 23.796731
_cell_angle_alpha 90.000000
_cell_angle_beta 90.000000
_cell_angle_gamma 90.000000
_cell_volume 5752.683678
_symmetry_space_group_name_H-M "C M M M"
_symmetry_group_IT_number 65
_symmetry_cell_setting 'orthorhombic'
loop_
_space_group_symop_operation_xyz
x,y,z
-x,-y,z
x,-y,-z
-x,y,-z
-x,-y,-z
x,y,-z
-x,y,z
x,-y,z
1/2+x,1/2+y,z
1/2-x,1/2-y,z
1/2+x,1/2-y,-z
1/2-x,1/2+y,-z
1/2-x,1/2-y,-z
1/2+x,1/2+y,-z
1/2-x,1/2+y,z
1/2+x,1/2-y,z
loop_
_atom_site_type_symbol
_atom_site_label
_atom_site_fract_x
_atom_site_fract_y
_atom_site_fract_z
Si Si1 0.556073 0.319630 0.065118
Si Si2 0.942704 0.334614 0.266253
Si Si3 0.882215 0.672248 0.840799
Si Si4 0.056182 0.320189 0.433499
Si Si5 0.125982 0.826271 0.344171
Si Si6 0.303878 0.819429 0.255227
O O1 0.500000 0.270207 0.081325
O O2 0.556118 0.500000 0.067562
O O3 0.599385 0.260463 0.105074
O O4 0.563450 0.275376 0.000000
O O5 0.923139 0.500000 0.285672
O O6 0.928813 0.325377 0.201441
O O7 0.917248 0.200813 0.298753
O O8 0.000000 0.333608 0.275670
O O9 0.871532 0.500000 0.856167
O O10 0.837955 0.723619 0.799033
O O11 0.060337 0.289683 0.500000
O O12 0.058438 0.500000 0.425688
O O13 0.100622 0.245017 0.399244
O O14 0.000000 0.273595 0.416023
O O15 0.170801 0.741774 0.312609
O O16 0.137660 0.000000 0.352476
O O17 0.250000 0.750000 0.249390
O O18 0.302260 0.000000 0.256955
#
# Coordination Sequence:
#
# PCOD9492316 Si02
#       6
#    16  16  16  16  16  16
#     4   9  18  31  46  68 101 138 171 202 237 280
#     4   9  17  29  44  64  95 131 163 199 244 292
#     4   9  18  31  48  71  96 123 158 201 246 292
#     4   9  18  33  52  73 101 140 179 210 244 287
#     4  11  21  31  47  73 102 131 164 202 246 296
#     4  10  21  38  57  76  98 124 159 205 256 306
#
# _framework density 16.687861999999999
#
# number of rings (size 3 to 8) (size 9 to 14) (size 15 to 20)
#    0.000    2.500    0.000    5.000    0.000    7.667 
#    0.000    1.667    0.000    1.000    0.000    0.000 
#    0.000    0.000    0.000    0.000    0.000    0.000 
#
# Total GULP energy -267205.901972 kJ/mol
# GULP energy per Si atom -5566.789624 kJ/mol
# Density = 1.664988 g / cm^3
# Si number density = 16.687862 Si / 1000 Ang^3
#
#
#
# Elastic Constant Matrix: (Units=GPa)
#
#
# Indices 1 2 3 4 5 6 
#
# 1 93.1049 40.1083 56.4803 0.0000 0.0000 0.0000
# 2 40.1083 54.7896 37.3816 0.0000 0.0000 0.0000
# 3 56.4803 37.3816 95.5559 0.0000 0.0000 0.0000
# 4 0.0000 0.0000 0.0000 38.5536 0.0000 0.0000
# 5 0.0000 0.0000 0.0000 0.0000 21.6785 0.0000
# 6 0.0000 0.0000 0.0000 0.0000 0.0000 24.1290
#
#
#
# Elastic Compliance Matrix: (Units=1/GPa)
#
#
# Indices 1 2 3 4 5 6 
#
# 1 0.019364 -0.008684 -0.008048 0.000000 0.000000 0.000000
# 2 -0.008684 0.028791 -0.006130 0.000000 0.000000 0.000000
# 3 -0.008048 -0.006130 0.017620 0.000000 0.000000 0.000000
# 4 0.000000 0.000000 0.000000 0.025938 0.000000 0.000000
# 5 0.000000 0.000000 0.000000 0.000000 0.046129 0.000000
# 6 0.000000 0.000000 0.000000 0.000000 0.000000 0.041444
#
#
# Mechanical properties :
#
#
# Convention : Reuss Voigt Hill
#
# Bulk Modulus (GPa) = 49.87446 56.82120 53.34783
# Shear Modulus (GPa) = 21.58016 24.17091 22.87553
#
# Velocity S-wave (km/s) = 3.59996 3.80993 3.70643
# Velocity P-wave (km/s) = 6.87249 7.31283 7.09608
#
# Compressibility (1/GPa) = 0.02005034
#
# Stress axis : x y z
#
# Youngs Moduli (GPa) = 51.64271 34.73276 56.75268
#
# Poissons Ratio (x) = 0.30162 0.45676
# Poissons Ratio (y) = 0.44847 0.34791
# Poissons Ratio (z) = 0.41563 0.21292
#
# Static dielectric constant tensor:
#      x y z
#    x 1.567840 0.000000 0.000000 
#    y 0.000000 1.598040 0.000000 
#    z 0.000000 0.000000 1.579220 
# 
# From -- ./inp_files/71675.got.cif
#   From: 2010.05.17/outbox.cif.g08.bks.cpg/sg65_36_cif.got.tgz:71675.got - 2010.06.03 17:01:31.
