data_PCOD9492298
_publ_section_title
;
Structure prediction by ZEFSAII (Michael W. Deem and Ramdas Pophale) SiO2 
 PCOD9492298
Probable space group: C M M M
;
_chemical_formula_sum "Si O2"
_cell_formula_units_Z 60
_cell_length_a 22.335591
_cell_length_b 14.262694
_cell_length_c 9.996157
_cell_angle_alpha 90.000000
_cell_angle_beta 90.000000
_cell_angle_gamma 90.000000
_cell_volume 3184.432749
_symmetry_space_group_name_H-M "C M M M"
_symmetry_group_IT_number 65
_symmetry_cell_setting 'orthorhombic'
loop_
_space_group_symop_operation_xyz
x,y,z
-x,-y,z
x,-y,-z
-x,y,-z
-x,-y,-z
x,y,-z
-x,y,z
x,-y,z
1/2+x,1/2+y,z
1/2-x,1/2-y,z
1/2+x,1/2-y,-z
1/2-x,1/2+y,-z
1/2-x,1/2-y,-z
1/2+x,1/2+y,-z
1/2-x,1/2+y,z
1/2+x,1/2-y,z
loop_
_atom_site_type_symbol
_atom_site_label
_atom_site_fract_x
_atom_site_fract_y
_atom_site_fract_z
Si Si1 0.568399 0.671694 0.500000
Si Si2 0.158194 0.000000 0.500000
Si Si3 0.299847 0.336446 0.000000
Si Si4 0.068277 0.744718 0.000000
Si Si5 0.843511 0.500000 0.351690
Si Si6 0.223167 0.000000 0.788182
Si Si7 0.067063 0.664686 0.291762
O O1 0.500000 0.635984 0.500000
O O2 0.616071 0.590670 0.500000
O O3 0.575794 0.738565 0.628645
O O4 0.193073 0.000000 0.358437
O O5 0.250000 0.250000 0.000000
O O6 0.369376 0.302584 0.000000
O O7 0.291703 0.406264 0.872914
O O8 0.070392 0.683851 0.134476
O O9 0.000000 0.789967 0.000000
O O10 0.816288 0.500000 0.500000
O O11 0.793664 0.500000 0.239169
O O12 0.884682 0.409533 0.336603
O O13 0.000000 0.631279 0.325146
#
# Coordination Sequence:
#
# PCOD9492298 Si02
#       7
#     8   4   8   8   8   8  16
#     4  10  21  38  60  86 116 159 204 249 308 371
#     4  12  23  40  58  86 123 154 202 268 304 342
#     4  11  23  46  69  88 127 172 207 257 324 372
#     4  10  21  39  63  94 124 159 211 262 305 370
#     4  12  22  39  60  88 128 166 199 255 310 364
#     4  11  26  41  61  94 120 161 220 254 300 390
#     4  10  21  37  62  93 123 158 202 247 310 384
#
# _framework density 18.841660000000001
#
# number of rings (size 3 to 8) (size 9 to 14) (size 15 to 20)
#    0.000    1.333    2.000    3.800    0.000    2.133 
#    0.000    6.667    0.000    0.000    0.000    0.000 
#    0.000    0.000    0.000    0.000    0.000    0.000 
#
# Total GULP energy -167388.306331 kJ/mol
# GULP energy per Si atom -5579.610211 kJ/mol
# Density = 1.879878 g / cm^3
# Si number density = 18.841660 Si / 1000 Ang^3
#
#
#
# Elastic Constant Matrix: (Units=GPa)
#
#
# Indices 1 2 3 4 5 6 
#
# 1 140.6749 63.5478 31.1865 0.0000 0.0000 0.0000
# 2 63.5478 76.9490 33.5458 0.0000 0.0000 0.0000
# 3 31.1865 33.5458 133.0938 0.0000 0.0000 0.0000
# 4 0.0000 0.0000 0.0000 17.4288 0.0000 0.0000
# 5 0.0000 0.0000 0.0000 0.0000 33.5573 0.0000
# 6 0.0000 0.0000 0.0000 0.0000 0.0000 37.2639
#
#
#
# Elastic Compliance Matrix: (Units=1/GPa)
#
#
# Indices 1 2 3 4 5 6 
#
# 1 0.011352 -0.009229 -0.000334 0.000000 0.000000 0.000000
# 2 -0.009229 0.022103 -0.003408 0.000000 0.000000 0.000000
# 3 -0.000334 -0.003408 0.008451 0.000000 0.000000 0.000000
# 4 0.000000 0.000000 0.000000 0.057376 0.000000 0.000000
# 5 0.000000 0.000000 0.000000 0.000000 0.029800 0.000000
# 6 0.000000 0.000000 0.000000 0.000000 0.000000 0.026836
#
#
# Mechanical properties :
#
#
# Convention : Reuss Voigt Hill
#
# Bulk Modulus (GPa) = 62.64478 67.47530 65.06004
# Shear Modulus (GPa) = 26.71200 32.47917 29.59559
#
# Velocity S-wave (km/s) = 3.76933 4.15637 3.96757
# Velocity P-wave (km/s) = 7.22939 7.67615 7.45612
#
# Compressibility (1/GPa) = 0.01596302
#
# Stress axis : x y z
#
# Youngs Moduli (GPa) = 88.09204 45.24176 118.33206
#
# Poissons Ratio (x) = 0.41755 0.03949
# Poissons Ratio (y) = 0.81303 0.40333
# Poissons Ratio (z) = 0.02940 0.15421
#
# Static dielectric constant tensor:
#      x y z
#    x 1.657720 0.000000 0.000000 
#    y 0.000000 1.622910 0.000000 
#    z 0.000000 0.000000 1.648640 
# 
# From -- ./inp_files/28149.got.cif
#   From: 2010.05.17/outbox.cif.g08.bks.cpg/sg65_15_cif.got.tgz:28149.got - 2010.06.03 17:01:31.
