data_PCOD9492113
_publ_section_title
;
Structure prediction by ZEFSAII (Michael W. Deem and Ramdas Pophale) SiO2 
 PCOD9492113
Probable space group: C M M M
;
_chemical_formula_sum "Si O2"
_cell_formula_units_Z 96
_cell_length_a 29.932070
_cell_length_b 8.324084
_cell_length_c 21.102435
_cell_angle_alpha 90.000000
_cell_angle_beta 90.000000
_cell_angle_gamma 90.000000
_cell_volume 5257.820768
_symmetry_space_group_name_H-M "C M M M"
_symmetry_group_IT_number 65
_symmetry_cell_setting 'orthorhombic'
loop_
_space_group_symop_operation_xyz
x,y,z
-x,-y,z
x,-y,-z
-x,y,-z
-x,-y,-z
x,y,-z
-x,y,z
x,-y,z
1/2+x,1/2+y,z
1/2-x,1/2-y,z
1/2+x,1/2-y,-z
1/2-x,1/2+y,-z
1/2-x,1/2-y,-z
1/2+x,1/2+y,-z
1/2-x,1/2+y,z
1/2+x,1/2-y,z
loop_
_atom_site_type_symbol
_atom_site_label
_atom_site_fract_x
_atom_site_fract_y
_atom_site_fract_z
Si Si1 0.799231 0.191767 0.072134
Si Si2 0.450444 0.805668 0.758464
Si Si3 0.300866 0.307170 0.693476
Si Si4 0.642027 0.192003 0.186292
Si Si5 0.645218 0.696273 0.430532
Si Si6 0.549143 0.693221 0.386424
O O1 0.750000 0.250000 0.092496
O O2 0.836015 0.247030 0.121853
O O3 0.798539 0.000000 0.070946
O O4 0.806723 0.251178 0.000000
O O5 0.500000 0.760472 0.781888
O O6 0.408655 0.751944 0.800463
O O7 0.445698 0.736812 0.687592
O O8 0.448929 0.000000 0.753800
O O9 0.301797 0.500000 0.694150
O O10 0.250000 0.250000 0.695685
O O11 0.328089 0.246745 0.754249
O O12 0.325220 0.250217 0.628950
O O13 0.641990 0.000000 0.184663
O O14 0.661587 0.746325 0.500000
O O15 0.645143 0.500000 0.429187
O O16 0.593811 0.749945 0.421173
O O17 0.500000 0.753155 0.407315
O O18 0.548418 0.500000 0.392584
#
# Coordination Sequence:
#
# PCOD9492113 Si02
#       6
#    16  16  16  16  16  16
#     4  10  21  37  57  82 113 145 176 211 254 304
#     4   9  18  32  51  76 106 137 169 209 256 304
#     4  11  22  36  53  73 100 133 173 221 266 312
#     4  11  21  34  56  82 108 138 174 214 256 304
#     4   9  18  32  49  71 100 133 169 213 264 314
#     4   9  16  28  49  75 100 128 165 209 259 314
#
# _framework density 18.258514999999999
#
# number of rings (size 3 to 8) (size 9 to 14) (size 15 to 20)
#    0.000    2.167    1.667    2.000    0.000    2.333 
#    0.000    1.667    0.000    4.500    0.000    5.833 
#    0.000    0.000    0.000    0.000    0.000    0.000 
#
# Total GULP energy -267838.106046 kJ/mol
# GULP energy per Si atom -5579.960543 kJ/mol
# Density = 1.821696 g / cm^3
# Si number density = 18.258515 Si / 1000 Ang^3
#
#
#
# Elastic Constant Matrix: (Units=GPa)
#
#
# Indices 1 2 3 4 5 6 
#
# 1 126.7831 11.5887 55.3636 0.0000 0.0000 0.0000
# 2 11.5887 19.1813 7.7337 0.0000 0.0000 0.0000
# 3 55.3636 7.7337 82.4452 0.0000 0.0000 0.0000
# 4 0.0000 0.0000 0.0000 -0.1413 0.0000 0.0000
# 5 0.0000 0.0000 0.0000 0.0000 18.1902 0.0000
# 6 0.0000 0.0000 0.0000 0.0000 0.0000 9.9099
#
#
#
# Elastic Compliance Matrix: (Units=1/GPa)
#
#
# Indices 1 2 3 4 5 6 
#
# 1 0.011443 -0.003965 -0.007312 0.000000 0.000000 0.000000
# 2 -0.003965 0.055558 -0.002549 0.000000 0.000000 0.000000
# 3 -0.007312 -0.002549 0.017279 0.000000 0.000000 0.000000
# 4 0.000000 0.000000 0.000000 -7.077993 0.000000 0.000000
# 5 0.000000 0.000000 0.000000 0.000000 0.054975 0.000000
# 6 0.000000 0.000000 0.000000 0.000000 0.000000 0.100910
#
#
# Mechanical properties :
#
#
# Convention : Reuss Voigt Hill
#
# Bulk Modulus (GPa) = 17.65954 41.97575 29.81764
# Shear Modulus (GPa) = -0.73624 15.83998 7.55187
#
# Velocity S-wave (km/s) = -0.63569 2.94860 2.03594
# Velocity P-wave (km/s) = 3.02558 5.88489 4.67900
#
# Compressibility (1/GPa) = 0.05662661
#
# Stress axis : x y z
#
# Youngs Moduli (GPa) = 87.38918 17.99936 57.87475
#
# Poissons Ratio (x) = 0.07137 0.42320
# Poissons Ratio (y) = 0.34652 0.14751
# Poissons Ratio (z) = 0.63901 0.04588
#
# Static dielectric constant tensor:
#      x y z
#    x 1.640370 0.000000 0.000000 
#    y 0.000000 1.656980 0.000000 
#    z 0.000000 0.000000 1.616320 
# 
# From -- ./inp_files/60235.got.cif
#   From: 2010.05.17/outbox.cif.g08.bks.cpg/sg65_31_cif.got.tgz:60235.got - 2010.06.03 17:01:31.
