data_PCOD9492626
_publ_section_title
;
Structure prediction by ZEFSAII (Michael W. Deem and Ramdas Pophale) SiO2 
 PCOD9492626
Probable space group: C M M M
;
_chemical_formula_sum "Si O2"
_cell_formula_units_Z 64
_cell_length_a 22.726751
_cell_length_b 16.995856
_cell_length_c 8.648063
_cell_angle_alpha 90.000000
_cell_angle_beta 90.000000
_cell_angle_gamma 90.000000
_cell_volume 3340.405894
_symmetry_space_group_name_H-M "C M M M"
_symmetry_group_IT_number 65
_symmetry_cell_setting 'orthorhombic'
loop_
_space_group_symop_operation_xyz
x,y,z
-x,-y,z
x,-y,-z
-x,y,-z
-x,-y,-z
x,y,-z
-x,y,z
x,-y,z
1/2+x,1/2+y,z
1/2-x,1/2-y,z
1/2+x,1/2-y,-z
1/2-x,1/2+y,-z
1/2-x,1/2-y,-z
1/2+x,1/2+y,-z
1/2-x,1/2+y,z
1/2+x,1/2-y,z
loop_
_atom_site_type_symbol
_atom_site_label
_atom_site_fract_x
_atom_site_fract_y
_atom_site_fract_z
Si Si1 0.067614 0.000000 0.311635
Si Si2 0.614640 0.177476 0.814631
Si Si3 0.357809 0.652442 0.685447
Si Si4 0.000000 0.408801 0.314628
Si Si5 0.235949 0.592178 0.813508
O O1 0.102598 0.921904 0.263217
O O2 0.067333 0.000000 0.500000
O O3 0.000000 0.000000 0.259665
O O4 0.619240 0.266553 0.755967
O O5 0.557938 0.134279 0.747167
O O6 0.674398 0.131919 0.768170
O O7 0.611416 0.176511 0.000000
O O8 0.360058 0.657058 0.500000
O O9 0.291332 0.635600 0.738876
O O10 0.000000 0.500000 0.264773
O O11 0.000000 0.406131 0.500000
O O12 0.236809 0.500000 0.770729
O O13 0.241106 0.597509 0.000000
#
# Coordination Sequence:
#
# PCOD9492626 Si02
#       5
#     8  16  16   8  16
#     4   9  20  38  59  85 121 164 202 247 308 368
#     4  11  24  41  63  91 124 165 208 252 309 372
#     4  11  22  38  62  92 123 161 208 259 314 366
#     4  11  25  45  67  94 125 160 203 255 310 364
#     4  10  21  39  62  87 121 164 207 254 308 370
#
# _framework density 19.159347
#
# number of rings (size 3 to 8) (size 9 to 14) (size 15 to 20)
#    0.000    1.500    1.250    3.375    1.750    7.000 
#    0.000    0.000    0.000    3.000    0.000    0.000 
#    0.000    0.000    0.000    0.000    0.000    0.000 
#
# Total GULP energy -178955.683065 kJ/mol
# GULP energy per Si atom -5592.365096 kJ/mol
# Density = 1.911574 g / cm^3
# Si number density = 19.159347 Si / 1000 Ang^3
#
#
#
# Elastic Constant Matrix: (Units=GPa)
#
#
# Indices 1 2 3 4 5 6 
#
# 1 203.7900 113.3382 49.1591 0.0000 0.0000 0.0000
# 2 113.3382 193.0467 49.2355 0.0000 0.0000 0.0000
# 3 49.1591 49.2355 37.9580 0.0000 0.0000 0.0000
# 4 0.0000 0.0000 0.0000 29.9696 0.0000 0.0000
# 5 0.0000 0.0000 0.0000 0.0000 35.8941 0.0000
# 6 0.0000 0.0000 0.0000 0.0000 0.0000 8.0732
#
#
#
# Elastic Compliance Matrix: (Units=1/GPa)
#
#
# Indices 1 2 3 4 5 6 
#
# 1 0.008258 -0.003169 -0.006584 0.000000 0.000000 0.000000
# 2 -0.003169 0.008957 -0.007514 0.000000 0.000000 0.000000
# 3 -0.006584 -0.007514 0.044619 0.000000 0.000000 0.000000
# 4 0.000000 0.000000 0.000000 0.033367 0.000000 0.000000
# 5 0.000000 0.000000 0.000000 0.000000 0.027860 0.000000
# 6 0.000000 0.000000 0.000000 0.000000 0.000000 0.123867
#
#
# Mechanical properties :
#
#
# Convention : Reuss Voigt Hill
#
# Bulk Modulus (GPa) = 36.63138 95.36225 65.99682
# Shear Modulus (GPa) = 17.20810 29.65818 23.43314
#
# Velocity S-wave (km/s) = 3.00018 3.93870 3.50103
# Velocity P-wave (km/s) = 5.58232 8.40034 7.13190
#
# Compressibility (1/GPa) = 0.02729900
#
# Stress axis : x y z
#
# Youngs Moduli (GPa) = 121.10062 111.64473 22.41216
#
# Poissons Ratio (x) = 0.35378 0.14756
# Poissons Ratio (y) = 0.38375 0.16841
# Poissons Ratio (z) = 0.79733 0.83892
#
# Static dielectric constant tensor:
#      x y z
#    x 1.630410 0.000000 0.000000 
#    y 0.000000 1.641340 0.000000 
#    z 0.000000 0.000000 1.651340 
# 
# From -- ./inp_files/13351.got.cif
#   From: 2010.05.17/outbox.cif.g08.bks.cpg/sg65_7_cif.got.tgz:13351.got - 2010.06.03 17:01:31.
