data_PCOD9492698
_publ_section_title
;
Structure prediction by ZEFSAII (Michael W. Deem and Ramdas Pophale) SiO2 
 PCOD9492698
Probable space group: C M M M
;
_chemical_formula_sum "Si O2"
_cell_formula_units_Z 90
_cell_length_a 19.828467
_cell_length_b 28.541339
_cell_length_c 7.887157
_cell_angle_alpha 90.000000
_cell_angle_beta 90.000000
_cell_angle_gamma 90.000000
_cell_volume 4463.586636
_symmetry_space_group_name_H-M "C M M M"
_symmetry_group_IT_number 65
_symmetry_cell_setting 'orthorhombic'
loop_
_space_group_symop_operation_xyz
x,y,z
-x,-y,z
x,-y,-z
-x,y,-z
-x,-y,-z
x,y,-z
-x,y,z
x,-y,z
1/2+x,1/2+y,z
1/2-x,1/2-y,z
1/2+x,1/2-y,-z
1/2-x,1/2+y,-z
1/2-x,1/2-y,-z
1/2+x,1/2+y,-z
1/2-x,1/2+y,z
1/2+x,1/2-y,z
loop_
_atom_site_type_symbol
_atom_site_label
_atom_site_fract_x
_atom_site_fract_y
_atom_site_fract_z
Si Si1 0.167343 0.404130 0.301150
Si Si2 0.890119 0.500000 0.809845
Si Si3 0.675310 0.265554 0.204515
Si Si4 0.423433 0.817862 0.296633
Si Si5 0.313272 0.629375 0.199893
Si Si6 0.000000 0.500000 0.500000
Si Si7 0.422637 0.446806 0.705106
O O1 0.152322 0.411034 0.500000
O O2 0.154126 0.453037 0.209890
O O3 0.117875 0.363206 0.233960
O O4 0.243700 0.386604 0.283996
O O5 0.942030 0.500000 0.652642
O O6 0.919893 0.500000 0.000000
O O7 0.750000 0.250000 0.262444
O O8 0.619229 0.228689 0.260508
O O9 0.664580 0.319046 0.260879
O O10 0.675353 0.264527 0.000000
O O11 0.426933 0.822539 0.500000
O O12 0.500000 0.815991 0.230948
O O13 0.370977 0.591336 0.228802
O O14 0.299107 0.633256 0.000000
O O15 0.420800 0.445800 0.500000
O O16 0.500000 0.437518 0.757176
O O17 0.405231 0.500000 0.757942
#
# Coordination Sequence:
#
# PCOD9492698 Si02
#       7
#    16   8  16  16  16   2  16
#     4  11  23  42  66  93 132 172 216 275 331 388
#     4  12  27  45  71 100 134 180 227 275 340 402
#     4  10  21  40  60  84 123 164 208 261 315 379
#     4  10  23  40  64  93 125 163 211 267 324 387
#     4  11  23  38  62  92 125 166 214 266 324 392
#     4  12  26  52  68  98 140 180 224 288 336 390
#     4   9  20  40  63  88 120 161 205 252 317 392
#
# _framework density 20.163159
#
# number of rings (size 3 to 8) (size 9 to 14) (size 15 to 20)
#    0.000    1.600    2.667    1.733    2.489    4.267 
#    0.000    4.444    0.000    0.000    0.000    0.000 
#    0.000    0.000    0.000    0.000    0.000    0.000 
#
# Total GULP energy -251158.175343 kJ/mol
# GULP energy per Si atom -5581.292785 kJ/mol
# Density = 2.011727 g / cm^3
# Si number density = 20.163159 Si / 1000 Ang^3
#
#
#
# Elastic Constant Matrix: (Units=GPa)
#
#
# Indices 1 2 3 4 5 6 
#
# 1 132.3191 102.4210 9.4764 0.0000 0.0000 0.0000
# 2 102.4210 189.5368 19.1797 0.0000 0.0000 0.0000
# 3 9.4764 19.1797 61.7160 0.0000 0.0000 0.0000
# 4 0.0000 0.0000 0.0000 -8.5350 0.0000 0.0000
# 5 0.0000 0.0000 0.0000 0.0000 -6.8639 0.0000
# 6 0.0000 0.0000 0.0000 0.0000 0.0000 -709.3595
#
#
#
# Elastic Compliance Matrix: (Units=1/GPa)
#
#
# Indices 1 2 3 4 5 6 
#
# 1 0.012994 -0.007041 0.000193 0.000000 0.000000 0.000000
# 2 -0.007041 0.009263 -0.001797 0.000000 0.000000 0.000000
# 3 0.000193 -0.001797 0.016732 0.000000 0.000000 0.000000
# 4 0.000000 0.000000 0.000000 -0.117165 0.000000 0.000000
# 5 0.000000 0.000000 0.000000 0.000000 -0.145690 0.000000
# 6 0.000000 0.000000 0.000000 0.000000 0.000000 -0.001410
#
#
# Mechanical properties :
#
#
# Convention : Reuss Voigt Hill
#
# Bulk Modulus (GPa) = 46.08789 71.74735 58.91762
# Shear Modulus (GPa) = -24.90627 -128.11868 -76.51248
#
# Velocity S-wave (km/s) = -3.51841 -7.97991 -6.16677
# Velocity P-wave (km/s) = 2.53012 7.01745 4.62834
#
# Compressibility (1/GPa) = 0.02169767
#
# Stress axis : x y z
#
# Youngs Moduli (GPa) = 76.96013 107.95978 59.76491
#
# Poissons Ratio (x) = 0.76015 -0.01153
# Poissons Ratio (y) = 0.54188 0.10742
# Poissons Ratio (z) = -0.01485 0.19405
#
# Static dielectric constant tensor:
#      x y z
#    x 1.671970 0.000000 0.000000 
#    y 0.000000 1.698580 0.000000 
#    z 0.000000 0.000000 1.738580 
# 
# From -- ./inp_files/11899.got.cif
#   From: 2010.05.17/outbox.cif.g08.bks.cpg/sg65_6_cif.got.tgz:11899.got - 2010.06.03 17:01:31.
