data_PCOD9492802
_publ_section_title
;
Structure prediction by ZEFSAII (Michael W. Deem and Ramdas Pophale) SiO2 
 PCOD9492802
Probable space group: C M M M
;
_chemical_formula_sum "Si O2"
_cell_formula_units_Z 72
_cell_length_a 20.920276
_cell_length_b 9.825344
_cell_length_c 20.293680
_cell_angle_alpha 90.000000
_cell_angle_beta 90.000000
_cell_angle_gamma 90.000000
_cell_volume 4171.343769
_symmetry_space_group_name_H-M "C M M M"
_symmetry_group_IT_number 65
_symmetry_cell_setting 'orthorhombic'
loop_
_space_group_symop_operation_xyz
x,y,z
-x,-y,z
x,-y,-z
-x,y,-z
-x,-y,-z
x,y,-z
-x,y,z
x,-y,z
1/2+x,1/2+y,z
1/2-x,1/2-y,z
1/2+x,1/2-y,-z
1/2-x,1/2+y,-z
1/2-x,1/2-y,-z
1/2+x,1/2+y,-z
1/2-x,1/2+y,z
1/2+x,1/2-y,z
loop_
_atom_site_type_symbol
_atom_site_label
_atom_site_fract_x
_atom_site_fract_y
_atom_site_fract_z
Si Si1 0.077504 0.656291 0.073868
Si Si2 0.119877 0.841297 0.423170
Si Si3 0.500000 0.154420 0.579755
Si Si4 0.309286 0.659319 0.293880
Si Si5 0.425860 0.337533 0.801701
O O1 0.097507 0.500000 0.086498
O O2 0.094644 0.757215 0.132605
O O3 0.000000 0.656204 0.072244
O O4 0.099122 0.695372 0.000000
O O5 0.136382 0.818587 0.500000
O O6 0.176366 0.821095 0.371411
O O7 0.062541 0.741214 0.403617
O O8 0.098990 0.000000 0.417113
O O9 0.500000 0.146752 0.500000
O O10 0.500000 0.000000 0.605551
O O11 0.295676 0.500000 0.282734
O O12 0.250000 0.750000 0.272493
O O13 0.374829 0.692321 0.255276
O O14 0.500000 0.301182 0.785406
O O15 0.424861 0.500000 0.813291
#
# Coordination Sequence:
#
# PCOD9492802 Si02
#       5
#    16  16   8  16  16
#     4   8  14  26  46  74 106 134 161 200 249 297
#     4   9  18  33  53  74  97 132 174 211 256 313
#     4   9  17  29  47  75 105 127 154 203 260 303
#     4  10  22  37  53  73 102 137 173 215 261 307
#     4   9  18  32  51  75 102 134 170 208 250 298
#
# _framework density 17.260625000000001
#
# number of rings (size 3 to 8) (size 9 to 14) (size 15 to 20)
#    0.000    3.000    0.000    1.000    1.556    4.000 
#    0.000    2.222    0.000    0.667    0.000    0.000 
#    0.000    0.000    0.000    0.000    0.000    0.000 
#
# Total GULP energy -200466.082931 kJ/mol
# GULP energy per Si atom -5568.502304 kJ/mol
# Density = 1.722134 g / cm^3
# Si number density = 17.260625 Si / 1000 Ang^3
#
#
#
# Elastic Constant Matrix: (Units=GPa)
#
#
# Indices 1 2 3 4 5 6 
#
# 1 74.2015 49.4871 44.1516 0.0000 0.0000 0.0000
# 2 49.4871 55.0111 48.5044 0.0000 0.0000 0.0000
# 3 44.1516 48.5044 92.4510 0.0000 0.0000 0.0000
# 4 0.0000 0.0000 0.0000 22.6078 0.0000 0.0000
# 5 0.0000 0.0000 0.0000 0.0000 3.7674 0.0000
# 6 0.0000 0.0000 0.0000 0.0000 0.0000 23.0356
#
#
#
# Elastic Compliance Matrix: (Units=1/GPa)
#
#
# Indices 1 2 3 4 5 6 
#
# 1 0.033695 -0.030002 -0.000351 0.000000 0.000000 0.000000
# 2 -0.030002 0.060539 -0.017434 0.000000 0.000000 0.000000
# 3 -0.000351 -0.017434 0.020131 0.000000 0.000000 0.000000
# 4 0.000000 0.000000 0.000000 0.044232 0.000000 0.000000
# 5 0.000000 0.000000 0.000000 0.000000 0.265435 0.000000
# 6 0.000000 0.000000 0.000000 0.000000 0.000000 0.043411
#
#
# Mechanical properties :
#
#
# Convention : Reuss Voigt Hill
#
# Bulk Modulus (GPa) = 53.21642 56.21665 54.71653
# Shear Modulus (GPa) = 8.78302 15.18353 11.98328
#
# Velocity S-wave (km/s) = 2.25821 2.96913 2.63773
# Velocity P-wave (km/s) = 6.13982 6.66291 6.40670
#
# Compressibility (1/GPa) = 0.01879119
#
# Stress axis : x y z
#
# Youngs Moduli (GPa) = 29.67822 16.51822 49.67456
#
# Poissons Ratio (x) = 0.49557 0.01744
# Poissons Ratio (y) = 0.89040 0.86603
# Poissons Ratio (z) = 0.01042 0.28798
#
# Static dielectric constant tensor:
#      x y z
#    x 1.563400 0.000000 0.000000 
#    y 0.000000 1.586950 0.000000 
#    z 0.000000 0.000000 1.600020 
# 
# From -- ./inp_files/64329.got.cif
#   From: 2010.05.17/outbox.cif.g08.bks.cpg/sg65_33_cif.got.tgz:64329.got - 2010.06.03 17:01:31.
