data_PCOD9492768
_publ_section_title
;
Structure prediction by ZEFSAII (Michael W. Deem and Ramdas Pophale) SiO2 
 PCOD9492768
Probable space group: C M M M
;
_chemical_formula_sum "Si O2"
_cell_formula_units_Z 88
_cell_length_a 12.362718
_cell_length_b 14.595402
_cell_length_c 27.591423
_cell_angle_alpha 90.000000
_cell_angle_beta 90.000000
_cell_angle_gamma 90.000000
_cell_volume 4978.564333
_symmetry_space_group_name_H-M "C M M M"
_symmetry_group_IT_number 65
_symmetry_cell_setting 'orthorhombic'
loop_
_space_group_symop_operation_xyz
x,y,z
-x,-y,z
x,-y,-z
-x,y,-z
-x,-y,-z
x,y,-z
-x,y,z
x,-y,z
1/2+x,1/2+y,z
1/2-x,1/2-y,z
1/2+x,1/2-y,-z
1/2-x,1/2+y,-z
1/2-x,1/2-y,-z
1/2+x,1/2+y,-z
1/2-x,1/2+y,z
1/2+x,1/2-y,z
loop_
_atom_site_type_symbol
_atom_site_label
_atom_site_fract_x
_atom_site_fract_y
_atom_site_fract_z
Si Si1 0.701811 0.655441 0.627792
Si Si2 0.868460 0.000000 0.813352
Si Si3 0.369596 0.000000 0.058428
Si Si4 0.717892 0.354316 0.887707
Si Si5 0.000000 0.110523 0.056206
Si Si6 0.370751 0.500000 0.699834
Si Si7 0.879609 0.390978 0.448173
Si Si8 0.000000 0.113014 0.441344
O O1 0.750000 0.750000 0.647638
O O2 0.671967 0.587745 0.670830
O O3 0.801958 0.624021 0.595623
O O4 0.603068 0.652259 0.588596
O O5 0.816600 0.087393 0.840434
O O6 0.843471 0.000000 0.756448
O O7 0.000000 0.000000 0.819524
O O8 0.309792 0.087621 0.083246
O O9 0.500000 0.000000 0.066341
O O10 0.350789 0.000000 0.000000
O O11 0.750000 0.250000 0.877490
O O12 0.609159 0.353745 0.919803
O O13 0.000000 0.000000 0.061511
O O14 0.000000 0.133315 0.000000
O O15 0.500000 0.500000 0.695833
O O16 0.836752 0.355944 0.500000
O O17 0.888761 0.500000 0.452215
O O18 0.000000 0.353185 0.441257
O O19 0.000000 0.131387 0.500000
O O20 0.000000 0.000000 0.436606
#
# Coordination Sequence:
#
# PCOD9492768 Si02
#       8
#    16   8   8  16   8   8  16   8
#     4  12  23  37  60  86 119 153 193 244 299 357
#     4  10  21  43  70  88 110 150 209 269 315 362
#     4  10  22  37  53  86 134 178 207 238 298 363
#     4  11  22  38  62  91 124 163 209 260 308 357
#     4  11  20  36  60  91 128 169 217 254 289 349
#     4  11  23  45  68  87 115 150 201 260 316 365
#     4   9  18  33  53  78 110 152 189 220 271 345
#     4  11  22  40  62  87 120 161 201 240 289 353
#
# _framework density 17.675778000000001
#
# number of rings (size 3 to 8) (size 9 to 14) (size 15 to 20)
#    0.000    1.364    5.455    1.636    2.545    5.091 
#    0.000    0.000    0.000    4.364    0.000    0.000 
#    0.000    0.000    0.000    0.000    0.000    0.000 
#
# Total GULP energy -245368.956359 kJ/mol
# GULP energy per Si atom -5576.567190 kJ/mol
# Density = 1.763555 g / cm^3
# Si number density = 17.675778 Si / 1000 Ang^3
#
#
#
# Elastic Constant Matrix: (Units=GPa)
#
#
# Indices 1 2 3 4 5 6 
#
# 1 101.8352 60.1099 74.5525 0.0000 0.0000 0.0000
# 2 60.1099 138.2773 75.2712 0.0000 0.0000 0.0000
# 3 74.5525 75.2712 171.1003 0.0000 0.0000 0.0000
# 4 0.0000 0.0000 0.0000 1.4863 0.0000 0.0000
# 5 0.0000 0.0000 0.0000 0.0000 25.0861 0.0000
# 6 0.0000 0.0000 0.0000 0.0000 0.0000 28.3758
#
#
#
# Elastic Compliance Matrix: (Units=1/GPa)
#
#
# Indices 1 2 3 4 5 6 
#
# 1 0.016062 -0.004172 -0.005164 0.000000 0.000000 0.000000
# 2 -0.004172 0.010592 -0.002842 0.000000 0.000000 0.000000
# 3 -0.005164 -0.002842 0.009345 0.000000 0.000000 0.000000
# 4 0.000000 0.000000 0.000000 0.672813 0.000000 0.000000
# 5 0.000000 0.000000 0.000000 0.000000 0.039863 0.000000
# 6 0.000000 0.000000 0.000000 0.000000 0.000000 0.035241
#
#
# Mechanical properties :
#
#
# Convention : Reuss Voigt Hill
#
# Bulk Modulus (GPa) = 85.87522 92.34222 89.10872
# Shear Modulus (GPa) = 6.15648 24.40824 15.28236
#
# Velocity S-wave (km/s) = 1.86830 3.72006 2.94359
# Velocity P-wave (km/s) = 7.30364 8.41472 7.87879
#
# Compressibility (1/GPa) = 0.01164480
#
# Stress axis : x y z
#
# Youngs Moduli (GPa) = 62.25744 94.40725 107.01192
#
# Poissons Ratio (x) = 0.39383 0.55256
# Poissons Ratio (y) = 0.25971 0.30415
# Poissons Ratio (z) = 0.32147 0.26832
#
# Static dielectric constant tensor:
#      x y z
#    x 1.606970 0.000000 0.000000 
#    y 0.000000 1.568200 0.000000 
#    z 0.000000 0.000000 1.605350 
# 
# From -- ./inp_files/74331.got.cif
#   From: 2010.05.17/outbox.cif.g08.bks.cpg/sg65_38_cif.got.tgz:74331.got - 2010.06.03 17:01:31.
