data_PCOD9492030
_publ_section_title
;
Structure prediction by ZEFSAII (Michael W. Deem and Ramdas Pophale) SiO2 
 PCOD9492030
Probable space group: C M M M
;
_chemical_formula_sum "Si O2"
_cell_formula_units_Z 72
_cell_length_a 8.980669
_cell_length_b 26.111129
_cell_length_c 14.496925
_cell_angle_alpha 90.000000
_cell_angle_beta 90.000000
_cell_angle_gamma 90.000000
_cell_volume 3399.462325
_symmetry_space_group_name_H-M "C M M M"
_symmetry_group_IT_number 65
_symmetry_cell_setting 'orthorhombic'
loop_
_space_group_symop_operation_xyz
x,y,z
-x,-y,z
x,-y,-z
-x,y,-z
-x,-y,-z
x,y,-z
-x,y,z
x,-y,z
1/2+x,1/2+y,z
1/2-x,1/2-y,z
1/2+x,1/2-y,-z
1/2-x,1/2+y,-z
1/2-x,1/2-y,-z
1/2+x,1/2+y,-z
1/2-x,1/2+y,z
1/2+x,1/2-y,z
loop_
_atom_site_type_symbol
_atom_site_label
_atom_site_fract_x
_atom_site_fract_y
_atom_site_fract_z
Si Si1 0.677124 0.906809 0.896460
Si Si2 0.333297 0.000000 0.608573
Si Si3 0.832767 0.798599 0.108939
Si Si4 0.177736 0.090524 0.291434
Si Si5 0.678922 0.694687 0.392304
O O1 0.500000 0.912518 0.887747
O O2 0.726739 0.847487 0.889457
O O3 0.761783 0.927938 0.808044
O O4 0.720004 0.924693 0.000000
O O5 0.245239 0.050249 0.638246
O O6 0.500000 0.000000 0.650020
O O7 0.346022 0.000000 0.500000
O O8 0.750000 0.750000 0.151353
O O9 0.000000 0.808270 0.146519
O O10 0.852702 0.787842 0.000000
O O11 0.223692 0.147991 0.324469
O O12 0.000000 0.089142 0.291308
O O13 0.716441 0.682027 0.500000
O O14 0.500000 0.699325 0.387221
O O15 0.750000 0.750000 0.371807
#
# Coordination Sequence:
#
# PCOD9492030 Si02
#       5
#    16   8  16  16  16
#     4  10  21  37  56  80 115 158 203 254 308 363
#     4  11  25  45  70  99 128 159 199 250 308 369
#     4   9  16  27  45  70 102 144 196 250 302 356
#     4  11  23  40  64  93 126 164 207 256 309 369
#     4   9  19  36  59  89 124 161 200 245 303 369
#
# _framework density 21.179821
#
# number of rings (size 3 to 8) (size 9 to 14) (size 15 to 20)
#    0.000    2.111    0.000    3.000    0.000    8.444 
#    0.000    5.000    0.000    3.333    0.000    0.000 
#    0.000    0.000    0.000    0.000    0.000    0.000 
#
# Total GULP energy -200923.044915 kJ/mol
# GULP energy per Si atom -5581.195692 kJ/mol
# Density = 2.113161 g / cm^3
# Si number density = 21.179821 Si / 1000 Ang^3
#
#
#
# Elastic Constant Matrix: (Units=GPa)
#
#
# Indices 1 2 3 4 5 6 
#
# 1 75.1820 28.1823 43.3680 0.0000 0.0000 0.0000
# 2 28.1823 70.1459 32.7888 0.0000 0.0000 0.0000
# 3 43.3680 32.7888 137.3841 0.0000 0.0000 0.0000
# 4 0.0000 0.0000 0.0000 26.5972 0.0000 0.0000
# 5 0.0000 0.0000 0.0000 0.0000 19.1758 0.0000
# 6 0.0000 0.0000 0.0000 0.0000 0.0000 20.4582
#
#
#
# Elastic Compliance Matrix: (Units=1/GPa)
#
#
# Indices 1 2 3 4 5 6 
#
# 1 0.017734 -0.005074 -0.004387 0.000000 0.000000 0.000000
# 2 -0.005074 0.017498 -0.002574 0.000000 0.000000 0.000000
# 3 -0.004387 -0.002574 0.009278 0.000000 0.000000 0.000000
# 4 0.000000 0.000000 0.000000 0.037598 0.000000 0.000000
# 5 0.000000 0.000000 0.000000 0.000000 0.052149 0.000000
# 6 0.000000 0.000000 0.000000 0.000000 0.000000 0.048880
#
#
# Mechanical properties :
#
#
# Convention : Reuss Voigt Hill
#
# Bulk Modulus (GPa) = 48.92669 54.59891 51.76280
# Shear Modulus (GPa) = 23.36220 25.13777 24.24999
#
# Velocity S-wave (km/s) = 3.32481 3.44884 3.38739
# Velocity P-wave (km/s) = 6.15548 6.45709 6.30809
#
# Compressibility (1/GPa) = 0.02043874
#
# Stress axis : x y z
#
# Youngs Moduli (GPa) = 56.38977 57.14934 107.78047
#
# Poissons Ratio (x) = 0.28999 0.47283
# Poissons Ratio (y) = 0.28613 0.27747
# Poissons Ratio (z) = 0.24738 0.14713
#
# Static dielectric constant tensor:
#      x y z
#    x 1.742080 0.000000 0.000000 
#    y 0.000000 -0.815640 0.000000 
#    z 0.000000 0.000000 1.850260 
# 
# From -- ./inp_files/36586.got.cif
#   From: 2010.05.17/outbox.cif.g08.bks.cpg/sg65_19_cif.got.tgz:36586.got - 2010.06.03 17:01:31.
