data_PCOD9492246
_publ_section_title
;
Structure prediction by ZEFSAII (Michael W. Deem and Ramdas Pophale) SiO2 
 PCOD9492246
Probable space group: C M M M
;
_chemical_formula_sum "Si O2"
_cell_formula_units_Z 72
_cell_length_a 28.771371
_cell_length_b 10.046706
_cell_length_c 13.880842
_cell_angle_alpha 90.000000
_cell_angle_beta 90.000000
_cell_angle_gamma 90.000000
_cell_volume 4012.361565
_symmetry_space_group_name_H-M "C M M M"
_symmetry_group_IT_number 65
_symmetry_cell_setting 'orthorhombic'
loop_
_space_group_symop_operation_xyz
x,y,z
-x,-y,z
x,-y,-z
-x,y,-z
-x,-y,-z
x,y,-z
-x,y,z
x,-y,z
1/2+x,1/2+y,z
1/2-x,1/2-y,z
1/2+x,1/2-y,-z
1/2-x,1/2+y,-z
1/2-x,1/2-y,-z
1/2+x,1/2+y,-z
1/2-x,1/2+y,z
1/2+x,1/2-y,z
loop_
_atom_site_type_symbol
_atom_site_label
_atom_site_fract_x
_atom_site_fract_y
_atom_site_fract_z
Si Si1 0.290152 0.152813 0.385620
Si Si2 0.944251 0.000000 0.382941
Si Si3 0.000000 0.648542 0.115367
Si Si4 0.444492 0.000000 0.613600
Si Si5 0.602572 0.837325 0.888633
Si Si6 0.886780 0.746280 0.310889
O O1 0.282434 0.141545 0.500000
O O2 0.250000 0.250000 0.345950
O O3 0.339886 0.221666 0.370155
O O4 0.290417 0.000000 0.347129
O O5 0.916034 0.875008 0.340352
O O6 0.941288 0.000000 0.500000
O O7 0.000000 0.000000 0.359539
O O8 0.049634 0.710381 0.134507
O O9 0.000000 0.500000 0.158333
O O10 0.000000 0.633155 0.000000
O O11 0.421410 0.125941 0.663487
O O12 0.500000 0.000000 0.620428
O O13 0.432437 0.000000 0.500000
O O14 0.629053 0.770055 0.800726
O O15 0.603730 0.000000 0.882606
O O16 0.613805 0.804611 0.000000
#
# Coordination Sequence:
#
# PCOD9492246 Si02
#       6
#    16   8   8   8  16  16
#     4  10  21  37  59  87 114 143 187 244 301 353
#     4  11  26  42  54  78 122 167 200 232 286 356
#     4   7  12  22  40  69 104 135 171 223 275 319
#     4  11  22  34  54  84 114 145 190 242 282 336
#     4   9  17  30  52  83 113 142 186 243 293 339
#     4  12  22  37  60  83 113 156 198 238 287 349
#
# _framework density 17.944545000000002
#
# number of rings (size 3 to 8) (size 9 to 14) (size 15 to 20)
#    0.000    1.889    2.222    4.000    4.667    1.778 
#    0.000    0.556    0.000    1.333    0.000    0.000 
#    0.000    0.000    0.000    0.000    0.000    0.000 
#
# Total GULP energy -200483.208429 kJ/mol
# GULP energy per Si atom -5568.978012 kJ/mol
# Density = 1.790370 g / cm^3
# Si number density = 17.944545 Si / 1000 Ang^3
#
#
#
# Elastic Constant Matrix: (Units=GPa)
#
#
# Indices 1 2 3 4 5 6 
#
# 1 83.5958 56.5000 3.9072 0.0000 0.0000 0.0000
# 2 56.5000 133.4042 30.3575 0.0000 0.0000 0.0000
# 3 3.9072 30.3575 96.3752 0.0000 0.0000 0.0000
# 4 0.0000 0.0000 0.0000 18.4721 0.0000 0.0000
# 5 0.0000 0.0000 0.0000 0.0000 5.7647 0.0000
# 6 0.0000 0.0000 0.0000 0.0000 0.0000 72.7124
#
#
#
# Elastic Compliance Matrix: (Units=1/GPa)
#
#
# Indices 1 2 3 4 5 6 
#
# 1 0.017015 -0.007594 0.001702 0.000000 0.000000 0.000000
# 2 -0.007594 0.011464 -0.003303 0.000000 0.000000 0.000000
# 3 0.001702 -0.003303 0.011348 0.000000 0.000000 0.000000
# 4 0.000000 0.000000 0.000000 0.054136 0.000000 0.000000
# 5 0.000000 0.000000 0.000000 0.000000 0.173470 0.000000
# 6 0.000000 0.000000 0.000000 0.000000 0.000000 0.013753
#
#
# Mechanical properties :
#
#
# Convention : Reuss Voigt Hill
#
# Bulk Modulus (GPa) = 46.64812 54.98944 50.81878
# Shear Modulus (GPa) = 16.30150 34.23055 25.26602
#
# Velocity S-wave (km/s) = 3.01730 4.37232 3.75641
# Velocity P-wave (km/s) = 6.17988 7.49668 6.86990
#
# Compressibility (1/GPa) = 0.02143709
#
# Stress axis : x y z
#
# Youngs Moduli (GPa) = 58.77131 87.23121 88.12457
#
# Poissons Ratio (x) = 0.66240 -0.15000
# Poissons Ratio (y) = 0.44629 0.29109
# Poissons Ratio (z) = -0.10004 0.28814
#
# Static dielectric constant tensor:
#      x y z
#    x 1.642580 0.000000 0.000000 
#    y 0.000000 1.989780 0.000000 
#    z 0.000000 0.000000 1.681950 
# 
# From -- ./inp_files/47502.got.cif
#   From: 2010.05.17/outbox.cif.g08.bks.cpg/sg65_24_cif.got.tgz:47502.got - 2010.06.03 17:01:31.
