data_PCOD9492822
_publ_section_title
;
Structure prediction by ZEFSAII (Michael W. Deem and Ramdas Pophale) SiO2 
 PCOD9492822
Probable space group: C M M M
;
_chemical_formula_sum "Si O2"
_cell_formula_units_Z 96
_cell_length_a 26.163257
_cell_length_b 10.623534
_cell_length_c 18.500085
_cell_angle_alpha 90.000000
_cell_angle_beta 90.000000
_cell_angle_gamma 90.000000
_cell_volume 5142.029256
_symmetry_space_group_name_H-M "C M M M"
_symmetry_group_IT_number 65
_symmetry_cell_setting 'orthorhombic'
loop_
_space_group_symop_operation_xyz
x,y,z
-x,-y,z
x,-y,-z
-x,y,-z
-x,-y,-z
x,y,-z
-x,y,z
x,-y,z
1/2+x,1/2+y,z
1/2-x,1/2-y,z
1/2+x,1/2-y,-z
1/2-x,1/2+y,-z
1/2-x,1/2-y,-z
1/2+x,1/2+y,-z
1/2-x,1/2+y,z
1/2+x,1/2-y,z
loop_
_atom_site_type_symbol
_atom_site_label
_atom_site_fract_x
_atom_site_fract_y
_atom_site_fract_z
Si Si1 0.612558 0.143794 0.914045
Si Si2 0.710902 0.636978 0.416787
Si Si3 0.793913 0.355285 0.808485
Si Si4 0.132380 0.770168 0.695582
Si Si5 0.440253 0.642585 0.177952
Si Si6 0.441735 0.849019 0.580595
O O1 0.668551 0.155097 0.877675
O O2 0.577195 0.249522 0.877778
O O3 0.594897 0.000000 0.897856
O O4 0.614781 0.158689 0.000000
O O5 0.692008 0.648338 0.500000
O O6 0.736517 0.500000 0.410883
O O7 0.750000 0.750000 0.404638
O O8 0.667250 0.646624 0.356996
O O9 0.775103 0.500000 0.803339
O O10 0.750000 0.250000 0.811403
O O11 0.830277 0.321046 0.740880
O O12 0.097060 0.841828 0.753341
O O13 0.095235 0.695603 0.642606
O O14 0.500000 0.659572 0.197196
O O15 0.434310 0.500000 0.149120
O O16 0.425777 0.807104 0.500000
O O17 0.500000 0.805630 0.592702
O O18 0.442430 0.000000 0.579976
#
# Coordination Sequence:
#
# PCOD9492822 Si02
#       6
#    16  16  16  16  16  16
#     4   9  20  40  63  86 112 143 181 222 265 319
#     4  10  22  38  55  77 105 139 182 231 280 329
#     4  10  22  37  55  81 112 144 180 222 268 320
#     4  11  20  34  56  77 106 146 188 225 271 326
#     4  10  22  38  56  83 117 149 182 222 269 321
#     4   9  18  32  51  78 110 143 184 235 286 332
#
# _framework density 18.669671999999998
#
# number of rings (size 3 to 8) (size 9 to 14) (size 15 to 20)
#    0.000    2.167    0.000    3.000    0.000    8.000 
#    0.000    3.333    0.000    0.000    0.000    7.000 
#    0.000    0.000    0.000    0.000    0.000    0.000 
#
# Total GULP energy -267776.373607 kJ/mol
# GULP energy per Si atom -5578.674450 kJ/mol
# Density = 1.862718 g / cm^3
# Si number density = 18.669672 Si / 1000 Ang^3
#
#
#
# Elastic Constant Matrix: (Units=GPa)
#
#
# Indices 1 2 3 4 5 6 
#
# 1 82.3615 75.6501 48.0081 0.0000 0.0000 0.0000
# 2 75.6501 149.1042 61.1513 0.0000 0.0000 0.0000
# 3 48.0081 61.1513 109.8118 0.0000 0.0000 0.0000
# 4 0.0000 0.0000 0.0000 39.2518 0.0000 0.0000
# 5 0.0000 0.0000 0.0000 0.0000 46.8611 0.0000
# 6 0.0000 0.0000 0.0000 0.0000 0.0000 50.7450
#
#
#
# Elastic Compliance Matrix: (Units=1/GPa)
#
#
# Indices 1 2 3 4 5 6 
#
# 1 0.024645 -0.010478 -0.004939 0.000000 0.000000 0.000000
# 2 -0.010478 0.013147 -0.002740 0.000000 0.000000 0.000000
# 3 -0.004939 -0.002740 0.012792 0.000000 0.000000 0.000000
# 4 0.000000 0.000000 0.000000 0.025477 0.000000 0.000000
# 5 0.000000 0.000000 0.000000 0.000000 0.021340 0.000000
# 6 0.000000 0.000000 0.000000 0.000000 0.000000 0.019706
#
#
# Mechanical properties :
#
#
# Convention : Reuss Voigt Hill
#
# Bulk Modulus (GPa) = 70.08640 78.98851 74.53745
# Shear Modulus (GPa) = 31.60989 37.80277 34.70633
#
# Velocity S-wave (km/s) = 4.11921 4.50468 4.31625
# Velocity P-wave (km/s) = 7.76180 8.33406 8.05302
#
# Compressibility (1/GPa) = 0.01426810
#
# Stress axis : x y z
#
# Youngs Moduli (GPa) = 40.57585 76.06389 78.17466
#
# Poissons Ratio (x) = 0.79702 0.38614
# Poissons Ratio (y) = 0.42517 0.21421
# Poissons Ratio (z) = 0.20042 0.20843
#
# Static dielectric constant tensor:
#      x y z
#    x 1.632590 0.000000 0.000000 
#    y 0.000000 1.649700 0.000000 
#    z 0.000000 0.000000 1.639420 
# 
# From -- ./inp_files/56687.got.cif
#   From: 2010.05.17/outbox.cif.g08.bks.cpg/sg65_29_cif.got.tgz:56687.got - 2010.06.03 17:01:31.
