data_PCOD9492097
_publ_section_title
;
Structure prediction by ZEFSAII (Michael W. Deem and Ramdas Pophale) SiO2 
 PCOD9492097
Probable space group: C M M M
;
_chemical_formula_sum "Si O2"
_cell_formula_units_Z 52
_cell_length_a 14.087320
_cell_length_b 23.718503
_cell_length_c 7.774286
_cell_angle_alpha 90.000000
_cell_angle_beta 90.000000
_cell_angle_gamma 90.000000
_cell_volume 2597.623283
_symmetry_space_group_name_H-M "C M M M"
_symmetry_group_IT_number 65
_symmetry_cell_setting 'orthorhombic'
loop_
_space_group_symop_operation_xyz
x,y,z
-x,-y,z
x,-y,-z
-x,y,-z
-x,-y,-z
x,y,-z
-x,y,z
x,-y,z
1/2+x,1/2+y,z
1/2-x,1/2-y,z
1/2+x,1/2-y,-z
1/2-x,1/2+y,-z
1/2-x,1/2-y,-z
1/2+x,1/2+y,-z
1/2-x,1/2+y,z
1/2+x,1/2-y,z
loop_
_atom_site_type_symbol
_atom_site_label
_atom_site_fract_x
_atom_site_fract_y
_atom_site_fract_z
Si Si1 0.848670 0.932987 0.194074
Si Si2 0.000000 0.909342 0.500000
Si Si3 0.106334 0.236557 0.201885
Si Si4 0.279970 0.159559 0.696804
O O1 0.751643 0.897839 0.213692
O O2 0.917965 0.913808 0.347116
O O3 0.836076 0.000000 0.212040
O O4 0.885725 0.922296 0.000000
O O5 0.184846 0.198464 0.292765
O O6 0.139240 0.301209 0.221445
O O7 0.000000 0.227258 0.268530
O O8 0.109098 0.222283 0.000000
O O9 0.304676 0.149300 0.500000
#
# Coordination Sequence:
#
# PCOD9492097 Si02
#       4
#    16   4  16  16
#     4  11  23  38  57  82 116 153 189 235 284 335
#     4  12  23  38  56  84 116 152 198 232 277 342
#     4  10  21  37  57  81 111 148 190 236 285 338
#     4  11  22  36  56  83 114 149 191 234 280 338
#
# _framework density 20.018298000000001
#
# number of rings (size 3 to 8) (size 9 to 14) (size 15 to 20)
#    0.000    1.231    1.538    7.385    2.154    3.692 
#    0.000    0.000    0.000    0.923    0.000    6.462 
#    0.000    0.000    0.000    0.000    0.000    0.000 
#
# Total GULP energy -144734.946181 kJ/mol
# GULP energy per Si atom -5566.728699 kJ/mol
# Density = 1.997274 g / cm^3
# Si number density = 20.018298 Si / 1000 Ang^3
#
#
#
# Elastic Constant Matrix: (Units=GPa)
#
#
# Indices 1 2 3 4 5 6 
#
# 1 42.7884 5.5506 -9.5799 0.0000 0.0000 0.0000
# 2 5.5506 65.0905 10.1796 0.0000 0.0000 0.0000
# 3 -9.5799 10.1796 115.0166 0.0000 0.0000 0.0000
# 4 0.0000 0.0000 0.0000 22.2315 0.0000 0.0000
# 5 0.0000 0.0000 0.0000 0.0000 25.6334 0.0000
# 6 0.0000 0.0000 0.0000 0.0000 0.0000 -8.1088
#
#
#
# Elastic Compliance Matrix: (Units=1/GPa)
#
#
# Indices 1 2 3 4 5 6 
#
# 1 0.024182 -0.002411 0.002228 0.000000 0.000000 0.000000
# 2 -0.002411 0.015819 -0.001601 0.000000 0.000000 0.000000
# 3 0.002228 -0.001601 0.009022 0.000000 0.000000 0.000000
# 4 0.000000 0.000000 0.000000 0.044981 0.000000 0.000000
# 5 0.000000 0.000000 0.000000 0.000000 0.039012 0.000000
# 6 0.000000 0.000000 0.000000 0.000000 0.000000 -0.123323
#
#
# Mechanical properties :
#
#
# Convention : Reuss Voigt Hill
#
# Bulk Modulus (GPa) = 21.99964 26.13292 24.06628
# Shear Modulus (GPa) = 175.98277 22.40091 99.19184
#
# Velocity S-wave (km/s) = 9.38626 3.34881 7.04685
# Velocity P-wave (km/s) = 11.33502 5.29486 8.84642
#
# Compressibility (1/GPa) = 0.04545529
#
# Stress axis : x y z
#
# Youngs Moduli (GPa) = 41.35266 63.21456 110.84492
#
# Poissons Ratio (x) = 0.15238 -0.24691
# Poissons Ratio (y) = 0.09968 0.17745
# Poissons Ratio (z) = -0.09211 0.10120
#
# Static dielectric constant tensor:
#      x y z
#    x 1.710130 0.000000 0.000000 
#    y 0.000000 1.760000 0.000000 
#    z 0.000000 0.000000 1.709500 
# 
# From -- ./inp_files/6474.got.cif
#   From: 2010.05.17/outbox.cif.g08.bks.cpg/sg65_4_cif.got.tgz:6474.got - 2010.06.03 17:01:31.
