data_PCOD9492924
_publ_section_title
;
Structure prediction by ZEFSAII (Michael W. Deem and Ramdas Pophale) SiO2 
 PCOD9492924
Probable space group: C M M M
;
_chemical_formula_sum "Si O2"
_cell_formula_units_Z 96
_cell_length_a 19.779054
_cell_length_b 19.849583
_cell_length_c 14.006925
_cell_angle_alpha 90.000000
_cell_angle_beta 90.000000
_cell_angle_gamma 90.000000
_cell_volume 5499.202433
_symmetry_space_group_name_H-M "C M M M"
_symmetry_group_IT_number 65
_symmetry_cell_setting 'orthorhombic'
loop_
_space_group_symop_operation_xyz
x,y,z
-x,-y,z
x,-y,-z
-x,y,-z
-x,-y,-z
x,y,-z
-x,y,z
x,-y,z
1/2+x,1/2+y,z
1/2-x,1/2-y,z
1/2+x,1/2-y,-z
1/2-x,1/2+y,-z
1/2-x,1/2-y,-z
1/2+x,1/2+y,-z
1/2-x,1/2+y,z
1/2+x,1/2-y,z
loop_
_atom_site_type_symbol
_atom_site_label
_atom_site_fract_x
_atom_site_fract_y
_atom_site_fract_z
Si Si1 0.579314 0.386829 0.391897
Si Si2 0.615858 0.426713 0.189645
Si Si3 0.926407 0.212587 0.886811
Si Si4 0.182784 0.295086 0.230374
Si Si5 0.731936 0.076938 0.886966
Si Si6 0.577423 0.223873 0.388962
O O1 0.600330 0.404858 0.500000
O O2 0.500000 0.405612 0.381424
O O3 0.619893 0.418078 0.304292
O O4 0.582624 0.305574 0.382809
O O5 0.586280 0.500000 0.168517
O O6 0.575269 0.363460 0.151041
O O7 0.688982 0.423028 0.140661
O O8 0.865445 0.251762 0.838693
O O9 0.000000 0.242325 0.862340
O O10 0.918757 0.212606 0.000000
O O11 0.250000 0.250000 0.248947
O O12 0.199844 0.364848 0.177734
O O13 0.136841 0.305258 0.324065
O O14 0.707122 0.000000 0.870057
O O15 0.724216 0.091614 0.000000
O O16 0.585566 0.205973 0.500000
O O17 0.500000 0.206324 0.360764
#
# Coordination Sequence:
#
# PCOD9492924 Si02
#       6
#    16  16  16  16  16  16
#     4   9  17  31  50  73 105 144 184 224 268 322
#     4  11  21  34  52  75 109 152 190 228 276 332
#     4  11  23  36  52  79 112 144 186 239 287 335
#     4  12  21  34  60  87 110 145 188 238 279 329
#     4  10  22  39  57  79 111 150 189 229 277 333
#     4   9  18  34  57  84 114 145 179 226 284 339
#
# _framework density 17.457076000000001
#
# number of rings (size 3 to 8) (size 9 to 14) (size 15 to 20)
#    0.000    1.667    3.333    3.000    0.000    3.667 
#    0.000    2.500    0.000    3.500    0.000    7.000 
#    0.000    0.000    0.000    0.000    0.000    0.000 
#
# Total GULP energy -267816.657839 kJ/mol
# GULP energy per Si atom -5579.513705 kJ/mol
# Density = 1.741734 g / cm^3
# Si number density = 17.457076 Si / 1000 Ang^3
#
#
#
# Elastic Constant Matrix: (Units=GPa)
#
#
# Indices 1 2 3 4 5 6 
#
# 1 95.9564 39.8273 54.9860 0.0000 0.0000 0.0000
# 2 39.8273 73.6072 34.0753 0.0000 0.0000 0.0000
# 3 54.9860 34.0753 108.4388 0.0000 0.0000 0.0000
# 4 0.0000 0.0000 0.0000 13.3442 0.0000 0.0000
# 5 0.0000 0.0000 0.0000 0.0000 35.3320 0.0000
# 6 0.0000 0.0000 0.0000 0.0000 0.0000 -32.1601
#
#
#
# Elastic Compliance Matrix: (Units=1/GPa)
#
#
# Indices 1 2 3 4 5 6 
#
# 1 0.016669 -0.005976 -0.006575 0.000000 0.000000 0.000000
# 2 -0.005976 0.018041 -0.002639 0.000000 0.000000 0.000000
# 3 -0.006575 -0.002639 0.013385 0.000000 0.000000 0.000000
# 4 0.000000 0.000000 0.000000 0.074939 0.000000 0.000000
# 5 0.000000 0.000000 0.000000 0.000000 0.028303 0.000000
# 6 0.000000 0.000000 0.000000 0.000000 0.000000 -0.031094
#
#
# Mechanical properties :
#
#
# Convention : Reuss Voigt Hill
#
# Bulk Modulus (GPa) = 56.44583 59.53104 57.98844
# Shear Modulus (GPa) = 31.94364 13.24414 22.59389
#
# Velocity S-wave (km/s) = 4.28230 2.75738 3.60148
# Velocity P-wave (km/s) = 7.54023 6.65680 7.11224
#
# Compressibility (1/GPa) = 0.01771610
#
# Stress axis : x y z
#
# Youngs Moduli (GPa) = 59.99127 55.43058 74.71152
#
# Poissons Ratio (x) = 0.33124 0.49120
# Poissons Ratio (y) = 0.35849 0.19716
# Poissons Ratio (z) = 0.39442 0.14628
#
# Static dielectric constant tensor:
#      x y z
#    x 1.590670 0.000000 0.000000 
#    y 0.000000 1.596140 0.000000 
#    z 0.000000 0.000000 1.616500 
# 
# From -- ./inp_files/40353.got.cif
#   From: 2010.05.17/outbox.cif.g08.bks.cpg/sg65_21_cif.got.tgz:40353.got - 2010.06.03 17:01:31.
