data_PCOD9492547
_publ_section_title
;
Structure prediction by ZEFSAII (Michael W. Deem and Ramdas Pophale) SiO2 
 PCOD9492547
Probable space group: C M M M
;
_chemical_formula_sum "Si O2"
_cell_formula_units_Z 72
_cell_length_a 8.462918
_cell_length_b 29.496538
_cell_length_c 14.049478
_cell_angle_alpha 90.000000
_cell_angle_beta 90.000000
_cell_angle_gamma 90.000000
_cell_volume 3507.125987
_symmetry_space_group_name_H-M "C M M M"
_symmetry_group_IT_number 65
_symmetry_cell_setting 'orthorhombic'
loop_
_space_group_symop_operation_xyz
x,y,z
-x,-y,z
x,-y,-z
-x,y,-z
-x,-y,-z
x,y,-z
-x,y,z
x,-y,z
1/2+x,1/2+y,z
1/2-x,1/2-y,z
1/2+x,1/2-y,-z
1/2-x,1/2+y,-z
1/2-x,1/2-y,-z
1/2+x,1/2+y,-z
1/2-x,1/2+y,z
1/2+x,1/2-y,z
loop_
_atom_site_type_symbol
_atom_site_label
_atom_site_fract_x
_atom_site_fract_y
_atom_site_fract_z
Si Si1 0.321670 0.883095 0.667926
Si Si2 0.179880 0.949878 0.200857
Si Si3 0.312016 0.446598 0.500000
Si Si4 0.311608 0.299908 0.787126
Si Si5 0.813371 0.434596 0.000000
Si Si6 0.308118 0.333881 0.000000
O O1 0.500000 0.874576 0.636936
O O2 0.308428 0.916481 0.757476
O O3 0.237981 0.914689 0.588830
O O4 0.249205 0.836828 0.710330
O O5 0.221728 0.952477 0.091274
O O6 0.000000 0.932476 0.214487
O O7 0.187667 0.000000 0.244602
O O8 0.251857 0.500000 0.500000
O O9 0.500000 0.450297 0.500000
O O10 0.500000 0.300896 0.783818
O O11 0.250000 0.250000 0.763670
O O12 0.267759 0.310528 0.898349
O O13 0.784896 0.380820 0.000000
O O14 0.000000 0.445333 0.000000
O O15 0.500000 0.341151 0.000000
#
# Coordination Sequence:
#
# PCOD9492547 Si02
#       6
#    16  16   8  16   8   8
#     4  12  25  42  66  97 130 164 210 268 324 381
#     4  11  23  39  59  84 121 169 214 258 316 385
#     4  11  25  47  74 101 130 169 213 259 323 395
#     4  11  23  41  66  96 132 175 221 268 322 383
#     4  12  23  34  55  86 123 164 212 264 316 377
#     4  10  21  38  62  89 128 177 220 264 318 379
#
# _framework density 20.529630000000001
#
# number of rings (size 3 to 8) (size 9 to 14) (size 15 to 20)
#    0.000    0.778    2.222    6.000    0.000    7.556 
#    0.000    0.556    0.000    0.000    0.000    0.000 
#    0.000    0.000    0.000    0.000    0.000    0.000 
#
# Total GULP energy -200891.843346 kJ/mol
# GULP energy per Si atom -5580.328982 kJ/mol
# Density = 2.048290 g / cm^3
# Si number density = 20.529630 Si / 1000 Ang^3
#
#
#
# Elastic Constant Matrix: (Units=GPa)
#
#
# Indices 1 2 3 4 5 6 
#
# 1 80.5622 47.3544 14.3612 0.0000 0.0000 0.0000
# 2 47.3544 174.1194 61.0361 0.0000 0.0000 0.0000
# 3 14.3612 61.0361 101.3413 0.0000 0.0000 0.0000
# 4 0.0000 0.0000 0.0000 17.5663 0.0000 0.0000
# 5 0.0000 0.0000 0.0000 0.0000 5.5139 0.0000
# 6 0.0000 0.0000 0.0000 0.0000 0.0000 23.1207
#
#
#
# Elastic Compliance Matrix: (Units=1/GPa)
#
#
# Indices 1 2 3 4 5 6 
#
# 1 0.014788 -0.004167 0.000414 0.000000 0.000000 0.000000
# 2 -0.004167 0.008454 -0.004501 0.000000 0.000000 0.000000
# 3 0.000414 -0.004501 0.012520 0.000000 0.000000 0.000000
# 4 0.000000 0.000000 0.000000 0.056927 0.000000 0.000000
# 5 0.000000 0.000000 0.000000 0.000000 0.181359 0.000000
# 6 0.000000 0.000000 0.000000 0.000000 0.000000 0.043251
#
#
# Mechanical properties :
#
#
# Convention : Reuss Voigt Hill
#
# Bulk Modulus (GPa) = 51.93719 66.83626 59.38673
# Shear Modulus (GPa) = 14.69606 24.79161 19.74383
#
# Velocity S-wave (km/s) = 2.67843 3.47883 3.10453
# Velocity P-wave (km/s) = 5.90922 6.98305 6.46846
#
# Compressibility (1/GPa) = 0.01925403
#
# Stress axis : x y z
#
# Youngs Moduli (GPa) = 67.62082 118.28134 79.87160
#
# Poissons Ratio (x) = 0.49289 -0.03307
# Poissons Ratio (y) = 0.28178 0.35954
# Poissons Ratio (z) = -0.02800 0.53244
#
# Static dielectric constant tensor:
#      x y z
#    x 1.708370 0.000000 0.000000 
#    y 0.000000 1.751910 0.000000 
#    z 0.000000 0.000000 1.833250 
# 
# From -- ./inp_files/36670.got.cif
#   From: 2010.05.17/outbox.cif.g08.bks.cpg/sg65_19_cif.got.tgz:36670.got - 2010.06.03 17:01:31.
