data_PCOD9492645
_publ_section_title
;
Structure prediction by ZEFSAII (Michael W. Deem and Ramdas Pophale) SiO2 
 PCOD9492645
Probable space group: C M M M
;
_chemical_formula_sum "Si O2"
_cell_formula_units_Z 72
_cell_length_a 17.723011
_cell_length_b 15.104868
_cell_length_c 13.625261
_cell_angle_alpha 90.000000
_cell_angle_beta 90.000000
_cell_angle_gamma 90.000000
_cell_volume 3647.533352
_symmetry_space_group_name_H-M "C M M M"
_symmetry_group_IT_number 65
_symmetry_cell_setting 'orthorhombic'
loop_
_space_group_symop_operation_xyz
x,y,z
-x,-y,z
x,-y,-z
-x,y,-z
-x,-y,-z
x,y,-z
-x,y,z
x,-y,z
1/2+x,1/2+y,z
1/2-x,1/2-y,z
1/2+x,1/2-y,-z
1/2-x,1/2+y,-z
1/2-x,1/2-y,-z
1/2+x,1/2+y,-z
1/2-x,1/2+y,z
1/2+x,1/2-y,z
loop_
_atom_site_type_symbol
_atom_site_label
_atom_site_fract_x
_atom_site_fract_y
_atom_site_fract_z
Si Si1 0.090387 0.752511 0.112938
Si Si2 0.913148 0.895842 0.278431
Si Si3 0.637390 0.899020 0.248616
Si Si4 0.267747 0.354249 0.609504
Si Si5 0.000000 0.607536 0.611407
O O1 0.104533 0.836141 0.183361
O O2 0.133135 0.668741 0.159173
O O3 0.000000 0.734370 0.116859
O O4 0.110583 0.768615 0.000000
O O5 0.854031 0.871150 0.362428
O O6 0.000000 0.877881 0.306715
O O7 0.906457 0.000000 0.256350
O O8 0.715415 0.896444 0.307309
O O9 0.573704 0.867457 0.326698
O O10 0.619958 0.000000 0.219415
O O11 0.250158 0.387577 0.500000
O O12 0.250000 0.250000 0.611485
O O13 0.000000 0.500000 0.606228
O O14 0.000000 0.641283 0.500000
#
# Coordination Sequence:
#
# PCOD9492645 Si02
#       5
#    16  16  16  16   8
#     4  10  21  39  63  90 122 160 204 256 311 361
#     4  10  22  42  66  91 121 160 210 262 310 364
#     4  11  21  36  58  88 125 161 203 248 298 369
#     4  11  23  40  63  91 125 165 204 249 312 374
#     4   9  18  32  53  83 118 157 197 237 285 351
#
# _framework density 19.739367000000001
#
# number of rings (size 3 to 8) (size 9 to 14) (size 15 to 20)
#    0.000    1.667    3.333    1.333    0.000    4.000 
#    0.000    6.667    0.000    2.667    0.000    0.000 
#    0.000    0.000    0.000    0.000    0.000    0.000 
#
# Total GULP energy -201142.604468 kJ/mol
# GULP energy per Si atom -5587.294569 kJ/mol
# Density = 1.969444 g / cm^3
# Si number density = 19.739367 Si / 1000 Ang^3
#
#
#
# Elastic Constant Matrix: (Units=GPa)
#
#
# Indices 1 2 3 4 5 6 
#
# 1 62.1054 19.2535 12.9338 0.0000 0.0000 0.0000
# 2 19.2535 86.5761 12.6825 0.0000 0.0000 0.0000
# 3 12.9338 12.6825 51.8295 0.0000 0.0000 0.0000
# 4 0.0000 0.0000 0.0000 1.6246 0.0000 0.0000
# 5 0.0000 0.0000 0.0000 0.0000 26.3809 0.0000
# 6 0.0000 0.0000 0.0000 0.0000 0.0000 25.9836
#
#
#
# Elastic Compliance Matrix: (Units=1/GPa)
#
#
# Indices 1 2 3 4 5 6 
#
# 1 0.017929 -0.003456 -0.003628 0.000000 0.000000 0.000000
# 2 -0.003456 0.012646 -0.002232 0.000000 0.000000 0.000000
# 3 -0.003628 -0.002232 0.020746 0.000000 0.000000 0.000000
# 4 0.000000 0.000000 0.000000 0.615553 0.000000 0.000000
# 5 0.000000 0.000000 0.000000 0.000000 0.037906 0.000000
# 6 0.000000 0.000000 0.000000 0.000000 0.000000 0.038486
#
#
# Mechanical properties :
#
#
# Convention : Reuss Voigt Hill
#
# Bulk Modulus (GPa) = 30.59223 32.25006 31.42114
# Shear Modulus (GPa) = 6.47004 21.17390 13.82197
#
# Velocity S-wave (km/s) = 1.81242 3.27872 2.64904
# Velocity P-wave (km/s) = 4.46223 5.54137 5.03082
#
# Compressibility (1/GPa) = 0.03268804
#
# Stress axis : x y z
#
# Youngs Moduli (GPa) = 55.77688 79.07641 48.20284
#
# Poissons Ratio (x) = 0.27325 0.17490
# Poissons Ratio (y) = 0.19274 0.10759
# Poissons Ratio (z) = 0.20238 0.17651
#
# Static dielectric constant tensor:
#      x y z
#    x 1.707650 0.000000 0.000000 
#    y 0.000000 1.699200 0.000000 
#    z 0.000000 0.000000 1.655780 
# 
# From -- ./inp_files/42121.got.cif
#   From: 2010.05.17/outbox.cif.g08.bks.cpg/sg65_22_cif.got.tgz:42121.got - 2010.06.03 17:01:31.
