data_PCOD9492379
_publ_section_title
;
Structure prediction by ZEFSAII (Michael W. Deem and Ramdas Pophale) SiO2 
 PCOD9492379
Probable space group: C M M M
;
_chemical_formula_sum "Si O2"
_cell_formula_units_Z 88
_cell_length_a 13.389660
_cell_length_b 13.785093
_cell_length_c 22.815368
_cell_angle_alpha 90.000000
_cell_angle_beta 90.000000
_cell_angle_gamma 90.000000
_cell_volume 4211.208340
_symmetry_space_group_name_H-M "C M M M"
_symmetry_group_IT_number 65
_symmetry_cell_setting 'orthorhombic'
loop_
_space_group_symop_operation_xyz
x,y,z
-x,-y,z
x,-y,-z
-x,y,-z
-x,-y,-z
x,y,-z
-x,y,z
x,-y,z
1/2+x,1/2+y,z
1/2-x,1/2-y,z
1/2+x,1/2-y,-z
1/2-x,1/2+y,-z
1/2-x,1/2-y,-z
1/2+x,1/2+y,-z
1/2-x,1/2+y,z
1/2+x,1/2-y,z
loop_
_atom_site_type_symbol
_atom_site_label
_atom_site_fract_x
_atom_site_fract_y
_atom_site_fract_z
Si Si1 0.117146 0.807238 0.754866
Si Si2 0.121345 0.801938 0.623121
Si Si3 0.384872 0.385113 0.500000
Si Si4 0.616018 0.882487 0.936034
Si Si5 0.621420 0.108127 0.567349
Si Si6 0.194938 0.386379 0.809523
O O1 0.149148 0.832425 0.688186
O O2 0.138567 0.693360 0.769169
O O3 0.188802 0.869326 0.796156
O O4 0.000000 0.825746 0.761955
O O5 0.156482 0.852924 0.563080
O O6 0.149007 0.689867 0.613180
O O7 0.000000 0.810427 0.622838
O O8 0.386224 0.500000 0.500000
O O9 0.500000 0.347572 0.500000
O O10 0.500000 0.852639 0.930449
O O11 0.672081 0.857026 0.876586
O O12 0.616816 0.000000 0.937625
O O13 0.653363 0.848768 0.000000
O O14 0.648455 0.133576 0.500000
O O15 0.500000 0.105249 0.567457
O O16 0.657388 0.000000 0.580152
O O17 0.167214 0.500000 0.800541
#
# Coordination Sequence:
#
# PCOD9492379 Si02
#       6
#    16  16   8  16  16  16
#     4  10  22  37  55  83 117 154 198 242 288 350
#     4   9  16  28  45  68 101 136 176 233 291 342
#     4   9  16  26  43  68  95 127 177 238 292 341
#     4   8  14  28  56  92 122 151 193 241 285 330
#     4   8  12  19  35  61  92 123 158 210 281 350
#     4  10  21  38  59  83 117 157 194 237 286 339
#
# _framework density 20.896616999999999
#
# number of rings (size 3 to 8) (size 9 to 14) (size 15 to 20)
#    0.000    3.000    0.909    1.636    0.000    2.909 
#    0.000    5.455    0.000    3.818    0.000    3.818 
#    0.000    0.000    0.000    0.000    0.000    0.909 
#
# Total GULP energy -245481.303172 kJ/mol
# GULP energy per Si atom -5579.120527 kJ/mol
# Density = 2.084905 g / cm^3
# Si number density = 20.896617 Si / 1000 Ang^3
#
#
#
# Elastic Constant Matrix: (Units=GPa)
#
#
# Indices 1 2 3 4 5 6 
#
# 1 83.1204 -8.4495 53.1636 0.0000 0.0000 0.0000
# 2 -8.4495 37.2535 28.9351 0.0000 0.0000 0.0000
# 3 53.1636 28.9351 173.7339 0.0000 0.0000 0.0000
# 4 0.0000 0.0000 0.0000 21.4386 0.0000 0.0000
# 5 0.0000 0.0000 0.0000 0.0000 36.4097 0.0000
# 6 0.0000 0.0000 0.0000 0.0000 0.0000 19.4819
#
#
#
# Elastic Compliance Matrix: (Units=1/GPa)
#
#
# Indices 1 2 3 4 5 6 
#
# 1 0.017355 0.009259 -0.006853 0.000000 0.000000 0.000000
# 2 0.009259 0.035771 -0.008791 0.000000 0.000000 0.000000
# 3 -0.006853 -0.008791 0.009317 0.000000 0.000000 0.000000
# 4 0.000000 0.000000 0.000000 0.046645 0.000000 0.000000
# 5 0.000000 0.000000 0.000000 0.000000 0.027465 0.000000
# 6 0.000000 0.000000 0.000000 0.000000 0.000000 0.051330
#
#
# Mechanical properties :
#
#
# Convention : Reuss Voigt Hill
#
# Bulk Modulus (GPa) = 20.13142 49.04512 34.58827
# Shear Modulus (GPa) = 23.01917 30.16328 26.59123
#
# Velocity S-wave (km/s) = 3.32260 3.80340 3.57110
# Velocity P-wave (km/s) = 4.93703 6.54287 5.79583
#
# Compressibility (1/GPa) = 0.04967361
#
# Stress axis : x y z
#
# Youngs Moduli (GPa) = 57.62037 27.95551 107.33029
#
# Poissons Ratio (x) = -0.25884 0.73551
# Poissons Ratio (y) = -0.53350 0.94353
# Poissons Ratio (z) = 0.39486 0.24575
#
# Static dielectric constant tensor:
#      x y z
#    x 1.850270 0.000000 0.000000 
#    y 0.000000 1.748370 0.000000 
#    z 0.000000 0.000000 1.743480 
# 
# From -- ./inp_files/62484.got.cif
#   From: 2010.05.17/outbox.cif.g08.bks.cpg/sg65_32_cif.got.tgz:62484.got - 2010.06.03 17:01:31.
