data_PCOD9492956
_publ_section_title
;
Structure prediction by ZEFSAII (Michael W. Deem and Ramdas Pophale) SiO2 
 PCOD9492956
Probable space group: C M M M
;
_chemical_formula_sum "Si O2"
_cell_formula_units_Z 56
_cell_length_a 11.296210
_cell_length_b 15.027525
_cell_length_c 14.508187
_cell_angle_alpha 90.000000
_cell_angle_beta 90.000000
_cell_angle_gamma 90.000000
_cell_volume 2462.823910
_symmetry_space_group_name_H-M "C M M M"
_symmetry_group_IT_number 65
_symmetry_cell_setting 'orthorhombic'
loop_
_space_group_symop_operation_xyz
x,y,z
-x,-y,z
x,-y,-z
-x,y,-z
-x,-y,-z
x,y,-z
-x,y,z
x,-y,z
1/2+x,1/2+y,z
1/2-x,1/2-y,z
1/2+x,1/2-y,-z
1/2-x,1/2+y,-z
1/2-x,1/2-y,-z
1/2+x,1/2+y,-z
1/2-x,1/2+y,z
1/2+x,1/2-y,z
loop_
_atom_site_type_symbol
_atom_site_label
_atom_site_fract_x
_atom_site_fract_y
_atom_site_fract_z
Si Si1 0.133909 0.000000 0.838435
Si Si2 0.500000 0.603823 0.396426
Si Si3 0.870015 0.500000 0.281430
Si Si4 0.869214 0.203487 0.107724
Si Si5 0.250527 0.855351 0.607045
O O1 0.256378 0.000000 0.783173
O O2 0.138709 0.095973 0.888967
O O3 0.000000 0.000000 0.795835
O O4 0.500000 0.500000 0.411303
O O5 0.500000 0.648333 0.500000
O O6 0.622770 0.624288 0.348583
O O7 0.850875 0.588470 0.343280
O O8 0.000000 0.500000 0.238909
O O9 0.750000 0.250000 0.148465
O O10 0.000000 0.228316 0.147648
O O11 0.872286 0.230123 0.000000
O O12 0.248396 0.885400 0.500000
O O13 0.250000 0.750000 0.607813
#
# Coordination Sequence:
#
# PCOD9492956 Si02
#       5
#     8   8   8  16  16
#     4  10  23  41  61  83 118 167 202 231 279 347
#     4   9  16  32  58  83 105 135 179 236 285 344
#     4  12  27  41  56  84 121 156 192 245 299 349
#     4   9  18  36  64  96 124 153 194 240 284 334
#     4  10  22  39  61  85 110 145 192 247 304 358
#
# _framework density 22.738126999999999
#
# number of rings (size 3 to 8) (size 9 to 14) (size 15 to 20)
#    0.000    2.143    1.429    0.857    4.000    5.143 
#    0.000    2.857    0.000    4.286    0.000    0.000 
#    0.000    0.000    0.000    0.000    0.000    0.000 
#
# Total GULP energy -156095.639658 kJ/mol
# GULP energy per Si atom -5574.844274 kJ/mol
# Density = 2.268637 g / cm^3
# Si number density = 22.738127 Si / 1000 Ang^3
#
#
#
# Elastic Constant Matrix: (Units=GPa)
#
#
# Indices 1 2 3 4 5 6 
#
# 1 214.1220 48.4813 27.3491 0.0000 0.0000 0.0000
# 2 48.4813 98.5928 -8.0929 0.0000 0.0000 0.0000
# 3 27.3491 -8.0929 31.1064 0.0000 0.0000 0.0000
# 4 0.0000 0.0000 0.0000 22.6134 0.0000 0.0000
# 5 0.0000 0.0000 0.0000 0.0000 18.0437 0.0000
# 6 0.0000 0.0000 0.0000 0.0000 0.0000 27.5541
#
#
#
# Elastic Compliance Matrix: (Units=1/GPa)
#
#
# Indices 1 2 3 4 5 6 
#
# 1 0.006327 -0.003646 -0.006512 0.000000 0.000000 0.000000
# 2 -0.003646 0.012465 0.006449 0.000000 0.000000 0.000000
# 3 -0.006512 0.006449 0.039551 0.000000 0.000000 0.000000
# 4 0.000000 0.000000 0.000000 0.044222 0.000000 0.000000
# 5 0.000000 0.000000 0.000000 0.000000 0.055421 0.000000
# 6 0.000000 0.000000 0.000000 0.000000 0.000000 0.036292
#
#
# Mechanical properties :
#
#
# Convention : Reuss Voigt Hill
#
# Bulk Modulus (GPa) = 19.63688 53.25514 36.44601
# Shear Modulus (GPa) = 22.86541 32.04782 27.45662
#
# Velocity S-wave (km/s) = 3.17456 3.75831 3.47870
# Velocity P-wave (km/s) = 4.70021 6.50424 5.67437
#
# Compressibility (1/GPa) = 0.05092458
#
# Stress axis : x y z
#
# Youngs Moduli (GPa) = 158.04119 80.22545 25.28411
#
# Poissons Ratio (x) = 0.29250 0.16464
# Poissons Ratio (y) = 0.57621 -0.16304
# Poissons Ratio (z) = 1.02912 -0.51733
#
# Static dielectric constant tensor:
#      x y z
#    x 1.864690 0.000000 0.000000 
#    y 0.000000 1.667250 0.000000 
#    z 0.000000 0.000000 1.925000 
# 
# From -- ./inp_files/37489.got.cif
#   From: 2010.05.17/outbox.cif.g08.bks.cpg/sg65_19_cif.got.tgz:37489.got - 2010.06.03 17:01:31.
