data_PCOD9492494
_publ_section_title
;
Structure prediction by ZEFSAII (Michael W. Deem and Ramdas Pophale) SiO2 
 PCOD9492494
Probable space group: C M M M
;
_chemical_formula_sum "Si O2"
_cell_formula_units_Z 80
_cell_length_a 18.611307
_cell_length_b 8.912693
_cell_length_c 26.493383
_cell_angle_alpha 90.000000
_cell_angle_beta 90.000000
_cell_angle_gamma 90.000000
_cell_volume 4394.639332
_symmetry_space_group_name_H-M "C M M M"
_symmetry_group_IT_number 65
_symmetry_cell_setting 'orthorhombic'
loop_
_space_group_symop_operation_xyz
x,y,z
-x,-y,z
x,-y,-z
-x,y,-z
-x,-y,-z
x,y,-z
-x,y,z
x,-y,z
1/2+x,1/2+y,z
1/2-x,1/2-y,z
1/2+x,1/2-y,-z
1/2-x,1/2+y,-z
1/2-x,1/2-y,-z
1/2+x,1/2+y,-z
1/2-x,1/2+y,z
1/2+x,1/2-y,z
loop_
_atom_site_type_symbol
_atom_site_label
_atom_site_fract_x
_atom_site_fract_y
_atom_site_fract_z
Si Si1 0.413079 0.822715 0.444896
Si Si2 0.415009 0.178390 0.148187
Si Si3 0.829063 0.180695 0.758792
Si Si4 0.083362 0.819787 0.659078
Si Si5 0.328182 0.678808 0.059062
O O1 0.387145 0.767778 0.500000
O O2 0.500000 0.805619 0.445320
O O3 0.388067 0.742413 0.394165
O O4 0.398133 0.000000 0.441649
O O5 0.500000 0.204282 0.152515
O O6 0.373837 0.257843 0.193972
O O7 0.384712 0.245860 0.096288
O O8 0.401606 0.000000 0.149702
O O9 0.750000 0.250000 0.759911
O O10 0.869609 0.225260 0.707086
O O11 0.825506 0.000000 0.761060
O O12 0.000000 0.770428 0.665708
O O13 0.083065 0.000000 0.656605
O O14 0.325315 0.500000 0.067305
O O15 0.250000 0.750000 0.069365
O O16 0.344809 0.705731 0.000000
#
# Coordination Sequence:
#
# PCOD9492494 Si02
#       5
#    16  16  16  16  16
#     4   8  14  25  43  70 103 136 169 208 257 312
#     4  11  24  40  59  84 113 145 182 225 273 323
#     4  11  23  39  58  79 107 142 181 225 272 326
#     4   9  18  32  51  76 104 135 172 216 266 316
#     4  10  21  38  61  87 116 151 188 225 267 317
#
# _framework density 18.203997999999999
#
# number of rings (size 3 to 8) (size 9 to 14) (size 15 to 20)
#    0.000    2.200    0.000    3.600    0.000    6.000 
#    0.000    6.000    0.000    0.600    0.000    0.000 
#    0.000    0.000    0.000    0.000    0.000    0.000 
#
# Total GULP energy -223264.174942 kJ/mol
# GULP energy per Si atom -5581.604374 kJ/mol
# Density = 1.816256 g / cm^3
# Si number density = 18.203998 Si / 1000 Ang^3
#
#
#
# Elastic Constant Matrix: (Units=GPa)
#
#
# Indices 1 2 3 4 5 6 
#
# 1 89.3513 56.5290 81.6806 0.0000 0.0000 0.0000
# 2 56.5290 63.2243 67.1916 0.0000 0.0000 0.0000
# 3 81.6806 67.1916 138.4031 0.0000 0.0000 0.0000
# 4 0.0000 0.0000 0.0000 43.1808 0.0000 0.0000
# 5 0.0000 0.0000 0.0000 0.0000 -140.0624 0.0000
# 6 0.0000 0.0000 0.0000 0.0000 0.0000 21.6230
#
#
#
# Elastic Compliance Matrix: (Units=1/GPa)
#
#
# Indices 1 2 3 4 5 6 
#
# 1 0.031405 -0.017317 -0.010127 0.000000 0.000000 0.000000
# 2 -0.017317 0.042223 -0.010279 0.000000 0.000000 0.000000
# 3 -0.010127 -0.010279 0.018192 0.000000 0.000000 0.000000
# 4 0.000000 0.000000 0.000000 0.023158 0.000000 0.000000
# 5 0.000000 0.000000 0.000000 0.000000 -0.007140 0.000000
# 6 0.000000 0.000000 0.000000 0.000000 0.000000 0.046247
#
#
# Mechanical properties :
#
#
# Convention : Reuss Voigt Hill
#
# Bulk Modulus (GPa) = 61.06830 77.97567 69.52199
# Shear Modulus (GPa) = 21.27740 -9.34654 5.96543
#
# Velocity S-wave (km/s) = 3.42253 -2.26836 1.81221
# Velocity P-wave (km/s) = 7.01696 6.00556 6.53087
#
# Compressibility (1/GPa) = 0.01637511
#
# Stress axis : x y z
#
# Youngs Moduli (GPa) = 31.84167 23.68357 54.96837
#
# Poissons Ratio (x) = 0.41012 0.55669
# Poissons Ratio (y) = 0.55139 0.56501
# Poissons Ratio (z) = 0.32248 0.24344
#
# Static dielectric constant tensor:
#      x y z
#    x 1.601130 0.000000 0.000000 
#    y 0.000000 1.610450 0.000000 
#    z 0.000000 0.000000 1.628830 
# 
# From -- ./inp_files/72766.got.cif
#   From: 2010.05.17/outbox.cif.g08.bks.cpg/sg65_37_cif.got.tgz:72766.got - 2010.06.03 17:01:31.
