data_PCOD9492453
_publ_section_title
;
Structure prediction by ZEFSAII (Michael W. Deem and Ramdas Pophale) SiO2 
 PCOD9492453
Probable space group: C M M M
;
_chemical_formula_sum "Si O2"
_cell_formula_units_Z 88
_cell_length_a 26.905389
_cell_length_b 19.766488
_cell_length_c 8.022225
_cell_angle_alpha 90.000000
_cell_angle_beta 90.000000
_cell_angle_gamma 90.000000
_cell_volume 4266.420202
_symmetry_space_group_name_H-M "C M M M"
_symmetry_group_IT_number 65
_symmetry_cell_setting 'orthorhombic'
loop_
_space_group_symop_operation_xyz
x,y,z
-x,-y,z
x,-y,-z
-x,y,-z
-x,-y,-z
x,y,-z
-x,y,z
x,-y,z
1/2+x,1/2+y,z
1/2-x,1/2-y,z
1/2+x,1/2-y,-z
1/2-x,1/2+y,-z
1/2-x,1/2-y,-z
1/2+x,1/2+y,-z
1/2-x,1/2+y,z
1/2+x,1/2-y,z
loop_
_atom_site_type_symbol
_atom_site_label
_atom_site_fract_x
_atom_site_fract_y
_atom_site_fract_z
Si Si1 0.441459 0.341159 0.179191
Si Si2 0.735531 0.423215 0.298440
Si Si3 0.802267 0.216504 0.195457
Si Si4 0.560970 0.577863 0.500000
Si Si5 0.351210 0.075940 0.296667
Si Si6 0.398827 0.210927 0.691576
O O1 0.500000 0.355831 0.173592
O O2 0.421381 0.382670 0.336096
O O3 0.434296 0.261510 0.210213
O O4 0.419130 0.359408 0.000000
O O5 0.733508 0.418907 0.500000
O O6 0.721818 0.500000 0.251208
O O7 0.703187 0.363324 0.223666
O O8 0.793579 0.412553 0.248059
O O9 0.750000 0.250000 0.244866
O O10 0.846067 0.250308 0.298722
O O11 0.810883 0.230938 0.000000
O O12 0.576461 0.500000 0.500000
O O13 0.500000 0.579231 0.500000
O O14 0.351578 0.077807 0.500000
O O15 0.386951 0.136288 0.240493
O O16 0.365243 0.000000 0.245001
O O17 0.415709 0.206414 0.500000
#
# Coordination Sequence:
#
# PCOD9492453 Si02
#       6
#    16  16  16   8  16  16
#     4  10  21  38  60  87 119 150 184 231 283 334
#     4   9  17  32  52  71  96 133 177 223 270 321
#     4  11  22  33  47  73 109 143 180 226 272 331
#     4   9  18  36  62  90 116 143 185 231 277 341
#     4   8  15  28  49  78 106 136 180 230 278 327
#     4  11  20  33  58  82 107 144 187 234 278 334
#
# _framework density 20.626193000000001
#
# number of rings (size 3 to 8) (size 9 to 14) (size 15 to 20)
#    0.000    2.273    2.727    2.182    0.000    1.455 
#    0.000    2.727    0.000    4.909    0.000    3.818 
#    0.000    0.000    0.000    0.000    0.000    0.000 
#
# Total GULP energy -245633.697615 kJ/mol
# GULP energy per Si atom -5582.584037 kJ/mol
# Density = 2.057925 g / cm^3
# Si number density = 20.626193 Si / 1000 Ang^3
#
#
#
# Elastic Constant Matrix: (Units=GPa)
#
#
# Indices 1 2 3 4 5 6 
#
# 1 13.5277 0.1047 8.2950 0.0000 0.0000 0.0000
# 2 0.1047 138.6737 35.3057 0.0000 0.0000 0.0000
# 3 8.2950 35.3057 79.5174 0.0000 0.0000 0.0000
# 4 0.0000 0.0000 0.0000 1.7797 0.0000 0.0000
# 5 0.0000 0.0000 0.0000 0.0000 4.5015 0.0000
# 6 0.0000 0.0000 0.0000 0.0000 0.0000 28.0352
#
#
#
# Elastic Compliance Matrix: (Units=1/GPa)
#
#
# Indices 1 2 3 4 5 6 
#
# 1 0.079629 0.002317 -0.009335 0.000000 0.000000 0.000000
# 2 0.002317 0.008198 -0.003881 0.000000 0.000000 0.000000
# 3 -0.009335 -0.003881 0.015273 0.000000 0.000000 0.000000
# 4 0.000000 0.000000 0.000000 0.561901 0.000000 0.000000
# 5 0.000000 0.000000 0.000000 0.000000 0.222150 0.000000
# 6 0.000000 0.000000 0.000000 0.000000 0.000000 0.035669
#
#
# Mechanical properties :
#
#
# Convention : Reuss Voigt Hill
#
# Bulk Modulus (GPa) = 12.30023 35.45884 23.87954
# Shear Modulus (GPa) = 5.14552 19.39749 12.27150
#
# Velocity S-wave (km/s) = 1.58116 3.06997 2.44180
# Velocity P-wave (km/s) = 3.05119 5.45846 4.42180
#
# Compressibility (1/GPa) = 0.08129928
#
# Stress axis : x y z
#
# Youngs Moduli (GPa) = 12.55830 121.98680 65.47495
#
# Poissons Ratio (x) = -0.28259 0.61122
# Poissons Ratio (y) = -0.02909 0.25413
# Poissons Ratio (z) = 0.11723 0.47348
#
# Static dielectric constant tensor:
#      x y z
#    x 1.737800 0.000000 0.000000 
#    y 0.000000 1.736860 0.000000 
#    z 0.000000 0.000000 1.760170 
# 
# From -- ./inp_files/18314.got.cif
#   From: 2010.05.17/outbox.cif.g08.bks.cpg/sg65_10_cif.got.tgz:18314.got - 2010.06.03 17:01:31.
