data_PCOD9492411
_publ_section_title
;
Structure prediction by ZEFSAII (Michael W. Deem and Ramdas Pophale) SiO2 
 PCOD9492411
Probable space group: C M M M
;
_chemical_formula_sum "Si O2"
_cell_formula_units_Z 72
_cell_length_a 8.629233
_cell_length_b 19.244014
_cell_length_c 23.541269
_cell_angle_alpha 90.000000
_cell_angle_beta 90.000000
_cell_angle_gamma 90.000000
_cell_volume 3909.288570
_symmetry_space_group_name_H-M "C M M M"
_symmetry_group_IT_number 65
_symmetry_cell_setting 'orthorhombic'
loop_
_space_group_symop_operation_xyz
x,y,z
-x,-y,z
x,-y,-z
-x,y,-z
-x,-y,-z
x,y,-z
-x,y,z
x,-y,z
1/2+x,1/2+y,z
1/2-x,1/2-y,z
1/2+x,1/2-y,-z
1/2-x,1/2+y,-z
1/2-x,1/2-y,-z
1/2+x,1/2+y,-z
1/2-x,1/2+y,z
1/2+x,1/2-y,z
loop_
_atom_site_type_symbol
_atom_site_label
_atom_site_fract_x
_atom_site_fract_y
_atom_site_fract_z
Si Si1 0.814230 0.080945 0.602489
Si Si2 0.184618 0.327825 0.500000
Si Si3 0.811377 0.079819 0.064150
Si Si4 0.185641 0.580883 0.727474
Si Si5 0.686301 0.327706 0.170007
O O1 0.743765 0.130539 0.555067
O O2 0.751424 0.097844 0.665173
O O3 0.000000 0.086579 0.601866
O O4 0.773578 0.000000 0.590682
O O5 0.250000 0.250000 0.500000
O O6 0.000000 0.325650 0.500000
O O7 0.759741 0.131562 0.113315
O O8 0.000000 0.080212 0.064255
O O9 0.763823 0.000000 0.075619
O O10 0.761842 0.098389 0.000000
O O11 0.226001 0.500000 0.739279
O O12 0.255638 0.629776 0.775512
O O13 0.000000 0.586972 0.726762
O O14 0.500000 0.326331 0.170192
O O15 0.750000 0.250000 0.170743
#
# Coordination Sequence:
#
# PCOD9492411 Si02
#       5
#    16   8  16  16  16
#     4  10  21  39  63  89 116 147 186 230 276 329
#     4  12  25  40  59  85 119 155 191 230 277 330
#     4   8  15  30  53  79 105 137 181 230 277 328
#     4  10  21  38  60  85 112 143 183 231 280 330
#     4  11  22  35  53  79 112 149 187 227 276 332
#
# _framework density 18.417674000000002
#
# number of rings (size 3 to 8) (size 9 to 14) (size 15 to 20)
#    0.000    2.000    0.000    4.667    0.000    6.222 
#    0.000    4.444    0.000    2.000    0.000    7.778 
#    0.000    0.000    0.000    0.000    0.000    0.000 
#
# Total GULP energy -201115.149245 kJ/mol
# GULP energy per Si atom -5586.531923 kJ/mol
# Density = 1.837575 g / cm^3
# Si number density = 18.417674 Si / 1000 Ang^3
#
#
#
# Elastic Constant Matrix: (Units=GPa)
#
#
# Indices 1 2 3 4 5 6 
#
# 1 65.8419 59.0990 61.8414 0.0000 0.0000 0.0000
# 2 59.0990 157.6807 149.8255 0.0000 0.0000 0.0000
# 3 61.8414 149.8255 193.9323 0.0000 0.0000 0.0000
# 4 0.0000 0.0000 0.0000 -52.0809 0.0000 0.0000
# 5 0.0000 0.0000 0.0000 0.0000 15.7554 0.0000
# 6 0.0000 0.0000 0.0000 0.0000 0.0000 21.4380
#
#
#
# Elastic Compliance Matrix: (Units=1/GPa)
#
#
# Indices 1 2 3 4 5 6 
#
# 1 0.023221 -0.006270 -0.002561 0.000000 0.000000 0.000000
# 2 -0.006270 0.025542 -0.017733 0.000000 0.000000 0.000000
# 3 -0.002561 -0.017733 0.019673 0.000000 0.000000 0.000000
# 4 0.000000 0.000000 0.000000 -0.019201 0.000000 0.000000
# 5 0.000000 0.000000 0.000000 0.000000 0.063470 0.000000
# 6 0.000000 0.000000 0.000000 0.000000 0.000000 0.046646
#
#
# Mechanical properties :
#
#
# Convention : Reuss Voigt Hill
#
# Bulk Modulus (GPa) = 65.32647 106.55406 85.94027
# Shear Modulus (GPa) = 22.97975 6.80178 14.89077
#
# Velocity S-wave (km/s) = 3.53611 1.92382 2.84651
# Velocity P-wave (km/s) = 7.22624 7.93187 7.58727
#
# Compressibility (1/GPa) = 0.01530773
#
# Stress axis : x y z
#
# Youngs Moduli (GPa) = 43.06442 39.15112 50.83061
#
# Poissons Ratio (x) = 0.24549 0.13015
# Poissons Ratio (y) = 0.27003 0.90140
# Poissons Ratio (z) = 0.11027 0.69428
#
# Static dielectric constant tensor:
#      x y z
#    x 1.618580 0.000000 0.000000 
#    y 0.000000 1.602220 0.000000 
#    z 0.000000 0.000000 1.611350 
# 
# From -- ./inp_files/66998.got.cif
#   From: 2010.05.17/outbox.cif.g08.bks.cpg/sg65_34_cif.got.tgz:66998.got - 2010.06.03 17:01:31.
