data_PCOD9492512
_publ_section_title
;
Structure prediction by ZEFSAII (Michael W. Deem and Ramdas Pophale) SiO2 
 PCOD9492512
Probable space group: C M M M
;
_chemical_formula_sum "Si O2"
_cell_formula_units_Z 96
_cell_length_a 25.627926
_cell_length_b 23.972578
_cell_length_c 8.823106
_cell_angle_alpha 90.000000
_cell_angle_beta 90.000000
_cell_angle_gamma 90.000000
_cell_volume 5420.629179
_symmetry_space_group_name_H-M "C M M M"
_symmetry_group_IT_number 65
_symmetry_cell_setting 'orthorhombic'
loop_
_space_group_symop_operation_xyz
x,y,z
-x,-y,z
x,-y,-z
-x,y,-z
-x,-y,-z
x,y,-z
-x,y,z
x,-y,z
1/2+x,1/2+y,z
1/2-x,1/2-y,z
1/2+x,1/2-y,-z
1/2-x,1/2+y,-z
1/2-x,1/2-y,-z
1/2+x,1/2+y,-z
1/2-x,1/2+y,z
1/2+x,1/2-y,z
loop_
_atom_site_type_symbol
_atom_site_label
_atom_site_fract_x
_atom_site_fract_y
_atom_site_fract_z
Si Si1 0.346613 0.884979 0.680522
Si Si2 0.154374 0.882445 0.318021
Si Si3 0.438522 0.181613 0.820192
Si Si4 0.817047 0.000000 0.818528
Si Si5 0.247810 0.316255 0.180393
Si Si6 0.060273 0.801959 0.681621
Si Si7 0.693165 0.000000 0.181572
O O1 0.343913 0.887283 0.500000
O O2 0.402258 0.862190 0.735096
O O3 0.303333 0.842259 0.743922
O O4 0.332734 0.944880 0.750120
O O5 0.158981 0.885036 0.500000
O O6 0.202082 0.846527 0.251197
O O7 0.100809 0.850449 0.279105
O O8 0.158275 0.944156 0.250069
O O9 0.500000 0.172736 0.790421
O O10 0.425774 0.244088 0.763325
O O11 0.429490 0.177984 0.000000
O O12 0.755036 0.000000 0.781914
O O13 0.822020 0.000000 0.000000
O O14 0.250000 0.250000 0.204839
O O15 0.246465 0.327091 0.000000
O O16 0.063356 0.792869 0.500000
O O17 0.000000 0.815588 0.718795
O O18 0.688164 0.000000 0.000000
#
# Coordination Sequence:
#
# PCOD9492512 Si02
#       7
#    16  16  16   8  16  16   8
#     4  12  24  38  60  87 116 150 192 239 287 341
#     4  11  22  36  58  85 114 149 193 240 287 342
#     4  10  21  38  61  88 119 156 194 234 284 341
#     4  11  23  39  60  81 111 155 195 237 291 345
#     4  11  23  37  55  82 117 152 187 233 287 344
#     4   9  19  37  60  87 119 154 192 237 290 344
#     4  11  23  41  62  83 113 154 195 236 288 346
#
# _framework density 17.710121000000001
#
# number of rings (size 3 to 8) (size 9 to 14) (size 15 to 20)
#    0.000    1.333    1.667    4.500    0.000    7.000 
#    0.000    0.833    0.000    5.000    0.000    0.000 
#    0.000    0.000    0.000    0.000    0.000    0.000 
#
# Total GULP energy -268360.124207 kJ/mol
# GULP energy per Si atom -5590.835921 kJ/mol
# Density = 1.766981 g / cm^3
# Si number density = 17.710121 Si / 1000 Ang^3
#
#
#
# Elastic Constant Matrix: (Units=GPa)
#
#
# Indices 1 2 3 4 5 6 
#
# 1 80.3217 67.6766 56.7702 0.0000 0.0000 0.0000
# 2 67.6766 128.2362 78.7173 0.0000 0.0000 0.0000
# 3 56.7702 78.7173 90.1771 0.0000 0.0000 0.0000
# 4 0.0000 0.0000 0.0000 30.7840 0.0000 0.0000
# 5 0.0000 0.0000 0.0000 0.0000 27.7286 0.0000
# 6 0.0000 0.0000 0.0000 0.0000 0.0000 10.0657
#
#
#
# Elastic Compliance Matrix: (Units=1/GPa)
#
#
# Indices 1 2 3 4 5 6 
#
# 1 0.025598 -0.007793 -0.009312 0.000000 0.000000 0.000000
# 2 -0.007793 0.019173 -0.011830 0.000000 0.000000 0.000000
# 3 -0.009312 -0.011830 0.027279 0.000000 0.000000 0.000000
# 4 0.000000 0.000000 0.000000 0.032484 0.000000 0.000000
# 5 0.000000 0.000000 0.000000 0.000000 0.036064 0.000000
# 6 0.000000 0.000000 0.000000 0.000000 0.000000 0.099347
#
#
# Mechanical properties :
#
#
# Convention : Reuss Voigt Hill
#
# Bulk Modulus (GPa) = 70.53083 78.34037 74.43560
# Shear Modulus (GPa) = 16.52662 20.08705 18.30683
#
# Velocity S-wave (km/s) = 3.05810 3.37146 3.21860
# Velocity P-wave (km/s) = 7.23747 7.71275 7.47888
#
# Compressibility (1/GPa) = 0.01417820
#
# Stress axis : x y z
#
# Youngs Moduli (GPa) = 39.06587 52.15710 36.65858
#
# Poissons Ratio (x) = 0.40645 0.34138
# Poissons Ratio (y) = 0.30444 0.43369
# Poissons Ratio (z) = 0.36379 0.61704
#
# Static dielectric constant tensor:
#      x y z
#    x 1.593570 0.000000 0.000000 
#    y 0.000000 1.570770 0.000000 
#    z 0.000000 0.000000 1.590970 
# 
# From -- ./inp_files/14400.got.cif
#   From: 2010.05.17/outbox.cif.g08.bks.cpg/sg65_8_cif.got.tgz:14400.got - 2010.06.03 17:01:31.
