data_PCOD9492774
_publ_section_title
;
Structure prediction by ZEFSAII (Michael W. Deem and Ramdas Pophale) SiO2 
 PCOD9492774
Probable space group: C M M M
;
_chemical_formula_sum "Si O2"
_cell_formula_units_Z 88
_cell_length_a 8.616476
_cell_length_b 29.123295
_cell_length_c 24.635436
_cell_angle_alpha 90.000000
_cell_angle_beta 90.000000
_cell_angle_gamma 90.000000
_cell_volume 6182.020557
_symmetry_space_group_name_H-M "C M M M"
_symmetry_group_IT_number 65
_symmetry_cell_setting 'orthorhombic'
loop_
_space_group_symop_operation_xyz
x,y,z
-x,-y,z
x,-y,-z
-x,y,-z
-x,-y,-z
x,y,-z
-x,y,z
x,-y,z
1/2+x,1/2+y,z
1/2-x,1/2-y,z
1/2+x,1/2-y,-z
1/2-x,1/2+y,-z
1/2-x,1/2-y,-z
1/2+x,1/2+y,-z
1/2-x,1/2+y,z
1/2+x,1/2-y,z
loop_
_atom_site_type_symbol
_atom_site_label
_atom_site_fract_x
_atom_site_fract_y
_atom_site_fract_z
Si Si1 0.812614 0.302202 0.058458
Si Si2 0.184579 0.801909 0.289243
Si Si3 0.686592 0.197773 0.175995
Si Si4 0.312996 0.552346 0.563453
Si Si5 0.312765 0.198561 0.500000
Si Si6 0.814286 0.355964 0.608274
O O1 0.750000 0.250000 0.058319
O O2 0.767283 0.322846 0.117099
O O3 0.000000 0.300437 0.058686
O O4 0.763883 0.322892 0.000000
O O5 0.250000 0.750000 0.295520
O O6 0.244977 0.821650 0.231660
O O7 0.240885 0.832494 0.339198
O O8 0.000000 0.799058 0.287976
O O9 0.500000 0.198465 0.179885
O O10 0.750000 0.250000 0.174826
O O11 0.269678 0.559456 0.500000
O O12 0.500000 0.555891 0.566670
O O13 0.270059 0.500000 0.577937
O O14 0.236672 0.591662 0.599246
O O15 0.500000 0.199756 0.500000
O O16 0.250000 0.250000 0.500000
O O17 0.262932 0.171735 0.445791
O O18 0.000000 0.352974 0.612018
#
# Coordination Sequence:
#
# PCOD9492774 Si02
#       6
#    16  16  16  16   8  16
#     4   8  13  20  31  48  69  93 124 163 205 243
#     4  11  21  32  44  59  80 110 144 178 213 250
#     4   9  15  24  37  52  72 100 133 170 207 243
#     4   9  18  33  52  72  91 110 132 160 200 249
#     4  10  22  34  45  62  83 107 134 169 207 246
#     4  11  21  34  48  66  86 108 139 171 210 252
#
# _framework density 14.234828
#
# number of rings (size 3 to 8) (size 9 to 14) (size 15 to 20)
#    0.000    2.364    0.909    4.909    0.000    4.000 
#    0.000    0.909    0.000    0.000    0.000    0.000 
#    0.000    0.000    0.000    0.000    0.000    0.909 
#
# Total GULP energy -245029.950688 kJ/mol
# GULP energy per Si atom -5568.862516 kJ/mol
# Density = 1.420243 g / cm^3
# Si number density = 14.234828 Si / 1000 Ang^3
#
#
#
# Elastic Constant Matrix: (Units=GPa)
#
#
# Indices 1 2 3 4 5 6 
#
# 1 51.6870 21.4604 43.0511 0.0000 0.0000 0.0000
# 2 21.4604 57.7116 46.8685 0.0000 0.0000 0.0000
# 3 43.0511 46.8685 161.6994 0.0000 0.0000 0.0000
# 4 0.0000 0.0000 0.0000 1.6846 0.0000 0.0000
# 5 0.0000 0.0000 0.0000 0.0000 -21.9486 0.0000
# 6 0.0000 0.0000 0.0000 0.0000 0.0000 17.5015
#
#
#
# Elastic Compliance Matrix: (Units=1/GPa)
#
#
# Indices 1 2 3 4 5 6 
#
# 1 0.026044 -0.005301 -0.005397 0.000000 0.000000 0.000000
# 2 -0.005301 0.023741 -0.005470 0.000000 0.000000 0.000000
# 3 -0.005397 -0.005470 0.009207 0.000000 0.000000 0.000000
# 4 0.000000 0.000000 0.000000 0.593628 0.000000 0.000000
# 5 0.000000 0.000000 0.000000 0.000000 -0.045561 0.000000
# 6 0.000000 0.000000 0.000000 0.000000 0.000000 0.057138
#
#
# Mechanical properties :
#
#
# Convention : Reuss Voigt Hill
#
# Bulk Modulus (GPa) = 37.51701 54.87311 46.19506
# Shear Modulus (GPa) = 7.08799 10.09537 8.59168
#
# Velocity S-wave (km/s) = 2.23386 2.66597 2.45943
# Velocity P-wave (km/s) = 5.75035 6.93605 6.37084
#
# Compressibility (1/GPa) = 0.02665458
#
# Stress axis : x y z
#
# Youngs Moduli (GPa) = 38.39670 42.12112 108.61563
#
# Poissons Ratio (x) = 0.22330 0.58624
# Poissons Ratio (y) = 0.20355 0.59412
# Poissons Ratio (z) = 0.20724 0.23040
#
# Static dielectric constant tensor:
#      x y z
#    x 1.476980 0.000000 0.000000 
#    y 0.000000 1.398730 0.000000 
#    z 0.000000 0.000000 1.526940 
# 
# From -- ./inp_files/68419.got.cif
#   From: 2010.05.17/outbox.cif.g08.bks.cpg/sg65_35_cif.got.tgz:68419.got - 2010.06.03 17:01:31.
