data_PCOD9492972
_publ_section_title
;
Structure prediction by ZEFSAII (Michael W. Deem and Ramdas Pophale) SiO2 
 PCOD9492972
Probable space group: C M M M
;
_chemical_formula_sum "Si O2"
_cell_formula_units_Z 72
_cell_length_a 27.616110
_cell_length_b 9.712067
_cell_length_c 14.799907
_cell_angle_alpha 90.000000
_cell_angle_beta 90.000000
_cell_angle_gamma 90.000000
_cell_volume 3969.475813
_symmetry_space_group_name_H-M "C M M M"
_symmetry_group_IT_number 65
_symmetry_cell_setting 'orthorhombic'
loop_
_space_group_symop_operation_xyz
x,y,z
-x,-y,z
x,-y,-z
-x,y,-z
-x,-y,-z
x,y,-z
-x,y,z
x,-y,z
1/2+x,1/2+y,z
1/2-x,1/2-y,z
1/2+x,1/2-y,-z
1/2-x,1/2+y,-z
1/2-x,1/2-y,-z
1/2+x,1/2+y,-z
1/2-x,1/2+y,z
1/2+x,1/2-y,z
loop_
_atom_site_type_symbol
_atom_site_label
_atom_site_fract_x
_atom_site_fract_y
_atom_site_fract_z
Si Si1 0.946041 0.500000 0.105677
Si Si2 0.942560 0.000000 0.109396
Si Si3 0.698401 0.668822 0.000000
Si Si4 0.700233 0.667560 0.500000
Si Si5 0.122764 0.749217 0.156726
Si Si6 0.136987 0.333557 0.639211
Si Si7 0.446187 0.835332 0.500000
O O1 0.912017 0.372984 0.126498
O O2 0.000000 0.500000 0.149329
O O3 0.953648 0.500000 0.000000
O O4 0.914534 0.874099 0.152825
O O5 0.000000 0.000000 0.124375
O O6 0.934962 0.000000 0.000000
O O7 0.750000 0.750000 0.000000
O O8 0.666410 0.715542 0.087373
O O9 0.703714 0.500000 0.000000
O O10 0.703311 0.500000 0.500000
O O11 0.750000 0.750000 0.500000
O O12 0.672390 0.731696 0.585770
O O13 0.139314 0.707884 0.256613
O O14 0.146731 0.500000 0.628111
O O15 0.085472 0.305343 0.589537
O O16 0.500000 0.774388 0.500000
O O17 0.450650 0.000000 0.500000
#
# Coordination Sequence:
#
# PCOD9492972 Si02
#       7
#     8   8   8   8  16  16   8
#     4  11  22  36  62  99 134 175 221 264 313 373
#     4  11  22  40  64  89 130 183 223 264 321 379
#     4  12  28  46  67  90 124 172 221 272 335 390
#     4  11  24  44  72  96 123 158 209 269 326 385
#     4  12  22  42  63  93 136 172 218 271 319 382
#     4  10  22  39  64  94 131 169 207 259 318 375
#     4   8  16  34  57  85 122 164 204 244 294 359
#
# _framework density 18.138414000000001
#
# number of rings (size 3 to 8) (size 9 to 14) (size 15 to 20)
#    0.000    1.222    4.444    2.333    3.111    4.444 
#    0.000    0.000    0.000    1.333    0.000    0.000 
#    0.000    0.000    0.000    0.000    0.000    0.000 
#
# Total GULP energy -200522.915978 kJ/mol
# GULP energy per Si atom -5570.080999 kJ/mol
# Density = 1.809713 g / cm^3
# Si number density = 18.138414 Si / 1000 Ang^3
#
#
#
# Elastic Constant Matrix: (Units=GPa)
#
#
# Indices 1 2 3 4 5 6 
#
# 1 155.5011 79.0934 59.8419 0.0000 0.0000 0.0000
# 2 79.0934 184.2461 52.7291 0.0000 0.0000 0.0000
# 3 59.8419 52.7291 134.8556 0.0000 0.0000 0.0000
# 4 0.0000 0.0000 0.0000 22.3718 0.0000 0.0000
# 5 0.0000 0.0000 0.0000 0.0000 -3.8923 0.0000
# 6 0.0000 0.0000 0.0000 0.0000 0.0000 37.9884
#
#
#
# Elastic Compliance Matrix: (Units=1/GPa)
#
#
# Indices 1 2 3 4 5 6 
#
# 1 0.009092 -0.003095 -0.002824 0.000000 0.000000 0.000000
# 2 -0.003095 0.007165 -0.001428 0.000000 0.000000 0.000000
# 3 -0.002824 -0.001428 0.009227 0.000000 0.000000 0.000000
# 4 0.000000 0.000000 0.000000 0.044699 0.000000 0.000000
# 5 0.000000 0.000000 0.000000 0.000000 -0.256917 0.000000
# 6 0.000000 0.000000 0.000000 0.000000 0.000000 0.026324
#
#
# Mechanical properties :
#
#
# Convention : Reuss Voigt Hill
#
# Bulk Modulus (GPa) = 92.68631 95.32574 94.00602
# Shear Modulus (GPa) = -35.18158 30.15614 -2.51272
#
# Velocity S-wave (km/s) = -4.40889 4.08187 -1.17827
# Velocity P-wave (km/s) = 5.02918 8.65357 7.07732
#
# Compressibility (1/GPa) = 0.01078908
#
# Stress axis : x y z
#
# Youngs Moduli (GPa) = 109.98930 139.57290 108.37609
#
# Poissons Ratio (x) = 0.43192 0.30610
# Poissons Ratio (y) = 0.34037 0.15478
# Poissons Ratio (z) = 0.31066 0.19934
#
# Static dielectric constant tensor:
#      x y z
#    x 1.696750 0.000000 0.000000 
#    y 0.000000 1.480750 0.000000 
#    z 0.000000 0.000000 1.589880 
# 
# From -- ./inp_files/46605.got.cif
#   From: 2010.05.17/outbox.cif.g08.bks.cpg/sg65_24_cif.got.tgz:46605.got - 2010.06.03 17:01:31.
