data_PCOD9492369
_publ_section_title
;
Structure prediction by ZEFSAII (Michael W. Deem and Ramdas Pophale) SiO2 
 PCOD9492369
Probable space group: C M M M
;
_chemical_formula_sum "Si O2"
_cell_formula_units_Z 60
_cell_length_a 15.385553
_cell_length_b 7.389319
_cell_length_c 23.030267
_cell_angle_alpha 90.000000
_cell_angle_beta 90.000000
_cell_angle_gamma 90.000000
_cell_volume 2618.282477
_symmetry_space_group_name_H-M "C M M M"
_symmetry_group_IT_number 65
_symmetry_cell_setting 'orthorhombic'
loop_
_space_group_symop_operation_xyz
x,y,z
-x,-y,z
x,-y,-z
-x,y,-z
-x,-y,-z
x,y,-z
-x,y,z
x,-y,z
1/2+x,1/2+y,z
1/2-x,1/2-y,z
1/2+x,1/2-y,-z
1/2-x,1/2+y,-z
1/2-x,1/2-y,-z
1/2+x,1/2+y,-z
1/2-x,1/2+y,z
1/2+x,1/2-y,z
loop_
_atom_site_type_symbol
_atom_site_label
_atom_site_fract_x
_atom_site_fract_y
_atom_site_fract_z
Si Si1 0.606677 0.500000 0.433568
Si Si2 0.400116 0.785168 0.910885
Si Si3 0.104401 0.704517 0.343032
Si Si4 0.330790 0.500000 0.000000
Si Si5 0.351183 0.214035 0.784054
O O1 0.500000 0.500000 0.434281
O O2 0.635813 0.500000 0.500000
O O3 0.634946 0.327387 0.395895
O O4 0.500000 0.764429 0.930901
O O5 0.396153 0.727430 0.843434
O O6 0.377416 0.000000 0.915413
O O7 0.341119 0.658398 0.949679
O O8 0.139562 0.500000 0.346558
O O9 0.124443 0.785305 0.279445
O O10 0.000000 0.695273 0.346626
O O11 0.250000 0.250000 0.792726
O O12 0.370109 0.000000 0.780323
#
# Coordination Sequence:
#
# PCOD9492369 Si02
#       5
#     8  16  16   4  16
#     4   9  18  31  52  85 118 147 179 221 274 322
#     4  10  21  38  59  83 112 141 180 229 273 327
#     4   9  18  34  56  83 111 144 185 227 273 324
#     4  12  23  36  62  88 106 144 185 220 275 332
#     4  10  22  37  57  82 110 144 182 230 283 326
#
# _framework density 22.915783999999999
#
# number of rings (size 3 to 8) (size 9 to 14) (size 15 to 20)
#    0.000    2.267    0.000    2.400    3.733    4.800 
#    0.000    6.000    0.000    0.800    0.000    0.000 
#    0.000    0.000    0.000    0.000    0.000    0.000 
#
# Total GULP energy -167167.963396 kJ/mol
# GULP energy per Si atom -5572.265447 kJ/mol
# Density = 2.286363 g / cm^3
# Si number density = 22.915784 Si / 1000 Ang^3
#
#
#
# Elastic Constant Matrix: (Units=GPa)
#
#
# Indices 1 2 3 4 5 6 
#
# 1 43.3034 14.1149 15.1514 0.0000 0.0000 0.0000
# 2 14.1149 125.5237 80.1439 0.0000 0.0000 0.0000
# 3 15.1514 80.1439 236.3388 0.0000 0.0000 0.0000
# 4 0.0000 0.0000 0.0000 1343.7971 0.0000 0.0000
# 5 0.0000 0.0000 0.0000 0.0000 -172.9477 0.0000
# 6 0.0000 0.0000 0.0000 0.0000 0.0000 8.3529
#
#
#
# Elastic Compliance Matrix: (Units=1/GPa)
#
#
# Indices 1 2 3 4 5 6 
#
# 1 0.024089 -0.002199 -0.000799 0.000000 0.000000 0.000000
# 2 -0.002199 0.010369 -0.003375 0.000000 0.000000 0.000000
# 3 -0.000799 -0.003375 0.005427 0.000000 0.000000 0.000000
# 4 0.000000 0.000000 0.000000 0.000744 0.000000 0.000000
# 5 0.000000 0.000000 0.000000 0.000000 -0.005782 0.000000
# 6 0.000000 0.000000 0.000000 0.000000 0.000000 0.119719
#
#
# Mechanical properties :
#
#
# Convention : Reuss Voigt Hill
#
# Bulk Modulus (GPa) = 36.84669 69.33181 53.08925
# Shear Modulus (GPa) = 28.35152 255.55752 141.95452
#
# Velocity S-wave (km/s) = 3.52121 10.57177 7.87913
# Velocity P-wave (km/s) = 5.71366 13.39169 10.29522
#
# Compressibility (1/GPa) = 0.02713948
#
# Stress axis : x y z
#
# Youngs Moduli (GPa) = 41.51268 96.44276 184.26524
#
# Poissons Ratio (x) = 0.21206 0.14717
# Poissons Ratio (y) = 0.09128 0.62193
# Poissons Ratio (z) = 0.03316 0.32551
#
# Static dielectric constant tensor:
#      x y z
#    x 1.867410 0.000000 0.000000 
#    y 0.000000 1.899120 0.000000 
#    z 0.000000 0.000000 1.827610 
# 
# From -- ./inp_files/63292.got.cif
#   From: 2010.05.17/outbox.cif.g08.bks.cpg/sg65_32_cif.got.tgz:63292.got - 2010.06.03 17:01:31.
