data_PCOD9492578
_publ_section_title
;
Structure prediction by ZEFSAII (Michael W. Deem and Ramdas Pophale) SiO2 
 PCOD9492578
Probable space group: C M M M
;
_chemical_formula_sum "Si O2"
_cell_formula_units_Z 52
_cell_length_a 17.119801
_cell_length_b 7.709716
_cell_length_c 17.719012
_cell_angle_alpha 90.000000
_cell_angle_beta 90.000000
_cell_angle_gamma 90.000000
_cell_volume 2338.711196
_symmetry_space_group_name_H-M "C M M M"
_symmetry_group_IT_number 65
_symmetry_cell_setting 'orthorhombic'
loop_
_space_group_symop_operation_xyz
x,y,z
-x,-y,z
x,-y,-z
-x,y,-z
-x,-y,-z
x,y,-z
-x,y,z
x,-y,z
1/2+x,1/2+y,z
1/2-x,1/2-y,z
1/2+x,1/2-y,-z
1/2-x,1/2+y,-z
1/2-x,1/2-y,-z
1/2+x,1/2+y,-z
1/2-x,1/2+y,z
1/2+x,1/2-y,z
loop_
_atom_site_type_symbol
_atom_site_label
_atom_site_fract_x
_atom_site_fract_y
_atom_site_fract_z
Si Si1 0.341676 0.706862 0.582882
Si Si2 0.606081 0.000000 0.000000
Si Si3 0.339898 0.300992 0.892057
Si Si4 0.587772 0.796404 0.741765
O O1 0.367579 0.772041 0.500000
O O2 0.350180 0.500000 0.583085
O O3 0.250000 0.750000 0.590170
O O4 0.386027 0.774944 0.655657
O O5 0.610098 0.154955 0.065103
O O6 0.353327 0.500000 0.915503
O O7 0.250000 0.250000 0.908202
O O8 0.355993 0.289982 0.802808
O O9 0.500000 0.727878 0.751626
O O10 0.588210 0.000000 0.758369
#
# Coordination Sequence:
#
# PCOD9492578 Si02
#       4
#    16   4  16  16
#     4  10  21  38  63  94 128 165 212 266 317 373
#     4  12  24  44  67 104 127 160 216 266 328 384
#     4  12  24  41  69  98 130 167 209 268 324 382
#     4  11  24  43  63  89 129 172 217 262 313 383
#
# _framework density 22.234466999999999
#
# number of rings (size 3 to 8) (size 9 to 14) (size 15 to 20)
#    0.000    0.923    3.077    3.692    0.000    4.923 
#    0.000    4.615    0.000    1.846    0.000    0.000 
#    0.000    0.000    0.000    0.000    0.000    0.000 
#
# Total GULP energy -144877.147662 kJ/mol
# GULP energy per Si atom -5572.197987 kJ/mol
# Density = 2.218386 g / cm^3
# Si number density = 22.234467 Si / 1000 Ang^3
#
#
#
# Elastic Constant Matrix: (Units=GPa)
#
#
# Indices 1 2 3 4 5 6 
#
# 1 31.5209 8.4467 21.1183 0.0000 0.0000 0.0000
# 2 8.4467 165.3508 36.5262 0.0000 0.0000 0.0000
# 3 21.1183 36.5262 159.0460 0.0000 0.0000 0.0000
# 4 0.0000 0.0000 0.0000 45.7855 0.0000 0.0000
# 5 0.0000 0.0000 0.0000 0.0000 -75.7060 0.0000
# 6 0.0000 0.0000 0.0000 0.0000 0.0000 3.6926
#
#
#
# Elastic Compliance Matrix: (Units=1/GPa)
#
#
# Indices 1 2 3 4 5 6 
#
# 1 0.034923 -0.000800 -0.004453 0.000000 0.000000 0.000000
# 2 -0.000800 0.006389 -0.001361 0.000000 0.000000 0.000000
# 3 -0.004453 -0.001361 0.007191 0.000000 0.000000 0.000000
# 4 0.000000 0.000000 0.000000 0.021841 0.000000 0.000000
# 5 0.000000 0.000000 0.000000 0.000000 -0.013209 0.000000
# 6 0.000000 0.000000 0.000000 0.000000 0.000000 0.270815
#
#
# Mechanical properties :
#
#
# Convention : Reuss Voigt Hill
#
# Bulk Modulus (GPa) = 28.34914 54.23333 41.29124
# Shear Modulus (GPa) = 14.16676 14.07618 14.12147
#
# Velocity S-wave (km/s) = 2.52693 2.51884 2.52289
# Velocity P-wave (km/s) = 4.61428 5.73619 5.20555
#
# Compressibility (1/GPa) = 0.03527444
#
# Stress axis : x y z
#
# Youngs Moduli (GPa) = 28.63432 156.51179 139.05505
#
# Poissons Ratio (x) = 0.12525 0.61926
# Poissons Ratio (y) = 0.02291 0.18927
# Poissons Ratio (z) = 0.12752 0.21303
#
# Static dielectric constant tensor:
#      x y z
#    x 1.824660 0.000000 0.000000 
#    y 0.000000 1.790320 0.000000 
#    z 0.000000 0.000000 1.823390 
# 
# From -- ./inp_files/48633.got.cif
#   From: 2010.05.17/outbox.cif.g08.bks.cpg/sg65_25_cif.got.tgz:48633.got - 2010.06.03 17:01:31.
