data_PCOD9492635
_publ_section_title
;
Structure prediction by ZEFSAII (Michael W. Deem and Ramdas Pophale) SiO2 
 PCOD9492635
Probable space group: C M M M
;
_chemical_formula_sum "Si O2"
_cell_formula_units_Z 116
_cell_length_a 23.593025
_cell_length_b 14.707965
_cell_length_c 17.206091
_cell_angle_alpha 90.000000
_cell_angle_beta 90.000000
_cell_angle_gamma 90.000000
_cell_volume 5970.606248
_symmetry_space_group_name_H-M "C M M M"
_symmetry_group_IT_number 65
_symmetry_cell_setting 'orthorhombic'
loop_
_space_group_symop_operation_xyz
x,y,z
-x,-y,z
x,-y,-z
-x,y,-z
-x,-y,-z
x,y,-z
-x,y,z
x,-y,z
1/2+x,1/2+y,z
1/2-x,1/2-y,z
1/2+x,1/2-y,-z
1/2-x,1/2+y,-z
1/2-x,1/2-y,-z
1/2+x,1/2+y,-z
1/2-x,1/2+y,z
1/2+x,1/2-y,z
loop_
_atom_site_type_symbol
_atom_site_label
_atom_site_fract_x
_atom_site_fract_y
_atom_site_fract_z
Si Si1 0.230629 0.108844 0.149934
Si Si2 0.662658 0.219640 0.091360
Si Si3 0.246300 0.605714 0.666920
Si Si4 0.085455 0.500000 0.500000
Si Si5 0.855952 0.154299 0.586942
Si Si6 0.935160 0.903015 0.721090
Si Si7 0.884790 0.646588 0.629603
Si Si8 0.434649 0.205118 0.790971
O O1 0.286713 0.148098 0.108101
O O2 0.182924 0.180459 0.121935
O O3 0.240667 0.122979 0.242393
O O4 0.221589 0.000000 0.136825
O O5 0.608715 0.186818 0.140059
O O6 0.652251 0.225406 0.000000
O O7 0.258169 0.500000 0.651122
O O8 0.290921 0.659864 0.614839
O O9 0.180842 0.622073 0.647414
O O10 0.088774 0.421952 0.568543
O O11 0.859234 0.118111 0.500000
O O12 0.890634 0.099799 0.651445
O O13 0.882967 0.253832 0.592336
O O14 0.928072 0.812711 0.771250
O O15 0.000000 0.899348 0.691094
O O16 0.928086 0.000000 0.763263
O O17 0.916541 0.653505 0.712087
O O18 0.500000 0.186864 0.809345
#
# Coordination Sequence:
#
# PCOD9492635 Si02
#       8
#    16  16  16   4  16  16  16  16
#     4  10  21  39  62  93 130 172 209 253 307 374
#     4  11  23  38  64  99 129 163 210 259 313 376
#     4  11  22  34  57  83 119 163 208 248 305 377
#     4  12  24  40  67  88 120 156 217 274 314 370
#     4  11  23  33  50  83 118 157 198 252 316 371
#     4   9  19  37  59  82 111 156 210 255 303 372
#     4  11  22  40  58  83 117 159 203 256 317 365
#     4  10  22  43  67  87 122 165 204 256 318 378
#
# _framework density 19.428512999999999
#
# number of rings (size 3 to 8) (size 9 to 14) (size 15 to 20)
#    0.000    1.517    2.759    3.310    2.897    4.966 
#    0.000    1.724    0.000    0.000    0.000    3.862 
#    0.000    0.000    0.000    0.000    0.000    0.000 
#
# Total GULP energy -323304.354906 kJ/mol
# GULP energy per Si atom -5574.213016 kJ/mol
# Density = 1.938429 g / cm^3
# Si number density = 19.428513 Si / 1000 Ang^3
#
#
#
# Elastic Constant Matrix: (Units=GPa)
#
#
# Indices 1 2 3 4 5 6 
#
# 1 95.2941 -5.6177 27.8333 0.0000 0.0000 0.0000
# 2 -5.6177 78.4896 -4.3532 0.0000 0.0000 0.0000
# 3 27.8333 -4.3532 65.1709 0.0000 0.0000 0.0000
# 4 0.0000 0.0000 0.0000 19.0520 0.0000 0.0000
# 5 0.0000 0.0000 0.0000 0.0000 -4.7700 0.0000
# 6 0.0000 0.0000 0.0000 0.0000 0.0000 9.4593
#
#
#
# Elastic Compliance Matrix: (Units=1/GPa)
#
#
# Indices 1 2 3 4 5 6 
#
# 1 0.012015 0.000578 -0.005093 0.000000 0.000000 0.000000
# 2 0.000578 0.012816 0.000609 0.000000 0.000000 0.000000
# 3 -0.005093 0.000609 0.017560 0.000000 0.000000 0.000000
# 4 0.000000 0.000000 0.000000 0.052488 0.000000 0.000000
# 5 0.000000 0.000000 0.000000 0.000000 -0.209645 0.000000
# 6 0.000000 0.000000 0.000000 0.000000 0.000000 0.105716
#
#
# Mechanical properties :
#
#
# Convention : Reuss Voigt Hill
#
# Bulk Modulus (GPa) = 28.91925 30.51993 29.71959
# Shear Modulus (GPa) = 485.97471 19.48774 252.73123
#
# Velocity S-wave (km/s) = 15.83281 3.17053 11.41775
# Velocity P-wave (km/s) = 18.68567 5.39870 13.75319
#
# Compressibility (1/GPa) = 0.03457904
#
# Stress axis : x y z
#
# Youngs Moduli (GPa) = 83.22640 78.02942 56.94732
#
# Poissons Ratio (x) = -0.04506 0.29003
# Poissons Ratio (y) = -0.04806 -0.03470
# Poissons Ratio (z) = 0.42387 -0.04755
#
# Static dielectric constant tensor:
#      x y z
#    x 1.690080 0.000000 0.000000 
#    y 0.000000 1.733780 0.000000 
#    z 0.000000 0.000000 1.644780 
# 
# From -- ./inp_files/56879.got.cif
#   From: 2010.05.17/outbox.cif.g08.bks.cpg/sg65_29_cif.got.tgz:56879.got - 2010.06.03 17:01:31.
