data_PCOD9492960
_publ_section_title
;
Structure prediction by ZEFSAII (Michael W. Deem and Ramdas Pophale) SiO2 
 PCOD9492960
Probable space group: C M M M
;
_chemical_formula_sum "Si O2"
_cell_formula_units_Z 72
_cell_length_a 22.688890
_cell_length_b 17.967704
_cell_length_c 8.903878
_cell_angle_alpha 90.000000
_cell_angle_beta 90.000000
_cell_angle_gamma 90.000000
_cell_volume 3629.819544
_symmetry_space_group_name_H-M "C M M M"
_symmetry_group_IT_number 65
_symmetry_cell_setting 'orthorhombic'
loop_
_space_group_symop_operation_xyz
x,y,z
-x,-y,z
x,-y,-z
-x,y,-z
-x,-y,-z
x,y,-z
-x,y,z
x,-y,z
1/2+x,1/2+y,z
1/2-x,1/2-y,z
1/2+x,1/2-y,-z
1/2-x,1/2+y,-z
1/2-x,1/2-y,-z
1/2+x,1/2+y,-z
1/2-x,1/2+y,z
1/2+x,1/2-y,z
loop_
_atom_site_type_symbol
_atom_site_label
_atom_site_fract_x
_atom_site_fract_y
_atom_site_fract_z
Si Si1 0.335909 0.813308 0.323196
Si Si2 0.930538 0.411858 0.826806
Si Si3 0.626854 0.353028 0.318336
Si Si4 0.000000 0.913478 0.682782
Si Si5 0.260342 0.417246 0.820933
O O1 0.323291 0.811539 0.500000
O O2 0.391855 0.864539 0.285575
O O3 0.352757 0.730033 0.274534
O O4 0.281259 0.852409 0.241903
O O5 0.922020 0.500000 0.804699
O O6 0.000000 0.396521 0.811522
O O7 0.913147 0.395065 0.000000
O O8 0.628995 0.357956 0.500000
O O9 0.560431 0.373133 0.270115
O O10 0.674989 0.407582 0.248293
O O11 0.000000 0.912915 0.500000
O O12 0.000000 0.000000 0.729797
O O13 0.236894 0.500000 0.781646
O O14 0.262956 0.412046 0.000000
#
# Coordination Sequence:
#
# PCOD9492960 Si02
#       5
#    16  16  16   8  16
#     4  11  23  36  57  88 121 153 193 243 295 349
#     4   9  19  36  56  79 112 156 203 245 288 346
#     4  10  22  39  61  89 120 153 194 242 292 350
#     4   9  18  36  63  89 114 151 192 232 285 345
#     4  11  24  41  61  85 116 155 198 245 296 352
#
# _framework density 19.835698000000001
#
# number of rings (size 3 to 8) (size 9 to 14) (size 15 to 20)
#    0.000    1.889    0.000    4.000    1.556   10.667 
#    0.000    1.667    0.000    2.000    0.000    0.000 
#    0.000    0.000    0.000    0.000    0.000    0.000 
#
# Total GULP energy -201153.572248 kJ/mol
# GULP energy per Si atom -5587.599229 kJ/mol
# Density = 1.979055 g / cm^3
# Si number density = 19.835698 Si / 1000 Ang^3
#
#
#
# Elastic Constant Matrix: (Units=GPa)
#
#
# Indices 1 2 3 4 5 6 
#
# 1 117.7413 72.5299 28.9821 0.0000 0.0000 0.0000
# 2 72.5299 104.5730 34.5599 0.0000 0.0000 0.0000
# 3 28.9821 34.5599 21.0629 0.0000 0.0000 0.0000
# 4 0.0000 0.0000 0.0000 42.2341 0.0000 0.0000
# 5 0.0000 0.0000 0.0000 0.0000 15.6656 0.0000
# 6 0.0000 0.0000 0.0000 0.0000 0.0000 45.3072
#
#
#
# Elastic Compliance Matrix: (Units=1/GPa)
#
#
# Indices 1 2 3 4 5 6 
#
# 1 0.015425 -0.008048 -0.008018 0.000000 0.000000 0.000000
# 2 -0.008048 0.025091 -0.030094 0.000000 0.000000 0.000000
# 3 -0.008018 -0.030094 0.107889 0.000000 0.000000 0.000000
# 4 0.000000 0.000000 0.000000 0.023678 0.000000 0.000000
# 5 0.000000 0.000000 0.000000 0.000000 0.063834 0.000000
# 6 0.000000 0.000000 0.000000 0.000000 0.000000 0.022072
#
#
# Mechanical properties :
#
#
# Convention : Reuss Voigt Hill
#
# Bulk Modulus (GPa) = 17.83103 57.28010 37.55556
# Shear Modulus (GPa) = 13.54998 27.79507 20.67253
#
# Velocity S-wave (km/s) = 2.61647 3.74741 3.23180
# Velocity P-wave (km/s) = 4.25873 6.90392 5.73589
#
# Compressibility (1/GPa) = 0.05608202
#
# Stress axis : x y z
#
# Youngs Moduli (GPa) = 64.83051 39.85546 9.26879
#
# Poissons Ratio (x) = 0.32077 0.07432
# Poissons Ratio (y) = 0.52178 0.27894
# Poissons Ratio (z) = 0.51984 1.19942
#
# Static dielectric constant tensor:
#      x y z
#    x 1.693890 0.000000 0.000000 
#    y 0.000000 1.697590 0.000000 
#    z 0.000000 0.000000 1.668200 
# 
# From -- ./inp_files/13607.got.cif
#   From: 2010.05.17/outbox.cif.g08.bks.cpg/sg65_7_cif.got.tgz:13607.got - 2010.06.03 17:01:31.
