data_PCOD9492729
_publ_section_title
;
Structure prediction by ZEFSAII (Michael W. Deem and Ramdas Pophale) SiO2 
 PCOD9492729
Probable space group: C M M M
;
_chemical_formula_sum "Si O2"
_cell_formula_units_Z 68
_cell_length_a 20.597944
_cell_length_b 17.163890
_cell_length_c 9.870159
_cell_angle_alpha 90.000000
_cell_angle_beta 90.000000
_cell_angle_gamma 90.000000
_cell_volume 3489.504354
_symmetry_space_group_name_H-M "C M M M"
_symmetry_group_IT_number 65
_symmetry_cell_setting 'orthorhombic'
loop_
_space_group_symop_operation_xyz
x,y,z
-x,-y,z
x,-y,-z
-x,y,-z
-x,-y,-z
x,y,-z
-x,y,z
x,-y,z
1/2+x,1/2+y,z
1/2-x,1/2-y,z
1/2+x,1/2-y,-z
1/2-x,1/2+y,-z
1/2-x,1/2-y,-z
1/2+x,1/2+y,-z
1/2-x,1/2+y,z
1/2+x,1/2-y,z
loop_
_atom_site_type_symbol
_atom_site_label
_atom_site_fract_x
_atom_site_fract_y
_atom_site_fract_z
Si Si1 0.422784 0.411388 0.500000
Si Si2 0.254982 0.087468 0.838528
Si Si3 0.000000 0.898363 0.000000
Si Si4 0.000000 0.406446 0.341110
Si Si5 0.889535 0.850887 0.790964
Si Si6 0.612329 0.167459 0.840303
O O1 0.396150 0.500000 0.500000
O O2 0.500000 0.416712 0.500000
O O3 0.402894 0.366644 0.634536
O O4 0.183937 0.121770 0.815167
O O5 0.315214 0.141616 0.797475
O O6 0.260478 0.000000 0.780545
O O7 0.261500 0.081464 0.000000
O O8 0.942539 0.895478 0.117691
O O9 0.938394 0.374098 0.258381
O O10 0.000000 0.500000 0.336985
O O11 0.000000 0.382417 0.500000
O O12 0.896030 0.760125 0.828198
O O13 0.601494 0.146836 0.000000
#
# Coordination Sequence:
#
# PCOD9492729 Si02
#       6
#     8  16   4   8  16  16
#     4  11  26  44  61  88 134 179 216 263 325 393
#     4  10  21  40  64  94 131 171 215 267 326 384
#     4  12  22  38  67  98 127 160 212 264 324 370
#     4  11  26  45  66  96 136 177 216 267 325 387
#     4  12  23  42  65  97 131 169 214 271 323 387
#     4  11  23  40  70  99 130 167 218 275 326 386
#
# _framework density 19.487009
#
# number of rings (size 3 to 8) (size 9 to 14) (size 15 to 20)
#    0.000    0.941    3.529    3.176    1.647    3.765 
#    2.118    3.529    0.000    0.000    0.000    0.000 
#    0.000    0.000    0.000    0.000    0.000    0.000 
#
# Total GULP energy -189426.003999 kJ/mol
# GULP energy per Si atom -5571.353059 kJ/mol
# Density = 1.944266 g / cm^3
# Si number density = 19.487009 Si / 1000 Ang^3
#
#
#
# Elastic Constant Matrix: (Units=GPa)
#
#
# Indices 1 2 3 4 5 6 
#
# 1 154.7938 24.8652 60.3825 0.0000 0.0000 0.0000
# 2 24.8652 63.1629 30.0793 0.0000 0.0000 0.0000
# 3 60.3825 30.0793 146.5205 0.0000 0.0000 0.0000
# 4 0.0000 0.0000 0.0000 26.4427 0.0000 0.0000
# 5 0.0000 0.0000 0.0000 0.0000 -21.8045 0.0000
# 6 0.0000 0.0000 0.0000 0.0000 0.0000 1.9769
#
#
#
# Elastic Compliance Matrix: (Units=1/GPa)
#
#
# Indices 1 2 3 4 5 6 
#
# 1 0.007863 -0.001720 -0.002887 0.000000 0.000000 0.000000
# 2 -0.001720 0.017924 -0.002971 0.000000 0.000000 0.000000
# 3 -0.002887 -0.002971 0.008625 0.000000 0.000000 0.000000
# 4 0.000000 0.000000 0.000000 0.037818 0.000000 0.000000
# 5 0.000000 0.000000 0.000000 0.000000 -0.045862 0.000000
# 6 0.000000 0.000000 0.000000 0.000000 0.000000 0.505853
#
#
# Mechanical properties :
#
#
# Convention : Reuss Voigt Hill
#
# Bulk Modulus (GPa) = 51.93438 66.12567 59.03002
# Shear Modulus (GPa) = 9.02861 17.93302 13.48081
#
# Velocity S-wave (km/s) = 2.15481 3.03686 2.63303
# Velocity P-wave (km/s) = 5.73581 6.80467 6.29298
#
# Compressibility (1/GPa) = 0.01925507
#
# Stress axis : x y z
#
# Youngs Moduli (GPa) = 127.18129 55.79105 115.94672
#
# Poissons Ratio (x) = 0.09598 0.33476
# Poissons Ratio (y) = 0.21880 0.34444
# Poissons Ratio (z) = 0.36719 0.16574
#
# Static dielectric constant tensor:
#      x y z
#    x 1.674200 0.000000 0.000000 
#    y 0.000000 1.717600 0.000000 
#    z 0.000000 0.000000 1.656390 
# 
# From -- ./inp_files/10989.got.cif
#   From: 2010.05.17/outbox.cif.g08.bks.cpg/sg65_6_cif.got.tgz:10989.got - 2010.06.03 17:01:31.
