data_PCOD9492354
_publ_section_title
;
Structure prediction by ZEFSAII (Michael W. Deem and Ramdas Pophale) SiO2 
 PCOD9492354
Probable space group: C M M M
;
_chemical_formula_sum "Si O2"
_cell_formula_units_Z 64
_cell_length_a 8.890925
_cell_length_b 28.339235
_cell_length_c 14.232696
_cell_angle_alpha 90.000000
_cell_angle_beta 90.000000
_cell_angle_gamma 90.000000
_cell_volume 3586.098734
_symmetry_space_group_name_H-M "C M M M"
_symmetry_group_IT_number 65
_symmetry_cell_setting 'orthorhombic'
loop_
_space_group_symop_operation_xyz
x,y,z
-x,-y,z
x,-y,-z
-x,y,-z
-x,-y,-z
x,y,-z
-x,y,z
x,-y,z
1/2+x,1/2+y,z
1/2-x,1/2-y,z
1/2+x,1/2-y,-z
1/2-x,1/2+y,-z
1/2-x,1/2-y,-z
1/2+x,1/2+y,-z
1/2-x,1/2+y,z
1/2+x,1/2-y,z
loop_
_atom_site_type_symbol
_atom_site_label
_atom_site_fract_x
_atom_site_fract_y
_atom_site_fract_z
Si Si1 0.165519 0.555124 0.388562
Si Si2 0.673589 0.621285 0.739023
Si Si3 0.680630 0.946242 0.110773
Si Si4 0.680105 0.197892 0.606946
O O1 0.171101 0.559979 0.500000
O O2 0.167850 0.500000 0.366178
O O3 0.300334 0.581467 0.339985
O O4 0.000000 0.573978 0.357423
O O5 0.500000 0.631955 0.755653
O O6 0.746633 0.595732 0.829320
O O7 0.755544 0.665705 0.690530
O O8 0.500000 0.944548 0.122217
O O9 0.728236 0.000000 0.138667
O O10 0.713628 0.941226 0.000000
O O11 0.716341 0.179843 0.500000
O O12 0.500000 0.200132 0.613297
O O13 0.750000 0.250000 0.613351
#
# Coordination Sequence:
#
# PCOD9492354 Si02
#       4
#    16  16  16  16
#     4   9  18  32  48  67  96 136 178 216 255 303
#     4  12  23  32  49  78 109 140 174 214 263 319
#     4   9  19  37  59  80 104 139 183 227 270 318
#     4  10  21  38  59  81 107 140 179 223 268 315
#
# _framework density 17.846692000000001
#
# number of rings (size 3 to 8) (size 9 to 14) (size 15 to 20)
#    0.000    2.000    0.000    6.000    0.000    9.500 
#    0.000    2.500    0.000    0.750    0.000    0.000 
#    0.000    0.000    0.000    0.000    0.000    0.000 
#
# Total GULP energy -178488.199134 kJ/mol
# GULP energy per Si atom -5577.756223 kJ/mol
# Density = 1.780607 g / cm^3
# Si number density = 17.846692 Si / 1000 Ang^3
#
#
#
# Elastic Constant Matrix: (Units=GPa)
#
#
# Indices 1 2 3 4 5 6 
#
# 1 78.4922 44.4960 43.0231 0.0000 0.0000 0.0000
# 2 44.4960 97.1574 54.5144 0.0000 0.0000 0.0000
# 3 43.0231 54.5144 110.4471 0.0000 0.0000 0.0000
# 4 0.0000 0.0000 0.0000 35.0893 0.0000 0.0000
# 5 0.0000 0.0000 0.0000 0.0000 12.2809 0.0000
# 6 0.0000 0.0000 0.0000 0.0000 0.0000 28.7612
#
#
#
# Elastic Compliance Matrix: (Units=1/GPa)
#
#
# Indices 1 2 3 4 5 6 
#
# 1 0.018508 -0.006128 -0.004185 0.000000 0.000000 0.000000
# 2 -0.006128 0.016264 -0.005640 0.000000 0.000000 0.000000
# 3 -0.004185 -0.005640 0.013468 0.000000 0.000000 0.000000
# 4 0.000000 0.000000 0.000000 0.028499 0.000000 0.000000
# 5 0.000000 0.000000 0.000000 0.000000 0.081427 0.000000
# 6 0.000000 0.000000 0.000000 0.000000 0.000000 0.034769
#
#
# Mechanical properties :
#
#
# Convention : Reuss Voigt Hill
#
# Bulk Modulus (GPa) = 61.22437 63.35153 62.28795
# Shear Modulus (GPa) = 21.71213 24.83049 23.27131
#
# Velocity S-wave (km/s) = 3.49175 3.73409 3.61495
# Velocity P-wave (km/s) = 7.11594 7.35975 7.23887
#
# Compressibility (1/GPa) = 0.01633337
#
# Stress axis : x y z
#
# Youngs Moduli (GPa) = 54.03132 61.48576 74.24899
#
# Poissons Ratio (x) = 0.37679 0.31071
# Poissons Ratio (y) = 0.33111 0.41879
# Poissons Ratio (z) = 0.22611 0.34681
#
# Static dielectric constant tensor:
#      x y z
#    x 1.619360 0.000000 0.000000 
#    y 0.000000 1.619900 0.000000 
#    z 0.000000 0.000000 1.627880 
# 
# From -- ./inp_files/36813.got.cif
#   From: 2010.05.17/outbox.cif.g08.bks.cpg/sg65_19_cif.got.tgz:36813.got - 2010.06.03 17:01:31.
