data_PCOD9492534
_publ_section_title
;
Structure prediction by ZEFSAII (Michael W. Deem and Ramdas Pophale) SiO2 
 PCOD9492534
Probable space group: C M M M
;
_chemical_formula_sum "Si O2"
_cell_formula_units_Z 80
_cell_length_a 8.764777
_cell_length_b 24.196579
_cell_length_c 20.593167
_cell_angle_alpha 90.000000
_cell_angle_beta 90.000000
_cell_angle_gamma 90.000000
_cell_volume 4367.349827
_symmetry_space_group_name_H-M "C M M M"
_symmetry_group_IT_number 65
_symmetry_cell_setting 'orthorhombic'
loop_
_space_group_symop_operation_xyz
x,y,z
-x,-y,z
x,-y,-z
-x,y,-z
-x,-y,-z
x,y,-z
-x,y,z
x,-y,z
1/2+x,1/2+y,z
1/2-x,1/2-y,z
1/2+x,1/2-y,-z
1/2-x,1/2+y,-z
1/2-x,1/2-y,-z
1/2+x,1/2+y,-z
1/2-x,1/2+y,z
1/2+x,1/2-y,z
loop_
_atom_site_type_symbol
_atom_site_label
_atom_site_fract_x
_atom_site_fract_y
_atom_site_fract_z
Si Si1 0.318143 0.500000 0.740840
Si Si2 0.681665 0.000000 0.883947
Si Si3 0.318459 0.383515 0.074681
Si Si4 0.182158 0.879549 0.310374
Si Si5 0.182382 0.689954 0.575871
Si Si6 0.317728 0.188634 0.810211
O O1 0.500000 0.500000 0.756800
O O2 0.225856 0.500000 0.807887
O O3 0.285267 0.444154 0.701581
O O4 0.753277 0.944917 0.914455
O O5 0.500000 0.000000 0.892113
O O6 0.500000 0.384099 0.087352
O O7 0.238428 0.342996 0.125447
O O8 0.293221 0.366917 0.000000
O O9 0.247749 0.855654 0.377027
O O10 0.256044 0.845482 0.251356
O O11 0.000000 0.871868 0.308681
O O12 0.219146 0.680095 0.500000
O O13 0.250000 0.750000 0.593695
O O14 0.000000 0.691566 0.582914
O O15 0.500000 0.190630 0.808374
O O16 0.250000 0.250000 0.808608
#
# Coordination Sequence:
#
# PCOD9492534 Si02
#       6
#     8   8  16  16  16  16
#     4  10  22  39  62  87 120 159 198 245 299 354
#     4  12  23  37  62  92 121 155 198 250 300 356
#     4  11  24  42  63  87 119 158 199 248 304 360
#     4  11  22  39  63  90 121 158 200 247 298 355
#     4  10  21  38  61  90 124 161 201 247 297 350
#     4  12  25  41  62  88 119 156 200 248 302 363
#
# _framework density 18.317744000000001
#
# number of rings (size 3 to 8) (size 9 to 14) (size 15 to 20)
#    0.000    1.000    2.000    5.400    0.000    5.200 
#    0.000    0.500    0.000    3.000    0.000    0.000 
#    0.000    0.000    0.000    0.000    0.000    0.000 
#
# Total GULP energy -223779.968143 kJ/mol
# GULP energy per Si atom -5594.499204 kJ/mol
# Density = 1.827605 g / cm^3
# Si number density = 18.317744 Si / 1000 Ang^3
#
#
#
# Elastic Constant Matrix: (Units=GPa)
#
#
# Indices 1 2 3 4 5 6 
#
# 1 109.5325 66.1397 63.8865 0.0000 0.0000 0.0000
# 2 66.1397 148.4704 66.7922 0.0000 0.0000 0.0000
# 3 63.8865 66.7922 98.8724 0.0000 0.0000 0.0000
# 4 0.0000 0.0000 0.0000 24.0131 0.0000 0.0000
# 5 0.0000 0.0000 0.0000 0.0000 34.4030 0.0000
# 6 0.0000 0.0000 0.0000 0.0000 0.0000 37.3712
#
#
#
# Elastic Compliance Matrix: (Units=1/GPa)
#
#
# Indices 1 2 3 4 5 6 
#
# 1 0.015837 -0.003522 -0.007854 0.000000 0.000000 0.000000
# 2 -0.003522 0.010459 -0.004790 0.000000 0.000000 0.000000
# 3 -0.007854 -0.004790 0.018425 0.000000 0.000000 0.000000
# 4 0.000000 0.000000 0.000000 0.041644 0.000000 0.000000
# 5 0.000000 0.000000 0.000000 0.000000 0.029067 0.000000
# 6 0.000000 0.000000 0.000000 0.000000 0.000000 0.026759
#
#
# Mechanical properties :
#
#
# Convention : Reuss Voigt Hill
#
# Bulk Modulus (GPa) = 80.71391 83.39023 82.05207
# Shear Modulus (GPa) = 27.98727 29.82791 28.90759
#
# Velocity S-wave (km/s) = 3.91305 4.03967 3.97686
# Velocity P-wave (km/s) = 8.03585 8.20864 8.12270
#
# Compressibility (1/GPa) = 0.01238944
#
# Stress axis : x y z
#
# Youngs Moduli (GPa) = 63.14174 95.61116 54.27456
#
# Poissons Ratio (x) = 0.33672 0.42629
# Poissons Ratio (y) = 0.22237 0.25997
# Poissons Ratio (z) = 0.49593 0.45797
#
# Static dielectric constant tensor:
#      x y z
#    x 1.612070 0.000000 0.000000 
#    y 0.000000 1.600390 0.000000 
#    z 0.000000 0.000000 1.612120 
# 
# From -- ./inp_files/59612.got.cif
#   From: 2010.05.17/outbox.cif.g08.bks.cpg/sg65_30_cif.got.tgz:59612.got - 2010.06.03 17:01:31.
