data_PCOD9492779
_publ_section_title
;
Structure prediction by ZEFSAII (Michael W. Deem and Ramdas Pophale) SiO2 
 PCOD9492779
Probable space group: C M M M
;
_chemical_formula_sum "Si O2"
_cell_formula_units_Z 88
_cell_length_a 21.466836
_cell_length_b 25.141389
_cell_length_c 7.519507
_cell_angle_alpha 90.000000
_cell_angle_beta 90.000000
_cell_angle_gamma 90.000000
_cell_volume 4058.323605
_symmetry_space_group_name_H-M "C M M M"
_symmetry_group_IT_number 65
_symmetry_cell_setting 'orthorhombic'
loop_
_space_group_symop_operation_xyz
x,y,z
-x,-y,z
x,-y,-z
-x,y,-z
-x,-y,-z
x,y,-z
-x,y,z
x,-y,z
1/2+x,1/2+y,z
1/2-x,1/2-y,z
1/2+x,1/2-y,-z
1/2-x,1/2+y,-z
1/2-x,1/2-y,-z
1/2+x,1/2+y,-z
1/2-x,1/2+y,z
1/2+x,1/2-y,z
loop_
_atom_site_type_symbol
_atom_site_label
_atom_site_fract_x
_atom_site_fract_y
_atom_site_fract_z
Si Si1 0.308352 0.784281 0.205920
Si Si2 0.000000 0.563109 0.782980
Si Si3 0.296415 0.000000 0.782390
Si Si4 0.866985 0.606504 0.782622
Si Si5 0.841283 0.000000 0.792290
Si Si6 0.568182 0.404584 0.287360
Si Si7 0.570617 0.283260 0.284216
O O1 0.250000 0.750000 0.282145
O O2 0.329857 0.841380 0.282309
O O3 0.371946 0.750456 0.214134
O O4 0.290930 0.794431 0.000000
O O5 0.938323 0.595480 0.727339
O O6 0.000000 0.500000 0.728389
O O7 0.000000 0.561294 0.000000
O O8 0.330909 0.053467 0.729191
O O9 0.226696 0.000000 0.710786
O O10 0.298003 0.000000 0.000000
O O11 0.868162 0.609986 0.000000
O O12 0.880260 0.052427 0.751945
O O13 0.830812 0.000000 0.000000
O O14 0.564658 0.401050 0.500000
O O15 0.500000 0.422236 0.221667
O O16 0.579345 0.344514 0.225353
O O17 0.572804 0.281266 0.500000
O O18 0.500000 0.266673 0.232086
#
# Coordination Sequence:
#
# PCOD9492779 Si02
#       7
#    16   8   8  16   8  16  16
#     4  10  22  35  53  81 114 146 177 222 279 335
#     4   9  14  24  46  72  97 131 175 218 255 306
#     4   9  18  31  46  68 106 147 172 203 257 324
#     4   9  17  30  47  71 105 140 173 210 262 322
#     4  11  22  30  50  82 109 138 173 216 270 322
#     4   9  19  37  57  74  99 139 181 220 265 318
#     4   9  20  39  59  78 104 143 188 228 270 324
#
# _framework density 21.683828999999999
#
# number of rings (size 3 to 8) (size 9 to 14) (size 15 to 20)
#    0.000    2.636    0.909    1.636    3.818    2.909 
#    0.000    1.818    0.000    0.000    0.000    0.000 
#    0.000    2.182    0.000    0.000    0.000    0.000 
#
# Total GULP energy -245502.400851 kJ/mol
# GULP energy per Si atom -5579.600019 kJ/mol
# Density = 2.163448 g / cm^3
# Si number density = 21.683829 Si / 1000 Ang^3
#
#
#
# Elastic Constant Matrix: (Units=GPa)
#
#
# Indices 1 2 3 4 5 6 
#
# 1 183.7901 123.8946 -2.8240 0.0000 0.0000 0.0000
# 2 123.8946 162.4173 1.5747 0.0000 0.0000 0.0000
# 3 -2.8240 1.5747 52.8813 0.0000 0.0000 0.0000
# 4 0.0000 0.0000 0.0000 9.3643 0.0000 0.0000
# 5 0.0000 0.0000 0.0000 0.0000 18.4921 0.0000
# 6 0.0000 0.0000 0.0000 0.0000 0.0000 40.3183
#
#
#
# Elastic Compliance Matrix: (Units=1/GPa)
#
#
# Indices 1 2 3 4 5 6 
#
# 1 0.011239 -0.008582 0.000856 0.000000 0.000000 0.000000
# 2 -0.008582 0.012711 -0.000837 0.000000 0.000000 0.000000
# 3 0.000856 -0.000837 0.018981 0.000000 0.000000 0.000000
# 4 0.000000 0.000000 0.000000 0.106788 0.000000 0.000000
# 5 0.000000 0.000000 0.000000 0.000000 0.054077 0.000000
# 6 0.000000 0.000000 0.000000 0.000000 0.000000 0.024803
#
#
# Mechanical properties :
#
#
# Convention : Reuss Voigt Hill
#
# Bulk Modulus (GPa) = 38.75089 71.59771 55.17430
# Shear Modulus (GPa) = 19.65975 32.06450 25.86212
#
# Velocity S-wave (km/s) = 3.01434 3.84960 3.45728
# Velocity P-wave (km/s) = 5.47947 7.26979 6.43718
#
# Compressibility (1/GPa) = 0.02580586
#
# Stress axis : x y z
#
# Youngs Moduli (GPa) = 88.97470 78.66975 52.68459
#
# Poissons Ratio (x) = 0.67512 -0.04508
# Poissons Ratio (y) = 0.76356 0.04409
# Poissons Ratio (z) = -0.07614 0.06583
#
# Static dielectric constant tensor:
#      x y z
#    x 1.821510 0.000000 0.000000 
#    y 0.000000 1.687230 0.000000 
#    z 0.000000 0.000000 1.837860 
# 
# From -- ./inp_files/11910.got.cif
#   From: 2010.05.17/outbox.cif.g08.bks.cpg/sg65_6_cif.got.tgz:11910.got - 2010.06.03 17:01:31.
