data_PCOD9492528
_publ_section_title
;
Structure prediction by ZEFSAII (Michael W. Deem and Ramdas Pophale) SiO2 
 PCOD9492528
Probable space group: C M M M
;
_chemical_formula_sum "Si O2"
_cell_formula_units_Z 64
_cell_length_a 15.661345
_cell_length_b 22.586437
_cell_length_c 9.219299
_cell_angle_alpha 90.000000
_cell_angle_beta 90.000000
_cell_angle_gamma 90.000000
_cell_volume 3261.179348
_symmetry_space_group_name_H-M "C M M M"
_symmetry_group_IT_number 65
_symmetry_cell_setting 'orthorhombic'
loop_
_space_group_symop_operation_xyz
x,y,z
-x,-y,z
x,-y,-z
-x,y,-z
-x,-y,-z
x,y,-z
-x,y,z
x,-y,z
1/2+x,1/2+y,z
1/2-x,1/2-y,z
1/2+x,1/2-y,-z
1/2-x,1/2+y,-z
1/2-x,1/2-y,-z
1/2+x,1/2+y,-z
1/2-x,1/2+y,z
1/2+x,1/2-y,z
loop_
_atom_site_type_symbol
_atom_site_label
_atom_site_fract_x
_atom_site_fract_y
_atom_site_fract_z
Si Si1 0.000000 0.429939 0.836147
Si Si2 0.634203 0.142611 0.331880
Si Si3 0.337363 0.380566 0.670059
Si Si4 0.602743 0.500000 0.170476
Si Si5 0.646886 0.738964 0.833002
O O1 0.917941 0.406796 0.751833
O O2 0.000000 0.500000 0.840574
O O3 0.000000 0.406334 0.000000
O O4 0.610516 0.145057 0.500000
O O5 0.734818 0.128237 0.323647
O O6 0.613603 0.204982 0.255895
O O7 0.362198 0.381548 0.500000
O O8 0.363559 0.440990 0.749662
O O9 0.372690 0.322696 0.753130
O O10 0.500000 0.500000 0.177805
O O11 0.627719 0.500000 0.000000
O O12 0.750000 0.750000 0.833978
O O13 0.618490 0.738017 0.000000
#
# Coordination Sequence:
#
# PCOD9492528 Si02
#       5
#     8  16  16   8  16
#     4  11  25  41  57  85 123 162 203 248 293 345
#     4  10  21  38  61  89 121 157 198 244 295 352
#     4  10  21  38  63  91 119 155 197 243 298 358
#     4  11  25  43  61  86 119 154 197 247 298 355
#     4   9  17  33  59  89 119 152 193 241 291 347
#
# _framework density 19.624804000000001
#
# number of rings (size 3 to 8) (size 9 to 14) (size 15 to 20)
#    0.000    2.000    0.000    3.000    1.750    8.000 
#    2.250    0.000    0.000    0.000    0.000    0.000 
#    0.000    0.000    0.000    0.000    0.000    0.000 
#
# Total GULP energy -178795.549206 kJ/mol
# GULP energy per Si atom -5587.360913 kJ/mol
# Density = 1.958014 g / cm^3
# Si number density = 19.624804 Si / 1000 Ang^3
#
#
#
# Elastic Constant Matrix: (Units=GPa)
#
#
# Indices 1 2 3 4 5 6 
#
# 1 27.2910 22.4274 37.7254 0.0000 0.0000 0.0000
# 2 22.4274 174.0522 107.8343 0.0000 0.0000 0.0000
# 3 37.7254 107.8343 222.2980 0.0000 0.0000 0.0000
# 4 0.0000 0.0000 0.0000 83.6355 0.0000 0.0000
# 5 0.0000 0.0000 0.0000 0.0000 9.5174 0.0000
# 6 0.0000 0.0000 0.0000 0.0000 0.0000 41.2918
#
#
#
# Elastic Compliance Matrix: (Units=1/GPa)
#
#
# Indices 1 2 3 4 5 6 
#
# 1 0.048195 -0.001634 -0.007386 0.000000 0.000000 0.000000
# 2 -0.001634 0.008269 -0.003734 0.000000 0.000000 0.000000
# 3 -0.007386 -0.003734 0.007563 0.000000 0.000000 0.000000
# 4 0.000000 0.000000 0.000000 0.011957 0.000000 0.000000
# 5 0.000000 0.000000 0.000000 0.000000 0.105071 0.000000
# 6 0.000000 0.000000 0.000000 0.000000 0.000000 0.024218
#
#
# Mechanical properties :
#
#
# Convention : Reuss Voigt Hill
#
# Bulk Modulus (GPa) = 25.96104 84.40170 55.18137
# Shear Modulus (GPa) = 20.52356 43.93255 32.22805
#
# Velocity S-wave (km/s) = 3.23739 4.73654 4.05682
# Velocity P-wave (km/s) = 5.21839 8.54483 7.07975
#
# Compressibility (1/GPa) = 0.03851927
#
# Stress axis : x y z
#
# Youngs Moduli (GPa) = 20.74884 120.92757 132.21601
#
# Poissons Ratio (x) = 0.19758 0.97661
# Poissons Ratio (y) = 0.03390 0.49371
# Poissons Ratio (z) = 0.15326 0.45156
#
# Static dielectric constant tensor:
#      x y z
#    x 1.741680 0.000000 0.000000 
#    y 0.000000 1.641720 0.000000 
#    z 0.000000 0.000000 1.663220 
# 
# From -- ./inp_files/8830.got.cif
#   From: 2010.05.17/outbox.cif.g08.bks.cpg/sg65_5_cif.got.tgz:8830.got - 2010.06.03 17:01:31.
