data_PCOD9492015
_publ_section_title
;
Structure prediction by ZEFSAII (Michael W. Deem and Ramdas Pophale) SiO2 
 PCOD9492015
Probable space group: C M M M
;
_chemical_formula_sum "Si O2"
_cell_formula_units_Z 104
_cell_length_a 22.065612
_cell_length_b 9.207227
_cell_length_c 26.055137
_cell_angle_alpha 90.000000
_cell_angle_beta 90.000000
_cell_angle_gamma 90.000000
_cell_volume 5293.442367
_symmetry_space_group_name_H-M "C M M M"
_symmetry_group_IT_number 65
_symmetry_cell_setting 'orthorhombic'
loop_
_space_group_symop_operation_xyz
x,y,z
-x,-y,z
x,-y,-z
-x,y,-z
-x,-y,-z
x,y,-z
-x,y,z
x,-y,z
1/2+x,1/2+y,z
1/2-x,1/2-y,z
1/2+x,1/2-y,-z
1/2-x,1/2+y,-z
1/2-x,1/2-y,-z
1/2+x,1/2+y,-z
1/2-x,1/2+y,z
1/2+x,1/2-y,z
loop_
_atom_site_type_symbol
_atom_site_label
_atom_site_fract_x
_atom_site_fract_y
_atom_site_fract_z
Si Si1 0.000000 0.669190 0.939186
Si Si2 0.569061 0.327433 0.756505
Si Si3 0.689029 0.166717 0.282542
Si Si4 0.600745 0.671320 0.875527
Si Si5 0.313755 0.827009 0.056513
Si Si6 0.189483 0.333953 0.593680
Si Si7 0.567751 0.331359 0.561914
O O1 0.055375 0.754734 0.915106
O O2 0.000000 0.500000 0.923137
O O3 0.000000 0.673020 0.000000
O O4 0.500000 0.281434 0.742385
O O5 0.573906 0.500000 0.745151
O O6 0.625848 0.244334 0.731897
O O7 0.577388 0.309362 0.817834
O O8 0.750000 0.250000 0.264288
O O9 0.692315 0.164344 0.344427
O O10 0.689295 0.000000 0.264149
O O11 0.607147 0.500000 0.884591
O O12 0.660119 0.757217 0.891699
O O13 0.250000 0.750000 0.051407
O O14 0.310398 0.000000 0.061653
O O15 0.345004 0.800463 0.000000
O O16 0.190364 0.500000 0.575075
O O17 0.250000 0.250000 0.575263
O O18 0.126107 0.258033 0.579424
O O19 0.567298 0.329027 0.500000
O O20 0.500000 0.281272 0.578931
O O21 0.574243 0.500000 0.578193
#
# Coordination Sequence:
#
# PCOD9492015 Si02
#       7
#     8  16  16  16  16  16  16
#     4  11  23  37  55  81 111 143 179 219 266 323
#     4  10  22  41  61  84 116 151 189 235 286 344
#     4  10  22  40  62  88 116 151 195 243 296 353
#     4  11  22  38  58  81 109 142 180 222 270 326
#     4  10  21  37  56  80 109 141 179 221 267 323
#     4  10  21  37  58  85 117 152 196 247 297 353
#     4   9  19  36  57  83 118 160 204 247 294 352
#
# _framework density 19.64695
#
# number of rings (size 3 to 8) (size 9 to 14) (size 15 to 20)
#    0.000    1.923    0.769    3.000    0.000    8.923 
#    0.000    3.846    0.000    0.000    0.000    0.000 
#    0.000    0.000    0.000    0.000    0.000    0.000 
#
# Total GULP energy -289915.119980 kJ/mol
# GULP energy per Si atom -5575.290769 kJ/mol
# Density = 1.960223 g / cm^3
# Si number density = 19.646950 Si / 1000 Ang^3
#
#
#
# Elastic Constant Matrix: (Units=GPa)
#
#
# Indices 1 2 3 4 5 6 
#
# 1 172.5513 83.3847 17.0839 0.0000 0.0000 0.0000
# 2 83.3847 115.3998 23.7834 0.0000 0.0000 0.0000
# 3 17.0839 23.7834 10.6652 0.0000 0.0000 0.0000
# 4 0.0000 0.0000 0.0000 21.6585 0.0000 0.0000
# 5 0.0000 0.0000 0.0000 0.0000 65.2711 0.0000
# 6 0.0000 0.0000 0.0000 0.0000 0.0000 31.4916
#
#
#
# Elastic Compliance Matrix: (Units=1/GPa)
#
#
# Indices 1 2 3 4 5 6 
#
# 1 0.008905 -0.006467 0.000157 0.000000 0.000000 0.000000
# 2 -0.006467 0.020731 -0.035872 0.000000 0.000000 0.000000
# 3 0.000157 -0.035872 0.173507 0.000000 0.000000 0.000000
# 4 0.000000 0.000000 0.000000 0.046171 0.000000 0.000000
# 5 0.000000 0.000000 0.000000 0.000000 0.015321 0.000000
# 6 0.000000 0.000000 0.000000 0.000000 0.000000 0.031754
#
#
# Mechanical properties :
#
#
# Convention : Reuss Voigt Hill
#
# Bulk Modulus (GPa) = 8.41904 60.79113 34.60508
# Shear Modulus (GPa) = 11.89494 35.30854 23.60174
#
# Velocity S-wave (km/s) = 2.46323 4.24388 3.46973
# Velocity P-wave (km/s) = 3.51915 7.41775 5.80549
#
# Compressibility (1/GPa) = 0.11877846
#
# Stress axis : x y z
#
# Youngs Moduli (GPa) = 112.29806 48.23636 5.76346
#
# Poissons Ratio (x) = 0.31193 -0.00090
# Poissons Ratio (y) = 0.72619 0.20675
# Poissons Ratio (z) = -0.01758 1.73034
#
# Static dielectric constant tensor:
#      x y z
#    x 1.509330 0.000000 0.000000 
#    y 0.000000 1.667940 0.000000 
#    z 0.000000 0.000000 1.700520 
# 
# From -- ./inp_files/75518.got.cif
#   From: 2010.05.17/outbox.cif.g08.bks.cpg/sg65_38_cif.got.tgz:75518.got - 2010.06.03 17:01:31.
