data_PCOD9492935
_publ_section_title
;
Structure prediction by ZEFSAII (Michael W. Deem and Ramdas Pophale) SiO2 
 PCOD9492935
Probable space group: C M M M
;
_chemical_formula_sum "Si O2"
_cell_formula_units_Z 112
_cell_length_a 13.595399
_cell_length_b 14.288332
_cell_length_c 24.464095
_cell_angle_alpha 90.000000
_cell_angle_beta 90.000000
_cell_angle_gamma 90.000000
_cell_volume 4752.286831
_symmetry_space_group_name_H-M "C M M M"
_symmetry_group_IT_number 65
_symmetry_cell_setting 'orthorhombic'
loop_
_space_group_symop_operation_xyz
x,y,z
-x,-y,z
x,-y,-z
-x,y,-z
-x,-y,-z
x,y,-z
-x,y,z
x,-y,z
1/2+x,1/2+y,z
1/2-x,1/2-y,z
1/2+x,1/2-y,-z
1/2-x,1/2+y,-z
1/2-x,1/2-y,-z
1/2+x,1/2+y,-z
1/2-x,1/2+y,z
1/2+x,1/2-y,z
loop_
_atom_site_type_symbol
_atom_site_label
_atom_site_fract_x
_atom_site_fract_y
_atom_site_fract_z
Si Si1 0.880013 0.106906 0.598860
Si Si2 0.106030 0.107970 0.718671
Si Si3 0.389330 0.694289 0.935036
Si Si4 0.381788 0.108272 0.674073
Si Si5 0.879932 0.303312 0.558987
Si Si6 0.312444 0.895484 0.901346
Si Si7 0.714164 0.150974 0.214271
O O1 0.857469 0.144492 0.660362
O O2 0.850155 0.193849 0.561487
O O3 0.000000 0.102466 0.596563
O O4 0.845384 0.000000 0.588105
O O5 0.183555 0.108282 0.766248
O O6 0.000000 0.149563 0.732915
O O7 0.092826 0.000000 0.704353
O O8 0.500000 0.673312 0.915291
O O9 0.367452 0.805178 0.926075
O O10 0.303059 0.631954 0.908563
O O11 0.384666 0.677216 0.000000
O O12 0.500000 0.111025 0.674005
O O13 0.348607 0.145004 0.614689
O O14 0.345975 0.159354 0.729286
O O15 0.349400 0.000000 0.680440
O O16 0.852454 0.344685 0.500000
O O17 0.000000 0.304777 0.560862
O O18 0.336395 0.897293 0.836537
O O19 0.331070 0.000000 0.923815
O O20 0.750000 0.250000 0.192660
#
# Coordination Sequence:
#
# PCOD9492935 Si02
#       7
#    16  16  16  16  16  16  16
#     4   8  14  26  45  72 106 142 182 232 295 368
#     4   9  18  33  54  80 110 147 192 241 298 370
#     4  10  23  45  70 100 140 184 230 279 330 384
#     4  10  22  39  58  83 117 159 207 256 309 376
#     4   9  17  30  50  77 108 145 194 251 311 375
#     4  11  23  42  66  99 140 180 226 280 335 392
#     4  12  23  38  60  88 125 165 203 255 318 377
#
# _framework density 23.567602000000001
#
# number of rings (size 3 to 8) (size 9 to 14) (size 15 to 20)
#    0.000    2.143    1.429    3.857    0.000    5.143 
#    0.000    4.286    0.000    3.857    0.000    4.000 
#    0.000    0.000    0.000    0.000    0.000    0.000 
#
# Total GULP energy -312611.123039 kJ/mol
# GULP energy per Si atom -5582.341483 kJ/mol
# Density = 2.351396 g / cm^3
# Si number density = 23.567602 Si / 1000 Ang^3
#
#
#
# Elastic Constant Matrix: (Units=GPa)
#
#
# Indices 1 2 3 4 5 6 
#
# 1 65.6608 -21.7587 7.5482 0.0000 0.0000 0.0000
# 2 -21.7587 62.9007 -1.6356 0.0000 0.0000 0.0000
# 3 7.5482 -1.6356 93.9941 0.0000 0.0000 0.0000
# 4 0.0000 0.0000 0.0000 30.2956 0.0000 0.0000
# 5 0.0000 0.0000 0.0000 0.0000 90.8348 0.0000
# 6 0.0000 0.0000 0.0000 0.0000 0.0000 17.1097
#
#
#
# Elastic Compliance Matrix: (Units=1/GPa)
#
#
# Indices 1 2 3 4 5 6 
#
# 1 0.017357 0.005970 -0.001290 0.000000 0.000000 0.000000
# 2 0.005970 0.017959 -0.000167 0.000000 0.000000 0.000000
# 3 -0.001290 -0.000167 0.010740 0.000000 0.000000 0.000000
# 4 0.000000 0.000000 0.000000 0.033008 0.000000 0.000000
# 5 0.000000 0.000000 0.000000 0.000000 0.011009 0.000000
# 6 0.000000 0.000000 0.000000 0.000000 0.000000 0.058446
#
#
# Mechanical properties :
#
#
# Convention : Reuss Voigt Hill
#
# Bulk Modulus (GPa) = 18.15460 21.20704 19.68082
# Shear Modulus (GPa) = 31.67516 43.54147 37.60831
#
# Velocity S-wave (km/s) = 3.67006 4.30293 3.99903
# Velocity P-wave (km/s) = 5.06745 5.80559 5.44903
#
# Compressibility (1/GPa) = 0.05508245
#
# Stress axis : x y z
#
# Youngs Moduli (GPa) = 57.61512 55.68221 93.11295
#
# Poissons Ratio (x) = -0.33245 0.12011
# Poissons Ratio (y) = -0.34399 0.01554
# Poissons Ratio (z) = 0.07432 0.00930
#
# Static dielectric constant tensor:
#      x y z
#    x 1.951140 0.000000 0.000000 
#    y 0.000000 1.839860 0.000000 
#    z 0.000000 0.000000 1.876270 
# 
# From -- ./inp_files/70039.got.cif
#   From: 2010.05.17/outbox.cif.g08.bks.cpg/sg65_36_cif.got.tgz:70039.got - 2010.06.03 17:01:31.
