data_PCOD9492881
_publ_section_title
;
Structure prediction by ZEFSAII (Michael W. Deem and Ramdas Pophale) SiO2 
 PCOD9492881
Probable space group: C M M M
;
_chemical_formula_sum "Si O2"
_cell_formula_units_Z 66
_cell_length_a 9.452113
_cell_length_b 18.160833
_cell_length_c 21.101978
_cell_angle_alpha 90.000000
_cell_angle_beta 90.000000
_cell_angle_gamma 90.000000
_cell_volume 3622.328524
_symmetry_space_group_name_H-M "C M M M"
_symmetry_group_IT_number 65
_symmetry_cell_setting 'orthorhombic'
loop_
_space_group_symop_operation_xyz
x,y,z
-x,-y,z
x,-y,-z
-x,y,-z
-x,-y,-z
x,y,-z
-x,y,z
x,-y,z
1/2+x,1/2+y,z
1/2-x,1/2-y,z
1/2+x,1/2-y,-z
1/2-x,1/2+y,-z
1/2-x,1/2-y,-z
1/2+x,1/2+y,-z
1/2-x,1/2+y,z
1/2+x,1/2-y,z
loop_
_atom_site_type_symbol
_atom_site_label
_atom_site_fract_x
_atom_site_fract_y
_atom_site_fract_z
Si Si1 0.331727 0.087214 0.766527
Si Si2 0.500000 0.000000 0.000000
Si Si3 0.791067 0.082051 0.000000
Si Si4 0.331037 0.827510 0.500000
Si Si5 0.669103 0.827663 0.638595
Si Si6 0.163483 0.825065 0.873795
O O1 0.500000 0.099298 0.778451
O O2 0.298001 0.119440 0.697124
O O3 0.239397 0.129061 0.818364
O O4 0.306702 0.000000 0.769394
O O5 0.624323 0.063544 0.000000
O O6 0.830208 0.127247 0.062248
O O7 0.854232 0.000000 0.000000
O O8 0.500000 0.815426 0.500000
O O9 0.250000 0.750000 0.500000
O O10 0.297255 0.861345 0.431138
O O11 0.500000 0.813693 0.640461
O O12 0.750000 0.750000 0.645160
O O13 0.250000 0.750000 0.882680
O O14 0.000000 0.809590 0.857771
#
# Coordination Sequence:
#
# PCOD9492881 Si02
#       6
#    16   2   8   8  16  16
#     4  10  22  38  57  79 112 150 189 231 284 341
#     4   8  24  40  70  92 120 160 180 222 284 332
#     4  10  24  41  66  90 119 151 188 220 274 330
#     4   8  14  26  47  73 105 137 177 226 275 328
#     4   9  17  31  51  78 106 141 183 229 279 331
#     4  12  26  41  62  87 116 149 189 237 281 330
#
# _framework density 18.220324999999999
#
# number of rings (size 3 to 8) (size 9 to 14) (size 15 to 20)
#    0.364    1.697    0.000    2.909    3.394    5.333 
#    0.000    0.606    0.000    3.636    0.000    0.000 
#    0.000   11.636    0.000    0.000    0.000    0.000 
#
# Total GULP energy -183740.971009 kJ/mol
# GULP energy per Si atom -5567.908212 kJ/mol
# Density = 1.817885 g / cm^3
# Si number density = 18.220325 Si / 1000 Ang^3
#
#
#
# Elastic Constant Matrix: (Units=GPa)
#
#
# Indices 1 2 3 4 5 6 
#
# 1 89.5714 54.7687 51.0865 0.0000 0.0000 0.0000
# 2 54.7687 119.2434 79.4042 0.0000 0.0000 0.0000
# 3 51.0865 79.4042 174.3838 0.0000 0.0000 0.0000
# 4 0.0000 0.0000 0.0000 -143.6096 0.0000 0.0000
# 5 0.0000 0.0000 0.0000 0.0000 31.8080 0.0000
# 6 0.0000 0.0000 0.0000 0.0000 0.0000 17.9788
#
#
#
# Elastic Compliance Matrix: (Units=1/GPa)
#
#
# Indices 1 2 3 4 5 6 
#
# 1 0.015960 -0.006052 -0.001920 0.000000 0.000000 0.000000
# 2 -0.006052 0.014330 -0.004752 0.000000 0.000000 0.000000
# 3 -0.001920 -0.004752 0.008461 0.000000 0.000000 0.000000
# 4 0.000000 0.000000 0.000000 -0.006963 0.000000 0.000000
# 5 0.000000 0.000000 0.000000 0.000000 0.031439 0.000000
# 6 0.000000 0.000000 0.000000 0.000000 0.000000 0.055621
#
#
# Mechanical properties :
#
#
# Convention : Reuss Voigt Hill
#
# Bulk Modulus (GPa) = 75.17151 83.74637 79.45894
# Shear Modulus (GPa) = 33.61809 -5.56860 14.02474
#
# Velocity S-wave (km/s) = 4.30011 -1.75011 2.77741
# Velocity P-wave (km/s) = 8.12411 6.47913 7.34779
#
# Compressibility (1/GPa) = 0.01330291
#
# Stress axis : x y z
#
# Youngs Moduli (GPa) = 62.65791 69.78157 118.19225
#
# Poissons Ratio (x) = 0.42231 0.22690
# Poissons Ratio (y) = 0.37920 0.56168
# Poissons Ratio (z) = 0.12029 0.33162
#
# Static dielectric constant tensor:
#      x y z
#    x 1.635610 0.000000 0.000000 
#    y 0.000000 1.587250 0.000000 
#    z 0.000000 0.000000 1.653310 
# 
# From -- ./inp_files/59021.got.cif
#   From: 2010.05.17/outbox.cif.g08.bks.cpg/sg65_30_cif.got.tgz:59021.got - 2010.06.03 17:01:31.
