data_PCOD9492701
_publ_section_title
;
Structure prediction by ZEFSAII (Michael W. Deem and Ramdas Pophale) SiO2 
 PCOD9492701
Probable space group: C M M M
;
_chemical_formula_sum "Si O2"
_cell_formula_units_Z 34
_cell_length_a 14.348500
_cell_length_b 15.712824
_cell_length_c 7.202084
_cell_angle_alpha 90.000000
_cell_angle_beta 90.000000
_cell_angle_gamma 90.000000
_cell_volume 1623.749126
_symmetry_space_group_name_H-M "C M M M"
_symmetry_group_IT_number 65
_symmetry_cell_setting 'orthorhombic'
loop_
_space_group_symop_operation_xyz
x,y,z
-x,-y,z
x,-y,-z
-x,y,-z
-x,-y,-z
x,y,-z
-x,y,z
x,-y,z
1/2+x,1/2+y,z
1/2-x,1/2-y,z
1/2+x,1/2-y,-z
1/2-x,1/2+y,-z
1/2-x,1/2-y,-z
1/2+x,1/2+y,-z
1/2-x,1/2+y,z
1/2+x,1/2-y,z
loop_
_atom_site_type_symbol
_atom_site_label
_atom_site_fract_x
_atom_site_fract_y
_atom_site_fract_z
Si Si1 0.299700 0.163915 0.724704
Si Si2 0.324809 0.500000 0.723226
Si Si3 0.000000 0.400474 0.726231
Si Si4 0.000000 0.000000 0.000000
O O1 0.303907 0.168623 0.500000
O O2 0.250000 0.250000 0.789367
O O3 0.236476 0.082863 0.769393
O O4 0.405461 0.146317 0.786257
O O5 0.341033 0.500000 0.500000
O O6 0.418492 0.500000 0.838646
O O7 0.000000 0.500000 0.781512
O O8 0.000000 0.400964 0.500000
#
# Coordination Sequence:
#
# PCOD9492701 Si02
#       4
#    16   8   8   2
#     4   9  17  30  55  89 120 155 202 250 301 362
#     4  10  21  40  61  86 122 161 205 256 303 363
#     4   9  14  25  48  78 112 150 194 242 291 346
#     4  12  26  40  60  84 120 170 206 244 316 376
#
# _framework density 20.939197
#
# number of rings (size 3 to 8) (size 9 to 14) (size 15 to 20)
#    0.000    2.588    2.353    0.353    0.000    1.882 
#    0.000    8.235    0.000    2.824    0.000    0.000 
#    0.000    0.000    0.000    0.000    0.000    0.000 
#
# Total GULP energy -94726.117732 kJ/mol
# GULP energy per Si atom -5572.124572 kJ/mol
# Density = 2.089154 g / cm^3
# Si number density = 20.939197 Si / 1000 Ang^3
#
#
#
# Elastic Constant Matrix: (Units=GPa)
#
#
# Indices 1 2 3 4 5 6 
#
# 1 296.5167 141.2228 51.0783 0.0000 0.0000 0.0000
# 2 141.2228 210.2701 25.4883 0.0000 0.0000 0.0000
# 3 51.0783 25.4883 117.3411 0.0000 0.0000 0.0000
# 4 0.0000 0.0000 0.0000 -22.1448 0.0000 0.0000
# 5 0.0000 0.0000 0.0000 0.0000 92.1990 0.0000
# 6 0.0000 0.0000 0.0000 0.0000 0.0000 -62.8863
#
#
#
# Elastic Compliance Matrix: (Units=1/GPa)
#
#
# Indices 1 2 3 4 5 6 
#
# 1 0.005220 -0.003318 -0.001552 0.000000 0.000000 0.000000
# 2 -0.003318 0.006993 -0.000075 0.000000 0.000000 0.000000
# 3 -0.001552 -0.000075 0.009214 0.000000 0.000000 0.000000
# 4 0.000000 0.000000 0.000000 -0.045157 0.000000 0.000000
# 5 0.000000 0.000000 0.000000 0.000000 0.010846 0.000000
# 6 0.000000 0.000000 0.000000 0.000000 0.000000 -0.015902
#
#
# Mechanical properties :
#
#
# Convention : Reuss Voigt Hill
#
# Bulk Modulus (GPa) = 86.66537 117.74519 102.20528
# Shear Modulus (GPa) = -332.18935 28.52282 -151.83326
#
# Velocity S-wave (km/s) = -12.60909 3.69477 -8.52461
# Velocity P-wave (km/s) = 13.05782 8.63457 6.92643
#
# Compressibility (1/GPa) = 0.01153863
#
# Stress axis : x y z
#
# Youngs Moduli (GPa) = 191.57373 142.99713 108.53288
#
# Poissons Ratio (x) = 0.47443 0.16839
# Poissons Ratio (y) = 0.63560 0.00812
# Poissons Ratio (z) = 0.29724 0.01070
#
# Static dielectric constant tensor:
#      x y z
#    x 1.689450 0.000000 0.000000 
#    y 0.000000 1.712700 0.000000 
#    z 0.000000 0.000000 1.762590 
# 
# From -- ./inp_files/3533.got.cif
#   From: 2010.05.17/outbox.cif.g08.bks.cpg/sg65_2_cif.got.tgz:3533.got - 2010.06.03 17:01:31.
