data_PCOD9492445
_publ_section_title
;
Structure prediction by ZEFSAII (Michael W. Deem and Ramdas Pophale) SiO2 
 PCOD9492445
Probable space group: C M M M
;
_chemical_formula_sum "Si O2"
_cell_formula_units_Z 104
_cell_length_a 22.419178
_cell_length_b 26.682680
_cell_length_c 7.963497
_cell_angle_alpha 90.000000
_cell_angle_beta 90.000000
_cell_angle_gamma 90.000000
_cell_volume 4763.793788
_symmetry_space_group_name_H-M "C M M M"
_symmetry_group_IT_number 65
_symmetry_cell_setting 'orthorhombic'
loop_
_space_group_symop_operation_xyz
x,y,z
-x,-y,z
x,-y,-z
-x,y,-z
-x,-y,-z
x,y,-z
-x,y,z
x,-y,z
1/2+x,1/2+y,z
1/2-x,1/2-y,z
1/2+x,1/2-y,-z
1/2-x,1/2+y,-z
1/2-x,1/2-y,-z
1/2+x,1/2+y,-z
1/2-x,1/2+y,z
1/2+x,1/2-y,z
loop_
_atom_site_type_symbol
_atom_site_label
_atom_site_fract_x
_atom_site_fract_y
_atom_site_fract_z
Si Si1 0.158839 0.715570 0.702133
Si Si2 0.616872 0.392212 0.799322
Si Si3 0.746657 0.359120 0.798341
Si Si4 0.337726 0.055879 0.202000
Si Si5 0.935284 0.792854 0.300384
Si Si6 0.433157 0.871317 0.701950
Si Si7 0.568489 0.500000 0.299418
O O1 0.162169 0.717921 0.500000
O O2 0.223056 0.694186 0.756413
O O3 0.124757 0.765402 0.765203
O O4 0.111511 0.672602 0.756964
O O5 0.681248 0.373148 0.734861
O O6 0.570567 0.351857 0.729093
O O7 0.601468 0.449175 0.755116
O O8 0.616404 0.388136 0.000000
O O9 0.790833 0.402907 0.733933
O O10 0.744973 0.361986 0.000000
O O11 0.402665 0.076777 0.246933
O O12 0.326975 0.000000 0.265777
O O13 0.332502 0.054929 0.000000
O O14 0.936216 0.783019 0.500000
O O15 0.000000 0.775030 0.233863
O O16 0.434893 0.868532 0.500000
O O17 0.500000 0.865440 0.766311
O O18 0.500000 0.500000 0.234836
O O19 0.566234 0.500000 0.500000
#
# Coordination Sequence:
#
# PCOD9492445 Si02
#       7
#    16  16  16  16  16  16   8
#     4   9  18  34  57  82 110 148 193 236 279 335
#     4  11  24  40  62  90 119 153 193 239 290 348
#     4   9  20  37  56  80 112 149 188 233 287 341
#     4   9  18  32  50  69  95 135 180 226 274 331
#     4  10  21  38  60  86 118 155 194 238 291 347
#     4   9  17  30  48  71 101 136 177 226 279 331
#     4  11  25  45  67  91 121 155 192 239 294 349
#
# _framework density 21.831339
#
# number of rings (size 3 to 8) (size 9 to 14) (size 15 to 20)
#    0.000    2.385    0.000    1.615    1.077    8.000 
#    0.000    4.615    0.000    2.769    0.000    0.000 
#    0.000    0.000    0.000    0.000    0.000    0.000 
#
# Total GULP energy -290188.997166 kJ/mol
# GULP energy per Si atom -5580.557638 kJ/mol
# Density = 2.178165 g / cm^3
# Si number density = 21.831339 Si / 1000 Ang^3
#
#
#
# Elastic Constant Matrix: (Units=GPa)
#
#
# Indices 1 2 3 4 5 6 
#
# 1 134.2517 45.0922 3.4735 0.0000 0.0000 0.0000
# 2 45.0922 127.4640 -7.5537 0.0000 0.0000 0.0000
# 3 3.4735 -7.5537 15.5104 0.0000 0.0000 0.0000
# 4 0.0000 0.0000 0.0000 0.0216 0.0000 0.0000
# 5 0.0000 0.0000 0.0000 0.0000 20.9977 0.0000
# 6 0.0000 0.0000 0.0000 0.0000 0.0000 27.0593
#
#
#
# Elastic Compliance Matrix: (Units=1/GPa)
#
#
# Indices 1 2 3 4 5 6 
#
# 1 0.008636 -0.003264 -0.003524 0.000000 0.000000 0.000000
# 2 -0.003264 0.009312 0.005266 0.000000 0.000000 0.000000
# 3 -0.003524 0.005266 0.067827 0.000000 0.000000 0.000000
# 4 0.000000 0.000000 0.000000 46.267450 0.000000 0.000000
# 5 0.000000 0.000000 0.000000 0.000000 0.047624 0.000000
# 6 0.000000 0.000000 0.000000 0.000000 0.000000 0.036956
#
#
# Mechanical properties :
#
#
# Convention : Reuss Voigt Hill
#
# Bulk Modulus (GPa) = 12.08727 39.91668 26.00197
# Shear Modulus (GPa) = 0.10760 25.36333 12.73547
#
# Velocity S-wave (km/s) = 0.22225 3.41220 2.41790
# Velocity P-wave (km/s) = 2.36950 5.81790 4.44198
#
# Compressibility (1/GPa) = 0.08273169
#
# Stress axis : x y z
#
# Youngs Moduli (GPa) = 115.79222 107.38721 14.74348
#
# Poissons Ratio (x) = 0.35051 0.05195
# Poissons Ratio (y) = 0.37794 -0.07764
# Poissons Ratio (z) = 0.40801 -0.56550
#
# Static dielectric constant tensor:
#      x y z
#    x 1.841460 0.000000 0.000000 
#    y 0.000000 1.800800 0.000000 
#    z 0.000000 0.000000 1.778320 
# 
# From -- ./inp_files/12447.got.cif
#   From: 2010.05.17/outbox.cif.g08.bks.cpg/sg65_7_cif.got.tgz:12447.got - 2010.06.03 17:01:31.
