data_PCOD9492488
_publ_section_title
;
Structure prediction by ZEFSAII (Michael W. Deem and Ramdas Pophale) SiO2 
 PCOD9492488
Probable space group: C M M M
;
_chemical_formula_sum "Si O2"
_cell_formula_units_Z 88
_cell_length_a 8.403394
_cell_length_b 18.790942
_cell_length_c 29.326640
_cell_angle_alpha 90.000000
_cell_angle_beta 90.000000
_cell_angle_gamma 90.000000
_cell_volume 4630.901956
_symmetry_space_group_name_H-M "C M M M"
_symmetry_group_IT_number 65
_symmetry_cell_setting 'orthorhombic'
loop_
_space_group_symop_operation_xyz
x,y,z
-x,-y,z
x,-y,-z
-x,y,-z
-x,-y,-z
x,y,-z
-x,y,z
x,-y,z
1/2+x,1/2+y,z
1/2-x,1/2-y,z
1/2+x,1/2-y,-z
1/2-x,1/2+y,-z
1/2-x,1/2-y,-z
1/2+x,1/2+y,-z
1/2-x,1/2+y,z
1/2+x,1/2-y,z
loop_
_atom_site_type_symbol
_atom_site_label
_atom_site_fract_x
_atom_site_fract_y
_atom_site_fract_z
Si Si1 0.309555 0.830655 0.277042
Si Si2 0.808041 0.331555 0.000000
Si Si3 0.807293 0.331473 0.900443
Si Si4 0.190407 0.081338 0.363581
Si Si5 0.809244 0.670435 0.447804
Si Si6 0.694533 0.918064 0.188157
O O1 0.500000 0.829837 0.276363
O O2 0.250000 0.750000 0.276299
O O3 0.254394 0.871007 0.322342
O O4 0.253228 0.873727 0.232366
O O5 0.750000 0.250000 0.000000
O O6 0.755902 0.360091 0.049477
O O7 0.000000 0.333278 0.000000
O O8 0.750000 0.250000 0.895488
O O9 0.752968 0.379148 0.858178
O O10 0.000000 0.330512 0.899845
O O11 0.243404 0.115419 0.411269
O O12 0.000000 0.081512 0.361593
O O13 0.247665 0.000000 0.359255
O O14 0.758976 0.654930 0.500000
O O15 0.750000 0.750000 0.436556
O O16 0.000000 0.669972 0.446104
O O17 0.500000 0.918056 0.188082
O O18 0.746033 0.000000 0.190338
#
# Coordination Sequence:
#
# PCOD9492488 Si02
#       6
#    16   8  16  16  16  16
#     4  11  22  37  58  80 104 136 176 220 265 316
#     4   8  14  24  41  67  95 125 161 204 252 298
#     4   9  16  28  47  70  97 128 166 209 252 303
#     4  11  24  40  58  82 113 146 179 219 267 317
#     4  10  21  38  61  87 115 148 186 226 265 309
#     4   9  18  32  50  73 101 133 168 209 259 312
#
# _framework density 19.002776999999998
#
# number of rings (size 3 to 8) (size 9 to 14) (size 15 to 20)
#    0.000    2.182    0.000    3.273    0.000    3.636 
#    0.000    3.182    0.000    5.455    0.000    0.000 
#    0.000    7.273    0.000    0.000    0.000    0.000 
#
# Total GULP energy -245598.566075 kJ/mol
# GULP energy per Si atom -5581.785593 kJ/mol
# Density = 1.895953 g / cm^3
# Si number density = 19.002777 Si / 1000 Ang^3
#
#
#
# Elastic Constant Matrix: (Units=GPa)
#
#
# Indices 1 2 3 4 5 6 
#
# 1 24.9487 22.8481 24.7476 0.0000 0.0000 0.0000
# 2 22.8481 161.1184 111.5290 0.0000 0.0000 0.0000
# 3 24.7476 111.5290 163.1661 0.0000 0.0000 0.0000
# 4 0.0000 0.0000 0.0000 -9.4691 0.0000 0.0000
# 5 0.0000 0.0000 0.0000 0.0000 6.2968 0.0000
# 6 0.0000 0.0000 0.0000 0.0000 0.0000 18.3420
#
#
#
# Elastic Compliance Matrix: (Units=1/GPa)
#
#
# Indices 1 2 3 4 5 6 
#
# 1 0.048122 -0.003363 -0.005000 0.000000 0.000000 0.000000
# 2 -0.003363 0.012016 -0.007703 0.000000 0.000000 0.000000
# 3 -0.005000 -0.007703 0.012152 0.000000 0.000000 0.000000
# 4 0.000000 0.000000 0.000000 -0.105607 0.000000 0.000000
# 5 0.000000 0.000000 0.000000 0.000000 0.158810 0.000000
# 6 0.000000 0.000000 0.000000 0.000000 0.000000 0.054520
#
#
# Mechanical properties :
#
#
# Convention : Reuss Voigt Hill
#
# Bulk Modulus (GPa) = 24.90182 74.16473 49.53327
# Shear Modulus (GPa) = 22.16996 15.70786 18.93891
#
# Velocity S-wave (km/s) = 3.41936 2.87820 3.16038
# Velocity P-wave (km/s) = 5.35930 7.08226 6.28015
#
# Compressibility (1/GPa) = 0.04015771
#
# Stress axis : x y z
#
# Youngs Moduli (GPa) = 20.78065 83.22446 82.28892
#
# Poissons Ratio (x) = 0.27989 0.41144
# Poissons Ratio (y) = 0.06989 0.63387
# Poissons Ratio (z) = 0.10390 0.64108
#
# Static dielectric constant tensor:
#      x y z
#    x 1.645720 0.000000 0.000000 
#    y 0.000000 1.616800 0.000000 
#    z 0.000000 0.000000 1.674230 
# 
# From -- ./inp_files/76642.got.cif
#   From: 2010.05.17/outbox.cif.g08.bks.cpg/sg65_39_cif.got.tgz:76642.got - 2010.06.03 17:01:31.
