data_PCOD9492946
_publ_section_title
;
Structure prediction by ZEFSAII (Michael W. Deem and Ramdas Pophale) SiO2 
 PCOD9492946
Probable space group: C M M M
;
_chemical_formula_sum "Si O2"
_cell_formula_units_Z 58
_cell_length_a 25.291405
_cell_length_b 9.434162
_cell_length_c 14.357961
_cell_angle_alpha 90.000000
_cell_angle_beta 90.000000
_cell_angle_gamma 90.000000
_cell_volume 3425.855612
_symmetry_space_group_name_H-M "C M M M"
_symmetry_group_IT_number 65
_symmetry_cell_setting 'orthorhombic'
loop_
_space_group_symop_operation_xyz
x,y,z
-x,-y,z
x,-y,-z
-x,y,-z
-x,-y,-z
x,y,-z
-x,y,z
x,-y,z
1/2+x,1/2+y,z
1/2-x,1/2-y,z
1/2+x,1/2-y,-z
1/2-x,1/2+y,-z
1/2-x,1/2-y,-z
1/2+x,1/2+y,-z
1/2-x,1/2+y,z
1/2+x,1/2-y,z
loop_
_atom_site_type_symbol
_atom_site_label
_atom_site_fract_x
_atom_site_fract_y
_atom_site_fract_z
Si Si1 0.894010 0.663591 0.721083
Si Si2 0.000000 0.708670 0.396177
Si Si3 0.563265 0.334210 0.891316
Si Si4 0.195078 0.167155 0.610191
Si Si5 0.000000 0.000000 0.500000
O O1 0.877283 0.500000 0.728411
O O2 0.906857 0.732351 0.820775
O O3 0.850374 0.757414 0.668877
O O4 0.947914 0.670167 0.660997
O O5 0.000000 0.645531 0.500000
O O6 0.000000 0.875716 0.419410
O O7 0.500000 0.315361 0.879483
O O8 0.574834 0.500000 0.871307
O O9 0.575401 0.307916 0.000000
O O10 0.181865 0.177988 0.500000
O O11 0.250000 0.250000 0.624793
O O12 0.199975 0.000000 0.632077
#
# Coordination Sequence:
#
# PCOD9492946 Si02
#       5
#    16   8  16  16   2
#     4  12  23  34  54  82 115 149 183 225 278 333
#     4  10  23  34  51  76 112 147 187 222 274 324
#     4   9  19  35  56  80 108 145 189 232 275 329
#     4  10  22  39  60  82 109 146 190 234 277 324
#     4   8  24  36  50  72 110 152 190 228 268 330
#
# _framework density 16.930078000000002
#
# number of rings (size 3 to 8) (size 9 to 14) (size 15 to 20)
#    0.414    1.379    1.379    3.724    3.862    4.414 
#    0.000    1.379    0.000    0.828    0.000    0.000 
#    0.000    0.000    0.000    0.000    0.000    0.000 
#
# Total GULP energy -161590.667752 kJ/mol
# GULP energy per Si atom -5572.091991 kJ/mol
# Density = 1.689154 g / cm^3
# Si number density = 16.930078 Si / 1000 Ang^3
#
#
#
# Elastic Constant Matrix: (Units=GPa)
#
#
# Indices 1 2 3 4 5 6 
#
# 1 77.3183 62.6608 56.0982 0.0000 0.0000 0.0000
# 2 62.6608 177.0952 74.8967 0.0000 0.0000 0.0000
# 3 56.0982 74.8967 91.1011 0.0000 0.0000 0.0000
# 4 0.0000 0.0000 0.0000 0.4406 0.0000 0.0000
# 5 0.0000 0.0000 0.0000 0.0000 -12.1795 0.0000
# 6 0.0000 0.0000 0.0000 0.0000 0.0000 -15.5859
#
#
#
# Elastic Compliance Matrix: (Units=1/GPa)
#
#
# Indices 1 2 3 4 5 6 
#
# 1 0.024749 -0.003544 -0.012327 0.000000 0.000000 0.000000
# 2 -0.003544 0.009164 -0.005352 0.000000 0.000000 0.000000
# 3 -0.012327 -0.005352 0.022967 0.000000 0.000000 0.000000
# 4 0.000000 0.000000 0.000000 2.269558 0.000000 0.000000
# 5 0.000000 0.000000 0.000000 0.000000 -0.082105 0.000000
# 6 0.000000 0.000000 0.000000 0.000000 0.000000 -0.064160
#
#
# Mechanical properties :
#
#
# Convention : Reuss Voigt Hill
#
# Bulk Modulus (GPa) = 69.27149 81.42512 75.34830
# Shear Modulus (GPa) = 2.24474 4.65895 3.45185
#
# Velocity S-wave (km/s) = 1.15272 1.66068 1.42944
# Velocity P-wave (km/s) = 6.54039 7.20253 6.87943
#
# Compressibility (1/GPa) = 0.01443595
#
# Stress axis : x y z
#
# Youngs Moduli (GPa) = 40.40572 109.12416 43.54069
#
# Poissons Ratio (x) = 0.38671 0.53671
# Poissons Ratio (y) = 0.14319 0.23302
# Poissons Ratio (z) = 0.49806 0.58400
#
# Static dielectric constant tensor:
#      x y z
#    x 1.546550 0.000000 0.000000 
#    y 0.000000 1.576040 0.000000 
#    z 0.000000 0.000000 1.559850 
# 
# From -- ./inp_files/46325.got.cif
#   From: 2010.05.17/outbox.cif.g08.bks.cpg/sg65_24_cif.got.tgz:46325.got - 2010.06.03 17:01:31.
