data_PCOD9492761
_publ_section_title
;
Structure prediction by ZEFSAII (Michael W. Deem and Ramdas Pophale) SiO2 
 PCOD9492761
Probable space group: C M M M
;
_chemical_formula_sum "Si O2"
_cell_formula_units_Z 66
_cell_length_a 15.862359
_cell_length_b 8.668385
_cell_length_c 26.196740
_cell_angle_alpha 90.000000
_cell_angle_beta 90.000000
_cell_angle_gamma 90.000000
_cell_volume 3602.078859
_symmetry_space_group_name_H-M "C M M M"
_symmetry_group_IT_number 65
_symmetry_cell_setting 'orthorhombic'
loop_
_space_group_symop_operation_xyz
x,y,z
-x,-y,z
x,-y,-z
-x,y,-z
-x,-y,-z
x,y,-z
-x,y,z
x,-y,z
1/2+x,1/2+y,z
1/2-x,1/2-y,z
1/2+x,1/2-y,-z
1/2-x,1/2+y,-z
1/2-x,1/2-y,-z
1/2+x,1/2+y,-z
1/2-x,1/2+y,z
1/2+x,1/2-y,z
loop_
_atom_site_type_symbol
_atom_site_label
_atom_site_fract_x
_atom_site_fract_y
_atom_site_fract_z
Si Si1 0.000000 0.170020 0.105726
Si Si2 0.500000 0.315357 0.439942
Si Si3 0.000000 0.000000 0.000000
Si Si4 0.839644 0.315329 0.841764
Si Si5 0.159897 0.685427 0.620438
Si Si6 0.097884 0.312368 0.268775
O O1 0.916821 0.257813 0.123929
O O2 0.000000 0.000000 0.131381
O O3 0.000000 0.131945 0.045781
O O4 0.500000 0.500000 0.433752
O O5 0.500000 0.279266 0.500000
O O6 0.417211 0.246322 0.413251
O O7 0.837389 0.500000 0.842146
O O8 0.750000 0.250000 0.858902
O O9 0.858122 0.261980 0.783508
O O10 0.160597 0.500000 0.619104
O O11 0.250000 0.750000 0.603548
O O12 0.142347 0.736902 0.679022
O O13 0.097873 0.500000 0.268576
O O14 0.000000 0.263581 0.268942
#
# Coordination Sequence:
#
# PCOD9492761 Si02
#       6
#     8   8   2  16  16  16
#     4  10  21  42  64  85 118 157 202 254 304 346
#     4  11  25  44  63  85 114 153 206 262 310 360
#     4   8  24  44  70  80 124 154 210 264 306 348
#     4  11  21  36  62  94 128 162 199 244 298 364
#     4  11  22  39  63  89 123 160 198 247 302 364
#     4   9  17  33  57  89 125 162 196 237 296 363
#
# _framework density 18.322754
#
# number of rings (size 3 to 8) (size 9 to 14) (size 15 to 20)
#    0.364    1.333    2.424    2.909    0.000    1.455 
#    0.000    6.667    0.000    0.000    0.000    0.000 
#    0.000    0.000    0.000    0.000    0.000    0.000 
#
# Total GULP energy -183967.416330 kJ/mol
# GULP energy per Si atom -5574.770192 kJ/mol
# Density = 1.828105 g / cm^3
# Si number density = 18.322754 Si / 1000 Ang^3
#
#
#
# Elastic Constant Matrix: (Units=GPa)
#
#
# Indices 1 2 3 4 5 6 
#
# 1 188.1598 51.2332 74.3438 0.0000 0.0000 0.0000
# 2 51.2332 64.8761 46.8462 0.0000 0.0000 0.0000
# 3 74.3438 46.8462 134.4615 0.0000 0.0000 0.0000
# 4 0.0000 0.0000 0.0000 17.1961 0.0000 0.0000
# 5 0.0000 0.0000 0.0000 0.0000 -3.6258 0.0000
# 6 0.0000 0.0000 0.0000 0.0000 0.0000 26.4621
#
#
#
# Elastic Compliance Matrix: (Units=1/GPa)
#
#
# Indices 1 2 3 4 5 6 
#
# 1 0.007472 -0.003898 -0.002773 0.000000 0.000000 0.000000
# 2 -0.003898 0.022629 -0.005729 0.000000 0.000000 0.000000
# 3 -0.002773 -0.005729 0.010966 0.000000 0.000000 0.000000
# 4 0.000000 0.000000 0.000000 0.058153 0.000000 0.000000
# 5 0.000000 0.000000 0.000000 0.000000 -0.275802 0.000000
# 6 0.000000 0.000000 0.000000 0.000000 0.000000 0.037790
#
#
# Mechanical properties :
#
#
# Convention : Reuss Voigt Hill
#
# Bulk Modulus (GPa) = 61.47316 81.37154 71.42235
# Shear Modulus (GPa) = -46.05267 22.34476 -11.85395
#
# Velocity S-wave (km/s) = -5.01883 3.49594 -2.54629
# Velocity P-wave (km/s) = 0.19511 7.79756 5.51543
#
# Compressibility (1/GPa) = 0.01626726
#
# Stress axis : x y z
#
# Youngs Moduli (GPa) = 133.83892 44.19121 91.19006
#
# Poissons Ratio (x) = 0.17226 0.25287
# Poissons Ratio (y) = 0.52172 0.52239
# Poissons Ratio (z) = 0.37113 0.25316
#
# Static dielectric constant tensor:
#      x y z
#    x 1.612040 0.000000 0.000000 
#    y 0.000000 1.618130 0.000000 
#    z 0.000000 0.000000 1.618180 
# 
# From -- ./inp_files/72415.got.cif
#   From: 2010.05.17/outbox.cif.g08.bks.cpg/sg65_37_cif.got.tgz:72415.got - 2010.06.03 17:01:31.
