data_PCOD9492318
_publ_section_title
;
Structure prediction by ZEFSAII (Michael W. Deem and Ramdas Pophale) SiO2 
 PCOD9492318
Probable space group: C M M M
;
_chemical_formula_sum "Si O2"
_cell_formula_units_Z 116
_cell_length_a 17.753680
_cell_length_b 15.836906
_cell_length_c 23.810518
_cell_angle_alpha 90.000000
_cell_angle_beta 90.000000
_cell_angle_gamma 90.000000
_cell_volume 6694.645276
_symmetry_space_group_name_H-M "C M M M"
_symmetry_group_IT_number 65
_symmetry_cell_setting 'orthorhombic'
loop_
_space_group_symop_operation_xyz
x,y,z
-x,-y,z
x,-y,-z
-x,y,-z
-x,-y,-z
x,y,-z
-x,y,z
x,-y,z
1/2+x,1/2+y,z
1/2-x,1/2-y,z
1/2+x,1/2-y,-z
1/2-x,1/2+y,-z
1/2-x,1/2-y,-z
1/2+x,1/2+y,-z
1/2-x,1/2+y,z
1/2+x,1/2-y,z
loop_
_atom_site_type_symbol
_atom_site_label
_atom_site_fract_x
_atom_site_fract_y
_atom_site_fract_z
Si Si1 0.916146 0.733246 0.122916
Si Si2 0.876083 0.351138 0.682652
Si Si3 0.089935 0.601659 0.436979
Si Si4 0.263005 0.400520 0.242019
Si Si5 0.000000 0.500000 0.297649
Si Si6 0.207082 0.403224 0.114201
Si Si7 0.083347 0.801228 0.753379
Si Si8 0.129450 0.094542 0.934259
O O1 0.854237 0.667700 0.101323
O O2 0.908997 0.744970 0.189966
O O3 0.906136 0.826750 0.097649
O O4 0.000000 0.702044 0.110232
O O5 0.868399 0.358054 0.615581
O O6 0.797621 0.360906 0.715711
O O7 0.910434 0.262548 0.701656
O O8 0.933644 0.425915 0.700251
O O9 0.111896 0.627705 0.500000
O O10 0.098355 0.500000 0.433168
O O11 0.000000 0.617166 0.430269
O O12 0.264047 0.500000 0.252084
O O13 0.235836 0.387207 0.177815
O O14 0.346180 0.363213 0.247775
O O15 0.177995 0.500000 0.111718
O O16 0.280673 0.398076 0.075316
O O17 0.000000 0.840801 0.755515
O O18 0.107975 0.000000 0.913606
O O19 0.111461 0.099223 0.000000
#
# Coordination Sequence:
#
# PCOD9492318 Si02
#       8
#    16  16  16  16   4  16  16  16
#     4  11  23  37  55  84 116 146 182 227 282 339
#     4  12  19  33  53  84 117 151 189 231 275 339
#     4   9  15  26  46  75 114 155 190 226 273 330
#     4  11  22  36  56  79 108 151 189 235 280 333
#     4  12  20  32  53  88 124 148 193 230 266 350
#     4  10  21  38  57  83 113 144 186 227 273 335
#     4  11  23  36  53  79 113 149 185 234 284 336
#     4  10  22  41  65  86 107 141 188 238 284 332
#
# _framework density 17.327280999999999
#
# number of rings (size 3 to 8) (size 9 to 14) (size 15 to 20)
#    0.000    1.379    5.517    1.241    0.000    2.207 
#    0.000    2.069    0.000    1.655    0.000    2.897 
#    0.000    0.000    0.000    5.793    0.000    0.138 
#
# Total GULP energy -323177.808711 kJ/mol
# GULP energy per Si atom -5572.031185 kJ/mol
# Density = 1.728784 g / cm^3
# Si number density = 17.327281 Si / 1000 Ang^3
#
#
#
# Elastic Constant Matrix: (Units=GPa)
#
#
# Indices 1 2 3 4 5 6 
#
# 1 78.2498 21.9579 -11.8536 0.0000 0.0000 0.0000
# 2 21.9579 46.6129 12.5552 0.0000 0.0000 0.0000
# 3 -11.8536 12.5552 40.4636 0.0000 0.0000 0.0000
# 4 0.0000 0.0000 0.0000 20.7811 0.0000 0.0000
# 5 0.0000 0.0000 0.0000 0.0000 23.4754 0.0000
# 6 0.0000 0.0000 0.0000 0.0000 0.0000 6.1285
#
#
#
# Elastic Compliance Matrix: (Units=1/GPa)
#
#
# Indices 1 2 3 4 5 6 
#
# 1 0.016837 -0.010104 0.008068 0.000000 0.000000 0.000000
# 2 -0.010104 0.029474 -0.012105 0.000000 0.000000 0.000000
# 3 0.008068 -0.012105 0.030833 0.000000 0.000000 0.000000
# 4 0.000000 0.000000 0.000000 0.048121 0.000000 0.000000
# 5 0.000000 0.000000 0.000000 0.000000 0.042598 0.000000
# 6 0.000000 0.000000 0.000000 0.000000 0.000000 0.163171
#
#
# Mechanical properties :
#
#
# Convention : Reuss Voigt Hill
#
# Bulk Modulus (GPa) = 20.46678 23.40502 21.93590
# Shear Modulus (GPa) = 13.31190 19.58813 16.45001
#
# Velocity S-wave (km/s) = 2.77476 3.36591 3.08453
# Velocity P-wave (km/s) = 4.70141 5.35189 5.03716
#
# Compressibility (1/GPa) = 0.04885966
#
# Stress axis : x y z
#
# Youngs Moduli (GPa) = 59.39249 33.92855 32.43277
#
# Poissons Ratio (x) = 0.34283 -0.26165
# Poissons Ratio (y) = 0.60013 0.39261
# Poissons Ratio (z) = -0.47916 0.41071
#
# Static dielectric constant tensor:
#      x y z
#    x 1.597780 0.000000 0.000000 
#    y 0.000000 1.584850 0.000000 
#    z 0.000000 0.000000 1.598370 
# 
# From -- ./inp_files/70622.got.cif
#   From: 2010.05.17/outbox.cif.g08.bks.cpg/sg65_36_cif.got.tgz:70622.got - 2010.06.03 17:01:31.
