data_PCOD9492449
_publ_section_title
;
Structure prediction by ZEFSAII (Michael W. Deem and Ramdas Pophale) SiO2 
 PCOD9492449
Probable space group: C M M M
;
_chemical_formula_sum "Si O2"
_cell_formula_units_Z 88
_cell_length_a 19.269708
_cell_length_b 8.750468
_cell_length_c 28.739584
_cell_angle_alpha 90.000000
_cell_angle_beta 90.000000
_cell_angle_gamma 90.000000
_cell_volume 4846.038858
_symmetry_space_group_name_H-M "C M M M"
_symmetry_group_IT_number 65
_symmetry_cell_setting 'orthorhombic'
loop_
_space_group_symop_operation_xyz
x,y,z
-x,-y,z
x,-y,-z
-x,y,-z
-x,-y,-z
x,y,-z
-x,y,z
x,-y,z
1/2+x,1/2+y,z
1/2-x,1/2-y,z
1/2+x,1/2-y,-z
1/2-x,1/2+y,-z
1/2-x,1/2-y,-z
1/2+x,1/2+y,-z
1/2-x,1/2+y,z
1/2+x,1/2-y,z
loop_
_atom_site_type_symbol
_atom_site_label
_atom_site_fract_x
_atom_site_fract_y
_atom_site_fract_z
Si Si1 0.081466 0.816903 0.916864
Si Si2 0.673247 0.181683 0.365531
Si Si3 0.082391 0.319048 0.815436
Si Si4 0.672577 0.817420 0.000000
Si Si5 0.827323 0.182617 0.732673
Si Si6 0.582407 0.317697 0.446865
O O1 0.098388 0.754537 0.865535
O O2 0.130326 0.741532 0.955168
O O3 0.000000 0.780989 0.926180
O O4 0.088974 0.000000 0.918145
O O5 0.750000 0.250000 0.373197
O O6 0.646905 0.253884 0.317065
O O7 0.625087 0.228256 0.408374
O O8 0.677838 0.000000 0.360552
O O9 0.097160 0.500000 0.816549
O O10 0.125085 0.240062 0.774564
O O11 0.000000 0.298795 0.807541
O O12 0.750000 0.750000 0.000000
O O13 0.675610 0.000000 0.000000
O O14 0.750000 0.250000 0.738846
O O15 0.824289 0.000000 0.731332
O O16 0.601780 0.276599 0.500000
O O17 0.500000 0.291286 0.441797
O O18 0.594143 0.500000 0.441386
#
# Coordination Sequence:
#
# PCOD9492449 Si02
#       6
#    16  16  16   8  16  16
#     4  10  21  39  62  87 116 150 188 230 279 334
#     4  11  22  37  57  81 111 146 186 230 276 329
#     4  10  21  38  60  87 117 148 187 232 276 327
#     4  12  25  40  59  85 117 151 191 236 283 332
#     4  11  22  38  59  82 112 148 187 230 279 333
#     4   9  19  37  59  82 110 144 182 226 277 331
#
# _framework density 18.159161000000001
#
# number of rings (size 3 to 8) (size 9 to 14) (size 15 to 20)
#    0.000    1.636    0.000    7.091    0.000    5.818 
#    0.000    4.545    0.000    0.000    0.000    0.000 
#    0.000    0.000    0.000    0.000    0.000    0.000 
#
# Total GULP energy -245928.718990 kJ/mol
# GULP energy per Si atom -5589.289068 kJ/mol
# Density = 1.811783 g / cm^3
# Si number density = 18.159161 Si / 1000 Ang^3
#
#
#
# Elastic Constant Matrix: (Units=GPa)
#
#
# Indices 1 2 3 4 5 6 
#
# 1 71.6516 73.2347 94.9745 0.0000 0.0000 0.0000
# 2 73.2347 159.3167 102.9664 0.0000 0.0000 0.0000
# 3 94.9745 102.9664 176.6784 0.0000 0.0000 0.0000
# 4 0.0000 0.0000 0.0000 35.7021 0.0000 0.0000
# 5 0.0000 0.0000 0.0000 0.0000 45.0653 0.0000
# 6 0.0000 0.0000 0.0000 0.0000 0.0000 29.6589
#
#
#
# Elastic Compliance Matrix: (Units=1/GPa)
#
#
# Indices 1 2 3 4 5 6 
#
# 1 0.057549 -0.010364 -0.024896 0.000000 0.000000 0.000000
# 2 -0.010364 0.011936 -0.001385 0.000000 0.000000 0.000000
# 3 -0.024896 -0.001385 0.019850 0.000000 0.000000 0.000000
# 4 0.000000 0.000000 0.000000 0.028010 0.000000 0.000000
# 5 0.000000 0.000000 0.000000 0.000000 0.022190 0.000000
# 6 0.000000 0.000000 0.000000 0.000000 0.000000 0.033717
#
#
# Mechanical properties :
#
#
# Convention : Reuss Voigt Hill
#
# Bulk Modulus (GPa) = 62.32272 105.55533 83.93902
# Shear Modulus (GPa) = 19.85006 31.18332 25.51669
#
# Velocity S-wave (km/s) = 3.30982 4.14843 3.75262
# Velocity P-wave (km/s) = 7.00009 9.01111 8.06850
#
# Compressibility (1/GPa) = 0.01604551
#
# Stress axis : x y z
#
# Youngs Moduli (GPa) = 17.37662 83.78003 50.37792
#
# Poissons Ratio (x) = 0.86829 1.25419
# Poissons Ratio (y) = 0.18009 0.06977
# Poissons Ratio (z) = 0.43260 0.11604
#
# Static dielectric constant tensor:
#      x y z
#    x 1.598650 0.000000 0.000000 
#    y 0.000000 1.603350 0.000000 
#    z 0.000000 0.000000 1.600970 
# 
# From -- ./inp_files/70941.got.cif
#   From: 2010.05.17/outbox.cif.g08.bks.cpg/sg65_36_cif.got.tgz:70941.got - 2010.06.03 17:01:31.
