data_PCOD9492342
_publ_section_title
;
Structure prediction by ZEFSAII (Michael W. Deem and Ramdas Pophale) SiO2 
 PCOD9492342
Probable space group: C M M M
;
_chemical_formula_sum "Si O2"
_cell_formula_units_Z 92
_cell_length_a 15.083296
_cell_length_b 14.901810
_cell_length_c 20.969315
_cell_angle_alpha 90.000000
_cell_angle_beta 90.000000
_cell_angle_gamma 90.000000
_cell_volume 4713.239616
_symmetry_space_group_name_H-M "C M M M"
_symmetry_group_IT_number 65
_symmetry_cell_setting 'orthorhombic'
loop_
_space_group_symop_operation_xyz
x,y,z
-x,-y,z
x,-y,-z
-x,y,-z
-x,-y,-z
x,y,-z
-x,y,z
x,-y,z
1/2+x,1/2+y,z
1/2-x,1/2-y,z
1/2+x,1/2-y,-z
1/2-x,1/2+y,-z
1/2-x,1/2-y,-z
1/2+x,1/2+y,-z
1/2-x,1/2+y,z
1/2+x,1/2-y,z
loop_
_atom_site_type_symbol
_atom_site_label
_atom_site_fract_x
_atom_site_fract_y
_atom_site_fract_z
Si Si1 0.335382 0.186292 0.428771
Si Si2 0.794732 0.653195 0.293933
Si Si3 0.755226 0.358032 0.927759
Si Si4 0.401609 0.895067 0.179207
Si Si5 0.161884 0.000000 0.252438
Si Si6 0.000000 0.184264 0.574769
Si Si7 0.394087 0.500000 0.893022
Si Si8 0.500000 0.500000 0.348407
O O1 0.349941 0.145991 0.500000
O O2 0.250000 0.250000 0.434178
O O3 0.321348 0.125787 0.366074
O O4 0.415562 0.253316 0.412743
O O5 0.750000 0.750000 0.298022
O O6 0.874464 0.656446 0.243440
O O7 0.724495 0.585317 0.263486
O O8 0.750000 0.250000 0.923203
O O9 0.827674 0.384879 0.875207
O O10 0.663212 0.412875 0.916307
O O11 0.783851 0.380269 0.000000
O O12 0.500000 0.868500 0.157049
O O13 0.403307 0.000000 0.196528
O O14 0.086406 0.000000 0.304972
O O15 0.117860 0.000000 0.183232
O O16 0.000000 0.162595 0.500000
O O17 0.000000 0.091423 0.611609
O O18 0.500000 0.500000 0.909481
#
# Coordination Sequence:
#
# PCOD9492342 Si02
#       8
#    16  16  16  16   8   8   8   4
#     4   9  19  36  56  82 115 158 208 255 306 371
#     4  11  21  40  62  85 123 168 207 262 323 375
#     4  11  24  45  70  98 133 168 212 267 319 387
#     4  11  23  40  64  93 125 164 212 259 314 383
#     4  12  24  40  60  91 130 159 211 268 309 381
#     4  10  21  38  58  87 128 162 206 260 319 385
#     4  12  25  46  69  98 137 183 214 267 332 397
#     4  12  21  34  56  94 121 164 208 254 318 374
#
# _framework density 19.519483000000001
#
# number of rings (size 3 to 8) (size 9 to 14) (size 15 to 20)
#    0.000    1.217    3.913    3.000    1.217    1.739 
#    1.565    3.913    0.000    0.000    0.000    3.043 
#    0.000    0.000    0.000    0.000    0.000    0.000 
#
# Total GULP energy -256644.717360 kJ/mol
# GULP energy per Si atom -5579.232986 kJ/mol
# Density = 1.947506 g / cm^3
# Si number density = 19.519483 Si / 1000 Ang^3
#
#
#
# Elastic Constant Matrix: (Units=GPa)
#
#
# Indices 1 2 3 4 5 6 
#
# 1 135.2830 23.1468 33.3996 0.0000 0.0000 0.0000
# 2 23.1468 67.5432 14.9354 0.0000 0.0000 0.0000
# 3 33.3996 14.9354 128.1772 0.0000 0.0000 0.0000
# 4 0.0000 0.0000 0.0000 23.0981 0.0000 0.0000
# 5 0.0000 0.0000 0.0000 0.0000 20.1903 0.0000
# 6 0.0000 0.0000 0.0000 0.0000 0.0000 10.2273
#
#
#
# Elastic Compliance Matrix: (Units=1/GPa)
#
#
# Indices 1 2 3 4 5 6 
#
# 1 0.008268 -0.002419 -0.001873 0.000000 0.000000 0.000000
# 2 -0.002419 0.015905 -0.001223 0.000000 0.000000 0.000000
# 3 -0.001873 -0.001223 0.008432 0.000000 0.000000 0.000000
# 4 0.000000 0.000000 0.000000 0.043294 0.000000 0.000000
# 5 0.000000 0.000000 0.000000 0.000000 0.049529 0.000000
# 6 0.000000 0.000000 0.000000 0.000000 0.000000 0.097778
#
#
# Mechanical properties :
#
#
# Convention : Reuss Voigt Hill
#
# Bulk Modulus (GPa) = 46.34869 52.66299 49.50584
# Shear Modulus (GPa) = 20.71023 28.00459 24.35741
#
# Velocity S-wave (km/s) = 3.26084 3.79185 3.53633
# Velocity P-wave (km/s) = 6.16229 6.79773 6.48779
#
# Compressibility (1/GPa) = 0.02157558
#
# Stress axis : x y z
#
# Youngs Moduli (GPa) = 120.94562 62.87393 118.59407
#
# Poissons Ratio (x) = 0.15212 0.22207
# Poissons Ratio (y) = 0.29262 0.14502
# Poissons Ratio (z) = 0.22648 0.07688
#
# Static dielectric constant tensor:
#      x y z
#    x 1.723720 0.000000 0.000000 
#    y 0.000000 1.688200 0.000000 
#    z 0.000000 0.000000 1.714790 
# 
# From -- ./inp_files/62711.got.cif
#   From: 2010.05.17/outbox.cif.g08.bks.cpg/sg65_32_cif.got.tgz:62711.got - 2010.06.03 17:01:31.
