data_PCOD9492261
_publ_section_title
;
Structure prediction by ZEFSAII (Michael W. Deem and Ramdas Pophale) SiO2 
 PCOD9492261
Probable space group: C M M M
;
_chemical_formula_sum "Si O2"
_cell_formula_units_Z 72
_cell_length_a 23.310699
_cell_length_b 19.563674
_cell_length_c 8.445983
_cell_angle_alpha 90.000000
_cell_angle_beta 90.000000
_cell_angle_gamma 90.000000
_cell_volume 3851.730715
_symmetry_space_group_name_H-M "C M M M"
_symmetry_group_IT_number 65
_symmetry_cell_setting 'orthorhombic'
loop_
_space_group_symop_operation_xyz
x,y,z
-x,-y,z
x,-y,-z
-x,y,-z
-x,-y,-z
x,y,-z
-x,y,z
x,-y,z
1/2+x,1/2+y,z
1/2-x,1/2-y,z
1/2+x,1/2-y,-z
1/2-x,1/2+y,-z
1/2-x,1/2-y,-z
1/2+x,1/2+y,-z
1/2-x,1/2+y,z
1/2+x,1/2-y,z
loop_
_atom_site_type_symbol
_atom_site_label
_atom_site_fract_x
_atom_site_fract_y
_atom_site_fract_z
Si Si1 0.500000 0.578564 0.310300
Si Si2 0.830934 0.421416 0.191711
Si Si3 0.564881 0.825970 0.806921
Si Si4 0.101816 0.173297 0.810174
Si Si5 0.770203 0.174299 0.310265
O O1 0.500000 0.500000 0.254908
O O2 0.500000 0.578829 0.500000
O O3 0.444057 0.618928 0.251366
O O4 0.831289 0.500000 0.244292
O O5 0.887518 0.380203 0.245334
O O6 0.775395 0.380718 0.249852
O O7 0.830741 0.420779 0.000000
O O8 0.500000 0.840900 0.754887
O O9 0.582897 0.749546 0.757463
O O10 0.564803 0.826390 0.000000
O O11 0.166066 0.160274 0.751692
O O12 0.100861 0.172545 0.000000
O O13 0.770824 0.174026 0.500000
O O14 0.750000 0.250000 0.256145
#
# Coordination Sequence:
#
# PCOD9492261 Si02
#       5
#     8  16  16  16  16
#     4  11  25  43  61  87 126 161 192 242 302 358
#     4  10  21  37  59  88 121 156 194 241 297 353
#     4   9  17  32  57  89 118 147 188 238 289 340
#     4  11  21  37  64  91 116 152 200 250 294 347
#     4  11  23  38  59  87 118 157 202 247 300 358
#
# _framework density 18.692896000000001
#
# number of rings (size 3 to 8) (size 9 to 14) (size 15 to 20)
#    0.000    1.667    3.333    1.667    0.000    3.556 
#    0.000    2.222    0.000    0.000    0.000    1.556 
#    0.000    0.000    0.000    0.000    0.000    0.000 
#
# Total GULP energy -201137.124862 kJ/mol
# GULP energy per Si atom -5587.142357 kJ/mol
# Density = 1.865035 g / cm^3
# Si number density = 18.692896 Si / 1000 Ang^3
#
#
#
# Elastic Constant Matrix: (Units=GPa)
#
#
# Indices 1 2 3 4 5 6 
#
# 1 229.3538 125.9319 29.9342 0.0000 0.0000 0.0000
# 2 125.9319 200.4450 34.9462 0.0000 0.0000 0.0000
# 3 29.9342 34.9462 25.2512 0.0000 0.0000 0.0000
# 4 0.0000 0.0000 0.0000 20.2861 0.0000 0.0000
# 5 0.0000 0.0000 0.0000 0.0000 5.0050 0.0000
# 6 0.0000 0.0000 0.0000 0.0000 0.0000 34.6515
#
#
#
# Elastic Compliance Matrix: (Units=1/GPa)
#
#
# Indices 1 2 3 4 5 6 
#
# 1 0.006807 -0.003782 -0.002835 0.000000 0.000000 0.000000
# 2 -0.003782 0.008677 -0.007525 0.000000 0.000000 0.000000
# 3 -0.002835 -0.007525 0.053377 0.000000 0.000000 0.000000
# 4 0.000000 0.000000 0.000000 0.049295 0.000000 0.000000
# 5 0.000000 0.000000 0.000000 0.000000 0.199802 0.000000
# 6 0.000000 0.000000 0.000000 0.000000 0.000000 0.028859
#
#
# Mechanical properties :
#
#
# Convention : Reuss Voigt Hill
#
# Bulk Modulus (GPa) = 24.64469 92.96384 58.80426
# Shear Modulus (GPa) = 12.86587 29.60436 21.23512
#
# Velocity S-wave (km/s) = 2.62635 3.98392 3.37412
# Velocity P-wave (km/s) = 4.73387 8.42629 6.83417
#
# Compressibility (1/GPa) = 0.04057670
#
# Stress axis : x y z
#
# Youngs Moduli (GPa) = 146.91263 115.24696 18.73481
#
# Poissons Ratio (x) = 0.43589 0.05311
# Poissons Ratio (y) = 0.55565 0.14098
# Poissons Ratio (z) = 0.41647 0.86721
#
# Static dielectric constant tensor:
#      x y z
#    x 1.612020 0.000000 0.000000 
#    y 0.000000 1.630260 0.000000 
#    z 0.000000 0.000000 1.638380 
# 
# From -- ./inp_files/9199.got.cif
#   From: 2010.05.17/outbox.cif.g08.bks.cpg/sg65_5_cif.got.tgz:9199.got - 2010.06.03 17:01:31.
