data_PCOD9492782
_publ_section_title
;
Structure prediction by ZEFSAII (Michael W. Deem and Ramdas Pophale) SiO2 
 PCOD9492782
Probable space group: C M M M
;
_chemical_formula_sum "Si O2"
_cell_formula_units_Z 80
_cell_length_a 28.440756
_cell_length_b 8.500134
_cell_length_c 15.910842
_cell_angle_alpha 90.000000
_cell_angle_beta 90.000000
_cell_angle_gamma 90.000000
_cell_volume 3846.449825
_symmetry_space_group_name_H-M "C M M M"
_symmetry_group_IT_number 65
_symmetry_cell_setting 'orthorhombic'
loop_
_space_group_symop_operation_xyz
x,y,z
-x,-y,z
x,-y,-z
-x,y,-z
-x,-y,-z
x,y,-z
-x,y,z
x,-y,z
1/2+x,1/2+y,z
1/2-x,1/2-y,z
1/2+x,1/2-y,-z
1/2-x,1/2+y,-z
1/2-x,1/2-y,-z
1/2+x,1/2+y,-z
1/2-x,1/2+y,z
1/2+x,1/2-y,z
loop_
_atom_site_type_symbol
_atom_site_label
_atom_site_fract_x
_atom_site_fract_y
_atom_site_fract_z
Si Si1 0.300608 0.682363 0.671036
Si Si2 0.302646 0.810000 0.000000
Si Si3 0.854589 0.687320 0.831800
Si Si4 0.398843 0.675791 0.402482
Si Si5 0.944846 0.500000 0.602356
Si Si6 0.053262 0.189385 0.903026
O O1 0.293320 0.500000 0.690004
O O2 0.250000 0.750000 0.647493
O O3 0.323647 0.760317 0.753156
O O4 0.342520 0.695585 0.603687
O O5 0.250000 0.750000 0.000000
O O6 0.328932 0.755200 0.083568
O O7 0.302780 0.000000 0.000000
O O8 0.856683 0.500000 0.832688
O O9 0.907340 0.751613 0.839382
O O10 0.413199 0.668796 0.500000
O O11 0.409650 0.500000 0.365579
O O12 0.421755 0.835851 0.366752
O O13 0.939170 0.500000 0.500000
O O14 0.000000 0.500000 0.620992
O O15 0.000000 0.239999 0.882615
O O16 0.054023 0.000000 0.903487
O O17 0.063287 0.241695 0.000000
#
# Coordination Sequence:
#
# PCOD9492782 Si02
#       6
#    16   8  16  16   8  16
#     4  11  24  40  60  86 117 157 198 242 299 354
#     4  10  22  36  51  76 105 141 186 233 283 342
#     4  11  22  37  56  81 113 148 191 240 291 347
#     4   9  20  39  62  91 126 161 202 251 300 359
#     4   9  18  34  62  96 126 161 203 249 302 356
#     4   9  18  34  57  83 110 145 189 236 291 350
#
# _framework density 20.798400000000001
#
# number of rings (size 3 to 8) (size 9 to 14) (size 15 to 20)
#    0.000    2.100    1.000    2.400    2.800    4.400 
#    0.000    4.000    0.000    1.200    0.000    0.000 
#    0.000    0.000    0.000    0.000    0.000    0.000 
#
# Total GULP energy -223231.422272 kJ/mol
# GULP energy per Si atom -5580.785557 kJ/mol
# Density = 2.075106 g / cm^3
# Si number density = 20.798400 Si / 1000 Ang^3
#
#
#
# Elastic Constant Matrix: (Units=GPa)
#
#
# Indices 1 2 3 4 5 6 
#
# 1 115.2618 66.8050 -8.4922 0.0000 0.0000 0.0000
# 2 66.8050 118.1804 11.6159 0.0000 0.0000 0.0000
# 3 -8.4922 11.6159 27.0214 0.0000 0.0000 0.0000
# 4 0.0000 0.0000 0.0000 12.6480 0.0000 0.0000
# 5 0.0000 0.0000 0.0000 0.0000 25.3799 0.0000
# 6 0.0000 0.0000 0.0000 0.0000 0.0000 25.7468
#
#
#
# Elastic Compliance Matrix: (Units=1/GPa)
#
#
# Indices 1 2 3 4 5 6 
#
# 1 0.014548 -0.009056 0.008465 0.000000 0.000000 0.000000
# 2 -0.009056 0.014472 -0.009067 0.000000 0.000000 0.000000
# 3 0.008465 -0.009067 0.043566 0.000000 0.000000 0.000000
# 4 0.000000 0.000000 0.000000 0.079064 0.000000 0.000000
# 5 0.000000 0.000000 0.000000 0.000000 0.039401 0.000000
# 6 0.000000 0.000000 0.000000 0.000000 0.000000 0.038840
#
#
# Mechanical properties :
#
#
# Convention : Reuss Voigt Hill
#
# Bulk Modulus (GPa) = 18.77221 44.48012 31.62617
# Shear Modulus (GPa) = 18.72913 25.45727 22.09320
#
# Velocity S-wave (km/s) = 3.00410 3.50237 3.26276
# Velocity P-wave (km/s) = 4.59110 6.14721 5.42524
#
# Compressibility (1/GPa) = 0.05327023
#
# Stress axis : x y z
#
# Youngs Moduli (GPa) = 68.73634 69.09898 22.95370
#
# Poissons Ratio (x) = 0.62576 -0.19431
# Poissons Ratio (y) = 0.62247 0.20813
# Poissons Ratio (z) = -0.58186 0.62654
#
# Static dielectric constant tensor:
#      x y z
#    x 2.321050 0.000000 0.000000 
#    y 0.000000 1.750230 0.000000 
#    z 0.000000 0.000000 1.767090 
# 
# From -- ./inp_files/57291.got.cif
#   From: 2010.05.17/outbox.cif.g08.bks.cpg/sg65_29_cif.got.tgz:57291.got - 2010.06.03 17:01:31.
