data_PCOD9492673
_publ_section_title
;
Structure prediction by ZEFSAII (Michael W. Deem and Ramdas Pophale) SiO2 
 PCOD9492673
Probable space group: C M M M
;
_chemical_formula_sum "Si O2"
_cell_formula_units_Z 50
_cell_length_a 7.641752
_cell_length_b 15.745955
_cell_length_c 21.562909
_cell_angle_alpha 90.000000
_cell_angle_beta 90.000000
_cell_angle_gamma 90.000000
_cell_volume 2594.593318
_symmetry_space_group_name_H-M "C M M M"
_symmetry_group_IT_number 65
_symmetry_cell_setting 'orthorhombic'
loop_
_space_group_symop_operation_xyz
x,y,z
-x,-y,z
x,-y,-z
-x,y,-z
-x,-y,-z
x,y,-z
-x,y,z
x,-y,z
1/2+x,1/2+y,z
1/2-x,1/2-y,z
1/2+x,1/2-y,-z
1/2-x,1/2+y,-z
1/2-x,1/2-y,-z
1/2+x,1/2+y,-z
1/2-x,1/2+y,z
1/2+x,1/2-y,z
loop_
_atom_site_type_symbol
_atom_site_label
_atom_site_fract_x
_atom_site_fract_y
_atom_site_fract_z
Si Si1 0.500000 0.599392 0.068628
Si Si2 0.193917 0.000000 0.604220
Si Si3 0.792404 0.650534 0.164431
Si Si4 0.000000 0.500000 0.500000
Si Si5 0.791054 0.649135 0.696403
O O1 0.500000 0.500000 0.060334
O O2 0.671276 0.618693 0.109308
O O3 0.500000 0.640930 0.000000
O O4 0.212405 0.084399 0.646920
O O5 0.346747 0.000000 0.554107
O O6 0.000000 0.000000 0.576644
O O7 0.750000 0.750000 0.167110
O O8 0.741228 0.620467 0.233633
O O9 0.000000 0.636019 0.155103
O O10 0.750000 0.750000 0.687889
O O11 0.000000 0.641736 0.692612
#
# Coordination Sequence:
#
# PCOD9492673 Si02
#       5
#     8   8  16   2  16
#     4  11  26  42  57  86 128 169 209 266 327 384
#     4  12  25  43  73  96 131 182 203 259 324 372
#     4  10  21  39  64  94 124 160 212 270 315 373
#     4  12  26  52  60  98 148 158 228 252 300 402
#     4  10  21  39  66 102 132 161 217 273 317 373
#
# _framework density 19.270844
#
# number of rings (size 3 to 8) (size 9 to 14) (size 15 to 20)
#    0.000    1.440    3.200    1.200    6.720    1.920 
#    0.000    2.400    0.000    0.000    0.000    0.000 
#    0.000    0.000    0.000    0.000    0.000    0.000 
#
# Total GULP energy -139216.895378 kJ/mol
# GULP energy per Si atom -5568.675815 kJ/mol
# Density = 1.922698 g / cm^3
# Si number density = 19.270844 Si / 1000 Ang^3
#
#
#
# Elastic Constant Matrix: (Units=GPa)
#
#
# Indices 1 2 3 4 5 6 
#
# 1 157.1704 21.7277 94.8723 0.0000 0.0000 0.0000
# 2 21.7277 61.5637 53.5671 0.0000 0.0000 0.0000
# 3 94.8723 53.5671 173.5279 0.0000 0.0000 0.0000
# 4 0.0000 0.0000 0.0000 -6.7393 0.0000 0.0000
# 5 0.0000 0.0000 0.0000 0.0000 29.8463 0.0000
# 6 0.0000 0.0000 0.0000 0.0000 0.0000 20.6979
#
#
#
# Elastic Compliance Matrix: (Units=1/GPa)
#
#
# Indices 1 2 3 4 5 6 
#
# 1 0.009612 0.001614 -0.005753 0.000000 0.000000 0.000000
# 2 0.001614 0.022479 -0.007821 0.000000 0.000000 0.000000
# 3 -0.005753 -0.007821 0.011323 0.000000 0.000000 0.000000
# 4 0.000000 0.000000 0.000000 -0.148383 0.000000 0.000000
# 5 0.000000 0.000000 0.000000 0.000000 0.033505 0.000000
# 6 0.000000 0.000000 0.000000 0.000000 0.000000 0.048314
#
#
# Mechanical properties :
#
#
# Convention : Reuss Voigt Hill
#
# Bulk Modulus (GPa) = 51.30330 81.39960 66.35145
# Shear Modulus (GPa) = 687.66101 23.56729 355.61415
#
# Velocity S-wave (km/s) = 18.91071 3.50086 13.59910
# Velocity P-wave (km/s) = 22.43880 7.65982 16.76563
#
# Compressibility (1/GPa) = 0.01949192
#
# Stress axis : x y z
#
# Youngs Moduli (GPa) = 104.03227 44.48524 88.31747
#
# Poissons Ratio (x) = -0.07178 0.50813
# Poissons Ratio (y) = -0.16787 0.69077
# Poissons Ratio (z) = 0.59855 0.34794
#
# Static dielectric constant tensor:
#      x y z
#    x 1.645940 0.000000 0.000000 
#    y 0.000000 1.634640 0.000000 
#    z 0.000000 0.000000 1.733330 
# 
# From -- ./inp_files/48557.got.cif
#   From: 2010.05.17/outbox.cif.g08.bks.cpg/sg65_25_cif.got.tgz:48557.got - 2010.06.03 17:01:31.
