data_PCOD9492746
_publ_section_title
;
Structure prediction by ZEFSAII (Michael W. Deem and Ramdas Pophale) SiO2 
 PCOD9492746
Probable space group: C M M M
;
_chemical_formula_sum "Si O2"
_cell_formula_units_Z 64
_cell_length_a 15.141133
_cell_length_b 28.613109
_cell_length_c 7.346517
_cell_angle_alpha 90.000000
_cell_angle_beta 90.000000
_cell_angle_gamma 90.000000
_cell_volume 3182.767476
_symmetry_space_group_name_H-M "C M M M"
_symmetry_group_IT_number 65
_symmetry_cell_setting 'orthorhombic'
loop_
_space_group_symop_operation_xyz
x,y,z
-x,-y,z
x,-y,-z
-x,y,-z
-x,-y,-z
x,y,-z
-x,y,z
x,-y,z
1/2+x,1/2+y,z
1/2-x,1/2-y,z
1/2+x,1/2-y,-z
1/2-x,1/2+y,-z
1/2-x,1/2-y,-z
1/2+x,1/2+y,-z
1/2-x,1/2+y,z
1/2+x,1/2-y,z
loop_
_atom_site_type_symbol
_atom_site_label
_atom_site_fract_x
_atom_site_fract_y
_atom_site_fract_z
Si Si1 0.403359 0.629359 0.500000
Si Si2 0.732663 0.804814 0.500000
Si Si3 0.354239 0.447644 0.784259
Si Si4 0.857105 0.550494 0.218091
Si Si5 0.901317 0.346464 0.218298
O O1 0.500000 0.651880 0.500000
O O2 0.323175 0.665684 0.500000
O O3 0.394670 0.594231 0.329048
O O4 0.750000 0.750000 0.500000
O O5 0.673883 0.819507 0.673807
O O6 0.384798 0.500000 0.732235
O O7 0.248376 0.446656 0.751585
O O8 0.368653 0.442341 0.000000
O O9 0.887943 0.500000 0.288595
O O10 0.897295 0.599183 0.279602
O O11 0.871062 0.549369 0.000000
O O12 0.000000 0.328413 0.254941
O O13 0.886643 0.345215 0.000000
#
# Coordination Sequence:
#
# PCOD9492746 Si02
#       5
#     8   8  16  16  16
#     4  12  25  39  60  89 118 158 211 256 299 361
#     4  12  27  46  67  85 117 160 203 264 323 366
#     4   9  18  35  59  87 124 166 203 242 291 352
#     4   8  14  28  55  90 126 163 197 229 278 351
#     4  10  21  40  68  98 126 158 198 244 301 370
#
# _framework density 20.108286
#
# number of rings (size 3 to 8) (size 9 to 14) (size 15 to 20)
#    0.000    2.250    2.500    2.250    0.000    3.500 
#    0.000    4.375    0.000    1.500    0.000    0.000 
#    0.000    0.000    0.000    0.000    0.000    0.000 
#
# Total GULP energy -178717.324240 kJ/mol
# GULP energy per Si atom -5584.916383 kJ/mol
# Density = 2.006252 g / cm^3
# Si number density = 20.108286 Si / 1000 Ang^3
#
#
#
# Elastic Constant Matrix: (Units=GPa)
#
#
# Indices 1 2 3 4 5 6 
#
# 1 135.2035 78.0014 54.8679 0.0000 0.0000 0.0000
# 2 78.0014 142.0299 40.1338 0.0000 0.0000 0.0000
# 3 54.8679 40.1338 85.1110 0.0000 0.0000 0.0000
# 4 0.0000 0.0000 0.0000 17.1237 0.0000 0.0000
# 5 0.0000 0.0000 0.0000 0.0000 -20.7859 0.0000
# 6 0.0000 0.0000 0.0000 0.0000 0.0000 -22.9746
#
#
#
# Elastic Compliance Matrix: (Units=1/GPa)
#
#
# Indices 1 2 3 4 5 6 
#
# 1 0.012860 -0.005446 -0.005723 0.000000 0.000000 0.000000
# 2 -0.005446 0.010429 -0.001407 0.000000 0.000000 0.000000
# 3 -0.005723 -0.001407 0.016102 0.000000 0.000000 0.000000
# 4 0.000000 0.000000 0.000000 0.058398 0.000000 0.000000
# 5 0.000000 0.000000 0.000000 0.000000 -0.048110 0.000000
# 6 0.000000 0.000000 0.000000 0.000000 0.000000 -0.043526
#
#
# Mechanical properties :
#
#
# Convention : Reuss Voigt Hill
#
# Bulk Modulus (GPa) = 70.22244 78.70561 74.46403
# Shear Modulus (GPa) = 138.68779 7.29540 72.99160
#
# Velocity S-wave (km/s) = 8.31386 1.90681 6.03142
# Velocity P-wave (km/s) = 11.27645 6.63881 9.25289
#
# Compressibility (1/GPa) = 0.01424046
#
# Stress axis : x y z
#
# Youngs Moduli (GPa) = 77.75839 95.88536 62.10366
#
# Poissons Ratio (x) = 0.52216 0.35540
# Poissons Ratio (y) = 0.42345 0.08739
# Poissons Ratio (z) = 0.44499 0.13493
#
# Static dielectric constant tensor:
#      x y z
#    x 1.737480 0.000000 0.000000 
#    y 0.000000 1.678380 0.000000 
#    z 0.000000 0.000000 1.735860 
# 
# From -- ./inp_files/6760.got.cif
#   From: 2010.05.17/outbox.cif.g08.bks.cpg/sg65_4_cif.got.tgz:6760.got - 2010.06.03 17:01:31.
