data_PCOD9492912
_publ_section_title
;
Structure prediction by ZEFSAII (Michael W. Deem and Ramdas Pophale) SiO2 
 PCOD9492912
Probable space group: C M M M
;
_chemical_formula_sum "Si O2"
_cell_formula_units_Z 88
_cell_length_a 30.353516
_cell_length_b 18.092295
_cell_length_c 8.149720
_cell_angle_alpha 90.000000
_cell_angle_beta 90.000000
_cell_angle_gamma 90.000000
_cell_volume 4475.539075
_symmetry_space_group_name_H-M "C M M M"
_symmetry_group_IT_number 65
_symmetry_cell_setting 'orthorhombic'
loop_
_space_group_symop_operation_xyz
x,y,z
-x,-y,z
x,-y,-z
-x,y,-z
-x,-y,-z
x,y,-z
-x,y,z
x,-y,z
1/2+x,1/2+y,z
1/2-x,1/2-y,z
1/2+x,1/2-y,-z
1/2-x,1/2+y,-z
1/2-x,1/2-y,-z
1/2+x,1/2+y,-z
1/2-x,1/2+y,z
1/2+x,1/2-y,z
loop_
_atom_site_type_symbol
_atom_site_label
_atom_site_fract_x
_atom_site_fract_y
_atom_site_fract_z
Si Si1 0.949949 0.290804 0.197046
Si Si2 0.193947 0.086278 0.700900
Si Si3 0.448744 0.500000 0.802635
Si Si4 0.209930 0.410160 0.309790
Si Si5 0.885341 0.583770 0.804238
Si Si6 0.602051 0.646740 0.304600
O O1 0.921761 0.360099 0.261980
O O2 0.923188 0.216480 0.232533
O O3 0.000000 0.287511 0.260715
O O4 0.952561 0.298297 0.000000
O O5 0.195036 0.086463 0.500000
O O6 0.242230 0.113101 0.756804
O O7 0.152160 0.133784 0.755072
O O8 0.187570 0.000000 0.748780
O O9 0.500000 0.500000 0.754086
O O10 0.424630 0.572553 0.736805
O O11 0.446498 0.500000 0.000000
O O12 0.207062 0.388015 0.500000
O O13 0.211514 0.500000 0.303644
O O14 0.164361 0.388093 0.226680
O O15 0.889077 0.500000 0.737547
O O16 0.891001 0.579351 0.000000
O O17 0.603727 0.655656 0.500000
#
# Coordination Sequence:
#
# PCOD9492912 Si02
#       6
#    16  16   8  16  16  16
#     4  10  22  39  55  73 104 142 175 217 276 329
#     4   8  14  28  50  76 105 137 173 213 253 300
#     4  11  23  37  53  75 107 145 183 223 268 317
#     4   8  14  27  51  78 104 135 168 206 257 314
#     4   9  18  34  56  80 104 132 173 222 266 318
#     4  11  21  35  56  80 106 139 182 227 263 304
#
# _framework density 19.662434999999999
#
# number of rings (size 3 to 8) (size 9 to 14) (size 15 to 20)
#    0.000    2.636    0.909    2.455    0.000    4.364 
#    0.000    4.545    0.000    5.455    0.000    3.818 
#    0.000    0.000    0.000    0.000    0.000    0.000 
#
# Total GULP energy -245359.389768 kJ/mol
# GULP energy per Si atom -5576.349767 kJ/mol
# Density = 1.961768 g / cm^3
# Si number density = 19.662435 Si / 1000 Ang^3
#
#
#
# Elastic Constant Matrix: (Units=GPa)
#
#
# Indices 1 2 3 4 5 6 
#
# 1 188.0806 97.3352 12.8928 0.0000 0.0000 0.0000
# 2 97.3352 87.2033 0.9716 0.0000 0.0000 0.0000
# 3 12.8928 0.9716 8.5771 0.0000 0.0000 0.0000
# 4 0.0000 0.0000 0.0000 1.2197 0.0000 0.0000
# 5 0.0000 0.0000 0.0000 0.0000 25.4153 0.0000
# 6 0.0000 0.0000 0.0000 0.0000 0.0000 33.9480
#
#
#
# Elastic Compliance Matrix: (Units=1/GPa)
#
#
# Indices 1 2 3 4 5 6 
#
# 1 0.015833 -0.017430 -0.021825 0.000000 0.000000 0.000000
# 2 -0.017430 0.030669 0.022725 0.000000 0.000000 0.000000
# 3 -0.021825 0.022725 0.146823 0.000000 0.000000 0.000000
# 4 0.000000 0.000000 0.000000 0.819863 0.000000 0.000000
# 5 0.000000 0.000000 0.000000 0.000000 0.039346 0.000000
# 6 0.000000 0.000000 0.000000 0.000000 0.000000 0.029457
#
#
# Mechanical properties :
#
#
# Convention : Reuss Voigt Hill
#
# Bulk Modulus (GPa) = 6.23962 56.25112 31.24537
# Shear Modulus (GPa) = 4.27909 23.62736 13.95322
#
# Velocity S-wave (km/s) = 1.47682 3.47024 2.66679
# Velocity P-wave (km/s) = 2.46744 6.68785 5.04061
#
# Compressibility (1/GPa) = 0.16026616
#
# Stress axis : x y z
#
# Youngs Moduli (GPa) = 63.15887 32.60634 6.81091
#
# Poissons Ratio (x) = 0.56831 0.14865
# Poissons Ratio (y) = 1.10083 -0.15478
# Poissons Ratio (z) = 1.37847 -0.74100
#
# Static dielectric constant tensor:
#      x y z
#    x 1.717880 0.000000 0.000000 
#    y 0.000000 1.666760 0.000000 
#    z 0.000000 0.000000 1.706570 
# 
# From -- ./inp_files/10008.got.cif
#   From: 2010.05.17/outbox.cif.g08.bks.cpg/sg65_6_cif.got.tgz:10008.got - 2010.06.03 17:01:31.
