data_PCOD9492515
_publ_section_title
;
Structure prediction by ZEFSAII (Michael W. Deem and Ramdas Pophale) SiO2 
 PCOD9492515
Probable space group: C M M M
;
_chemical_formula_sum "Si O2"
_cell_formula_units_Z 58
_cell_length_a 19.784285
_cell_length_b 7.834482
_cell_length_c 18.008152
_cell_angle_alpha 90.000000
_cell_angle_beta 90.000000
_cell_angle_gamma 90.000000
_cell_volume 2791.256802
_symmetry_space_group_name_H-M "C M M M"
_symmetry_group_IT_number 65
_symmetry_cell_setting 'orthorhombic'
loop_
_space_group_symop_operation_xyz
x,y,z
-x,-y,z
x,-y,-z
-x,y,-z
-x,-y,-z
x,y,-z
-x,y,z
x,-y,z
1/2+x,1/2+y,z
1/2-x,1/2-y,z
1/2+x,1/2-y,-z
1/2-x,1/2+y,-z
1/2-x,1/2-y,-z
1/2+x,1/2+y,-z
1/2-x,1/2+y,z
1/2+x,1/2-y,z
loop_
_atom_site_type_symbol
_atom_site_label
_atom_site_fract_x
_atom_site_fract_y
_atom_site_fract_z
Si Si1 0.076304 0.796264 0.216353
Si Si2 0.673979 0.203462 0.915670
Si Si3 0.174154 0.205037 0.346925
Si Si4 0.112021 0.307170 0.500000
Si Si5 0.000000 0.000000 0.500000
O O1 0.117899 0.765761 0.141332
O O2 0.120368 0.732165 0.285713
O O3 0.000000 0.727114 0.214095
O O4 0.071468 0.000000 0.226127
O O5 0.750000 0.250000 0.891071
O O6 0.669768 0.000000 0.918240
O O7 0.665215 0.270577 0.000000
O O8 0.250000 0.250000 0.323545
O O9 0.156803 0.284664 0.426224
O O10 0.168592 0.000000 0.352861
O O11 0.083402 0.500000 0.500000
O O12 0.058388 0.152505 0.500000
#
# Coordination Sequence:
#
# PCOD9492515 Si02
#       5
#    16  16  16   8   2
#     4  10  23  40  62  90 126 168 207 258 320 378
#     4  10  21  38  61  88 120 159 206 261 316 377
#     4  11  23  42  67  94 131 168 216 275 323 383
#     4  12  26  44  72 101 131 180 222 264 334 389
#     4  12  26  48  68 102 144 168 210 292 312 398
#
# _framework density 20.779171000000002
#
# number of rings (size 3 to 8) (size 9 to 14) (size 15 to 20)
#    0.000    1.379    1.379    3.103    1.931    7.172 
#    0.000    2.759    0.000    0.000    0.000    0.000 
#    0.000    0.000    0.000    0.000    0.000    0.000 
#
# Total GULP energy -161846.777028 kJ/mol
# GULP energy per Si atom -5580.923346 kJ/mol
# Density = 2.073188 g / cm^3
# Si number density = 20.779171 Si / 1000 Ang^3
#
#
#
# Elastic Constant Matrix: (Units=GPa)
#
#
# Indices 1 2 3 4 5 6 
#
# 1 201.2123 21.6091 104.7006 0.0000 0.0000 0.0000
# 2 21.6091 88.1283 8.2043 0.0000 0.0000 0.0000
# 3 104.7006 8.2043 134.1155 0.0000 0.0000 0.0000
# 4 0.0000 0.0000 0.0000 29.3985 0.0000 0.0000
# 5 0.0000 0.0000 0.0000 0.0000 -77.6613 0.0000
# 6 0.0000 0.0000 0.0000 0.0000 0.0000 27.8621
#
#
#
# Elastic Compliance Matrix: (Units=1/GPa)
#
#
# Indices 1 2 3 4 5 6 
#
# 1 0.008559 -0.001485 -0.006591 0.000000 0.000000 0.000000
# 2 -0.001485 0.011670 0.000445 0.000000 0.000000 0.000000
# 3 -0.006591 0.000445 0.012574 0.000000 0.000000 0.000000
# 4 0.000000 0.000000 0.000000 0.034015 0.000000 0.000000
# 5 0.000000 0.000000 0.000000 0.000000 -0.012876 0.000000
# 6 0.000000 0.000000 0.000000 0.000000 0.000000 0.035891
#
#
# Mechanical properties :
#
#
# Convention : Reuss Voigt Hill
#
# Bulk Modulus (GPa) = 57.00581 76.94268 66.97425
# Shear Modulus (GPa) = 45.06885 15.18265 30.12575
#
# Velocity S-wave (km/s) = 4.66224 2.70602 3.81176
# Velocity P-wave (km/s) = 7.51503 6.84635 7.18847
#
# Compressibility (1/GPa) = 0.01754207
#
# Stress axis : x y z
#
# Youngs Moduli (GPa) = 116.83706 85.69155 79.52693
#
# Poissons Ratio (x) = 0.12726 0.52415
# Poissons Ratio (y) = 0.17351 -0.03543
# Poissons Ratio (z) = 0.77006 -0.03817
#
# Static dielectric constant tensor:
#      x y z
#    x 1.510310 0.000000 0.000000 
#    y 0.000000 1.756150 0.000000 
#    z 0.000000 0.000000 1.736520 
# 
# From -- ./inp_files/48835.got.cif
#   From: 2010.05.17/outbox.cif.g08.bks.cpg/sg65_25_cif.got.tgz:48835.got - 2010.06.03 17:01:31.
