data_PCOD9492986
_publ_section_title
;
Structure prediction by ZEFSAII (Michael W. Deem and Ramdas Pophale) SiO2 
 PCOD9492986
Probable space group: C M M M
;
_chemical_formula_sum "Si O2"
_cell_formula_units_Z 88
_cell_length_a 15.416732
_cell_length_b 33.965631
_cell_length_c 7.880477
_cell_angle_alpha 90.000000
_cell_angle_beta 90.000000
_cell_angle_gamma 90.000000
_cell_volume 4126.525335
_symmetry_space_group_name_H-M "C M M M"
_symmetry_group_IT_number 65
_symmetry_cell_setting 'orthorhombic'
loop_
_space_group_symop_operation_xyz
x,y,z
-x,-y,z
x,-y,-z
-x,y,-z
-x,-y,-z
x,y,-z
-x,y,z
x,-y,z
1/2+x,1/2+y,z
1/2-x,1/2-y,z
1/2+x,1/2-y,-z
1/2-x,1/2+y,-z
1/2-x,1/2-y,-z
1/2+x,1/2+y,-z
1/2-x,1/2+y,z
1/2+x,1/2-y,z
loop_
_atom_site_type_symbol
_atom_site_label
_atom_site_fract_x
_atom_site_fract_y
_atom_site_fract_z
Si Si1 0.400673 0.500000 0.799308
Si Si2 0.097688 0.165524 0.203486
Si Si3 0.397010 0.190523 0.500000
Si Si4 0.852192 0.747940 0.192885
Si Si5 0.106559 0.600839 0.500000
Si Si6 0.400490 0.416938 0.700599
Si Si7 0.606007 0.045118 0.193425
O O1 0.500000 0.500000 0.724708
O O2 0.358671 0.458577 0.748886
O O3 0.407129 0.500000 0.000000
O O4 0.124622 0.208652 0.262257
O O5 0.142842 0.124235 0.246615
O O6 0.000000 0.160584 0.268993
O O7 0.097918 0.168130 0.000000
O O8 0.500000 0.187247 0.500000
O O9 0.373691 0.214805 0.330335
O O10 0.361797 0.145901 0.500000
O O11 0.750000 0.750000 0.174630
O O12 0.888930 0.741833 0.000000
O O13 0.134352 0.576434 0.333730
O O14 0.000000 0.601296 0.500000
O O15 0.407218 0.416184 0.500000
O O16 0.500000 0.418154 0.775660
O O17 0.500000 0.045528 0.194148
O O18 0.631470 0.000000 0.234258
O O19 0.633401 0.054039 0.000000
#
# Coordination Sequence:
#
# PCOD9492986 Si02
#       7
#     8  16   8  16   8  16  16
#     4   9  15  23  35  53  87 131 163 193 241 302
#     4   9  17  30  49  73  99 129 169 216 264 312
#     4  11  23  36  55  82 112 144 179 220 280 342
#     4  10  22  40  59  78 105 141 185 232 276 328
#     4   9  17  27  40  65 100 135 166 205 255 316
#     4   9  16  24  37  61  93 127 161 200 249 304
#     4   8  13  22  38  61  93 134 172 204 244 300
#
# _framework density 21.325447
#
# number of rings (size 3 to 8) (size 9 to 14) (size 15 to 20)
#    0.000    2.818    0.000    2.455    1.273    6.182 
#    0.000    1.818    0.000    0.000    0.000    0.000 
#    5.455    0.000    4.364    0.000    1.091    0.000 
#
# Total GULP energy -245192.033170 kJ/mol
# GULP energy per Si atom -5572.546208 kJ/mol
# Density = 2.127691 g / cm^3
# Si number density = 21.325447 Si / 1000 Ang^3
#
#
#
# Elastic Constant Matrix: (Units=GPa)
#
#
# Indices 1 2 3 4 5 6 
#
# 1 12.2198 13.3938 2.4962 0.0000 0.0000 0.0000
# 2 13.3938 251.0825 104.7975 0.0000 0.0000 0.0000
# 3 2.4962 104.7975 124.6065 0.0000 0.0000 0.0000
# 4 0.0000 0.0000 0.0000 33.2842 0.0000 0.0000
# 5 0.0000 0.0000 0.0000 0.0000 7.5150 0.0000
# 6 0.0000 0.0000 0.0000 0.0000 0.0000 -47.0941
#
#
#
# Elastic Compliance Matrix: (Units=1/GPa)
#
#
# Indices 1 2 3 4 5 6 
#
# 1 0.087820 -0.006087 0.003360 0.000000 0.000000 0.000000
# 2 -0.006087 0.006559 -0.005394 0.000000 0.000000 0.000000
# 3 0.003360 -0.005394 0.012495 0.000000 0.000000 0.000000
# 4 0.000000 0.000000 0.000000 0.030044 0.000000 0.000000
# 5 0.000000 0.000000 0.000000 0.000000 0.133067 0.000000
# 6 0.000000 0.000000 0.000000 0.000000 0.000000 -0.021234
#
#
# Mechanical properties :
#
#
# Convention : Reuss Voigt Hill
#
# Bulk Modulus (GPa) = 11.03371 69.92040 40.47705
# Shear Modulus (GPa) = 16.93746 16.55579 16.74662
#
# Velocity S-wave (km/s) = 2.82128 2.78931 2.80534
# Velocity P-wave (km/s) = 3.97467 6.57512 5.43278
#
# Compressibility (1/GPa) = 0.09063137
#
# Stress axis : x y z
#
# Youngs Moduli (GPa) = 11.38690 152.46294 80.03371
#
# Poissons Ratio (x) = 0.92807 -0.26893
# Poissons Ratio (y) = 0.06931 0.43173
# Poissons Ratio (z) = -0.03826 0.82244
#
# Static dielectric constant tensor:
#      x y z
#    x 1.797620 0.000000 0.000000 
#    y 0.000000 1.881760 0.000000 
#    z 0.000000 0.000000 1.779730 
# 
# From -- ./inp_files/10188.got.cif
#   From: 2010.05.17/outbox.cif.g08.bks.cpg/sg65_6_cif.got.tgz:10188.got - 2010.06.03 17:01:31.
