data_PCOD9492441
_publ_section_title
;
Structure prediction by ZEFSAII (Michael W. Deem and Ramdas Pophale) SiO2 
 PCOD9492441
Probable space group: C M M M
;
_chemical_formula_sum "Si O2"
_cell_formula_units_Z 72
_cell_length_a 15.824487
_cell_length_b 27.410959
_cell_length_c 8.631629
_cell_angle_alpha 90.000000
_cell_angle_beta 90.000000
_cell_angle_gamma 90.000000
_cell_volume 3744.093067
_symmetry_space_group_name_H-M "C M M M"
_symmetry_group_IT_number 65
_symmetry_cell_setting 'orthorhombic'
loop_
_space_group_symop_operation_xyz
x,y,z
-x,-y,z
x,-y,-z
-x,y,-z
-x,-y,-z
x,y,-z
-x,y,z
x,-y,z
1/2+x,1/2+y,z
1/2-x,1/2-y,z
1/2+x,1/2-y,-z
1/2-x,1/2+y,-z
1/2-x,1/2-y,-z
1/2+x,1/2+y,-z
1/2-x,1/2+y,z
1/2+x,1/2-y,z
loop_
_atom_site_type_symbol
_atom_site_label
_atom_site_fract_x
_atom_site_fract_y
_atom_site_fract_z
Si Si1 0.161209 0.274866 0.314138
Si Si2 0.675440 0.443387 0.312685
Si Si3 0.165693 0.384161 0.813919
Si Si4 0.000000 0.782774 0.815425
Si Si5 0.000000 0.892219 0.312813
Si Si6 0.500000 0.055864 0.811318
O O1 0.155499 0.274417 0.500000
O O2 0.250000 0.250000 0.269038
O O3 0.160168 0.330121 0.254557
O O4 0.082877 0.244828 0.246525
O O5 0.681168 0.441217 0.500000
O O6 0.682492 0.500000 0.266111
O O7 0.750218 0.411420 0.241875
O O8 0.584535 0.421328 0.268113
O O9 0.084046 0.415471 0.763441
O O10 0.165368 0.381171 0.000000
O O11 0.000000 0.838307 0.756841
O O12 0.000000 0.781630 0.000000
O O13 0.000000 0.888037 0.500000
O O14 0.500000 0.000000 0.757143
O O15 0.500000 0.054910 0.000000
#
# Coordination Sequence:
#
# PCOD9492441 Si02
#       6
#    16  16  16   8   8   8
#     4  11  24  42  63  86 116 157 201 244 293 352
#     4  10  21  38  60  86 117 155 199 244 291 348
#     4  11  22  37  60  88 117 151 192 242 298 350
#     4  12  25  40  61  90 122 155 194 245 304 361
#     4  10  21  39  61  84 115 157 200 241 291 352
#     4   9  19  36  56  80 113 151 186 221 273 342
#
# _framework density 19.230291999999999
#
# number of rings (size 3 to 8) (size 9 to 14) (size 15 to 20)
#    0.000    1.444    0.000    5.333    0.000   11.556 
#    0.000    1.667    0.000    6.000    0.000    0.000 
#    0.000    0.000    0.000    0.000    0.000    0.000 
#
# Total GULP energy -201365.297472 kJ/mol
# GULP energy per Si atom -5593.480485 kJ/mol
# Density = 1.918652 g / cm^3
# Si number density = 19.230292 Si / 1000 Ang^3
#
#
#
# Elastic Constant Matrix: (Units=GPa)
#
#
# Indices 1 2 3 4 5 6 
#
# 1 77.4168 -10.2608 13.6206 0.0000 0.0000 0.0000
# 2 -10.2608 87.1248 10.6086 0.0000 0.0000 0.0000
# 3 13.6206 10.6086 28.1471 0.0000 0.0000 0.0000
# 4 0.0000 0.0000 0.0000 -54.8388 0.0000 0.0000
# 5 0.0000 0.0000 0.0000 0.0000 61.6169 0.0000
# 6 0.0000 0.0000 0.0000 0.0000 0.0000 46.1148
#
#
#
# Elastic Compliance Matrix: (Units=1/GPa)
#
#
# Indices 1 2 3 4 5 6 
#
# 1 0.014711 0.002724 -0.008146 0.000000 0.000000 0.000000
# 2 0.002724 0.012534 -0.006043 0.000000 0.000000 0.000000
# 3 -0.008146 -0.006043 0.041747 0.000000 0.000000 0.000000
# 4 0.000000 0.000000 0.000000 -0.018235 0.000000 0.000000
# 5 0.000000 0.000000 0.000000 0.000000 0.016229 0.000000
# 6 0.000000 0.000000 0.000000 0.000000 0.000000 0.021685
#
#
# Mechanical properties :
#
#
# Convention : Reuss Voigt Hill
#
# Bulk Modulus (GPa) = 21.70854 24.51394 23.11124
# Shear Modulus (GPa) = 39.38422 22.49327 30.93874
#
# Velocity S-wave (km/s) = 4.53043 3.42377 4.01540
# Velocity P-wave (km/s) = 6.21929 5.32962 5.79156
#
# Compressibility (1/GPa) = 0.04606483
#
# Stress axis : x y z
#
# Youngs Moduli (GPa) = 67.97477 79.78038 23.95389
#
# Poissons Ratio (x) = -0.21736 0.19512
# Poissons Ratio (y) = -0.18519 0.14474
# Poissons Ratio (z) = 0.55371 0.48208
#
# Static dielectric constant tensor:
#      x y z
#    x 1.642060 0.000000 0.000000 
#    y 0.000000 1.627110 0.000000 
#    z 0.000000 0.000000 1.655640 
# 
# From -- ./inp_files/7382.got.cif
#   From: 2010.05.17/outbox.cif.g08.bks.cpg/sg65_4_cif.got.tgz:7382.got - 2010.06.03 17:01:31.
