data_PCOD9492828
_publ_section_title
;
Structure prediction by ZEFSAII (Michael W. Deem and Ramdas Pophale) SiO2 
 PCOD9492828
Probable space group: C M M M
;
_chemical_formula_sum "Si O2"
_cell_formula_units_Z 88
_cell_length_a 8.915370
_cell_length_b 21.816007
_cell_length_c 25.867175
_cell_angle_alpha 90.000000
_cell_angle_beta 90.000000
_cell_angle_gamma 90.000000
_cell_volume 5031.107966
_symmetry_space_group_name_H-M "C M M M"
_symmetry_group_IT_number 65
_symmetry_cell_setting 'orthorhombic'
loop_
_space_group_symop_operation_xyz
x,y,z
-x,-y,z
x,-y,-z
-x,y,-z
-x,-y,-z
x,y,-z
-x,y,z
x,-y,z
1/2+x,1/2+y,z
1/2-x,1/2-y,z
1/2+x,1/2-y,-z
1/2-x,1/2+y,-z
1/2-x,1/2-y,-z
1/2+x,1/2+y,-z
1/2-x,1/2+y,z
1/2+x,1/2-y,z
loop_
_atom_site_type_symbol
_atom_site_label
_atom_site_fract_x
_atom_site_fract_y
_atom_site_fract_z
Si Si1 0.329665 0.574140 0.894511
Si Si2 0.826902 0.425164 0.000000
Si Si3 0.818351 0.682620 0.707707
Si Si4 0.822677 0.185589 0.500000
Si Si5 0.680441 0.000000 0.562352
Si Si6 0.818954 0.878484 0.606469
Si Si7 0.319735 0.070844 0.784923
O O1 0.500000 0.596501 0.890729
O O2 0.334265 0.500000 0.898215
O O3 0.240414 0.586538 0.842001
O O4 0.252823 0.595818 0.947388
O O5 0.822513 0.500000 0.000000
O O6 0.000000 0.407072 0.000000
O O7 0.750000 0.750000 0.720270
O O8 0.752638 0.659643 0.653037
O O9 0.777141 0.626473 0.746693
O O10 0.000000 0.687288 0.706007
O O11 0.750000 0.250000 0.500000
O O12 0.780170 0.153304 0.447487
O O13 0.000000 0.190135 0.500000
O O14 0.745085 0.943791 0.595499
O O15 0.500000 0.000000 0.562340
O O16 0.726649 0.000000 0.500000
O O17 0.000000 0.882492 0.612631
O O18 0.500000 0.068890 0.785821
O O19 0.269414 0.000000 0.771855
#
# Coordination Sequence:
#
# PCOD9492828 Si02
#       7
#    16   8  16   8   8  16  16
#     4   9  16  26  43  71 106 141 181 229 278 328
#     4   9  15  23  39  65 102 147 186 221 270 329
#     4  11  24  41  61  85 114 149 192 239 287 342
#     4  10  22  37  56  79 107 140 178 222 275 332
#     4  11  23  39  61  89 117 149 183 220 273 338
#     4  11  23  40  60  84 114 147 184 230 280 334
#     4   9  19  36  56  78 108 146 187 232 282 337
#
# _framework density 17.491175999999999
#
# number of rings (size 3 to 8) (size 9 to 14) (size 15 to 20)
#    0.000    2.000    0.909    2.727    1.273    8.000 
#    0.000    0.000    0.000    0.000    0.000    0.636 
#    0.000    0.000    0.000    0.000    0.000    0.000 
#
# Total GULP energy -245146.412198 kJ/mol
# GULP energy per Si atom -5571.509368 kJ/mol
# Density = 1.745137 g / cm^3
# Si number density = 17.491176 Si / 1000 Ang^3
#
#
#
# Elastic Constant Matrix: (Units=GPa)
#
#
# Indices 1 2 3 4 5 6 
#
# 1 35.5850 40.8675 46.8195 0.0000 0.0000 0.0000
# 2 40.8675 121.3935 65.4274 0.0000 0.0000 0.0000
# 3 46.8195 65.4274 134.5263 0.0000 0.0000 0.0000
# 4 0.0000 0.0000 0.0000 -15.0601 0.0000 0.0000
# 5 0.0000 0.0000 0.0000 0.0000 38.3332 0.0000
# 6 0.0000 0.0000 0.0000 0.0000 0.0000 26.3118
#
#
#
# Elastic Compliance Matrix: (Units=1/GPa)
#
#
# Indices 1 2 3 4 5 6 
#
# 1 0.063962 -0.012923 -0.015976 0.000000 0.000000 0.000000
# 2 -0.012923 0.013775 -0.002202 0.000000 0.000000 0.000000
# 3 -0.015976 -0.002202 0.014065 0.000000 0.000000 0.000000
# 4 0.000000 0.000000 0.000000 -0.066400 0.000000 0.000000
# 5 0.000000 0.000000 0.000000 0.000000 0.026087 0.000000
# 6 0.000000 0.000000 0.000000 0.000000 0.000000 0.038006
#
#
# Mechanical properties :
#
#
# Convention : Reuss Voigt Hill
#
# Bulk Modulus (GPa) = 33.78300 66.41485 50.09893
# Shear Modulus (GPa) = 30.94784 19.14299 25.04542
#
# Velocity S-wave (km/s) = 4.21092 3.31182 3.78814
# Velocity P-wave (km/s) = 6.55734 7.25790 6.91649
#
# Compressibility (1/GPa) = 0.02960068
#
# Stress axis : x y z
#
# Youngs Moduli (GPa) = 15.63423 72.59573 71.10046
#
# Poissons Ratio (x) = 0.93812 1.13590
# Poissons Ratio (y) = 0.20203 0.15657
# Poissons Ratio (z) = 0.24977 0.15986
#
# Static dielectric constant tensor:
#      x y z
#    x 1.603950 0.000000 0.000000 
#    y 0.000000 1.453050 0.000000 
#    z 0.000000 0.000000 1.563100 
# 
# From -- ./inp_files/67637.got.cif
#   From: 2010.05.17/outbox.cif.g08.bks.cpg/sg65_34_cif.got.tgz:67637.got - 2010.06.03 17:01:31.
