data_PCOD9492532
_publ_section_title
;
Structure prediction by ZEFSAII (Michael W. Deem and Ramdas Pophale) SiO2 
 PCOD9492532
Probable space group: C M M M
;
_chemical_formula_sum "Si O2"
_cell_formula_units_Z 80
_cell_length_a 7.772853
_cell_length_b 27.713471
_cell_length_c 18.866668
_cell_angle_alpha 90.000000
_cell_angle_beta 90.000000
_cell_angle_gamma 90.000000
_cell_volume 4064.120577
_symmetry_space_group_name_H-M "C M M M"
_symmetry_group_IT_number 65
_symmetry_cell_setting 'orthorhombic'
loop_
_space_group_symop_operation_xyz
x,y,z
-x,-y,z
x,-y,-z
-x,y,-z
-x,-y,-z
x,y,-z
-x,y,z
x,-y,z
1/2+x,1/2+y,z
1/2-x,1/2-y,z
1/2+x,1/2-y,-z
1/2-x,1/2+y,-z
1/2-x,1/2-y,-z
1/2+x,1/2+y,-z
1/2-x,1/2+y,z
1/2+x,1/2-y,z
loop_
_atom_site_type_symbol
_atom_site_label
_atom_site_fract_x
_atom_site_fract_y
_atom_site_fract_z
Si Si1 0.187711 0.057974 0.324612
Si Si2 0.296775 0.393432 0.826966
Si Si3 0.500000 0.942992 0.915196
Si Si4 0.500000 0.941122 0.579874
Si Si5 0.293008 0.692861 0.422969
Si Si6 0.706485 0.694048 0.265648
O O1 0.215352 0.074855 0.244712
O O2 0.332578 0.074368 0.377952
O O3 0.000000 0.075546 0.347734
O O4 0.187628 0.000000 0.325039
O O5 0.500000 0.392484 0.848088
O O6 0.168359 0.416676 0.883270
O O7 0.238114 0.340930 0.798029
O O8 0.500000 0.000000 0.895148
O O9 0.500000 0.940032 0.000000
O O10 0.500000 0.924972 0.500000
O O11 0.500000 0.000000 0.579583
O O12 0.230776 0.673576 0.500000
O O13 0.500000 0.687444 0.422687
O O14 0.250000 0.750000 0.424063
O O15 0.229494 0.678115 0.344166
O O16 0.500000 0.689463 0.267534
O O17 0.750000 0.750000 0.254884
#
# Coordination Sequence:
#
# PCOD9492532 Si02
#       6
#    16  16   8   8  16  16
#     4   9  17  30  50  75 103 140 186 233 288 348
#     4  10  21  38  61  90 121 155 192 241 290 352
#     4  11  25  43  67  99 127 153 185 227 294 371
#     4   9  17  29  45  67 101 145 191 243 295 342
#     4   8  13  23  40  64 100 143 189 244 299 343
#     4   9  18  31  51  82 113 154 205 247 293 344
#
# _framework density 19.684456000000001
#
# number of rings (size 3 to 8) (size 9 to 14) (size 15 to 20)
#    0.000    2.800    0.000    1.200    1.400    2.800 
#    0.000    4.000    0.000    4.200    0.000    0.000 
#    0.000    0.000    0.000    0.000    0.000    0.000 
#
# Total GULP energy -223111.004017 kJ/mol
# GULP energy per Si atom -5577.775100 kJ/mol
# Density = 1.963965 g / cm^3
# Si number density = 19.684456 Si / 1000 Ang^3
#
#
#
# Elastic Constant Matrix: (Units=GPa)
#
#
# Indices 1 2 3 4 5 6 
#
# 1 91.0502 36.2659 62.3833 0.0000 0.0000 0.0000
# 2 36.2659 118.1486 51.5688 0.0000 0.0000 0.0000
# 3 62.3833 51.5688 96.1272 0.0000 0.0000 0.0000
# 4 0.0000 0.0000 0.0000 -5.0192 0.0000 0.0000
# 5 0.0000 0.0000 0.0000 0.0000 34.7229 0.0000
# 6 0.0000 0.0000 0.0000 0.0000 0.0000 32.4071
#
#
#
# Elastic Compliance Matrix: (Units=1/GPa)
#
#
# Indices 1 2 3 4 5 6 
#
# 1 0.019810 -0.000613 -0.012527 0.000000 0.000000 0.000000
# 2 -0.000613 0.011071 -0.005541 0.000000 0.000000 0.000000
# 3 -0.012527 -0.005541 0.021505 0.000000 0.000000 0.000000
# 4 0.000000 0.000000 0.000000 -0.199235 0.000000 0.000000
# 5 0.000000 0.000000 0.000000 0.000000 0.028799 0.000000
# 6 0.000000 0.000000 0.000000 0.000000 0.000000 0.030857
#
#
# Mechanical properties :
#
#
# Convention : Reuss Voigt Hill
#
# Bulk Modulus (GPa) = 66.56354 67.30688 66.93521
# Shear Modulus (GPa) = -111.55504 22.76270 -44.39617
#
# Velocity S-wave (km/s) = -7.53622 3.40425 -4.75425
# Velocity P-wave (km/s) = 6.46819 7.05117 1.98513
#
# Compressibility (1/GPa) = 0.01502324
#
# Stress axis : x y z
#
# Youngs Moduli (GPa) = 50.47900 90.32887 46.50003
#
# Poissons Ratio (x) = 0.05536 0.58252
# Poissons Ratio (y) = 0.03094 0.25767
# Poissons Ratio (z) = 0.63237 0.50053
#
# Static dielectric constant tensor:
#      x y z
#    x 1.711560 0.000000 0.000000 
#    y 0.000000 1.753160 0.000000 
#    z 0.000000 0.000000 1.663080 
# 
# From -- ./inp_files/50199.got.cif
#   From: 2010.05.17/outbox.cif.g08.bks.cpg/sg65_26_cif.got.tgz:50199.got - 2010.06.03 17:01:31.
