data_PCOD9492495
_publ_section_title
;
Structure prediction by ZEFSAII (Michael W. Deem and Ramdas Pophale) SiO2 
 PCOD9492495
Probable space group: C M M M
;
_chemical_formula_sum "Si O2"
_cell_formula_units_Z 96
_cell_length_a 8.617674
_cell_length_b 19.093813
_cell_length_c 31.611306
_cell_angle_alpha 90.000000
_cell_angle_beta 90.000000
_cell_angle_gamma 90.000000
_cell_volume 5201.458822
_symmetry_space_group_name_H-M "C M M M"
_symmetry_group_IT_number 65
_symmetry_cell_setting 'orthorhombic'
loop_
_space_group_symop_operation_xyz
x,y,z
-x,-y,z
x,-y,-z
-x,y,-z
-x,-y,-z
x,y,-z
-x,y,z
x,-y,z
1/2+x,1/2+y,z
1/2-x,1/2-y,z
1/2+x,1/2-y,-z
1/2-x,1/2+y,-z
1/2-x,1/2-y,-z
1/2+x,1/2+y,-z
1/2-x,1/2+y,z
1/2+x,1/2-y,z
loop_
_atom_site_type_symbol
_atom_site_label
_atom_site_fract_x
_atom_site_fract_y
_atom_site_fract_z
Si Si1 0.312446 0.328510 0.953023
Si Si2 0.313921 0.581154 0.623622
Si Si3 0.312980 0.918851 0.217481
Si Si4 0.813506 0.328679 0.298457
Si Si5 0.312749 0.581164 0.126755
Si Si6 0.314170 0.173142 0.450679
O O1 0.500000 0.327012 0.951974
O O2 0.250000 0.250000 0.948776
O O3 0.258674 0.374892 0.913647
O O4 0.266714 0.354728 0.000000
O O5 0.500000 0.584220 0.625417
O O6 0.265386 0.500000 0.627174
O O7 0.244960 0.627051 0.661593
O O8 0.256674 0.615368 0.580002
O O9 0.500000 0.918850 0.216471
O O10 0.262716 0.869453 0.255894
O O11 0.251414 0.894498 0.171953
O O12 0.262193 0.000000 0.224001
O O13 0.750000 0.250000 0.299594
O O14 0.000000 0.326583 0.299217
O O15 0.500000 0.584128 0.128187
O O16 0.266731 0.500000 0.121814
O O17 0.274162 0.161022 0.500000
O O18 0.500000 0.173612 0.446681
O O19 0.250000 0.250000 0.438899
#
# Coordination Sequence:
#
# PCOD9492495 Si02
#       6
#    16  16  16  16  16  16
#     4   9  18  32  49  70  98 132 169 209 254 305
#     4  11  24  40  59  84 114 148 185 227 275 324
#     4   9  19  36  56  77 103 137 174 213 261 315
#     4  11  23  39  59  82 110 143 181 224 269 321
#     4   9  18  32  51  75 101 131 168 211 258 307
#     4  10  21  38  61  87 116 151 189 229 273 322
#
# _framework density 18.45636
#
# number of rings (size 3 to 8) (size 9 to 14) (size 15 to 20)
#    0.000    2.167    0.000    2.500    0.000    6.333 
#    0.000    8.333    0.000    0.000    0.000    4.667 
#    0.000    0.000    0.000    0.000    0.000    0.000 
#
# Total GULP energy -268002.772435 kJ/mol
# GULP energy per Si atom -5583.391092 kJ/mol
# Density = 1.841435 g / cm^3
# Si number density = 18.456360 Si / 1000 Ang^3
#
#
#
# Elastic Constant Matrix: (Units=GPa)
#
#
# Indices 1 2 3 4 5 6 
#
# 1 27.5248 34.0784 36.6002 0.0000 0.0000 0.0000
# 2 34.0784 130.3432 103.3528 0.0000 0.0000 0.0000
# 3 36.6002 103.3528 151.5749 0.0000 0.0000 0.0000
# 4 0.0000 0.0000 0.0000 41.8070 0.0000 0.0000
# 5 0.0000 0.0000 0.0000 0.0000 32.1486 0.0000
# 6 0.0000 0.0000 0.0000 0.0000 0.0000 24.8605
#
#
#
# Elastic Compliance Matrix: (Units=1/GPa)
#
#
# Indices 1 2 3 4 5 6 
#
# 1 0.057813 -0.008809 -0.007954 0.000000 0.000000 0.000000
# 2 -0.008809 0.018045 -0.010177 0.000000 0.000000 0.000000
# 3 -0.007954 -0.010177 0.015457 0.000000 0.000000 0.000000
# 4 0.000000 0.000000 0.000000 0.023919 0.000000 0.000000
# 5 0.000000 0.000000 0.000000 0.000000 0.031106 0.000000
# 6 0.000000 0.000000 0.000000 0.000000 0.000000 0.040224
#
#
# Mechanical properties :
#
#
# Convention : Reuss Voigt Hill
#
# Bulk Modulus (GPa) = 26.71201 73.05619 49.88410
# Shear Modulus (GPa) = 19.76901 28.79065 24.27983
#
# Velocity S-wave (km/s) = 3.27635 3.95388 3.63095
# Velocity P-wave (km/s) = 5.36816 7.77903 6.68321
#
# Compressibility (1/GPa) = 0.03743634
#
# Stress axis : x y z
#
# Youngs Moduli (GPa) = 17.29722 55.41806 64.69488
#
# Poissons Ratio (x) = 0.48815 0.51456
# Poissons Ratio (y) = 0.15236 0.65840
# Poissons Ratio (z) = 0.13758 0.56399
#
# Static dielectric constant tensor:
#      x y z
#    x 1.628710 0.000000 0.000000 
#    y 0.000000 1.609740 0.000000 
#    z 0.000000 0.000000 1.631100 
# 
# From -- ./inp_files/73181.got.cif
#   From: 2010.05.17/outbox.cif.g08.bks.cpg/sg65_37_cif.got.tgz:73181.got - 2010.06.03 17:01:31.
