data_PCOD9492431
_publ_section_title
;
Structure prediction by ZEFSAII (Michael W. Deem and Ramdas Pophale) SiO2 
 PCOD9492431
Probable space group: C M M M
;
_chemical_formula_sum "Si O2"
_cell_formula_units_Z 64
_cell_length_a 11.457689
_cell_length_b 26.440171
_cell_length_c 11.759135
_cell_angle_alpha 90.000000
_cell_angle_beta 90.000000
_cell_angle_gamma 90.000000
_cell_volume 3562.350650
_symmetry_space_group_name_H-M "C M M M"
_symmetry_group_IT_number 65
_symmetry_cell_setting 'orthorhombic'
loop_
_space_group_symop_operation_xyz
x,y,z
-x,-y,z
x,-y,-z
-x,y,-z
-x,-y,-z
x,y,-z
-x,y,z
x,-y,z
1/2+x,1/2+y,z
1/2-x,1/2-y,z
1/2+x,1/2-y,-z
1/2-x,1/2+y,-z
1/2-x,1/2-y,-z
1/2+x,1/2+y,-z
1/2-x,1/2+y,z
1/2+x,1/2-y,z
loop_
_atom_site_type_symbol
_atom_site_label
_atom_site_fract_x
_atom_site_fract_y
_atom_site_fract_z
Si Si1 0.362893 0.787257 0.368542
Si Si2 0.302346 0.884656 0.765878
Si Si3 0.358972 0.939781 0.000000
Si Si4 0.500000 0.058299 0.632980
Si Si5 0.139144 0.943103 0.370683
O O1 0.358810 0.807966 0.500000
O O2 0.500000 0.768984 0.355951
O O3 0.250000 0.750000 0.362661
O O4 0.338863 0.828192 0.269154
O O5 0.388314 0.917382 0.688353
O O6 0.177842 0.899915 0.715277
O O7 0.317574 0.907435 0.890956
O O8 0.500000 0.940150 0.000000
O O9 0.323068 0.000000 0.000000
O O10 0.500000 0.066027 0.500000
O O11 0.500000 0.000000 0.660193
O O12 0.180968 0.933652 0.500000
O O13 0.000000 0.944676 0.374682
O O14 0.179447 0.000000 0.337399
#
# Coordination Sequence:
#
# PCOD9492431 Si02
#       5
#    16  16   8   8  16
#     4  10  21  38  60  86 115 147 190 251 314 367
#     4  12  21  35  56  80 114 152 196 237 288 348
#     4  11  22  36  54  81 119 161 196 233 283 344
#     4  11  20  29  51  85 115 142 177 231 295 356
#     4   9  18  32  51  78 112 147 183 230 291 358
#
# _framework density 17.965665999999999
#
# number of rings (size 3 to 8) (size 9 to 14) (size 15 to 20)
#    0.000    1.500    2.500    5.250    0.000    3.000 
#    0.000    3.750    0.000    2.250    0.000    0.000 
#    0.000    0.000    0.000    0.000    0.000    0.000 
#
# Total GULP energy -178155.172564 kJ/mol
# GULP energy per Si atom -5567.349143 kJ/mol
# Density = 1.792478 g / cm^3
# Si number density = 17.965666 Si / 1000 Ang^3
#
#
#
# Elastic Constant Matrix: (Units=GPa)
#
#
# Indices 1 2 3 4 5 6 
#
# 1 81.6643 36.2612 32.6335 0.0000 0.0000 0.0000
# 2 36.2612 71.8232 39.0957 0.0000 0.0000 0.0000
# 3 32.6335 39.0957 156.6558 0.0000 0.0000 0.0000
# 4 0.0000 0.0000 0.0000 27.7168 0.0000 0.0000
# 5 0.0000 0.0000 0.0000 0.0000 38.6165 0.0000
# 6 0.0000 0.0000 0.0000 0.0000 0.0000 39.8322
#
#
#
# Elastic Compliance Matrix: (Units=1/GPa)
#
#
# Indices 1 2 3 4 5 6 
#
# 1 0.016096 -0.007292 -0.001533 0.000000 0.000000 0.000000
# 2 -0.007292 0.019415 -0.003326 0.000000 0.000000 0.000000
# 3 -0.001533 -0.003326 0.007533 0.000000 0.000000 0.000000
# 4 0.000000 0.000000 0.000000 0.036079 0.000000 0.000000
# 5 0.000000 0.000000 0.000000 0.000000 0.025896 0.000000
# 6 0.000000 0.000000 0.000000 0.000000 0.000000 0.025105
#
#
# Mechanical properties :
#
#
# Convention : Reuss Voigt Hill
#
# Bulk Modulus (GPa) = 53.35819 58.45824 55.90822
# Shear Modulus (GPa) = 31.11907 34.70995 32.91451
#
# Velocity S-wave (km/s) = 4.16642 4.40024 4.28492
# Velocity P-wave (km/s) = 7.27392 7.64367 7.46108
#
# Compressibility (1/GPa) = 0.01874126
#
# Stress axis : x y z
#
# Youngs Moduli (GPa) = 62.12875 51.50652 132.75008
#
# Poissons Ratio (x) = 0.37556 0.20353
# Poissons Ratio (y) = 0.45302 0.44157
# Poissons Ratio (z) = 0.09526 0.17133
#
# Static dielectric constant tensor:
#      x y z
#    x 1.792600 0.000000 0.000000 
#    y 0.000000 1.656140 0.000000 
#    z 0.000000 0.000000 1.595380 
# 
# From -- ./inp_files/22202.got.cif
#   From: 2010.05.17/outbox.cif.g08.bks.cpg/sg65_12_cif.got.tgz:22202.got - 2010.06.03 17:01:31.
