data_PCOD9492860
_publ_section_title
;
Structure prediction by ZEFSAII (Michael W. Deem and Ramdas Pophale) SiO2 
 PCOD9492860
Probable space group: C M M M
;
_chemical_formula_sum "Si O2"
_cell_formula_units_Z 64
_cell_length_a 21.209420
_cell_length_b 19.680700
_cell_length_c 7.451557
_cell_angle_alpha 90.000000
_cell_angle_beta 90.000000
_cell_angle_gamma 90.000000
_cell_volume 3110.400847
_symmetry_space_group_name_H-M "C M M M"
_symmetry_group_IT_number 65
_symmetry_cell_setting 'orthorhombic'
loop_
_space_group_symop_operation_xyz
x,y,z
-x,-y,z
x,-y,-z
-x,y,-z
-x,-y,-z
x,y,-z
-x,y,z
x,-y,z
1/2+x,1/2+y,z
1/2-x,1/2-y,z
1/2+x,1/2-y,-z
1/2-x,1/2+y,-z
1/2-x,1/2-y,-z
1/2+x,1/2+y,-z
1/2-x,1/2+y,z
1/2+x,1/2-y,z
loop_
_atom_site_type_symbol
_atom_site_label
_atom_site_fract_x
_atom_site_fract_y
_atom_site_fract_z
Si Si1 0.687032 0.715643 0.286714
Si Si2 0.863731 0.076260 0.215461
Si Si3 0.075985 0.423240 0.000000
Si Si4 0.500000 0.582670 0.204094
Si Si5 0.426558 0.809976 0.284312
O O1 0.687445 0.725676 0.500000
O O2 0.750000 0.750000 0.212275
O O3 0.684752 0.635469 0.254122
O O4 0.622790 0.752231 0.224768
O O5 0.932637 0.099184 0.288181
O O6 0.849089 0.000000 0.279290
O O7 0.870515 0.072089 0.000000
O O8 0.091197 0.378033 0.174986
O O9 0.101883 0.500000 0.000000
O O10 0.000000 0.428719 0.000000
O O11 0.500000 0.500000 0.195210
O O12 0.500000 0.609431 0.000000
O O13 0.422507 0.819711 0.500000
O O14 0.500000 0.792974 0.243465
#
# Coordination Sequence:
#
# PCOD9492860 Si02
#       5
#    16  16   8   8  16
#     4  10  22  38  54  75 109 149 184 222 277 337
#     4   9  18  33  54  81 110 141 180 223 270 325
#     4   9  18  34  57  86 113 141 185 236 288 338
#     4   7  12  26  47  75 109 137 165 208 263 316
#     4   9  19  36  57  83 113 145 186 233 281 336
#
# _framework density 20.576125999999999
#
# number of rings (size 3 to 8) (size 9 to 14) (size 15 to 20)
#    0.000    3.000    0.000    1.500    3.500    1.500 
#    0.000    3.750    0.000    6.750    0.000    0.000 
#    0.000    0.000    0.000    0.000    0.000    0.000 
#
# Total GULP energy -178346.543058 kJ/mol
# GULP energy per Si atom -5573.329471 kJ/mol
# Density = 2.052929 g / cm^3
# Si number density = 20.576126 Si / 1000 Ang^3
#
#
#
# Elastic Constant Matrix: (Units=GPa)
#
#
# Indices 1 2 3 4 5 6 
#
# 1 98.9598 81.5985 18.0118 0.0000 0.0000 0.0000
# 2 81.5985 148.4354 9.1747 0.0000 0.0000 0.0000
# 3 18.0118 9.1747 68.5261 0.0000 0.0000 0.0000
# 4 0.0000 0.0000 0.0000 27.5338 0.0000 0.0000
# 5 0.0000 0.0000 0.0000 0.0000 42.1539 0.0000
# 6 0.0000 0.0000 0.0000 0.0000 0.0000 33.2830
#
#
#
# Elastic Compliance Matrix: (Units=1/GPa)
#
#
# Indices 1 2 3 4 5 6 
#
# 1 0.019369 -0.010419 -0.003696 0.000000 0.000000 0.000000
# 2 -0.010419 0.012398 0.001079 0.000000 0.000000 0.000000
# 3 -0.003696 0.001079 0.015420 0.000000 0.000000 0.000000
# 4 0.000000 0.000000 0.000000 0.036319 0.000000 0.000000
# 5 0.000000 0.000000 0.000000 0.000000 0.023723 0.000000
# 6 0.000000 0.000000 0.000000 0.000000 0.000000 0.030045
#
#
# Mechanical properties :
#
#
# Convention : Reuss Voigt Hill
#
# Bulk Modulus (GPa) = 47.36202 59.27679 53.31940
# Shear Modulus (GPa) = 29.34525 34.40322 31.87423
#
# Velocity S-wave (km/s) = 3.78058 4.09344 3.94012
# Velocity P-wave (km/s) = 6.49037 7.15631 6.83146
#
# Compressibility (1/GPa) = 0.02111397
#
# Stress axis : x y z
#
# Youngs Moduli (GPa) = 51.62856 80.65848 64.85061
#
# Poissons Ratio (x) = 0.84040 0.23969
# Poissons Ratio (y) = 0.53793 -0.06996
# Poissons Ratio (z) = 0.19082 -0.08701
#
# Static dielectric constant tensor:
#      x y z
#    x 1.761800 0.000000 0.000000 
#    y 0.000000 1.734260 0.000000 
#    z 0.000000 0.000000 1.765600 
# 
# From -- ./inp_files/10842.got.cif
#   From: 2010.05.17/outbox.cif.g08.bks.cpg/sg65_6_cif.got.tgz:10842.got - 2010.06.03 17:01:31.
