data_PCOD9492313
_publ_section_title
;
Structure prediction by ZEFSAII (Michael W. Deem and Ramdas Pophale) SiO2 
 PCOD9492313
Probable space group: C M M M
;
_chemical_formula_sum "Si O2"
_cell_formula_units_Z 80
_cell_length_a 26.485707
_cell_length_b 8.417356
_cell_length_c 24.014407
_cell_angle_alpha 90.000000
_cell_angle_beta 90.000000
_cell_angle_gamma 90.000000
_cell_volume 5353.762885
_symmetry_space_group_name_H-M "C M M M"
_symmetry_group_IT_number 65
_symmetry_cell_setting 'orthorhombic'
loop_
_space_group_symop_operation_xyz
x,y,z
-x,-y,z
x,-y,-z
-x,y,-z
-x,-y,-z
x,y,-z
-x,y,z
x,-y,z
1/2+x,1/2+y,z
1/2-x,1/2-y,z
1/2+x,1/2-y,-z
1/2-x,1/2+y,-z
1/2-x,1/2-y,-z
1/2+x,1/2+y,-z
1/2-x,1/2+y,z
1/2+x,1/2-y,z
loop_
_atom_site_type_symbol
_atom_site_label
_atom_site_fract_x
_atom_site_fract_y
_atom_site_fract_z
Si Si1 0.061467 0.000000 0.935246
Si Si2 0.500000 0.190136 0.436078
Si Si3 0.805103 0.689829 0.436056
Si Si4 0.441789 0.810334 0.740907
Si Si5 0.938633 0.682349 0.869495
Si Si6 0.598403 0.312708 0.628833
O O1 0.077919 0.165730 0.905959
O O2 0.000000 0.000000 0.932459
O O3 0.075907 0.000000 0.000000
O O4 0.500000 0.248288 0.500000
O O5 0.450019 0.244543 0.403913
O O6 0.500000 0.000000 0.437013
O O7 0.813395 0.746215 0.500000
O O8 0.804568 0.500000 0.436667
O O9 0.750000 0.750000 0.418251
O O10 0.850443 0.746384 0.397515
O O11 0.500000 0.753882 0.735203
O O12 0.425669 0.785730 0.804769
O O13 0.408470 0.732180 0.693420
O O14 0.442092 0.000000 0.731653
O O15 0.922293 0.500000 0.884259
O O16 0.000000 0.678358 0.872000
O O17 0.597993 0.500000 0.622470
#
# Coordination Sequence:
#
# PCOD9492313 Si02
#       6
#     8   8  16  16  16  16
#     4   9  16  24  36  56  80 110 150 196 230 266
#     4  11  23  37  49  63  91 125 151 186 239 288
#     4  10  21  38  57  72  89 116 150 191 235 283
#     4   9  17  30  46  62  87 119 153 191 231 277
#     4   8  15  26  39  55  78 113 149 190 234 272
#     4  12  23  32  48  73  94 118 151 192 236 287
#
# _framework density 14.942761000000001
#
# number of rings (size 3 to 8) (size 9 to 14) (size 15 to 20)
#    0.000    2.200    1.000    4.500    1.400    4.800 
#    0.000    2.000    0.000    0.000    0.000    0.000 
#    0.000    0.000    0.000    0.000    0.000    1.000 
#
# Total GULP energy -222993.207963 kJ/mol
# GULP energy per Si atom -5574.830199 kJ/mol
# Density = 1.490875 g / cm^3
# Si number density = 14.942761 Si / 1000 Ang^3
#
#
#
# Elastic Constant Matrix: (Units=GPa)
#
#
# Indices 1 2 3 4 5 6 
#
# 1 71.5032 38.4424 44.1186 0.0000 0.0000 0.0000
# 2 38.4424 97.8228 64.7160 0.0000 0.0000 0.0000
# 3 44.1186 64.7160 89.1196 0.0000 0.0000 0.0000
# 4 0.0000 0.0000 0.0000 23.3521 0.0000 0.0000
# 5 0.0000 0.0000 0.0000 0.0000 6.0203 0.0000
# 6 0.0000 0.0000 0.0000 0.0000 0.0000 18.8854
#
#
#
# Elastic Compliance Matrix: (Units=1/GPa)
#
#
# Indices 1 2 3 4 5 6 
#
# 1 0.020469 -0.002579 -0.008260 0.000000 0.000000 0.000000
# 2 -0.002579 0.019999 -0.013246 0.000000 0.000000 0.000000
# 3 -0.008260 -0.013246 0.024929 0.000000 0.000000 0.000000
# 4 0.000000 0.000000 0.000000 0.042823 0.000000 0.000000
# 5 0.000000 0.000000 0.000000 0.000000 0.166104 0.000000
# 6 0.000000 0.000000 0.000000 0.000000 0.000000 0.052951
#
#
# Mechanical properties :
#
#
# Convention : Reuss Voigt Hill
#
# Bulk Modulus (GPa) = 58.05109 61.44439 59.74774
# Shear Modulus (GPa) = 13.11691 17.06281 15.08986
#
# Velocity S-wave (km/s) = 2.96600 3.38283 3.18125
# Velocity P-wave (km/s) = 7.11778 7.51447 7.31881
#
# Compressibility (1/GPa) = 0.01722621
#
# Stress axis : x y z
#
# Youngs Moduli (GPa) = 48.85525 50.00203 40.11424
#
# Poissons Ratio (x) = 0.12897 0.33134
# Poissons Ratio (y) = 0.12601 0.53135
# Poissons Ratio (z) = 0.40355 0.66232
#
# Static dielectric constant tensor:
#      x y z
#    x 1.443790 0.000000 0.000000 
#    y 0.000000 1.512330 0.000000 
#    z 0.000000 0.000000 1.504430 
# 
# From -- ./inp_files/65057.got.cif
#   From: 2010.05.17/outbox.cif.g08.bks.cpg/sg65_33_cif.got.tgz:65057.got - 2010.06.03 17:01:31.
