data_PCOD9492827
_publ_section_title
;
Structure prediction by ZEFSAII (Michael W. Deem and Ramdas Pophale) SiO2 
 PCOD9492827
Probable space group: C M M M
;
_chemical_formula_sum "Si O2"
_cell_formula_units_Z 64
_cell_length_a 7.992257
_cell_length_b 22.222263
_cell_length_c 17.562834
_cell_angle_alpha 90.000000
_cell_angle_beta 90.000000
_cell_angle_gamma 90.000000
_cell_volume 3119.265346
_symmetry_space_group_name_H-M "C M M M"
_symmetry_group_IT_number 65
_symmetry_cell_setting 'orthorhombic'
loop_
_space_group_symop_operation_xyz
x,y,z
-x,-y,z
x,-y,-z
-x,y,-z
-x,-y,-z
x,y,-z
-x,y,z
x,-y,z
1/2+x,1/2+y,z
1/2-x,1/2-y,z
1/2+x,1/2-y,-z
1/2-x,1/2+y,-z
1/2-x,1/2-y,-z
1/2+x,1/2+y,-z
1/2-x,1/2+y,z
1/2+x,1/2-y,z
loop_
_atom_site_type_symbol
_atom_site_label
_atom_site_fract_x
_atom_site_fract_y
_atom_site_fract_z
Si Si1 0.700972 0.500000 0.409437
Si Si2 0.299145 0.817985 0.500000
Si Si3 0.304836 0.680517 0.185421
Si Si4 0.300710 0.126064 0.655334
Si Si5 0.203961 0.067032 0.089467
O O1 0.500000 0.500000 0.411682
O O2 0.757997 0.500000 0.500000
O O3 0.763599 0.443297 0.361017
O O4 0.500000 0.826864 0.500000
O O5 0.250000 0.750000 0.500000
O O6 0.232752 0.845308 0.422398
O O7 0.500000 0.681593 0.168003
O O8 0.250000 0.750000 0.176073
O O9 0.277401 0.657365 0.271375
O O10 0.231189 0.626060 0.133636
O O11 0.500000 0.135387 0.661230
O O12 0.000000 0.066663 0.095484
O O13 0.259431 0.000000 0.116627
O O14 0.244534 0.071604 0.000000
#
# Coordination Sequence:
#
# PCOD9492827 Si02
#       5
#     8   8  16  16  16
#     4  11  23  39  61  89 116 151 198 247 299 358
#     4  10  22  37  56  77 105 148 196 240 291 348
#     4  11  23  38  59  89 123 158 202 250 302 363
#     4  11  23  40  59  83 117 157 198 246 300 353
#     4   8  16  34  60  88 118 154 198 247 298 356
#
# _framework density 20.517651999999998
#
# number of rings (size 3 to 8) (size 9 to 14) (size 15 to 20)
#    0.000    1.875    1.250    3.375    1.750    5.000 
#    0.000    0.000    0.000    2.250    0.000    7.000 
#    0.000    0.000    0.000    0.000    0.000    0.000 
#
# Total GULP energy -178459.590427 kJ/mol
# GULP energy per Si atom -5576.862201 kJ/mol
# Density = 2.047095 g / cm^3
# Si number density = 20.517652 Si / 1000 Ang^3
#
#
#
# Elastic Constant Matrix: (Units=GPa)
#
#
# Indices 1 2 3 4 5 6 
#
# 1 9.5938 0.4071 -4.8263 0.0000 0.0000 0.0000
# 2 0.4071 231.0969 90.4078 0.0000 0.0000 0.0000
# 3 -4.8263 90.4078 95.0408 0.0000 0.0000 0.0000
# 4 0.0000 0.0000 0.0000 132.6105 0.0000 0.0000
# 5 0.0000 0.0000 0.0000 0.0000 21.7544 0.0000
# 6 0.0000 0.0000 0.0000 0.0000 0.0000 22.9316
#
#
#
# Elastic Compliance Matrix: (Units=1/GPa)
#
#
# Indices 1 2 3 4 5 6 
#
# 1 0.108974 -0.003754 0.009105 0.000000 0.000000 0.000000
# 2 -0.003754 0.007021 -0.006870 0.000000 0.000000 0.000000
# 3 0.009105 -0.006870 0.017519 0.000000 0.000000 0.000000
# 4 0.000000 0.000000 0.000000 0.007541 0.000000 0.000000
# 5 0.000000 0.000000 0.000000 0.000000 0.045968 0.000000
# 6 0.000000 0.000000 0.000000 0.000000 0.000000 0.043608
#
#
# Mechanical properties :
#
#
# Convention : Reuss Voigt Hill
#
# Bulk Modulus (GPa) = 7.66420 56.41206 32.03813
# Shear Modulus (GPa) = 18.04008 52.10883 35.07446
#
# Velocity S-wave (km/s) = 2.96843 5.04502 4.13907
# Velocity P-wave (km/s) = 3.93602 7.84158 6.20414
#
# Compressibility (1/GPa) = 0.13047682
#
# Stress axis : x y z
#
# Youngs Moduli (GPa) = 9.17649 142.42400 57.08110
#
# Poissons Ratio (x) = 0.53464 -0.51971
# Poissons Ratio (y) = 0.03445 0.39213
# Poissons Ratio (z) = -0.08355 0.97840
#
# Static dielectric constant tensor:
#      x y z
#    x 1.752500 0.000000 0.000000 
#    y 0.000000 0.689920 0.000000 
#    z 0.000000 0.000000 1.712210 
# 
# From -- ./inp_files/36069.got.cif
#   From: 2010.05.17/outbox.cif.g08.bks.cpg/sg65_19_cif.got.tgz:36069.got - 2010.06.03 17:01:31.
