data_PCOD9492215
_publ_section_title
;
Structure prediction by ZEFSAII (Michael W. Deem and Ramdas Pophale) SiO2 
 PCOD9492215
Probable space group: C M M M
;
_chemical_formula_sum "Si O2"
_cell_formula_units_Z 112
_cell_length_a 15.556968
_cell_length_b 15.993030
_cell_length_c 23.404644
_cell_angle_alpha 90.000000
_cell_angle_beta 90.000000
_cell_angle_gamma 90.000000
_cell_volume 5823.146950
_symmetry_space_group_name_H-M "C M M M"
_symmetry_group_IT_number 65
_symmetry_cell_setting 'orthorhombic'
loop_
_space_group_symop_operation_xyz
x,y,z
-x,-y,z
x,-y,-z
-x,y,-z
-x,-y,-z
x,y,-z
-x,y,z
x,-y,z
1/2+x,1/2+y,z
1/2-x,1/2-y,z
1/2+x,1/2-y,-z
1/2-x,1/2+y,-z
1/2-x,1/2-y,-z
1/2+x,1/2+y,-z
1/2-x,1/2+y,z
1/2+x,1/2-y,z
loop_
_atom_site_type_symbol
_atom_site_label
_atom_site_fract_x
_atom_site_fract_y
_atom_site_fract_z
Si Si1 0.598836 0.595421 0.638010
Si Si2 0.407055 0.860574 0.934200
Si Si3 0.214229 0.905453 0.064220
Si Si4 0.647274 0.742749 0.725658
Si Si5 0.901228 0.595846 0.343509
Si Si6 0.403780 0.300399 0.854433
Si Si7 0.742595 0.149409 0.433755
O O1 0.500000 0.603810 0.618683
O O2 0.609813 0.500000 0.660082
O O3 0.616914 0.667112 0.684773
O O4 0.668354 0.610640 0.588620
O O5 0.500000 0.904187 0.926812
O O6 0.317020 0.906988 0.926911
O O7 0.405399 0.784620 0.890544
O O8 0.406060 0.830344 0.000000
O O9 0.166879 0.855844 0.113762
O O10 0.182184 0.000000 0.064301
O O11 0.198923 0.869828 0.000000
O O12 0.750000 0.750000 0.722357
O O13 0.611171 0.831681 0.703644
O O14 0.619244 0.720794 0.789553
O O15 0.886226 0.500000 0.323341
O O16 0.833745 0.616613 0.393491
O O17 0.000000 0.600664 0.363738
O O18 0.500000 0.337792 0.857024
O O19 0.727367 0.129911 0.500000
O O20 0.750000 0.250000 0.427478
#
# Coordination Sequence:
#
# PCOD9492215 Si02
#       7
#    16  16  16  16  16  16  16
#     4  11  23  40  63  90 124 167 209 253 307 363
#     4   9  18  35  59  85 114 152 199 250 305 360
#     4  10  21  37  58  87 123 160 200 250 309 370
#     4  12  23  41  65  89 122 162 207 259 310 366
#     4  11  23  41  66  93 124 162 202 253 317 376
#     4  11  23  38  59  85 117 157 202 251 299 357
#     4  11  23  41  66  95 127 166 208 255 309 367
#
# _framework density 19.233585999999999
#
# number of rings (size 3 to 8) (size 9 to 14) (size 15 to 20)
#    0.000    1.286    2.857    3.429    0.000    4.857 
#    0.000    7.143    0.000    0.857    0.000    0.000 
#    0.000    0.000    0.000    0.000    0.000    0.000 
#
# Total GULP energy -312578.064026 kJ/mol
# GULP energy per Si atom -5581.751143 kJ/mol
# Density = 1.918981 g / cm^3
# Si number density = 19.233586 Si / 1000 Ang^3
#
#
#
# Elastic Constant Matrix: (Units=GPa)
#
#
# Indices 1 2 3 4 5 6 
#
# 1 141.5451 44.1262 57.2061 0.0000 0.0000 0.0000
# 2 44.1262 109.7340 51.5659 0.0000 0.0000 0.0000
# 3 57.2061 51.5659 116.0386 0.0000 0.0000 0.0000
# 4 0.0000 0.0000 0.0000 12.7845 0.0000 0.0000
# 5 0.0000 0.0000 0.0000 0.0000 8.6179 0.0000
# 6 0.0000 0.0000 0.0000 0.0000 0.0000 86.9891
#
#
#
# Elastic Compliance Matrix: (Units=1/GPa)
#
#
# Indices 1 2 3 4 5 6 
#
# 1 0.009148 -0.001971 -0.003634 0.000000 0.000000 0.000000
# 2 -0.001971 0.011943 -0.004336 0.000000 0.000000 0.000000
# 3 -0.003634 -0.004336 0.012336 0.000000 0.000000 0.000000
# 4 0.000000 0.000000 0.000000 0.078220 0.000000 0.000000
# 5 0.000000 0.000000 0.000000 0.000000 0.116038 0.000000
# 6 0.000000 0.000000 0.000000 0.000000 0.000000 0.011496
#
#
# Mechanical properties :
#
#
# Convention : Reuss Voigt Hill
#
# Bulk Modulus (GPa) = 73.82346 74.79046 74.30696
# Shear Modulus (GPa) = 18.96981 35.97293 27.47137
#
# Velocity S-wave (km/s) = 3.14393 4.32941 3.78339
# Velocity P-wave (km/s) = 7.18644 7.99759 7.60284
#
# Compressibility (1/GPa) = 0.01354583
#
# Stress axis : x y z
#
# Youngs Moduli (GPa) = 109.31319 83.73211 81.06314
#
# Poissons Ratio (x) = 0.16503 0.29459
# Poissons Ratio (y) = 0.21544 0.35146
# Poissons Ratio (z) = 0.39725 0.36303
#
# Static dielectric constant tensor:
#      x y z
#    x 1.687970 0.000000 0.000000 
#    y 0.000000 1.669120 0.000000 
#    z 0.000000 0.000000 1.634320 
# 
# From -- ./inp_files/70014.got.cif
#   From: 2010.05.17/outbox.cif.g08.bks.cpg/sg65_36_cif.got.tgz:70014.got - 2010.06.03 17:01:31.
