data_PCOD9492081
_publ_section_title
;
Structure prediction by ZEFSAII (Michael W. Deem and Ramdas Pophale) SiO2 
 PCOD9492081
Probable space group: C M M M
;
_chemical_formula_sum "Si O2"
_cell_formula_units_Z 112
_cell_length_a 13.983438
_cell_length_b 28.098063
_cell_length_c 14.423927
_cell_angle_alpha 90.000000
_cell_angle_beta 90.000000
_cell_angle_gamma 90.000000
_cell_volume 5667.269413
_symmetry_space_group_name_H-M "C M M M"
_symmetry_group_IT_number 65
_symmetry_cell_setting 'orthorhombic'
loop_
_space_group_symop_operation_xyz
x,y,z
-x,-y,z
x,-y,-z
-x,y,-z
-x,-y,-z
x,y,-z
-x,y,z
x,-y,z
1/2+x,1/2+y,z
1/2-x,1/2-y,z
1/2+x,1/2-y,-z
1/2-x,1/2+y,-z
1/2-x,1/2-y,-z
1/2+x,1/2+y,-z
1/2-x,1/2+y,z
1/2+x,1/2-y,z
loop_
_atom_site_type_symbol
_atom_site_label
_atom_site_fract_x
_atom_site_fract_y
_atom_site_fract_z
Si Si1 0.392092 0.442418 0.100945
Si Si2 0.385849 0.138379 0.237696
Si Si3 0.884691 0.204248 0.267599
Si Si4 0.256337 0.443750 0.728832
Si Si5 0.883966 0.290518 0.602236
Si Si6 0.116884 0.726551 0.107259
Si Si7 0.114232 0.113826 0.391557
O O1 0.500000 0.424276 0.112907
O O2 0.397006 0.500000 0.098186
O O3 0.327851 0.431010 0.187063
O O4 0.356238 0.426350 0.000000
O O5 0.500000 0.133081 0.229388
O O6 0.335267 0.087924 0.246602
O O7 0.362094 0.165132 0.333449
O O8 0.355846 0.176870 0.158630
O O9 0.856395 0.243328 0.343592
O O10 0.852492 0.227595 0.169704
O O11 0.859871 0.154518 0.315763
O O12 0.000000 0.203227 0.261390
O O13 0.237056 0.500000 0.728807
O O14 0.314369 0.428532 0.636724
O O15 0.843894 0.293789 0.500000
O O16 0.000000 0.288683 0.596755
O O17 0.000000 0.726811 0.109009
O O18 0.146236 0.728512 0.000000
O O19 0.126092 0.128083 0.500000
O O20 0.000000 0.102653 0.380505
#
# Coordination Sequence:
#
# PCOD9492081 Si02
#       7
#    16  16  16  16  16  16  16
#     4   8  15  31  55  78  98 124 163 214 272 328
#     4   9  19  34  52  77 108 144 186 228 273 325
#     4   8  14  27  50  80 110 138 169 208 263 333
#     4  11  23  37  54  76 105 143 190 241 283 322
#     4   8  13  25  48  73  97 130 172 217 266 322
#     4   8  14  28  53  83 115 149 180 214 262 322
#     4  10  21  37  57  81 110 142 176 220 277 339
#
# _framework density 19.762604
#
# number of rings (size 3 to 8) (size 9 to 14) (size 15 to 20)
#    0.000    3.143    0.000    3.000    0.000    4.286 
#    0.000    4.286    0.000    7.714    0.000    7.000 
#    0.000    0.000    0.000    0.000    0.000    0.000 
#
# Total GULP energy -312118.467870 kJ/mol
# GULP energy per Si atom -5573.544069 kJ/mol
# Density = 1.971762 g / cm^3
# Si number density = 19.762604 Si / 1000 Ang^3
#
#
#
# Elastic Constant Matrix: (Units=GPa)
#
#
# Indices 1 2 3 4 5 6 
#
# 1 68.8740 36.5759 19.7436 0.0000 0.0000 0.0000
# 2 36.5759 107.7683 56.1414 0.0000 0.0000 0.0000
# 3 19.7436 56.1414 149.7814 0.0000 0.0000 0.0000
# 4 0.0000 0.0000 0.0000 15.3961 0.0000 0.0000
# 5 0.0000 0.0000 0.0000 0.0000 -2.3454 0.0000
# 6 0.0000 0.0000 0.0000 0.0000 0.0000 31.2295
#
#
#
# Elastic Compliance Matrix: (Units=1/GPa)
#
#
# Indices 1 2 3 4 5 6 
#
# 1 0.017713 -0.005959 -0.000101 0.000000 0.000000 0.000000
# 2 -0.005959 0.013535 -0.004288 0.000000 0.000000 0.000000
# 3 -0.000101 -0.004288 0.008297 0.000000 0.000000 0.000000
# 4 0.000000 0.000000 0.000000 0.064952 0.000000 0.000000
# 5 0.000000 0.000000 0.000000 0.000000 -0.426372 0.000000
# 6 0.000000 0.000000 0.000000 0.000000 0.000000 0.032021
#
#
# Mechanical properties :
#
#
# Convention : Reuss Voigt Hill
#
# Bulk Modulus (GPa) = 53.05324 61.26061 57.15693
# Shear Modulus (GPa) = -19.02044 23.12023 2.04990
#
# Velocity S-wave (km/s) = -3.10570 3.42409 1.01956
# Velocity P-wave (km/s) = 3.74741 6.83360 5.51095
#
# Compressibility (1/GPa) = 0.01884899
#
# Stress axis : x y z
#
# Youngs Moduli (GPa) = 56.45640 73.88095 120.52636
#
# Poissons Ratio (x) = 0.44024 0.01221
# Poissons Ratio (y) = 0.33641 0.51680
# Poissons Ratio (z) = 0.00572 0.31679
#
# Static dielectric constant tensor:
#      x y z
#    x 1.735360 0.000000 0.000000 
#    y 0.000000 1.705290 0.000000 
#    z 0.000000 0.000000 1.709270 
# 
# From -- ./inp_files/41104.got.cif
#   From: 2010.05.17/outbox.cif.g08.bks.cpg/sg65_21_cif.got.tgz:41104.got - 2010.06.03 17:01:31.
