data_PCOD9492285
_publ_section_title
;
Structure prediction by ZEFSAII (Michael W. Deem and Ramdas Pophale) SiO2 
 PCOD9492285
Probable space group: C M M M
;
_chemical_formula_sum "Si O2"
_cell_formula_units_Z 68
_cell_length_a 15.289432
_cell_length_b 9.278091
_cell_length_c 26.029662
_cell_angle_alpha 90.000000
_cell_angle_beta 90.000000
_cell_angle_gamma 90.000000
_cell_volume 3692.483032
_symmetry_space_group_name_H-M "C M M M"
_symmetry_group_IT_number 65
_symmetry_cell_setting 'orthorhombic'
loop_
_space_group_symop_operation_xyz
x,y,z
-x,-y,z
x,-y,-z
-x,y,-z
-x,-y,-z
x,y,-z
-x,y,z
x,-y,z
1/2+x,1/2+y,z
1/2-x,1/2-y,z
1/2+x,1/2-y,-z
1/2-x,1/2+y,-z
1/2-x,1/2-y,-z
1/2+x,1/2+y,-z
1/2-x,1/2+y,z
1/2+x,1/2-y,z
loop_
_atom_site_type_symbol
_atom_site_label
_atom_site_fract_x
_atom_site_fract_y
_atom_site_fract_z
Si Si1 0.837544 0.173267 0.129719
Si Si2 0.397241 0.669034 0.663879
Si Si3 0.786813 0.500000 0.500000
Si Si4 0.105621 0.333976 0.231854
Si Si5 0.250000 0.750000 0.418030
Si Si6 0.500000 0.674560 0.941699
O O1 0.750000 0.250000 0.111337
O O2 0.858082 0.236893 0.185975
O O3 0.915494 0.214587 0.091300
O O4 0.830089 0.000000 0.131752
O O5 0.500000 0.697682 0.650714
O O6 0.391417 0.500000 0.677769
O O7 0.372894 0.766077 0.712927
O O8 0.330740 0.700749 0.617884
O O9 0.782651 0.376019 0.454937
O O10 0.135559 0.500000 0.227684
O O11 0.000000 0.332673 0.227874
O O12 0.500000 0.500000 0.944185
O O13 0.500000 0.729475 0.000000
#
# Coordination Sequence:
#
# PCOD9492285 Si02
#       6
#    16  16   4  16   8   8
#     4  11  22  38  61  90 125 164 211 254 310 373
#     4  10  22  40  63  90 123 162 207 248 306 374
#     4  10  24  42  66  88 126 160 208 244 314 350
#     4  10  21  37  60  91 127 162 201 257 311 372
#     4  11  22  44  64  92 120 164 197 264 296 368
#     4   9  20  40  65  89 121 169 215 260 309 364
#
# _framework density 18.415792
#
# number of rings (size 3 to 8) (size 9 to 14) (size 15 to 20)
#    0.000    1.765    2.353    1.412    3.294    1.412 
#    0.000    3.529    0.000    4.941    0.000    0.000 
#    0.000    0.000    0.000    0.000    0.000    0.000 
#
# Total GULP energy -189315.724391 kJ/mol
# GULP energy per Si atom -5568.109541 kJ/mol
# Density = 1.837388 g / cm^3
# Si number density = 18.415792 Si / 1000 Ang^3
#
#
#
# Elastic Constant Matrix: (Units=GPa)
#
#
# Indices 1 2 3 4 5 6 
#
# 1 98.1954 35.8110 62.6748 0.0000 0.0000 0.0000
# 2 35.8110 110.8894 43.1385 0.0000 0.0000 0.0000
# 3 62.6748 43.1385 125.6851 0.0000 0.0000 0.0000
# 4 0.0000 0.0000 0.0000 20.3794 0.0000 0.0000
# 5 0.0000 0.0000 0.0000 0.0000 -1.8225 0.0000
# 6 0.0000 0.0000 0.0000 0.0000 0.0000 12.8705
#
#
#
# Elastic Compliance Matrix: (Units=1/GPa)
#
#
# Indices 1 2 3 4 5 6 
#
# 1 0.015429 -0.002296 -0.006906 0.000000 0.000000 0.000000
# 2 -0.002296 0.010749 -0.002544 0.000000 0.000000 0.000000
# 3 -0.006906 -0.002544 0.012273 0.000000 0.000000 0.000000
# 4 0.000000 0.000000 0.000000 0.049069 0.000000 0.000000
# 5 0.000000 0.000000 0.000000 0.000000 -0.548705 0.000000
# 6 0.000000 0.000000 0.000000 0.000000 0.000000 0.077697
#
#
# Mechanical properties :
#
#
# Convention : Reuss Voigt Hill
#
# Bulk Modulus (GPa) = 66.84983 68.66871 67.75927
# Shear Modulus (GPa) = -14.08418 19.16186 2.53884
#
# Velocity S-wave (km/s) = -2.76848 3.22920 1.17542
# Velocity P-wave (km/s) = 5.11466 7.16048 6.22223
#
# Compressibility (1/GPa) = 0.01495890
#
# Stress axis : x y z
#
# Youngs Moduli (GPa) = 64.81364 93.02862 81.47732
#
# Poissons Ratio (x) = 0.21361 0.56266
# Poissons Ratio (y) = 0.14882 0.20732
# Poissons Ratio (z) = 0.44758 0.23671
#
# Static dielectric constant tensor:
#      x y z
#    x 1.652500 0.000000 0.000000 
#    y 0.000000 1.618980 0.000000 
#    z 0.000000 0.000000 1.598970 
# 
# From -- ./inp_files/70382.got.cif
#   From: 2010.05.17/outbox.cif.g08.bks.cpg/sg65_36_cif.got.tgz:70382.got - 2010.06.03 17:01:31.
