data_PCOD9492942
_publ_section_title
;
Structure prediction by ZEFSAII (Michael W. Deem and Ramdas Pophale) SiO2 
 PCOD9492942
Probable space group: C M M M
;
_chemical_formula_sum "Si O2"
_cell_formula_units_Z 88
_cell_length_a 8.130113
_cell_length_b 18.610272
_cell_length_c 30.781169
_cell_angle_alpha 90.000000
_cell_angle_beta 90.000000
_cell_angle_gamma 90.000000
_cell_volume 4657.302123
_symmetry_space_group_name_H-M "C M M M"
_symmetry_group_IT_number 65
_symmetry_cell_setting 'orthorhombic'
loop_
_space_group_symop_operation_xyz
x,y,z
-x,-y,z
x,-y,-z
-x,y,-z
-x,-y,-z
x,y,-z
-x,y,z
x,-y,z
1/2+x,1/2+y,z
1/2-x,1/2-y,z
1/2+x,1/2-y,-z
1/2-x,1/2+y,-z
1/2-x,1/2-y,-z
1/2+x,1/2+y,-z
1/2-x,1/2+y,z
1/2+x,1/2-y,z
loop_
_atom_site_type_symbol
_atom_site_label
_atom_site_fract_x
_atom_site_fract_y
_atom_site_fract_z
Si Si1 0.804192 0.668018 0.132812
Si Si2 0.500000 0.087256 0.549678
Si Si3 0.801661 0.917573 0.951271
Si Si4 0.195414 0.167502 0.300644
Si Si5 0.197338 0.581339 0.216153
Si Si6 0.192590 0.086570 0.609830
O O1 0.750000 0.750000 0.136435
O O2 0.754314 0.633631 0.087061
O O3 0.737345 0.621168 0.173143
O O4 0.000000 0.666395 0.135362
O O5 0.500000 0.112904 0.500000
O O6 0.332149 0.107779 0.574910
O O7 0.500000 0.000000 0.548782
O O8 0.000000 0.917866 0.951644
O O9 0.747081 0.000000 0.943271
O O10 0.746436 0.896767 0.000000
O O11 0.250000 0.250000 0.302732
O O12 0.267283 0.127212 0.258959
O O13 0.235943 0.125441 0.345011
O O14 0.000000 0.165684 0.296195
O O15 0.261892 0.500000 0.219917
O O16 0.000000 0.576930 0.211877
O O17 0.000000 0.103341 0.598698
O O18 0.201082 0.000000 0.615370
#
# Coordination Sequence:
#
# PCOD9492942 Si02
#       6
#    16   8  16  16  16  16
#     4  11  23  38  56  81 113 148 186 229 278 336
#     4   9  18  32  56  88 116 150 193 239 296 348
#     4   9  19  37  60  84 109 140 182 230 282 338
#     4  11  23  37  56  84 113 150 190 232 281 338
#     4  10  22  39  59  83 112 145 183 229 280 335
#     4   9  19  35  55  83 116 150 193 243 290 346
#
# _framework density 18.895060000000001
#
# number of rings (size 3 to 8) (size 9 to 14) (size 15 to 20)
#    0.000    2.091    0.000    3.273    2.545    6.182 
#    0.000    2.727    0.000    0.545    0.000    0.000 
#    0.000    0.000    0.000    0.000    0.000    0.000 
#
# Total GULP energy -245610.441600 kJ/mol
# GULP energy per Si atom -5582.055491 kJ/mol
# Density = 1.885205 g / cm^3
# Si number density = 18.895060 Si / 1000 Ang^3
#
#
#
# Elastic Constant Matrix: (Units=GPa)
#
#
# Indices 1 2 3 4 5 6 
#
# 1 51.0566 35.7093 58.6654 0.0000 0.0000 0.0000
# 2 35.7093 105.2821 83.7560 0.0000 0.0000 0.0000
# 3 58.6654 83.7560 165.4930 0.0000 0.0000 0.0000
# 4 0.0000 0.0000 0.0000 5.6430 0.0000 0.0000
# 5 0.0000 0.0000 0.0000 0.0000 25.6034 0.0000
# 6 0.0000 0.0000 0.0000 0.0000 0.0000 -27.1104
#
#
#
# Elastic Compliance Matrix: (Units=1/GPa)
#
#
# Indices 1 2 3 4 5 6 
#
# 1 0.033688 -0.003224 -0.010310 0.000000 0.000000 0.000000
# 2 -0.003224 0.016208 -0.007060 0.000000 0.000000 0.000000
# 3 -0.010310 -0.007060 0.013271 0.000000 0.000000 0.000000
# 4 0.000000 0.000000 0.000000 0.177209 0.000000 0.000000
# 5 0.000000 0.000000 0.000000 0.000000 0.039057 0.000000
# 6 0.000000 0.000000 0.000000 0.000000 0.000000 -0.036886
#
#
# Mechanical properties :
#
#
# Convention : Reuss Voigt Hill
#
# Bulk Modulus (GPa) = 45.50021 75.34368 60.42194
# Shear Modulus (GPa) = 17.17847 10.40729 13.79288
#
# Velocity S-wave (km/s) = 3.01848 2.34945 2.70473
# Velocity P-wave (km/s) = 6.02338 6.87904 6.46538
#
# Compressibility (1/GPa) = 0.02197792
#
# Stress axis : x y z
#
# Youngs Moduli (GPa) = 29.68441 61.69604 75.35422
#
# Poissons Ratio (x) = 0.19890 0.77693
# Poissons Ratio (y) = 0.09570 0.53202
# Poissons Ratio (z) = 0.30606 0.43559
#
# Static dielectric constant tensor:
#      x y z
#    x 1.662940 0.000000 0.000000 
#    y 0.000000 1.655340 0.000000 
#    z 0.000000 0.000000 1.641660 
# 
# From -- ./inp_files/76702.got.cif
#   From: 2010.05.17/outbox.cif.g08.bks.cpg/sg65_39_cif.got.tgz:76702.got - 2010.06.03 17:01:31.
