data_PCOD9492646
_publ_section_title
;
Structure prediction by ZEFSAII (Michael W. Deem and Ramdas Pophale) SiO2 
 PCOD9492646
Probable space group: C M M M
;
_chemical_formula_sum "Si O2"
_cell_formula_units_Z 72
_cell_length_a 14.979709
_cell_length_b 29.061220
_cell_length_c 8.682780
_cell_angle_alpha 90.000000
_cell_angle_beta 90.000000
_cell_angle_gamma 90.000000
_cell_volume 3779.862625
_symmetry_space_group_name_H-M "C M M M"
_symmetry_group_IT_number 65
_symmetry_cell_setting 'orthorhombic'
loop_
_space_group_symop_operation_xyz
x,y,z
-x,-y,z
x,-y,-z
-x,y,-z
-x,-y,-z
x,y,-z
-x,y,z
x,-y,z
1/2+x,1/2+y,z
1/2-x,1/2-y,z
1/2+x,1/2-y,-z
1/2-x,1/2+y,-z
1/2-x,1/2-y,-z
1/2+x,1/2+y,-z
1/2-x,1/2+y,z
1/2+x,1/2-y,z
loop_
_atom_site_type_symbol
_atom_site_label
_atom_site_fract_x
_atom_site_fract_y
_atom_site_fract_z
Si Si1 0.500000 0.946505 0.186526
Si Si2 0.830445 0.861350 0.322678
Si Si3 0.000000 0.706368 0.317574
Si Si4 0.000000 0.192052 0.183079
Si Si5 0.635368 0.133835 0.184202
Si Si6 0.607310 0.447905 0.172417
O O1 0.413859 0.914577 0.229289
O O2 0.500000 0.000000 0.241788
O O3 0.500000 0.948985 0.000000
O O4 0.817878 0.848474 0.500000
O O5 0.910899 0.831716 0.250660
O O6 0.737456 0.860488 0.232483
O O7 0.861094 0.913988 0.302759
O O8 0.082947 0.675098 0.265955
O O9 0.000000 0.714142 0.500000
O O10 0.000000 0.754782 0.230912
O O11 0.000000 0.186216 0.000000
O O12 0.625475 0.137743 0.000000
O O13 0.500000 0.448324 0.171672
O O14 0.638966 0.500000 0.191811
O O15 0.635505 0.431923 0.000000
#
# Coordination Sequence:
#
# PCOD9492646 Si02
#       6
#     8  16   8   8  16  16
#     4   8  16  34  62  93 121 154 201 250 288 333
#     4  12  24  38  58  90 125 158 199 252 309 356
#     4  11  23  43  66  91 120 150 192 252 314 361
#     4  12  25  43  65  87 116 156 202 247 298 371
#     4  10  21  39  63  90 122 163 205 244 295 362
#     4   9  18  34  56  80 111 156 203 241 285 348
#
# _framework density 19.048311999999999
#
# number of rings (size 3 to 8) (size 9 to 14) (size 15 to 20)
#    0.000    1.667    1.111    6.000    0.000    2.222 
#    0.000    7.778    0.000   11.333    0.000    0.000 
#    0.000    0.000    0.000    0.000    0.000    0.000 
#
# Total GULP energy -200901.464663 kJ/mol
# GULP energy per Si atom -5580.596241 kJ/mol
# Density = 1.900496 g / cm^3
# Si number density = 19.048312 Si / 1000 Ang^3
#
#
#
# Elastic Constant Matrix: (Units=GPa)
#
#
# Indices 1 2 3 4 5 6 
#
# 1 105.4501 38.3527 5.6028 0.0000 0.0000 0.0000
# 2 38.3527 95.6743 5.2450 0.0000 0.0000 0.0000
# 3 5.6028 5.2450 57.8228 0.0000 0.0000 0.0000
# 4 0.0000 0.0000 0.0000 4.0009 0.0000 0.0000
# 5 0.0000 0.0000 0.0000 0.0000 75.2033 0.0000
# 6 0.0000 0.0000 0.0000 0.0000 0.0000 -18.0377
#
#
#
# Elastic Compliance Matrix: (Units=1/GPa)
#
#
# Indices 1 2 3 4 5 6 
#
# 1 0.011128 -0.004424 -0.000677 0.000000 0.000000 0.000000
# 2 -0.004424 0.012263 -0.000684 0.000000 0.000000 0.000000
# 3 -0.000677 -0.000684 0.017422 0.000000 0.000000 0.000000
# 4 0.000000 0.000000 0.000000 0.249943 0.000000 0.000000
# 5 0.000000 0.000000 0.000000 0.000000 0.013297 0.000000
# 6 0.000000 0.000000 0.000000 0.000000 0.000000 -0.055440
#
#
# Mechanical properties :
#
#
# Convention : Reuss Voigt Hill
#
# Bulk Modulus (GPa) = 34.19514 39.70535 36.95025
# Shear Modulus (GPa) = 18.52327 26.21642 22.36984
#
# Velocity S-wave (km/s) = 3.12177 3.71389 3.43063
# Velocity P-wave (km/s) = 5.56639 6.26741 5.92728
#
# Compressibility (1/GPa) = 0.02924392
#
# Stress axis : x y z
#
# Youngs Moduli (GPa) = 89.86272 81.54635 57.39928
#
# Poissons Ratio (x) = 0.36074 0.03886
# Poissons Ratio (y) = 0.39753 0.03924
# Poissons Ratio (z) = 0.06084 0.05575
#
# Static dielectric constant tensor:
#      x y z
#    x 1.620900 0.000000 0.000000 
#    y 0.000000 1.660920 0.000000 
#    z 0.000000 0.000000 1.658170 
# 
# From -- ./inp_files/7351.got.cif
#   From: 2010.05.17/outbox.cif.g08.bks.cpg/sg65_4_cif.got.tgz:7351.got - 2010.06.03 17:01:31.
