data_PCOD9492007
_publ_section_title
;
Structure prediction by ZEFSAII (Michael W. Deem and Ramdas Pophale) SiO2 
 PCOD9492007
Probable space group: C M M M
;
_chemical_formula_sum "Si O2"
_cell_formula_units_Z 88
_cell_length_a 19.784832
_cell_length_b 8.628685
_cell_length_c 28.561162
_cell_angle_alpha 90.000000
_cell_angle_beta 90.000000
_cell_angle_gamma 90.000000
_cell_volume 4875.878267
_symmetry_space_group_name_H-M "C M M M"
_symmetry_group_IT_number 65
_symmetry_cell_setting 'orthorhombic'
loop_
_space_group_symop_operation_xyz
x,y,z
-x,-y,z
x,-y,-z
-x,y,-z
-x,-y,-z
x,y,-z
-x,y,z
x,-y,z
1/2+x,1/2+y,z
1/2-x,1/2-y,z
1/2+x,1/2-y,-z
1/2-x,1/2+y,-z
1/2-x,1/2-y,-z
1/2+x,1/2+y,-z
1/2-x,1/2+y,z
1/2+x,1/2-y,z
loop_
_atom_site_type_symbol
_atom_site_label
_atom_site_fract_x
_atom_site_fract_y
_atom_site_fract_z
Si Si1 0.324631 0.314782 0.420083
Si Si2 0.079850 0.815645 0.761686
Si Si3 0.920997 0.313723 0.500000
Si Si4 0.421268 0.187006 0.862855
Si Si5 0.823250 0.684316 0.683253
Si Si6 0.174823 0.687201 0.052800
O O1 0.322633 0.500000 0.422137
O O2 0.250000 0.250000 0.432617
O O3 0.380810 0.250338 0.455162
O O4 0.339006 0.259255 0.367197
O O5 0.100332 0.760503 0.813591
O O6 0.122428 0.730956 0.721951
O O7 0.000000 0.780611 0.756705
O O8 0.089050 0.000000 0.757454
O O9 0.917642 0.500000 0.500000
O O10 0.000000 0.268005 0.500000
O O11 0.500000 0.226691 0.870692
O O12 0.375845 0.238120 0.906496
O O13 0.416811 0.000000 0.858870
O O14 0.819183 0.500000 0.677809
O O15 0.750000 0.750000 0.697542
O O16 0.176713 0.500000 0.053580
O O17 0.250000 0.750000 0.061097
O O18 0.154197 0.734601 0.000000
#
# Coordination Sequence:
#
# PCOD9492007 Si02
#       6
#    16  16   8  16  16  16
#     4  11  22  39  62  86 115 149 187 228 274 327
#     4  10  21  37  56  79 109 144 181 222 270 323
#     4  11  24  41  60  85 117 151 190 233 276 323
#     4   9  18  33  52  74 101 135 176 219 263 314
#     4  11  22  38  60  85 113 144 183 227 272 323
#     4   9  18  32  50  73 101 133 169 212 263 317
#
# _framework density 18.048030000000001
#
# number of rings (size 3 to 8) (size 9 to 14) (size 15 to 20)
#    0.000    1.909    0.000    5.455    0.000    4.364 
#    0.000    3.636    0.000    0.000    0.000    5.091 
#    0.000    0.000    0.000    0.000    0.000    0.000 
#
# Total GULP energy -245757.879693 kJ/mol
# GULP energy per Si atom -5585.406357 kJ/mol
# Density = 1.800695 g / cm^3
# Si number density = 18.048030 Si / 1000 Ang^3
#
#
#
# Elastic Constant Matrix: (Units=GPa)
#
#
# Indices 1 2 3 4 5 6 
#
# 1 103.1952 53.1962 96.5891 0.0000 0.0000 0.0000
# 2 53.1962 89.9025 53.2277 0.0000 0.0000 0.0000
# 3 96.5891 53.2277 123.7203 0.0000 0.0000 0.0000
# 4 0.0000 0.0000 0.0000 27.0192 0.0000 0.0000
# 5 0.0000 0.0000 0.0000 0.0000 45.0220 0.0000
# 6 0.0000 0.0000 0.0000 0.0000 0.0000 27.6285
#
#
#
# Elastic Compliance Matrix: (Units=1/GPa)
#
#
# Indices 1 2 3 4 5 6 
#
# 1 0.038812 -0.006743 -0.027400 0.000000 0.000000 0.000000
# 2 -0.006743 0.016096 -0.001661 0.000000 0.000000 0.000000
# 3 -0.027400 -0.001661 0.030188 0.000000 0.000000 0.000000
# 4 0.000000 0.000000 0.000000 0.037011 0.000000 0.000000
# 5 0.000000 0.000000 0.000000 0.000000 0.022211 0.000000
# 6 0.000000 0.000000 0.000000 0.000000 0.000000 0.036195
#
#
# Mechanical properties :
#
#
# Convention : Reuss Voigt Hill
#
# Bulk Modulus (GPa) = 74.13075 80.31600 77.22338
# Shear Modulus (GPa) = 19.48427 27.52093 23.50260
#
# Velocity S-wave (km/s) = 3.28926 3.90920 3.61255
# Velocity P-wave (km/s) = 7.45580 8.06062 7.76410
#
# Compressibility (1/GPa) = 0.01348968
#
# Stress axis : x y z
#
# Youngs Moduli (GPa) = 25.76511 62.12575 33.12544
#
# Poissons Ratio (x) = 0.41893 0.90763
# Poissons Ratio (y) = 0.17374 0.05501
# Poissons Ratio (z) = 0.70596 0.10316
#
# Static dielectric constant tensor:
#      x y z
#    x 1.594270 0.000000 0.000000 
#    y 0.000000 1.609040 0.000000 
#    z 0.000000 0.000000 1.603230 
# 
# From -- ./inp_files/67582.got.cif
#   From: 2010.05.17/outbox.cif.g08.bks.cpg/sg65_34_cif.got.tgz:67582.got - 2010.06.03 17:01:31.
