data_PCOD9492474
_publ_section_title
;
Structure prediction by ZEFSAII (Michael W. Deem and Ramdas Pophale) SiO2 
 PCOD9492474
Probable space group: C M M M
;
_chemical_formula_sum "Si O2"
_cell_formula_units_Z 112
_cell_length_a 14.466834
_cell_length_b 14.221823
_cell_length_c 27.075125
_cell_angle_alpha 90.000000
_cell_angle_beta 90.000000
_cell_angle_gamma 90.000000
_cell_volume 5570.564893
_symmetry_space_group_name_H-M "C M M M"
_symmetry_group_IT_number 65
_symmetry_cell_setting 'orthorhombic'
loop_
_space_group_symop_operation_xyz
x,y,z
-x,-y,z
x,-y,-z
-x,y,-z
-x,-y,-z
x,y,-z
-x,y,z
x,-y,z
1/2+x,1/2+y,z
1/2-x,1/2-y,z
1/2+x,1/2-y,-z
1/2-x,1/2+y,-z
1/2-x,1/2-y,-z
1/2+x,1/2+y,-z
1/2-x,1/2+y,z
1/2+x,1/2-y,z
loop_
_atom_site_type_symbol
_atom_site_label
_atom_site_fract_x
_atom_site_fract_y
_atom_site_fract_z
Si Si1 0.891173 0.103011 0.648879
Si Si2 0.112055 0.392286 0.380542
Si Si3 0.279782 0.111206 0.903094
Si Si4 0.650038 0.777343 0.715625
Si Si5 0.392188 0.719721 0.057864
Si Si6 0.887266 0.216326 0.555374
Si Si7 0.898957 0.608089 0.191567
O O1 0.885613 0.181432 0.691106
O O2 0.852207 0.145684 0.597838
O O3 0.000000 0.092951 0.639760
O O4 0.853051 0.000000 0.661167
O O5 0.137147 0.500000 0.389383
O O6 0.153816 0.350471 0.330068
O O7 0.134723 0.320554 0.424641
O O8 0.000000 0.387525 0.373861
O O9 0.348281 0.176470 0.935294
O O10 0.176977 0.151464 0.912074
O O11 0.318114 0.126050 0.847545
O O12 0.284859 0.000000 0.913885
O O13 0.750000 0.750000 0.734260
O O14 0.600896 0.824552 0.761520
O O15 0.500000 0.715888 0.072655
O O16 0.386333 0.694292 0.000000
O O17 0.854363 0.198354 0.500000
O O18 0.000000 0.210494 0.554400
O O19 0.889455 0.500000 0.208920
O O20 0.000000 0.615559 0.166449
#
# Coordination Sequence:
#
# PCOD9492474 Si02
#       7
#    16  16  16  16  16  16  16
#     4   9  18  33  51  71  99 136 178 222 268 328
#     4   9  17  31  51  73  99 132 172 220 274 335
#     4  10  21  38  62  91 125 165 211 262 312 366
#     4  11  22  33  52  77 103 138 178 225 281 340
#     4  10  22  39  62  94 132 174 217 261 310 362
#     4   8  14  25  44  74 105 129 162 214 277 337
#     4  10  21  38  61  86 111 143 187 242 304 363
#
# _framework density 20.105681000000001
#
# number of rings (size 3 to 8) (size 9 to 14) (size 15 to 20)
#    0.000    2.429    0.000    3.857    2.000    5.143 
#    0.000    4.286    0.000    6.857    0.000    8.000 
#    0.000    0.000    0.000    0.000    0.000    0.000 
#
# Total GULP energy -312358.092207 kJ/mol
# GULP energy per Si atom -5577.823075 kJ/mol
# Density = 2.005992 g / cm^3
# Si number density = 20.105681 Si / 1000 Ang^3
#
#
#
# Elastic Constant Matrix: (Units=GPa)
#
#
# Indices 1 2 3 4 5 6 
#
# 1 112.1458 35.2507 39.5567 0.0000 0.0000 0.0000
# 2 35.2507 147.8433 63.5044 0.0000 0.0000 0.0000
# 3 39.5567 63.5044 97.2727 0.0000 0.0000 0.0000
# 4 0.0000 0.0000 0.0000 22.4670 0.0000 0.0000
# 5 0.0000 0.0000 0.0000 0.0000 10.0787 0.0000
# 6 0.0000 0.0000 0.0000 0.0000 0.0000 15.9417
#
#
#
# Elastic Compliance Matrix: (Units=1/GPa)
#
#
# Indices 1 2 3 4 5 6 
#
# 1 0.010501 -0.000930 -0.003663 0.000000 0.000000 0.000000
# 2 -0.000930 0.009482 -0.005812 0.000000 0.000000 0.000000
# 3 -0.003663 -0.005812 0.015564 0.000000 0.000000 0.000000
# 4 0.000000 0.000000 0.000000 0.044510 0.000000 0.000000
# 5 0.000000 0.000000 0.000000 0.000000 0.099220 0.000000
# 6 0.000000 0.000000 0.000000 0.000000 0.000000 0.062728
#
#
# Mechanical properties :
#
#
# Convention : Reuss Voigt Hill
#
# Bulk Modulus (GPa) = 67.85682 70.43169 69.14425
# Shear Modulus (GPa) = 18.67557 24.29416 21.48486
#
# Velocity S-wave (km/s) = 3.05104 3.47987 3.27249
# Velocity P-wave (km/s) = 6.79964 7.15910 6.98169
#
# Compressibility (1/GPa) = 0.01473691
#
# Stress axis : x y z
#
# Youngs Moduli (GPa) = 95.22458 105.45962 64.24908
#
# Poissons Ratio (x) = 0.09813 0.23535
# Poissons Ratio (y) = 0.08860 0.37342
# Poissons Ratio (z) = 0.34881 0.61294
#
# Static dielectric constant tensor:
#      x y z
#    x 1.814790 0.000000 0.000000 
#    y 0.000000 1.626260 0.000000 
#    z 0.000000 0.000000 1.686080 
# 
# From -- ./inp_files/74873.got.cif
#   From: 2010.05.17/outbox.cif.g08.bks.cpg/sg65_38_cif.got.tgz:74873.got - 2010.06.03 17:01:31.
