data_PCOD9492205
_publ_section_title
;
Structure prediction by ZEFSAII (Michael W. Deem and Ramdas Pophale) SiO2 
 PCOD9492205
Probable space group: C M M M
;
_chemical_formula_sum "Si O2"
_cell_formula_units_Z 80
_cell_length_a 23.650413
_cell_length_b 14.272331
_cell_length_c 11.471214
_cell_angle_alpha 90.000000
_cell_angle_beta 90.000000
_cell_angle_gamma 90.000000
_cell_volume 3872.068396
_symmetry_space_group_name_H-M "C M M M"
_symmetry_group_IT_number 65
_symmetry_cell_setting 'orthorhombic'
loop_
_space_group_symop_operation_xyz
x,y,z
-x,-y,z
x,-y,-z
-x,y,-z
-x,-y,-z
x,y,-z
-x,y,z
x,-y,z
1/2+x,1/2+y,z
1/2-x,1/2-y,z
1/2+x,1/2-y,-z
1/2-x,1/2+y,-z
1/2-x,1/2-y,-z
1/2+x,1/2+y,-z
1/2-x,1/2+y,z
1/2+x,1/2-y,z
loop_
_atom_site_type_symbol
_atom_site_label
_atom_site_fract_x
_atom_site_fract_y
_atom_site_fract_z
Si Si1 0.170566 0.387862 0.865503
Si Si2 0.216762 0.110715 0.245335
Si Si3 0.306166 0.317489 0.500000
Si Si4 0.064909 0.262573 0.500000
Si Si5 0.599392 0.610771 0.136537
Si Si6 0.061025 0.704217 0.238305
O O1 0.164779 0.500000 0.850666
O O2 0.222010 0.349616 0.787299
O O3 0.112211 0.341669 0.829362
O O4 0.184379 0.369912 0.000000
O O5 0.200582 0.128875 0.378279
O O6 0.164911 0.136633 0.161447
O O7 0.222713 0.000000 0.227810
O O8 0.250000 0.250000 0.500000
O O9 0.372262 0.284659 0.500000
O O10 0.065610 0.315232 0.623826
O O11 0.000000 0.216969 0.500000
O O12 0.591251 0.500000 0.164043
O O13 0.565539 0.683756 0.215851
O O14 0.585986 0.623866 0.000000
O O15 0.000000 0.671635 0.195876
#
# Coordination Sequence:
#
# PCOD9492205 Si02
#       6
#    16  16   8   8  16  16
#     4  10  22  40  62  90 124 161 201 250 311 371
#     4  10  21  37  58  86 121 155 196 251 307 365
#     4  12  21  35  62  90 120 157 207 259 306 360
#     4  10  22  41  61  85 125 166 205 254 310 372
#     4  10  21  37  59  87 119 155 195 243 301 363
#     4  11  23  41  62  87 119 161 209 254 300 361
#
# _framework density 20.660792000000001
#
# number of rings (size 3 to 8) (size 9 to 14) (size 15 to 20)
#    0.000    1.600    2.000    2.700    0.000    4.800 
#    0.000    6.000    0.000    4.800    0.000    0.000 
#    0.000    0.000    0.000    0.000    0.000    0.000 
#
# Total GULP energy -223067.231468 kJ/mol
# GULP energy per Si atom -5576.680787 kJ/mol
# Density = 2.061377 g / cm^3
# Si number density = 20.660792 Si / 1000 Ang^3
#
#
#
# Elastic Constant Matrix: (Units=GPa)
#
#
# Indices 1 2 3 4 5 6 
#
# 1 153.0739 20.1246 5.0381 0.0000 0.0000 0.0000
# 2 20.1246 26.8459 13.4069 0.0000 0.0000 0.0000
# 3 5.0381 13.4069 48.1737 0.0000 0.0000 0.0000
# 4 0.0000 0.0000 0.0000 23.7370 0.0000 0.0000
# 5 0.0000 0.0000 0.0000 0.0000 -758.6360 0.0000
# 6 0.0000 0.0000 0.0000 0.0000 0.0000 16.4402
#
#
#
# Elastic Compliance Matrix: (Units=1/GPa)
#
#
# Indices 1 2 3 4 5 6 
#
# 1 0.007279 -0.005896 0.000880 0.000000 0.000000 0.000000
# 2 -0.005896 0.048038 -0.012752 0.000000 0.000000 0.000000
# 3 0.000880 -0.012752 0.024215 0.000000 0.000000 0.000000
# 4 0.000000 0.000000 0.000000 0.042128 0.000000 0.000000
# 5 0.000000 0.000000 0.000000 0.000000 -0.001318 0.000000
# 6 0.000000 0.000000 0.000000 0.000000 0.000000 0.060827
#
#
# Mechanical properties :
#
#
# Convention : Reuss Voigt Hill
#
# Bulk Modulus (GPa) = 22.73002 33.91474 28.32238
# Shear Modulus (GPa) = 21.61029 -131.05683 -54.72327
#
# Velocity S-wave (km/s) = 3.23763 -7.97310 -5.15209
# Velocity P-wave (km/s) = 5.00018 8.26497 4.65339
#
# Compressibility (1/GPa) = 0.04399469
#
# Stress axis : x y z
#
# Youngs Moduli (GPa) = 137.38222 20.81690 41.29627
#
# Poissons Ratio (x) = 0.12273 -0.03632
# Poissons Ratio (y) = 0.80998 0.52663
# Poissons Ratio (z) = -0.12084 0.26547
#
# Static dielectric constant tensor:
#      x y z
#    x 1.775470 0.000000 0.000000 
#    y 0.000000 1.761120 0.000000 
#    z 0.000000 0.000000 1.712610 
# 
# From -- ./inp_files/30420.got.cif
#   From: 2010.05.17/outbox.cif.g08.bks.cpg/sg65_16_cif.got.tgz:30420.got - 2010.06.03 17:01:31.
