data_PCOD9492226
_publ_section_title
;
Structure prediction by ZEFSAII (Michael W. Deem and Ramdas Pophale) SiO2 
 PCOD9492226
Probable space group: C M M M
;
_chemical_formula_sum "Si O2"
_cell_formula_units_Z 88
_cell_length_a 20.363674
_cell_length_b 25.270811
_cell_length_c 7.786285
_cell_angle_alpha 90.000000
_cell_angle_beta 90.000000
_cell_angle_gamma 90.000000
_cell_volume 4006.873315
_symmetry_space_group_name_H-M "C M M M"
_symmetry_group_IT_number 65
_symmetry_cell_setting 'orthorhombic'
loop_
_space_group_symop_operation_xyz
x,y,z
-x,-y,z
x,-y,-z
-x,y,-z
-x,-y,-z
x,y,-z
-x,y,z
x,-y,z
1/2+x,1/2+y,z
1/2-x,1/2-y,z
1/2+x,1/2-y,-z
1/2-x,1/2+y,-z
1/2-x,1/2-y,-z
1/2+x,1/2+y,-z
1/2-x,1/2+y,z
1/2+x,1/2-y,z
loop_
_atom_site_type_symbol
_atom_site_label
_atom_site_fract_x
_atom_site_fract_y
_atom_site_fract_z
Si Si1 0.871949 0.629847 0.292741
Si Si2 0.500000 0.060800 0.796865
Si Si3 0.898217 0.057696 0.199798
Si Si4 0.929145 0.172336 0.207916
Si Si5 0.751346 0.440222 0.295214
Si Si6 0.676057 0.241954 0.704377
O O1 0.870969 0.630404 0.500000
O O2 0.935894 0.595701 0.247741
O O3 0.806151 0.599907 0.233256
O O4 0.863387 0.690233 0.230079
O O5 0.500000 0.000000 0.724156
O O6 0.500000 0.055165 0.000000
O O7 0.925438 0.112038 0.273546
O O8 0.819414 0.063609 0.209247
O O9 0.914617 0.000000 0.276508
O O10 0.918098 0.055867 0.000000
O O11 0.868280 0.206787 0.267580
O O12 0.000000 0.195491 0.258261
O O13 0.926421 0.170621 0.000000
O O14 0.741065 0.432448 0.500000
O O15 0.776249 0.500000 0.270280
O O16 0.683328 0.233964 0.500000
O O17 0.750000 0.250000 0.774292
#
# Coordination Sequence:
#
# PCOD9492226 Si02
#       6
#    16   8  16  16  16  16
#     4  10  21  37  59  83 110 148 193 236 285 345
#     4  11  25  41  57  83 119 157 196 241 294 349
#     4   9  18  33  54  80 110 145 185 229 277 331
#     4  10  22  38  56  81 114 150 188 230 280 338
#     4   9  17  31  54  82 109 139 179 230 284 334
#     4  10  22  40  62  87 114 147 192 242 290 345
#
# _framework density 21.962260000000001
#
# number of rings (size 3 to 8) (size 9 to 14) (size 15 to 20)
#    0.000    2.273    0.000    1.909    1.273    6.182 
#    0.000    3.636    0.000    0.000    0.000    3.818 
#    0.000    0.000    0.000    0.000    0.000    0.000 
#
# Total GULP energy -245599.935638 kJ/mol
# GULP energy per Si atom -5581.816719 kJ/mol
# Density = 2.191227 g / cm^3
# Si number density = 21.962260 Si / 1000 Ang^3
#
#
#
# Elastic Constant Matrix: (Units=GPa)
#
#
# Indices 1 2 3 4 5 6 
#
# 1 137.5164 81.6766 2.4590 0.0000 0.0000 0.0000
# 2 81.6766 152.3165 12.8340 0.0000 0.0000 0.0000
# 3 2.4590 12.8340 30.3873 0.0000 0.0000 0.0000
# 4 0.0000 0.0000 0.0000 7.4661 0.0000 0.0000
# 5 0.0000 0.0000 0.0000 0.0000 2.0621 0.0000
# 6 0.0000 0.0000 0.0000 0.0000 0.0000 105.6318
#
#
#
# Elastic Compliance Matrix: (Units=1/GPa)
#
#
# Indices 1 2 3 4 5 6 
#
# 1 0.010747 -0.005899 0.001622 0.000000 0.000000 0.000000
# 2 -0.005899 0.010046 -0.003765 0.000000 0.000000 0.000000
# 3 0.001622 -0.003765 0.034368 0.000000 0.000000 0.000000
# 4 0.000000 0.000000 0.000000 0.133939 0.000000 0.000000
# 5 0.000000 0.000000 0.000000 0.000000 0.484941 0.000000
# 6 0.000000 0.000000 0.000000 0.000000 0.000000 0.009467
#
#
# Mechanical properties :
#
#
# Convention : Reuss Voigt Hill
#
# Bulk Modulus (GPa) = 25.59222 57.12883 41.36053
# Shear Modulus (GPa) = 7.01639 37.91538 22.46589
#
# Velocity S-wave (km/s) = 1.78932 4.15949 3.20180
# Velocity P-wave (km/s) = 3.99337 7.00979 5.70457
#
# Compressibility (1/GPa) = 0.03907437
#
# Stress axis : x y z
#
# Youngs Moduli (GPa) = 93.05149 99.54238 29.09723
#
# Poissons Ratio (x) = 0.58724 -0.04719
# Poissons Ratio (y) = 0.54895 0.10957
# Poissons Ratio (z) = -0.15092 0.37483
#
# Static dielectric constant tensor:
#      x y z
#    x 1.775020 0.000000 0.000000 
#    y 0.000000 1.825620 0.000000 
#    z 0.000000 0.000000 1.816200 
# 
# From -- ./inp_files/11722.got.cif
#   From: 2010.05.17/outbox.cif.g08.bks.cpg/sg65_6_cif.got.tgz:11722.got - 2010.06.03 17:01:31.
