data_PCOD9492590
_publ_section_title
;
Structure prediction by ZEFSAII (Michael W. Deem and Ramdas Pophale) SiO2 
 PCOD9492590
Probable space group: C M M M
;
_chemical_formula_sum "Si O2"
_cell_formula_units_Z 76
_cell_length_a 13.370296
_cell_length_b 18.020092
_cell_length_c 19.661445
_cell_angle_alpha 90.000000
_cell_angle_beta 90.000000
_cell_angle_gamma 90.000000
_cell_volume 4737.109882
_symmetry_space_group_name_H-M "C M M M"
_symmetry_group_IT_number 65
_symmetry_cell_setting 'orthorhombic'
loop_
_space_group_symop_operation_xyz
x,y,z
-x,-y,z
x,-y,-z
-x,y,-z
-x,-y,-z
x,y,-z
-x,y,z
x,-y,z
1/2+x,1/2+y,z
1/2-x,1/2-y,z
1/2+x,1/2-y,-z
1/2-x,1/2+y,-z
1/2-x,1/2-y,-z
1/2+x,1/2+y,-z
1/2-x,1/2+y,z
1/2+x,1/2-y,z
loop_
_atom_site_type_symbol
_atom_site_label
_atom_site_fract_x
_atom_site_fract_y
_atom_site_fract_z
Si Si1 0.242142 0.000000 0.000000
Si Si2 0.383430 0.298994 0.150695
Si Si3 0.811920 0.357394 0.209391
Si Si4 0.118313 0.847954 0.000000
Si Si5 0.616461 0.909977 0.500000
Si Si6 0.378876 0.088454 0.350500
Si Si7 0.114758 0.500000 0.870517
O O1 0.176744 0.074623 0.000000
O O2 0.311683 0.000000 0.934049
O O3 0.500000 0.317954 0.160465
O O4 0.304573 0.352150 0.188585
O O5 0.361641 0.217171 0.179614
O O6 0.360573 0.304206 0.069916
O O7 0.829432 0.366460 0.289515
O O8 0.862957 0.427769 0.174329
O O9 0.000000 0.863735 0.000000
O O10 0.500000 0.887706 0.500000
O O11 0.656957 0.887853 0.426071
O O12 0.617654 0.000000 0.500000
O O13 0.500000 0.096632 0.347193
O O14 0.359001 0.000000 0.342178
O O15 0.000000 0.500000 0.892736
#
# Coordination Sequence:
#
# PCOD9492590 Si02
#       7
#     4  16  16   8   8  16   8
#     4  12  22  38  52  78 102 132 170 218 266 306
#     4  10  22  38  55  74  97 134 178 214 252 303
#     4  11  21  34  55  76 106 135 167 208 258 310
#     4  10  21  39  58  72  95 134 179 221 255 296
#     4   7  12  22  40  71 105 135 165 198 240 295
#     4   9  15  26  47  75 107 136 164 203 251 298
#     4  12  23  35  51  79 109 134 163 210 265 314
#
# _framework density 16.043537000000001
#
# number of rings (size 3 to 8) (size 9 to 14) (size 15 to 20)
#    0.000    2.000    3.158    3.474    0.000    2.526 
#    0.000    2.632    0.000    2.526    0.000    2.211 
#    0.000    2.526    0.000    0.000    0.000    0.000 
#
# Total GULP energy -211813.802509 kJ/mol
# GULP energy per Si atom -5574.047434 kJ/mol
# Density = 1.600702 g / cm^3
# Si number density = 16.043537 Si / 1000 Ang^3
#
#
#
# Elastic Constant Matrix: (Units=GPa)
#
#
# Indices 1 2 3 4 5 6 
#
# 1 76.2437 19.7466 45.9732 0.0000 0.0000 0.0000
# 2 19.7466 57.8842 44.6921 0.0000 0.0000 0.0000
# 3 45.9732 44.6921 180.2838 0.0000 0.0000 0.0000
# 4 0.0000 0.0000 0.0000 7.4353 0.0000 0.0000
# 5 0.0000 0.0000 0.0000 0.0000 -46.9468 0.0000
# 6 0.0000 0.0000 0.0000 0.0000 0.0000 12.0038
#
#
#
# Elastic Compliance Matrix: (Units=1/GPa)
#
#
# Indices 1 2 3 4 5 6 
#
# 1 0.015865 -0.002830 -0.003344 0.000000 0.000000 0.000000
# 2 -0.002830 0.021870 -0.004700 0.000000 0.000000 0.000000
# 3 -0.003344 -0.004700 0.007565 0.000000 0.000000 0.000000
# 4 0.000000 0.000000 0.000000 0.134493 0.000000 0.000000
# 5 0.000000 0.000000 0.000000 0.000000 -0.021301 0.000000
# 6 0.000000 0.000000 0.000000 0.000000 0.000000 0.083307
#
#
# Mechanical properties :
#
#
# Convention : Reuss Voigt Hill
#
# Bulk Modulus (GPa) = 42.46003 59.47062 50.96533
# Shear Modulus (GPa) = 18.42311 8.09846 13.26079
#
# Velocity S-wave (km/s) = 3.39236 2.24917 2.87810
# Velocity P-wave (km/s) = 6.47048 6.62524 6.54832
#
# Compressibility (1/GPa) = 0.02355156
#
# Stress axis : x y z
#
# Youngs Moduli (GPa) = 63.03070 45.72446 132.19386
#
# Poissons Ratio (x) = 0.12942 0.44207
# Poissons Ratio (y) = 0.17840 0.62129
# Poissons Ratio (z) = 0.21078 0.21490
#
# Static dielectric constant tensor:
#      x y z
#    x 1.538170 0.000000 0.000000 
#    y 0.000000 1.522180 0.000000 
#    z 0.000000 0.000000 1.565010 
# 
# From -- ./inp_files/52947.got.cif
#   From: 2010.05.17/outbox.cif.g08.bks.cpg/sg65_27_cif.got.tgz:52947.got - 2010.06.03 17:01:31.
