data_PCOD9492012
_publ_section_title
;
Structure prediction by ZEFSAII (Michael W. Deem and Ramdas Pophale) SiO2 
 PCOD9492012
Probable space group: C M M M
;
_chemical_formula_sum "Si O2"
_cell_formula_units_Z 88
_cell_length_a 19.403523
_cell_length_b 8.018213
_cell_length_c 29.758285
_cell_angle_alpha 90.000000
_cell_angle_beta 90.000000
_cell_angle_gamma 90.000000
_cell_volume 4629.841009
_symmetry_space_group_name_H-M "C M M M"
_symmetry_group_IT_number 65
_symmetry_cell_setting 'orthorhombic'
loop_
_space_group_symop_operation_xyz
x,y,z
-x,-y,z
x,-y,-z
-x,y,-z
-x,-y,-z
x,y,-z
-x,y,z
x,-y,z
1/2+x,1/2+y,z
1/2-x,1/2-y,z
1/2+x,1/2-y,-z
1/2-x,1/2+y,-z
1/2-x,1/2-y,-z
1/2+x,1/2+y,-z
1/2-x,1/2+y,z
1/2+x,1/2-y,z
loop_
_atom_site_type_symbol
_atom_site_label
_atom_site_fract_x
_atom_site_fract_y
_atom_site_fract_z
Si Si1 0.421451 0.302137 0.133525
Si Si2 0.579659 0.803342 0.769255
Si Si3 0.329273 0.800634 0.949882
Si Si4 0.324975 0.692366 0.690287
Si Si5 0.170290 0.306730 0.591651
Si Si6 0.419533 0.500000 0.553889
O O1 0.500000 0.239492 0.127060
O O2 0.423728 0.500000 0.139706
O O3 0.393810 0.227259 0.180201
O O4 0.376387 0.263659 0.090146
O O5 0.500000 0.746898 0.768986
O O6 0.621958 0.714431 0.730485
O O7 0.581736 0.000000 0.760105
O O8 0.250000 0.750000 0.942757
O O9 0.333310 0.000000 0.949998
O O10 0.349526 0.739680 0.000000
O O11 0.321400 0.500000 0.675997
O O12 0.250000 0.750000 0.706553
O O13 0.341352 0.796019 0.645481
O O14 0.160949 0.500000 0.576969
O O15 0.250000 0.250000 0.583884
O O16 0.120331 0.167000 0.570329
O O17 0.500000 0.500000 0.568925
O O18 0.418697 0.500000 0.500000
#
# Coordination Sequence:
#
# PCOD9492012 Si02
#       6
#    16  16  16  16  16   8
#     4  10  21  37  56  79 110 146 185 232 282 338
#     4  10  21  37  56  82 115 152 194 237 288 351
#     4  10  21  37  57  80 106 138 178 227 283 342
#     4  11  21  37  61  89 123 158 200 252 301 353
#     4  11  21  42  69  97 130 172 222 270 323 387
#     4  11  26  46  66  98 139 173 217 277 331 383
#
# _framework density 19.007131999999999
#
# number of rings (size 3 to 8) (size 9 to 14) (size 15 to 20)
#    0.000    1.545    1.818    4.364    0.000    6.182 
#    0.000    6.364    0.000    0.000    0.000    0.000 
#    0.000    0.000    0.000    0.000    0.000    0.000 
#
# Total GULP energy -245696.278324 kJ/mol
# GULP energy per Si atom -5584.006326 kJ/mol
# Density = 1.896387 g / cm^3
# Si number density = 19.007132 Si / 1000 Ang^3
#
#
#
# Elastic Constant Matrix: (Units=GPa)
#
#
# Indices 1 2 3 4 5 6 
#
# 1 81.8839 33.7463 57.9300 0.0000 0.0000 0.0000
# 2 33.7463 111.5151 22.3286 0.0000 0.0000 0.0000
# 3 57.9300 22.3286 76.2280 0.0000 0.0000 0.0000
# 4 0.0000 0.0000 0.0000 23.4806 0.0000 0.0000
# 5 0.0000 0.0000 0.0000 0.0000 35.4572 0.0000
# 6 0.0000 0.0000 0.0000 0.0000 0.0000 23.7921
#
#
#
# Elastic Compliance Matrix: (Units=1/GPa)
#
#
# Indices 1 2 3 4 5 6 
#
# 1 0.028427 -0.004543 -0.020272 0.000000 0.000000 0.000000
# 2 -0.004543 0.010252 0.000450 0.000000 0.000000 0.000000
# 3 -0.020272 0.000450 0.028393 0.000000 0.000000 0.000000
# 4 0.000000 0.000000 0.000000 0.042588 0.000000 0.000000
# 5 0.000000 0.000000 0.000000 0.000000 0.028203 0.000000
# 6 0.000000 0.000000 0.000000 0.000000 0.000000 0.042031
#
#
# Mechanical properties :
#
#
# Convention : Reuss Voigt Hill
#
# Bulk Modulus (GPa) = 54.52564 55.29297 54.90930
# Shear Modulus (GPa) = 21.30024 26.92079 24.11052
#
# Velocity S-wave (km/s) = 3.35124 3.76753 3.56546
# Velocity P-wave (km/s) = 6.61238 6.93394 6.77507
#
# Compressibility (1/GPa) = 0.01834000
#
# Stress axis : x y z
#
# Youngs Moduli (GPa) = 35.17817 97.53968 35.22007
#
# Poissons Ratio (x) = 0.44315 0.71399
# Poissons Ratio (y) = 0.15982 -0.01584
# Poissons Ratio (z) = 0.71314 -0.04386
#
# Static dielectric constant tensor:
#      x y z
#    x 1.649630 0.000000 0.000000 
#    y 0.000000 1.678190 0.000000 
#    z 0.000000 0.000000 1.646290 
# 
# From -- ./inp_files/71008.got.cif
#   From: 2010.05.17/outbox.cif.g08.bks.cpg/sg65_36_cif.got.tgz:71008.got - 2010.06.03 17:01:31.
