data_PCOD9492929
_publ_section_title
;
Structure prediction by ZEFSAII (Michael W. Deem and Ramdas Pophale) SiO2 
 PCOD9492929
Probable space group: C M M M
;
_chemical_formula_sum "Si O2"
_cell_formula_units_Z 88
_cell_length_a 19.206428
_cell_length_b 29.583969
_cell_length_c 7.699605
_cell_angle_alpha 90.000000
_cell_angle_beta 90.000000
_cell_angle_gamma 90.000000
_cell_volume 4374.933813
_symmetry_space_group_name_H-M "C M M M"
_symmetry_group_IT_number 65
_symmetry_cell_setting 'orthorhombic'
loop_
_space_group_symop_operation_xyz
x,y,z
-x,-y,z
x,-y,-z
-x,y,-z
-x,-y,-z
x,y,-z
-x,y,z
x,-y,z
1/2+x,1/2+y,z
1/2-x,1/2-y,z
1/2+x,1/2-y,-z
1/2-x,1/2+y,-z
1/2-x,1/2-y,-z
1/2+x,1/2+y,-z
1/2-x,1/2+y,z
1/2+x,1/2-y,z
loop_
_atom_site_type_symbol
_atom_site_label
_atom_site_fract_x
_atom_site_fract_y
_atom_site_fract_z
Si Si1 0.789440 0.550666 0.292717
Si Si2 0.420864 0.893425 0.790595
Si Si3 0.417401 0.550881 0.000000
Si Si4 0.420747 0.304515 0.295812
Si Si5 0.842795 0.106933 0.289020
Si Si6 0.415496 0.795540 0.799743
O O1 0.782815 0.547986 0.500000
O O2 0.776333 0.500000 0.222894
O O3 0.866562 0.567894 0.252446
O O4 0.733616 0.588651 0.237558
O O5 0.500000 0.901606 0.729370
O O6 0.394746 0.844188 0.723402
O O7 0.424084 0.889449 0.000000
O O8 0.392842 0.575479 0.175209
O O9 0.389652 0.500000 0.000000
O O10 0.500000 0.550132 0.000000
O O11 0.428142 0.312343 0.500000
O O12 0.500000 0.308968 0.219885
O O13 0.365945 0.342320 0.236777
O O14 0.395809 0.252940 0.275357
O O15 0.849944 0.102220 0.500000
O O16 0.500000 0.796859 0.792605
O O17 0.393836 0.794352 0.000000
#
# Coordination Sequence:
#
# PCOD9492929 Si02
#       6
#    16  16   8  16  16  16
#     4  10  22  39  58  79 106 148 194 234 290 350
#     4   9  19  36  57  83 113 144 183 233 289 345
#     4  11  24  38  58  88 112 147 203 245 290 349
#     4   9  17  30  52  81 110 146 189 228 275 332
#     4  10  22  40  58  82 120 156 191 241 290 340
#     4   8  15  29  50  77 110 145 179 222 278 337
#
# _framework density 20.11459
#
# number of rings (size 3 to 8) (size 9 to 14) (size 15 to 20)
#    0.000    2.636    0.000    2.182    2.545    4.000 
#    0.000    5.455    0.000    5.455    0.000    0.000 
#    0.000    0.000    0.000    0.000    0.000    0.000 
#
# Total GULP energy -245044.896326 kJ/mol
# GULP energy per Si atom -5569.202189 kJ/mol
# Density = 2.006881 g / cm^3
# Si number density = 20.114590 Si / 1000 Ang^3
#
#
#
# Elastic Constant Matrix: (Units=GPa)
#
#
# Indices 1 2 3 4 5 6 
#
# 1 81.4581 44.0573 2.8752 0.0000 0.0000 0.0000
# 2 44.0573 92.8167 1.0954 0.0000 0.0000 0.0000
# 3 2.8752 1.0954 31.2472 0.0000 0.0000 0.0000
# 4 0.0000 0.0000 0.0000 24.0717 0.0000 0.0000
# 5 0.0000 0.0000 0.0000 0.0000 22.2040 0.0000
# 6 0.0000 0.0000 0.0000 0.0000 0.0000 52.4866
#
#
#
# Elastic Compliance Matrix: (Units=1/GPa)
#
#
# Indices 1 2 3 4 5 6 
#
# 1 0.016565 -0.007848 -0.001249 0.000000 0.000000 0.000000
# 2 -0.007848 0.014497 0.000214 0.000000 0.000000 0.000000
# 3 -0.001249 0.000214 0.032110 0.000000 0.000000 0.000000
# 4 0.000000 0.000000 0.000000 0.041543 0.000000 0.000000
# 5 0.000000 0.000000 0.000000 0.000000 0.045037 0.000000
# 6 0.000000 0.000000 0.000000 0.000000 0.000000 0.019052
#
#
# Mechanical properties :
#
#
# Convention : Reuss Voigt Hill
#
# Bulk Modulus (GPa) = 22.02380 33.50864 27.76622
# Shear Modulus (GPa) = 24.78856 30.25207 27.52032
#
# Velocity S-wave (km/s) = 3.51432 3.88233 3.70290
# Velocity P-wave (km/s) = 5.23834 6.06562 5.66709
#
# Compressibility (1/GPa) = 0.04540542
#
# Stress axis : x y z
#
# Youngs Moduli (GPa) = 60.36786 68.98120 31.14264
#
# Poissons Ratio (x) = 0.54138 0.03890
# Poissons Ratio (y) = 0.47378 -0.00666
# Poissons Ratio (z) = 0.07541 -0.01476
#
# Static dielectric constant tensor:
#      x y z
#    x 1.709550 0.000000 0.000000 
#    y 0.000000 1.742170 0.000000 
#    z 0.000000 0.000000 1.745740 
# 
# From -- ./inp_files/10016.got.cif
#   From: 2010.05.17/outbox.cif.g08.bks.cpg/sg65_6_cif.got.tgz:10016.got - 2010.06.03 17:01:31.
