data_PCOD9492119
_publ_section_title
;
Structure prediction by ZEFSAII (Michael W. Deem and Ramdas Pophale) SiO2 
 PCOD9492119
Probable space group: C M M M
;
_chemical_formula_sum "Si O2"
_cell_formula_units_Z 66
_cell_length_a 9.203684
_cell_length_b 14.261726
_cell_length_c 28.046358
_cell_angle_alpha 90.000000
_cell_angle_beta 90.000000
_cell_angle_gamma 90.000000
_cell_volume 3681.376714
_symmetry_space_group_name_H-M "C M M M"
_symmetry_group_IT_number 65
_symmetry_cell_setting 'orthorhombic'
loop_
_space_group_symop_operation_xyz
x,y,z
-x,-y,z
x,-y,-z
-x,y,-z
-x,-y,-z
x,y,-z
-x,y,z
x,-y,z
1/2+x,1/2+y,z
1/2-x,1/2-y,z
1/2+x,1/2-y,-z
1/2-x,1/2+y,-z
1/2-x,1/2-y,-z
1/2+x,1/2+y,-z
1/2-x,1/2+y,z
1/2+x,1/2-y,z
loop_
_atom_site_type_symbol
_atom_site_label
_atom_site_fract_x
_atom_site_fract_y
_atom_site_fract_z
Si Si1 0.204224 0.500000 0.946976
Si Si2 0.332120 0.000000 0.704376
Si Si3 0.827522 0.650517 0.378400
Si Si4 0.826368 0.000000 0.803025
Si Si5 0.000000 0.000000 0.000000
Si Si6 0.672318 0.500000 0.556832
Si Si7 0.167854 0.652396 0.867339
O O1 0.167198 0.590585 0.915609
O O2 0.141375 0.500000 0.000000
O O3 0.374185 0.500000 0.958649
O O4 0.312089 0.089604 0.669951
O O5 0.500000 0.000000 0.721584
O O6 0.223485 0.000000 0.748312
O O7 0.750000 0.750000 0.374053
O O8 0.750044 0.589606 0.419460
O O9 0.000000 0.659785 0.387864
O O10 0.754581 0.089662 0.829094
O O11 0.000000 0.000000 0.808067
O O12 0.500000 0.500000 0.568147
O O13 0.688707 0.500000 0.500000
O O14 0.250000 0.750000 0.874391
O O15 0.000000 0.666374 0.852714
#
# Coordination Sequence:
#
# PCOD9492119 Si02
#       7
#     8   8  16   8   2   8  16
#     4   9  21  38  60  82 118 145 187 228 279 324
#     4   9  20  39  59  81 114 149 189 232 281 333
#     4  10  21  37  59  85 114 150 188 236 282 334
#     4  11  23  39  61  85 117 149 185 231 284 337
#     4   8  20  36  62  84 112 154 182 232 276 332
#     4  10  21  37  57  82 114 152 192 236 284 336
#     4  11  24  39  61  85 115 150 190 233 280 333
#
# _framework density 17.928075
#
# number of rings (size 3 to 8) (size 9 to 14) (size 15 to 20)
#    0.364    1.576    0.000    4.727    5.091    6.788 
#    0.000    2.424    0.000    0.000    0.000    0.000 
#    0.000    0.000    0.000    0.000    0.000    0.000 
#
# Total GULP energy -183870.239131 kJ/mol
# GULP energy per Si atom -5571.825428 kJ/mol
# Density = 1.788727 g / cm^3
# Si number density = 17.928075 Si / 1000 Ang^3
#
#
#
# Elastic Constant Matrix: (Units=GPa)
#
#
# Indices 1 2 3 4 5 6 
#
# 1 203.0441 82.9286 73.6393 0.0000 0.0000 0.0000
# 2 82.9286 168.3542 52.5931 0.0000 0.0000 0.0000
# 3 73.6393 52.5931 100.2243 0.0000 0.0000 0.0000
# 4 0.0000 0.0000 0.0000 1.1495 0.0000 0.0000
# 5 0.0000 0.0000 0.0000 0.0000 35.9702 0.0000
# 6 0.0000 0.0000 0.0000 0.0000 0.0000 87.9671
#
#
#
# Elastic Compliance Matrix: (Units=1/GPa)
#
#
# Indices 1 2 3 4 5 6 
#
# 1 0.007407 -0.002331 -0.004219 0.000000 0.000000 0.000000
# 2 -0.002331 0.007838 -0.002401 0.000000 0.000000 0.000000
# 3 -0.004219 -0.002401 0.014338 0.000000 0.000000 0.000000
# 4 0.000000 0.000000 0.000000 0.869928 0.000000 0.000000
# 5 0.000000 0.000000 0.000000 0.000000 0.027801 0.000000
# 6 0.000000 0.000000 0.000000 0.000000 0.000000 0.011368
#
#
# Mechanical properties :
#
#
# Convention : Reuss Voigt Hill
#
# Bulk Modulus (GPa) = 85.60588 98.88273 92.24430
# Shear Modulus (GPa) = 5.20576 42.51481 23.86028
#
# Velocity S-wave (km/s) = 1.70587 4.87499 3.65209
# Velocity P-wave (km/s) = 7.19258 9.32536 8.32754
#
# Compressibility (1/GPa) = 0.01168144
#
# Stress axis : x y z
#
# Youngs Moduli (GPa) = 135.00418 127.58752 69.74699
#
# Poissons Ratio (x) = 0.29735 0.29429
# Poissons Ratio (y) = 0.31463 0.16743
# Poissons Ratio (z) = 0.56964 0.30628
#
# Static dielectric constant tensor:
#      x y z
#    x 1.607150 0.000000 0.000000 
#    y 0.000000 1.590770 0.000000 
#    z 0.000000 0.000000 1.599910 
# 
# From -- ./inp_files/72444.got.cif
#   From: 2010.05.17/outbox.cif.g08.bks.cpg/sg65_37_cif.got.tgz:72444.got - 2010.06.03 17:01:31.
