data_PCOD9492239
_publ_section_title
;
Structure prediction by ZEFSAII (Michael W. Deem and Ramdas Pophale) SiO2 
 PCOD9492239
Probable space group: C M M M
;
_chemical_formula_sum "Si O2"
_cell_formula_units_Z 112
_cell_length_a 15.109799
_cell_length_b 16.199201
_cell_length_c 20.898456
_cell_angle_alpha 90.000000
_cell_angle_beta 90.000000
_cell_angle_gamma 90.000000
_cell_volume 5115.245506
_symmetry_space_group_name_H-M "C M M M"
_symmetry_group_IT_number 65
_symmetry_cell_setting 'orthorhombic'
loop_
_space_group_symop_operation_xyz
x,y,z
-x,-y,z
x,-y,-z
-x,y,-z
-x,-y,-z
x,y,-z
-x,y,z
x,-y,z
1/2+x,1/2+y,z
1/2-x,1/2-y,z
1/2+x,1/2-y,-z
1/2-x,1/2+y,-z
1/2-x,1/2-y,-z
1/2+x,1/2+y,-z
1/2-x,1/2+y,z
1/2+x,1/2-y,z
loop_
_atom_site_type_symbol
_atom_site_label
_atom_site_fract_x
_atom_site_fract_y
_atom_site_fract_z
Si Si1 0.398788 0.095022 0.348248
Si Si2 0.357568 0.252400 0.928712
Si Si3 0.202344 0.409260 0.898702
Si Si4 0.601685 0.405792 0.330533
Si Si5 0.099045 0.911144 0.894481
Si Si6 0.643617 0.744279 0.573413
Si Si7 0.243498 0.650781 0.756418
O O1 0.500000 0.095601 0.325357
O O2 0.390426 0.167379 0.400960
O O3 0.331966 0.122224 0.292835
O O4 0.378775 0.000000 0.369115
O O5 0.250000 0.250000 0.924950
O O6 0.370371 0.155820 0.920985
O O7 0.396173 0.314064 0.875632
O O8 0.386395 0.277538 0.000000
O O9 0.167735 0.500000 0.906520
O O10 0.303484 0.410188 0.928185
O O11 0.222898 0.387006 0.825128
O O12 0.500000 0.403087 0.309905
O O13 0.620263 0.500000 0.353673
O O14 0.615731 0.333679 0.383080
O O15 0.666013 0.384875 0.272238
O O16 0.000000 0.914937 0.924073
O O17 0.103024 0.000000 0.858290
O O18 0.616892 0.731371 0.500000
O O19 0.750000 0.750000 0.576974
O O20 0.250000 0.750000 0.759002
#
# Coordination Sequence:
#
# PCOD9492239 Si02
#       7
#    16  16  16  16  16  16  16
#     4  11  23  40  63  89 118 157 204 254 307 356
#     4   9  18  34  54  79 113 152 195 237 284 347
#     4  10  21  37  59  85 116 155 197 244 295 351
#     4  11  23  39  61  90 123 160 198 241 301 367
#     4   9  18  33  54  85 121 152 189 240 299 358
#     4  11  23  41  64  90 123 163 203 249 302 357
#     4  12  22  39  63  87 121 158 197 251 307 359
#
# _framework density 21.895330999999999
#
# number of rings (size 3 to 8) (size 9 to 14) (size 15 to 20)
#    0.000    1.571    2.857    3.000    0.000    3.143 
#    0.000   10.000    0.000    1.286    0.000    1.000 
#    0.000    0.000    0.000    0.000    0.000    0.000 
#
# Total GULP energy -311741.975994 kJ/mol
# GULP energy per Si atom -5566.821000 kJ/mol
# Density = 2.184550 g / cm^3
# Si number density = 21.895331 Si / 1000 Ang^3
#
#
#
# Elastic Constant Matrix: (Units=GPa)
#
#
# Indices 1 2 3 4 5 6 
#
# 1 81.1798 38.2389 13.2390 0.0000 0.0000 0.0000
# 2 38.2389 219.2404 25.5370 0.0000 0.0000 0.0000
# 3 13.2390 25.5370 82.7369 0.0000 0.0000 0.0000
# 4 0.0000 0.0000 0.0000 6.7628 0.0000 0.0000
# 5 0.0000 0.0000 0.0000 0.0000 -14.9985 0.0000
# 6 0.0000 0.0000 0.0000 0.0000 0.0000 33.1957
#
#
#
# Elastic Compliance Matrix: (Units=1/GPa)
#
#
# Indices 1 2 3 4 5 6 
#
# 1 0.013598 -0.002197 -0.001498 0.000000 0.000000 0.000000
# 2 -0.002197 0.005086 -0.001218 0.000000 0.000000 0.000000
# 3 -0.001498 -0.001218 0.012702 0.000000 0.000000 0.000000
# 4 0.000000 0.000000 0.000000 0.147867 0.000000 0.000000
# 5 0.000000 0.000000 0.000000 0.000000 -0.066673 0.000000
# 6 0.000000 0.000000 0.000000 0.000000 0.000000 0.030124
#
#
# Mechanical properties :
#
#
# Convention : Reuss Voigt Hill
#
# Bulk Modulus (GPa) = 46.38268 59.68746 53.03507
# Shear Modulus (GPa) = 31.30532 25.40149 28.35340
#
# Velocity S-wave (km/s) = 3.78533 3.40977 3.60245
# Velocity P-wave (km/s) = 6.35097 6.54382 6.44811
#
# Compressibility (1/GPa) = 0.02155977
#
# Stress axis : x y z
#
# Youngs Moduli (GPa) = 73.54279 196.60522 78.72663
#
# Poissons Ratio (x) = 0.43198 0.11790
# Poissons Ratio (y) = 0.16159 0.09592
# Poissons Ratio (z) = 0.11014 0.23953
#
# Static dielectric constant tensor:
#      x y z
#    x 1.807960 0.000000 0.000000 
#    y 0.000000 1.981080 0.000000 
#    z 0.000000 0.000000 1.848590 
# 
# From -- ./inp_files/70025.got.cif
#   From: 2010.05.17/outbox.cif.g08.bks.cpg/sg65_36_cif.got.tgz:70025.got - 2010.06.03 17:01:31.
