data_PCOD9492091
_publ_section_title
;
Structure prediction by ZEFSAII (Michael W. Deem and Ramdas Pophale) SiO2 
 PCOD9492091
Probable space group: C M M M
;
_chemical_formula_sum "Si O2"
_cell_formula_units_Z 96
_cell_length_a 8.971863
_cell_length_b 18.700154
_cell_length_c 31.991589
_cell_angle_alpha 90.000000
_cell_angle_beta 90.000000
_cell_angle_gamma 90.000000
_cell_volume 5367.395875
_symmetry_space_group_name_H-M "C M M M"
_symmetry_group_IT_number 65
_symmetry_cell_setting 'orthorhombic'
loop_
_space_group_symop_operation_xyz
x,y,z
-x,-y,z
x,-y,-z
-x,y,-z
-x,-y,-z
x,y,-z
-x,y,z
x,-y,z
1/2+x,1/2+y,z
1/2-x,1/2-y,z
1/2+x,1/2-y,-z
1/2-x,1/2+y,-z
1/2-x,1/2-y,-z
1/2+x,1/2+y,-z
1/2-x,1/2+y,z
1/2+x,1/2-y,z
loop_
_atom_site_type_symbol
_atom_site_label
_atom_site_fract_x
_atom_site_fract_y
_atom_site_fract_z
Si Si1 0.823111 0.914563 0.289712
Si Si2 0.320445 0.171590 0.786317
Si Si3 0.321980 0.671652 0.547579
Si Si4 0.678971 0.083022 0.131421
Si Si5 0.325913 0.914175 0.622217
Si Si6 0.824188 0.086580 0.045695
O O1 0.740983 0.872549 0.253021
O O2 0.756109 0.893816 0.334736
O O3 0.000000 0.900888 0.288662
O O4 0.799702 0.000000 0.284480
O O5 0.500000 0.175452 0.784493
O O6 0.250000 0.250000 0.786242
O O7 0.276957 0.129887 0.828789
O O8 0.291635 0.646411 0.500000
O O9 0.500000 0.676235 0.552757
O O10 0.250000 0.750000 0.551637
O O11 0.251517 0.621619 0.582589
O O12 0.500000 0.082985 0.128962
O O13 0.742685 0.111208 0.087495
O O14 0.727248 0.000000 0.137122
O O15 0.500000 0.894178 0.624253
O O16 0.316349 0.000000 0.618598
O O17 0.000000 0.102161 0.048589
O O18 0.808757 0.000000 0.045340
O O19 0.769737 0.112112 0.000000
#
# Coordination Sequence:
#
# PCOD9492091 Si02
#       6
#    16  16  16  16  16  16
#     4  10  21  38  60  84 109 138 175 218 265 319
#     4  11  23  38  55  77 107 140 177 220 265 315
#     4  10  21  37  57  81 111 147 186 227 269 315
#     4   9  18  32  51  75 102 134 170 210 259 312
#     4  10  21  37  58  84 113 144 178 219 267 317
#     4   8  14  25  43  70 102 132 164 206 254 303
#
# _framework density 17.885769
#
# number of rings (size 3 to 8) (size 9 to 14) (size 15 to 20)
#    0.000    2.333    0.000    3.000    0.000    6.333 
#    0.000    8.333    0.000    0.500    0.000    0.000 
#    0.000    0.000    0.000    0.000    0.000    0.000 
#
# Total GULP energy -267835.350017 kJ/mol
# GULP energy per Si atom -5579.903125 kJ/mol
# Density = 1.784506 g / cm^3
# Si number density = 17.885769 Si / 1000 Ang^3
#
#
#
# Elastic Constant Matrix: (Units=GPa)
#
#
# Indices 1 2 3 4 5 6 
#
# 1 81.0444 45.6964 84.0061 0.0000 0.0000 0.0000
# 2 45.6964 46.2468 71.6563 0.0000 0.0000 0.0000
# 3 84.0061 71.6563 202.5901 0.0000 0.0000 0.0000
# 4 0.0000 0.0000 0.0000 -24.0557 0.0000 0.0000
# 5 0.0000 0.0000 0.0000 0.0000 37.9050 0.0000
# 6 0.0000 0.0000 0.0000 0.0000 0.0000 23.7522
#
#
#
# Elastic Compliance Matrix: (Units=1/GPa)
#
#
# Indices 1 2 3 4 5 6 
#
# 1 0.029422 -0.022498 -0.004242 0.000000 0.000000 0.000000
# 2 -0.022498 0.065047 -0.013678 0.000000 0.000000 0.000000
# 3 -0.004242 -0.013678 0.011533 0.000000 0.000000 0.000000
# 4 0.000000 0.000000 0.000000 -0.041570 0.000000 0.000000
# 5 0.000000 0.000000 0.000000 0.000000 0.026382 0.000000
# 6 0.000000 0.000000 0.000000 0.000000 0.000000 0.042101
#
#
# Mechanical properties :
#
#
# Convention : Reuss Voigt Hill
#
# Bulk Modulus (GPa) = 39.73877 81.39989 60.56933
# Shear Modulus (GPa) = 22.50829 16.08846 19.29838
#
# Velocity S-wave (km/s) = 3.55131 3.00244 3.28835
# Velocity P-wave (km/s) = 6.25156 7.59140 6.95382
#
# Compressibility (1/GPa) = 0.02516434
#
# Stress axis : x y z
#
# Youngs Moduli (GPa) = 33.98823 15.37356 86.70685
#
# Poissons Ratio (x) = 0.34588 0.36784
# Poissons Ratio (y) = 0.76468 1.18597
# Poissons Ratio (z) = 0.14419 0.21028
#
# Static dielectric constant tensor:
#      x y z
#    x 1.596260 0.000000 0.000000 
#    y 0.000000 1.591270 0.000000 
#    z 0.000000 0.000000 1.604380 
# 
# From -- ./inp_files/73128.got.cif
#   From: 2010.05.17/outbox.cif.g08.bks.cpg/sg65_37_cif.got.tgz:73128.got - 2010.06.03 17:01:31.
