data_PCOD9492809
_publ_section_title
;
Structure prediction by ZEFSAII (Michael W. Deem and Ramdas Pophale) SiO2 
 PCOD9492809
Probable space group: C M M M
;
_chemical_formula_sum "Si O2"
_cell_formula_units_Z 88
_cell_length_a 21.057828
_cell_length_b 9.673671
_cell_length_c 25.496714
_cell_angle_alpha 90.000000
_cell_angle_beta 90.000000
_cell_angle_gamma 90.000000
_cell_volume 5193.846372
_symmetry_space_group_name_H-M "C M M M"
_symmetry_group_IT_number 65
_symmetry_cell_setting 'orthorhombic'
loop_
_space_group_symop_operation_xyz
x,y,z
-x,-y,z
x,-y,-z
-x,y,-z
-x,-y,-z
x,y,-z
-x,y,z
x,-y,z
1/2+x,1/2+y,z
1/2-x,1/2-y,z
1/2+x,1/2-y,-z
1/2-x,1/2+y,-z
1/2-x,1/2-y,-z
1/2+x,1/2+y,-z
1/2-x,1/2+y,z
1/2+x,1/2-y,z
loop_
_atom_site_type_symbol
_atom_site_label
_atom_site_fract_x
_atom_site_fract_y
_atom_site_fract_z
Si Si1 0.690279 0.337605 0.664496
Si Si2 0.577296 0.659423 0.940567
Si Si3 0.073545 0.164632 0.740182
Si Si4 0.922983 0.657952 0.156707
Si Si5 0.122085 0.837164 0.560912
Si Si6 0.000000 0.656485 0.563469
O O1 0.703219 0.500000 0.671411
O O2 0.750000 0.250000 0.682936
O O3 0.625172 0.306389 0.695471
O O4 0.676765 0.311805 0.602998
O O5 0.500000 0.661847 0.940018
O O6 0.595582 0.500000 0.930003
O O7 0.599649 0.762526 0.895385
O O8 0.596823 0.695906 0.000000
O O9 0.090651 0.252599 0.791601
O O10 0.000000 0.195909 0.725277
O O11 0.075902 0.000000 0.751810
O O12 0.900263 0.500000 0.159999
O O13 0.000000 0.653323 0.153542
O O14 0.138604 0.810123 0.500000
O O15 0.062500 0.743075 0.576606
O O16 0.104384 0.000000 0.564834
O O17 0.000000 0.500000 0.584197
O O18 0.000000 0.648566 0.500000
#
# Coordination Sequence:
#
# PCOD9492809 Si02
#       6
#    16  16  16  16  16   8
#     4  10  22  37  54  75 101 131 165 206 252 301
#     4   8  13  21  34  54  84 124 164 197 234 286
#     4   9  18  33  52  70  91 126 169 208 244 292
#     4   9  16  25  39  62  91 121 157 203 250 292
#     4   9  18  33  53  75 100 132 166 199 242 300
#     4   9  17  29  47  75 105 129 157 197 242 283
#
# _framework density 16.943127
#
# number of rings (size 3 to 8) (size 9 to 14) (size 15 to 20)
#    0.000    3.000    0.000    1.364    1.273    5.455 
#    0.000    1.818    0.000    0.000    0.000    0.000 
#    0.000    0.727    0.000    2.364    0.000    4.727 
#
# Total GULP energy -245030.958322 kJ/mol
# GULP energy per Si atom -5568.885416 kJ/mol
# Density = 1.690456 g / cm^3
# Si number density = 16.943127 Si / 1000 Ang^3
#
#
#
# Elastic Constant Matrix: (Units=GPa)
#
#
# Indices 1 2 3 4 5 6 
#
# 1 60.0941 44.8223 41.6852 0.0000 0.0000 0.0000
# 2 44.8223 69.5492 63.5264 0.0000 0.0000 0.0000
# 3 41.6852 63.5264 101.2223 0.0000 0.0000 0.0000
# 4 0.0000 0.0000 0.0000 13.7256 0.0000 0.0000
# 5 0.0000 0.0000 0.0000 0.0000 1.5796 0.0000
# 6 0.0000 0.0000 0.0000 0.0000 0.0000 17.8408
#
#
#
# Elastic Compliance Matrix: (Units=1/GPa)
#
#
# Indices 1 2 3 4 5 6 
#
# 1 0.032057 -0.020155 -0.000552 0.000000 0.000000 0.000000
# 2 -0.020155 0.046364 -0.020798 0.000000 0.000000 0.000000
# 3 -0.000552 -0.020798 0.023159 0.000000 0.000000 0.000000
# 4 0.000000 0.000000 0.000000 0.072857 0.000000 0.000000
# 5 0.000000 0.000000 0.000000 0.000000 0.633063 0.000000
# 6 0.000000 0.000000 0.000000 0.000000 0.000000 0.056051
#
#
# Mechanical properties :
#
#
# Convention : Reuss Voigt Hill
#
# Bulk Modulus (GPa) = 53.85026 58.99260 56.42143
# Shear Modulus (GPa) = 5.24796 12.01799 8.63298
#
# Velocity S-wave (km/s) = 1.76185 2.66618 2.25972
# Velocity P-wave (km/s) = 5.99923 6.66120 6.33887
#
# Compressibility (1/GPa) = 0.01857001
#
# Stress axis : x y z
#
# Youngs Moduli (GPa) = 31.19469 21.56842 43.17947
#
# Poissons Ratio (x) = 0.43471 0.02385
# Poissons Ratio (y) = 0.62873 0.89803
# Poissons Ratio (z) = 0.01723 0.44857
#
# Static dielectric constant tensor:
#      x y z
#    x 1.539990 0.000000 0.000000 
#    y 0.000000 1.577910 0.000000 
#    z 0.000000 0.000000 1.584130 
# 
# From -- ./inp_files/71012.got.cif
#   From: 2010.05.17/outbox.cif.g08.bks.cpg/sg65_36_cif.got.tgz:71012.got - 2010.06.03 17:01:31.
