data_PCOD9492434
_publ_section_title
;
Structure prediction by ZEFSAII (Michael W. Deem and Ramdas Pophale) SiO2 
 PCOD9492434
Probable space group: C M M M
;
_chemical_formula_sum "Si O2"
_cell_formula_units_Z 80
_cell_length_a 29.574898
_cell_length_b 16.049729
_cell_length_c 8.989130
_cell_angle_alpha 90.000000
_cell_angle_beta 90.000000
_cell_angle_gamma 90.000000
_cell_volume 4266.862230
_symmetry_space_group_name_H-M "C M M M"
_symmetry_group_IT_number 65
_symmetry_cell_setting 'orthorhombic'
loop_
_space_group_symop_operation_xyz
x,y,z
-x,-y,z
x,-y,-z
-x,y,-z
-x,-y,-z
x,y,-z
-x,y,z
x,-y,z
1/2+x,1/2+y,z
1/2-x,1/2-y,z
1/2+x,1/2-y,-z
1/2-x,1/2+y,-z
1/2-x,1/2-y,-z
1/2+x,1/2+y,-z
1/2-x,1/2+y,z
1/2+x,1/2-y,z
loop_
_atom_site_type_symbol
_atom_site_label
_atom_site_fract_x
_atom_site_fract_y
_atom_site_fract_z
Si Si1 0.112450 0.500000 0.822256
Si Si2 0.219092 0.500000 0.178314
Si Si3 0.447954 0.140964 0.322642
Si Si4 0.449070 0.322077 0.823286
Si Si5 0.731335 0.341041 0.679646
Si Si6 0.865469 0.097033 0.674471
O O1 0.165635 0.500000 0.786960
O O2 0.087269 0.579681 0.753812
O O3 0.107385 0.500000 0.000000
O O4 0.241843 0.417097 0.245892
O O5 0.224686 0.500000 0.000000
O O6 0.441472 0.141117 0.500000
O O7 0.500000 0.114074 0.292900
O O8 0.443181 0.233676 0.258441
O O9 0.500000 0.352778 0.789311
O O10 0.409694 0.381626 0.767155
O O11 0.445970 0.309739 0.000000
O O12 0.734672 0.350140 0.500000
O O13 0.750000 0.250000 0.720415
O O14 0.678411 0.350046 0.719170
O O15 0.874863 0.113008 0.500000
O O16 0.853243 0.000000 0.689946
#
# Coordination Sequence:
#
# PCOD9492434 Si02
#       6
#     8   8  16  16  16  16
#     4  11  24  38  55  86 124 159 197 242 297 352
#     4  11  25  42  60  91 129 161 200 250 301 363
#     4  10  21  38  60  86 116 155 204 248 291 349
#     4  10  22  39  59  86 121 157 194 241 297 356
#     4  10  22  42  67  92 120 159 205 253 304 359
#     4  10  21  39  62  89 120 153 196 246 297 356
#
# _framework density 18.749141000000002
#
# number of rings (size 3 to 8) (size 9 to 14) (size 15 to 20)
#    0.000    1.800    1.000    2.100    2.800    7.200 
#    0.000    2.000    0.000    0.000    0.000    0.000 
#    0.000    0.000    0.000    0.000    0.000    0.000 
#
# Total GULP energy -223481.294733 kJ/mol
# GULP energy per Si atom -5587.032368 kJ/mol
# Density = 1.870647 g / cm^3
# Si number density = 18.749141 Si / 1000 Ang^3
#
#
#
# Elastic Constant Matrix: (Units=GPa)
#
#
# Indices 1 2 3 4 5 6 
#
# 1 128.6241 56.1379 56.9837 0.0000 0.0000 0.0000
# 2 56.1379 80.5608 31.7067 0.0000 0.0000 0.0000
# 3 56.9837 31.7067 51.7437 0.0000 0.0000 0.0000
# 4 0.0000 0.0000 0.0000 41.6980 0.0000 0.0000
# 5 0.0000 0.0000 0.0000 0.0000 33.0607 0.0000
# 6 0.0000 0.0000 0.0000 0.0000 0.0000 37.0247
#
#
#
# Elastic Compliance Matrix: (Units=1/GPa)
#
#
# Indices 1 2 3 4 5 6 
#
# 1 0.017093 -0.005933 -0.015188 0.000000 0.000000 0.000000
# 2 -0.005933 0.018418 -0.004751 0.000000 0.000000 0.000000
# 3 -0.015188 -0.004751 0.038964 0.000000 0.000000 0.000000
# 4 0.000000 0.000000 0.000000 0.023982 0.000000 0.000000
# 5 0.000000 0.000000 0.000000 0.000000 0.030247 0.000000
# 6 0.000000 0.000000 0.000000 0.000000 0.000000 0.027009
#
#
# Mechanical properties :
#
#
# Convention : Reuss Voigt Hill
#
# Bulk Modulus (GPa) = 43.99785 61.17616 52.58700
# Shear Modulus (GPa) = 23.25206 30.09669 26.67437
#
# Velocity S-wave (km/s) = 3.52542 4.01088 3.77596
# Velocity P-wave (km/s) = 6.33159 7.35861 6.86433
#
# Compressibility (1/GPa) = 0.02272838
#
# Stress axis : x y z
#
# Youngs Moduli (GPa) = 58.50375 54.29586 25.66487
#
# Poissons Ratio (x) = 0.32215 0.38980
# Poissons Ratio (y) = 0.34712 0.12195
# Poissons Ratio (z) = 0.88856 0.25799
#
# Static dielectric constant tensor:
#      x y z
#    x 1.641650 0.000000 0.000000 
#    y 0.000000 1.624920 0.000000 
#    z 0.000000 0.000000 1.625990 
# 
# From -- ./inp_files/16118.got.cif
#   From: 2010.05.17/outbox.cif.g08.bks.cpg/sg65_9_cif.got.tgz:16118.got - 2010.06.03 17:01:31.
