data_PCOD9492132
_publ_section_title
;
Structure prediction by ZEFSAII (Michael W. Deem and Ramdas Pophale) SiO2 
 PCOD9492132
Probable space group: C M M M
;
_chemical_formula_sum "Si O2"
_cell_formula_units_Z 104
_cell_length_a 21.339445
_cell_length_b 8.499591
_cell_length_c 30.834742
_cell_angle_alpha 90.000000
_cell_angle_beta 90.000000
_cell_angle_gamma 90.000000
_cell_volume 5592.699268
_symmetry_space_group_name_H-M "C M M M"
_symmetry_group_IT_number 65
_symmetry_cell_setting 'orthorhombic'
loop_
_space_group_symop_operation_xyz
x,y,z
-x,-y,z
x,-y,-z
-x,y,-z
-x,-y,-z
x,y,-z
-x,y,z
x,-y,z
1/2+x,1/2+y,z
1/2-x,1/2-y,z
1/2+x,1/2-y,-z
1/2-x,1/2+y,-z
1/2-x,1/2-y,-z
1/2+x,1/2+y,-z
1/2-x,1/2+y,z
1/2+x,1/2-y,z
loop_
_atom_site_type_symbol
_atom_site_label
_atom_site_fract_x
_atom_site_fract_y
_atom_site_fract_z
Si Si1 0.000000 0.177113 0.052366
Si Si2 0.678546 0.189953 0.546477
Si Si3 0.321511 0.190668 0.642481
Si Si4 0.569779 0.309801 0.806814
Si Si5 0.071001 0.690237 0.709033
Si Si6 0.315061 0.687073 0.135603
Si Si7 0.365288 0.812845 0.049588
O O1 0.063937 0.265194 0.062741
O O2 0.000000 0.000000 0.070819
O O3 0.000000 0.165692 0.000000
O O4 0.649745 0.241428 0.500000
O O5 0.750000 0.250000 0.545801
O O6 0.655417 0.239607 0.594049
O O7 0.678203 0.000000 0.546440
O O8 0.250000 0.250000 0.649228
O O9 0.372653 0.243425 0.677763
O O10 0.319027 0.000000 0.643592
O O11 0.500000 0.258534 0.820885
O O12 0.570548 0.500000 0.807362
O O13 0.579561 0.253610 0.757653
O O14 0.625160 0.252096 0.837683
O O15 0.072598 0.500000 0.710198
O O16 0.000000 0.735847 0.694891
O O17 0.315070 0.500000 0.137545
O O18 0.250000 0.750000 0.153887
O O19 0.321876 0.738273 0.085792
O O20 0.359077 0.000000 0.049998
O O21 0.354316 0.757310 0.000000
#
# Coordination Sequence:
#
# PCOD9492132 Si02
#       7
#     8  16  16  16  16  16  16
#     4   9  17  31  53  81 111 143 179 217 257 299
#     4   8  13  22  37  58  87 123 161 202 246 290
#     4   9  17  28  44  69  98 127 164 208 251 298
#     4   9  20  39  60  80 101 130 170 214 257 304
#     4   9  18  33  52  73  98 130 165 202 249 305
#     4  11  24  40  59  82 111 143 175 214 262 315
#     4  10  21  37  57  83 114 145 180 220 259 303
#
# _framework density 18.595672
#
# number of rings (size 3 to 8) (size 9 to 14) (size 15 to 20)
#    0.000    2.692    0.000    1.154    1.077    4.615 
#    0.000    3.077    0.000    0.462    0.000    3.231 
#    0.000    0.000    0.000   28.769    0.000   15.692 
#
# Total GULP energy -289752.995441 kJ/mol
# GULP energy per Si atom -5572.172989 kJ/mol
# Density = 1.855335 g / cm^3
# Si number density = 18.595672 Si / 1000 Ang^3
#
#
#
# Elastic Constant Matrix: (Units=GPa)
#
#
# Indices 1 2 3 4 5 6 
#
# 1 128.9582 19.0836 85.6488 0.0000 0.0000 0.0000
# 2 19.0836 15.8115 14.6820 0.0000 0.0000 0.0000
# 3 85.6488 14.6820 107.5475 0.0000 0.0000 0.0000
# 4 0.0000 0.0000 0.0000 20.7229 0.0000 0.0000
# 5 0.0000 0.0000 0.0000 0.0000 24.6621 0.0000
# 6 0.0000 0.0000 0.0000 0.0000 0.0000 23.7445
#
#
#
# Elastic Compliance Matrix: (Units=1/GPa)
#
#
# Indices 1 2 3 4 5 6 
#
# 1 0.017608 -0.009426 -0.012736 0.000000 0.000000 0.000000
# 2 -0.009426 0.077472 -0.003070 0.000000 0.000000 0.000000
# 3 -0.012736 -0.003070 0.019860 0.000000 0.000000 0.000000
# 4 0.000000 0.000000 0.000000 0.048256 0.000000 0.000000
# 5 0.000000 0.000000 0.000000 0.000000 0.040548 0.000000
# 6 0.000000 0.000000 0.000000 0.000000 0.000000 0.042115
#
#
# Mechanical properties :
#
#
# Convention : Reuss Voigt Hill
#
# Bulk Modulus (GPa) = 15.50940 54.57179 35.04060
# Shear Modulus (GPa) = 15.73250 22.68608 19.20929
#
# Velocity S-wave (km/s) = 2.91182 3.49659 3.21752
# Velocity P-wave (km/s) = 4.43434 6.76104 5.71730
#
# Compressibility (1/GPa) = 0.06447701
#
# Stress axis : x y z
#
# Youngs Moduli (GPa) = 56.79258 12.90792 50.35282
#
# Poissons Ratio (x) = 0.12167 0.64129
# Poissons Ratio (y) = 0.53531 0.15457
# Poissons Ratio (z) = 0.72330 0.03962
#
# Static dielectric constant tensor:
#      x y z
#    x 1.693710 0.000000 0.000000 
#    y 0.000000 1.638320 0.000000 
#    z 0.000000 0.000000 1.674480 
# 
# From -- ./inp_files/78232.got.cif
#   From: 2010.05.17/outbox.cif.g08.bks.cpg/sg65_40_cif.got.tgz:78232.got - 2010.06.03 17:01:31.
