data_PCOD9492203
_publ_section_title
;
Structure prediction by ZEFSAII (Michael W. Deem and Ramdas Pophale) SiO2 
 PCOD9492203
Probable space group: C M M M
;
_chemical_formula_sum "Si O2"
_cell_formula_units_Z 112
_cell_length_a 22.859883
_cell_length_b 17.249350
_cell_length_c 14.020944
_cell_angle_alpha 90.000000
_cell_angle_beta 90.000000
_cell_angle_gamma 90.000000
_cell_volume 5528.712318
_symmetry_space_group_name_H-M "C M M M"
_symmetry_group_IT_number 65
_symmetry_cell_setting 'orthorhombic'
loop_
_space_group_symop_operation_xyz
x,y,z
-x,-y,z
x,-y,-z
-x,y,-z
-x,-y,-z
x,y,-z
-x,y,z
x,-y,z
1/2+x,1/2+y,z
1/2-x,1/2-y,z
1/2+x,1/2-y,-z
1/2-x,1/2+y,-z
1/2-x,1/2-y,-z
1/2+x,1/2+y,-z
1/2-x,1/2+y,z
1/2+x,1/2-y,z
loop_
_atom_site_type_symbol
_atom_site_label
_atom_site_fract_x
_atom_site_fract_y
_atom_site_fract_z
Si Si1 0.659285 0.908460 0.733656
Si Si2 0.564636 0.686299 0.763556
Si Si3 0.569911 0.823440 0.387909
Si Si4 0.267111 0.594069 0.607672
Si Si5 0.225025 0.334220 0.886615
Si Si6 0.847495 0.911376 0.114195
Si Si7 0.399400 0.408161 0.604560
O O1 0.605697 0.891883 0.662949
O O2 0.716895 0.879645 0.677158
O O3 0.666939 0.861070 0.831420
O O4 0.662724 0.000000 0.752915
O O5 0.500000 0.703800 0.804172
O O6 0.581645 0.753604 0.687627
O O7 0.612035 0.654993 0.838741
O O8 0.560501 0.615371 0.689968
O O9 0.586833 0.811993 0.500000
O O10 0.500000 0.835515 0.387502
O O11 0.253427 0.618104 0.500000
O O12 0.266635 0.500000 0.610013
O O13 0.333244 0.618880 0.628142
O O14 0.250000 0.250000 0.858733
O O15 0.279113 0.393131 0.867539
O O16 0.214526 0.332692 0.000000
O O17 0.860500 0.000000 0.147437
O O18 0.855707 0.909071 0.000000
O O19 0.416824 0.377599 0.500000
O O20 0.396902 0.500000 0.597228
#
# Coordination Sequence:
#
# PCOD9492203 Si02
#       7
#    16  16  16  16  16  16  16
#     4  11  21  34  59  90 116 146 189 239 288 342
#     4  11  22  36  54  74 104 150 198 241 288 344
#     4  10  23  42  60  81 113 152 195 244 296 351
#     4   8  15  28  46  72 105 136 168 214 275 336
#     4  10  21  38  61  89 122 158 193 231 281 344
#     4  10  21  37  58  86 120 155 193 242 297 347
#     4   9  17  29  46  70 102 139 179 226 280 339
#
# _framework density 20.257881000000001
#
# number of rings (size 3 to 8) (size 9 to 14) (size 15 to 20)
#    0.000    2.143    0.000    4.286    0.000    5.429 
#    0.000    2.143    0.000    5.571    0.000    1.000 
#    0.000    0.000    0.000    0.000    0.000    0.000 
#
# Total GULP energy -312154.197630 kJ/mol
# GULP energy per Si atom -5574.182101 kJ/mol
# Density = 2.021177 g / cm^3
# Si number density = 20.257881 Si / 1000 Ang^3
#
#
#
# Elastic Constant Matrix: (Units=GPa)
#
#
# Indices 1 2 3 4 5 6 
#
# 1 34.6636 16.1327 36.6568 0.0000 0.0000 0.0000
# 2 16.1327 61.0644 31.5197 0.0000 0.0000 0.0000
# 3 36.6568 31.5197 76.5321 0.0000 0.0000 0.0000
# 4 0.0000 0.0000 0.0000 25.1400 0.0000 0.0000
# 5 0.0000 0.0000 0.0000 0.0000 1368.4819 0.0000
# 6 0.0000 0.0000 0.0000 0.0000 0.0000 22.2069
#
#
#
# Elastic Compliance Matrix: (Units=1/GPa)
#
#
# Indices 1 2 3 4 5 6 
#
# 1 0.058535 -0.001261 -0.027518 0.000000 0.000000 0.000000
# 2 -0.001261 0.020825 -0.007973 0.000000 0.000000 0.000000
# 3 -0.027518 -0.007973 0.029530 0.000000 0.000000 0.000000
# 4 0.000000 0.000000 0.000000 0.039777 0.000000 0.000000
# 5 0.000000 0.000000 0.000000 0.000000 0.000731 0.000000
# 6 0.000000 0.000000 0.000000 0.000000 0.000000 0.045031
#
#
# Mechanical properties :
#
#
# Convention : Reuss Voigt Hill
#
# Bulk Modulus (GPa) = 28.25825 37.87540 33.06682
# Shear Modulus (GPa) = 17.87455 289.02914 153.45184
#
# Velocity S-wave (km/s) = 2.97366 11.95762 8.71284
# Velocity P-wave (km/s) = 5.07639 14.47009 10.84327
#
# Compressibility (1/GPa) = 0.03538789
#
# Stress axis : x y z
#
# Youngs Moduli (GPa) = 17.08367 48.02034 33.86370
#
# Poissons Ratio (x) = 0.06054 0.93185
# Poissons Ratio (y) = 0.02154 0.26998
# Poissons Ratio (z) = 0.47010 0.38285
#
# Static dielectric constant tensor:
#      x y z
#    x 1.778500 0.000000 0.000000 
#    y 0.000000 1.777830 0.000000 
#    z 0.000000 0.000000 1.763990 
# 
# From -- ./inp_files/45793.got.cif
#   From: 2010.05.17/outbox.cif.g08.bks.cpg/sg65_23_cif.got.tgz:45793.got - 2010.06.03 17:01:31.
