data_PCOD9492487
_publ_section_title
;
Structure prediction by ZEFSAII (Michael W. Deem and Ramdas Pophale) SiO2 
 PCOD9492487
Probable space group: C M M M
;
_chemical_formula_sum "Si O2"
_cell_formula_units_Z 64
_cell_length_a 19.076122
_cell_length_b 8.570446
_cell_length_c 20.841557
_cell_angle_alpha 90.000000
_cell_angle_beta 90.000000
_cell_angle_gamma 90.000000
_cell_volume 3407.404359
_symmetry_space_group_name_H-M "C M M M"
_symmetry_group_IT_number 65
_symmetry_cell_setting 'orthorhombic'
loop_
_space_group_symop_operation_xyz
x,y,z
-x,-y,z
x,-y,-z
-x,y,-z
-x,-y,-z
x,y,-z
-x,y,z
x,-y,z
1/2+x,1/2+y,z
1/2-x,1/2-y,z
1/2+x,1/2-y,-z
1/2-x,1/2+y,-z
1/2-x,1/2-y,-z
1/2+x,1/2+y,-z
1/2-x,1/2+y,z
1/2+x,1/2-y,z
loop_
_atom_site_type_symbol
_atom_site_label
_atom_site_fract_x
_atom_site_fract_y
_atom_site_fract_z
Si Si1 0.080566 0.689964 0.427473
Si Si2 0.327308 0.813035 0.925530
Si Si3 0.171397 0.687367 0.693170
Si Si4 0.581045 0.312981 0.188434
O O1 0.098774 0.740029 0.500000
O O2 0.081089 0.500000 0.427362
O O3 0.133120 0.742257 0.372205
O O4 0.000000 0.737314 0.414077
O O5 0.250000 0.750000 0.908359
O O6 0.383994 0.743120 0.877586
O O7 0.327045 0.000000 0.920360
O O8 0.340477 0.770641 0.000000
O O9 0.173045 0.500000 0.693162
O O10 0.250000 0.750000 0.697317
O O11 0.125807 0.743737 0.753261
O O12 0.500000 0.263266 0.192783
O O13 0.583914 0.500000 0.191508
#
# Coordination Sequence:
#
# PCOD9492487 Si02
#       4
#    16  16  16  16
#     4   8  15  30  53  80 108 140 181 227 274 325
#     4  10  21  38  61  87 115 147 183 224 270 323
#     4  11  22  36  56  81 111 147 186 229 276 327
#     4  11  24  40  58  81 111 146 184 229 278 328
#
# _framework density 18.782627000000002
#
# number of rings (size 3 to 8) (size 9 to 14) (size 15 to 20)
#    0.000    2.000    0.000    4.500    0.000    5.500 
#    0.000    2.500    0.000    2.250    0.000    8.750 
#    0.000    0.000    0.000    0.000    0.000    0.000 
#
# Total GULP energy -178768.365436 kJ/mol
# GULP energy per Si atom -5586.511420 kJ/mol
# Density = 1.873988 g / cm^3
# Si number density = 18.782627 Si / 1000 Ang^3
#
#
#
# Elastic Constant Matrix: (Units=GPa)
#
#
# Indices 1 2 3 4 5 6 
#
# 1 188.5200 45.0323 120.2781 0.0000 0.0000 0.0000
# 2 45.0323 41.6204 36.9849 0.0000 0.0000 0.0000
# 3 120.2781 36.9849 130.5246 0.0000 0.0000 0.0000
# 4 0.0000 0.0000 0.0000 -9.1957 0.0000 0.0000
# 5 0.0000 0.0000 0.0000 0.0000 36.4510 0.0000
# 6 0.0000 0.0000 0.0000 0.0000 0.0000 18.1945
#
#
#
# Elastic Compliance Matrix: (Units=1/GPa)
#
#
# Indices 1 2 3 4 5 6 
#
# 1 0.013544 -0.004763 -0.011131 0.000000 0.000000 0.000000
# 2 -0.004763 0.033787 -0.005185 0.000000 0.000000 0.000000
# 3 -0.011131 -0.005185 0.019388 0.000000 0.000000 0.000000
# 4 0.000000 0.000000 0.000000 -0.108747 0.000000 0.000000
# 5 0.000000 0.000000 0.000000 0.000000 0.027434 0.000000
# 6 0.000000 0.000000 0.000000 0.000000 0.000000 0.054962
#
#
# Mechanical properties :
#
#
# Convention : Reuss Voigt Hill
#
# Bulk Modulus (GPa) = 40.71423 85.02841 62.87132
# Shear Modulus (GPa) = 55.11841 19.64794 37.38318
#
# Velocity S-wave (km/s) = 5.42302 3.23781 4.46612
# Velocity P-wave (km/s) = 7.80614 7.70363 7.75505
#
# Compressibility (1/GPa) = 0.02456143
#
# Stress axis : x y z
#
# Youngs Moduli (GPa) = 73.83307 29.59684 51.57832
#
# Poissons Ratio (x) = 0.14097 0.57413
# Poissons Ratio (y) = 0.35166 0.26743
# Poissons Ratio (z) = 0.82185 0.15346
#
# Static dielectric constant tensor:
#      x y z
#    x 1.621640 0.000000 0.000000 
#    y 0.000000 1.643740 0.000000 
#    z 0.000000 0.000000 1.643150 
# 
# From -- ./inp_files/49034.got.cif
#   From: 2010.05.17/outbox.cif.g08.bks.cpg/sg65_25_cif.got.tgz:49034.got - 2010.06.03 17:01:31.
