data_PCOD9492576
_publ_section_title
;
Structure prediction by ZEFSAII (Michael W. Deem and Ramdas Pophale) SiO2 
 PCOD9492576
Probable space group: C M M M
;
_chemical_formula_sum "Si O2"
_cell_formula_units_Z 96
_cell_length_a 14.853631
_cell_length_b 20.248993
_cell_length_c 15.398245
_cell_angle_alpha 90.000000
_cell_angle_beta 90.000000
_cell_angle_gamma 90.000000
_cell_volume 4631.346627
_symmetry_space_group_name_H-M "C M M M"
_symmetry_group_IT_number 65
_symmetry_cell_setting 'orthorhombic'
loop_
_space_group_symop_operation_xyz
x,y,z
-x,-y,z
x,-y,-z
-x,y,-z
-x,-y,-z
x,y,-z
-x,y,z
x,-y,z
1/2+x,1/2+y,z
1/2-x,1/2-y,z
1/2+x,1/2-y,-z
1/2-x,1/2+y,-z
1/2-x,1/2-y,-z
1/2+x,1/2+y,-z
1/2-x,1/2+y,z
1/2+x,1/2-y,z
loop_
_atom_site_type_symbol
_atom_site_label
_atom_site_fract_x
_atom_site_fract_y
_atom_site_fract_z
Si Si1 0.673965 0.806467 0.903679
Si Si2 0.896197 0.920542 0.500000
Si Si3 0.288725 0.616671 0.328307
Si Si4 0.696399 0.574349 0.855947
Si Si5 0.500000 0.425117 0.102829
Si Si6 0.401802 0.145703 0.603017
Si Si7 0.099678 0.762713 0.264321
O O1 0.750000 0.750000 0.907849
O O2 0.725585 0.875858 0.886566
O O3 0.615728 0.782734 0.820940
O O4 0.630289 0.808743 0.000000
O O5 0.848937 0.895175 0.587289
O O6 0.000000 0.900115 0.500000
O O7 0.891024 0.000000 0.500000
O O8 0.300934 0.569117 0.247561
O O9 0.186121 0.611611 0.359060
O O10 0.320705 0.685857 0.284461
O O11 0.702108 0.500000 0.893688
O O12 0.597269 0.604560 0.875383
O O13 0.500000 0.500000 0.141387
O O14 0.500000 0.430305 0.000000
O O15 0.391719 0.153672 0.500000
O O16 0.500000 0.114026 0.619467
O O17 0.402438 0.215314 0.652251
O O18 0.000000 0.794650 0.257300
#
# Coordination Sequence:
#
# PCOD9492576 Si02
#       7
#    16   8  16  16   8  16  16
#     4  11  22  40  63  89 126 168 213 268 325 383
#     4  11  26  42  60  93 137 179 221 269 329 402
#     4  12  22  40  64  91 129 173 219 270 326 389
#     4  11  23  39  63  92 128 173 217 266 330 400
#     4   9  20  38  60  91 127 163 210 265 320 393
#     4  10  21  38  63  93 125 163 211 272 333 385
#     4  11  23  39  63  95 130 167 216 270 328 393
#
# _framework density 20.728311999999999
#
# number of rings (size 3 to 8) (size 9 to 14) (size 15 to 20)
#    0.000    1.167    4.167    2.000    3.500    2.000 
#    0.000    0.000    0.000    4.000    0.000    1.167 
#    0.000    0.000    0.000    0.000    0.000    0.000 
#
# Total GULP energy -267800.186094 kJ/mol
# GULP energy per Si atom -5579.170544 kJ/mol
# Density = 2.068113 g / cm^3
# Si number density = 20.728312 Si / 1000 Ang^3
#
#
#
# Elastic Constant Matrix: (Units=GPa)
#
#
# Indices 1 2 3 4 5 6 
#
# 1 130.5737 17.6684 53.7897 0.0000 0.0000 0.0000
# 2 17.6684 54.6509 20.9953 0.0000 0.0000 0.0000
# 3 53.7897 20.9953 136.0847 0.0000 0.0000 0.0000
# 4 0.0000 0.0000 0.0000 22.5714 0.0000 0.0000
# 5 0.0000 0.0000 0.0000 0.0000 1.0442 0.0000
# 6 0.0000 0.0000 0.0000 0.0000 0.0000 47.8596
#
#
#
# Elastic Compliance Matrix: (Units=1/GPa)
#
#
# Indices 1 2 3 4 5 6 
#
# 1 0.009293 -0.001694 -0.003412 0.000000 0.000000 0.000000
# 2 -0.001694 0.019759 -0.002379 0.000000 0.000000 0.000000
# 3 -0.003412 -0.002379 0.009064 0.000000 0.000000 0.000000
# 4 0.000000 0.000000 0.000000 0.044304 0.000000 0.000000
# 5 0.000000 0.000000 0.000000 0.000000 0.957628 0.000000
# 6 0.000000 0.000000 0.000000 0.000000 0.000000 0.020894
#
#
# Mechanical properties :
#
#
# Convention : Reuss Voigt Hill
#
# Bulk Modulus (GPa) = 43.20157 56.24626 49.72392
# Shear Modulus (GPa) = 4.61413 29.55209 17.08311
#
# Velocity S-wave (km/s) = 1.49360 3.77992 2.87390
# Velocity P-wave (km/s) = 4.88482 6.80032 5.92055
#
# Compressibility (1/GPa) = 0.02314731
#
# Stress axis : x y z
#
# Youngs Moduli (GPa) = 107.60483 50.60857 110.32580
#
# Poissons Ratio (x) = 0.08571 0.37643
# Poissons Ratio (y) = 0.18225 0.26247
# Poissons Ratio (z) = 0.36715 0.12040
#
# Static dielectric constant tensor:
#      x y z
#    x 1.784100 0.000000 0.000000 
#    y 0.000000 1.762320 0.000000 
#    z 0.000000 0.000000 1.744440 
# 
# From -- ./inp_files/40458.got.cif
#   From: 2010.05.17/outbox.cif.g08.bks.cpg/sg65_21_cif.got.tgz:40458.got - 2010.06.03 17:01:31.
