data_PCOD9492325
_publ_section_title
;
Structure prediction by ZEFSAII (Michael W. Deem and Ramdas Pophale) SiO2 
 PCOD9492325
Probable space group: C M M M
;
_chemical_formula_sum "Si O2"
_cell_formula_units_Z 96
_cell_length_a 10.945314
_cell_length_b 18.214494
_cell_length_c 29.144032
_cell_angle_alpha 90.000000
_cell_angle_beta 90.000000
_cell_angle_gamma 90.000000
_cell_volume 5810.252032
_symmetry_space_group_name_H-M "C M M M"
_symmetry_group_IT_number 65
_symmetry_cell_setting 'orthorhombic'
loop_
_space_group_symop_operation_xyz
x,y,z
-x,-y,z
x,-y,-z
-x,y,-z
-x,-y,-z
x,y,-z
-x,y,z
x,-y,z
1/2+x,1/2+y,z
1/2-x,1/2-y,z
1/2+x,1/2-y,-z
1/2-x,1/2+y,-z
1/2-x,1/2-y,-z
1/2+x,1/2+y,-z
1/2-x,1/2+y,z
1/2+x,1/2-y,z
loop_
_atom_site_type_symbol
_atom_site_label
_atom_site_fract_x
_atom_site_fract_y
_atom_site_fract_z
Si Si1 0.357521 0.310630 0.739298
Si Si2 0.746841 0.838073 0.912969
Si Si3 0.356862 0.417458 0.000000
Si Si4 0.000000 0.412657 0.944637
Si Si5 0.856404 0.810352 0.633820
Si Si6 0.854396 0.915554 0.175771
Si Si7 0.147639 0.083756 0.550314
O O1 0.500000 0.284075 0.746319
O O2 0.250000 0.250000 0.745038
O O3 0.352016 0.337509 0.686532
O O4 0.335201 0.374720 0.775946
O O5 0.750000 0.750000 0.913712
O O6 0.823266 0.872212 0.954905
O O7 0.614953 0.871768 0.923156
O O8 0.794435 0.869204 0.864885
O O9 0.298500 0.500000 0.000000
O O10 0.500000 0.426953 0.000000
O O11 0.000000 0.500000 0.935221
O O12 0.000000 0.403580 0.000000
O O13 0.750000 0.750000 0.630661
O O14 0.823784 0.868831 0.594697
O O15 0.000000 0.786808 0.626379
O O16 0.000000 0.916581 0.167538
O O17 0.811312 0.000000 0.175851
O O18 0.188161 0.112324 0.500000
O O19 0.000000 0.081395 0.548905
O O20 0.191057 0.000000 0.554803
#
# Coordination Sequence:
#
# PCOD9492325 Si02
#       7
#    16  16   8   8  16  16  16
#     4   9  18  34  54  77 104 134 171 212 261 312
#     4  12  25  38  60  83 112 140 177 215 256 312
#     4  11  23  39  61  83 109 139 171 211 259 307
#     4  11  24  42  62  82 114 150 178 214 261 313
#     4   9  17  29  48  73 101 133 169 212 260 313
#     4  10  21  38  58  78 105 134 168 214 264 310
#     4   8  14  25  42  67  99 133 172 219 263 303
#
# _framework density 16.522518000000002
#
# number of rings (size 3 to 8) (size 9 to 14) (size 15 to 20)
#    0.000    2.167    0.833    3.250    2.333    2.333 
#    1.500    3.333    0.000    0.500    0.000    5.833 
#    0.000    0.000    0.000    0.000    0.000    0.000 
#
# Total GULP energy -267323.560937 kJ/mol
# GULP energy per Si atom -5569.240853 kJ/mol
# Density = 1.648491 g / cm^3
# Si number density = 16.522518 Si / 1000 Ang^3
#
#
#
# Elastic Constant Matrix: (Units=GPa)
#
#
# Indices 1 2 3 4 5 6 
#
# 1 71.5044 49.5073 50.1794 0.0000 0.0000 0.0000
# 2 49.5073 139.3383 95.1538 0.0000 0.0000 0.0000
# 3 50.1794 95.1538 149.0323 0.0000 0.0000 0.0000
# 4 0.0000 0.0000 0.0000 181.3551 0.0000 0.0000
# 5 0.0000 0.0000 0.0000 0.0000 25.7155 0.0000
# 6 0.0000 0.0000 0.0000 0.0000 0.0000 22.4658
#
#
#
# Elastic Compliance Matrix: (Units=1/GPa)
#
#
# Indices 1 2 3 4 5 6 
#
# 1 0.019714 -0.004382 -0.003840 0.000000 0.000000 0.000000
# 2 -0.004382 0.013699 -0.007271 0.000000 0.000000 0.000000
# 3 -0.003840 -0.007271 0.012645 0.000000 0.000000 0.000000
# 4 0.000000 0.000000 0.000000 0.005514 0.000000 0.000000
# 5 0.000000 0.000000 0.000000 0.000000 0.038887 0.000000
# 6 0.000000 0.000000 0.000000 0.000000 0.000000 0.044512
#
#
# Mechanical properties :
#
#
# Convention : Reuss Voigt Hill
#
# Bulk Modulus (GPa) = 66.34761 83.28398 74.81580
# Shear Modulus (GPa) = 29.24287 56.90959 43.07623
#
# Velocity S-wave (km/s) = 4.21156 5.87524 5.11154
# Velocity P-wave (km/s) = 7.99329 9.82549 8.95637
#
# Compressibility (1/GPa) = 0.01507213
#
# Stress axis : x y z
#
# Youngs Moduli (GPa) = 50.72571 72.99652 79.08087
#
# Poissons Ratio (x) = 0.31989 0.30365
# Poissons Ratio (y) = 0.22229 0.57501
# Poissons Ratio (z) = 0.19477 0.53077
#
# Static dielectric constant tensor:
#      x y z
#    x 1.499000 0.000000 0.000000 
#    y 0.000000 1.541410 0.000000 
#    z 0.000000 0.000000 1.574270 
# 
# From -- ./inp_files/77347.got.cif
#   From: 2010.05.17/outbox.cif.g08.bks.cpg/sg65_39_cif.got.tgz:77347.got - 2010.06.03 17:01:31.
