data_PCOD9492371
_publ_section_title
;
Structure prediction by ZEFSAII (Michael W. Deem and Ramdas Pophale) SiO2 
 PCOD9492371
Probable space group: C M M M
;
_chemical_formula_sum "Si O2"
_cell_formula_units_Z 58
_cell_length_a 14.731719
_cell_length_b 8.434050
_cell_length_c 25.740519
_cell_angle_alpha 90.000000
_cell_angle_beta 90.000000
_cell_angle_gamma 90.000000
_cell_volume 3198.209411
_symmetry_space_group_name_H-M "C M M M"
_symmetry_group_IT_number 65
_symmetry_cell_setting 'orthorhombic'
loop_
_space_group_symop_operation_xyz
x,y,z
-x,-y,z
x,-y,-z
-x,y,-z
-x,-y,-z
x,y,-z
-x,y,z
x,-y,z
1/2+x,1/2+y,z
1/2-x,1/2-y,z
1/2+x,1/2-y,-z
1/2-x,1/2+y,-z
1/2-x,1/2-y,-z
1/2+x,1/2+y,-z
1/2-x,1/2+y,z
1/2+x,1/2-y,z
loop_
_atom_site_type_symbol
_atom_site_label
_atom_site_fract_x
_atom_site_fract_y
_atom_site_fract_z
Si Si1 0.500000 0.191214 0.419795
Si Si2 0.000000 0.000000 0.500000
Si Si3 0.500000 0.313707 0.748181
Si Si4 0.647894 0.310472 0.942284
Si Si5 0.351960 0.813909 0.330568
Si Si6 0.000000 0.686778 0.864374
O O1 0.500000 0.350618 0.455753
O O2 0.589083 0.204906 0.383236
O O3 0.500000 0.000000 0.438486
O O4 0.500000 0.500000 0.755315
O O5 0.411809 0.265286 0.714601
O O6 0.500000 0.235791 0.804531
O O7 0.646947 0.500000 0.941938
O O8 0.750000 0.250000 0.936365
O O9 0.586092 0.250892 0.895921
O O10 0.615679 0.257908 0.000000
O O11 0.250000 0.750000 0.335198
O O12 0.347795 0.000000 0.319197
O O13 0.000000 0.500000 0.867613
#
# Coordination Sequence:
#
# PCOD9492371 Si02
#       6
#     8   2   8  16  16   8
#     4   9  22  40  61  93 129 165 208 255 299 355
#     4  12  22  36  72  86 132 170 210 244 318 346
#     4  11  23  39  60  88 117 152 197 246 302 358
#     4  10  21  38  59  83 112 150 194 238 292 356
#     4  10  21  39  65  90 121 157 203 248 295 358
#     4  12  24  38  57  83 119 150 192 244 299 350
#
# _framework density 18.135148999999998
#
# number of rings (size 3 to 8) (size 9 to 14) (size 15 to 20)
#    0.000    1.655    0.000    5.586    5.793    4.414 
#    0.000    6.207    0.000    0.000    0.000    0.000 
#    0.000    0.000    0.000    0.000    0.000    0.000 
#
# Total GULP energy -161501.265938 kJ/mol
# GULP energy per Si atom -5569.009170 kJ/mol
# Density = 1.809387 g / cm^3
# Si number density = 18.135149 Si / 1000 Ang^3
#
#
#
# Elastic Constant Matrix: (Units=GPa)
#
#
# Indices 1 2 3 4 5 6 
#
# 1 120.8580 21.6433 42.9070 0.0000 0.0000 0.0000
# 2 21.6433 101.5444 31.4302 0.0000 0.0000 0.0000
# 3 42.9070 31.4302 101.2479 0.0000 0.0000 0.0000
# 4 0.0000 0.0000 0.0000 37.1730 0.0000 0.0000
# 5 0.0000 0.0000 0.0000 0.0000 -48.1938 0.0000
# 6 0.0000 0.0000 0.0000 0.0000 0.0000 33.1797
#
#
#
# Elastic Compliance Matrix: (Units=1/GPa)
#
#
# Indices 1 2 3 4 5 6 
#
# 1 0.009812 -0.000890 -0.003882 0.000000 0.000000 0.000000
# 2 -0.000890 0.010975 -0.003030 0.000000 0.000000 0.000000
# 3 -0.003882 -0.003030 0.012462 0.000000 0.000000 0.000000
# 4 0.000000 0.000000 0.000000 0.026901 0.000000 0.000000
# 5 0.000000 0.000000 0.000000 0.000000 -0.020750 0.000000
# 6 0.000000 0.000000 0.000000 0.000000 0.000000 0.030139
#
#
# Mechanical properties :
#
#
# Convention : Reuss Voigt Hill
#
# Bulk Modulus (GPa) = 56.66912 57.29015 56.97964
# Shear Modulus (GPa) = 54.92984 19.60976 37.26980
#
# Velocity S-wave (km/s) = 5.50953 3.29190 4.53825
# Velocity P-wave (km/s) = 8.47286 6.79029 7.67780
#
# Compressibility (1/GPa) = 0.01764630
#
# Stress axis : x y z
#
# Youngs Moduli (GPa) = 101.92001 91.11280 80.24154
#
# Poissons Ratio (x) = 0.08107 0.31148
# Poissons Ratio (y) = 0.09069 0.24313
# Poissons Ratio (z) = 0.39563 0.27607
#
# Static dielectric constant tensor:
#      x y z
#    x 1.571760 0.000000 0.000000 
#    y 0.000000 1.626020 0.000000 
#    z 0.000000 0.000000 1.623010 
# 
# From -- ./inp_files/69474.got.cif
#   From: 2010.05.17/outbox.cif.g08.bks.cpg/sg65_35_cif.got.tgz:69474.got - 2010.06.03 17:01:31.
