data_PCOD9492341
_publ_section_title
;
Structure prediction by ZEFSAII (Michael W. Deem and Ramdas Pophale) SiO2 
 PCOD9492341
Probable space group: C M M M
;
_chemical_formula_sum "Si O2"
_cell_formula_units_Z 52
_cell_length_a 13.581913
_cell_length_b 26.629806
_cell_length_c 7.256078
_cell_angle_alpha 90.000000
_cell_angle_beta 90.000000
_cell_angle_gamma 90.000000
_cell_volume 2624.405199
_symmetry_space_group_name_H-M "C M M M"
_symmetry_group_IT_number 65
_symmetry_cell_setting 'orthorhombic'
loop_
_space_group_symop_operation_xyz
x,y,z
-x,-y,z
x,-y,-z
-x,y,-z
-x,-y,-z
x,y,-z
-x,y,z
x,-y,z
1/2+x,1/2+y,z
1/2-x,1/2-y,z
1/2+x,1/2-y,-z
1/2-x,1/2+y,-z
1/2-x,1/2-y,-z
1/2+x,1/2+y,-z
1/2-x,1/2+y,z
1/2+x,1/2-y,z
loop_
_atom_site_type_symbol
_atom_site_label
_atom_site_fract_x
_atom_site_fract_y
_atom_site_fract_z
Si Si1 0.715446 0.443255 0.276586
Si Si2 0.000000 0.813249 0.000000
Si Si3 0.500000 0.402068 0.278250
Si Si4 0.852746 0.723432 0.000000
Si Si5 0.612764 0.865481 0.279317
O O1 0.716513 0.443030 0.500000
O O2 0.736905 0.500000 0.216278
O O3 0.603237 0.428623 0.224554
O O4 0.800745 0.404085 0.220892
O O5 0.914431 0.773675 0.000000
O O6 0.000000 0.849001 0.176729
O O7 0.500000 0.397749 0.500000
O O8 0.750000 0.750000 0.000000
O O9 0.871892 0.686771 0.173018
O O10 0.620406 0.858792 0.500000
O O11 0.500000 0.882960 0.240514
#
# Coordination Sequence:
#
# PCOD9492341 Si02
#       5
#    16   4   8   8  16
#     4   9  18  35  61  89 118 156 193 234 295 354
#     4  12  24  38  57  84 109 150 200 236 294 352
#     4  10  21  38  58  86 122 151 192 247 290 348
#     4  12  24  40  60  82 114 152 199 253 295 341
#     4  10  21  39  60  85 120 154 192 242 292 352
#
# _framework density 19.814014
#
# number of rings (size 3 to 8) (size 9 to 14) (size 15 to 20)
#    0.000    1.846    1.538    2.308    0.000    4.308 
#    0.000    6.923    0.000    1.846    0.000    0.000 
#    0.000    0.000    0.000    0.000    0.000    0.000 
#
# Total GULP energy -145008.550879 kJ/mol
# GULP energy per Si atom -5577.251957 kJ/mol
# Density = 1.976892 g / cm^3
# Si number density = 19.814014 Si / 1000 Ang^3
#
#
#
# Elastic Constant Matrix: (Units=GPa)
#
#
# Indices 1 2 3 4 5 6 
#
# 1 159.2551 49.6861 22.4035 0.0000 0.0000 0.0000
# 2 49.6861 123.3332 28.0789 0.0000 0.0000 0.0000
# 3 22.4035 28.0789 88.7493 0.0000 0.0000 0.0000
# 4 0.0000 0.0000 0.0000 39.3231 0.0000 0.0000
# 5 0.0000 0.0000 0.0000 0.0000 7.2387 0.0000
# 6 0.0000 0.0000 0.0000 0.0000 0.0000 46.8398
#
#
#
# Elastic Compliance Matrix: (Units=1/GPa)
#
#
# Indices 1 2 3 4 5 6 
#
# 1 0.007260 -0.002702 -0.000978 0.000000 0.000000 0.000000
# 2 -0.002702 0.009743 -0.002400 0.000000 0.000000 0.000000
# 3 -0.000978 -0.002400 0.012274 0.000000 0.000000 0.000000
# 4 0.000000 0.000000 0.000000 0.025430 0.000000 0.000000
# 5 0.000000 0.000000 0.000000 0.000000 0.138147 0.000000
# 6 0.000000 0.000000 0.000000 0.000000 0.000000 0.021349
#
#
# Mechanical properties :
#
#
# Convention : Reuss Voigt Hill
#
# Bulk Modulus (GPa) = 58.42366 63.51939 60.97153
# Shear Modulus (GPa) = 21.54522 36.75825 29.15174
#
# Velocity S-wave (km/s) = 3.30111 4.31183 3.83987
# Velocity P-wave (km/s) = 6.63926 7.54431 7.10621
#
# Compressibility (1/GPa) = 0.01711635
#
# Stress axis : x y z
#
# Youngs Moduli (GPa) = 137.74473 102.63570 81.47309
#
# Poissons Ratio (x) = 0.27733 0.07966
# Poissons Ratio (y) = 0.37220 0.19558
# Poissons Ratio (z) = 0.13468 0.24638
#
# Static dielectric constant tensor:
#      x y z
#    x 1.676540 0.000000 0.000000 
#    y 0.000000 1.633630 0.000000 
#    z 0.000000 0.000000 1.734370 
# 
# From -- ./inp_files/6113.got.cif
#   From: 2010.05.17/outbox.cif.g08.bks.cpg/sg65_4_cif.got.tgz:6113.got - 2010.06.03 17:01:31.
