data_PCOD9492804
_publ_section_title
;
Structure prediction by ZEFSAII (Michael W. Deem and Ramdas Pophale) SiO2 
 PCOD9492804
Probable space group: C M M M
;
_chemical_formula_sum "Si O2"
_cell_formula_units_Z 96
_cell_length_a 20.867090
_cell_length_b 14.067687
_cell_length_c 17.347442
_cell_angle_alpha 90.000000
_cell_angle_beta 90.000000
_cell_angle_gamma 90.000000
_cell_volume 5092.370929
_symmetry_space_group_name_H-M "C M M M"
_symmetry_group_IT_number 65
_symmetry_cell_setting 'orthorhombic'
loop_
_space_group_symop_operation_xyz
x,y,z
-x,-y,z
x,-y,-z
-x,y,-z
-x,-y,-z
x,y,-z
-x,y,z
x,-y,z
1/2+x,1/2+y,z
1/2-x,1/2-y,z
1/2+x,1/2-y,-z
1/2-x,1/2+y,-z
1/2-x,1/2-y,-z
1/2+x,1/2+y,-z
1/2-x,1/2+y,z
1/2+x,1/2-y,z
loop_
_atom_site_type_symbol
_atom_site_label
_atom_site_fract_x
_atom_site_fract_y
_atom_site_fract_z
Si Si1 0.183439 0.611981 0.820238
Si Si2 0.321048 0.111951 0.641690
Si Si3 0.089960 0.886269 0.500000
Si Si4 0.813783 0.885664 0.089365
Si Si5 0.764607 0.885817 0.500000
Si Si6 0.577386 0.728545 0.823655
Si Si7 0.069526 0.238014 0.646711
O O1 0.171094 0.500000 0.834607
O O2 0.200902 0.623449 0.729875
O O3 0.246452 0.640554 0.868833
O O4 0.118456 0.673060 0.832855
O O5 0.269689 0.141304 0.578424
O O6 0.380536 0.180166 0.628653
O O7 0.336378 0.000000 0.630996
O O8 0.163440 0.855475 0.500000
O O9 0.067007 0.840473 0.420036
O O10 0.081517 0.000000 0.500000
O O11 0.878030 0.842747 0.127444
O O12 0.817557 0.000000 0.093801
O O13 0.810653 0.856875 0.000000
O O14 0.765481 0.000000 0.500000
O O15 0.500000 0.733336 0.841640
O O16 0.582746 0.700205 0.733018
O O17 0.000000 0.284583 0.651373
#
# Coordination Sequence:
#
# PCOD9492804 Si02
#       7
#    16  16   8  16   8  16  16
#     4   9  19  36  60  87 116 151 188 229 281 341
#     4   9  18  34  56  82 111 139 172 223 279 330
#     4  11  24  38  53  72 104 149 191 234 274 315
#     4  10  22  40  62  86 113 148 191 237 282 333
#     4   9  19  33  50  77 105 134 178 224 271 317
#     4  10  22  38  57  86 120 151 187 234 285 338
#     4  10  22  37  53  78 108 143 188 224 265 328
#
# _framework density 18.851728000000001
#
# number of rings (size 3 to 8) (size 9 to 14) (size 15 to 20)
#    0.000    2.333    0.000    1.250    2.333    5.333 
#    0.000    5.833    0.000    2.500    0.000    3.500 
#    0.000    0.000    0.000    0.000    0.000    0.000 
#
# Total GULP energy -267472.623033 kJ/mol
# GULP energy per Si atom -5572.346313 kJ/mol
# Density = 1.880882 g / cm^3
# Si number density = 18.851728 Si / 1000 Ang^3
#
#
#
# Elastic Constant Matrix: (Units=GPa)
#
#
# Indices 1 2 3 4 5 6 
#
# 1 156.3079 45.0670 86.4671 0.0000 0.0000 0.0000
# 2 45.0670 84.2903 60.2297 0.0000 0.0000 0.0000
# 3 86.4671 60.2297 107.2062 0.0000 0.0000 0.0000
# 4 0.0000 0.0000 0.0000 17.7182 0.0000 0.0000
# 5 0.0000 0.0000 0.0000 0.0000 37.8900 0.0000
# 6 0.0000 0.0000 0.0000 0.0000 0.0000 52.1301
#
#
#
# Elastic Compliance Matrix: (Units=1/GPa)
#
#
# Indices 1 2 3 4 5 6 
#
# 1 0.011584 0.000806 -0.009796 0.000000 0.000000 0.000000
# 2 0.000806 0.019877 -0.011817 0.000000 0.000000 0.000000
# 3 -0.009796 -0.011817 0.023868 0.000000 0.000000 0.000000
# 4 0.000000 0.000000 0.000000 0.056439 0.000000 0.000000
# 5 0.000000 0.000000 0.000000 0.000000 0.026392 0.000000
# 6 0.000000 0.000000 0.000000 0.000000 0.000000 0.019183
#
#
# Mechanical properties :
#
#
# Convention : Reuss Voigt Hill
#
# Bulk Modulus (GPa) = 72.91536 81.25910 77.08723
# Shear Modulus (GPa) = 24.56652 31.95038 28.25845
#
# Velocity S-wave (km/s) = 3.61383 4.12129 3.87587
# Velocity P-wave (km/s) = 7.49502 8.11447 7.81089
#
# Compressibility (1/GPa) = 0.01371453
#
# Stress axis : x y z
#
# Youngs Moduli (GPa) = 86.32358 50.31017 41.89714
#
# Poissons Ratio (x) = -0.04056 0.41043
# Poissons Ratio (y) = -0.06959 0.49511
# Poissons Ratio (z) = 0.84565 0.59452
#
# Static dielectric constant tensor:
#      x y z
#    x 1.640400 0.000000 0.000000 
#    y 0.000000 1.664790 0.000000 
#    z 0.000000 0.000000 1.673030 
# 
# From -- ./inp_files/44181.got.cif
#   From: 2010.05.17/outbox.cif.g08.bks.cpg/sg65_23_cif.got.tgz:44181.got - 2010.06.03 17:01:31.
