data_PCOD9492153
_publ_section_title
;
Structure prediction by ZEFSAII (Michael W. Deem and Ramdas Pophale) SiO2 
 PCOD9492153
Probable space group: C M M M
;
_chemical_formula_sum "Si O2"
_cell_formula_units_Z 72
_cell_length_a 17.914244
_cell_length_b 13.281254
_cell_length_c 13.878337
_cell_angle_alpha 90.000000
_cell_angle_beta 90.000000
_cell_angle_gamma 90.000000
_cell_volume 3301.984245
_symmetry_space_group_name_H-M "C M M M"
_symmetry_group_IT_number 65
_symmetry_cell_setting 'orthorhombic'
loop_
_space_group_symop_operation_xyz
x,y,z
-x,-y,z
x,-y,-z
-x,y,-z
-x,-y,-z
x,y,-z
-x,y,z
x,-y,z
1/2+x,1/2+y,z
1/2-x,1/2-y,z
1/2+x,1/2-y,-z
1/2-x,1/2+y,-z
1/2-x,1/2-y,-z
1/2+x,1/2+y,-z
1/2-x,1/2+y,z
1/2+x,1/2-y,z
loop_
_atom_site_type_symbol
_atom_site_label
_atom_site_fract_x
_atom_site_fract_y
_atom_site_fract_z
Si Si1 0.411201 0.500000 0.616957
Si Si2 0.280132 0.613548 0.111778
Si Si3 0.865590 0.612786 0.243378
Si Si4 0.077253 0.241850 0.885657
Si Si5 0.837558 0.783765 0.613625
O O1 0.500000 0.500000 0.647088
O O2 0.412423 0.500000 0.500000
O O3 0.365181 0.396909 0.643606
O O4 0.309026 0.500000 0.109742
O O5 0.215064 0.618142 0.190187
O O6 0.347324 0.685063 0.140987
O O7 0.255283 0.635372 0.000000
O O8 0.876545 0.500000 0.278701
O O9 0.918525 0.647090 0.156976
O O10 0.876860 0.697013 0.324362
O O11 0.000000 0.192024 0.852728
O O12 0.077601 0.243469 0.000000
O O13 0.854774 0.776356 0.500000
O O14 0.750000 0.750000 0.623301
#
# Coordination Sequence:
#
# PCOD9492153 Si02
#       5
#     8  16  16  16  16
#     4   9  20  42  70  96 124 162 212 267 322 384
#     4   9  18  35  60  87 117 157 204 254 308 366
#     4  11  23  38  59  88 125 165 207 254 303 371
#     4  10  21  37  57  83 118 159 203 253 309 368
#     4  10  22  40  65  96 128 163 209 265 320 376
#
# _framework density 21.805071000000002
#
# number of rings (size 3 to 8) (size 9 to 14) (size 15 to 20)
#    0.000    2.111    0.000    2.667    1.556    5.333 
#    2.000    3.333    0.000    0.000    0.000    4.667 
#    0.000    0.000    0.000    0.000    0.000    0.000 
#
# Total GULP energy -200701.511704 kJ/mol
# GULP energy per Si atom -5575.041992 kJ/mol
# Density = 2.175544 g / cm^3
# Si number density = 21.805071 Si / 1000 Ang^3
#
#
#
# Elastic Constant Matrix: (Units=GPa)
#
#
# Indices 1 2 3 4 5 6 
#
# 1 85.6691 44.6560 -10.8706 0.0000 0.0000 0.0000
# 2 44.6560 195.7028 27.5459 0.0000 0.0000 0.0000
# 3 -10.8706 27.5459 24.6528 0.0000 0.0000 0.0000
# 4 0.0000 0.0000 0.0000 36.3479 0.0000 0.0000
# 5 0.0000 0.0000 0.0000 0.0000 -10.6048 0.0000
# 6 0.0000 0.0000 0.0000 0.0000 0.0000 -2.2278
#
#
#
# Elastic Compliance Matrix: (Units=1/GPa)
#
#
# Indices 1 2 3 4 5 6 
#
# 1 0.016310 -0.005617 0.013468 0.000000 0.000000 0.000000
# 2 -0.005617 0.007998 -0.011414 0.000000 0.000000 0.000000
# 3 0.013468 -0.011414 0.059255 0.000000 0.000000 0.000000
# 4 0.000000 0.000000 0.000000 0.027512 0.000000 0.000000
# 5 0.000000 0.000000 0.000000 0.000000 -0.094297 0.000000
# 6 0.000000 0.000000 0.000000 0.000000 0.000000 -0.448873
#
#
# Mechanical properties :
#
#
# Convention : Reuss Voigt Hill
#
# Bulk Modulus (GPa) = 13.08246 47.63193 30.35719
# Shear Modulus (GPa) = -12.51596 21.01593 4.24999
#
# Velocity S-wave (km/s) = -2.39841 3.10790 1.39761
# Velocity P-wave (km/s) = 1.28728 5.89666 4.06899
#
# Compressibility (1/GPa) = 0.07643823
#
# Stress axis : x y z
#
# Youngs Moduli (GPa) = 61.31224 125.02964 16.87608
#
# Poissons Ratio (x) = 0.70234 -0.22729
# Poissons Ratio (y) = 0.34441 0.19262
# Poissons Ratio (z) = -0.82578 1.42705
#
# Static dielectric constant tensor:
#      x y z
#    x 1.725260 0.000000 0.000000 
#    y 0.000000 1.816280 0.000000 
#    z 0.000000 0.000000 1.813670 
# 
# From -- ./inp_files/54097.got.cif
#   From: 2010.05.17/outbox.cif.g08.bks.cpg/sg65_28_cif.got.tgz:54097.got - 2010.06.03 17:01:31.
