data_PCOD9492800
_publ_section_title
;
Structure prediction by ZEFSAII (Michael W. Deem and Ramdas Pophale) SiO2 
 PCOD9492800
Probable space group: C M M M
;
_chemical_formula_sum "Si O2"
_cell_formula_units_Z 56
_cell_length_a 27.746886
_cell_length_b 7.382393
_cell_length_c 11.287767
_cell_angle_alpha 90.000000
_cell_angle_beta 90.000000
_cell_angle_gamma 90.000000
_cell_volume 2312.168323
_symmetry_space_group_name_H-M "C M M M"
_symmetry_group_IT_number 65
_symmetry_cell_setting 'orthorhombic'
loop_
_space_group_symop_operation_xyz
x,y,z
-x,-y,z
x,-y,-z
-x,y,-z
-x,-y,-z
x,y,-z
-x,y,z
x,-y,z
1/2+x,1/2+y,z
1/2-x,1/2-y,z
1/2+x,1/2-y,-z
1/2-x,1/2+y,-z
1/2-x,1/2-y,-z
1/2+x,1/2+y,-z
1/2-x,1/2+y,z
1/2+x,1/2-y,z
loop_
_atom_site_type_symbol
_atom_site_label
_atom_site_fract_x
_atom_site_fract_y
_atom_site_fract_z
Si Si1 0.944873 0.280457 0.740903
Si Si2 0.058662 0.288196 0.000000
Si Si3 0.151073 0.210904 0.372218
Si Si4 0.307159 0.283694 0.871807
O O1 0.945154 0.500000 0.744696
O O2 0.927657 0.213154 0.871443
O O3 0.906414 0.221181 0.644906
O O4 0.000000 0.223000 0.720932
O O5 0.071212 0.500000 0.000000
O O6 0.000000 0.279222 0.000000
O O7 0.164987 0.289190 0.500000
O O8 0.171882 0.291714 0.250683
O O9 0.165522 0.000000 0.373943
O O10 0.315197 0.500000 0.872276
O O11 0.250000 0.250000 0.870050
O O12 0.325586 0.214536 0.000000
#
# Coordination Sequence:
#
# PCOD9492800 Si02
#       4
#    16   8  16  16
#     4   9  18  33  53  77 106 141 182 225 265 308
#     4   7  12  26  47  71  98 127 164 215 268 305
#     4  10  22  37  52  76 111 146 177 214 264 316
#     4   9  19  37  59  81 105 134 171 216 265 317
#
# _framework density 24.21969
#
# number of rings (size 3 to 8) (size 9 to 14) (size 15 to 20)
#    0.000    3.000    0.000    1.714    2.000    3.429 
#    0.000    2.857    0.000    2.571    0.000    0.000 
#    0.000    0.000    0.000    0.000    0.000    0.000 
#
# Total GULP energy -156334.833750 kJ/mol
# GULP energy per Si atom -5583.386920 kJ/mol
# Density = 2.416456 g / cm^3
# Si number density = 24.219690 Si / 1000 Ang^3
#
#
#
# Elastic Constant Matrix: (Units=GPa)
#
#
# Indices 1 2 3 4 5 6 
#
# 1 59.4221 -7.5162 62.6717 0.0000 0.0000 0.0000
# 2 -7.5162 94.8048 15.4860 0.0000 0.0000 0.0000
# 3 62.6717 15.4860 251.5839 0.0000 0.0000 0.0000
# 4 0.0000 0.0000 0.0000 -2.0099 0.0000 0.0000
# 5 0.0000 0.0000 0.0000 0.0000 18.4976 0.0000
# 6 0.0000 0.0000 0.0000 0.0000 0.0000 24.7513
#
#
#
# Elastic Compliance Matrix: (Units=1/GPa)
#
#
# Indices 1 2 3 4 5 6 
#
# 1 0.023567 0.002856 -0.006047 0.000000 0.000000 0.000000
# 2 0.002856 0.011001 -0.001389 0.000000 0.000000 0.000000
# 3 -0.006047 -0.001389 0.005567 0.000000 0.000000 0.000000
# 4 0.000000 0.000000 0.000000 -0.497546 0.000000 0.000000
# 5 0.000000 0.000000 0.000000 0.000000 0.054061 0.000000
# 6 0.000000 0.000000 0.000000 0.000000 0.000000 0.040402
#
#
# Mechanical properties :
#
#
# Convention : Reuss Voigt Hill
#
# Bulk Modulus (GPa) = 32.28220 60.78819 46.53520
# Shear Modulus (GPa) = -14.55758 30.59242 8.01742
#
# Velocity S-wave (km/s) = -2.45432 3.55790 1.82139
# Velocity P-wave (km/s) = 2.30787 6.48316 4.86609
#
# Compressibility (1/GPa) = 0.03097682
#
# Stress axis : x y z
#
# Youngs Moduli (GPa) = 42.43170 90.89866 179.64420
#
# Poissons Ratio (x) = -0.25962 1.08624
# Poissons Ratio (y) = -0.12119 0.24946
# Poissons Ratio (z) = 0.25657 0.12623
#
# Static dielectric constant tensor:
#      x y z
#    x 1.917420 0.000000 0.000000 
#    y 0.000000 1.921340 0.000000 
#    z 0.000000 0.000000 1.978030 
# 
# From -- ./inp_files/20787.got.cif
#   From: 2010.05.17/outbox.cif.g08.bks.cpg/sg65_11_cif.got.tgz:20787.got - 2010.06.03 17:01:31.
