data_PCOD9492850
_publ_section_title
;
Structure prediction by ZEFSAII (Michael W. Deem and Ramdas Pophale) SiO2 
 PCOD9492850
Probable space group: C M M M
;
_chemical_formula_sum "Si O2"
_cell_formula_units_Z 64
_cell_length_a 18.526015
_cell_length_b 21.443479
_cell_length_c 7.775065
_cell_angle_alpha 90.000000
_cell_angle_beta 90.000000
_cell_angle_gamma 90.000000
_cell_volume 3088.739533
_symmetry_space_group_name_H-M "C M M M"
_symmetry_group_IT_number 65
_symmetry_cell_setting 'orthorhombic'
loop_
_space_group_symop_operation_xyz
x,y,z
-x,-y,z
x,-y,-z
-x,y,-z
-x,-y,-z
x,y,-z
-x,y,z
x,-y,z
1/2+x,1/2+y,z
1/2-x,1/2-y,z
1/2+x,1/2-y,-z
1/2-x,1/2+y,-z
1/2-x,1/2-y,-z
1/2+x,1/2+y,-z
1/2-x,1/2+y,z
1/2+x,1/2-y,z
loop_
_atom_site_type_symbol
_atom_site_label
_atom_site_fract_x
_atom_site_fract_y
_atom_site_fract_z
Si Si1 0.159397 0.928240 0.792617
Si Si2 0.586872 0.000000 0.192835
Si Si3 0.000000 0.075535 0.197269
Si Si4 0.919741 0.364198 0.299699
Si Si5 0.272050 0.181293 0.291615
O O1 0.218490 0.875698 0.752180
O O2 0.078866 0.908890 0.726657
O O3 0.175847 0.000000 0.734435
O O4 0.153904 0.931542 0.000000
O O5 0.603457 0.063481 0.288085
O O6 0.500000 0.000000 0.179437
O O7 0.617811 0.000000 0.000000
O O8 0.000000 0.000000 0.191398
O O9 0.000000 0.099088 0.000000
O O10 0.925386 0.347333 0.500000
O O11 0.852649 0.329012 0.220789
O O12 0.000000 0.357025 0.222989
O O13 0.275387 0.181766 0.500000
O O14 0.250000 0.250000 0.233985
#
# Coordination Sequence:
#
# PCOD9492850 Si02
#       5
#    16   8   8  16  16
#     4   9  18  34  58  84 107 137 175 215 262 317
#     4   9  17  29  49  79 107 126 159 218 267 297
#     4   7  12  28  53  79 107 135 168 209 256 317
#     4   9  18  34  54  72  98 141 181 208 250 316
#     4  10  22  38  52  75 110 142 177 221 264 308
#
# _framework density 20.720424999999999
#
# number of rings (size 3 to 8) (size 9 to 14) (size 15 to 20)
#    0.000    3.000    0.000    1.875    1.750    3.500 
#    2.250    0.625    0.000    2.250    0.000    0.000 
#    0.000    0.000    0.000    0.000    0.000    0.000 
#
# Total GULP energy -178154.559987 kJ/mol
# GULP energy per Si atom -5567.330000 kJ/mol
# Density = 2.067326 g / cm^3
# Si number density = 20.720425 Si / 1000 Ang^3
#
#
#
# Elastic Constant Matrix: (Units=GPa)
#
#
# Indices 1 2 3 4 5 6 
#
# 1 186.9206 104.7364 8.8660 0.0000 0.0000 0.0000
# 2 104.7364 123.2928 1.0982 0.0000 0.0000 0.0000
# 3 8.8660 1.0982 34.0302 0.0000 0.0000 0.0000
# 4 0.0000 0.0000 0.0000 -27.1474 0.0000 0.0000
# 5 0.0000 0.0000 0.0000 0.0000 11.7805 0.0000
# 6 0.0000 0.0000 0.0000 0.0000 0.0000 614.0610
#
#
#
# Elastic Compliance Matrix: (Units=1/GPa)
#
#
# Indices 1 2 3 4 5 6 
#
# 1 0.010406 -0.008818 -0.002427 0.000000 0.000000 0.000000
# 2 -0.008818 0.015586 0.001794 0.000000 0.000000 0.000000
# 3 -0.002427 0.001794 0.029960 0.000000 0.000000 0.000000
# 4 0.000000 0.000000 0.000000 -0.036836 0.000000 0.000000
# 5 0.000000 0.000000 0.000000 0.000000 0.084886 0.000000
# 6 0.000000 0.000000 0.000000 0.000000 0.000000 0.001629
#
#
# Mechanical properties :
#
#
# Convention : Reuss Voigt Hill
#
# Bulk Modulus (GPa) = 26.98968 63.73830 45.36399
# Shear Modulus (GPa) = 36.52795 135.04168 85.78482
#
# Velocity S-wave (km/s) = 4.20324 8.08175 6.44135
# Velocity P-wave (km/s) = 6.05064 10.85883 8.78989
#
# Compressibility (1/GPa) = 0.03705119
#
# Stress axis : x y z
#
# Youngs Moduli (GPa) = 96.09785 64.16077 33.37787
#
# Poissons Ratio (x) = 0.56579 0.08099
# Poissons Ratio (y) = 0.84742 -0.05990
# Poissons Ratio (z) = 0.23319 -0.11513
#
# Static dielectric constant tensor:
#      x y z
#    x 1.809670 0.000000 0.000000 
#    y 0.000000 1.710500 0.000000 
#    z 0.000000 0.000000 1.775890 
# 
# From -- ./inp_files/10820.got.cif
#   From: 2010.05.17/outbox.cif.g08.bks.cpg/sg65_6_cif.got.tgz:10820.got - 2010.06.03 17:01:31.
