data_PCOD9492296
_publ_section_title
;
Structure prediction by ZEFSAII (Michael W. Deem and Ramdas Pophale) SiO2 
 PCOD9492296
Probable space group: C M M M
;
_chemical_formula_sum "Si O2"
_cell_formula_units_Z 80
_cell_length_a 18.688994
_cell_length_b 15.715225
_cell_length_c 14.128927
_cell_angle_alpha 90.000000
_cell_angle_beta 90.000000
_cell_angle_gamma 90.000000
_cell_volume 4149.690525
_symmetry_space_group_name_H-M "C M M M"
_symmetry_group_IT_number 65
_symmetry_cell_setting 'orthorhombic'
loop_
_space_group_symop_operation_xyz
x,y,z
-x,-y,z
x,-y,-z
-x,y,-z
-x,-y,-z
x,y,-z
-x,y,z
x,-y,z
1/2+x,1/2+y,z
1/2-x,1/2-y,z
1/2+x,1/2-y,-z
1/2-x,1/2+y,-z
1/2-x,1/2-y,-z
1/2+x,1/2+y,-z
1/2-x,1/2+y,z
1/2+x,1/2-y,z
loop_
_atom_site_type_symbol
_atom_site_label
_atom_site_fract_x
_atom_site_fract_y
_atom_site_fract_z
Si Si1 0.585554 0.349265 0.392499
Si Si2 0.157081 0.157221 0.807204
Si Si3 0.415876 0.599920 0.000000
Si Si4 0.180536 0.688544 0.602923
Si Si5 0.179316 0.638887 0.203204
Si Si6 0.918836 0.500000 0.112544
O O1 0.603998 0.383961 0.500000
O O2 0.500000 0.357280 0.382195
O O3 0.623541 0.377049 0.292906
O O4 0.612756 0.251614 0.397704
O O5 0.114279 0.135574 0.901619
O O6 0.162149 0.260336 0.803222
O O7 0.238007 0.124961 0.822019
O O8 0.400587 0.500000 0.000000
O O9 0.500000 0.614428 0.000000
O O10 0.191196 0.650921 0.500000
O O11 0.250000 0.750000 0.620945
O O12 0.173983 0.621342 0.685154
O O13 0.124930 0.582115 0.146130
O O14 0.000000 0.500000 0.149568
O O15 0.921466 0.500000 0.000000
#
# Coordination Sequence:
#
# PCOD9492296 Si02
#       6
#    16  16   8  16  16   8
#     4   9  16  28  52  87 121 151 191 243 297 354
#     4  10  21  37  62  91 117 157 204 252 302 367
#     4  11  26  41  56  85 121 156 189 242 318 376
#     4   9  15  30  55  87 122 154 195 247 301 360
#     4  10  21  38  62  92 115 157 210 254 299 361
#     4  11  28  46  61  85 123 168 210 264 323 370
#
# _framework density 19.278545999999999
#
# number of rings (size 3 to 8) (size 9 to 14) (size 15 to 20)
#    0.000    2.200    4.000    0.600    4.200    4.800 
#    0.000    0.500    0.000    1.200    0.000    2.800 
#    0.000    0.000    0.000    0.000    0.000    0.000 
#
# Total GULP energy -222739.348625 kJ/mol
# GULP energy per Si atom -5568.483716 kJ/mol
# Density = 1.923467 g / cm^3
# Si number density = 19.278546 Si / 1000 Ang^3
#
#
#
# Elastic Constant Matrix: (Units=GPa)
#
#
# Indices 1 2 3 4 5 6 
#
# 1 138.4249 31.6884 84.3811 0.0000 0.0000 0.0000
# 2 31.6884 31.6674 27.8591 0.0000 0.0000 0.0000
# 3 84.3811 27.8591 181.8510 0.0000 0.0000 0.0000
# 4 0.0000 0.0000 0.0000 -6.6957 0.0000 0.0000
# 5 0.0000 0.0000 0.0000 0.0000 29.6865 0.0000
# 6 0.0000 0.0000 0.0000 0.0000 0.0000 11.3314
#
#
#
# Elastic Compliance Matrix: (Units=1/GPa)
#
#
# Indices 1 2 3 4 5 6 
#
# 1 0.011571 -0.007923 -0.004155 0.000000 0.000000 0.000000
# 2 -0.007923 0.041922 -0.002746 0.000000 0.000000 0.000000
# 3 -0.004155 -0.002746 0.007848 0.000000 0.000000 0.000000
# 4 0.000000 0.000000 0.000000 -0.149349 0.000000 0.000000
# 5 0.000000 0.000000 0.000000 0.000000 0.033685 0.000000
# 6 0.000000 0.000000 0.000000 0.000000 0.000000 0.088250
#
#
# Mechanical properties :
#
#
# Convention : Reuss Voigt Hill
#
# Bulk Modulus (GPa) = 31.55336 71.08895 51.32116
# Shear Modulus (GPa) = 67.44041 20.73209 44.08625
#
# Velocity S-wave (km/s) = 5.92098 3.28288 4.78724
# Velocity P-wave (km/s) = 7.94649 7.16411 7.56542
#
# Compressibility (1/GPa) = 0.03169234
#
# Stress axis : x y z
#
# Youngs Moduli (GPa) = 86.42443 23.85374 127.42482
#
# Poissons Ratio (x) = 0.18899 0.52948
# Poissons Ratio (y) = 0.68474 0.34991
# Poissons Ratio (z) = 0.35911 0.06550
#
# Static dielectric constant tensor:
#      x y z
#    x 1.690730 0.000000 0.000000 
#    y 0.000000 1.670490 0.000000 
#    z 0.000000 0.000000 1.750530 
# 
# From -- ./inp_files/42425.got.cif
#   From: 2010.05.17/outbox.cif.g08.bks.cpg/sg65_22_cif.got.tgz:42425.got - 2010.06.03 17:01:31.
