data_PCOD9492969
_publ_section_title
;
Structure prediction by ZEFSAII (Michael W. Deem and Ramdas Pophale) SiO2 
 PCOD9492969
Probable space group: C M M M
;
_chemical_formula_sum "Si O2"
_cell_formula_units_Z 88
_cell_length_a 17.931816
_cell_length_b 12.238440
_cell_length_c 20.245406
_cell_angle_alpha 90.000000
_cell_angle_beta 90.000000
_cell_angle_gamma 90.000000
_cell_volume 4443.005260
_symmetry_space_group_name_H-M "C M M M"
_symmetry_group_IT_number 65
_symmetry_cell_setting 'orthorhombic'
loop_
_space_group_symop_operation_xyz
x,y,z
-x,-y,z
x,-y,-z
-x,y,-z
-x,-y,-z
x,y,-z
-x,y,z
x,-y,z
1/2+x,1/2+y,z
1/2-x,1/2-y,z
1/2+x,1/2-y,-z
1/2-x,1/2+y,-z
1/2-x,1/2-y,-z
1/2+x,1/2+y,-z
1/2-x,1/2+y,z
1/2+x,1/2-y,z
loop_
_atom_site_type_symbol
_atom_site_label
_atom_site_fract_x
_atom_site_fract_y
_atom_site_fract_z
Si Si1 0.411389 0.875996 0.313955
Si Si2 0.839318 0.267204 0.074347
Si Si3 0.414311 0.500000 0.274899
Si Si4 0.831984 0.241859 0.424422
Si Si5 0.837603 0.213970 0.784150
Si Si6 0.585695 0.000000 0.920970
Si Si7 0.390378 0.500000 0.427007
O O1 0.500000 0.878006 0.310023
O O2 0.387571 0.807666 0.378340
O O3 0.379759 0.813806 0.250735
O O4 0.382862 0.000000 0.318184
O O5 0.750000 0.250000 0.070160
O O6 0.860865 0.199310 0.139159
O O7 0.866679 0.390279 0.092300
O O8 0.868517 0.242120 0.000000
O O9 0.500000 0.500000 0.247565
O O10 0.365781 0.394206 0.253725
O O11 0.424525 0.500000 0.354082
O O12 0.832477 0.284240 0.500000
O O13 0.750000 0.250000 0.394698
O O14 0.847514 0.113902 0.427090
O O15 0.750000 0.250000 0.781490
O O16 0.500000 0.000000 0.893330
O O17 0.577481 0.000000 0.000000
O O18 0.427360 0.500000 0.500000
#
# Coordination Sequence:
#
# PCOD9492969 Si02
#       7
#    16  16   8  16  16   8   8
#     4  11  25  41  61  91 126 164 205 255 316 381
#     4   9  20  39  62  91 126 163 210 262 313 377
#     4  12  26  44  66  95 132 170 212 267 324 382
#     4  10  22  39  63  92 123 160 207 262 314 372
#     4  11  25  41  67  94 125 167 211 258 321 382
#     4   9  18  33  58  91 121 156 202 251 305 365
#     4  10  22  39  63  91 117 161 217 260 306 366
#
# _framework density 19.806415000000001
#
# number of rings (size 3 to 8) (size 9 to 14) (size 15 to 20)
#    0.000    1.727    1.818    1.091    3.818    4.545 
#    0.000    4.091    0.000    0.545    0.000    0.000 
#    0.000    0.000    0.000    0.000    0.000    0.000 
#
# Total GULP energy -245022.745968 kJ/mol
# GULP energy per Si atom -5568.698772 kJ/mol
# Density = 1.976133 g / cm^3
# Si number density = 19.806415 Si / 1000 Ang^3
#
#
#
# Elastic Constant Matrix: (Units=GPa)
#
#
# Indices 1 2 3 4 5 6 
#
# 1 96.5899 56.2722 23.8574 0.0000 0.0000 0.0000
# 2 56.2722 123.1746 35.7802 0.0000 0.0000 0.0000
# 3 23.8574 35.7802 140.0689 0.0000 0.0000 0.0000
# 4 0.0000 0.0000 0.0000 22.3014 0.0000 0.0000
# 5 0.0000 0.0000 0.0000 0.0000 247.1876 0.0000
# 6 0.0000 0.0000 0.0000 0.0000 0.0000 -537.6416
#
#
#
# Elastic Compliance Matrix: (Units=1/GPa)
#
#
# Indices 1 2 3 4 5 6 
#
# 1 0.014195 -0.006246 -0.000822 0.000000 0.000000 0.000000
# 2 -0.006246 0.011518 -0.001878 0.000000 0.000000 0.000000
# 3 -0.000822 -0.001878 0.007759 0.000000 0.000000 0.000000
# 4 0.000000 0.000000 0.000000 0.044840 0.000000 0.000000
# 5 0.000000 0.000000 0.000000 0.000000 0.004046 0.000000
# 6 0.000000 0.000000 0.000000 0.000000 0.000000 -0.001860
#
#
# Mechanical properties :
#
#
# Convention : Reuss Voigt Hill
#
# Bulk Modulus (GPa) = 64.19044 65.73922 64.96483
# Shear Modulus (GPa) = 48.27005 -37.36893 5.45056
#
# Velocity S-wave (km/s) = 4.94205 -4.34834 1.66069
# Velocity P-wave (km/s) = 8.06501 2.83764 6.04552
#
# Compressibility (1/GPa) = 0.01557864
#
# Stress axis : x y z
#
# Youngs Moduli (GPa) = 70.44693 86.82281 128.87943
#
# Poissons Ratio (x) = 0.54231 0.10597
# Poissons Ratio (y) = 0.44002 0.24207
# Poissons Ratio (z) = 0.05792 0.16308
#
# Static dielectric constant tensor:
#      x y z
#    x 1.623340 0.000000 0.000000 
#    y 0.000000 1.673360 0.000000 
#    z 0.000000 0.000000 1.735110 
# 
# From -- ./inp_files/63678.got.cif
#   From: 2010.05.17/outbox.cif.g08.bks.cpg/sg65_32_cif.got.tgz:63678.got - 2010.06.03 17:01:31.
