data_PCOD9492505
_publ_section_title
;
Structure prediction by ZEFSAII (Michael W. Deem and Ramdas Pophale) SiO2 
 PCOD9492505
Probable space group: C M M M
;
_chemical_formula_sum "Si O2"
_cell_formula_units_Z 80
_cell_length_a 13.265653
_cell_length_b 30.172267
_cell_length_c 11.723026
_cell_angle_alpha 90.000000
_cell_angle_beta 90.000000
_cell_angle_gamma 90.000000
_cell_volume 4692.197711
_symmetry_space_group_name_H-M "C M M M"
_symmetry_group_IT_number 65
_symmetry_cell_setting 'orthorhombic'
loop_
_space_group_symop_operation_xyz
x,y,z
-x,-y,z
x,-y,-z
-x,y,-z
-x,-y,-z
x,y,-z
-x,y,z
x,-y,z
1/2+x,1/2+y,z
1/2-x,1/2-y,z
1/2+x,1/2-y,-z
1/2-x,1/2+y,-z
1/2-x,1/2-y,-z
1/2+x,1/2+y,-z
1/2-x,1/2+y,z
1/2+x,1/2-y,z
loop_
_atom_site_type_symbol
_atom_site_label
_atom_site_fract_x
_atom_site_fract_y
_atom_site_fract_z
Si Si1 0.615547 0.829383 0.000000
Si Si2 0.500000 0.746828 0.636854
Si Si3 0.620951 0.949491 0.743441
Si Si4 0.685852 0.793352 0.757949
Si Si5 0.500000 0.357738 0.638148
Si Si6 0.616154 0.935266 0.000000
Si Si7 0.723978 0.621302 0.363032
O O1 0.660653 0.812969 0.881571
O O2 0.620340 0.882324 0.000000
O O3 0.500000 0.814779 0.000000
O O4 0.500000 0.747112 0.500000
O O5 0.593066 0.774161 0.686462
O O6 0.500000 0.694618 0.673111
O O7 0.500000 0.936460 0.738122
O O8 0.654188 0.949975 0.876677
O O9 0.697030 0.915670 0.681867
O O10 0.627608 0.000000 0.699342
O O11 0.750000 0.750000 0.778942
O O12 0.739201 0.831507 0.685020
O O13 0.500000 0.357312 0.500000
O O14 0.605313 0.381272 0.672822
O O15 0.500000 0.949743 0.000000
O O16 0.727184 0.621053 0.500000
#
# Coordination Sequence:
#
# PCOD9492505 Si02
#       7
#     8   8  16  16   8   8  16
#     4  11  21  36  55  81 117 155 190 237 289 339
#     4  11  22  35  55  84 116 153 196 241 284 334
#     4  10  21  38  61  88 116 146 184 235 293 351
#     4  12  23  37  57  82 117 157 197 237 282 337
#     4   9  20  40  58  77 111 155 200 238 272 328
#     4   9  17  33  58  84 111 148 188 225 277 344
#     4  11  23  38  59  85 115 151 192 238 289 343
#
# _framework density 17.049579999999999
#
# number of rings (size 3 to 8) (size 9 to 14) (size 15 to 20)
#    0.000    1.400    5.000    1.200    1.400    2.800 
#    0.000    1.500    0.000    3.600    0.000    1.400 
#    0.000    0.000    0.000    0.000    0.000    0.000 
#
# Total GULP energy -222860.798208 kJ/mol
# GULP energy per Si atom -5571.519955 kJ/mol
# Density = 1.701077 g / cm^3
# Si number density = 17.049580 Si / 1000 Ang^3
#
#
#
# Elastic Constant Matrix: (Units=GPa)
#
#
# Indices 1 2 3 4 5 6 
#
# 1 116.0205 56.6818 37.4450 0.0000 0.0000 0.0000
# 2 56.6818 104.4147 37.3261 0.0000 0.0000 0.0000
# 3 37.4450 37.3261 90.3150 0.0000 0.0000 0.0000
# 4 0.0000 0.0000 0.0000 -134.4511 0.0000 0.0000
# 5 0.0000 0.0000 0.0000 0.0000 14.7501 0.0000
# 6 0.0000 0.0000 0.0000 0.0000 0.0000 26.8674
#
#
#
# Elastic Compliance Matrix: (Units=1/GPa)
#
#
# Indices 1 2 3 4 5 6 
#
# 1 0.012283 -0.005688 -0.002742 0.000000 0.000000 0.000000
# 2 -0.005688 0.013871 -0.003375 0.000000 0.000000 0.000000
# 3 -0.002742 -0.003375 0.013604 0.000000 0.000000 0.000000
# 4 0.000000 0.000000 0.000000 -0.007438 0.000000 0.000000
# 5 0.000000 0.000000 0.000000 0.000000 0.067796 0.000000
# 6 0.000000 0.000000 0.000000 0.000000 0.000000 0.037220
#
#
# Mechanical properties :
#
#
# Convention : Reuss Voigt Hill
#
# Bulk Modulus (GPa) = 61.92150 63.73956 62.83053
# Shear Modulus (GPa) = 30.06115 -6.61358 11.72379
#
# Velocity S-wave (km/s) = 4.20356 -1.97166 2.62511
# Velocity P-wave (km/s) = 7.74320 5.68179 6.79117
#
# Compressibility (1/GPa) = 0.01614948
#
# Stress axis : x y z
#
# Youngs Moduli (GPa) = 81.41498 72.09250 73.50854
#
# Poissons Ratio (x) = 0.41003 0.20155
# Poissons Ratio (y) = 0.46305 0.24807
# Poissons Ratio (z) = 0.22323 0.24329
#
# Static dielectric constant tensor:
#      x y z
#    x 1.535140 0.000000 0.000000 
#    y 0.000000 1.569680 0.000000 
#    z 0.000000 0.000000 1.596100 
# 
# From -- ./inp_files/22929.got.cif
#   From: 2010.05.17/outbox.cif.g08.bks.cpg/sg65_12_cif.got.tgz:22929.got - 2010.06.03 17:01:31.
