data_PCOD9492124
_publ_section_title
;
Structure prediction by ZEFSAII (Michael W. Deem and Ramdas Pophale) SiO2 
 PCOD9492124
Probable space group: C M M M
;
_chemical_formula_sum "Si O2"
_cell_formula_units_Z 56
_cell_length_a 8.834565
_cell_length_b 16.024266
_cell_length_c 19.491859
_cell_angle_alpha 90.000000
_cell_angle_beta 90.000000
_cell_angle_gamma 90.000000
_cell_volume 2759.412181
_symmetry_space_group_name_H-M "C M M M"
_symmetry_group_IT_number 65
_symmetry_cell_setting 'orthorhombic'
loop_
_space_group_symop_operation_xyz
x,y,z
-x,-y,z
x,-y,-z
-x,y,-z
-x,-y,-z
x,y,-z
-x,y,z
x,-y,z
1/2+x,1/2+y,z
1/2-x,1/2-y,z
1/2+x,1/2-y,-z
1/2-x,1/2+y,-z
1/2-x,1/2-y,-z
1/2+x,1/2+y,-z
1/2-x,1/2+y,z
1/2+x,1/2-y,z
loop_
_atom_site_type_symbol
_atom_site_label
_atom_site_fract_x
_atom_site_fract_y
_atom_site_fract_z
Si Si1 0.824267 0.402700 0.214405
Si Si2 0.320179 0.337247 0.348812
Si Si3 0.181235 0.843020 0.076766
Si Si4 0.176457 0.500000 0.417857
O O1 0.816337 0.500000 0.234032
O O2 0.730631 0.350963 0.269938
O O3 0.756544 0.392239 0.138806
O O4 0.000000 0.376543 0.215441
O O5 0.500000 0.334952 0.354006
O O6 0.250000 0.250000 0.373514
O O7 0.254624 0.416752 0.389116
O O8 0.250000 0.750000 0.079637
O O9 0.000000 0.839819 0.085325
O O10 0.212896 0.876471 0.000000
O O11 0.184184 0.500000 0.500000
O O12 0.000000 0.500000 0.396599
#
# Coordination Sequence:
#
# PCOD9492124 Si02
#       4
#    16  16  16   8
#     4  11  23  39  61  88 124 165 212 269 325 386
#     4  12  25  43  70 100 135 177 222 271 324 387
#     4  10  21  37  57  82 116 158 208 265 324 387
#     4  11  25  47  73 103 140 175 214 267 323 385
#
# _framework density 20.294177999999999
#
# number of rings (size 3 to 8) (size 9 to 14) (size 15 to 20)
#    0.000    1.000    1.429    5.571    0.000    5.714 
#    0.000    2.857    0.000    0.000    0.000    0.000 
#    0.000    0.000    0.000    0.000    0.000    0.000 
#
# Total GULP energy -156679.936586 kJ/mol
# GULP energy per Si atom -5595.712021 kJ/mol
# Density = 2.024799 g / cm^3
# Si number density = 20.294178 Si / 1000 Ang^3
#
#
#
# Elastic Constant Matrix: (Units=GPa)
#
#
# Indices 1 2 3 4 5 6 
#
# 1 190.0093 77.9800 56.4055 0.0000 0.0000 0.0000
# 2 77.9800 132.8006 50.3323 0.0000 0.0000 0.0000
# 3 56.4055 50.3323 87.4184 0.0000 0.0000 0.0000
# 4 0.0000 0.0000 0.0000 105.3837 0.0000 0.0000
# 5 0.0000 0.0000 0.0000 0.0000 34.2941 0.0000
# 6 0.0000 0.0000 0.0000 0.0000 0.0000 35.4326
#
#
#
# Elastic Compliance Matrix: (Units=1/GPa)
#
#
# Indices 1 2 3 4 5 6 
#
# 1 0.007481 -0.003279 -0.002939 0.000000 0.000000 0.000000
# 2 -0.003279 0.011069 -0.004257 0.000000 0.000000 0.000000
# 3 -0.002939 -0.004257 0.015787 0.000000 0.000000 0.000000
# 4 0.000000 0.000000 0.000000 0.009489 0.000000 0.000000
# 5 0.000000 0.000000 0.000000 0.000000 0.029160 0.000000
# 6 0.000000 0.000000 0.000000 0.000000 0.000000 0.028223
#
#
# Mechanical properties :
#
#
# Convention : Reuss Voigt Hill
#
# Bulk Modulus (GPa) = 74.70495 86.62933 80.66714
# Shear Modulus (GPa) = 39.48773 50.05611 44.77192
#
# Velocity S-wave (km/s) = 4.41587 4.97180 4.70206
# Velocity P-wave (km/s) = 7.93037 8.70275 8.32552
#
# Compressibility (1/GPa) = 0.01338599
#
# Stress axis : x y z
#
# Youngs Moduli (GPa) = 133.67052 90.34194 63.34310
#
# Poissons Ratio (x) = 0.29622 0.18618
# Poissons Ratio (y) = 0.43829 0.26968
# Poissons Ratio (z) = 0.39289 0.38463
#
# Static dielectric constant tensor:
#      x y z
#    x 1.674360 0.000000 0.000000 
#    y 0.000000 1.715500 0.000000 
#    z 0.000000 0.000000 1.717370 
# 
# From -- ./inp_files/53895.got.cif
#   From: 2010.05.17/outbox.cif.g08.bks.cpg/sg65_27_cif.got.tgz:53895.got - 2010.06.03 17:01:31.
