data_PCOD9492384
_publ_section_title
;
Structure prediction by ZEFSAII (Michael W. Deem and Ramdas Pophale) SiO2 
 PCOD9492384
Probable space group: C M M M
;
_chemical_formula_sum "Si O2"
_cell_formula_units_Z 104
_cell_length_a 26.608397
_cell_length_b 22.094424
_cell_length_c 7.928263
_cell_angle_alpha 90.000000
_cell_angle_beta 90.000000
_cell_angle_gamma 90.000000
_cell_volume 4661.003660
_symmetry_space_group_name_H-M "C M M M"
_symmetry_group_IT_number 65
_symmetry_cell_setting 'orthorhombic'
loop_
_space_group_symop_operation_xyz
x,y,z
-x,-y,z
x,-y,-z
-x,y,-z
-x,-y,-z
x,y,-z
-x,y,z
x,-y,z
1/2+x,1/2+y,z
1/2-x,1/2-y,z
1/2+x,1/2-y,-z
1/2-x,1/2+y,-z
1/2-x,1/2-y,-z
1/2+x,1/2+y,-z
1/2-x,1/2+y,z
1/2+x,1/2-y,z
loop_
_atom_site_type_symbol
_atom_site_label
_atom_site_fract_x
_atom_site_fract_y
_atom_site_fract_z
Si Si1 0.709080 0.934650 0.803339
Si Si2 0.557157 0.667243 0.702966
Si Si3 0.633803 0.430798 0.297128
Si Si4 0.500000 0.069339 0.798681
Si Si5 0.857723 0.260025 0.802254
Si Si6 0.781905 0.162749 0.804065
Si Si7 0.608689 0.110273 0.690936
O O1 0.734641 0.873891 0.728982
O O2 0.649304 0.927614 0.795069
O O3 0.724282 0.000000 0.728624
O O4 0.723955 0.935549 0.000000
O O5 0.558871 0.677189 0.500000
O O6 0.500000 0.673784 0.759580
O O7 0.580207 0.600839 0.734110
O O8 0.595561 0.714107 0.785675
O O9 0.642706 0.428053 0.500000
O O10 0.636300 0.500000 0.242924
O O11 0.675003 0.388623 0.209797
O O12 0.551176 0.101571 0.742858
O O13 0.500000 0.000000 0.734771
O O14 0.500000 0.067756 0.000000
O O15 0.808675 0.223469 0.735323
O O16 0.874155 0.320502 0.710075
O O17 0.849602 0.274417 0.000000
O O18 0.771188 0.176786 0.000000
O O19 0.614188 0.089786 0.500000
#
# Coordination Sequence:
#
# PCOD9492384 Si02
#       7
#    16  16  16   8  16  16  16
#     4  10  21  39  63  90 121 157 199 246 298 356
#     4   9  18  32  50  73 106 146 190 244 299 354
#     4   9  17  29  47  74 108 147 191 239 295 357
#     4  11  25  47  73  97 123 157 198 245 298 355
#     4  10  21  38  59  84 116 154 200 248 297 353
#     4   9  19  36  59  85 114 154 200 247 295 345
#     4  12  26  42  63  92 125 159 196 242 297 358
#
# _framework density 22.312791000000001
#
# number of rings (size 3 to 8) (size 9 to 14) (size 15 to 20)
#    0.000    2.077    0.000    3.000    1.077    6.154 
#    0.000    4.615    0.000    0.000    0.000    4.308 
#    0.000    0.000    0.000    0.000    0.000    0.000 
#
# Total GULP energy -290410.750497 kJ/mol
# GULP energy per Si atom -5584.822125 kJ/mol
# Density = 2.226201 g / cm^3
# Si number density = 22.312791 Si / 1000 Ang^3
#
#
#
# Elastic Constant Matrix: (Units=GPa)
#
#
# Indices 1 2 3 4 5 6 
#
# 1 143.0460 43.7106 5.7069 0.0000 0.0000 0.0000
# 2 43.7106 120.6554 4.8739 0.0000 0.0000 0.0000
# 3 5.7069 4.8739 35.9443 0.0000 0.0000 0.0000
# 4 0.0000 0.0000 0.0000 10.8452 0.0000 0.0000
# 5 0.0000 0.0000 0.0000 0.0000 32.0128 0.0000
# 6 0.0000 0.0000 0.0000 0.0000 0.0000 55.6608
#
#
#
# Elastic Compliance Matrix: (Units=1/GPa)
#
#
# Indices 1 2 3 4 5 6 
#
# 1 0.007888 -0.002822 -0.000870 0.000000 0.000000 0.000000
# 2 -0.002822 0.009344 -0.000819 0.000000 0.000000 0.000000
# 3 -0.000870 -0.000819 0.028070 0.000000 0.000000 0.000000
# 4 0.000000 0.000000 0.000000 0.092207 0.000000 0.000000
# 5 0.000000 0.000000 0.000000 0.000000 0.031237 0.000000
# 6 0.000000 0.000000 0.000000 0.000000 0.000000 0.017966
#
#
# Mechanical properties :
#
#
# Convention : Reuss Voigt Hill
#
# Bulk Modulus (GPa) = 27.56372 45.35871 36.46122
# Shear Modulus (GPa) = 24.05845 36.06070 30.05958
#
# Velocity S-wave (km/s) = 3.28721 4.02449 3.67439
# Velocity P-wave (km/s) = 5.17570 6.47828 5.86327
#
# Compressibility (1/GPa) = 0.03627958
#
# Stress axis : x y z
#
# Youngs Moduli (GPa) = 126.77611 107.02438 35.62533
#
# Poissons Ratio (x) = 0.30207 0.03098
# Poissons Ratio (y) = 0.35782 0.02917
# Poissons Ratio (z) = 0.11025 0.08764
#
# Static dielectric constant tensor:
#      x y z
#    x 1.847040 0.000000 0.000000 
#    y 0.000000 1.847250 0.000000 
#    z 0.000000 0.000000 1.805890 
# 
# From -- ./inp_files/16509.got.cif
#   From: 2010.05.17/outbox.cif.g08.bks.cpg/sg65_9_cif.got.tgz:16509.got - 2010.06.03 17:01:31.
