data_PCOD9492939
_publ_section_title
;
Structure prediction by ZEFSAII (Michael W. Deem and Ramdas Pophale) SiO2 
 PCOD9492939
Probable space group: C M M M
;
_chemical_formula_sum "Si O2"
_cell_formula_units_Z 80
_cell_length_a 26.826329
_cell_length_b 9.480806
_cell_length_c 17.198119
_cell_angle_alpha 90.000000
_cell_angle_beta 90.000000
_cell_angle_gamma 90.000000
_cell_volume 4374.087396
_symmetry_space_group_name_H-M "C M M M"
_symmetry_group_IT_number 65
_symmetry_cell_setting 'orthorhombic'
loop_
_space_group_symop_operation_xyz
x,y,z
-x,-y,z
x,-y,-z
-x,y,-z
-x,-y,-z
x,y,-z
-x,y,z
x,-y,z
1/2+x,1/2+y,z
1/2-x,1/2-y,z
1/2+x,1/2-y,-z
1/2-x,1/2+y,-z
1/2-x,1/2-y,-z
1/2+x,1/2+y,-z
1/2-x,1/2+y,z
1/2+x,1/2-y,z
loop_
_atom_site_type_symbol
_atom_site_label
_atom_site_fract_x
_atom_site_fract_y
_atom_site_fract_z
Si Si1 0.846726 0.775071 0.187466
Si Si2 0.056418 0.159669 0.721235
Si Si3 0.301323 0.327731 0.356037
Si Si4 0.104444 0.333976 0.412656
Si Si5 0.712973 0.500000 0.091033
Si Si6 0.332290 0.000000 0.907006
O O1 0.901302 0.827615 0.213042
O O2 0.816245 0.777978 0.268602
O O3 0.813901 0.869658 0.130807
O O4 0.852406 0.631867 0.140820
O O5 0.068988 0.271390 0.653909
O O6 0.000000 0.178365 0.749534
O O7 0.060902 0.000000 0.688839
O O8 0.298864 0.500000 0.358783
O O9 0.250000 0.250000 0.377150
O O10 0.345917 0.261891 0.406640
O O11 0.083804 0.322850 0.500000
O O12 0.115662 0.500000 0.398022
O O13 0.772164 0.500000 0.102766
O O14 0.703845 0.500000 0.000000
O O15 0.342584 0.000000 0.000000
#
# Coordination Sequence:
#
# PCOD9492939 Si02
#       6
#    16  16  16  16   8   8
#     4  11  21  37  57  85 118 154 193 244 286 345
#     4  10  22  41  64  87 111 150 201 248 297 347
#     4  11  22  35  57  85 116 161 205 241 288 346
#     4  10  22  39  58  86 121 152 190 241 295 352
#     4  11  20  36  59  85 120 157 191 229 283 345
#     4  11  24  36  55  89 124 157 191 231 291 355
#
# _framework density 18.289528000000001
#
# number of rings (size 3 to 8) (size 9 to 14) (size 15 to 20)
#    0.000    1.400    2.000    4.800    7.000    4.400 
#    0.000    2.000    0.000    3.600    0.000    0.000 
#    0.000    0.000    0.000    0.000    0.000    0.000 
#
# Total GULP energy -223117.693382 kJ/mol
# GULP energy per Si atom -5577.942335 kJ/mol
# Density = 1.824790 g / cm^3
# Si number density = 18.289528 Si / 1000 Ang^3
#
#
#
# Elastic Constant Matrix: (Units=GPa)
#
#
# Indices 1 2 3 4 5 6 
#
# 1 75.1602 3.0895 16.8669 0.0000 0.0000 0.0000
# 2 3.0895 113.5511 26.3194 0.0000 0.0000 0.0000
# 3 16.8669 26.3194 77.1663 0.0000 0.0000 0.0000
# 4 0.0000 0.0000 0.0000 24.7681 0.0000 0.0000
# 5 0.0000 0.0000 0.0000 0.0000 2.6700 0.0000
# 6 0.0000 0.0000 0.0000 0.0000 0.0000 23.9731
#
#
#
# Elastic Compliance Matrix: (Units=1/GPa)
#
#
# Indices 1 2 3 4 5 6 
#
# 1 0.014005 0.000357 -0.003183 0.000000 0.000000 0.000000
# 2 0.000357 0.009572 -0.003343 0.000000 0.000000 0.000000
# 3 -0.003183 -0.003343 0.014795 0.000000 0.000000 0.000000
# 4 0.000000 0.000000 0.000000 0.040374 0.000000 0.000000
# 5 0.000000 0.000000 0.000000 0.000000 0.374534 0.000000
# 6 0.000000 0.000000 0.000000 0.000000 0.000000 0.041713
#
#
# Mechanical properties :
#
#
# Convention : Reuss Voigt Hill
#
# Bulk Modulus (GPa) = 38.41188 39.82547 39.11868
# Shear Modulus (GPa) = 9.68976 24.92237 17.30607
#
# Velocity S-wave (km/s) = 2.30423 3.69542 3.07942
# Velocity P-wave (km/s) = 5.30349 6.32697 5.83770
#
# Compressibility (1/GPa) = 0.02603361
#
# Stress axis : x y z
#
# Youngs Moduli (GPa) = 71.40559 104.47503 67.59140
#
# Poissons Ratio (x) = -0.03726 0.21513
# Poissons Ratio (y) = -0.02547 0.22593
# Poissons Ratio (z) = 0.22727 0.34922
#
# Static dielectric constant tensor:
#      x y z
#    x 1.619680 0.000000 0.000000 
#    y 0.000000 1.396020 0.000000 
#    z 0.000000 0.000000 1.622580 
# 
# From -- ./inp_files/57331.got.cif
#   From: 2010.05.17/outbox.cif.g08.bks.cpg/sg65_29_cif.got.tgz:57331.got - 2010.06.03 17:01:31.
