data_PCOD9492262
_publ_section_title
;
Structure prediction by ZEFSAII (Michael W. Deem and Ramdas Pophale) SiO2 
 PCOD9492262
Probable space group: C M M M
;
_chemical_formula_sum "Si O2"
_cell_formula_units_Z 72
_cell_length_a 24.119249
_cell_length_b 18.232326
_cell_length_c 7.948785
_cell_angle_alpha 90.000000
_cell_angle_beta 90.000000
_cell_angle_gamma 90.000000
_cell_volume 3495.478288
_symmetry_space_group_name_H-M "C M M M"
_symmetry_group_IT_number 65
_symmetry_cell_setting 'orthorhombic'
loop_
_space_group_symop_operation_xyz
x,y,z
-x,-y,z
x,-y,-z
-x,y,-z
-x,-y,-z
x,y,-z
-x,y,z
x,-y,z
1/2+x,1/2+y,z
1/2-x,1/2-y,z
1/2+x,1/2-y,-z
1/2-x,1/2+y,-z
1/2-x,1/2-y,-z
1/2+x,1/2+y,-z
1/2-x,1/2+y,z
1/2+x,1/2-y,z
loop_
_atom_site_type_symbol
_atom_site_label
_atom_site_fract_x
_atom_site_fract_y
_atom_site_fract_z
Si Si1 0.563752 0.000000 0.797739
Si Si2 0.746380 0.333037 0.196347
Si Si3 0.936161 0.215475 0.706102
Si Si4 0.861878 0.917619 0.699587
Si Si5 0.867381 0.642019 0.699417
O O1 0.594777 0.927921 0.733913
O O2 0.500000 0.000000 0.741364
O O3 0.564931 0.000000 0.000000
O O4 0.750000 0.250000 0.267084
O O5 0.698552 0.381688 0.277397
O O6 0.807429 0.365930 0.217231
O O7 0.732013 0.327282 0.000000
O O8 0.935960 0.215930 0.500000
O O9 0.906790 0.140783 0.765172
O O10 0.899155 0.284852 0.759989
O O11 0.000000 0.221748 0.759494
O O12 0.871852 0.922915 0.500000
O O13 0.864508 0.000000 0.770522
O O14 0.858276 0.649464 0.500000
#
# Coordination Sequence:
#
# PCOD9492262 Si02
#       5
#     8  16  16  16  16
#     4  11  25  43  61  87 127 165 198 245 304 365
#     4  11  23  39  60  85 117 155 198 247 304 364
#     4   9  18  34  58  88 118 150 192 243 296 350
#     4  10  21  37  59  88 121 156 196 243 297 355
#     4  11  22  38  63  89 118 157 203 253 299 353
#
# _framework density 20.598039
#
# number of rings (size 3 to 8) (size 9 to 14) (size 15 to 20)
#    0.000    1.667    2.222    2.333    1.556    3.556 
#    0.000    2.222    0.000    2.000    0.000    1.556 
#    0.000    0.000    0.000    0.000    0.000    0.000 
#
# Total GULP energy -201203.572988 kJ/mol
# GULP energy per Si atom -5588.988139 kJ/mol
# Density = 2.055116 g / cm^3
# Si number density = 20.598039 Si / 1000 Ang^3
#
#
#
# Elastic Constant Matrix: (Units=GPa)
#
#
# Indices 1 2 3 4 5 6 
#
# 1 89.9014 12.8170 -14.5013 0.0000 0.0000 0.0000
# 2 12.8170 117.4649 -1.1004 0.0000 0.0000 0.0000
# 3 -14.5013 -1.1004 21.3868 0.0000 0.0000 0.0000
# 4 0.0000 0.0000 0.0000 5.0071 0.0000 0.0000
# 5 0.0000 0.0000 0.0000 0.0000 1.3398 0.0000
# 6 0.0000 0.0000 0.0000 0.0000 0.0000 1.7642
#
#
#
# Elastic Compliance Matrix: (Units=1/GPa)
#
#
# Indices 1 2 3 4 5 6 
#
# 1 0.012686 -0.001304 0.008535 0.000000 0.000000 0.000000
# 2 -0.001304 0.008651 -0.000439 0.000000 0.000000 0.000000
# 3 0.008535 -0.000439 0.052522 0.000000 0.000000 0.000000
# 4 0.000000 0.000000 0.000000 0.199715 0.000000 0.000000
# 5 0.000000 0.000000 0.000000 0.000000 0.746386 0.000000
# 6 0.000000 0.000000 0.000000 0.000000 0.000000 0.566821
#
#
# Mechanical properties :
#
#
# Convention : Reuss Voigt Hill
#
# Bulk Modulus (GPa) = 11.43623 24.79820 18.11722
# Shear Modulus (GPa) = 3.12042 17.05808 10.08925
#
# Velocity S-wave (km/s) = 1.23215 2.88087 2.21558
# Velocity P-wave (km/s) = 2.75471 4.80948 3.91915
#
# Compressibility (1/GPa) = 0.08744137
#
# Stress axis : x y z
#
# Youngs Moduli (GPa) = 78.82784 115.58850 19.03964
#
# Poissons Ratio (x) = 0.15076 -0.16249
# Poissons Ratio (y) = 0.10281 0.00836
# Poissons Ratio (z) = -0.67276 0.05077
#
# Static dielectric constant tensor:
#      x y z
#    x 1.690200 0.000000 0.000000 
#    y 0.000000 1.727270 0.000000 
#    z 0.000000 0.000000 1.750770 
# 
# From -- ./inp_files/7289.got.cif
#   From: 2010.05.17/outbox.cif.g08.bks.cpg/sg65_4_cif.got.tgz:7289.got - 2010.06.03 17:01:31.
