data_PCOD9492536
_publ_section_title
;
Structure prediction by ZEFSAII (Michael W. Deem and Ramdas Pophale) SiO2 
 PCOD9492536
Probable space group: C M M M
;
_chemical_formula_sum "Si O2"
_cell_formula_units_Z 72
_cell_length_a 29.999173
_cell_length_b 8.313661
_cell_length_c 13.020521
_cell_angle_alpha 90.000000
_cell_angle_beta 90.000000
_cell_angle_gamma 90.000000
_cell_volume 3247.356408
_symmetry_space_group_name_H-M "C M M M"
_symmetry_group_IT_number 65
_symmetry_cell_setting 'orthorhombic'
loop_
_space_group_symop_operation_xyz
x,y,z
-x,-y,z
x,-y,-z
-x,y,-z
-x,-y,-z
x,y,-z
-x,y,z
x,-y,z
1/2+x,1/2+y,z
1/2-x,1/2-y,z
1/2+x,1/2-y,-z
1/2-x,1/2+y,-z
1/2-x,1/2-y,-z
1/2+x,1/2+y,-z
1/2-x,1/2+y,z
1/2+x,1/2-y,z
loop_
_atom_site_type_symbol
_atom_site_label
_atom_site_fract_x
_atom_site_fract_y
_atom_site_fract_z
Si Si1 0.700267 0.808919 0.500000
Si Si2 0.946593 0.681560 0.111917
Si Si3 0.049448 0.184538 0.326569
Si Si4 0.143832 0.192459 0.311578
Si Si5 0.699412 0.807184 0.118312
O O1 0.750000 0.750000 0.500000
O O2 0.678640 0.739733 0.397468
O O3 0.696749 0.000000 0.500000
O O4 0.930288 0.500000 0.137952
O O5 0.942191 0.805870 0.203533
O O6 0.000000 0.667643 0.102421
O O7 0.928553 0.726610 0.000000
O O8 0.096489 0.259715 0.356901
O O9 0.000000 0.256295 0.347319
O O10 0.047252 0.000000 0.361683
O O11 0.162847 0.250589 0.201570
O O12 0.139115 0.000000 0.305844
O O13 0.750000 0.750000 0.144780
O O14 0.699407 0.000000 0.119365
O O15 0.690508 0.753608 0.000000
#
# Coordination Sequence:
#
# PCOD9492536 Si02
#       5
#     8  16  16  16  16
#     4  12  26  46  71  96 123 153 192 243 301 364
#     4   8  14  25  42  66  99 142 191 241 291 339
#     4   9  19  35  54  78 111 153 199 245 291 342
#     4  11  23  40  63  91 124 161 204 251 301 358
#     4  10  21  38  61  90 125 163 203 249 305 369
#
# _framework density 22.171879000000001
#
# number of rings (size 3 to 8) (size 9 to 14) (size 15 to 20)
#    0.000    2.222    0.000    3.667    0.000    4.444 
#    0.000    7.222    0.000    3.333    0.000    0.000 
#    0.000    0.000    0.000    0.000    0.000    0.000 
#
# Total GULP energy -200600.599296 kJ/mol
# GULP energy per Si atom -5572.238869 kJ/mol
# Density = 2.212142 g / cm^3
# Si number density = 22.171879 Si / 1000 Ang^3
#
#
#
# Elastic Constant Matrix: (Units=GPa)
#
#
# Indices 1 2 3 4 5 6 
#
# 1 189.2165 14.4234 42.5448 0.0000 0.0000 0.0000
# 2 14.4234 45.6988 11.4070 0.0000 0.0000 0.0000
# 3 42.5448 11.4070 67.1089 0.0000 0.0000 0.0000
# 4 0.0000 0.0000 0.0000 23.4141 0.0000 0.0000
# 5 0.0000 0.0000 0.0000 0.0000 -31.0168 0.0000
# 6 0.0000 0.0000 0.0000 0.0000 0.0000 20.8394
#
#
#
# Elastic Compliance Matrix: (Units=1/GPa)
#
#
# Indices 1 2 3 4 5 6 
#
# 1 0.006209 -0.001020 -0.003763 0.000000 0.000000 0.000000
# 2 -0.001020 0.023020 -0.003266 0.000000 0.000000 0.000000
# 3 -0.003763 -0.003266 0.017842 0.000000 0.000000 0.000000
# 4 0.000000 0.000000 0.000000 0.042709 0.000000 0.000000
# 5 0.000000 0.000000 0.000000 0.000000 -0.032241 0.000000
# 6 0.000000 0.000000 0.000000 0.000000 0.000000 0.047986
#
#
# Mechanical properties :
#
#
# Convention : Reuss Voigt Hill
#
# Bulk Modulus (GPa) = 32.28711 48.75273 40.51992
# Shear Modulus (GPa) = 37.89404 18.22396 28.05900
#
# Velocity S-wave (km/s) = 4.13862 2.87006 3.56128
# Velocity P-wave (km/s) = 6.11811 5.74624 5.93509
#
# Compressibility (1/GPa) = 0.03097211
#
# Stress axis : x y z
#
# Youngs Moduli (GPa) = 161.06260 43.44111 56.04843
#
# Poissons Ratio (x) = 0.04433 0.21089
# Poissons Ratio (y) = 0.16435 0.18305
# Poissons Ratio (z) = 0.60603 0.14188
#
# Static dielectric constant tensor:
#      x y z
#    x 1.903220 0.000000 0.000000 
#    y 0.000000 1.809680 0.000000 
#    z 0.000000 0.000000 1.860120 
# 
# From -- ./inp_files/47462.got.cif
#   From: 2010.05.17/outbox.cif.g08.bks.cpg/sg65_24_cif.got.tgz:47462.got - 2010.06.03 17:01:31.
