data_PCOD9492947
_publ_section_title
;
Structure prediction by ZEFSAII (Michael W. Deem and Ramdas Pophale) SiO2 
 PCOD9492947
Probable space group: C M M M
;
_chemical_formula_sum "Si O2"
_cell_formula_units_Z 88
_cell_length_a 21.297030
_cell_length_b 10.264464
_cell_length_c 19.628098
_cell_angle_alpha 90.000000
_cell_angle_beta 90.000000
_cell_angle_gamma 90.000000
_cell_volume 4290.753212
_symmetry_space_group_name_H-M "C M M M"
_symmetry_group_IT_number 65
_symmetry_cell_setting 'orthorhombic'
loop_
_space_group_symop_operation_xyz
x,y,z
-x,-y,z
x,-y,-z
-x,y,-z
-x,-y,-z
x,y,-z
-x,y,z
x,-y,z
1/2+x,1/2+y,z
1/2-x,1/2-y,z
1/2+x,1/2-y,-z
1/2-x,1/2+y,-z
1/2-x,1/2-y,-z
1/2+x,1/2+y,-z
1/2-x,1/2+y,z
1/2+x,1/2-y,z
loop_
_atom_site_type_symbol
_atom_site_label
_atom_site_fract_x
_atom_site_fract_y
_atom_site_fract_z
Si Si1 0.693081 0.346813 0.707105
Si Si2 0.000000 0.651454 0.417174
Si Si3 0.795066 0.361404 0.081934
Si Si4 0.110086 0.851052 0.419948
Si Si5 0.432374 0.350851 0.221324
Si Si6 0.069584 0.250835 0.923390
O O1 0.705750 0.500000 0.723467
O O2 0.750000 0.250000 0.718823
O O3 0.670108 0.341950 0.628596
O O4 0.631928 0.297822 0.748872
O O5 0.060272 0.740144 0.398942
O O6 0.000000 0.500000 0.393300
O O7 0.000000 0.646223 0.500000
O O8 0.776733 0.500000 0.111363
O O9 0.750000 0.250000 0.109761
O O10 0.869331 0.338402 0.088816
O O11 0.784686 0.364997 0.000000
O O12 0.124072 0.834710 0.500000
O O13 0.084655 0.000000 0.411755
O O14 0.500000 0.289372 0.240098
O O15 0.433943 0.500000 0.244958
O O16 0.429343 0.347422 0.139395
O O17 0.000000 0.314554 0.921373
O O18 0.076277 0.195091 0.000000
#
# Coordination Sequence:
#
# PCOD9492947 Si02
#       6
#    16   8  16  16  16  16
#     4  10  22  39  60  83 113 153 193 237 288 339
#     4   9  17  29  49  83 123 157 188 231 286 332
#     4   9  18  32  50  74 105 140 175 213 262 323
#     4   9  18  33  55  84 116 153 197 237 277 333
#     4   9  19  36  57  80 108 147 191 230 277 340
#     4   9  18  33  54  81 110 139 177 229 284 335
#
# _framework density 20.509218000000001
#
# number of rings (size 3 to 8) (size 9 to 14) (size 15 to 20)
#    0.000    2.818    0.000    0.273    1.273    4.364 
#    0.000    8.182    0.000    1.091    0.000    0.000 
#    0.000    0.000    0.000    0.000    0.000    0.000 
#
# Total GULP energy -245049.456763 kJ/mol
# GULP energy per Si atom -5569.305836 kJ/mol
# Density = 2.046254 g / cm^3
# Si number density = 20.509218 Si / 1000 Ang^3
#
#
#
# Elastic Constant Matrix: (Units=GPa)
#
#
# Indices 1 2 3 4 5 6 
#
# 1 166.9025 86.1727 41.3153 0.0000 0.0000 0.0000
# 2 86.1727 111.3886 17.2291 0.0000 0.0000 0.0000
# 3 41.3153 17.2291 87.9939 0.0000 0.0000 0.0000
# 4 0.0000 0.0000 0.0000 7.6473 0.0000 0.0000
# 5 0.0000 0.0000 0.0000 0.0000 15.4356 0.0000
# 6 0.0000 0.0000 0.0000 0.0000 0.0000 24.0604
#
#
#
# Elastic Compliance Matrix: (Units=1/GPa)
#
#
# Indices 1 2 3 4 5 6 
#
# 1 0.010982 -0.007939 -0.003602 0.000000 0.000000 0.000000
# 2 -0.007939 0.014997 0.000791 0.000000 0.000000 0.000000
# 3 -0.003602 0.000791 0.012901 0.000000 0.000000 0.000000
# 4 0.000000 0.000000 0.000000 0.130765 0.000000 0.000000
# 5 0.000000 0.000000 0.000000 0.000000 0.064785 0.000000
# 6 0.000000 0.000000 0.000000 0.000000 0.000000 0.041562
#
#
# Mechanical properties :
#
#
# Convention : Reuss Voigt Hill
#
# Bulk Modulus (GPa) = 57.53632 72.85769 65.19701
# Shear Modulus (GPa) = 16.48617 24.19986 20.34301
#
# Velocity S-wave (km/s) = 2.83829 3.43877 3.15286
# Velocity P-wave (km/s) = 6.23345 7.16717 6.71656
#
# Compressibility (1/GPa) = 0.01738033
#
# Stress axis : x y z
#
# Youngs Moduli (GPa) = 91.05828 66.68075 77.51515
#
# Poissons Ratio (x) = 0.52936 0.27920
# Poissons Ratio (y) = 0.72289 -0.06132
# Poissons Ratio (z) = 0.32798 -0.05275
#
# Static dielectric constant tensor:
#      x y z
#    x 1.745610 0.000000 0.000000 
#    y 0.000000 1.730960 0.000000 
#    z 0.000000 0.000000 1.758440 
# 
# From -- ./inp_files/63621.got.cif
#   From: 2010.05.17/outbox.cif.g08.bks.cpg/sg65_32_cif.got.tgz:63621.got - 2010.06.03 17:01:31.
