data_PCOD9492206
_publ_section_title
;
Structure prediction by ZEFSAII (Michael W. Deem and Ramdas Pophale) SiO2 
 PCOD9492206
Probable space group: C M M M
;
_chemical_formula_sum "Si O2"
_cell_formula_units_Z 88
_cell_length_a 16.530338
_cell_length_b 10.827477
_cell_length_c 25.617677
_cell_angle_alpha 90.000000
_cell_angle_beta 90.000000
_cell_angle_gamma 90.000000
_cell_volume 4585.099337
_symmetry_space_group_name_H-M "C M M M"
_symmetry_group_IT_number 65
_symmetry_cell_setting 'orthorhombic'
loop_
_space_group_symop_operation_xyz
x,y,z
-x,-y,z
x,-y,-z
-x,y,-z
-x,-y,-z
x,y,-z
-x,y,z
x,-y,z
1/2+x,1/2+y,z
1/2-x,1/2-y,z
1/2+x,1/2-y,-z
1/2-x,1/2+y,-z
1/2-x,1/2-y,-z
1/2+x,1/2+y,-z
1/2-x,1/2+y,z
1/2+x,1/2-y,z
loop_
_atom_site_type_symbol
_atom_site_label
_atom_site_fract_x
_atom_site_fract_y
_atom_site_fract_z
Si Si1 0.750000 0.250000 0.915290
Si Si2 0.408967 0.142559 0.860583
Si Si3 0.845679 0.758645 0.766322
Si Si4 0.183400 0.642341 0.558608
Si Si5 0.827579 0.000000 0.055723
Si Si6 0.595897 0.500000 0.827841
Si Si7 0.903953 0.640394 0.333756
O O1 0.667436 0.214003 0.884686
O O2 0.774117 0.124076 0.943805
O O3 0.500000 0.189899 0.872951
O O4 0.393485 0.154064 0.798819
O O5 0.405286 0.000000 0.876758
O O6 0.750000 0.750000 0.773595
O O7 0.874751 0.883042 0.794381
O O8 0.865675 0.738282 0.705980
O O9 0.147812 0.651809 0.500000
O O10 0.215396 0.500000 0.562960
O O11 0.250000 0.750000 0.562833
O O12 0.122670 0.659551 0.606568
O O13 0.871632 0.000000 0.112393
O O14 0.874496 0.000000 0.000000
O O15 0.500000 0.500000 0.830360
O O16 0.877538 0.500000 0.319492
O O17 0.000000 0.647136 0.329362
#
# Coordination Sequence:
#
# PCOD9492206 Si02
#       7
#     8  16  16  16   8   8  16
#     4  12  23  44  70  98 130 168 209 260 320 382
#     4  11  22  38  65  95 128 169 211 256 315 389
#     4  12  24  38  62  89 126 167 212 258 318 386
#     4   9  18  35  59  86 118 160 209 259 312 371
#     4  12  26  45  71  98 130 170 214 264 320 382
#     4  12  26  43  64  95 130 166 208 261 323 389
#     4  10  21  37  58  86 122 160 205 261 315 370
#
# _framework density 19.192603999999999
#
# number of rings (size 3 to 8) (size 9 to 14) (size 15 to 20)
#    0.000    1.091    3.636    3.000    2.545    2.000 
#    1.636    1.818    0.000    2.182    0.000    2.545 
#    0.000    0.000    0.000    0.000    0.000    0.000 
#
# Total GULP energy -245287.772279 kJ/mol
# GULP energy per Si atom -5574.722097 kJ/mol
# Density = 1.914892 g / cm^3
# Si number density = 19.192604 Si / 1000 Ang^3
#
#
#
# Elastic Constant Matrix: (Units=GPa)
#
#
# Indices 1 2 3 4 5 6 
#
# 1 124.0326 47.4112 58.0185 0.0000 0.0000 0.0000
# 2 47.4112 109.7195 58.8267 0.0000 0.0000 0.0000
# 3 58.0185 58.8267 139.4064 0.0000 0.0000 0.0000
# 4 0.0000 0.0000 0.0000 95.7588 0.0000 0.0000
# 5 0.0000 0.0000 0.0000 0.0000 9.6797 0.0000
# 6 0.0000 0.0000 0.0000 0.0000 0.0000 23.4820
#
#
#
# Elastic Compliance Matrix: (Units=1/GPa)
#
#
# Indices 1 2 3 4 5 6 
#
# 1 0.010673 -0.002883 -0.003226 0.000000 0.000000 0.000000
# 2 -0.002883 0.012558 -0.004099 0.000000 0.000000 0.000000
# 3 -0.003226 -0.004099 0.010246 0.000000 0.000000 0.000000
# 4 0.000000 0.000000 0.000000 0.010443 0.000000 0.000000
# 5 0.000000 0.000000 0.000000 0.000000 0.103309 0.000000
# 6 0.000000 0.000000 0.000000 0.000000 0.000000 0.042586
#
#
# Mechanical properties :
#
#
# Convention : Reuss Voigt Hill
#
# Bulk Modulus (GPa) = 76.56251 77.96349 77.26300
# Shear Modulus (GPa) = 23.30107 39.71091 31.50599
#
# Velocity S-wave (km/s) = 3.48812 4.55364 4.05602
# Velocity P-wave (km/s) = 7.49673 8.26785 7.89171
#
# Compressibility (1/GPa) = 0.01306122
#
# Stress axis : x y z
#
# Youngs Moduli (GPa) = 93.69381 79.63259 97.60322
#
# Poissons Ratio (x) = 0.22955 0.31482
# Poissons Ratio (y) = 0.27008 0.40012
# Poissons Ratio (z) = 0.30221 0.32645
#
# Static dielectric constant tensor:
#      x y z
#    x 1.647550 0.000000 0.000000 
#    y 0.000000 1.707550 0.000000 
#    z 0.000000 0.000000 1.703660 
# 
# From -- ./inp_files/74792.got.cif
#   From: 2010.05.17/outbox.cif.g08.bks.cpg/sg65_38_cif.got.tgz:74792.got - 2010.06.03 17:01:31.
