data_PCOD9492087
_publ_section_title
;
Structure prediction by ZEFSAII (Michael W. Deem and Ramdas Pophale) SiO2 
 PCOD9492087
Probable space group: C M M M
;
_chemical_formula_sum "Si O2"
_cell_formula_units_Z 88
_cell_length_a 8.664324
_cell_length_b 26.238834
_cell_length_c 21.390121
_cell_angle_alpha 90.000000
_cell_angle_beta 90.000000
_cell_angle_gamma 90.000000
_cell_volume 4862.867737
_symmetry_space_group_name_H-M "C M M M"
_symmetry_group_IT_number 65
_symmetry_cell_setting 'orthorhombic'
loop_
_space_group_symop_operation_xyz
x,y,z
-x,-y,z
x,-y,-z
-x,y,-z
-x,-y,-z
x,y,-z
-x,y,z
x,-y,z
1/2+x,1/2+y,z
1/2-x,1/2-y,z
1/2+x,1/2-y,-z
1/2-x,1/2+y,-z
1/2-x,1/2-y,-z
1/2+x,1/2+y,-z
1/2-x,1/2+y,z
1/2+x,1/2-y,z
loop_
_atom_site_type_symbol
_atom_site_label
_atom_site_fract_x
_atom_site_fract_y
_atom_site_fract_z
Si Si1 0.813159 0.000000 0.148848
Si Si2 0.184529 0.694658 0.149943
Si Si3 0.186377 0.899173 0.072145
Si Si4 0.314890 0.194394 0.704417
Si Si5 0.185810 0.096399 0.635641
Si Si6 0.187664 0.058955 0.500000
Si Si7 0.315632 0.000000 0.711415
O O1 0.768272 0.050282 0.110184
O O2 0.738769 0.000000 0.216958
O O3 0.000000 0.000000 0.155384
O O4 0.250000 0.750000 0.132401
O O5 0.249161 0.650372 0.106506
O O6 0.228332 0.685110 0.222655
O O7 0.000000 0.695807 0.146423
O O8 0.000000 0.896925 0.072784
O O9 0.236460 0.901905 0.000000
O O10 0.500000 0.194744 0.700292
O O11 0.250000 0.250000 0.687269
O O12 0.247028 0.149429 0.662596
O O13 0.235007 0.086251 0.563987
O O14 0.000000 0.095572 0.638434
O O15 0.249841 0.049917 0.677016
O O16 0.000000 0.057905 0.500000
O O17 0.239663 0.000000 0.500000
O O18 0.500000 0.000000 0.708033
#
# Coordination Sequence:
#
# PCOD9492087 Si02
#       7
#     8  16  16  16  16   8   8
#     4  10  21  38  59  81 108 147 189 227 276 334
#     4  10  21  37  58  82 110 144 183 230 280 330
#     4  10  21  37  57  81 110 144 184 229 276 332
#     4  10  21  38  59  86 117 149 189 235 282 333
#     4  11  21  37  61  86 114 151 191 232 282 334
#     4   9  18  36  59  84 115 150 191 233 274 330
#     4  12  24  36  54  85 119 147 184 235 284 335
#
# _framework density 18.096319000000001
#
# number of rings (size 3 to 8) (size 9 to 14) (size 15 to 20)
#    0.000    1.727    0.909    3.818    0.000    7.636 
#    0.000    2.727    0.000    1.636    0.000    0.000 
#    0.000    0.000    0.000    0.000    0.000    0.000 
#
# Total GULP energy -245876.600213 kJ/mol
# GULP energy per Si atom -5588.104550 kJ/mol
# Density = 1.805513 g / cm^3
# Si number density = 18.096319 Si / 1000 Ang^3
#
#
#
# Elastic Constant Matrix: (Units=GPa)
#
#
# Indices 1 2 3 4 5 6 
#
# 1 49.3208 52.2026 52.5053 0.0000 0.0000 0.0000
# 2 52.2026 183.7853 131.6866 0.0000 0.0000 0.0000
# 3 52.5053 131.6866 174.3129 0.0000 0.0000 0.0000
# 4 0.0000 0.0000 0.0000 -25.0599 0.0000 0.0000
# 5 0.0000 0.0000 0.0000 0.0000 17.1348 0.0000
# 6 0.0000 0.0000 0.0000 0.0000 0.0000 35.2811
#
#
#
# Elastic Compliance Matrix: (Units=1/GPa)
#
#
# Indices 1 2 3 4 5 6 
#
# 1 0.031604 -0.004700 -0.005969 0.000000 0.000000 0.000000
# 2 -0.004700 0.012561 -0.008074 0.000000 0.000000 0.000000
# 3 -0.005969 -0.008074 0.013634 0.000000 0.000000 0.000000
# 4 0.000000 0.000000 0.000000 -0.039904 0.000000 0.000000
# 5 0.000000 0.000000 0.000000 0.000000 0.058361 0.000000
# 6 0.000000 0.000000 0.000000 0.000000 0.000000 0.028344
#
#
# Mechanical properties :
#
#
# Convention : Reuss Voigt Hill
#
# Bulk Modulus (GPa) = 49.22662 97.80090 73.51376
# Shear Modulus (GPa) = 33.58924 16.87281 25.23103
#
# Velocity S-wave (km/s) = 4.31296 3.05682 3.73803
# Velocity P-wave (km/s) = 7.21553 8.16216 7.70340
#
# Compressibility (1/GPa) = 0.02031421
#
# Stress axis : x y z
#
# Youngs Moduli (GPa) = 31.64112 79.61025 73.34513
#
# Poissons Ratio (x) = 0.37417 0.43779
# Poissons Ratio (y) = 0.14871 0.59217
# Poissons Ratio (z) = 0.18886 0.64276
#
# Static dielectric constant tensor:
#      x y z
#    x 1.611660 0.000000 0.000000 
#    y 0.000000 1.580820 0.000000 
#    z 0.000000 0.000000 1.606250 
# 
# From -- ./inp_files/59875.got.cif
#   From: 2010.05.17/outbox.cif.g08.bks.cpg/sg65_30_cif.got.tgz:59875.got - 2010.06.03 17:01:31.
