data_PCOD9492237
_publ_section_title
;
Structure prediction by ZEFSAII (Michael W. Deem and Ramdas Pophale) SiO2 
 PCOD9492237
Probable space group: C M M M
;
_chemical_formula_sum "Si O2"
_cell_formula_units_Z 72
_cell_length_a 9.803186
_cell_length_b 17.766619
_cell_length_c 22.368114
_cell_angle_alpha 90.000000
_cell_angle_beta 90.000000
_cell_angle_gamma 90.000000
_cell_volume 3895.842575
_symmetry_space_group_name_H-M "C M M M"
_symmetry_group_IT_number 65
_symmetry_cell_setting 'orthorhombic'
loop_
_space_group_symop_operation_xyz
x,y,z
-x,-y,z
x,-y,-z
-x,y,-z
-x,-y,-z
x,y,-z
-x,y,z
x,-y,z
1/2+x,1/2+y,z
1/2-x,1/2-y,z
1/2+x,1/2-y,-z
1/2-x,1/2+y,-z
1/2-x,1/2-y,-z
1/2+x,1/2+y,-z
1/2-x,1/2+y,z
1/2+x,1/2-y,z
loop_
_atom_site_type_symbol
_atom_site_label
_atom_site_fract_x
_atom_site_fract_y
_atom_site_fract_z
Si Si1 0.000000 0.135193 0.929203
Si Si2 0.000000 0.686449 0.927446
Si Si3 0.834335 0.915952 0.500000
Si Si4 0.336245 0.327811 0.247513
Si Si5 0.161105 0.824601 0.382929
Si Si6 0.269114 0.086468 0.134058
O O1 0.000000 0.224509 0.912878
O O2 0.868695 0.094607 0.903410
O O3 0.000000 0.132043 0.000000
O O4 0.127295 0.643948 0.897678
O O5 0.000000 0.678861 0.000000
O O6 0.795601 0.875337 0.561375
O O7 0.000000 0.918144 0.500000
O O8 0.781119 0.000000 0.500000
O O9 0.500000 0.316637 0.236332
O O10 0.250000 0.250000 0.242795
O O11 0.322666 0.356473 0.315853
O O12 0.271231 0.384470 0.199900
O O13 0.250000 0.750000 0.385269
O O14 0.000000 0.807439 0.389822
O O15 0.317468 0.000000 0.134301
#
# Coordination Sequence:
#
# PCOD9492237 Si02
#       6
#     8   8   8  16  16  16
#     4  11  23  41  65  87 111 148 193 236 279 339
#     4  11  25  45  65  85 113 154 195 232 283 351
#     4   9  17  30  51  81 114 151 190 234 286 335
#     4  10  21  37  59  85 115 153 195 238 286 344
#     4   9  18  33  55  83 111 147 192 237 278 328
#     4  12  25  39  59  89 120 149 186 237 295 346
#
# _framework density 18.481238999999999
#
# number of rings (size 3 to 8) (size 9 to 14) (size 15 to 20)
#    0.000    1.667    1.111    3.667    1.556    5.333 
#    0.000    2.222    0.000    1.333    0.000    0.000 
#    0.000    0.000    0.000    0.000    0.000    0.000 
#
# Total GULP energy -200912.060374 kJ/mol
# GULP energy per Si atom -5580.890566 kJ/mol
# Density = 1.843918 g / cm^3
# Si number density = 18.481239 Si / 1000 Ang^3
#
#
#
# Elastic Constant Matrix: (Units=GPa)
#
#
# Indices 1 2 3 4 5 6 
#
# 1 54.9013 4.5742 24.9200 0.0000 0.0000 0.0000
# 2 4.5742 80.1690 60.0751 0.0000 0.0000 0.0000
# 3 24.9200 60.0751 148.0091 0.0000 0.0000 0.0000
# 4 0.0000 0.0000 0.0000 -9.9212 0.0000 0.0000
# 5 0.0000 0.0000 0.0000 0.0000 31.7484 0.0000
# 6 0.0000 0.0000 0.0000 0.0000 0.0000 20.2240
#
#
#
# Elastic Compliance Matrix: (Units=1/GPa)
#
#
# Indices 1 2 3 4 5 6 
#
# 1 0.019938 0.001980 -0.004161 0.000000 0.000000 0.000000
# 2 0.001980 0.018123 -0.007689 0.000000 0.000000 0.000000
# 3 -0.004161 -0.007689 0.010578 0.000000 0.000000 0.000000
# 4 0.000000 0.000000 0.000000 -0.100794 0.000000 0.000000
# 5 0.000000 0.000000 0.000000 0.000000 0.031498 0.000000
# 6 0.000000 0.000000 0.000000 0.000000 0.000000 0.049446
#
#
# Mechanical properties :
#
#
# Convention : Reuss Voigt Hill
#
# Bulk Modulus (GPa) = 34.60299 51.35755 42.98027
# Shear Modulus (GPa) = 85.96914 21.31090 53.64002
#
# Velocity S-wave (km/s) = 6.82773 3.39943 5.39324
# Velocity P-wave (km/s) = 8.99562 6.57705 7.87968
#
# Compressibility (1/GPa) = 0.02889924
#
# Stress axis : x y z
#
# Youngs Moduli (GPa) = 50.15528 55.17983 94.53771
#
# Poissons Ratio (x) = -0.10927 0.39334
# Poissons Ratio (y) = -0.09932 0.72691
# Poissons Ratio (z) = 0.20868 0.42428
#
# Static dielectric constant tensor:
#      x y z
#    x 1.626990 0.000000 0.000000 
#    y 0.000000 1.606880 0.000000 
#    z 0.000000 0.000000 1.656070 
# 
# From -- ./inp_files/59347.got.cif
#   From: 2010.05.17/outbox.cif.g08.bks.cpg/sg65_30_cif.got.tgz:59347.got - 2010.06.03 17:01:31.
