data_PCOD9492584
_publ_section_title
;
Structure prediction by ZEFSAII (Michael W. Deem and Ramdas Pophale) SiO2 
 PCOD9492584
Probable space group: C M M M
;
_chemical_formula_sum "Si O2"
_cell_formula_units_Z 38
_cell_length_a 5.199491
_cell_length_b 14.388130
_cell_length_c 27.300552
_cell_angle_alpha 90.000000
_cell_angle_beta 90.000000
_cell_angle_gamma 90.000000
_cell_volume 2042.380297
_symmetry_space_group_name_H-M "C M M M"
_symmetry_group_IT_number 65
_symmetry_cell_setting 'orthorhombic'
loop_
_space_group_symop_operation_xyz
x,y,z
-x,-y,z
x,-y,-z
-x,y,-z
-x,-y,-z
x,y,-z
-x,y,z
x,-y,z
1/2+x,1/2+y,z
1/2-x,1/2-y,z
1/2+x,1/2-y,-z
1/2-x,1/2+y,-z
1/2-x,1/2-y,-z
1/2+x,1/2+y,-z
1/2-x,1/2+y,z
1/2+x,1/2-y,z
loop_
_atom_site_type_symbol
_atom_site_label
_atom_site_fract_x
_atom_site_fract_y
_atom_site_fract_z
Si Si1 0.000000 0.310258 0.058765
Si Si2 0.000000 0.189078 0.752083
Si Si3 0.500000 0.000000 0.500000
Si Si4 0.500000 0.500000 0.573259
Si Si5 0.500000 0.500000 0.186920
Si Si6 0.500000 0.000000 0.118940
Si Si7 0.500000 0.311144 0.634911
O O1 0.750000 0.250000 0.071689
O O2 0.000000 0.408146 0.085732
O O3 0.000000 0.324763 0.000000
O O4 0.750000 0.250000 0.764364
O O5 0.000000 0.172373 0.693453
O O6 0.000000 0.092047 0.779961
O O7 0.734488 0.000000 0.541968
O O8 0.500000 0.407315 0.606152
O O9 0.750016 0.500000 0.152929
O O10 0.750000 0.250000 0.622572
#
# Coordination Sequence:
#
# PCOD9492584 Si02
#       7
#     8   8   2   4   4   4   8
#     4  10  22  41  63  85 112 149 193 243 291 332
#     4  10  22  40  60  86 118 150 194 242 281 336
#     4  10  24  38  58  86 120 162 184 226 304 346
#     4  11  21  42  59  82 124 151 190 243 281 346
#     4  12  25  38  58  88 120 162 186 223 298 346
#     4  12  25  38  59  88 118 151 196 231 280 356
#     4  10  21  38  64  89 109 150 201 241 285 331
#
# _framework density 18.605741999999999
#
# number of rings (size 3 to 8) (size 9 to 14) (size 15 to 20)
#    0.000    1.474    0.000    4.737    0.000    5.053 
#    0.000   23.158    0.000    0.000    0.000    0.000 
#    0.000    0.000    0.000    0.000    0.000    0.000 
#
# Total GULP energy -105954.801109 kJ/mol
# GULP energy per Si atom -5576.568479 kJ/mol
# Density = 1.856339 g / cm^3
# Si number density = 18.605742 Si / 1000 Ang^3
#
#
#
# Elastic Constant Matrix: (Units=GPa)
#
#
# Indices 1 2 3 4 5 6 
#
# 1 231.3248 116.7049 76.8761 0.0000 0.0000 0.0000
# 2 116.7049 235.3742 115.3537 0.0000 0.0000 0.0000
# 3 76.8761 115.3537 72.2895 0.0000 0.0000 0.0000
# 4 0.0000 0.0000 0.0000 -29.4058 0.0000 0.0000
# 5 0.0000 0.0000 0.0000 0.0000 -6.1212 0.0000
# 6 0.0000 0.0000 0.0000 0.0000 0.0000 18.5271
#
#
#
# Elastic Compliance Matrix: (Units=1/GPa)
#
#
# Indices 1 2 3 4 5 6 
#
# 1 0.006717 0.000781 -0.008390 0.000000 0.000000 0.000000
# 2 0.000781 0.019583 -0.032080 0.000000 0.000000 0.000000
# 3 -0.008390 -0.032080 0.073947 0.000000 0.000000 0.000000
# 4 0.000000 0.000000 0.000000 -0.034007 0.000000 0.000000
# 5 0.000000 0.000000 0.000000 0.000000 -0.163368 0.000000
# 6 0.000000 0.000000 0.000000 0.000000 0.000000 0.053975
#
#
# Mechanical properties :
#
#
# Convention : Reuss Voigt Hill
#
# Bulk Modulus (GPa) = 47.91775 128.53977 88.22876
# Shear Modulus (GPa) = 115.79076 11.93695 63.86385
#
# Velocity S-wave (km/s) = 7.89740 2.53568 5.86509
# Velocity P-wave (km/s) = 10.43881 8.82094 9.66379
#
# Compressibility (1/GPa) = 0.02086909
#
# Stress axis : x y z
#
# Youngs Moduli (GPa) = 148.87702 51.06407 13.52327
#
# Poissons Ratio (x) = -0.03990 0.11346
# Poissons Ratio (y) = -0.11632 0.43383
# Poissons Ratio (z) = 1.24907 1.63815
#
# Static dielectric constant tensor:
#      x y z
#    x 1.684550 0.000000 0.000000 
#    y 0.000000 1.579670 0.000000 
#    z 0.000000 0.000000 1.630270 
# 
# From -- ./inp_files/72331.got.cif
#   From: 2010.05.17/outbox.cif.g08.bks.cpg/sg65_37_cif.got.tgz:72331.got - 2010.06.03 17:01:31.
