data_PCOD9492662
_publ_section_title
;
Structure prediction by ZEFSAII (Michael W. Deem and Ramdas Pophale) SiO2 
 PCOD9492662
Probable space group: C M M M
;
_chemical_formula_sum "Si O2"
_cell_formula_units_Z 56
_cell_length_a 32.823482
_cell_length_b 11.735657
_cell_length_c 7.881386
_cell_angle_alpha 90.000000
_cell_angle_beta 90.000000
_cell_angle_gamma 90.000000
_cell_volume 3035.950290
_symmetry_space_group_name_H-M "C M M M"
_symmetry_group_IT_number 65
_symmetry_cell_setting 'orthorhombic'
loop_
_space_group_symop_operation_xyz
x,y,z
-x,-y,z
x,-y,-z
-x,y,-z
-x,-y,-z
x,y,-z
-x,y,z
x,-y,z
1/2+x,1/2+y,z
1/2-x,1/2-y,z
1/2+x,1/2-y,-z
1/2-x,1/2+y,-z
1/2-x,1/2-y,-z
1/2+x,1/2+y,-z
1/2-x,1/2+y,z
1/2+x,1/2-y,z
loop_
_atom_site_type_symbol
_atom_site_label
_atom_site_fract_x
_atom_site_fract_y
_atom_site_fract_z
Si Si1 0.840157 0.130114 0.309901
Si Si2 0.919000 0.742106 0.799465
Si Si3 0.500000 0.630682 0.207195
Si Si4 0.452457 0.000000 0.704141
Si Si5 0.222257 0.134937 0.000000
O O1 0.823259 0.142570 0.500000
O O2 0.877800 0.214715 0.285122
O O3 0.806310 0.144446 0.166046
O O4 0.856034 0.000000 0.292340
O O5 0.929484 0.611054 0.769832
O O6 0.958864 0.808734 0.734094
O O7 0.914760 0.765117 0.000000
O O8 0.500000 0.500000 0.256710
O O9 0.500000 0.637484 0.000000
O O10 0.500000 0.000000 0.760574
O O11 0.452349 0.000000 0.500000
O O12 0.250000 0.250000 0.000000
O O13 0.238394 0.000000 0.000000
#
# Coordination Sequence:
#
# PCOD9492662 Si02
#       5
#    16  16   8   8   8
#     4  10  21  39  64  92 124 160 198 246 302 358
#     4  11  20  35  57  81 114 156 207 253 297 353
#     4   9  18  29  49  80 112 148 196 251 295 340
#     4  11  23  37  51  73 117 167 211 258 307 359
#     4  10  22  44  70  97 126 157 197 244 305 380
#
# _framework density 18.445626000000001
#
# number of rings (size 3 to 8) (size 9 to 14) (size 15 to 20)
#    0.000    1.714    2.857    2.143    0.000    2.286 
#    2.571    0.000    0.000    3.429    0.000    0.000 
#    0.000    0.000    0.000    0.000    0.000    0.000 
#
# Total GULP energy -156262.834000 kJ/mol
# GULP energy per Si atom -5580.815500 kJ/mol
# Density = 1.840364 g / cm^3
# Si number density = 18.445626 Si / 1000 Ang^3
#
#
#
# Elastic Constant Matrix: (Units=GPa)
#
#
# Indices 1 2 3 4 5 6 
#
# 1 72.1495 64.2086 32.3825 0.0000 0.0000 0.0000
# 2 64.2086 144.8941 19.9007 0.0000 0.0000 0.0000
# 3 32.3825 19.9007 92.7144 0.0000 0.0000 0.0000
# 4 0.0000 0.0000 0.0000 15.7082 0.0000 0.0000
# 5 0.0000 0.0000 0.0000 0.0000 9.0486 0.0000
# 6 0.0000 0.0000 0.0000 0.0000 0.0000 59.3996
#
#
#
# Elastic Compliance Matrix: (Units=1/GPa)
#
#
# Indices 1 2 3 4 5 6 
#
# 1 0.026649 -0.010851 -0.006979 0.000000 0.000000 0.000000
# 2 -0.010851 0.011529 0.001315 0.000000 0.000000 0.000000
# 3 -0.006979 0.001315 0.012941 0.000000 0.000000 0.000000
# 4 0.000000 0.000000 0.000000 0.063661 0.000000 0.000000
# 5 0.000000 0.000000 0.000000 0.000000 0.110514 0.000000
# 6 0.000000 0.000000 0.000000 0.000000 0.000000 0.016835
#
#
# Mechanical properties :
#
#
# Convention : Reuss Voigt Hill
#
# Bulk Modulus (GPa) = 55.27697 60.30461 57.79079
# Shear Modulus (GPa) = 17.78170 29.71568 23.74869
#
# Velocity S-wave (km/s) = 3.10821 4.01807 3.59206
# Velocity P-wave (km/s) = 6.55087 7.36822 6.97153
#
# Compressibility (1/GPa) = 0.01809072
#
# Stress axis : x y z
#
# Youngs Moduli (GPa) = 37.52530 86.73517 77.27407
#
# Poissons Ratio (x) = 0.94113 0.53926
# Poissons Ratio (y) = 0.40717 -0.10162
# Poissons Ratio (z) = 0.26187 -0.11407
#
# Static dielectric constant tensor:
#      x y z
#    x 1.595660 0.000000 0.000000 
#    y 0.000000 1.504450 0.000000 
#    z 0.000000 0.000000 1.661840 
# 
# From -- ./inp_files/4784.got.cif
#   From: 2010.05.17/outbox.cif.g08.bks.cpg/sg65_3_cif.got.tgz:4784.got - 2010.06.03 17:01:31.
