data_PCOD9492586
_publ_section_title
;
Structure prediction by ZEFSAII (Michael W. Deem and Ramdas Pophale) SiO2 
 PCOD9492586
Probable space group: C M M M
;
_chemical_formula_sum "Si O2"
_cell_formula_units_Z 68
_cell_length_a 19.296437
_cell_length_b 8.493978
_cell_length_c 21.428540
_cell_angle_alpha 90.000000
_cell_angle_beta 90.000000
_cell_angle_gamma 90.000000
_cell_volume 3512.212949
_symmetry_space_group_name_H-M "C M M M"
_symmetry_group_IT_number 65
_symmetry_cell_setting 'orthorhombic'
loop_
_space_group_symop_operation_xyz
x,y,z
-x,-y,z
x,-y,-z
-x,y,-z
-x,-y,-z
x,y,-z
-x,y,z
x,-y,z
1/2+x,1/2+y,z
1/2-x,1/2-y,z
1/2+x,1/2-y,-z
1/2-x,1/2+y,-z
1/2-x,1/2-y,-z
1/2+x,1/2+y,-z
1/2-x,1/2+y,z
1/2+x,1/2-y,z
loop_
_atom_site_type_symbol
_atom_site_label
_atom_site_fract_x
_atom_site_fract_y
_atom_site_fract_z
Si Si1 0.080036 0.188495 0.000000
Si Si2 0.638422 0.821612 0.243501
Si Si3 0.323957 0.188584 0.107984
Si Si4 0.000000 0.303887 0.687583
Si Si5 0.164525 0.000000 0.572519
Si Si6 0.750000 0.250000 0.653355
Si Si7 0.000000 0.000000 0.600589
O O1 0.117419 0.254365 0.938774
O O2 0.000000 0.234138 0.000000
O O3 0.085502 0.000000 0.000000
O O4 0.663634 0.747712 0.178693
O O5 0.568046 0.759362 0.273065
O O6 0.695984 0.825098 0.297518
O O7 0.620908 0.000000 0.226498
O O8 0.250000 0.250000 0.085719
O O9 0.321152 0.000000 0.108132
O O10 0.000000 0.500000 0.674548
O O11 0.000000 0.175453 0.632283
O O12 0.201010 0.855580 0.609279
O O13 0.080067 0.000000 0.574013
O O14 0.185121 0.000000 0.500000
#
# Coordination Sequence:
#
# PCOD9492586 Si02
#       7
#     8  16  16   8   8   8   4
#     4  11  26  47  62  87 127 171 214 269 322 397
#     4  10  21  38  64  96 130 170 214 278 335 396
#     4  11  23  40  66  94 127 169 218 269 332 392
#     4  10  22  41  63 100 141 177 227 285 352 411
#     4  12  27  44  68  99 138 181 230 281 338 418
#     4  12  21  42  68  93 134 170 220 276 336 397
#     4  12  23  44  72 100 136 193 228 284 354 409
#
# _framework density 19.361011999999999
#
# number of rings (size 3 to 8) (size 9 to 14) (size 15 to 20)
#    0.000    1.059    4.706    1.941    1.647    0.941 
#    6.353    0.000    0.000    0.706    0.000    0.000 
#    0.000    0.000    0.000    0.000    0.000    0.000 
#
# Total GULP energy -189304.056339 kJ/mol
# GULP energy per Si atom -5567.766363 kJ/mol
# Density = 1.931695 g / cm^3
# Si number density = 19.361012 Si / 1000 Ang^3
#
#
#
# Elastic Constant Matrix: (Units=GPa)
#
#
# Indices 1 2 3 4 5 6 
#
# 1 157.7098 36.0082 59.8481 0.0000 0.0000 0.0000
# 2 36.0082 60.6802 40.9968 0.0000 0.0000 0.0000
# 3 59.8481 40.9968 136.9664 0.0000 0.0000 0.0000
# 4 0.0000 0.0000 0.0000 20.5421 0.0000 0.0000
# 5 0.0000 0.0000 0.0000 0.0000 28.5417 0.0000
# 6 0.0000 0.0000 0.0000 0.0000 0.0000 31.0661
#
#
#
# Elastic Compliance Matrix: (Units=1/GPa)
#
#
# Indices 1 2 3 4 5 6 
#
# 1 0.008013 -0.002995 -0.002605 0.000000 0.000000 0.000000
# 2 -0.002995 0.021777 -0.005209 0.000000 0.000000 0.000000
# 3 -0.002605 -0.005209 0.009999 0.000000 0.000000 0.000000
# 4 0.000000 0.000000 0.000000 0.048681 0.000000 0.000000
# 5 0.000000 0.000000 0.000000 0.000000 0.035036 0.000000
# 6 0.000000 0.000000 0.000000 0.000000 0.000000 0.032189
#
#
# Mechanical properties :
#
#
# Convention : Reuss Voigt Hill
#
# Bulk Modulus (GPa) = 55.03732 69.89586 62.46659
# Shear Modulus (GPa) = 27.26722 30.59688 28.93205
#
# Velocity S-wave (km/s) = 3.75688 3.97966 3.86987
# Velocity P-wave (km/s) = 6.87804 7.56945 7.23201
#
# Compressibility (1/GPa) = 0.01816949
#
# Stress axis : x y z
#
# Youngs Moduli (GPa) = 124.79550 45.92036 100.01433
#
# Poissons Ratio (x) = 0.13754 0.26052
# Poissons Ratio (y) = 0.37378 0.52102
# Poissons Ratio (z) = 0.32507 0.23922
#
# Static dielectric constant tensor:
#      x y z
#    x 1.665920 0.000000 0.000000 
#    y 0.000000 1.698290 0.000000 
#    z 0.000000 0.000000 1.715210 
# 
# From -- ./inp_files/63414.got.cif
#   From: 2010.05.17/outbox.cif.g08.bks.cpg/sg65_32_cif.got.tgz:63414.got - 2010.06.03 17:01:31.
