data_PCOD9492021
_publ_section_title
;
Structure prediction by ZEFSAII (Michael W. Deem and Ramdas Pophale) SiO2 
 PCOD9492021
Probable space group: C M M M
;
_chemical_formula_sum "Si O2"
_cell_formula_units_Z 116
_cell_length_a 7.792732
_cell_length_b 30.062117
_cell_length_c 23.398733
_cell_angle_alpha 90.000000
_cell_angle_beta 90.000000
_cell_angle_gamma 90.000000
_cell_volume 5481.528079
_symmetry_space_group_name_H-M "C M M M"
_symmetry_group_IT_number 65
_symmetry_cell_setting 'orthorhombic'
loop_
_space_group_symop_operation_xyz
x,y,z
-x,-y,z
x,-y,-z
-x,y,-z
-x,-y,-z
x,y,-z
-x,y,z
x,-y,z
1/2+x,1/2+y,z
1/2-x,1/2-y,z
1/2+x,1/2-y,-z
1/2-x,1/2+y,-z
1/2-x,1/2-y,-z
1/2+x,1/2+y,-z
1/2-x,1/2+y,z
1/2+x,1/2-y,z
loop_
_atom_site_type_symbol
_atom_site_label
_atom_site_fract_x
_atom_site_fract_y
_atom_site_fract_z
Si Si1 0.792195 0.427042 0.896763
Si Si2 0.806683 0.798492 0.183537
Si Si3 0.297296 0.698960 0.436379
Si Si4 0.203993 0.325649 0.063324
Si Si5 0.000000 0.000000 0.922757
Si Si6 0.206968 0.948119 0.564248
Si Si7 0.194442 0.391026 0.775444
Si Si8 0.195785 0.624268 0.347106
O O1 0.776041 0.378731 0.926448
O O2 0.654842 0.461484 0.921537
O O3 0.739293 0.418680 0.829876
O O4 0.000000 0.438561 0.899517
O O5 0.750000 0.750000 0.203256
O O6 0.796044 0.800931 0.114937
O O7 0.694475 0.839600 0.204864
O O8 0.000000 0.807238 0.202438
O O9 0.223839 0.687336 0.500000
O O10 0.500000 0.696578 0.441704
O O11 0.250000 0.750000 0.424295
O O12 0.254208 0.665878 0.385035
O O13 0.000000 0.316544 0.067856
O O14 0.263481 0.313757 0.000000
O O15 0.257417 0.934652 0.500000
O O16 0.290110 0.917596 0.611281
O O17 0.000000 0.943364 0.567905
O O18 0.247728 0.000000 0.571412
O O19 0.281191 0.389209 0.713239
O O20 0.000000 0.407896 0.768868
O O21 0.000000 0.634608 0.332476
#
# Coordination Sequence:
#
# PCOD9492021 Si02
#       8
#    16  16  16  16   4  16  16  16
#     4   9  20  40  60  85 121 156 196 249 299 348
#     4  11  22  36  59  87 115 150 192 236 281 338
#     4  10  21  37  56  80 111 146 184 229 281 338
#     4   9  19  38  62  85 118 159 192 233 293 342
#     4  12  22  36  65  92 112 156 213 242 292 364
#     4   9  19  37  57  79 111 148 185 230 285 340
#     4   9  21  41  58  76 112 152 187 236 295 344
#     4  11  22  36  57  84 111 145 188 232 287 347
#
# _framework density 21.161981000000001
#
# number of rings (size 3 to 8) (size 9 to 14) (size 15 to 20)
#    0.000    2.207    0.000    3.931    3.862    5.241 
#    1.241    1.379    0.000    1.655    0.000    0.000 
#    0.000    0.000    0.000    0.000    0.000    0.000 
#
# Total GULP energy -322978.715915 kJ/mol
# GULP energy per Si atom -5568.598550 kJ/mol
# Density = 2.111382 g / cm^3
# Si number density = 21.161981 Si / 1000 Ang^3
#
#
#
# Elastic Constant Matrix: (Units=GPa)
#
#
# Indices 1 2 3 4 5 6 
#
# 1 64.8575 6.5307 -7.2253 0.0000 0.0000 0.0000
# 2 6.5307 34.9115 -7.3139 0.0000 0.0000 0.0000
# 3 -7.2253 -7.3139 86.0115 0.0000 0.0000 0.0000
# 4 0.0000 0.0000 0.0000 -4.7751 0.0000 0.0000
# 5 0.0000 0.0000 0.0000 0.0000 20.7056 0.0000
# 6 0.0000 0.0000 0.0000 0.0000 0.0000 6.9591
#
#
#
# Elastic Compliance Matrix: (Units=1/GPa)
#
#
# Indices 1 2 3 4 5 6 
#
# 1 0.015815 -0.002729 0.001097 0.000000 0.000000 0.000000
# 2 -0.002729 0.029634 0.002291 0.000000 0.000000 0.000000
# 3 0.001097 0.002291 0.011913 0.000000 0.000000 0.000000
# 4 0.000000 0.000000 0.000000 -0.209419 0.000000 0.000000
# 5 0.000000 0.000000 0.000000 0.000000 0.048296 0.000000
# 6 0.000000 0.000000 0.000000 0.000000 0.000000 0.143697
#
#
# Mechanical properties :
#
#
# Convention : Reuss Voigt Hill
#
# Bulk Modulus (GPa) = 17.04171 18.86263 17.95217
# Shear Modulus (GPa) = 85.93978 17.49717 51.71847
#
# Velocity S-wave (km/s) = 6.37955 2.87857 4.94898
# Velocity P-wave (km/s) = 7.89527 4.47001 6.41546
#
# Compressibility (1/GPa) = 0.05867957
#
# Stress axis : x y z
#
# Youngs Moduli (GPa) = 63.22978 33.74484 83.94013
#
# Poissons Ratio (x) = 0.09208 -0.09204
# Poissons Ratio (y) = 0.17254 -0.19228
# Poissons Ratio (z) = -0.06933 -0.07730
#
# Static dielectric constant tensor:
#      x y z
#    x 1.788150 0.000000 0.000000 
#    y 0.000000 1.712480 0.000000 
#    z 0.000000 0.000000 1.848180 
# 
# From -- ./inp_files/68631.got.cif
#   From: 2010.05.17/outbox.cif.g08.bks.cpg/sg65_35_cif.got.tgz:68631.got - 2010.06.03 17:01:31.
