data_PCOD9492430
_publ_section_title
;
Structure prediction by ZEFSAII (Michael W. Deem and Ramdas Pophale) SiO2 
 PCOD9492430
Probable space group: C M M M
;
_chemical_formula_sum "Si O2"
_cell_formula_units_Z 72
_cell_length_a 8.233275
_cell_length_b 29.814235
_cell_length_c 14.112152
_cell_angle_alpha 90.000000
_cell_angle_beta 90.000000
_cell_angle_gamma 90.000000
_cell_volume 3464.092956
_symmetry_space_group_name_H-M "C M M M"
_symmetry_group_IT_number 65
_symmetry_cell_setting 'orthorhombic'
loop_
_space_group_symop_operation_xyz
x,y,z
-x,-y,z
x,-y,-z
-x,y,-z
-x,-y,-z
x,y,-z
-x,y,z
x,-y,z
1/2+x,1/2+y,z
1/2-x,1/2-y,z
1/2+x,1/2-y,-z
1/2-x,1/2+y,-z
1/2-x,1/2-y,-z
1/2+x,1/2+y,-z
1/2-x,1/2+y,z
1/2+x,1/2-y,z
loop_
_atom_site_type_symbol
_atom_site_label
_atom_site_fract_x
_atom_site_fract_y
_atom_site_fract_z
Si Si1 0.813978 0.950609 0.797581
Si Si2 0.682086 0.881729 0.330800
Si Si3 0.199517 0.446783 0.500000
Si Si4 0.307326 0.299536 0.790472
Si Si5 0.301324 0.332235 0.000000
Si Si6 0.308233 0.934183 0.000000
O O1 0.689007 0.915025 0.758070
O O2 0.780486 0.952494 0.908007
O O3 0.000000 0.935872 0.780231
O O4 0.791015 0.000000 0.755228
O O5 0.500000 0.870759 0.361458
O O6 0.753032 0.915339 0.411268
O O7 0.757849 0.836453 0.288225
O O8 0.251053 0.500000 0.500000
O O9 0.000000 0.448654 0.500000
O O10 0.500000 0.300309 0.795187
O O11 0.250000 0.250000 0.763967
O O12 0.250860 0.309999 0.899287
O O13 0.222888 0.381083 0.000000
O O14 0.500000 0.335658 0.000000
O O15 0.500000 0.944343 0.000000
#
# Coordination Sequence:
#
# PCOD9492430 Si02
#       6
#    16  16   8  16   8   8
#     4  11  23  38  56  81 119 163 202 247 305 364
#     4  11  22  39  64  92 121 156 203 255 309 371
#     4   9  20  40  66  95 126 159 198 253 314 367
#     4  11  23  40  63  91 125 165 207 253 307 363
#     4  10  21  38  60  85 124 167 202 248 304 359
#     4  12  23  34  55  84 117 158 206 250 296 361
#
# _framework density 20.784659999999999
#
# number of rings (size 3 to 8) (size 9 to 14) (size 15 to 20)
#    0.000    1.222    2.222    4.333    0.000    4.889 
#    0.000    2.778    0.000    4.000    0.000    0.000 
#    0.000    0.000    0.000    0.000    0.000    0.000 
#
# Total GULP energy -200737.983095 kJ/mol
# GULP energy per Si atom -5576.055086 kJ/mol
# Density = 2.073735 g / cm^3
# Si number density = 20.784660 Si / 1000 Ang^3
#
#
#
# Elastic Constant Matrix: (Units=GPa)
#
#
# Indices 1 2 3 4 5 6 
#
# 1 44.1119 29.5364 -2.2291 0.0000 0.0000 0.0000
# 2 29.5364 176.5769 68.0296 0.0000 0.0000 0.0000
# 3 -2.2291 68.0296 103.5783 0.0000 0.0000 0.0000
# 4 0.0000 0.0000 0.0000 -0.8870 0.0000 0.0000
# 5 0.0000 0.0000 0.0000 0.0000 10.6934 0.0000
# 6 0.0000 0.0000 0.0000 0.0000 0.0000 18.1232
#
#
#
# Elastic Compliance Matrix: (Units=1/GPa)
#
#
# Indices 1 2 3 4 5 6 
#
# 1 0.027190 -0.006391 0.004783 0.000000 0.000000 0.000000
# 2 -0.006391 0.009084 -0.006104 0.000000 0.000000 0.000000
# 3 0.004783 -0.006104 0.013766 0.000000 0.000000 0.000000
# 4 0.000000 0.000000 0.000000 -1.127370 0.000000 0.000000
# 5 0.000000 0.000000 0.000000 0.000000 0.093515 0.000000
# 6 0.000000 0.000000 0.000000 0.000000 0.000000 0.055178
#
#
# Mechanical properties :
#
#
# Convention : Reuss Voigt Hill
#
# Bulk Modulus (GPa) = 28.88775 57.21566 43.05170
# Shear Modulus (GPa) = -5.54524 20.84793 7.65134
#
# Velocity S-wave (km/s) = -1.63516 3.17052 1.92074
# Velocity P-wave (km/s) = 3.21928 6.40239 5.06726
#
# Compressibility (1/GPa) = 0.03461675
#
# Stress axis : x y z
#
# Youngs Moduli (GPa) = 36.77764 110.08557 72.64079
#
# Poissons Ratio (x) = 0.70353 -0.34741
# Poissons Ratio (y) = 0.23504 0.44338
# Poissons Ratio (z) = -0.17589 0.67194
#
# Static dielectric constant tensor:
#      x y z
#    x 1.745250 0.000000 0.000000 
#    y 0.000000 1.882740 0.000000 
#    z 0.000000 0.000000 1.834300 
# 
# From -- ./inp_files/36705.got.cif
#   From: 2010.05.17/outbox.cif.g08.bks.cpg/sg65_19_cif.got.tgz:36705.got - 2010.06.03 17:01:31.
