data_PCOD9492350
_publ_section_title
;
Structure prediction by ZEFSAII (Michael W. Deem and Ramdas Pophale) SiO2 
 PCOD9492350
Probable space group: C M M M
;
_chemical_formula_sum "Si O2"
_cell_formula_units_Z 96
_cell_length_a 19.118947
_cell_length_b 8.668056
_cell_length_c 32.038777
_cell_angle_alpha 90.000000
_cell_angle_beta 90.000000
_cell_angle_gamma 90.000000
_cell_volume 5309.597588
_symmetry_space_group_name_H-M "C M M M"
_symmetry_group_IT_number 65
_symmetry_cell_setting 'orthorhombic'
loop_
_space_group_symop_operation_xyz
x,y,z
-x,-y,z
x,-y,-z
-x,y,-z
-x,-y,-z
x,y,-z
-x,y,z
x,-y,z
1/2+x,1/2+y,z
1/2-x,1/2-y,z
1/2+x,1/2-y,-z
1/2-x,1/2+y,-z
1/2-x,1/2-y,-z
1/2+x,1/2+y,-z
1/2-x,1/2+y,z
1/2+x,1/2-y,z
loop_
_atom_site_type_symbol
_atom_site_label
_atom_site_fract_x
_atom_site_fract_y
_atom_site_fract_z
Si Si1 0.828764 0.183701 0.868256
Si Si2 0.580440 0.187742 0.547054
Si Si3 0.917350 0.683974 0.792201
Si Si4 0.671974 0.185526 0.374475
Si Si5 0.081958 0.815235 0.701558
Si Si6 0.829242 0.314986 0.954423
O O1 0.750000 0.250000 0.864633
O O2 0.873533 0.241157 0.829270
O O3 0.860211 0.244943 0.912184
O O4 0.825168 0.000000 0.869418
O O5 0.599620 0.237261 0.500000
O O6 0.500000 0.234976 0.555190
O O7 0.631889 0.238882 0.583519
O O8 0.580849 0.000000 0.547095
O O9 0.907223 0.500000 0.792213
O O10 0.897470 0.751500 0.747028
O O11 0.000000 0.715832 0.798051
O O12 0.750000 0.250000 0.373445
O O13 0.628553 0.243496 0.334709
O O14 0.673617 0.000000 0.374273
O O15 0.000000 0.774795 0.694911
O O16 0.088132 0.000000 0.701282
O O17 0.826835 0.500000 0.950764
O O18 0.750000 0.250000 0.955439
O O19 0.860864 0.276450 0.000000
#
# Coordination Sequence:
#
# PCOD9492350 Si02
#       6
#    16  16  16  16  16  16
#     4  11  21  33  52  78 109 141 176 218 264 314
#     4   8  15  30  53  79 105 137 180 225 265 310
#     4  10  21  38  59  81 106 137 174 215 262 318
#     4  11  22  35  53  79 111 145 180 218 265 316
#     4  10  21  38  59  81 105 134 172 217 263 314
#     4   9  16  27  45  70 101 136 175 218 263 311
#
# _framework density 18.080466999999999
#
# number of rings (size 3 to 8) (size 9 to 14) (size 15 to 20)
#    0.000    2.167    0.000    5.500    0.000    4.667 
#    0.000    3.333    0.000    2.000    0.000    9.333 
#    0.000    0.000    0.000    0.000    0.000    0.000 
#
# Total GULP energy -267858.751651 kJ/mol
# GULP energy per Si atom -5580.390659 kJ/mol
# Density = 1.803932 g / cm^3
# Si number density = 18.080467 Si / 1000 Ang^3
#
#
#
# Elastic Constant Matrix: (Units=GPa)
#
#
# Indices 1 2 3 4 5 6 
#
# 1 75.5615 44.8102 101.8044 0.0000 0.0000 0.0000
# 2 44.8102 77.8145 69.7186 0.0000 0.0000 0.0000
# 3 101.8044 69.7186 216.2929 0.0000 0.0000 0.0000
# 4 0.0000 0.0000 0.0000 18.1427 0.0000 0.0000
# 5 0.0000 0.0000 0.0000 0.0000 31.0056 0.0000
# 6 0.0000 0.0000 0.0000 0.0000 0.0000 17.4045
#
#
#
# Elastic Compliance Matrix: (Units=1/GPa)
#
#
# Indices 1 2 3 4 5 6 
#
# 1 0.039929 -0.008654 -0.016004 0.000000 0.000000 0.000000
# 2 -0.008654 0.019945 -0.002356 0.000000 0.000000 0.000000
# 3 -0.016004 -0.002356 0.012915 0.000000 0.000000 0.000000
# 4 0.000000 0.000000 0.000000 0.055118 0.000000 0.000000
# 5 0.000000 0.000000 0.000000 0.000000 0.032252 0.000000
# 6 0.000000 0.000000 0.000000 0.000000 0.000000 0.057456
#
#
# Mechanical properties :
#
#
# Convention : Reuss Voigt Hill
#
# Bulk Modulus (GPa) = 53.30073 89.14838 71.22455
# Shear Modulus (GPa) = 17.99214 23.53294 20.76254
#
# Velocity S-wave (km/s) = 3.15797 3.61164 3.39239
# Velocity P-wave (km/s) = 6.54528 8.17346 7.40426
#
# Compressibility (1/GPa) = 0.01876147
#
# Stress axis : x y z
#
# Youngs Moduli (GPa) = 25.04443 50.13698 77.42677
#
# Poissons Ratio (x) = 0.43391 1.23915
# Poissons Ratio (y) = 0.21675 0.18239
# Poissons Ratio (z) = 0.40081 0.11810
#
# Static dielectric constant tensor:
#      x y z
#    x 1.595680 0.000000 0.000000 
#    y 0.000000 1.605210 0.000000 
#    z 0.000000 0.000000 1.632210 
# 
# From -- ./inp_files/75396.got.cif
#   From: 2010.05.17/outbox.cif.g08.bks.cpg/sg65_38_cif.got.tgz:75396.got - 2010.06.03 17:01:31.
