data_PCOD9492159
_publ_section_title
;
Structure prediction by ZEFSAII (Michael W. Deem and Ramdas Pophale) SiO2 
 PCOD9492159
Probable space group: C M M M
;
_chemical_formula_sum "Si O2"
_cell_formula_units_Z 64
_cell_length_a 26.666437
_cell_length_b 14.208371
_cell_length_c 8.414680
_cell_angle_alpha 90.000000
_cell_angle_beta 90.000000
_cell_angle_gamma 90.000000
_cell_volume 3188.209749
_symmetry_space_group_name_H-M "C M M M"
_symmetry_group_IT_number 65
_symmetry_cell_setting 'orthorhombic'
loop_
_space_group_symop_operation_xyz
x,y,z
-x,-y,z
x,-y,-z
-x,y,-z
-x,-y,-z
x,y,-z
-x,y,z
x,-y,z
1/2+x,1/2+y,z
1/2-x,1/2-y,z
1/2+x,1/2-y,-z
1/2-x,1/2+y,-z
1/2-x,1/2-y,-z
1/2+x,1/2+y,-z
1/2-x,1/2+y,z
1/2+x,1/2-y,z
loop_
_atom_site_type_symbol
_atom_site_label
_atom_site_fract_x
_atom_site_fract_y
_atom_site_fract_z
Si Si1 0.056614 0.385245 0.500000
Si Si2 0.000000 0.890674 0.189231
Si Si3 0.305422 0.739626 0.184402
Si Si4 0.393408 0.391349 0.689178
Si Si5 0.387668 0.887225 0.823676
O O1 0.055830 0.500000 0.500000
O O2 0.083017 0.357475 0.335250
O O3 0.000000 0.350408 0.500000
O O4 0.946459 0.851993 0.246161
O O5 0.000000 0.000000 0.246862
O O6 0.000000 0.889517 0.000000
O O7 0.250000 0.750000 0.255589
O O8 0.344960 0.667913 0.260668
O O9 0.333419 0.839811 0.187331
O O10 0.299684 0.710501 0.000000
O O11 0.396807 0.391697 0.500000
O O12 0.388371 0.500000 0.745812
O O13 0.385146 0.000000 0.821330
O O14 0.408561 0.859987 0.000000
#
# Coordination Sequence:
#
# PCOD9492159 Si02
#       5
#     8   8  16  16  16
#     4   9  18  34  57  84 111 145 190 234 282 340
#     4   9  17  33  59  85 112 149 190 233 281 340
#     4  10  22  39  59  83 112 149 193 239 285 339
#     4  10  21  37  57  85 119 152 188 234 289 345
#     4   9  19  37  58  82 114 149 188 235 286 340
#
# _framework density 20.073962000000002
#
# number of rings (size 3 to 8) (size 9 to 14) (size 15 to 20)
#    0.000    2.500    0.000    1.125    1.750    5.000 
#    2.250    5.000    0.000    0.000    0.000    0.000 
#    0.000    0.000    0.000    0.000    0.000    0.000 
#
# Total GULP energy -178458.869816 kJ/mol
# GULP energy per Si atom -5576.839682 kJ/mol
# Density = 2.002827 g / cm^3
# Si number density = 20.073962 Si / 1000 Ang^3
#
#
#
# Elastic Constant Matrix: (Units=GPa)
#
#
# Indices 1 2 3 4 5 6 
#
# 1 183.9138 42.6282 75.1178 0.0000 0.0000 0.0000
# 2 42.6282 54.9193 27.3745 0.0000 0.0000 0.0000
# 3 75.1178 27.3745 111.9679 0.0000 0.0000 0.0000
# 4 0.0000 0.0000 0.0000 17.0038 0.0000 0.0000
# 5 0.0000 0.0000 0.0000 0.0000 111.7549 0.0000
# 6 0.0000 0.0000 0.0000 0.0000 0.0000 23.5500
#
#
#
# Elastic Compliance Matrix: (Units=1/GPa)
#
#
# Indices 1 2 3 4 5 6 
#
# 1 0.008243 -0.004147 -0.004516 0.000000 0.000000 0.000000
# 2 -0.004147 0.022822 -0.002797 0.000000 0.000000 0.000000
# 3 -0.004516 -0.002797 0.012645 0.000000 0.000000 0.000000
# 4 0.000000 0.000000 0.000000 0.058810 0.000000 0.000000
# 5 0.000000 0.000000 0.000000 0.000000 0.008948 0.000000
# 6 0.000000 0.000000 0.000000 0.000000 0.000000 0.042463
#
#
# Mechanical properties :
#
#
# Convention : Reuss Voigt Hill
#
# Bulk Modulus (GPa) = 48.10379 71.22691 59.66535
# Shear Modulus (GPa) = 27.20601 44.17375 35.68988
#
# Velocity S-wave (km/s) = 3.68542 4.69609 4.22111
# Velocity P-wave (km/s) = 6.49038 8.06000 7.31740
#
# Compressibility (1/GPa) = 0.02078838
#
# Stress axis : x y z
#
# Youngs Moduli (GPa) = 121.31139 43.81757 79.08261
#
# Poissons Ratio (x) = 0.18172 0.35717
# Poissons Ratio (y) = 0.50310 0.22122
# Poissons Ratio (z) = 0.54789 0.12257
#
# Static dielectric constant tensor:
#      x y z
#    x 1.694030 0.000000 0.000000 
#    y 0.000000 1.741630 0.000000 
#    z 0.000000 0.000000 1.719400 
# 
# From -- ./inp_files/13360.got.cif
#   From: 2010.05.17/outbox.cif.g08.bks.cpg/sg65_7_cif.got.tgz:13360.got - 2010.06.03 17:01:31.
