data_PCOD9492885
_publ_section_title
;
Structure prediction by ZEFSAII (Michael W. Deem and Ramdas Pophale) SiO2 
 PCOD9492885
Probable space group: C M M M
;
_chemical_formula_sum "Si O2"
_cell_formula_units_Z 88
_cell_length_a 14.849205
_cell_length_b 22.350817
_cell_length_c 14.122085
_cell_angle_alpha 90.000000
_cell_angle_beta 90.000000
_cell_angle_gamma 90.000000
_cell_volume 4687.005108
_symmetry_space_group_name_H-M "C M M M"
_symmetry_group_IT_number 65
_symmetry_cell_setting 'orthorhombic'
loop_
_space_group_symop_operation_xyz
x,y,z
-x,-y,z
x,-y,-z
-x,y,-z
-x,-y,-z
x,y,-z
-x,y,z
x,-y,z
1/2+x,1/2+y,z
1/2-x,1/2-y,z
1/2+x,1/2-y,-z
1/2-x,1/2+y,-z
1/2-x,1/2-y,-z
1/2+x,1/2+y,-z
1/2-x,1/2+y,z
1/2+x,1/2-y,z
loop_
_atom_site_type_symbol
_atom_site_label
_atom_site_fract_x
_atom_site_fract_y
_atom_site_fract_z
Si Si1 0.777319 0.570366 0.780957
Si Si2 0.643972 0.759912 0.711638
Si Si3 0.108990 0.067692 0.500000
Si Si4 0.605423 0.161301 0.891669
Si Si5 0.104827 0.618825 0.609533
Si Si6 0.898046 0.123538 0.699792
O O1 0.772779 0.500000 0.796839
O O2 0.832449 0.606034 0.860695
O O3 0.832260 0.584420 0.683830
O O4 0.677857 0.598357 0.769625
O O5 0.750000 0.750000 0.699600
O O6 0.625058 0.786822 0.815633
O O7 0.612386 0.811165 0.639046
O O8 0.601143 0.695155 0.700415
O O9 0.132374 0.101645 0.404186
O O10 0.000000 0.064601 0.500000
O O11 0.144542 0.000000 0.500000
O O12 0.500000 0.145085 0.881987
O O13 0.621930 0.179118 0.000000
O O14 0.130507 0.610271 0.500000
O O15 0.000000 0.601141 0.620987
O O16 0.000000 0.101476 0.717918
#
# Coordination Sequence:
#
# PCOD9492885 Si02
#       6
#    16  16   8  16  16  16
#     4  11  23  39  59  86 118 153 198 248 290 345
#     4  11  20  37  60  88 119 151 191 239 296 356
#     4   9  20  36  53  78 113 161 217 250 267 313
#     4  10  22  42  66  90 116 147 188 244 306 363
#     4  10  22  38  57  84 120 159 195 237 293 356
#     4  11  22  37  58  85 120 163 202 241 288 341
#
# _framework density 18.775317000000001
#
# number of rings (size 3 to 8) (size 9 to 14) (size 15 to 20)
#    0.000    1.545    3.636    3.818    2.545    4.000 
#    0.000    1.818    0.000    0.545    0.000    1.273 
#    0.000    0.000    0.000    0.000    0.000    0.000 
#
# Total GULP energy -245723.974627 kJ/mol
# GULP energy per Si atom -5584.635787 kJ/mol
# Density = 1.873258 g / cm^3
# Si number density = 18.775317 Si / 1000 Ang^3
#
#
#
# Elastic Constant Matrix: (Units=GPa)
#
#
# Indices 1 2 3 4 5 6 
#
# 1 90.8777 -9.4769 -3.4598 0.0000 0.0000 0.0000
# 2 -9.4769 94.9615 -8.7817 0.0000 0.0000 0.0000
# 3 -3.4598 -8.7817 40.5745 0.0000 0.0000 0.0000
# 4 0.0000 0.0000 0.0000 2.9647 0.0000 0.0000
# 5 0.0000 0.0000 0.0000 0.0000 45.5416 0.0000
# 6 0.0000 0.0000 0.0000 0.0000 0.0000 10.5385
#
#
#
# Elastic Compliance Matrix: (Units=1/GPa)
#
#
# Indices 1 2 3 4 5 6 
#
# 1 0.011178 0.001228 0.001219 0.000000 0.000000 0.000000
# 2 0.001228 0.010881 0.002460 0.000000 0.000000 0.000000
# 3 0.001219 0.002460 0.025282 0.000000 0.000000 0.000000
# 4 0.000000 0.000000 0.000000 0.337304 0.000000 0.000000
# 5 0.000000 0.000000 0.000000 0.000000 0.021958 0.000000
# 6 0.000000 0.000000 0.000000 0.000000 0.000000 0.094890
#
#
# Mechanical properties :
#
#
# Convention : Reuss Voigt Hill
#
# Bulk Modulus (GPa) = 17.49620 20.33076 18.91348
# Shear Modulus (GPa) = 9.78988 28.35109 19.07049
#
# Velocity S-wave (km/s) = 2.28595 3.89011 3.19050
# Velocity P-wave (km/s) = 4.03811 5.57039 4.86496
#
# Compressibility (1/GPa) = 0.05715525
#
# Stress axis : x y z
#
# Youngs Moduli (GPa) = 89.45903 91.90647 39.55330
#
# Poissons Ratio (x) = -0.11289 -0.04822
# Poissons Ratio (y) = -0.10988 -0.09729
# Poissons Ratio (z) = -0.10905 -0.22606
#
# Static dielectric constant tensor:
#      x y z
#    x 1.677990 0.000000 0.000000 
#    y 0.000000 1.635400 0.000000 
#    z 0.000000 0.000000 1.632220 
# 
# From -- ./inp_files/40215.got.cif
#   From: 2010.05.17/outbox.cif.g08.bks.cpg/sg65_21_cif.got.tgz:40215.got - 2010.06.03 17:01:31.
