data_PCOD9492195
_publ_section_title
;
Structure prediction by ZEFSAII (Michael W. Deem and Ramdas Pophale) SiO2 
 PCOD9492195
Probable space group: C M M M
;
_chemical_formula_sum "Si O2"
_cell_formula_units_Z 88
_cell_length_a 22.079417
_cell_length_b 15.897274
_cell_length_c 13.596676
_cell_angle_alpha 90.000000
_cell_angle_beta 90.000000
_cell_angle_gamma 90.000000
_cell_volume 4772.467836
_symmetry_space_group_name_H-M "C M M M"
_symmetry_group_IT_number 65
_symmetry_cell_setting 'orthorhombic'
loop_
_space_group_symop_operation_xyz
x,y,z
-x,-y,z
x,-y,-z
-x,y,-z
-x,-y,-z
x,y,-z
-x,y,z
x,-y,z
1/2+x,1/2+y,z
1/2-x,1/2-y,z
1/2+x,1/2-y,-z
1/2-x,1/2+y,-z
1/2-x,1/2-y,-z
1/2+x,1/2+y,-z
1/2-x,1/2+y,z
1/2+x,1/2-y,z
loop_
_atom_site_type_symbol
_atom_site_label
_atom_site_fract_x
_atom_site_fract_y
_atom_site_fract_z
Si Si1 0.351882 0.855911 0.612290
Si Si2 0.743724 0.848036 0.785219
Si Si3 0.328896 0.000000 0.884469
Si Si4 0.070931 0.897869 0.000000
Si Si5 0.927200 0.500000 0.716855
Si Si6 0.881293 0.099205 0.208732
Si Si7 0.068417 0.190573 0.607553
O O1 0.336480 0.879054 0.500000
O O2 0.294206 0.852066 0.683787
O O3 0.400716 0.920359 0.657325
O O4 0.383625 0.765471 0.612068
O O5 0.750000 0.750000 0.817750
O O6 0.811627 0.880122 0.771513
O O7 0.709228 0.915863 0.854682
O O8 0.390582 0.000000 0.820253
O O9 0.340274 0.000000 0.000000
O O10 0.100418 0.866115 0.898843
O O11 0.000000 0.878170 0.000000
O O12 0.076881 0.000000 0.000000
O O13 0.000000 0.500000 0.724966
O O14 0.920645 0.134214 0.297832
O O15 0.889823 0.000000 0.204820
O O16 0.075291 0.148059 0.500000
O O17 0.000000 0.224748 0.611180
#
# Coordination Sequence:
#
# PCOD9492195 Si02
#       7
#    16  16   8   8   8  16  16
#     4  10  21  37  59  88 120 157 198 246 296 351
#     4  11  22  39  61  89 120 158 199 244 299 362
#     4  10  24  42  63  90 122 156 199 253 305 365
#     4   9  20  38  61  86 112 151 198 249 297 340
#     4  10  21  39  62  89 119 156 205 251 297 356
#     4  11  22  38  60  86 118 154 197 247 298 356
#     4  10  21  37  58  85 119 157 195 242 303 365
#
# _framework density 18.439098000000001
#
# number of rings (size 3 to 8) (size 9 to 14) (size 15 to 20)
#    0.000    1.727    2.727    1.364    1.273    4.545 
#    0.000    0.909    0.000    0.000    0.000    0.000 
#    0.000    0.000    0.000    0.000    0.000    0.000 
#
# Total GULP energy -245407.999458 kJ/mol
# GULP energy per Si atom -5577.454533 kJ/mol
# Density = 1.839713 g / cm^3
# Si number density = 18.439098 Si / 1000 Ang^3
#
#
#
# Elastic Constant Matrix: (Units=GPa)
#
#
# Indices 1 2 3 4 5 6 
#
# 1 110.4040 8.7269 70.4233 0.0000 0.0000 0.0000
# 2 8.7269 70.4418 50.6644 0.0000 0.0000 0.0000
# 3 70.4233 50.6644 162.5796 0.0000 0.0000 0.0000
# 4 0.0000 0.0000 0.0000 38.9384 0.0000 0.0000
# 5 0.0000 0.0000 0.0000 0.0000 7.3330 0.0000
# 6 0.0000 0.0000 0.0000 0.0000 0.0000 15.4728
#
#
#
# Elastic Compliance Matrix: (Units=1/GPa)
#
#
# Indices 1 2 3 4 5 6 
#
# 1 0.013037 0.003153 -0.006630 0.000000 0.000000 0.000000
# 2 0.003153 0.019060 -0.007306 0.000000 0.000000 0.000000
# 3 -0.006630 -0.007306 0.011299 0.000000 0.000000 0.000000
# 4 0.000000 0.000000 0.000000 0.025682 0.000000 0.000000
# 5 0.000000 0.000000 0.000000 0.000000 0.136370 0.000000
# 6 0.000000 0.000000 0.000000 0.000000 0.000000 0.064630
#
#
# Mechanical properties :
#
#
# Convention : Reuss Voigt Hill
#
# Bulk Modulus (GPa) = 45.80366 67.00608 56.40487
# Shear Modulus (GPa) = 16.72691 26.58956 21.65823
#
# Velocity S-wave (km/s) = 3.01515 3.80151 3.43094
# Velocity P-wave (km/s) = 6.08407 7.46235 6.80818
#
# Compressibility (1/GPa) = 0.02183232
#
# Stress axis : x y z
#
# Youngs Moduli (GPa) = 76.70196 52.46633 88.50100
#
# Poissons Ratio (x) = -0.16545 0.58676
# Poissons Ratio (y) = -0.24187 0.64654
# Poissons Ratio (z) = 0.50854 0.38329
#
# Static dielectric constant tensor:
#      x y z
#    x 1.606170 0.000000 0.000000 
#    y 0.000000 1.649310 0.000000 
#    z 0.000000 0.000000 1.649170 
# 
# From -- ./inp_files/28743.got.cif
#   From: 2010.05.17/outbox.cif.g08.bks.cpg/sg65_15_cif.got.tgz:28743.got - 2010.06.03 17:01:31.
