data_PCOD9492115
_publ_section_title
;
Structure prediction by ZEFSAII (Michael W. Deem and Ramdas Pophale) SiO2 
 PCOD9492115
Probable space group: C M M M
;
_chemical_formula_sum "Si O2"
_cell_formula_units_Z 96
_cell_length_a 19.093664
_cell_length_b 8.626546
_cell_length_c 31.653306
_cell_angle_alpha 90.000000
_cell_angle_beta 90.000000
_cell_angle_gamma 90.000000
_cell_volume 5213.691075
_symmetry_space_group_name_H-M "C M M M"
_symmetry_group_IT_number 65
_symmetry_cell_setting 'orthorhombic'
loop_
_space_group_symop_operation_xyz
x,y,z
-x,-y,z
x,-y,-z
-x,y,-z
-x,-y,-z
x,y,-z
-x,y,z
x,-y,z
1/2+x,1/2+y,z
1/2-x,1/2-y,z
1/2+x,1/2-y,-z
1/2-x,1/2+y,-z
1/2-x,1/2-y,-z
1/2+x,1/2+y,-z
1/2-x,1/2+y,z
1/2+x,1/2-y,z
loop_
_atom_site_type_symbol
_atom_site_label
_atom_site_fract_x
_atom_site_fract_y
_atom_site_fract_z
Si Si1 0.328575 0.684374 0.204723
Si Si2 0.827057 0.687078 0.951885
Si Si3 0.582022 0.814881 0.718429
Si Si4 0.671532 0.687321 0.546884
Si Si5 0.082194 0.186032 0.627181
Si Si6 0.580852 0.187777 0.127124
O O1 0.325538 0.500000 0.202674
O O2 0.250000 0.750000 0.203989
O O3 0.369084 0.736900 0.246891
O O4 0.372871 0.748186 0.165247
O O5 0.824167 0.500000 0.951575
O O6 0.750000 0.750000 0.940956
O O7 0.883547 0.735429 0.917116
O O8 0.843413 0.736752 0.000000
O O9 0.500000 0.769280 0.724354
O O10 0.602950 0.765314 0.671121
O O11 0.586193 0.000000 0.722817
O O12 0.645418 0.733796 0.500000
O O13 0.672972 0.500000 0.547729
O O14 0.750000 0.750000 0.551236
O O15 0.625174 0.739328 0.586362
O O16 0.000000 0.217042 0.620464
O O17 0.090756 0.000000 0.631738
O O18 0.500000 0.237330 0.130194
O O19 0.582066 0.000000 0.129125
#
# Coordination Sequence:
#
# PCOD9492115 Si02
#       6
#    16  16  16  16  16  16
#     4  12  25  40  59  82 109 141 180 224 270 322
#     4   9  18  33  54  80 110 146 186 226 269 317
#     4  10  21  38  59  82 110 142 176 217 267 322
#     4   9  18  32  50  73 102 137 175 216 263 313
#     4   9  18  33  53  77 105 138 177 219 262 311
#     4  10  21  37  57  82 113 147 183 225 272 321
#
# _framework density 18.413056999999998
#
# number of rings (size 3 to 8) (size 9 to 14) (size 15 to 20)
#    0.000    2.167    0.000    3.000    0.000    7.333 
#    0.000    5.000    0.000    0.000    0.000    8.167 
#    0.000    0.000    0.000    0.000    0.000    0.000 
#
# Total GULP energy -267987.811108 kJ/mol
# GULP energy per Si atom -5583.079398 kJ/mol
# Density = 1.837115 g / cm^3
# Si number density = 18.413057 Si / 1000 Ang^3
#
#
#
# Elastic Constant Matrix: (Units=GPa)
#
#
# Indices 1 2 3 4 5 6 
#
# 1 132.4820 38.6701 112.5705 0.0000 0.0000 0.0000
# 2 38.6701 29.8996 41.2385 0.0000 0.0000 0.0000
# 3 112.5705 41.2385 160.0769 0.0000 0.0000 0.0000
# 4 0.0000 0.0000 0.0000 26.5657 0.0000 0.0000
# 5 0.0000 0.0000 0.0000 0.0000 41.7067 0.0000
# 6 0.0000 0.0000 0.0000 0.0000 0.0000 27.0925
#
#
#
# Elastic Compliance Matrix: (Units=1/GPa)
#
#
# Indices 1 2 3 4 5 6 
#
# 1 0.020632 -0.010350 -0.011843 0.000000 0.000000 0.000000
# 2 -0.010350 0.057071 -0.007424 0.000000 0.000000 0.000000
# 3 -0.011843 -0.007424 0.016488 0.000000 0.000000 0.000000
# 4 0.000000 0.000000 0.000000 0.037642 0.000000 0.000000
# 5 0.000000 0.000000 0.000000 0.000000 0.023977 0.000000
# 6 0.000000 0.000000 0.000000 0.000000 0.000000 0.036911
#
#
# Mechanical properties :
#
#
# Convention : Reuss Voigt Hill
#
# Bulk Modulus (GPa) = 28.60660 78.60186 53.60423
# Shear Modulus (GPa) = 18.96769 27.73830 23.35300
#
# Velocity S-wave (km/s) = 3.21303 3.88551 3.56516
# Velocity P-wave (km/s) = 5.41614 7.93160 6.79135
#
# Compressibility (1/GPa) = 0.03495696
#
# Stress axis : x y z
#
# Youngs Moduli (GPa) = 48.46826 17.52208 60.65196
#
# Poissons Ratio (x) = 0.18136 0.71828
# Poissons Ratio (y) = 0.50167 0.45026
# Poissons Ratio (z) = 0.57399 0.13008
#
# Static dielectric constant tensor:
#      x y z
#    x 1.602750 0.000000 0.000000 
#    y 0.000000 1.627330 0.000000 
#    z 0.000000 0.000000 1.631550 
# 
# From -- ./inp_files/75341.got.cif
#   From: 2010.05.17/outbox.cif.g08.bks.cpg/sg65_38_cif.got.tgz:75341.got - 2010.06.03 17:01:31.
