data_PCOD9492352
_publ_section_title
;
Structure prediction by ZEFSAII (Michael W. Deem and Ramdas Pophale) SiO2 
 PCOD9492352
Probable space group: C M M M
;
_chemical_formula_sum "Si O2"
_cell_formula_units_Z 64
_cell_length_a 19.284370
_cell_length_b 8.586845
_cell_length_c 21.491280
_cell_angle_alpha 90.000000
_cell_angle_beta 90.000000
_cell_angle_gamma 90.000000
_cell_volume 3558.781805
_symmetry_space_group_name_H-M "C M M M"
_symmetry_group_IT_number 65
_symmetry_cell_setting 'orthorhombic'
loop_
_space_group_symop_operation_xyz
x,y,z
-x,-y,z
x,-y,-z
-x,y,-z
-x,-y,-z
x,y,-z
-x,y,z
x,-y,z
1/2+x,1/2+y,z
1/2-x,1/2-y,z
1/2+x,1/2-y,-z
1/2-x,1/2+y,-z
1/2-x,1/2-y,-z
1/2+x,1/2+y,-z
1/2-x,1/2+y,z
1/2+x,1/2-y,z
loop_
_atom_site_type_symbol
_atom_site_label
_atom_site_fract_x
_atom_site_fract_y
_atom_site_fract_z
Si Si1 0.172153 0.314995 0.500000
Si Si2 0.919184 0.312296 0.747401
Si Si3 0.171310 0.312139 0.000000
Si Si4 0.828377 0.688572 0.864365
Si Si5 0.419334 0.686316 0.612266
O O1 0.174962 0.500000 0.500000
O O2 0.250000 0.250000 0.500000
O O3 0.129969 0.257390 0.439743
O O4 0.913681 0.500000 0.742431
O O5 0.873664 0.259132 0.805826
O O6 0.898416 0.239152 0.681504
O O7 0.000000 0.274020 0.757940
O O8 0.250000 0.250000 0.000000
O O9 0.142235 0.263467 0.067424
O O10 0.172145 0.500000 0.000000
O O11 0.826714 0.500000 0.863226
O O12 0.750000 0.750000 0.859243
O O13 0.500000 0.735428 0.602810
O O14 0.416937 0.500000 0.607930
#
# Coordination Sequence:
#
# PCOD9492352 Si02
#       5
#     8  16   8  16  16
#     4  12  25  40  59  83 111 139 169 210 257 302
#     4   9  18  33  51  72 100 134 171 209 251 301
#     4   8  14  26  43  65  93 125 163 204 250 302
#     4   9  17  29  47  70  96 128 166 209 254 302
#     4  10  21  38  59  81 106 138 175 212 252 304
#
# _framework density 17.983682000000002
#
# number of rings (size 3 to 8) (size 9 to 14) (size 15 to 20)
#    0.000    2.500    0.000    2.250    0.000    5.000 
#    0.000    3.125    0.000    3.750    0.000    0.000 
#    0.000   14.000    0.000    0.000    0.000    0.000 
#
# Total GULP energy -178416.253894 kJ/mol
# GULP energy per Si atom -5575.507934 kJ/mol
# Density = 1.794275 g / cm^3
# Si number density = 17.983682 Si / 1000 Ang^3
#
#
#
# Elastic Constant Matrix: (Units=GPa)
#
#
# Indices 1 2 3 4 5 6 
#
# 1 78.9950 29.1742 107.2613 0.0000 0.0000 0.0000
# 2 29.1742 32.6331 51.6963 0.0000 0.0000 0.0000
# 3 107.2613 51.6963 221.5077 0.0000 0.0000 0.0000
# 4 0.0000 0.0000 0.0000 19.8400 0.0000 0.0000
# 5 0.0000 0.0000 0.0000 0.0000 39.7222 0.0000
# 6 0.0000 0.0000 0.0000 0.0000 0.0000 23.1647
#
#
#
# Elastic Compliance Matrix: (Units=1/GPa)
#
#
# Indices 1 2 3 4 5 6 
#
# 1 0.038136 -0.007678 -0.016675 0.000000 0.000000 0.000000
# 2 -0.007678 0.050165 -0.007990 0.000000 0.000000 0.000000
# 3 -0.016675 -0.007990 0.014454 0.000000 0.000000 0.000000
# 4 0.000000 0.000000 0.000000 0.050403 0.000000 0.000000
# 5 0.000000 0.000000 0.000000 0.000000 0.025175 0.000000
# 6 0.000000 0.000000 0.000000 0.000000 0.000000 0.043169
#
#
# Mechanical properties :
#
#
# Convention : Reuss Voigt Hill
#
# Bulk Modulus (GPa) = 26.26779 78.82216 52.54497
# Shear Modulus (GPa) = 16.72926 26.21231 21.47079
#
# Velocity S-wave (km/s) = 3.05330 3.82194 3.45904
# Velocity P-wave (km/s) = 5.20273 7.96249 6.72569
#
# Compressibility (1/GPa) = 0.03806944
#
# Stress axis : x y z
#
# Youngs Moduli (GPa) = 26.22181 19.93418 69.18665
#
# Poissons Ratio (x) = 0.15306 1.15367
# Poissons Ratio (y) = 0.20134 0.55278
# Poissons Ratio (z) = 0.43724 0.15927
#
# Static dielectric constant tensor:
#      x y z
#    x 1.577850 0.000000 0.000000 
#    y 0.000000 1.608260 0.000000 
#    z 0.000000 0.000000 1.636090 
# 
# From -- ./inp_files/58861.got.cif
#   From: 2010.05.17/outbox.cif.g08.bks.cpg/sg65_30_cif.got.tgz:58861.got - 2010.06.03 17:01:31.
