data_PCOD9492861
_publ_section_title
;
Structure prediction by ZEFSAII (Michael W. Deem and Ramdas Pophale) SiO2 
 PCOD9492861
Probable space group: C M M M
;
_chemical_formula_sum "Si O2"
_cell_formula_units_Z 72
_cell_length_a 27.720598
_cell_length_b 7.921791
_cell_length_c 14.381868
_cell_angle_alpha 90.000000
_cell_angle_beta 90.000000
_cell_angle_gamma 90.000000
_cell_volume 3158.211957
_symmetry_space_group_name_H-M "C M M M"
_symmetry_group_IT_number 65
_symmetry_cell_setting 'orthorhombic'
loop_
_space_group_symop_operation_xyz
x,y,z
-x,-y,z
x,-y,-z
-x,y,-z
-x,-y,-z
x,y,-z
-x,y,z
x,-y,z
1/2+x,1/2+y,z
1/2-x,1/2-y,z
1/2+x,1/2-y,-z
1/2-x,1/2+y,-z
1/2-x,1/2-y,-z
1/2+x,1/2+y,-z
1/2-x,1/2+y,z
1/2+x,1/2-y,z
loop_
_atom_site_type_symbol
_atom_site_label
_atom_site_fract_x
_atom_site_fract_y
_atom_site_fract_z
Si Si1 0.801966 0.203628 0.210437
Si Si2 0.397135 0.297148 0.106261
Si Si3 0.000000 0.299619 0.892880
Si Si4 0.052334 0.698325 0.613069
Si Si5 0.341748 0.300803 0.396245
O O1 0.750000 0.250000 0.171003
O O2 0.848890 0.265998 0.155468
O O3 0.807774 0.269930 0.316002
O O4 0.804745 0.000000 0.212339
O O5 0.394689 0.500000 0.103958
O O6 0.448910 0.252459 0.150291
O O7 0.397712 0.233236 0.000000
O O8 0.000000 0.500000 0.897413
O O9 0.000000 0.229314 0.000000
O O10 0.051485 0.709056 0.500000
O O11 0.054702 0.500000 0.637363
O O12 0.102859 0.782316 0.638514
O O13 0.000000 0.765328 0.644832
O O14 0.337181 0.226341 0.500000
O O15 0.332340 0.500000 0.403744
#
# Coordination Sequence:
#
# PCOD9492861 Si02
#       5
#    16  16   8  16  16
#     4  10  22  38  54  76 105 137 178 224 264 311
#     4   9  18  35  58  81 108 143 176 208 257 317
#     4   9  17  31  55  87 116 139 170 214 259 307
#     4   8  14  26  45  69  97 128 163 205 253 306
#     4   9  18  33  51  71  98 133 173 216 261 308
#
# _framework density 22.797708
#
# number of rings (size 3 to 8) (size 9 to 14) (size 15 to 20)
#    0.000    3.000    0.000    1.000    0.000    4.444 
#    2.000    2.222    0.000    0.000    0.000    0.000 
#    0.000    0.000    0.000    0.000    0.000    0.000 
#
# Total GULP energy -200855.390981 kJ/mol
# GULP energy per Si atom -5579.316416 kJ/mol
# Density = 2.274582 g / cm^3
# Si number density = 22.797708 Si / 1000 Ang^3
#
#
#
# Elastic Constant Matrix: (Units=GPa)
#
#
# Indices 1 2 3 4 5 6 
#
# 1 184.5532 0.3117 60.0799 0.0000 0.0000 0.0000
# 2 0.3117 16.6425 5.1400 0.0000 0.0000 0.0000
# 3 60.0799 5.1400 61.3416 0.0000 0.0000 0.0000
# 4 0.0000 0.0000 0.0000 4.3218 0.0000 0.0000
# 5 0.0000 0.0000 0.0000 0.0000 27.6320 0.0000
# 6 0.0000 0.0000 0.0000 0.0000 0.0000 17.1106
#
#
#
# Elastic Compliance Matrix: (Units=1/GPa)
#
#
# Indices 1 2 3 4 5 6 
#
# 1 0.008043 0.002343 -0.008074 0.000000 0.000000 0.000000
# 2 0.002343 0.062366 -0.007521 0.000000 0.000000 0.000000
# 3 -0.008074 -0.007521 0.024840 0.000000 0.000000 0.000000
# 4 0.000000 0.000000 0.000000 0.231387 0.000000 0.000000
# 5 0.000000 0.000000 0.000000 0.000000 0.036190 0.000000
# 6 0.000000 0.000000 0.000000 0.000000 0.000000 0.058443
#
#
# Mechanical properties :
#
#
# Convention : Reuss Voigt Hill
#
# Bulk Modulus (GPa) = 14.54629 43.73340 29.13985
# Shear Modulus (GPa) = 10.62276 22.94658 16.78467
#
# Velocity S-wave (km/s) = 2.16095 3.17603 2.71632
# Velocity P-wave (km/s) = 3.55256 5.71615 4.75895
#
# Compressibility (1/GPa) = 0.06874603
#
# Stress axis : x y z
#
# Youngs Moduli (GPa) = 124.33328 16.03439 40.25757
#
# Poissons Ratio (x) = -0.03757 0.32503
# Poissons Ratio (y) = -0.29130 0.30276
# Poissons Ratio (z) = 1.00384 0.12059
#
# Static dielectric constant tensor:
#      x y z
#    x 1.864310 0.000000 0.000000 
#    y 0.000000 1.800890 0.000000 
#    z 0.000000 0.000000 1.926520 
# 
# From -- ./inp_files/46504.got.cif
#   From: 2010.05.17/outbox.cif.g08.bks.cpg/sg65_24_cif.got.tgz:46504.got - 2010.06.03 17:01:31.
