data_PCOD9492879
_publ_section_title
;
Structure prediction by ZEFSAII (Michael W. Deem and Ramdas Pophale) SiO2 
 PCOD9492879
Probable space group: C M M M
;
_chemical_formula_sum "Si O2"
_cell_formula_units_Z 120
_cell_length_a 25.560903
_cell_length_b 18.390503
_cell_length_c 13.482464
_cell_angle_alpha 90.000000
_cell_angle_beta 90.000000
_cell_angle_gamma 90.000000
_cell_volume 6337.807869
_symmetry_space_group_name_H-M "C M M M"
_symmetry_group_IT_number 65
_symmetry_cell_setting 'orthorhombic'
loop_
_space_group_symop_operation_xyz
x,y,z
-x,-y,z
x,-y,-z
-x,y,-z
-x,-y,-z
x,y,-z
-x,y,z
x,-y,z
1/2+x,1/2+y,z
1/2-x,1/2-y,z
1/2+x,1/2-y,-z
1/2-x,1/2+y,-z
1/2-x,1/2-y,-z
1/2+x,1/2+y,-z
1/2-x,1/2+y,z
1/2+x,1/2-y,z
loop_
_atom_site_type_symbol
_atom_site_label
_atom_site_fract_x
_atom_site_fract_y
_atom_site_fract_z
Si Si1 0.557329 0.194388 0.115626
Si Si2 0.439294 0.629889 0.884785
Si Si3 0.252964 0.916828 0.883564
Si Si4 0.345756 0.416770 0.741718
Si Si5 0.500000 0.917452 0.620837
Si Si6 0.839625 0.661501 0.230437
Si Si7 0.612334 0.914525 0.608962
Si Si8 0.809865 0.781483 0.383582
O O1 0.500000 0.172617 0.155777
O O2 0.561113 0.282087 0.120195
O O3 0.607832 0.162029 0.167175
O O4 0.558435 0.174276 0.000000
O O5 0.500000 0.606810 0.869665
O O6 0.399598 0.602545 0.800119
O O7 0.424883 0.610009 0.000000
O O8 0.198445 0.912577 0.826759
O O9 0.290916 0.855867 0.838462
O O10 0.273697 0.000000 0.869653
O O11 0.246136 0.905496 0.000000
O O12 0.348834 0.500000 0.705642
O O13 0.324544 0.361891 0.656696
O O14 0.500000 0.922809 0.500000
O O15 0.556144 0.882234 0.642138
O O16 0.500000 0.000000 0.662717
O O17 0.843352 0.598579 0.312140
O O18 0.837995 0.731724 0.300754
O O19 0.626241 0.886330 0.500000
O O20 0.603312 0.000000 0.600761
O O21 0.824911 0.775514 0.500000
O O22 0.750000 0.750000 0.378408
#
# Coordination Sequence:
#
# PCOD9492879 Si02
#       8
#    16  16  16  16   8  16  16  16
#     4   9  19  34  53  81 117 154 193 238 285 340
#     4   9  18  35  60  91 125 157 191 235 287 345
#     4  10  22  38  56  85 121 152 188 238 291 347
#     4  11  22  40  63  89 120 157 194 232 290 358
#     4   7  12  26  44  64  97 133 168 218 274 321
#     4  12  20  34  60  82 108 150 194 233 292 348
#     4   9  18  31  48  74 105 137 179 230 282 337
#     4  11  24  43  61  85 118 149 193 252 295 339
#
# _framework density 18.933992
#
# number of rings (size 3 to 8) (size 9 to 14) (size 15 to 20)
#    0.000    2.067    2.667    3.200    0.933    1.333 
#    0.000    1.333    0.000    1.200    0.000    3.733 
#    0.000    0.000    0.000    0.000    0.000    0.000 
#
# Total GULP energy -334085.286650 kJ/mol
# GULP energy per Si atom -5568.088111 kJ/mol
# Density = 1.889090 g / cm^3
# Si number density = 18.933992 Si / 1000 Ang^3
#
#
#
# Elastic Constant Matrix: (Units=GPa)
#
#
# Indices 1 2 3 4 5 6 
#
# 1 68.4671 18.5145 27.5309 0.0000 0.0000 0.0000
# 2 18.5145 53.2250 29.8681 0.0000 0.0000 0.0000
# 3 27.5309 29.8681 84.1921 0.0000 0.0000 0.0000
# 4 0.0000 0.0000 0.0000 23.4819 0.0000 0.0000
# 5 0.0000 0.0000 0.0000 0.0000 20.9461 0.0000
# 6 0.0000 0.0000 0.0000 0.0000 0.0000 17.6765
#
#
#
# Elastic Compliance Matrix: (Units=1/GPa)
#
#
# Indices 1 2 3 4 5 6 
#
# 1 0.017340 -0.003558 -0.004408 0.000000 0.000000 0.000000
# 2 -0.003558 0.024188 -0.007418 0.000000 0.000000 0.000000
# 3 -0.004408 -0.007418 0.015950 0.000000 0.000000 0.000000
# 4 0.000000 0.000000 0.000000 0.042586 0.000000 0.000000
# 5 0.000000 0.000000 0.000000 0.000000 0.047742 0.000000
# 6 0.000000 0.000000 0.000000 0.000000 0.000000 0.056572
#
#
# Mechanical properties :
#
#
# Convention : Reuss Voigt Hill
#
# Bulk Modulus (GPa) = 37.43696 39.74568 38.59132
# Shear Modulus (GPa) = 20.48758 21.08562 20.78660
#
# Velocity S-wave (km/s) = 3.29303 3.34074 3.31697
# Velocity P-wave (km/s) = 5.85440 5.99316 5.92419
#
# Compressibility (1/GPa) = 0.02671157
#
# Stress axis : x y z
#
# Youngs Moduli (GPa) = 57.66943 41.34217 62.69417
#
# Poissons Ratio (x) = 0.14711 0.27635
# Poissons Ratio (y) = 0.20520 0.46504
# Poissons Ratio (z) = 0.25420 0.30666
#
# Static dielectric constant tensor:
#      x y z
#    x 1.699390 0.000000 0.000000 
#    y 0.000000 1.713640 0.000000 
#    z 0.000000 0.000000 1.647800 
# 
# From -- ./inp_files/31116.got.cif
#   From: 2010.05.17/outbox.cif.g08.bks.cpg/sg65_16_cif.got.tgz:31116.got - 2010.06.03 17:01:31.
