data_PCOD9492795
_publ_section_title
;
Structure prediction by ZEFSAII (Michael W. Deem and Ramdas Pophale) SiO2 
 PCOD9492795
Probable space group: C M M M
;
_chemical_formula_sum "Si O2"
_cell_formula_units_Z 104
_cell_length_a 25.301992
_cell_length_b 9.453964
_cell_length_c 24.985220
_cell_angle_alpha 90.000000
_cell_angle_beta 90.000000
_cell_angle_gamma 90.000000
_cell_volume 5976.567600
_symmetry_space_group_name_H-M "C M M M"
_symmetry_group_IT_number 65
_symmetry_cell_setting 'orthorhombic'
loop_
_space_group_symop_operation_xyz
x,y,z
-x,-y,z
x,-y,-z
-x,y,-z
-x,-y,-z
x,y,-z
-x,y,z
x,-y,z
1/2+x,1/2+y,z
1/2-x,1/2-y,z
1/2+x,1/2-y,-z
1/2-x,1/2+y,-z
1/2-x,1/2-y,-z
1/2+x,1/2+y,-z
1/2-x,1/2+y,z
1/2+x,1/2-y,z
loop_
_atom_site_type_symbol
_atom_site_label
_atom_site_fract_x
_atom_site_fract_y
_atom_site_fract_z
Si Si1 0.896474 0.331893 0.642177
Si Si2 0.105010 0.667960 0.231512
Si Si3 0.000000 0.162698 0.771711
Si Si4 0.000000 0.838394 0.641598
Si Si5 0.694625 0.830764 0.853127
Si Si6 0.604473 0.167036 0.063600
Si Si7 0.000000 0.836916 0.065103
Si Si8 0.804373 0.668446 0.438995
O O1 0.906278 0.500000 0.636375
O O2 0.886407 0.305962 0.705262
O O3 0.847463 0.292380 0.605047
O O4 0.947784 0.245030 0.625246
O O5 0.094475 0.500000 0.224451
O O6 0.053520 0.755047 0.213188
O O7 0.157143 0.703023 0.197662
O O8 0.000000 0.162141 0.706658
O O9 0.000000 0.000000 0.789659
O O10 0.000000 0.000000 0.623496
O O11 0.750000 0.750000 0.852972
O O12 0.657219 0.795846 0.903887
O O13 0.704058 0.000000 0.853354
O O14 0.553375 0.256026 0.081334
O O15 0.593880 0.000000 0.072753
O O16 0.611912 0.187653 0.000000
O O17 0.000000 0.000000 0.081936
O O18 0.000000 0.834118 0.000000
O O19 0.822525 0.697807 0.500000
O O20 0.795274 0.500000 0.435004
O O21 0.750000 0.750000 0.430382
#
# Coordination Sequence:
#
# PCOD9492795 Si02
#       8
#    16  16   8   8  16  16   8  16
#     4   9  17  31  51  71  94 128 162 190 231 287
#     4   9  18  33  51  71  97 128 159 192 235 287
#     4   9  17  30  50  76 100 123 156 197 239 281
#     4   9  17  29  47  73 101 125 155 197 238 279
#     4  10  22  37  51  70  97 128 163 202 239 278
#     4   9  18  34  54  73  96 129 163 193 234 288
#     4   9  17  30  51  80 106 124 151 196 243 283
#     4   9  18  32  49  70  95 123 159 201 239 277
#
# _framework density 17.401292000000002
#
# number of rings (size 3 to 8) (size 9 to 14) (size 15 to 20)
#    0.000    2.846    0.000    0.692    0.000    6.154 
#    0.000    3.462    0.000    2.308    0.000    0.000 
#    0.000    0.000    0.000    0.000    0.000    0.000 
#
# Total GULP energy -289993.009017 kJ/mol
# GULP energy per Si atom -5576.788635 kJ/mol
# Density = 1.736169 g / cm^3
# Si number density = 17.401292 Si / 1000 Ang^3
#
#
#
# Elastic Constant Matrix: (Units=GPa)
#
#
# Indices 1 2 3 4 5 6 
#
# 1 186.0887 91.4416 80.0201 0.0000 0.0000 0.0000
# 2 91.4416 67.2996 50.8047 0.0000 0.0000 0.0000
# 3 80.0201 50.8047 84.7894 0.0000 0.0000 0.0000
# 4 0.0000 0.0000 0.0000 11.5133 0.0000 0.0000
# 5 0.0000 0.0000 0.0000 0.0000 42.7739 0.0000
# 6 0.0000 0.0000 0.0000 0.0000 0.0000 37.7870
#
#
#
# Elastic Compliance Matrix: (Units=1/GPa)
#
#
# Indices 1 2 3 4 5 6 
#
# 1 0.016879 -0.019919 -0.003995 0.000000 0.000000 0.000000
# 2 -0.019919 0.050636 -0.011542 0.000000 0.000000 0.000000
# 3 -0.003995 -0.011542 0.022480 0.000000 0.000000 0.000000
# 4 0.000000 0.000000 0.000000 0.086856 0.000000 0.000000
# 5 0.000000 0.000000 0.000000 0.000000 0.023379 0.000000
# 6 0.000000 0.000000 0.000000 0.000000 0.000000 0.026464
#
#
# Mechanical properties :
#
#
# Convention : Reuss Voigt Hill
#
# Bulk Modulus (GPa) = 52.40007 86.96783 69.68395
# Shear Modulus (GPa) = 16.44911 26.14225 21.29568
#
# Velocity S-wave (km/s) = 3.07788 3.88018 3.50208
# Velocity P-wave (km/s) = 6.54288 8.37620 7.51565
#
# Compressibility (1/GPa) = 0.01908395
#
# Stress axis : x y z
#
# Youngs Moduli (GPa) = 59.24368 19.74871 44.48356
#
# Poissons Ratio (x) = 0.39337 0.17771
# Poissons Ratio (y) = 1.18005 0.51344
# Poissons Ratio (z) = 0.23668 0.22795
#
# Static dielectric constant tensor:
#      x y z
#    x 1.545870 0.000000 0.000000 
#    y 0.000000 1.581630 0.000000 
#    z 0.000000 0.000000 1.611290 
# 
# From -- ./inp_files/75853.got.cif
#   From: 2010.05.17/outbox.cif.g08.bks.cpg/sg65_38_cif.got.tgz:75853.got - 2010.06.03 17:01:31.
