data_PCOD9492026
_publ_section_title
;
Structure prediction by ZEFSAII (Michael W. Deem and Ramdas Pophale) SiO2 
 PCOD9492026
Probable space group: C M M M
;
_chemical_formula_sum "Si O2"
_cell_formula_units_Z 64
_cell_length_a 35.769365
_cell_length_b 11.470184
_cell_length_c 8.887981
_cell_angle_alpha 90.000000
_cell_angle_beta 90.000000
_cell_angle_gamma 90.000000
_cell_volume 3646.571493
_symmetry_space_group_name_H-M "C M M M"
_symmetry_group_IT_number 65
_symmetry_cell_setting 'orthorhombic'
loop_
_space_group_symop_operation_xyz
x,y,z
-x,-y,z
x,-y,-z
-x,y,-z
-x,-y,-z
x,y,-z
-x,y,z
x,-y,z
1/2+x,1/2+y,z
1/2-x,1/2-y,z
1/2+x,1/2-y,-z
1/2-x,1/2+y,-z
1/2-x,1/2-y,-z
1/2+x,1/2+y,-z
1/2-x,1/2+y,z
1/2+x,1/2-y,z
loop_
_atom_site_type_symbol
_atom_site_label
_atom_site_fract_x
_atom_site_fract_y
_atom_site_fract_z
Si Si1 0.773710 0.634589 0.181686
Si Si2 0.500000 0.861251 0.672306
Si Si3 0.457052 0.500000 0.817356
Si Si4 0.572562 0.251149 0.819392
Si Si5 0.644651 0.862818 0.324615
O O1 0.761853 0.500000 0.226809
O O2 0.750000 0.750000 0.228871
O O3 0.815530 0.651576 0.243975
O O4 0.774101 0.634638 0.000000
O O5 0.500000 0.817412 0.500000
O O6 0.462841 0.819318 0.756394
O O7 0.500000 0.000000 0.668552
O O8 0.500000 0.500000 0.763135
O O9 0.435620 0.616058 0.773188
O O10 0.458948 0.500000 0.000000
O O11 0.611305 0.206349 0.753129
O O12 0.573197 0.242799 0.000000
O O13 0.647917 0.831146 0.500000
O O14 0.635072 0.000000 0.316088
#
# Coordination Sequence:
#
# PCOD9492026 Si02
#       5
#    16   8   8  16  16
#     4   9  18  35  59  85 112 144 184 226 270 325
#     4  11  23  36  51  76 110 141 172 219 274 323
#     4   9  18  36  56  76 104 138 178 226 276 318
#     4  11  21  36  58  79 103 139 184 226 267 320
#     4  10  21  37  56  80 113 147 178 220 273 322
#
# _framework density 17.550730999999999
#
# number of rings (size 3 to 8) (size 9 to 14) (size 15 to 20)
#    0.000    2.000    1.250    2.625    0.000    6.000 
#    2.250    3.125    0.000    0.000    0.000    0.000 
#    0.000    0.000    0.000    0.000    0.000    0.000 
#
# Total GULP energy -178464.474736 kJ/mol
# GULP energy per Si atom -5577.014836 kJ/mol
# Density = 1.751078 g / cm^3
# Si number density = 17.550731 Si / 1000 Ang^3
#
#
#
# Elastic Constant Matrix: (Units=GPa)
#
#
# Indices 1 2 3 4 5 6 
#
# 1 118.5291 89.0822 35.4413 0.0000 0.0000 0.0000
# 2 89.0822 133.1006 42.7504 0.0000 0.0000 0.0000
# 3 35.4413 42.7504 37.8479 0.0000 0.0000 0.0000
# 4 0.0000 0.0000 0.0000 28.9281 0.0000 0.0000
# 5 0.0000 0.0000 0.0000 0.0000 -0.7544 0.0000
# 6 0.0000 0.0000 0.0000 0.0000 0.0000 34.6439
#
#
#
# Elastic Compliance Matrix: (Units=1/GPa)
#
#
# Indices 1 2 3 4 5 6 
#
# 1 0.017552 -0.010151 -0.004970 0.000000 0.000000 0.000000
# 2 -0.010151 0.017661 -0.010444 0.000000 0.000000 0.000000
# 3 -0.004970 -0.010444 0.042872 0.000000 0.000000 0.000000
# 4 0.000000 0.000000 0.000000 0.034568 0.000000 0.000000
# 5 0.000000 0.000000 0.000000 0.000000 -1.325509 0.000000
# 6 0.000000 0.000000 0.000000 0.000000 0.000000 0.028865
#
#
# Mechanical properties :
#
#
# Convention : Reuss Voigt Hill
#
# Bulk Modulus (GPa) = 37.09737 69.33616 53.21676
# Shear Modulus (GPa) = -4.44889 20.71042 8.13076
#
# Velocity S-wave (km/s) = -1.59386 3.43889 2.15471
# Velocity P-wave (km/s) = 4.21852 7.44042 6.04796
#
# Compressibility (1/GPa) = 0.02695609
#
# Stress axis : x y z
#
# Youngs Moduli (GPa) = 56.97391 56.62088 23.32520
#
# Poissons Ratio (x) = 0.57475 0.11593
# Poissons Ratio (y) = 0.57834 0.24360
# Poissons Ratio (z) = 0.28317 0.59133
#
# Static dielectric constant tensor:
#      x y z
#    x 1.553960 0.000000 0.000000 
#    y 0.000000 1.605700 0.000000 
#    z 0.000000 0.000000 1.590670 
# 
# From -- ./inp_files/4948.got.cif
#   From: 2010.05.17/outbox.cif.g08.bks.cpg/sg65_3_cif.got.tgz:4948.got - 2010.06.03 17:01:31.
