data_PCOD9492295
_publ_section_title
;
Structure prediction by ZEFSAII (Michael W. Deem and Ramdas Pophale) SiO2 
 PCOD9492295
Probable space group: C M M M
;
_chemical_formula_sum "Si O2"
_cell_formula_units_Z 50
_cell_length_a 17.872422
_cell_length_b 9.339227
_cell_length_c 15.543869
_cell_angle_alpha 90.000000
_cell_angle_beta 90.000000
_cell_angle_gamma 90.000000
_cell_volume 2594.498771
_symmetry_space_group_name_H-M "C M M M"
_symmetry_group_IT_number 65
_symmetry_cell_setting 'orthorhombic'
loop_
_space_group_symop_operation_xyz
x,y,z
-x,-y,z
x,-y,-z
-x,y,-z
-x,-y,-z
x,y,-z
-x,y,z
x,-y,z
1/2+x,1/2+y,z
1/2-x,1/2-y,z
1/2+x,1/2-y,-z
1/2-x,1/2+y,-z
1/2-x,1/2-y,-z
1/2+x,1/2+y,-z
1/2-x,1/2+y,z
1/2+x,1/2-y,z
loop_
_atom_site_type_symbol
_atom_site_label
_atom_site_fract_x
_atom_site_fract_y
_atom_site_fract_z
Si Si1 0.091097 0.665715 0.000000
Si Si2 0.172715 0.665404 0.674894
Si Si3 0.916640 0.706757 0.500000
Si Si4 0.409545 0.332176 0.826973
Si Si5 0.000000 0.000000 0.500000
O O1 0.113754 0.751967 0.085333
O O2 0.116109 0.500000 0.000000
O O3 0.000000 0.663512 0.000000
O O4 0.185166 0.500000 0.700184
O O5 0.250000 0.750000 0.664782
O O6 0.128338 0.668150 0.585229
O O7 0.124992 0.748431 0.746862
O O8 0.000000 0.643584 0.500000
O O9 0.935335 0.875069 0.500000
O O10 0.500000 0.326456 0.821426
O O11 0.388283 0.500000 0.827640
#
# Coordination Sequence:
#
# PCOD9492295 Si02
#       5
#     8  16   8  16   2
#     4   9  17  33  58  89 122 155 198 251 299 349
#     4  12  26  41  61  88 123 162 202 248 300 358
#     4  10  24  41  68  90 121 155 200 244 298 352
#     4  10  21  37  62  90 122 159 202 248 300 358
#     4   8  24  40  70  92 120 154 200 244 304 356
#
# _framework density 19.271545
#
# number of rings (size 3 to 8) (size 9 to 14) (size 15 to 20)
#    0.480    1.120    0.000    4.320    4.480    6.400 
#    0.000    0.800    0.000    0.000    0.000    0.000 
#    0.000    0.000    0.000    0.000    0.000    0.000 
#
# Total GULP energy -139342.825437 kJ/mol
# GULP energy per Si atom -5573.713017 kJ/mol
# Density = 1.922768 g / cm^3
# Si number density = 19.271545 Si / 1000 Ang^3
#
#
#
# Elastic Constant Matrix: (Units=GPa)
#
#
# Indices 1 2 3 4 5 6 
#
# 1 61.7144 54.5991 54.6624 0.0000 0.0000 0.0000
# 2 54.5991 228.1305 82.2909 0.0000 0.0000 0.0000
# 3 54.6624 82.2909 187.1496 0.0000 0.0000 0.0000
# 4 0.0000 0.0000 0.0000 -220.8423 0.0000 0.0000
# 5 0.0000 0.0000 0.0000 0.0000 -73.7844 0.0000
# 6 0.0000 0.0000 0.0000 0.0000 0.0000 -48.7951
#
#
#
# Elastic Compliance Matrix: (Units=1/GPa)
#
#
# Indices 1 2 3 4 5 6 
#
# 1 0.024461 -0.003895 -0.005432 0.000000 0.000000 0.000000
# 2 -0.003895 0.005830 -0.001426 0.000000 0.000000 0.000000
# 3 -0.005432 -0.001426 0.007557 0.000000 0.000000 0.000000
# 4 0.000000 0.000000 0.000000 -0.004528 0.000000 0.000000
# 5 0.000000 0.000000 0.000000 0.000000 -0.013553 0.000000
# 6 0.000000 0.000000 0.000000 0.000000 0.000000 -0.020494
#
#
# Mechanical properties :
#
#
# Convention : Reuss Voigt Hill
#
# Bulk Modulus (GPa) = 61.19100 95.56658 78.37879
# Shear Modulus (GPa) = 190.65813 -49.65488 70.50163
#
# Velocity S-wave (km/s) = 9.95727 -5.08152 6.05497
# Velocity P-wave (km/s) = 12.80692 3.90743 9.46798
#
# Compressibility (1/GPa) = 0.01634227
#
# Stress axis : x y z
#
# Youngs Moduli (GPa) = 40.88202 171.52776 132.33116
#
# Poissons Ratio (x) = 0.66808 0.71880
# Poissons Ratio (y) = 0.15923 0.18869
# Poissons Ratio (z) = 0.22206 0.24457
#
# Static dielectric constant tensor:
#      x y z
#    x 1.652320 0.000000 0.000000 
#    y 0.000000 1.658500 0.000000 
#    z 0.000000 0.000000 1.642790 
# 
# From -- ./inp_files/43489.got.cif
#   From: 2010.05.17/outbox.cif.g08.bks.cpg/sg65_22_cif.got.tgz:43489.got - 2010.06.03 17:01:31.
