data_PCOD9492156
_publ_section_title
;
Structure prediction by ZEFSAII (Michael W. Deem and Ramdas Pophale) SiO2 
 PCOD9492156
Probable space group: C M M M
;
_chemical_formula_sum "Si O2"
_cell_formula_units_Z 88
_cell_length_a 11.588983
_cell_length_b 27.931988
_cell_length_c 14.513873
_cell_angle_alpha 90.000000
_cell_angle_beta 90.000000
_cell_angle_gamma 90.000000
_cell_volume 4698.189081
_symmetry_space_group_name_H-M "C M M M"
_symmetry_group_IT_number 65
_symmetry_cell_setting 'orthorhombic'
loop_
_space_group_symop_operation_xyz
x,y,z
-x,-y,z
x,-y,-z
-x,y,-z
-x,-y,-z
x,y,-z
-x,y,z
x,-y,z
1/2+x,1/2+y,z
1/2-x,1/2-y,z
1/2+x,1/2-y,-z
1/2-x,1/2+y,-z
1/2-x,1/2-y,-z
1/2+x,1/2+y,-z
1/2-x,1/2+y,z
1/2+x,1/2-y,z
loop_
_atom_site_type_symbol
_atom_site_label
_atom_site_fract_x
_atom_site_fract_y
_atom_site_fract_z
Si Si1 0.867451 0.227280 0.645951
Si Si2 0.782521 0.443017 0.730895
Si Si3 0.870410 0.730401 0.852851
Si Si4 0.135900 0.117306 0.396854
Si Si5 0.000000 0.558060 0.394671
Si Si6 0.365054 0.881172 0.893024
O O1 0.750000 0.250000 0.604115
O O2 0.872837 0.248237 0.749526
O O3 0.843671 0.170538 0.642321
O O4 0.000000 0.234698 0.608326
O O5 0.782454 0.500000 0.741211
O O6 0.677025 0.422839 0.673032
O O7 0.890040 0.428034 0.665712
O O8 0.795240 0.416608 0.827909
O O9 0.750000 0.750000 0.894721
O O10 0.858802 0.673024 0.855529
O O11 0.000000 0.741070 0.892035
O O12 0.187504 0.112777 0.500000
O O13 0.000000 0.113106 0.405846
O O14 0.000000 0.500000 0.399593
O O15 0.000000 0.575896 0.500000
O O16 0.500000 0.895566 0.889085
O O17 0.329530 0.881488 0.000000
#
# Coordination Sequence:
#
# PCOD9492156 Si02
#       6
#    16  16  16  16   8  16
#     4   9  17  32  54  79 113 154 193 235 288 345
#     4  11  21  36  59  83 111 149 192 245 300 349
#     4   9  17  31  53  80 111 151 188 234 290 348
#     4  10  22  39  58  83 117 157 200 243 291 352
#     4   9  18  32  51  79 111 139 172 226 293 347
#     4  10  21  37  57  84 118 154 195 241 294 360
#
# _framework density 18.730622
#
# number of rings (size 3 to 8) (size 9 to 14) (size 15 to 20)
#    0.000    2.273    0.909    2.727    0.000    2.545 
#    1.636    1.818    0.000    1.636    0.000    1.273 
#    0.000    0.000    0.000    0.000    0.000    0.000 
#
# Total GULP energy -245039.540491 kJ/mol
# GULP energy per Si atom -5569.080466 kJ/mol
# Density = 1.868799 g / cm^3
# Si number density = 18.730622 Si / 1000 Ang^3
#
#
#
# Elastic Constant Matrix: (Units=GPa)
#
#
# Indices 1 2 3 4 5 6 
#
# 1 92.4985 28.5200 1.4501 0.0000 0.0000 0.0000
# 2 28.5200 77.7020 49.0877 0.0000 0.0000 0.0000
# 3 1.4501 49.0877 126.6976 0.0000 0.0000 0.0000
# 4 0.0000 0.0000 0.0000 2.5060 0.0000 0.0000
# 5 0.0000 0.0000 0.0000 0.0000 12.8667 0.0000
# 6 0.0000 0.0000 0.0000 0.0000 0.0000 19.7952
#
#
#
# Elastic Compliance Matrix: (Units=1/GPa)
#
#
# Indices 1 2 3 4 5 6 
#
# 1 0.012632 -0.006018 0.002187 0.000000 0.000000 0.000000
# 2 -0.006018 0.019908 -0.007644 0.000000 0.000000 0.000000
# 3 0.002187 -0.007644 0.010829 0.000000 0.000000 0.000000
# 4 0.000000 0.000000 0.000000 0.399048 0.000000 0.000000
# 5 0.000000 0.000000 0.000000 0.000000 0.077720 0.000000
# 6 0.000000 0.000000 0.000000 0.000000 0.000000 0.050517
#
#
# Mechanical properties :
#
#
# Convention : Reuss Voigt Hill
#
# Bulk Modulus (GPa) = 48.97435 50.55709 49.76572
# Shear Modulus (GPa) = 8.32761 21.55624 14.94193
#
# Velocity S-wave (km/s) = 2.11084 3.39611 2.82747
# Velocity P-wave (km/s) = 5.66959 6.51370 6.10625
#
# Compressibility (1/GPa) = 0.02041885
#
# Stress axis : x y z
#
# Youngs Moduli (GPa) = 79.16196 50.23143 92.34078
#
# Poissons Ratio (x) = 0.30231 -0.20196
# Poissons Ratio (y) = 0.47642 0.70587
# Poissons Ratio (z) = -0.17314 0.38398
#
# Static dielectric constant tensor:
#      x y z
#    x 1.727080 0.000000 0.000000 
#    y 0.000000 1.605900 0.000000 
#    z 0.000000 0.000000 1.655910 
# 
# From -- ./inp_files/38403.got.cif
#   From: 2010.05.17/outbox.cif.g08.bks.cpg/sg65_20_cif.got.tgz:38403.got - 2010.06.03 17:01:31.
