data_PCOD9492065
_publ_section_title
;
Structure prediction by ZEFSAII (Michael W. Deem and Ramdas Pophale) SiO2 
 PCOD9492065
Probable space group: C M M M
;
_chemical_formula_sum "Si O2"
_cell_formula_units_Z 88
_cell_length_a 8.765139
_cell_length_b 19.106455
_cell_length_c 29.636496
_cell_angle_alpha 90.000000
_cell_angle_beta 90.000000
_cell_angle_gamma 90.000000
_cell_volume 4963.245735
_symmetry_space_group_name_H-M "C M M M"
_symmetry_group_IT_number 65
_symmetry_cell_setting 'orthorhombic'
loop_
_space_group_symop_operation_xyz
x,y,z
-x,-y,z
x,-y,-z
-x,y,-z
-x,-y,-z
x,y,-z
-x,y,z
x,-y,z
1/2+x,1/2+y,z
1/2-x,1/2-y,z
1/2+x,1/2-y,-z
1/2-x,1/2+y,-z
1/2-x,1/2-y,-z
1/2+x,1/2+y,-z
1/2-x,1/2+y,z
1/2+x,1/2-y,z
loop_
_atom_site_type_symbol
_atom_site_label
_atom_site_fract_x
_atom_site_fract_y
_atom_site_fract_z
Si Si1 0.181388 0.083146 0.728409
Si Si2 0.316519 0.328587 0.000000
Si Si3 0.682650 0.327718 0.448854
Si Si4 0.183643 0.829084 0.902239
Si Si5 0.181786 0.671646 0.809558
Si Si6 0.680741 0.916865 0.631990
O O1 0.264539 0.125813 0.767476
O O2 0.240489 0.104678 0.678944
O O3 0.000000 0.094082 0.731460
O O4 0.212028 0.000000 0.733236
O O5 0.250000 0.250000 0.000000
O O6 0.274798 0.361069 0.951337
O O7 0.500000 0.322926 0.000000
O O8 0.720527 0.351547 0.500000
O O9 0.500000 0.325119 0.444861
O O10 0.750000 0.250000 0.443610
O O11 0.751077 0.376692 0.410511
O O12 0.250000 0.750000 0.903514
O O13 0.253960 0.859813 0.856637
O O14 0.000000 0.826947 0.898222
O O15 0.250000 0.750000 0.804962
O O16 0.000000 0.676263 0.811874
O O17 0.500000 0.904427 0.635193
O O18 0.706191 0.000000 0.626596
#
# Coordination Sequence:
#
# PCOD9492065 Si02
#       6
#    16   8  16  16  16  16
#     4  10  21  38  58  78 102 133 170 212 258 308
#     4   8  14  22  36  58  87 124 161 200 245 297
#     4  10  21  37  57  81 110 143 178 215 255 301
#     4   9  15  25  40  62  93 127 164 204 250 299
#     4  11  21  33  50  74 104 135 170 211 255 303
#     4  10  21  37  57  81 108 137 171 212 256 303
#
# _framework density 17.730333000000002
#
# number of rings (size 3 to 8) (size 9 to 14) (size 15 to 20)
#    0.000    2.182    0.000    4.909    0.000    5.091 
#    0.000    5.455    0.000    0.000    0.000    0.636 
#    0.000    5.091    0.000    0.000    0.000    0.000 
#
# Total GULP energy -245374.137448 kJ/mol
# GULP energy per Si atom -5576.684942 kJ/mol
# Density = 1.768998 g / cm^3
# Si number density = 17.730333 Si / 1000 Ang^3
#
#
#
# Elastic Constant Matrix: (Units=GPa)
#
#
# Indices 1 2 3 4 5 6 
#
# 1 95.9272 39.4430 84.5936 0.0000 0.0000 0.0000
# 2 39.4430 25.6339 57.0415 0.0000 0.0000 0.0000
# 3 84.5936 57.0415 200.5631 0.0000 0.0000 0.0000
# 4 0.0000 0.0000 0.0000 467.1712 0.0000 0.0000
# 5 0.0000 0.0000 0.0000 0.0000 33.5896 0.0000
# 6 0.0000 0.0000 0.0000 0.0000 0.0000 22.3653
#
#
#
# Elastic Compliance Matrix: (Units=1/GPa)
#
#
# Indices 1 2 3 4 5 6 
#
# 1 0.028491 -0.046574 0.001229 0.000000 0.000000 0.000000
# 2 -0.046574 0.182395 -0.032230 0.000000 0.000000 0.000000
# 3 0.001229 -0.032230 0.013634 0.000000 0.000000 0.000000
# 4 0.000000 0.000000 0.000000 0.002141 0.000000 0.000000
# 5 0.000000 0.000000 0.000000 0.000000 0.029771 0.000000
# 6 0.000000 0.000000 0.000000 0.000000 0.000000 0.044712
#
#
# Mechanical properties :
#
#
# Convention : Reuss Voigt Hill
#
# Bulk Modulus (GPa) = 14.41564 76.03117 45.22341
# Shear Modulus (GPa) = 10.42933 114.02828 62.22881
#
# Velocity S-wave (km/s) = 2.42796 8.02821 5.93073
# Velocity P-wave (km/s) = 4.00101 11.35391 8.51233
#
# Compressibility (1/GPa) = 0.06936908
#
# Stress axis : x y z
#
# Youngs Moduli (GPa) = 35.09889 5.48262 73.34591
#
# Poissons Ratio (x) = 0.25535 -0.09015
# Poissons Ratio (y) = 1.63470 2.36395
# Poissons Ratio (z) = -0.04314 0.17671
#
# Static dielectric constant tensor:
#      x y z
#    x 1.589940 0.000000 0.000000 
#    y 0.000000 1.573390 0.000000 
#    z 0.000000 0.000000 1.639560 
# 
# From -- ./inp_files/76586.got.cif
#   From: 2010.05.17/outbox.cif.g08.bks.cpg/sg65_39_cif.got.tgz:76586.got - 2010.06.03 17:01:31.
