data_PCOD9492634
_publ_section_title
;
Structure prediction by ZEFSAII (Michael W. Deem and Ramdas Pophale) SiO2 
 PCOD9492634
Probable space group: C M M M
;
_chemical_formula_sum "Si O2"
_cell_formula_units_Z 72
_cell_length_a 15.246082
_cell_length_b 14.080480
_cell_length_c 17.346763
_cell_angle_alpha 90.000000
_cell_angle_beta 90.000000
_cell_angle_gamma 90.000000
_cell_volume 3723.866955
_symmetry_space_group_name_H-M "C M M M"
_symmetry_group_IT_number 65
_symmetry_cell_setting 'orthorhombic'
loop_
_space_group_symop_operation_xyz
x,y,z
-x,-y,z
x,-y,-z
-x,y,-z
-x,-y,-z
x,y,-z
-x,y,z
x,-y,z
1/2+x,1/2+y,z
1/2-x,1/2-y,z
1/2+x,1/2-y,-z
1/2-x,1/2+y,-z
1/2-x,1/2-y,-z
1/2+x,1/2+y,-z
1/2-x,1/2+y,z
1/2+x,1/2-y,z
loop_
_atom_site_type_symbol
_atom_site_label
_atom_site_fract_x
_atom_site_fract_y
_atom_site_fract_z
Si Si1 0.000000 0.384412 0.914126
Si Si2 0.165100 0.109814 0.167386
Si Si3 0.604320 0.386101 0.000000
Si Si4 0.131163 0.391585 0.213079
Si Si5 0.000000 0.887040 0.592360
Si Si6 0.645145 0.729764 0.682515
O O1 0.080945 0.355529 0.861948
O O2 0.000000 0.500000 0.919752
O O3 0.000000 0.346501 0.000000
O O4 0.267947 0.111184 0.187515
O O5 0.129952 0.171093 0.237987
O O6 0.134004 0.000000 0.171716
O O7 0.144744 0.146614 0.081483
O O8 0.620487 0.500000 0.000000
O O9 0.500000 0.371439 0.000000
O O10 0.106019 0.500000 0.225922
O O11 0.112996 0.332858 0.290019
O O12 0.913928 0.828671 0.622303
O O13 0.000000 0.887026 0.500000
O O14 0.000000 0.000000 0.616978
O O15 0.750000 0.750000 0.665351
#
# Coordination Sequence:
#
# PCOD9492634 Si02
#       6
#     8  16   8  16   8  16
#     4   9  17  28  44  64  93 139 193 247 296 339
#     4   9  18  32  51  76 111 157 205 259 311 361
#     4   9  18  30  45  71 110 158 210 261 314 361
#     4   9  18  33  52  76 107 153 206 251 300 353
#     4  11  25  44  71 104 131 157 194 249 317 388
#     4  10  21  39  62  90 123 163 207 251 310 375
#
# _framework density 19.334741000000001
#
# number of rings (size 3 to 8) (size 9 to 14) (size 15 to 20)
#    0.000    2.556    0.000    1.333    3.111    1.333 
#    2.000    1.667    0.000    1.333    0.000    0.000 
#    0.000    0.000    0.000    0.000    0.000    0.000 
#
# Total GULP energy -200456.378732 kJ/mol
# GULP energy per Si atom -5568.232743 kJ/mol
# Density = 1.929073 g / cm^3
# Si number density = 19.334741 Si / 1000 Ang^3
#
#
#
# Elastic Constant Matrix: (Units=GPa)
#
#
# Indices 1 2 3 4 5 6 
#
# 1 54.0025 36.9255 39.3625 0.0000 0.0000 0.0000
# 2 36.9255 98.5653 50.3638 0.0000 0.0000 0.0000
# 3 39.3625 50.3638 101.6894 0.0000 0.0000 0.0000
# 4 0.0000 0.0000 0.0000 26.5062 0.0000 0.0000
# 5 0.0000 0.0000 0.0000 0.0000 37.8625 0.0000
# 6 0.0000 0.0000 0.0000 0.0000 0.0000 15.2130
#
#
#
# Elastic Compliance Matrix: (Units=1/GPa)
#
#
# Indices 1 2 3 4 5 6 
#
# 1 0.028869 -0.006835 -0.007790 0.000000 0.000000 0.000000
# 2 -0.006835 0.015201 -0.004883 0.000000 0.000000 0.000000
# 3 -0.007790 -0.004883 0.015268 0.000000 0.000000 0.000000
# 4 0.000000 0.000000 0.000000 0.037727 0.000000 0.000000
# 5 0.000000 0.000000 0.000000 0.000000 0.026411 0.000000
# 6 0.000000 0.000000 0.000000 0.000000 0.000000 0.065733
#
#
# Mechanical properties :
#
#
# Convention : Reuss Voigt Hill
#
# Bulk Modulus (GPa) = 49.20625 56.39564 52.80095
# Shear Modulus (GPa) = 21.27668 24.42337 22.85003
#
# Velocity S-wave (km/s) = 3.32088 3.55799 3.44148
# Velocity P-wave (km/s) = 6.34108 6.79046 6.56961
#
# Compressibility (1/GPa) = 0.02032262
#
# Stress axis : x y z
#
# Youngs Moduli (GPa) = 34.63912 65.78432 65.49844
#
# Poissons Ratio (x) = 0.44963 0.51021
# Poissons Ratio (y) = 0.23676 0.31983
# Poissons Ratio (z) = 0.26983 0.32123
#
# Static dielectric constant tensor:
#      x y z
#    x 1.774490 0.000000 0.000000 
#    y 0.000000 1.758530 0.000000 
#    z 0.000000 0.000000 1.641980 
# 
# From -- ./inp_files/42172.got.cif
#   From: 2010.05.17/outbox.cif.g08.bks.cpg/sg65_22_cif.got.tgz:42172.got - 2010.06.03 17:01:31.
