data_PCOD9492404
_publ_section_title
;
Structure prediction by ZEFSAII (Michael W. Deem and Ramdas Pophale) SiO2 
 PCOD9492404
Probable space group: C M M M
;
_chemical_formula_sum "Si O2"
_cell_formula_units_Z 72
_cell_length_a 21.168190
_cell_length_b 8.682043
_cell_length_c 20.674235
_cell_angle_alpha 90.000000
_cell_angle_beta 90.000000
_cell_angle_gamma 90.000000
_cell_volume 3799.575739
_symmetry_space_group_name_H-M "C M M M"
_symmetry_group_IT_number 65
_symmetry_cell_setting 'orthorhombic'
loop_
_space_group_symop_operation_xyz
x,y,z
-x,-y,z
x,-y,-z
-x,y,-z
-x,-y,-z
x,y,-z
-x,y,z
x,-y,z
1/2+x,1/2+y,z
1/2-x,1/2-y,z
1/2+x,1/2-y,-z
1/2-x,1/2+y,-z
1/2-x,1/2-y,-z
1/2+x,1/2+y,-z
1/2-x,1/2+y,z
1/2+x,1/2-y,z
loop_
_atom_site_type_symbol
_atom_site_label
_atom_site_fract_x
_atom_site_fract_y
_atom_site_fract_z
Si Si1 0.926653 0.186968 0.712281
Si Si2 0.923522 0.818763 0.569376
Si Si3 0.000000 0.324953 0.922022
Si Si4 0.865266 0.816816 0.075575
Si Si5 0.184327 0.318188 0.200991
O O1 0.906343 0.242813 0.640084
O O2 0.876278 0.248037 0.762970
O O3 0.000000 0.232732 0.724574
O O4 0.925895 0.000000 0.712238
O O5 0.901990 0.751473 0.500000
O O6 0.000000 0.813434 0.569144
O O7 0.906254 0.000000 0.568950
O O8 0.936692 0.233103 0.906272
O O9 0.000000 0.500000 0.895892
O O10 0.000000 0.336622 0.000000
O O11 0.821809 0.728384 0.125786
O O12 0.858175 0.000000 0.082904
O O13 0.854769 0.777469 0.000000
O O14 0.184184 0.500000 0.207738
O O15 0.250000 0.250000 0.226731
#
# Coordination Sequence:
#
# PCOD9492404 Si02
#       5
#    16  16   8  16  16
#     4   9  18  34  58  87 118 151 187 228 276 333
#     4   7  10  20  44  80 116 146 179 221 268 320
#     4   9  17  31  53  83 115 143 174 217 270 323
#     4  10  21  38  60  84 110 142 182 229 282 339
#     4  12  26  42  59  79 110 149 191 237 287 342
#
# _framework density 18.949484000000002
#
# number of rings (size 3 to 8) (size 9 to 14) (size 15 to 20)
#    0.000    2.556    0.000    5.000    1.556    3.556 
#    0.000    0.000    0.000    1.333    0.000    3.111 
#    0.000    0.000    0.000    0.000    0.000    0.000 
#
# Total GULP energy -200658.169115 kJ/mol
# GULP energy per Si atom -5573.838031 kJ/mol
# Density = 1.890635 g / cm^3
# Si number density = 18.949484 Si / 1000 Ang^3
#
#
#
# Elastic Constant Matrix: (Units=GPa)
#
#
# Indices 1 2 3 4 5 6 
#
# 1 89.7737 28.4023 49.6894 0.0000 0.0000 0.0000
# 2 28.4023 53.7178 30.2779 0.0000 0.0000 0.0000
# 3 49.6894 30.2779 105.0881 0.0000 0.0000 0.0000
# 4 0.0000 0.0000 0.0000 4.4062 0.0000 0.0000
# 5 0.0000 0.0000 0.0000 0.0000 4.0465 0.0000
# 6 0.0000 0.0000 0.0000 0.0000 0.0000 21.3021
#
#
#
# Elastic Compliance Matrix: (Units=1/GPa)
#
#
# Indices 1 2 3 4 5 6 
#
# 1 0.016163 -0.005060 -0.006185 0.000000 0.000000 0.000000
# 2 -0.005060 0.023809 -0.004467 0.000000 0.000000 0.000000
# 3 -0.006185 -0.004467 0.013727 0.000000 0.000000 0.000000
# 4 0.000000 0.000000 0.000000 0.226955 0.000000 0.000000
# 5 0.000000 0.000000 0.000000 0.000000 0.247128 0.000000
# 6 0.000000 0.000000 0.000000 0.000000 0.000000 0.046944
#
#
# Mechanical properties :
#
#
# Convention : Reuss Voigt Hill
#
# Bulk Modulus (GPa) = 44.89206 51.70210 48.29708
# Shear Modulus (GPa) = 8.14895 15.29827 11.72361
#
# Velocity S-wave (km/s) = 2.07598 2.84442 2.49002
# Velocity P-wave (km/s) = 5.43029 6.17503 5.81460
#
# Compressibility (1/GPa) = 0.02227566
#
# Stress axis : x y z
#
# Youngs Moduli (GPa) = 61.86904 42.00052 72.84772
#
# Poissons Ratio (x) = 0.21252 0.45054
# Poissons Ratio (y) = 0.31306 0.32544
# Poissons Ratio (z) = 0.38264 0.18763
#
# Static dielectric constant tensor:
#      x y z
#    x 1.656950 0.000000 0.000000 
#    y 0.000000 1.640160 0.000000 
#    z 0.000000 0.000000 1.729800 
# 
# From -- ./inp_files/64328.got.cif
#   From: 2010.05.17/outbox.cif.g08.bks.cpg/sg65_33_cif.got.tgz:64328.got - 2010.06.03 17:01:31.
