data_PCOD9492742
_publ_section_title
;
Structure prediction by ZEFSAII (Michael W. Deem and Ramdas Pophale) SiO2 
 PCOD9492742
Probable space group: C M M M
;
_chemical_formula_sum "Si O2"
_cell_formula_units_Z 42
_cell_length_a 10.494247
_cell_length_b 22.907112
_cell_length_c 7.645422
_cell_angle_alpha 90.000000
_cell_angle_beta 90.000000
_cell_angle_gamma 90.000000
_cell_volume 1837.905100
_symmetry_space_group_name_H-M "C M M M"
_symmetry_group_IT_number 65
_symmetry_cell_setting 'orthorhombic'
loop_
_space_group_symop_operation_xyz
x,y,z
-x,-y,z
x,-y,-z
-x,y,-z
-x,-y,-z
x,y,-z
-x,y,z
x,-y,z
1/2+x,1/2+y,z
1/2-x,1/2-y,z
1/2+x,1/2-y,-z
1/2-x,1/2+y,-z
1/2-x,1/2-y,-z
1/2+x,1/2+y,-z
1/2-x,1/2+y,z
1/2+x,1/2-y,z
loop_
_atom_site_type_symbol
_atom_site_label
_atom_site_fract_x
_atom_site_fract_y
_atom_site_fract_z
Si Si1 0.500000 0.500000 0.500000
Si Si2 0.272700 0.500000 0.208618
Si Si3 0.500000 0.340057 0.803085
Si Si4 0.275825 0.871946 0.209109
Si Si5 0.000000 0.713431 0.692655
O O1 0.389042 0.500000 0.344077
O O2 0.196033 0.560014 0.237241
O O3 0.311427 0.500000 0.000000
O O4 0.367153 0.360293 0.721486
O O5 0.500000 0.270142 0.812403
O O6 0.500000 0.365213 0.000000
O O7 0.377652 0.827357 0.283786
O O8 0.274863 0.861132 0.000000
O O9 0.000000 0.739369 0.500000
#
# Coordination Sequence:
#
# PCOD9492742 Si02
#       5
#     2   8   8  16   8
#     4  12  22  36  68  96 136 176 202 270 316 384
#     4  10  23  42  66 101 132 170 218 264 330 392
#     4  10  21  40  67  93 120 166 221 268 321 385
#     4  10  22  43  68  93 127 168 218 269 318 392
#     4  12  26  40  59  92 134 172 215 267 325 388
#
# _framework density 22.852104000000001
#
# number of rings (size 3 to 8) (size 9 to 14) (size 15 to 20)
#    0.000    1.524    0.000    4.286    2.667    9.905 
#    3.429    3.810    0.000    0.000    0.000    0.000 
#    0.000    0.000    0.000    0.000    0.000    0.000 
#
# Total GULP energy -117120.022720 kJ/mol
# GULP energy per Si atom -5577.143939 kJ/mol
# Density = 2.280009 g / cm^3
# Si number density = 22.852104 Si / 1000 Ang^3
#
#
#
# Elastic Constant Matrix: (Units=GPa)
#
#
# Indices 1 2 3 4 5 6 
#
# 1 84.9085 29.1869 -16.7669 0.0000 0.0000 0.0000
# 2 29.1869 130.2236 -3.6184 0.0000 0.0000 0.0000
# 3 -16.7669 -3.6184 79.5106 0.0000 0.0000 0.0000
# 4 0.0000 0.0000 0.0000 -31.4467 0.0000 0.0000
# 5 0.0000 0.0000 0.0000 0.0000 17.8773 0.0000
# 6 0.0000 0.0000 0.0000 0.0000 0.0000 53.5191
#
#
#
# Elastic Compliance Matrix: (Units=1/GPa)
#
#
# Indices 1 2 3 4 5 6 
#
# 1 0.013305 -0.002908 0.002673 0.000000 0.000000 0.000000
# 2 -0.002908 0.008324 -0.000234 0.000000 0.000000 0.000000
# 3 0.002673 -0.000234 0.013130 0.000000 0.000000 0.000000
# 4 0.000000 0.000000 0.000000 -0.031800 0.000000 0.000000
# 5 0.000000 0.000000 0.000000 0.000000 0.055937 0.000000
# 6 0.000000 0.000000 0.000000 0.000000 0.000000 0.018685
#
#
# Mechanical properties :
#
#
# Convention : Reuss Voigt Hill
#
# Bulk Modulus (GPa) = 29.56681 34.69397 32.13039
# Shear Modulus (GPa) = 55.68394 27.04600 41.36497
#
# Velocity S-wave (km/s) = 4.94166 3.44397 4.25916
# Velocity P-wave (km/s) = 6.74733 5.57041 6.18692
#
# Compressibility (1/GPa) = 0.03382170
#
# Stress axis : x y z
#
# Youngs Moduli (GPa) = 75.16082 120.13034 76.16134
#
# Poissons Ratio (x) = 0.34930 -0.20361
# Poissons Ratio (y) = 0.21855 0.01785
# Poissons Ratio (z) = -0.20093 0.02815
#
# Static dielectric constant tensor:
#      x y z
#    x 1.822060 0.000000 0.000000 
#    y 0.000000 1.821030 0.000000 
#    z 0.000000 0.000000 1.860930 
# 
# From -- ./inp_files/3882.got.cif
#   From: 2010.05.17/outbox.cif.g08.bks.cpg/sg65_2_cif.got.tgz:3882.got - 2010.06.03 17:01:31.
