data_PCOD9492765
_publ_section_title
;
Structure prediction by ZEFSAII (Michael W. Deem and Ramdas Pophale) SiO2 
 PCOD9492765
Probable space group: C M M M
;
_chemical_formula_sum "Si O2"
_cell_formula_units_Z 68
_cell_length_a 7.697890
_cell_length_b 23.688775
_cell_length_c 18.342313
_cell_angle_alpha 90.000000
_cell_angle_beta 90.000000
_cell_angle_gamma 90.000000
_cell_volume 3344.786518
_symmetry_space_group_name_H-M "C M M M"
_symmetry_group_IT_number 65
_symmetry_cell_setting 'orthorhombic'
loop_
_space_group_symop_operation_xyz
x,y,z
-x,-y,z
x,-y,-z
-x,y,-z
-x,-y,-z
x,y,-z
-x,y,z
x,-y,z
1/2+x,1/2+y,z
1/2-x,1/2-y,z
1/2+x,1/2-y,-z
1/2-x,1/2+y,-z
1/2-x,1/2-y,-z
1/2+x,1/2+y,-z
1/2-x,1/2+y,z
1/2+x,1/2-y,z
loop_
_atom_site_type_symbol
_atom_site_label
_atom_site_fract_x
_atom_site_fract_y
_atom_site_fract_z
Si Si1 0.208882 0.315624 0.500000
Si Si2 0.707615 0.185818 0.083944
Si Si3 0.307649 0.405072 0.202242
Si Si4 0.798073 0.378280 0.643613
Si Si5 0.708788 0.500000 0.414152
Si Si6 0.500000 0.000000 0.798434
O O1 0.250000 0.250000 0.500000
O O2 0.275327 0.344825 0.426030
O O3 0.000000 0.324263 0.500000
O O4 0.500000 0.179023 0.085200
O O5 0.750000 0.250000 0.106306
O O6 0.786104 0.139246 0.136851
O O7 0.767496 0.179049 0.000000
O O8 0.500000 0.430854 0.199039
O O9 0.292167 0.371890 0.279065
O O10 0.153395 0.450571 0.200950
O O11 0.783723 0.444249 0.622582
O O12 0.000000 0.362992 0.652346
O O13 0.500000 0.500000 0.406506
O O14 0.751254 0.500000 0.500000
#
# Coordination Sequence:
#
# PCOD9492765 Si02
#       6
#     8  16  16  16   8   4
#     4  10  24  41  62  85 123 173 217 273 339 397
#     4  10  21  42  72 105 139 175 225 286 338 396
#     4  12  25  43  69  99 137 186 227 275 347 407
#     4  11  22  41  61  88 126 166 215 274 330 390
#     4  11  22  35  57  90 119 154 210 270 318 384
#     4  12  24  48  65  99 148 180 226 290 326 421
#
# _framework density 20.330147
#
# number of rings (size 3 to 8) (size 9 to 14) (size 15 to 20)
#    0.000    1.059    3.529    2.824    0.000    4.706 
#    0.000    3.529    0.000    1.412    0.000    0.000 
#    0.000    0.000    0.000    0.000    0.000    0.000 
#
# Total GULP energy -189574.638131 kJ/mol
# GULP energy per Si atom -5575.724651 kJ/mol
# Density = 2.028388 g / cm^3
# Si number density = 20.330147 Si / 1000 Ang^3
#
#
#
# Elastic Constant Matrix: (Units=GPa)
#
#
# Indices 1 2 3 4 5 6 
#
# 1 139.5013 25.6162 34.0418 0.0000 0.0000 0.0000
# 2 25.6162 114.1577 66.9647 0.0000 0.0000 0.0000
# 3 34.0418 66.9647 113.0050 0.0000 0.0000 0.0000
# 4 0.0000 0.0000 0.0000 -43.1134 0.0000 0.0000
# 5 0.0000 0.0000 0.0000 0.0000 2.3646 0.0000
# 6 0.0000 0.0000 0.0000 0.0000 0.0000 31.0195
#
#
#
# Elastic Compliance Matrix: (Units=1/GPa)
#
#
# Indices 1 2 3 4 5 6 
#
# 1 0.007761 -0.000567 -0.002002 0.000000 0.000000 0.000000
# 2 -0.000567 0.013469 -0.007810 0.000000 0.000000 0.000000
# 3 -0.002002 -0.007810 0.014080 0.000000 0.000000 0.000000
# 4 0.000000 0.000000 0.000000 -0.023195 0.000000 0.000000
# 5 0.000000 0.000000 0.000000 0.000000 0.422899 0.000000
# 6 0.000000 0.000000 0.000000 0.000000 0.000000 0.032238
#
#
# Mechanical properties :
#
#
# Convention : Reuss Voigt Hill
#
# Bulk Modulus (GPa) = 68.72257 68.87885 68.80071
# Shear Modulus (GPa) = 10.14484 14.05690 12.10087
#
# Velocity S-wave (km/s) = 2.23626 2.63236 2.44236
# Velocity P-wave (km/s) = 6.36746 6.57212 6.47060
#
# Compressibility (1/GPa) = 0.01455126
#
# Stress axis : x y z
#
# Youngs Moduli (GPa) = 128.84861 74.24641 71.02028
#
# Poissons Ratio (x) = 0.04212 0.14217
# Poissons Ratio (y) = 0.07309 0.55470
# Poissons Ratio (z) = 0.25793 0.57989
#
# Static dielectric constant tensor:
#      x y z
#    x 1.740250 0.000000 0.000000 
#    y 0.000000 1.668970 0.000000 
#    z 0.000000 0.000000 1.738140 
# 
# From -- ./inp_files/49243.got.cif
#   From: 2010.05.17/outbox.cif.g08.bks.cpg/sg65_25_cif.got.tgz:49243.got - 2010.06.03 17:01:31.
