data_PCOD9492762
_publ_section_title
;
Structure prediction by ZEFSAII (Michael W. Deem and Ramdas Pophale) SiO2 
 PCOD9492762
Probable space group: C M M M
;
_chemical_formula_sum "Si O2"
_cell_formula_units_Z 34
_cell_length_a 15.606496
_cell_length_b 13.820216
_cell_length_c 8.881942
_cell_angle_alpha 90.000000
_cell_angle_beta 90.000000
_cell_angle_gamma 90.000000
_cell_volume 1915.702955
_symmetry_space_group_name_H-M "C M M M"
_symmetry_group_IT_number 65
_symmetry_cell_setting 'orthorhombic'
loop_
_space_group_symop_operation_xyz
x,y,z
-x,-y,z
x,-y,-z
-x,y,-z
-x,-y,-z
x,y,-z
-x,y,z
x,-y,z
1/2+x,1/2+y,z
1/2-x,1/2-y,z
1/2+x,1/2-y,-z
1/2-x,1/2+y,-z
1/2-x,1/2-y,-z
1/2+x,1/2+y,-z
1/2-x,1/2+y,z
1/2+x,1/2-y,z
loop_
_atom_site_type_symbol
_atom_site_label
_atom_site_fract_x
_atom_site_fract_y
_atom_site_fract_z
Si Si1 0.500000 0.800539 0.666387
Si Si2 0.500000 0.000000 0.500000
Si Si3 0.840662 0.798875 0.180332
Si Si4 0.101955 0.000000 0.319767
O O1 0.500000 0.750458 0.500000
O O2 0.500000 0.913565 0.628313
O O3 0.416620 0.767111 0.755182
O O4 0.750000 0.750000 0.219558
O O5 0.854549 0.904404 0.251843
O O6 0.846597 0.806271 0.000000
O O7 0.109950 0.000000 0.500000
O O8 0.000000 0.000000 0.281989
#
# Coordination Sequence:
#
# PCOD9492762 Si02
#       4
#     8   2  16   8
#     4  10  21  42  64  88 125 169 212 261 316 371
#     4   8  24  40  62  86 128 162 214 264 316 378
#     4  11  24  41  65  97 131 168 213 264 321 385
#     4  11  23  40  67 100 127 169 218 265 323 379
#
# _framework density 17.748054
#
# number of rings (size 3 to 8) (size 9 to 14) (size 15 to 20)
#    0.706    0.706    2.353    2.824    0.000    6.588 
#    4.235    4.706    0.000    0.000    0.000    0.000 
#    0.000    0.000    0.000    0.000    0.000    0.000 
#
# Total GULP energy -94648.006675 kJ/mol
# GULP energy per Si atom -5567.529804 kJ/mol
# Density = 1.770766 g / cm^3
# Si number density = 17.748054 Si / 1000 Ang^3
#
#
#
# Elastic Constant Matrix: (Units=GPa)
#
#
# Indices 1 2 3 4 5 6 
#
# 1 181.3396 102.0270 84.2934 0.0000 0.0000 0.0000
# 2 102.0270 209.9370 70.4757 0.0000 0.0000 0.0000
# 3 84.2934 70.4757 86.1090 0.0000 0.0000 0.0000
# 4 0.0000 0.0000 0.0000 31.2289 0.0000 0.0000
# 5 0.0000 0.0000 0.0000 0.0000 44.9069 0.0000
# 6 0.0000 0.0000 0.0000 0.0000 0.0000 22.1223
#
#
#
# Elastic Compliance Matrix: (Units=1/GPa)
#
#
# Indices 1 2 3 4 5 6 
#
# 1 0.010910 -0.002367 -0.008743 0.000000 0.000000 0.000000
# 2 -0.002367 0.007082 -0.003478 0.000000 0.000000 0.000000
# 3 -0.008743 -0.003478 0.023019 0.000000 0.000000 0.000000
# 4 0.000000 0.000000 0.000000 0.032022 0.000000 0.000000
# 5 0.000000 0.000000 0.000000 0.000000 0.022268 0.000000
# 6 0.000000 0.000000 0.000000 0.000000 0.000000 0.045203
#
#
# Mechanical properties :
#
#
# Convention : Reuss Voigt Hill
#
# Bulk Modulus (GPa) = 84.50702 110.10862 97.30782
# Shear Modulus (GPa) = 28.79759 34.35757 31.57758
#
# Velocity S-wave (km/s) = 4.03249 4.40460 4.22265
# Velocity P-wave (km/s) = 8.33064 9.38306 8.87247
#
# Compressibility (1/GPa) = 0.01183334
#
# Stress axis : x y z
#
# Youngs Moduli (GPa) = 91.65497 141.21184 43.44317
#
# Poissons Ratio (x) = 0.33431 0.37982
# Poissons Ratio (y) = 0.21698 0.15111
# Poissons Ratio (z) = 0.80132 0.49119
#
# Static dielectric constant tensor:
#      x y z
#    x 1.593330 0.000000 0.000000 
#    y 0.000000 1.582720 0.000000 
#    z 0.000000 0.000000 1.601430 
# 
# From -- ./inp_files/3411.got.cif
#   From: 2010.05.17/outbox.cif.g08.bks.cpg/sg65_2_cif.got.tgz:3411.got - 2010.06.03 17:01:31.
