data_PCOD9492225
_publ_section_title
;
Structure prediction by ZEFSAII (Michael W. Deem and Ramdas Pophale) SiO2 
 PCOD9492225
Probable space group: C M M M
;
_chemical_formula_sum "Si O2"
_cell_formula_units_Z 72
_cell_length_a 8.908825
_cell_length_b 27.092125
_cell_length_c 16.101891
_cell_angle_alpha 90.000000
_cell_angle_beta 90.000000
_cell_angle_gamma 90.000000
_cell_volume 3886.336318
_symmetry_space_group_name_H-M "C M M M"
_symmetry_group_IT_number 65
_symmetry_cell_setting 'orthorhombic'
loop_
_space_group_symop_operation_xyz
x,y,z
-x,-y,z
x,-y,-z
-x,y,-z
-x,-y,-z
x,y,-z
-x,y,z
x,-y,z
1/2+x,1/2+y,z
1/2-x,1/2-y,z
1/2+x,1/2-y,-z
1/2-x,1/2+y,-z
1/2-x,1/2-y,-z
1/2+x,1/2+y,-z
1/2-x,1/2+y,z
1/2+x,1/2-y,z
loop_
_atom_site_type_symbol
_atom_site_label
_atom_site_fract_x
_atom_site_fract_y
_atom_site_fract_z
Si Si1 0.319522 0.104083 0.819598
Si Si2 0.669598 0.057914 0.500000
Si Si3 0.820255 0.196694 0.500000
Si Si4 0.817363 0.500000 0.096684
Si Si5 0.820212 0.118325 0.361136
Si Si6 0.827706 0.199114 0.099988
O O1 0.500000 0.104531 0.818542
O O2 0.256010 0.113181 0.727686
O O3 0.259418 0.150138 0.872866
O O4 0.271033 0.050819 0.857378
O O5 0.500000 0.079397 0.500000
O O6 0.760384 0.074842 0.419571
O O7 0.656912 0.000000 0.500000
O O8 0.750000 0.250000 0.500000
O O9 0.778139 0.166175 0.416941
O O10 0.000000 0.199724 0.500000
O O11 0.000000 0.500000 0.096633
O O12 0.769010 0.500000 0.000000
O O13 0.000000 0.117262 0.352886
O O14 0.750000 0.250000 0.129257
O O15 0.000000 0.197006 0.129682
O O16 0.829369 0.200703 0.000000
#
# Coordination Sequence:
#
# PCOD9492225 Si02
#       6
#    16   8   8   8  16  16
#     4  11  22  37  60  88 120 157 202 251 300 357
#     4  10  21  37  59  83 110 144 188 236 286 343
#     4   9  20  38  60  82 111 150 190 234 285 350
#     4   9  20  38  59  84 117 158 201 247 302 359
#     4  10  22  39  56  83 118 151 191 236 291 351
#     4  10  21  38  60  86 116 152 196 247 304 365
#
# _framework density 18.526447000000001
#
# number of rings (size 3 to 8) (size 9 to 14) (size 15 to 20)
#    0.000    2.000    0.000    3.667    1.556    6.667 
#    0.000    3.889    0.000    4.000    0.000    0.000 
#    0.000    0.000    0.000    0.000    0.000    0.000 
#
# Total GULP energy -200882.241536 kJ/mol
# GULP energy per Si atom -5580.062265 kJ/mol
# Density = 1.848428 g / cm^3
# Si number density = 18.526447 Si / 1000 Ang^3
#
#
#
# Elastic Constant Matrix: (Units=GPa)
#
#
# Indices 1 2 3 4 5 6 
#
# 1 84.3753 59.4018 39.8458 0.0000 0.0000 0.0000
# 2 59.4018 175.3580 64.0571 0.0000 0.0000 0.0000
# 3 39.8458 64.0571 97.8388 0.0000 0.0000 0.0000
# 4 0.0000 0.0000 0.0000 -74.2973 0.0000 0.0000
# 5 0.0000 0.0000 0.0000 0.0000 35.0044 0.0000
# 6 0.0000 0.0000 0.0000 0.0000 0.0000 29.4253
#
#
#
# Elastic Compliance Matrix: (Units=1/GPa)
#
#
# Indices 1 2 3 4 5 6 
#
# 1 0.016714 -0.004173 -0.004075 0.000000 0.000000 0.000000
# 2 -0.004173 0.008537 -0.003890 0.000000 0.000000 0.000000
# 3 -0.004075 -0.003890 0.014427 0.000000 0.000000 0.000000
# 4 0.000000 0.000000 0.000000 -0.013459 0.000000 0.000000
# 5 0.000000 0.000000 0.000000 0.000000 0.028568 0.000000
# 6 0.000000 0.000000 0.000000 0.000000 0.000000 0.033984
#
#
# Mechanical properties :
#
#
# Convention : Reuss Voigt Hill
#
# Bulk Modulus (GPa) = 64.92330 76.02017 70.47174
# Shear Modulus (GPa) = 42.30788 10.97765 26.64277
#
# Velocity S-wave (km/s) = 4.78394 2.43685 3.79633
# Velocity P-wave (km/s) = 8.10151 7.00286 7.57214
#
# Compressibility (1/GPa) = 0.01540279
#
# Stress axis : x y z
#
# Youngs Moduli (GPa) = 59.82942 117.13296 69.31410
#
# Poissons Ratio (x) = 0.48885 0.28242
# Poissons Ratio (y) = 0.24970 0.26962
# Poissons Ratio (z) = 0.24378 0.45563
#
# Static dielectric constant tensor:
#      x y z
#    x 1.640980 0.000000 0.000000 
#    y 0.000000 1.630510 0.000000 
#    z 0.000000 0.000000 1.846490 
# 
# From -- ./inp_files/36693.got.cif
#   From: 2010.05.17/outbox.cif.g08.bks.cpg/sg65_19_cif.got.tgz:36693.got - 2010.06.03 17:01:31.
