data_PCOD9492538
_publ_section_title
;
Structure prediction by ZEFSAII (Michael W. Deem and Ramdas Pophale) SiO2 
 PCOD9492538
Probable space group: C M M M
;
_chemical_formula_sum "Si O2"
_cell_formula_units_Z 56
_cell_length_a 12.788503
_cell_length_b 24.956312
_cell_length_c 8.932660
_cell_angle_alpha 90.000000
_cell_angle_beta 90.000000
_cell_angle_gamma 90.000000
_cell_volume 2850.893016
_symmetry_space_group_name_H-M "C M M M"
_symmetry_group_IT_number 65
_symmetry_cell_setting 'orthorhombic'
loop_
_space_group_symop_operation_xyz
x,y,z
-x,-y,z
x,-y,-z
-x,y,-z
-x,-y,-z
x,y,-z
-x,y,z
x,-y,z
1/2+x,1/2+y,z
1/2-x,1/2-y,z
1/2+x,1/2-y,-z
1/2-x,1/2+y,-z
1/2-x,1/2-y,-z
1/2+x,1/2+y,-z
1/2-x,1/2+y,z
1/2+x,1/2-y,z
loop_
_atom_site_type_symbol
_atom_site_label
_atom_site_fract_x
_atom_site_fract_y
_atom_site_fract_z
Si Si1 0.125207 0.000000 0.681005
Si Si2 0.500000 0.762893 0.673294
Si Si3 0.721165 0.088195 0.820138
Si Si4 0.000000 0.387134 0.317858
Si Si5 0.673320 0.700766 0.836659
O O1 0.191371 0.049689 0.748076
O O2 0.131141 0.000000 0.500000
O O3 0.000000 0.000000 0.720279
O O4 0.500000 0.772549 0.500000
O O5 0.500000 0.824000 0.737400
O O6 0.594589 0.724952 0.719173
O O7 0.605994 0.085739 0.745888
O O8 0.763690 0.148187 0.793553
O O9 0.713578 0.079158 0.000000
O O10 0.000000 0.389542 0.500000
O O11 0.750000 0.750000 0.855420
O O12 0.623430 0.689945 0.000000
#
# Coordination Sequence:
#
# PCOD9492538 Si02
#       5
#     8   8  16   8  16
#     4  11  27  50  71  94 129 167 209 265 326 385
#     4  11  23  35  56  91 132 173 211 257 313 382
#     4  11  24  43  69  97 127 169 221 269 315 377
#     4  11  23  40  64  97 136 172 210 263 324 382
#     4  10  21  38  61  91 128 169 210 256 314 376
#
# _framework density 19.642969999999998
#
# number of rings (size 3 to 8) (size 9 to 14) (size 15 to 20)
#    0.000    1.286    2.857    2.143    2.000    5.714 
#    0.000    2.857    0.000    0.000    0.000    0.000 
#    0.000    0.000    0.000    0.000    0.000    0.000 
#
# Total GULP energy -156052.332092 kJ/mol
# GULP energy per Si atom -5573.297575 kJ/mol
# Density = 1.959826 g / cm^3
# Si number density = 19.642970 Si / 1000 Ang^3
#
#
#
# Elastic Constant Matrix: (Units=GPa)
#
#
# Indices 1 2 3 4 5 6 
#
# 1 185.7805 70.7754 75.9302 0.0000 0.0000 0.0000
# 2 70.7754 117.5336 35.3293 0.0000 0.0000 0.0000
# 3 75.9302 35.3293 90.2422 0.0000 0.0000 0.0000
# 4 0.0000 0.0000 0.0000 31.7976 0.0000 0.0000
# 5 0.0000 0.0000 0.0000 0.0000 39.9775 0.0000
# 6 0.0000 0.0000 0.0000 0.0000 0.0000 105.7531
#
#
#
# Elastic Compliance Matrix: (Units=1/GPa)
#
#
# Indices 1 2 3 4 5 6 
#
# 1 0.009466 -0.003747 -0.006498 0.000000 0.000000 0.000000
# 2 -0.003747 0.011126 -0.001203 0.000000 0.000000 0.000000
# 3 -0.006498 -0.001203 0.017019 0.000000 0.000000 0.000000
# 4 0.000000 0.000000 0.000000 0.031449 0.000000 0.000000
# 5 0.000000 0.000000 0.000000 0.000000 0.025014 0.000000
# 6 0.000000 0.000000 0.000000 0.000000 0.000000 0.009456
#
#
# Mechanical properties :
#
#
# Convention : Reuss Voigt Hill
#
# Bulk Modulus (GPa) = 67.95345 84.18069 76.06707
# Shear Modulus (GPa) = 38.07170 49.60705 43.83938
#
# Velocity S-wave (km/s) = 4.40726 5.03082 4.72933
# Velocity P-wave (km/s) = 7.78254 8.75751 8.28438
#
# Compressibility (1/GPa) = 0.01471596
#
# Stress axis : x y z
#
# Youngs Moduli (GPa) = 105.64377 89.87846 58.75619
#
# Poissons Ratio (x) = 0.33677 0.38178
# Poissons Ratio (y) = 0.39584 0.07069
# Poissons Ratio (z) = 0.68644 0.10814
#
# Static dielectric constant tensor:
#      x y z
#    x 1.675720 0.000000 0.000000 
#    y 0.000000 1.664820 0.000000 
#    z 0.000000 0.000000 1.714290 
# 
# From -- ./inp_files/4455.got.cif
#   From: 2010.05.17/outbox.cif.g08.bks.cpg/sg65_3_cif.got.tgz:4455.got - 2010.06.03 17:01:31.
