data_PCOD9492627
_publ_section_title
;
Structure prediction by ZEFSAII (Michael W. Deem and Ramdas Pophale) SiO2 
 PCOD9492627
Probable space group: C M M M
;
_chemical_formula_sum "Si O2"
_cell_formula_units_Z 112
_cell_length_a 16.110341
_cell_length_b 14.836912
_cell_length_c 23.942207
_cell_angle_alpha 90.000000
_cell_angle_beta 90.000000
_cell_angle_gamma 90.000000
_cell_volume 5722.850952
_symmetry_space_group_name_H-M "C M M M"
_symmetry_group_IT_number 65
_symmetry_cell_setting 'orthorhombic'
loop_
_space_group_symop_operation_xyz
x,y,z
-x,-y,z
x,-y,-z
-x,y,-z
-x,-y,-z
x,y,-z
-x,y,z
x,-y,z
1/2+x,1/2+y,z
1/2-x,1/2-y,z
1/2+x,1/2-y,-z
1/2-x,1/2+y,-z
1/2-x,1/2-y,-z
1/2+x,1/2+y,-z
1/2-x,1/2+y,z
1/2+x,1/2-y,z
loop_
_atom_site_type_symbol
_atom_site_label
_atom_site_fract_x
_atom_site_fract_y
_atom_site_fract_z
Si Si1 0.875677 0.604268 0.063005
Si Si2 0.405373 0.892218 0.361682
Si Si3 0.094725 0.892618 0.357204
Si Si4 0.847976 0.252564 0.273235
Si Si5 0.324442 0.395222 0.937522
Si Si6 0.093911 0.240371 0.148222
Si Si7 0.247810 0.109463 0.563710
O O1 0.898681 0.500000 0.071658
O O2 0.775353 0.609345 0.063946
O O3 0.906505 0.669692 0.110820
O O4 0.901605 0.630252 0.000000
O O5 0.500000 0.873405 0.380553
O O6 0.387495 0.837666 0.305181
O O7 0.332921 0.864641 0.404890
O O8 0.398561 0.000000 0.353047
O O9 0.111610 0.835475 0.301616
O O10 0.165919 0.864717 0.401293
O O11 0.000000 0.876003 0.376474
O O12 0.103191 0.000000 0.347473
O O13 0.750000 0.250000 0.284436
O O14 0.863130 0.255631 0.207454
O O15 0.348002 0.500000 0.930933
O O16 0.360607 0.333600 0.889487
O O17 0.350753 0.365420 0.000000
O O18 0.000000 0.211266 0.159051
O O19 0.245262 0.141246 0.500000
O O20 0.247653 0.000000 0.562418
#
# Coordination Sequence:
#
# PCOD9492627 Si02
#       7
#    16  16  16  16  16  16  16
#     4   9  19  38  62  85 112 149 192 237 288 348
#     4  10  21  39  62  88 121 158 197 246 300 352
#     4  10  21  39  62  88 121 158 197 246 300 352
#     4  12  24  41  63  82 112 157 204 249 293 352
#     4   9  19  38  62  85 112 149 192 237 288 348
#     4  12  25  37  54  85 119 150 191 241 292 349
#     4   9  18  35  61  93 124 157 199 240 290 356
#
# _framework density 19.570665000000002
#
# number of rings (size 3 to 8) (size 9 to 14) (size 15 to 20)
#    0.000    1.857    1.429    3.857    0.000    4.571 
#    0.000    5.714    0.000    1.714    0.000    0.000 
#    0.000    0.000    0.000    0.000    0.000    0.000 
#
# Total GULP energy -312829.296298 kJ/mol
# GULP energy per Si atom -5586.237434 kJ/mol
# Density = 1.952612 g / cm^3
# Si number density = 19.570665 Si / 1000 Ang^3
#
#
#
# Elastic Constant Matrix: (Units=GPa)
#
#
# Indices 1 2 3 4 5 6 
#
# 1 133.8618 38.9166 49.9290 0.0000 0.0000 0.0000
# 2 38.9166 72.2525 52.9776 0.0000 0.0000 0.0000
# 3 49.9290 52.9776 140.5014 0.0000 0.0000 0.0000
# 4 0.0000 0.0000 0.0000 391.5235 0.0000 0.0000
# 5 0.0000 0.0000 0.0000 0.0000 6.0710 0.0000
# 6 0.0000 0.0000 0.0000 0.0000 0.0000 35.8187
#
#
#
# Elastic Compliance Matrix: (Units=1/GPa)
#
#
# Indices 1 2 3 4 5 6 
#
# 1 0.009225 -0.003545 -0.001942 0.000000 0.000000 0.000000
# 2 -0.003545 0.020491 -0.006467 0.000000 0.000000 0.000000
# 3 -0.001942 -0.006467 0.010246 0.000000 0.000000 0.000000
# 4 0.000000 0.000000 0.000000 0.002554 0.000000 0.000000
# 5 0.000000 0.000000 0.000000 0.000000 0.164717 0.000000
# 6 0.000000 0.000000 0.000000 0.000000 0.000000 0.027918
#
#
# Mechanical properties :
#
#
# Convention : Reuss Voigt Hill
#
# Bulk Modulus (GPa) = 62.28449 70.02914 66.15681
# Shear Modulus (GPa) = 18.90996 100.33547 59.62272
#
# Velocity S-wave (km/s) = 3.11181 7.16796 5.52553
# Velocity P-wave (km/s) = 6.69371 10.21599 8.63632
#
# Compressibility (1/GPa) = 0.01605536
#
# Stress axis : x y z
#
# Youngs Moduli (GPa) = 108.39797 48.80080 97.60261
#
# Poissons Ratio (x) = 0.17302 0.18950
# Poissons Ratio (y) = 0.38431 0.63116
# Poissons Ratio (z) = 0.21046 0.31558
#
# Static dielectric constant tensor:
#      x y z
#    x 1.700510 0.000000 0.000000 
#    y 0.000000 1.689660 0.000000 
#    z 0.000000 0.000000 1.646650 
# 
# From -- ./inp_files/69960.got.cif
#   From: 2010.05.17/outbox.cif.g08.bks.cpg/sg65_35_cif.got.tgz:69960.got - 2010.06.03 17:01:31.
