data_PCOD9492053
_publ_section_title
;
Structure prediction by ZEFSAII (Michael W. Deem and Ramdas Pophale) SiO2 
 PCOD9492053
Probable space group: C M M M
;
_chemical_formula_sum "Si O2"
_cell_formula_units_Z 88
_cell_length_a 19.051751
_cell_length_b 8.885008
_cell_length_c 29.250482
_cell_angle_alpha 90.000000
_cell_angle_beta 90.000000
_cell_angle_gamma 90.000000
_cell_volume 4951.374172
_symmetry_space_group_name_H-M "C M M M"
_symmetry_group_IT_number 65
_symmetry_cell_setting 'orthorhombic'
loop_
_space_group_symop_operation_xyz
x,y,z
-x,-y,z
x,-y,-z
-x,y,-z
-x,-y,-z
x,y,-z
-x,y,z
x,-y,z
1/2+x,1/2+y,z
1/2-x,1/2-y,z
1/2+x,1/2-y,-z
1/2-x,1/2+y,-z
1/2-x,1/2-y,-z
1/2+x,1/2+y,-z
1/2-x,1/2+y,z
1/2+x,1/2-y,z
loop_
_atom_site_type_symbol
_atom_site_label
_atom_site_fract_x
_atom_site_fract_y
_atom_site_fract_z
Si Si1 0.172756 0.318419 0.949117
Si Si2 0.418454 0.180977 0.404807
Si Si3 0.585279 0.673316 0.500000
Si Si4 0.417186 0.179645 0.861931
Si Si5 0.827492 0.318979 0.683397
Si Si6 0.582848 0.679615 0.765055
O O1 0.177217 0.500000 0.947829
O O2 0.250000 0.250000 0.944260
O O3 0.124771 0.270778 0.906804
O O4 0.146004 0.276702 0.000000
O O5 0.500000 0.227631 0.397292
O O6 0.392987 0.247431 0.453008
O O7 0.370237 0.225838 0.362312
O O8 0.417990 0.000000 0.407982
O O9 0.606879 0.500000 0.500000
O O10 0.500000 0.679889 0.500000
O O11 0.500000 0.204631 0.869082
O O12 0.396393 0.264078 0.815568
O O13 0.406647 0.000000 0.855530
O O14 0.823635 0.500000 0.684869
O O15 0.750000 0.250000 0.683054
O O16 0.870896 0.259440 0.726747
O O17 0.500000 0.717102 0.758806
O O18 0.590424 0.500000 0.761865
#
# Coordination Sequence:
#
# PCOD9492053 Si02
#       6
#    16  16   8  16  16  16
#     4   9  18  32  50  73 101 134 171 210 254 305
#     4   9  18  34  56  79 104 137 175 214 258 310
#     4   9  17  29  50  81 110 135 169 215 260 303
#     4   9  18  33  53  76 102 133 170 213 259 307
#     4  11  23  38  56  79 108 141 178 219 265 316
#     4  10  21  37  57  80 106 137 174 217 264 315
#
# _framework density 17.772845
#
# number of rings (size 3 to 8) (size 9 to 14) (size 15 to 20)
#    0.000    2.455    0.000    1.909    0.000    6.182 
#    0.000    5.909    0.000    0.000    0.000    5.091 
#    0.000    0.000    0.000    0.000    0.000    0.000 
#
# Total GULP energy -245484.413232 kJ/mol
# GULP energy per Si atom -5579.191210 kJ/mol
# Density = 1.773239 g / cm^3
# Si number density = 17.772845 Si / 1000 Ang^3
#
#
#
# Elastic Constant Matrix: (Units=GPa)
#
#
# Indices 1 2 3 4 5 6 
#
# 1 80.9623 40.8942 98.2949 0.0000 0.0000 0.0000
# 2 40.8942 35.8211 60.9129 0.0000 0.0000 0.0000
# 3 98.2949 60.9129 205.4037 0.0000 0.0000 0.0000
# 4 0.0000 0.0000 0.0000 19.6329 0.0000 0.0000
# 5 0.0000 0.0000 0.0000 0.0000 -19.4891 0.0000
# 6 0.0000 0.0000 0.0000 0.0000 0.0000 22.7409
#
#
#
# Elastic Compliance Matrix: (Units=1/GPa)
#
#
# Indices 1 2 3 4 5 6 
#
# 1 0.038232 -0.025287 -0.010797 0.000000 0.000000 0.000000
# 2 -0.025287 0.073040 -0.009559 0.000000 0.000000 0.000000
# 3 -0.010797 -0.009559 0.012870 0.000000 0.000000 0.000000
# 4 0.000000 0.000000 0.000000 0.050935 0.000000 0.000000
# 5 0.000000 0.000000 0.000000 0.000000 -0.051311 0.000000
# 6 0.000000 0.000000 0.000000 0.000000 0.000000 0.043974
#
#
# Mechanical properties :
#
#
# Convention : Reuss Voigt Hill
#
# Bulk Modulus (GPa) = 30.43581 80.26568 55.35074
# Shear Modulus (GPa) = 18.52003 12.71595 15.61799
#
# Velocity S-wave (km/s) = 3.23157 2.67773 2.96760
# Velocity P-wave (km/s) = 5.57549 7.40408 6.55387
#
# Compressibility (1/GPa) = 0.03285603
#
# Stress axis : x y z
#
# Youngs Moduli (GPa) = 26.15587 13.69119 77.69937
#
# Poissons Ratio (x) = 0.34621 0.83892
# Poissons Ratio (y) = 0.66140 0.74274
# Poissons Ratio (z) = 0.28241 0.13088
#
# Static dielectric constant tensor:
#      x y z
#    x 1.583660 0.000000 0.000000 
#    y 0.000000 1.596130 0.000000 
#    z 0.000000 0.000000 1.596550 
# 
# From -- ./inp_files/67533.got.cif
#   From: 2010.05.17/outbox.cif.g08.bks.cpg/sg65_34_cif.got.tgz:67533.got - 2010.06.03 17:01:31.
