data_PCOD9492740
_publ_section_title
;
Structure prediction by ZEFSAII (Michael W. Deem and Ramdas Pophale) SiO2 
 PCOD9492740
Probable space group: C M M M
;
_chemical_formula_sum "Si O2"
_cell_formula_units_Z 48
_cell_length_a 9.278912
_cell_length_b 35.060249
_cell_length_c 7.565279
_cell_angle_alpha 90.000000
_cell_angle_beta 90.000000
_cell_angle_gamma 90.000000
_cell_volume 2461.143866
_symmetry_space_group_name_H-M "C M M M"
_symmetry_group_IT_number 65
_symmetry_cell_setting 'orthorhombic'
loop_
_space_group_symop_operation_xyz
x,y,z
-x,-y,z
x,-y,-z
-x,y,-z
-x,-y,-z
x,y,-z
-x,y,z
x,-y,z
1/2+x,1/2+y,z
1/2-x,1/2-y,z
1/2+x,1/2-y,-z
1/2-x,1/2+y,-z
1/2-x,1/2-y,-z
1/2+x,1/2+y,-z
1/2-x,1/2+y,z
1/2+x,1/2-y,z
loop_
_atom_site_type_symbol
_atom_site_label
_atom_site_fract_x
_atom_site_fract_y
_atom_site_fract_z
Si Si1 0.666531 0.425003 0.713906
Si Si2 0.672915 0.209088 0.500000
Si Si3 0.335038 0.000000 0.283817
Si Si4 0.829870 0.161137 0.203117
O O1 0.674095 0.423146 0.500000
O O2 0.500000 0.430987 0.763380
O O3 0.757421 0.461253 0.773950
O O4 0.710842 0.383524 0.782468
O O5 0.500000 0.212399 0.500000
O O6 0.750000 0.250000 0.500000
O O7 0.731295 0.185777 0.331090
O O8 0.500000 0.000000 0.229669
O O9 0.329454 0.000000 0.500000
O O10 0.000000 0.163783 0.255848
O O11 0.818219 0.173379 0.000000
#
# Coordination Sequence:
#
# PCOD9492740 Si02
#       4
#    16   8   8  16
#     4   9  16  30  53  80 113 154 199 245 296 352
#     4  12  26  44  68  93 124 159 196 242 297 362
#     4   9  17  27  44  75 112 153 203 250 293 342
#     4  10  21  40  66  94 124 158 200 250 302 359
#
# _framework density 19.503126999999999
#
# number of rings (size 3 to 8) (size 9 to 14) (size 15 to 20)
#    0.000    2.167    1.667    2.000    0.000    4.667 
#    0.000    0.833    0.000    5.000    0.000    0.000 
#    0.000    0.000    0.000    0.000    0.000    0.000 
#
# Total GULP energy -134079.175849 kJ/mol
# GULP energy per Si atom -5586.632327 kJ/mol
# Density = 1.945874 g / cm^3
# Si number density = 19.503127 Si / 1000 Ang^3
#
#
#
# Elastic Constant Matrix: (Units=GPa)
#
#
# Indices 1 2 3 4 5 6 
#
# 1 131.0278 109.6042 52.9569 0.0000 0.0000 0.0000
# 2 109.6042 161.4638 52.6404 0.0000 0.0000 0.0000
# 3 52.9569 52.6404 80.7117 0.0000 0.0000 0.0000
# 4 0.0000 0.0000 0.0000 -22.8645 0.0000 0.0000
# 5 0.0000 0.0000 0.0000 0.0000 9.7210 0.0000
# 6 0.0000 0.0000 0.0000 0.0000 0.0000 33.9300
#
#
#
# Elastic Compliance Matrix: (Units=1/GPa)
#
#
# Indices 1 2 3 4 5 6 
#
# 1 0.019246 -0.011364 -0.005216 0.000000 0.000000 0.000000
# 2 -0.011364 0.014576 -0.002050 0.000000 0.000000 0.000000
# 3 -0.005216 -0.002050 0.017149 0.000000 0.000000 0.000000
# 4 0.000000 0.000000 0.000000 -0.043736 0.000000 0.000000
# 5 0.000000 0.000000 0.000000 0.000000 0.102870 0.000000
# 6 0.000000 0.000000 0.000000 0.000000 0.000000 0.029472
#
#
# Mechanical properties :
#
#
# Convention : Reuss Voigt Hill
#
# Bulk Modulus (GPa) = 72.93665 89.28958 81.11311
# Shear Modulus (GPa) = 27.56204 14.69076 21.12640
#
# Velocity S-wave (km/s) = 3.76335 2.74752 3.29482
# Velocity P-wave (km/s) = 7.50748 7.47975 7.49363
#
# Compressibility (1/GPa) = 0.01371053
#
# Stress axis : x y z
#
# Youngs Moduli (GPa) = 51.95857 68.60695 58.31109
#
# Poissons Ratio (x) = 0.77965 0.30416
# Poissons Ratio (y) = 0.59046 0.11955
# Poissons Ratio (z) = 0.27103 0.14066
#
# Static dielectric constant tensor:
#      x y z
#    x 1.652120 0.000000 0.000000 
#    y 0.000000 1.655360 0.000000 
#    z 0.000000 0.000000 1.728930 
# 
# From -- ./inp_files/3063.got.cif
#   From: 2010.05.17/outbox.cif.g08.bks.cpg/sg65_2_cif.got.tgz:3063.got - 2010.06.03 17:01:31.
