data_PCOD9492604
_publ_section_title
;
Structure prediction by ZEFSAII (Michael W. Deem and Ramdas Pophale) SiO2 
 PCOD9492604
Probable space group: C M M M
;
_chemical_formula_sum "Si O2"
_cell_formula_units_Z 64
_cell_length_a 15.551129
_cell_length_b 27.687464
_cell_length_c 7.833008
_cell_angle_alpha 90.000000
_cell_angle_beta 90.000000
_cell_angle_gamma 90.000000
_cell_volume 3372.668628
_symmetry_space_group_name_H-M "C M M M"
_symmetry_group_IT_number 65
_symmetry_cell_setting 'orthorhombic'
loop_
_space_group_symop_operation_xyz
x,y,z
-x,-y,z
x,-y,-z
-x,y,-z
-x,-y,-z
x,y,-z
-x,y,z
x,-y,z
1/2+x,1/2+y,z
1/2-x,1/2-y,z
1/2+x,1/2-y,-z
1/2-x,1/2+y,-z
1/2-x,1/2-y,-z
1/2+x,1/2+y,-z
1/2-x,1/2+y,z
1/2+x,1/2-y,z
loop_
_atom_site_type_symbol
_atom_site_label
_atom_site_fract_x
_atom_site_fract_y
_atom_site_fract_z
Si Si1 0.897723 0.347104 0.500000
Si Si2 0.196341 0.443063 0.500000
Si Si3 0.837660 0.279432 0.799061
Si Si4 0.500000 0.603818 0.693106
Si Si5 0.174627 0.057093 0.189101
Si Si6 0.500000 0.710054 0.800851
O O1 0.879157 0.404161 0.500000
O O2 0.854139 0.322468 0.666333
O O3 0.000000 0.337470 0.500000
O O4 0.172154 0.500000 0.500000
O O5 0.256317 0.433385 0.335559
O O6 0.750000 0.250000 0.766671
O O7 0.916360 0.242474 0.771810
O O8 0.837999 0.294272 0.000000
O O9 0.500000 0.584773 0.500000
O O10 0.413415 0.585475 0.781218
O O11 0.500000 0.661484 0.694611
O O12 0.154331 0.000000 0.197946
O O13 0.208655 0.068011 0.000000
O O14 0.500000 0.695297 0.000000
#
# Coordination Sequence:
#
# PCOD9492604 Si02
#       6
#     8   8  16   8  16   8
#     4  12  25  42  69  92 120 163 199 253 316 374
#     4  10  24  43  62  91 119 150 206 263 313 368
#     4  10  23  42  65  92 126 167 209 254 302 360
#     4  12  23  31  56  92 128 169 204 247 296 361
#     4  10  21  39  60  84 122 167 208 251 300 360
#     4  10  22  39  57  88 128 161 202 254 298 355
#
# _framework density 18.97607
#
# number of rings (size 3 to 8) (size 9 to 14) (size 15 to 20)
#    0.000    1.500    2.500    1.875    5.250    2.750 
#    0.000    0.000    0.000    0.000    0.000    5.250 
#    0.000    0.000    0.000    0.000    0.000    0.000 
#
# Total GULP energy -178778.605132 kJ/mol
# GULP energy per Si atom -5586.831410 kJ/mol
# Density = 1.893288 g / cm^3
# Si number density = 18.976070 Si / 1000 Ang^3
#
#
#
# Elastic Constant Matrix: (Units=GPa)
#
#
# Indices 1 2 3 4 5 6 
#
# 1 102.0292 44.3363 37.4741 0.0000 0.0000 0.0000
# 2 44.3363 67.8758 53.3038 0.0000 0.0000 0.0000
# 3 37.4741 53.3038 121.9816 0.0000 0.0000 0.0000
# 4 0.0000 0.0000 0.0000 18.7286 0.0000 0.0000
# 5 0.0000 0.0000 0.0000 0.0000 -10.5975 0.0000
# 6 0.0000 0.0000 0.0000 0.0000 0.0000 31.8302
#
#
#
# Elastic Compliance Matrix: (Units=1/GPa)
#
#
# Indices 1 2 3 4 5 6 
#
# 1 0.013702 -0.008594 -0.000454 0.000000 0.000000 0.000000
# 2 -0.008594 0.027820 -0.009517 0.000000 0.000000 0.000000
# 3 -0.000454 -0.009517 0.012496 0.000000 0.000000 0.000000
# 4 0.000000 0.000000 0.000000 0.053394 0.000000 0.000000
# 5 0.000000 0.000000 0.000000 0.000000 -0.094362 0.000000
# 6 0.000000 0.000000 0.000000 0.000000 0.000000 0.031417
#
#
# Mechanical properties :
#
#
# Convention : Reuss Voigt Hill
#
# Bulk Modulus (GPa) = 59.20978 62.45720 60.83349
# Shear Modulus (GPa) = 57.32286 18.44376 37.88331
#
# Velocity S-wave (km/s) = 5.50214 3.12099 4.47293
# Velocity P-wave (km/s) = 8.46374 6.78031 7.66836
#
# Compressibility (1/GPa) = 0.01688910
#
# Stress axis : x y z
#
# Youngs Moduli (GPa) = 72.98076 35.94585 80.02484
#
# Poissons Ratio (x) = 0.30890 0.03635
# Poissons Ratio (y) = 0.62716 0.76157
# Poissons Ratio (z) = 0.03315 0.34208
#
# Static dielectric constant tensor:
#      x y z
#    x 1.613260 0.000000 0.000000 
#    y 0.000000 1.638910 0.000000 
#    z 0.000000 0.000000 1.693930 
# 
# From -- ./inp_files/6822.got.cif
#   From: 2010.05.17/outbox.cif.g08.bks.cpg/sg65_4_cif.got.tgz:6822.got - 2010.06.03 17:01:31.
