data_PCOD9492593
_publ_section_title
;
Structure prediction by ZEFSAII (Michael W. Deem and Ramdas Pophale) SiO2 
 PCOD9492593
Probable space group: C M M M
;
_chemical_formula_sum "Si O2"
_cell_formula_units_Z 88
_cell_length_a 9.080399
_cell_length_b 24.003711
_cell_length_c 23.092922
_cell_angle_alpha 90.000000
_cell_angle_beta 90.000000
_cell_angle_gamma 90.000000
_cell_volume 5033.408871
_symmetry_space_group_name_H-M "C M M M"
_symmetry_group_IT_number 65
_symmetry_cell_setting 'orthorhombic'
loop_
_space_group_symop_operation_xyz
x,y,z
-x,-y,z
x,-y,-z
-x,y,-z
-x,-y,-z
x,y,-z
-x,y,z
x,-y,z
1/2+x,1/2+y,z
1/2-x,1/2-y,z
1/2+x,1/2-y,-z
1/2-x,1/2+y,-z
1/2-x,1/2-y,-z
1/2+x,1/2+y,-z
1/2-x,1/2+y,z
1/2+x,1/2-y,z
loop_
_atom_site_type_symbol
_atom_site_label
_atom_site_fract_x
_atom_site_fract_y
_atom_site_fract_z
Si Si1 0.176433 0.934507 0.432993
Si Si2 0.323314 0.810068 0.000000
Si Si3 0.676325 0.893217 0.677702
Si Si4 0.670323 0.500000 0.126157
Si Si5 0.176891 0.309971 0.222802
Si Si6 0.171286 0.000000 0.265382
Si Si7 0.677207 0.116551 0.111556
O O1 0.213011 0.922694 0.500000
O O2 0.259055 0.896510 0.386767
O O3 0.000000 0.929121 0.426417
O O4 0.212671 0.000000 0.422064
O O5 0.250000 0.750000 0.000000
O O6 0.283198 0.844779 0.057216
O O7 0.500000 0.803452 0.000000
O O8 0.500000 0.898840 0.676737
O O9 0.713894 0.839200 0.716096
O O10 0.747647 0.945785 0.710444
O O11 0.500000 0.500000 0.108369
O O12 0.676758 0.500000 0.196127
O O13 0.749441 0.443634 0.106408
O O14 0.250000 0.250000 0.216245
O O15 0.221064 0.351730 0.170751
O O16 0.000000 0.304032 0.219572
O O17 0.000000 0.000000 0.283967
O O18 0.500000 0.109755 0.112723
#
# Coordination Sequence:
#
# PCOD9492593 Si02
#       7
#    16   8  16   8  16   8  16
#     4   9  18  32  50  76 111 146 179 217 265 321
#     4  10  22  39  62  85 109 150 194 232 277 326
#     4  11  21  33  53  81 110 142 179 223 274 322
#     4  11  23  36  56  86 113 146 185 224 276 331
#     4  10  22  37  55  79 108 141 180 227 274 320
#     4  11  21  33  51  79 111 144 181 217 268 333
#     4  10  21  39  59  82 114 148 182 225 278 333
#
# _framework density 17.483180999999998
#
# number of rings (size 3 to 8) (size 9 to 14) (size 15 to 20)
#    0.000    1.818    2.727    2.182    0.000    4.364 
#    0.000    2.727    0.000    0.545    0.000    0.000 
#    0.000    0.000    0.000    0.000    0.000    0.000 
#
# Total GULP energy -245689.136215 kJ/mol
# GULP energy per Si atom -5583.844005 kJ/mol
# Density = 1.744339 g / cm^3
# Si number density = 17.483181 Si / 1000 Ang^3
#
#
#
# Elastic Constant Matrix: (Units=GPa)
#
#
# Indices 1 2 3 4 5 6 
#
# 1 43.3507 53.2529 45.0843 0.0000 0.0000 0.0000
# 2 53.2529 148.7724 64.8151 0.0000 0.0000 0.0000
# 3 45.0843 64.8151 120.9180 0.0000 0.0000 0.0000
# 4 0.0000 0.0000 0.0000 15.9748 0.0000 0.0000
# 5 0.0000 0.0000 0.0000 0.0000 23.8997 0.0000
# 6 0.0000 0.0000 0.0000 0.0000 0.0000 33.7423
#
#
#
# Elastic Compliance Matrix: (Units=1/GPa)
#
#
# Indices 1 2 3 4 5 6 
#
# 1 0.052297 -0.013340 -0.012348 0.000000 0.000000 0.000000
# 2 -0.013340 0.012172 -0.001551 0.000000 0.000000 0.000000
# 3 -0.012348 -0.001551 0.013706 0.000000 0.000000 0.000000
# 4 0.000000 0.000000 0.000000 0.062599 0.000000 0.000000
# 5 0.000000 0.000000 0.000000 0.000000 0.041842 0.000000
# 6 0.000000 0.000000 0.000000 0.000000 0.000000 0.029636
#
#
# Mechanical properties :
#
#
# Convention : Reuss Voigt Hill
#
# Bulk Modulus (GPa) = 42.20052 71.03841 56.61947
# Shear Modulus (GPa) = 18.20643 24.71595 21.46119
#
# Velocity S-wave (km/s) = 3.23052 3.76400 3.50742
# Velocity P-wave (km/s) = 6.17294 7.72081 6.98985
#
# Compressibility (1/GPa) = 0.02369639
#
# Stress axis : x y z
#
# Youngs Moduli (GPa) = 19.12161 82.15356 72.96330
#
# Poissons Ratio (x) = 1.09591 0.90098
# Poissons Ratio (y) = 0.25508 0.11316
# Poissons Ratio (z) = 0.23612 0.12741
#
# Static dielectric constant tensor:
#      x y z
#    x 1.585500 0.000000 0.000000 
#    y 0.000000 1.553510 0.000000 
#    z 0.000000 0.000000 1.612360 
# 
# From -- ./inp_files/59943.got.cif
#   From: 2010.05.17/outbox.cif.g08.bks.cpg/sg65_30_cif.got.tgz:59943.got - 2010.06.03 17:01:31.
