data_PCOD9492458
_publ_section_title
;
Structure prediction by ZEFSAII (Michael W. Deem and Ramdas Pophale) SiO2 
 PCOD9492458
Probable space group: C M M M
;
_chemical_formula_sum "Si O2"
_cell_formula_units_Z 96
_cell_length_a 8.857327
_cell_length_b 29.289552
_cell_length_c 20.575863
_cell_angle_alpha 90.000000
_cell_angle_beta 90.000000
_cell_angle_gamma 90.000000
_cell_volume 5337.937286
_symmetry_space_group_name_H-M "C M M M"
_symmetry_group_IT_number 65
_symmetry_cell_setting 'orthorhombic'
loop_
_space_group_symop_operation_xyz
x,y,z
-x,-y,z
x,-y,-z
-x,y,-z
-x,-y,-z
x,y,-z
-x,y,z
x,-y,z
1/2+x,1/2+y,z
1/2-x,1/2-y,z
1/2+x,1/2-y,-z
1/2-x,1/2+y,-z
1/2-x,1/2-y,-z
1/2+x,1/2+y,-z
1/2-x,1/2+y,z
1/2+x,1/2-y,z
loop_
_atom_site_type_symbol
_atom_site_label
_atom_site_fract_x
_atom_site_fract_y
_atom_site_fract_z
Si Si1 0.820952 0.857066 0.688533
Si Si2 0.678075 0.948040 0.266128
Si Si3 0.820342 0.700613 0.423376
Si Si4 0.680162 0.800394 0.192214
Si Si5 0.321378 0.948259 0.109681
Si Si6 0.321690 0.354676 0.073598
O O1 0.774700 0.909460 0.699469
O O2 0.755820 0.836912 0.621902
O O3 0.745041 0.828741 0.747145
O O4 0.000000 0.851412 0.691204
O O5 0.500000 0.940546 0.279341
O O6 0.696047 0.944619 0.187928
O O7 0.716393 0.000000 0.284616
O O8 0.793383 0.692486 0.500000
O O9 0.750000 0.750000 0.406984
O O10 0.000000 0.701798 0.412310
O O11 0.500000 0.798307 0.196591
O O12 0.750000 0.750000 0.192714
O O13 0.729800 0.826422 0.126788
O O14 0.500000 0.942491 0.095308
O O15 0.227498 0.907527 0.078927
O O16 0.278701 0.000000 0.090593
O O17 0.500000 0.350532 0.087276
O O18 0.293073 0.338770 0.000000
#
# Coordination Sequence:
#
# PCOD9492458 Si02
#       6
#    16  16  16  16  16  16
#     4  12  23  36  59  90 122 153 189 233 284 336
#     4   9  18  34  57  85 116 150 189 234 283 336
#     4  10  21  38  60  87 121 159 197 236 281 333
#     4  12  25  42  62  83 110 144 189 238 285 338
#     4   9  18  34  57  83 111 146 187 232 283 339
#     4  11  24  40  57  81 113 147 186 233 288 346
#
# _framework density 17.984476000000001
#
# number of rings (size 3 to 8) (size 9 to 14) (size 15 to 20)
#    0.000    1.500    1.667    5.500    0.000    3.667 
#    0.000    3.333    0.000    0.500    0.000    3.500 
#    0.000    0.000    0.000    0.000    0.000    0.000 
#
# Total GULP energy -268323.754501 kJ/mol
# GULP energy per Si atom -5590.078219 kJ/mol
# Density = 1.794354 g / cm^3
# Si number density = 17.984476 Si / 1000 Ang^3
#
#
#
# Elastic Constant Matrix: (Units=GPa)
#
#
# Indices 1 2 3 4 5 6 
#
# 1 122.7478 61.9285 59.6133 0.0000 0.0000 0.0000
# 2 61.9285 102.3749 45.4224 0.0000 0.0000 0.0000
# 3 59.6133 45.4224 63.1562 0.0000 0.0000 0.0000
# 4 0.0000 0.0000 0.0000 60.4864 0.0000 0.0000
# 5 0.0000 0.0000 0.0000 0.0000 24.1008 0.0000
# 6 0.0000 0.0000 0.0000 0.0000 0.0000 37.1634
#
#
#
# Elastic Compliance Matrix: (Units=1/GPa)
#
#
# Indices 1 2 3 4 5 6 
#
# 1 0.016321 -0.004461 -0.012197 0.000000 0.000000 0.000000
# 2 -0.004461 0.015565 -0.006984 0.000000 0.000000 0.000000
# 3 -0.012197 -0.006984 0.032369 0.000000 0.000000 0.000000
# 4 0.000000 0.000000 0.000000 0.016533 0.000000 0.000000
# 5 0.000000 0.000000 0.000000 0.000000 0.041492 0.000000
# 6 0.000000 0.000000 0.000000 0.000000 0.000000 0.026908
#
#
# Mechanical properties :
#
#
# Convention : Reuss Voigt Hill
#
# Bulk Modulus (GPa) = 58.92120 69.13415 64.02768
# Shear Modulus (GPa) = 24.73658 32.43778 28.58718
#
# Velocity S-wave (km/s) = 3.71272 4.25155 3.99124
# Velocity P-wave (km/s) = 7.15628 7.91362 7.54446
#
# Compressibility (1/GPa) = 0.01697182
#
# Stress axis : x y z
#
# Youngs Moduli (GPa) = 61.27020 64.24549 30.89361
#
# Poissons Ratio (x) = 0.28662 0.37681
# Poissons Ratio (y) = 0.27335 0.21575
# Poissons Ratio (z) = 0.74731 0.44866
#
# Static dielectric constant tensor:
#      x y z
#    x 1.598530 0.000000 0.000000 
#    y 0.000000 1.604520 0.000000 
#    z 0.000000 0.000000 1.605650 
# 
# From -- ./inp_files/60264.got.cif
#   From: 2010.05.17/outbox.cif.g08.bks.cpg/sg65_31_cif.got.tgz:60264.got - 2010.06.03 17:01:31.
