data_PCOD9492374
_publ_section_title
;
Structure prediction by ZEFSAII (Michael W. Deem and Ramdas Pophale) SiO2 
 PCOD9492374
Probable space group: C M M M
;
_chemical_formula_sum "Si O2"
_cell_formula_units_Z 88
_cell_length_a 8.672837
_cell_length_b 18.518504
_cell_length_c 29.134467
_cell_angle_alpha 90.000000
_cell_angle_beta 90.000000
_cell_angle_gamma 90.000000
_cell_volume 4679.227505
_symmetry_space_group_name_H-M "C M M M"
_symmetry_group_IT_number 65
_symmetry_cell_setting 'orthorhombic'
loop_
_space_group_symop_operation_xyz
x,y,z
-x,-y,z
x,-y,-z
-x,y,-z
-x,-y,-z
x,y,-z
-x,y,z
x,-y,z
1/2+x,1/2+y,z
1/2-x,1/2-y,z
1/2+x,1/2-y,-z
1/2-x,1/2+y,-z
1/2-x,1/2-y,-z
1/2+x,1/2+y,-z
1/2-x,1/2+y,z
1/2+x,1/2-y,z
loop_
_atom_site_type_symbol
_atom_site_label
_atom_site_fract_x
_atom_site_fract_y
_atom_site_fract_z
Si Si1 0.313632 0.830836 0.449463
Si Si2 0.183296 0.914557 0.261010
Si Si3 0.685199 0.584824 0.087850
Si Si4 0.683525 0.914348 0.641060
Si Si5 0.815747 0.331093 0.000000
Si Si6 0.683502 0.830777 0.175128
O O1 0.268166 0.859982 0.500000
O O2 0.500000 0.829242 0.448476
O O3 0.250000 0.750000 0.446229
O O4 0.262057 0.875385 0.405163
O O5 0.231358 0.891982 0.312358
O O6 0.269443 0.868168 0.222874
O O7 0.000000 0.906968 0.254916
O O8 0.222113 0.000000 0.256021
O O9 0.500000 0.590463 0.085946
O O10 0.726181 0.500000 0.086746
O O11 0.745321 0.621824 0.134138
O O12 0.756410 0.626503 0.044687
O O13 0.500000 0.901254 0.646782
O O14 0.705371 0.000000 0.635576
O O15 0.750000 0.250000 0.000000
O O16 0.000000 0.328247 0.000000
O O17 0.500000 0.828381 0.170409
O O18 0.750000 0.750000 0.172972
#
# Coordination Sequence:
#
# PCOD9492374 Si02
#       6
#    16  16  16  16   8  16
#     4   9  18  32  50  73 102 137 176 220 272 329
#     4  10  21  38  59  83 113 148 186 230 282 339
#     4  11  24  43  66  92 124 160 198 241 291 345
#     4   9  18  33  53  77 105 139 181 227 274 327
#     4  12  25  42  65  93 127 163 203 248 293 342
#     4  12  25  41  62  88 119 153 193 239 287 340
#
# _framework density 18.806522999999999
#
# number of rings (size 3 to 8) (size 9 to 14) (size 15 to 20)
#    0.000    1.636    0.000    4.909    0.000    7.636 
#    0.000    3.636    0.000    0.000    0.000    5.091 
#    0.000    0.000    0.000    0.000    0.000    0.000 
#
# Total GULP energy -245899.841518 kJ/mol
# GULP energy per Si atom -5588.632762 kJ/mol
# Density = 1.876372 g / cm^3
# Si number density = 18.806523 Si / 1000 Ang^3
#
#
#
# Elastic Constant Matrix: (Units=GPa)
#
#
# Indices 1 2 3 4 5 6 
#
# 1 78.8992 60.8290 54.6645 0.0000 0.0000 0.0000
# 2 60.8290 118.0050 85.1439 0.0000 0.0000 0.0000
# 3 54.6645 85.1439 161.7715 0.0000 0.0000 0.0000
# 4 0.0000 0.0000 0.0000 49.5338 0.0000 0.0000
# 5 0.0000 0.0000 0.0000 0.0000 25.6319 0.0000
# 6 0.0000 0.0000 0.0000 0.0000 0.0000 28.6962
#
#
#
# Elastic Compliance Matrix: (Units=1/GPa)
#
#
# Indices 1 2 3 4 5 6 
#
# 1 0.021558 -0.009442 -0.002315 0.000000 0.000000 0.000000
# 2 -0.009442 0.017798 -0.006177 0.000000 0.000000 0.000000
# 3 -0.002315 -0.006177 0.010215 0.000000 0.000000 0.000000
# 4 0.000000 0.000000 0.000000 0.020188 0.000000 0.000000
# 5 0.000000 0.000000 0.000000 0.000000 0.039014 0.000000
# 6 0.000000 0.000000 0.000000 0.000000 0.000000 0.034848
#
#
# Mechanical properties :
#
#
# Convention : Reuss Voigt Hill
#
# Bulk Modulus (GPa) = 72.97848 84.43895 78.70872
# Shear Modulus (GPa) = 27.16535 31.30826 29.23680
#
# Velocity S-wave (km/s) = 3.80473 4.08457 3.94713
# Velocity P-wave (km/s) = 7.62827 8.20007 7.91933
#
# Compressibility (1/GPa) = 0.01370267
#
# Stress axis : x y z
#
# Youngs Moduli (GPa) = 46.38610 56.18455 97.89593
#
# Poissons Ratio (x) = 0.53052 0.22663
# Poissons Ratio (y) = 0.43800 0.60471
# Poissons Ratio (z) = 0.10738 0.34705
#
# Static dielectric constant tensor:
#      x y z
#    x 1.634370 0.000000 0.000000 
#    y 0.000000 1.619220 0.000000 
#    z 0.000000 0.000000 1.640770 
# 
# From -- ./inp_files/76570.got.cif
#   From: 2010.05.17/outbox.cif.g08.bks.cpg/sg65_39_cif.got.tgz:76570.got - 2010.06.03 17:01:31.
