data_PCOD9492660
_publ_section_title
;
Structure prediction by ZEFSAII (Michael W. Deem and Ramdas Pophale) SiO2 
 PCOD9492660
Probable space group: C M M M
;
_chemical_formula_sum "Si O2"
_cell_formula_units_Z 72
_cell_length_a 14.209799
_cell_length_b 9.468261
_cell_length_c 23.236393
_cell_angle_alpha 90.000000
_cell_angle_beta 90.000000
_cell_angle_gamma 90.000000
_cell_volume 3126.272778
_symmetry_space_group_name_H-M "C M M M"
_symmetry_group_IT_number 65
_symmetry_cell_setting 'orthorhombic'
loop_
_space_group_symop_operation_xyz
x,y,z
-x,-y,z
x,-y,-z
-x,y,-z
-x,-y,-z
x,y,-z
-x,y,z
x,-y,z
1/2+x,1/2+y,z
1/2-x,1/2-y,z
1/2+x,1/2-y,-z
1/2-x,1/2+y,-z
1/2-x,1/2-y,-z
1/2+x,1/2+y,-z
1/2-x,1/2+y,z
1/2+x,1/2-y,z
loop_
_atom_site_type_symbol
_atom_site_label
_atom_site_fract_x
_atom_site_fract_y
_atom_site_fract_z
Si Si1 0.900082 0.000000 0.092124
Si Si2 0.385329 0.836635 0.613804
Si Si3 0.807949 0.500000 0.935053
Si Si4 0.384889 0.335047 0.727983
Si Si5 0.885213 0.163438 0.500000
Si Si6 0.106475 0.709356 0.844095
O O1 0.898993 0.133174 0.133099
O O2 0.803659 0.000000 0.058534
O O3 0.000000 0.000000 0.060611
O O4 0.500000 0.843236 0.613991
O O5 0.359155 0.740748 0.668526
O O6 0.358062 0.752620 0.556269
O O7 0.352035 0.000000 0.615974
O O8 0.837962 0.371953 0.893695
O O9 0.849625 0.500000 0.000000
O O10 0.500000 0.339587 0.731408
O O11 0.353731 0.500000 0.732185
O O12 0.355422 0.229553 0.779882
O O13 0.000000 0.157020 0.500000
O O14 0.852173 0.000000 0.500000
O O15 0.000000 0.652364 0.841542
#
# Coordination Sequence:
#
# PCOD9492660 Si02
#       6
#     8  16   8  16   8  16
#     4  10  22  44  69  92 118 160 209 253 306 371
#     4   9  16  23  36  62  98 144 199 259 318 371
#     4  12  27  43  62  93 129 161 199 254 318 379
#     4   9  16  29  50  75 104 146 202 255 307 371
#     4   9  15  23  33  51  91 149 208 261 312 366
#     4  10  21  39  64  91 124 163 205 255 312 375
#
# _framework density 23.030618
#
# number of rings (size 3 to 8) (size 9 to 14) (size 15 to 20)
#    0.000    2.333    1.111    2.000    1.556    6.889 
#    0.000    2.222    0.000    0.000    0.000    0.000 
#    0.000    0.000    0.000    6.000    0.000   17.000 
#
# Total GULP energy -201000.229204 kJ/mol
# GULP energy per Si atom -5583.339700 kJ/mol
# Density = 2.297820 g / cm^3
# Si number density = 23.030618 Si / 1000 Ang^3
#
#
#
# Elastic Constant Matrix: (Units=GPa)
#
#
# Indices 1 2 3 4 5 6 
#
# 1 96.5931 15.7955 30.9625 0.0000 0.0000 0.0000
# 2 15.7955 174.4336 88.4748 0.0000 0.0000 0.0000
# 3 30.9625 88.4748 249.4291 0.0000 0.0000 0.0000
# 4 0.0000 0.0000 0.0000 63.1294 0.0000 0.0000
# 5 0.0000 0.0000 0.0000 0.0000 16.9665 0.0000
# 6 0.0000 0.0000 0.0000 0.0000 0.0000 12.2173
#
#
#
# Elastic Compliance Matrix: (Units=1/GPa)
#
#
# Indices 1 2 3 4 5 6 
#
# 1 0.010801 -0.000363 -0.001212 0.000000 0.000000 0.000000
# 2 -0.000363 0.007003 -0.002439 0.000000 0.000000 0.000000
# 3 -0.001212 -0.002439 0.005025 0.000000 0.000000 0.000000
# 4 0.000000 0.000000 0.000000 0.015840 0.000000 0.000000
# 5 0.000000 0.000000 0.000000 0.000000 0.058940 0.000000
# 6 0.000000 0.000000 0.000000 0.000000 0.000000 0.081851
#
#
# Mechanical properties :
#
#
# Convention : Reuss Voigt Hill
#
# Bulk Modulus (GPa) = 67.56791 87.88013 77.72402
# Shear Modulus (GPa) = 25.98474 44.14417 35.06446
#
# Velocity S-wave (km/s) = 3.36262 4.38283 3.90617
# Velocity P-wave (km/s) = 6.66920 7.99081 7.35973
#
# Compressibility (1/GPa) = 0.01479993
#
# Stress axis : x y z
#
# Youngs Moduli (GPa) = 92.58771 142.80104 199.01851
#
# Poissons Ratio (x) = 0.05189 0.24117
# Poissons Ratio (y) = 0.03364 0.48537
# Poissons Ratio (z) = 0.11220 0.34827
#
# Static dielectric constant tensor:
#      x y z
#    x 1.927630 0.000000 0.000000 
#    y 0.000000 1.789990 0.000000 
#    z 0.000000 0.000000 1.876610 
# 
# From -- ./inp_files/74688.got.cif
#   From: 2010.05.17/outbox.cif.g08.bks.cpg/sg65_38_cif.got.tgz:74688.got - 2010.06.03 17:01:31.
