data_PCOD9492387
_publ_section_title
;
Structure prediction by ZEFSAII (Michael W. Deem and Ramdas Pophale) SiO2 
 PCOD9492387
Probable space group: C M M M
;
_chemical_formula_sum "Si O2"
_cell_formula_units_Z 88
_cell_length_a 16.236165
_cell_length_b 14.156586
_cell_length_c 19.928291
_cell_angle_alpha 90.000000
_cell_angle_beta 90.000000
_cell_angle_gamma 90.000000
_cell_volume 4580.491105
_symmetry_space_group_name_H-M "C M M M"
_symmetry_group_IT_number 65
_symmetry_cell_setting 'orthorhombic'
loop_
_space_group_symop_operation_xyz
x,y,z
-x,-y,z
x,-y,-z
-x,y,-z
-x,-y,-z
x,y,-z
-x,y,z
x,-y,z
1/2+x,1/2+y,z
1/2-x,1/2-y,z
1/2+x,1/2-y,-z
1/2-x,1/2+y,-z
1/2-x,1/2-y,-z
1/2+x,1/2+y,-z
1/2-x,1/2+y,z
1/2+x,1/2-y,z
loop_
_atom_site_type_symbol
_atom_site_label
_atom_site_fract_x
_atom_site_fract_y
_atom_site_fract_z
Si Si1 0.627819 0.606055 0.324365
Si Si2 0.342676 0.209085 0.077371
Si Si3 0.650382 0.766410 0.423836
Si Si4 0.590326 0.747902 0.212594
Si Si5 0.904536 0.500000 0.919284
Si Si6 0.324842 0.105638 0.695746
O O1 0.599081 0.500000 0.335120
O O2 0.611826 0.675721 0.386680
O O3 0.594720 0.653745 0.256818
O O4 0.726816 0.604262 0.315125
O O5 0.250000 0.250000 0.080035
O O6 0.391625 0.264890 0.134531
O O7 0.356805 0.097947 0.096504
O O8 0.371129 0.219561 0.000000
O O9 0.622692 0.779971 0.500000
O O10 0.750000 0.750000 0.425610
O O11 0.636994 0.853309 0.373108
O O12 0.500000 0.790601 0.220864
O O13 0.654236 0.820054 0.246363
O O14 0.000000 0.500000 0.893897
O O15 0.910160 0.500000 0.000000
O O16 0.353046 0.000000 0.711309
#
# Coordination Sequence:
#
# PCOD9492387 Si02
#       6
#    16  16  16  16   8  16
#     4   9  18  34  54  74 103 141 181 223 268 324
#     4  10  21  38  59  85 116 148 183 228 285 344
#     4   8  14  26  47  78 110 134 167 219 274 324
#     4  11  22  35  53  77 107 140 179 226 274 324
#     4   9  18  34  58  88 117 145 184 234 283 332
#     4   9  18  32  51  76 105 139 178 219 268 328
#
# _framework density 19.211912999999999
#
# number of rings (size 3 to 8) (size 9 to 14) (size 15 to 20)
#    0.000    2.636    0.000    3.273    1.273    2.545 
#    1.636    3.636    0.000    8.727    0.000   11.455 
#    0.000    0.000    0.000    0.000    0.000    0.000 
#
# Total GULP energy -245206.150992 kJ/mol
# GULP energy per Si atom -5572.867068 kJ/mol
# Density = 1.916819 g / cm^3
# Si number density = 19.211913 Si / 1000 Ang^3
#
#
#
# Elastic Constant Matrix: (Units=GPa)
#
#
# Indices 1 2 3 4 5 6 
#
# 1 44.7123 27.8115 13.7776 0.0000 0.0000 0.0000
# 2 27.8115 90.1435 25.7198 0.0000 0.0000 0.0000
# 3 13.7776 25.7198 114.1458 0.0000 0.0000 0.0000
# 4 0.0000 0.0000 0.0000 11.9281 0.0000 0.0000
# 5 0.0000 0.0000 0.0000 0.0000 -17.6524 0.0000
# 6 0.0000 0.0000 0.0000 0.0000 0.0000 -1.4956
#
#
#
# Elastic Compliance Matrix: (Units=1/GPa)
#
#
# Indices 1 2 3 4 5 6 
#
# 1 0.027923 -0.008179 -0.001527 0.000000 0.000000 0.000000
# 2 -0.008179 0.014251 -0.002224 0.000000 0.000000 0.000000
# 3 -0.001527 -0.002224 0.009446 0.000000 0.000000 0.000000
# 4 0.000000 0.000000 0.000000 0.083835 0.000000 0.000000
# 5 0.000000 0.000000 0.000000 0.000000 -0.056650 0.000000
# 6 0.000000 0.000000 0.000000 0.000000 0.000000 -0.668610
#
#
# Mechanical properties :
#
#
# Convention : Reuss Voigt Hill
#
# Bulk Modulus (GPa) = 36.02327 42.62438 39.32383
# Shear Modulus (GPa) = -8.98168 10.66887 0.84360
#
# Velocity S-wave (km/s) = -2.16453 2.35909 0.66337
# Velocity P-wave (km/s) = 3.54179 5.44564 4.59343
#
# Compressibility (1/GPa) = 0.02775984
#
# Stress axis : x y z
#
# Youngs Moduli (GPa) = 35.81218 70.16821 105.86276
#
# Poissons Ratio (x) = 0.57392 0.16170
# Poissons Ratio (y) = 0.29292 0.23543
# Poissons Ratio (z) = 0.05470 0.15605
#
# Static dielectric constant tensor:
#      x y z
#    x 1.737120 0.000000 0.000000 
#    y 0.000000 1.668700 0.000000 
#    z 0.000000 0.000000 1.662860 
# 
# From -- ./inp_files/54293.got.cif
#   From: 2010.05.17/outbox.cif.g08.bks.cpg/sg65_28_cif.got.tgz:54293.got - 2010.06.03 17:01:31.
