data_PCOD9492178
_publ_section_title
;
Structure prediction by ZEFSAII (Michael W. Deem and Ramdas Pophale) SiO2 
 PCOD9492178
Probable space group: C M M M
;
_chemical_formula_sum "Si O2"
_cell_formula_units_Z 72
_cell_length_a 23.151986
_cell_length_b 17.775149
_cell_length_c 7.505671
_cell_angle_alpha 90.000000
_cell_angle_beta 90.000000
_cell_angle_gamma 90.000000
_cell_volume 3088.808793
_symmetry_space_group_name_H-M "C M M M"
_symmetry_group_IT_number 65
_symmetry_cell_setting 'orthorhombic'
loop_
_space_group_symop_operation_xyz
x,y,z
-x,-y,z
x,-y,-z
-x,y,-z
-x,-y,-z
x,y,-z
-x,y,z
x,-y,z
1/2+x,1/2+y,z
1/2-x,1/2-y,z
1/2+x,1/2-y,-z
1/2-x,1/2+y,-z
1/2-x,1/2-y,-z
1/2+x,1/2+y,-z
1/2-x,1/2+y,z
1/2+x,1/2-y,z
loop_
_atom_site_type_symbol
_atom_site_label
_atom_site_fract_x
_atom_site_fract_y
_atom_site_fract_z
Si Si1 0.000000 0.089431 0.714749
Si Si2 0.065360 0.415322 0.217135
Si Si3 0.254415 0.418304 0.715644
Si Si4 0.659326 0.798090 0.209578
Si Si5 0.374546 0.367450 0.703876
O O1 0.061055 0.123552 0.781675
O O2 0.000000 0.101609 0.500000
O O3 0.000000 0.000000 0.748771
O O4 0.078571 0.500000 0.275998
O O5 0.111008 0.355330 0.279988
O O6 0.000000 0.396875 0.269408
O O7 0.067105 0.415645 0.000000
O O8 0.254916 0.417336 0.500000
O O9 0.229711 0.500000 0.772210
O O10 0.218357 0.344923 0.770667
O O11 0.320213 0.411989 0.782686
O O12 0.648507 0.717979 0.296873
O O13 0.650661 0.784856 0.000000
O O14 0.379713 0.394717 0.500000
#
# Coordination Sequence:
#
# PCOD9492178 Si02
#       5
#     8  16  16  16  16
#     4   9  18  36  63  89 110 141 192 243 281 326
#     4   8  15  29  48  70  99 138 182 223 263 313
#     4  10  21  38  59  81 109 147 189 233 282 334
#     4  11  22  34  54  83 115 149 186 227 276 334
#     4  10  21  37  58  84 113 146 185 233 285 335
#
# _framework density 23.309956
#
# number of rings (size 3 to 8) (size 9 to 14) (size 15 to 20)
#    0.000    2.333    0.000    3.333    1.556    7.556 
#    0.000    0.000    0.000    2.667    0.000    4.667 
#    0.000    0.000    0.000    0.000    0.000    0.000 
#
# Total GULP energy -201041.501321 kJ/mol
# GULP energy per Si atom -5584.486148 kJ/mol
# Density = 2.325690 g / cm^3
# Si number density = 23.309956 Si / 1000 Ang^3
#
#
#
# Elastic Constant Matrix: (Units=GPa)
#
#
# Indices 1 2 3 4 5 6 
#
# 1 132.4245 63.9876 -9.1387 0.0000 0.0000 0.0000
# 2 63.9876 91.1310 -7.5938 0.0000 0.0000 0.0000
# 3 -9.1387 -7.5938 69.0866 0.0000 0.0000 0.0000
# 4 0.0000 0.0000 0.0000 -130.0959 0.0000 0.0000
# 5 0.0000 0.0000 0.0000 0.0000 4.0342 0.0000
# 6 0.0000 0.0000 0.0000 0.0000 0.0000 57.7753
#
#
#
# Elastic Compliance Matrix: (Units=1/GPa)
#
#
# Indices 1 2 3 4 5 6 
#
# 1 0.011457 -0.007991 0.000637 0.000000 0.000000 0.000000
# 2 -0.007991 0.016649 0.000773 0.000000 0.000000 0.000000
# 3 0.000637 0.000773 0.014644 0.000000 0.000000 0.000000
# 4 0.000000 0.000000 0.000000 -0.007687 0.000000 0.000000
# 5 0.000000 0.000000 0.000000 0.000000 0.247878 0.000000
# 6 0.000000 0.000000 0.000000 0.000000 0.000000 0.017308
#
#
# Mechanical properties :
#
#
# Convention : Reuss Voigt Hill
#
# Bulk Modulus (GPa) = 33.79891 43.01693 38.40792
# Shear Modulus (GPa) = 15.46676 2.70187 9.08432
#
# Velocity S-wave (km/s) = 2.57869 1.07779 1.97627
# Velocity P-wave (km/s) = 4.83709 4.47696 4.66051
#
# Compressibility (1/GPa) = 0.02958675
#
# Stress axis : x y z
#
# Youngs Moduli (GPa) = 87.28390 60.06458 68.28822
#
# Poissons Ratio (x) = 0.48000 -0.04351
# Poissons Ratio (y) = 0.69752 -0.05278
# Poissons Ratio (z) = -0.05561 -0.04642
#
# Static dielectric constant tensor:
#      x y z
#    x 1.893650 0.000000 0.000000 
#    y 0.000000 1.853490 0.000000 
#    z 0.000000 0.000000 1.906410 
# 
# From -- ./inp_files/13610.got.cif
#   From: 2010.05.17/outbox.cif.g08.bks.cpg/sg65_7_cif.got.tgz:13610.got - 2010.06.03 17:01:31.
