data_PCOD9492511
_publ_section_title
;
Structure prediction by ZEFSAII (Michael W. Deem and Ramdas Pophale) SiO2 
 PCOD9492511
Probable space group: C M M M
;
_chemical_formula_sum "Si O2"
_cell_formula_units_Z 80
_cell_length_a 8.700839
_cell_length_b 18.676138
_cell_length_c 26.717216
_cell_angle_alpha 90.000000
_cell_angle_beta 90.000000
_cell_angle_gamma 90.000000
_cell_volume 4341.496033
_symmetry_space_group_name_H-M "C M M M"
_symmetry_group_IT_number 65
_symmetry_cell_setting 'orthorhombic'
loop_
_space_group_symop_operation_xyz
x,y,z
-x,-y,z
x,-y,-z
-x,y,-z
-x,-y,-z
x,y,-z
-x,y,z
x,-y,z
1/2+x,1/2+y,z
1/2-x,1/2-y,z
1/2+x,1/2-y,-z
1/2-x,1/2+y,-z
1/2-x,1/2-y,-z
1/2+x,1/2+y,-z
1/2-x,1/2+y,z
1/2+x,1/2-y,z
loop_
_atom_site_type_symbol
_atom_site_label
_atom_site_fract_x
_atom_site_fract_y
_atom_site_fract_z
Si Si1 0.183970 0.670879 0.057962
Si Si2 0.814097 0.085035 0.336440
Si Si3 0.683065 0.829752 0.242484
Si Si4 0.184170 0.086225 0.553709
Si Si5 0.684063 0.416522 0.851235
O O1 0.250000 0.750000 0.068463
O O2 0.255863 0.615788 0.096808
O O3 0.000000 0.672289 0.063395
O O4 0.220703 0.653682 0.000000
O O5 0.739542 0.128916 0.291907
O O6 0.760067 0.110601 0.391788
O O7 0.000000 0.092018 0.334174
O O8 0.780619 0.000000 0.331540
O O9 0.500000 0.826829 0.241306
O O10 0.750000 0.750000 0.242162
O O11 0.743855 0.872172 0.194182
O O12 0.246016 0.113266 0.500000
O O13 0.000000 0.098300 0.553374
O O14 0.204427 0.000000 0.553793
O O15 0.500000 0.410062 0.849005
O O16 0.725031 0.500000 0.846728
#
# Coordination Sequence:
#
# PCOD9492511 Si02
#       5
#    16  16  16  16  16
#     4  10  21  38  61  88 119 154 190 227 267 315
#     4   9  17  31  53  81 112 142 175 219 268 319
#     4  12  25  40  58  78 105 141 182 227 274 328
#     4   7  10  19  40  72 106 138 172 210 255 310
#     4  11  24  41  61  85 114 146 181 224 273 324
#
# _framework density 18.426828
#
# number of rings (size 3 to 8) (size 9 to 14) (size 15 to 20)
#    0.000    2.200    0.000    6.000    0.000    6.000 
#    0.000    2.000    0.000    1.200    0.000    2.800 
#    0.000    0.000    0.000    0.000    0.000    0.000 
#
# Total GULP energy -223203.252781 kJ/mol
# GULP energy per Si atom -5580.081320 kJ/mol
# Density = 1.838489 g / cm^3
# Si number density = 18.426828 Si / 1000 Ang^3
#
#
#
# Elastic Constant Matrix: (Units=GPa)
#
#
# Indices 1 2 3 4 5 6 
#
# 1 64.4079 61.6479 63.2502 0.0000 0.0000 0.0000
# 2 61.6479 111.5035 98.0979 0.0000 0.0000 0.0000
# 3 63.2502 98.0979 162.3558 0.0000 0.0000 0.0000
# 4 0.0000 0.0000 0.0000 -140.8840 0.0000 0.0000
# 5 0.0000 0.0000 0.0000 0.0000 -60.0763 0.0000
# 6 0.0000 0.0000 0.0000 0.0000 0.0000 25.6295
#
#
#
# Elastic Compliance Matrix: (Units=1/GPa)
#
#
# Indices 1 2 3 4 5 6 
#
# 1 0.034181 -0.015334 -0.004051 0.000000 0.000000 0.000000
# 2 -0.015334 0.026025 -0.009751 0.000000 0.000000 0.000000
# 3 -0.004051 -0.009751 0.013629 0.000000 0.000000 0.000000
# 4 0.000000 0.000000 0.000000 -0.007098 0.000000 0.000000
# 5 0.000000 0.000000 0.000000 0.000000 -0.016645 0.000000
# 6 0.000000 0.000000 0.000000 0.000000 0.000000 0.039018
#
#
# Mechanical properties :
#
#
# Convention : Reuss Voigt Hill
#
# Bulk Modulus (GPa) = 64.25409 87.13991 75.69700
# Shear Modulus (GPa) = 32.77216 -27.38143 2.69536
#
# Velocity S-wave (km/s) = 4.22180 -3.85899 1.21075
# Velocity P-wave (km/s) = 7.66227 5.24753 6.56685
#
# Compressibility (1/GPa) = 0.01556321
#
# Stress axis : x y z
#
# Youngs Moduli (GPa) = 29.25572 38.42529 73.37240
#
# Poissons Ratio (x) = 0.58921 0.29725
# Poissons Ratio (y) = 0.44861 0.71543
# Poissons Ratio (z) = 0.11852 0.37467
#
# Static dielectric constant tensor:
#      x y z
#    x 1.621300 0.000000 0.000000 
#    y 0.000000 1.614800 0.000000 
#    z 0.000000 0.000000 1.661130 
# 
# From -- ./inp_files/72842.got.cif
#   From: 2010.05.17/outbox.cif.g08.bks.cpg/sg65_37_cif.got.tgz:72842.got - 2010.06.03 17:01:31.
