data_PCOD9492327
_publ_section_title
;
Structure prediction by ZEFSAII (Michael W. Deem and Ramdas Pophale) SiO2 
 PCOD9492327
Probable space group: C M M M
;
_chemical_formula_sum "Si O2"
_cell_formula_units_Z 80
_cell_length_a 24.278412
_cell_length_b 8.967711
_cell_length_c 20.918744
_cell_angle_alpha 90.000000
_cell_angle_beta 90.000000
_cell_angle_gamma 90.000000
_cell_volume 4554.466228
_symmetry_space_group_name_H-M "C M M M"
_symmetry_group_IT_number 65
_symmetry_cell_setting 'orthorhombic'
loop_
_space_group_symop_operation_xyz
x,y,z
-x,-y,z
x,-y,-z
-x,y,-z
-x,-y,-z
x,y,-z
-x,y,z
x,-y,z
1/2+x,1/2+y,z
1/2-x,1/2-y,z
1/2+x,1/2-y,-z
1/2-x,1/2+y,-z
1/2-x,1/2-y,-z
1/2+x,1/2+y,-z
1/2-x,1/2+y,z
1/2+x,1/2-y,z
loop_
_atom_site_type_symbol
_atom_site_label
_atom_site_fract_x
_atom_site_fract_y
_atom_site_fract_z
Si Si1 0.564318 0.179218 0.073879
Si Si2 0.383434 0.320842 0.429637
Si Si3 0.500000 0.171029 0.594727
Si Si4 0.608303 0.321485 0.195473
Si Si5 0.500000 0.828336 0.252427
Si Si6 0.689885 0.680077 0.692097
O O1 0.500000 0.219967 0.087655
O O2 0.604856 0.255062 0.124323
O O3 0.567920 0.000000 0.079296
O O4 0.575146 0.219092 0.000000
O O5 0.359635 0.284335 0.500000
O O6 0.388389 0.500000 0.425355
O O7 0.444238 0.252085 0.425974
O O8 0.346735 0.271714 0.369260
O O9 0.500000 0.170977 0.671441
O O10 0.500000 0.000000 0.573085
O O11 0.605641 0.500000 0.192900
O O12 0.553888 0.255966 0.228705
O O13 0.658704 0.279067 0.241950
O O14 0.500000 0.000000 0.229113
O O15 0.693633 0.500000 0.689992
O O16 0.750000 0.750000 0.689077
#
# Coordination Sequence:
#
# PCOD9492327 Si02
#       6
#    16  16   8  16   8  16
#     4   9  18  32  51  80 118 152 179 211 259 321
#     4  10  21  38  58  79 109 147 180 218 274 333
#     4  11  22  34  53  83 115 143 178 223 268 324
#     4  11  21  34  55  82 111 142 180 228 270 316
#     4  11  21  32  51  80 110 145 180 216 271 328
#     4  10  23  40  57  79 105 138 185 233 276 321
#
# _framework density 17.565176000000001
#
# number of rings (size 3 to 8) (size 9 to 14) (size 15 to 20)
#    0.000    1.800    3.000    2.100    0.000    5.600 
#    0.000    1.000    0.000    0.600    0.000    0.000 
#    0.000    0.000    0.000    0.000    0.000    0.000 
#
# Total GULP energy -223240.553254 kJ/mol
# GULP energy per Si atom -5581.013831 kJ/mol
# Density = 1.752520 g / cm^3
# Si number density = 17.565176 Si / 1000 Ang^3
#
#
#
# Elastic Constant Matrix: (Units=GPa)
#
#
# Indices 1 2 3 4 5 6 
#
# 1 119.3282 32.7825 69.2041 0.0000 0.0000 0.0000
# 2 32.7825 28.6885 43.6151 0.0000 0.0000 0.0000
# 3 69.2041 43.6151 164.1541 0.0000 0.0000 0.0000
# 4 0.0000 0.0000 0.0000 26.2730 0.0000 0.0000
# 5 0.0000 0.0000 0.0000 0.0000 -14.1391 0.0000
# 6 0.0000 0.0000 0.0000 0.0000 0.0000 29.9153
#
#
#
# Elastic Compliance Matrix: (Units=1/GPa)
#
#
# Indices 1 2 3 4 5 6 
#
# 1 0.012815 -0.010788 -0.002536 0.000000 0.000000 0.000000
# 2 -0.010788 0.067560 -0.013403 0.000000 0.000000 0.000000
# 3 -0.002536 -0.013403 0.010722 0.000000 0.000000 0.000000
# 4 0.000000 0.000000 0.000000 0.038062 0.000000 0.000000
# 5 0.000000 0.000000 0.000000 0.000000 -0.070726 0.000000
# 6 0.000000 0.000000 0.000000 0.000000 0.000000 0.033428
#
#
# Mechanical properties :
#
#
# Convention : Reuss Voigt Hill
#
# Bulk Modulus (GPa) = 26.56462 67.04158 46.80310
# Shear Modulus (GPa) = 31.67324 19.51446 25.59385
#
# Velocity S-wave (km/s) = 4.25100 3.33674 3.82131
# Velocity P-wave (km/s) = 6.26506 7.28665 6.79508
#
# Compressibility (1/GPa) = 0.03764405
#
# Stress axis : x y z
#
# Youngs Moduli (GPa) = 78.03488 14.80159 93.26555
#
# Poissons Ratio (x) = 0.15968 0.23654
# Poissons Ratio (y) = 0.84182 1.25000
# Poissons Ratio (z) = 0.19791 0.19838
#
# Static dielectric constant tensor:
#      x y z
#    x 1.554310 0.000000 0.000000 
#    y 0.000000 1.589290 0.000000 
#    z 0.000000 0.000000 1.646040 
# 
# From -- ./inp_files/59630.got.cif
#   From: 2010.05.17/outbox.cif.g08.bks.cpg/sg65_30_cif.got.tgz:59630.got - 2010.06.03 17:01:31.
