data_PCOD9492852
_publ_section_title
;
Structure prediction by ZEFSAII (Michael W. Deem and Ramdas Pophale) SiO2 
 PCOD9492852
Probable space group: C M M M
;
_chemical_formula_sum "Si O2"
_cell_formula_units_Z 88
_cell_length_a 32.002571
_cell_length_b 7.567653
_cell_length_c 17.875472
_cell_angle_alpha 90.000000
_cell_angle_beta 90.000000
_cell_angle_gamma 90.000000
_cell_volume 4329.159611
_symmetry_space_group_name_H-M "C M M M"
_symmetry_group_IT_number 65
_symmetry_cell_setting 'orthorhombic'
loop_
_space_group_symop_operation_xyz
x,y,z
-x,-y,z
x,-y,-z
-x,y,-z
-x,-y,-z
x,y,-z
-x,y,z
x,-y,z
1/2+x,1/2+y,z
1/2-x,1/2-y,z
1/2+x,1/2-y,-z
1/2-x,1/2+y,-z
1/2-x,1/2-y,-z
1/2+x,1/2+y,-z
1/2-x,1/2+y,z
1/2+x,1/2-y,z
loop_
_atom_site_type_symbol
_atom_site_label
_atom_site_fract_x
_atom_site_fract_y
_atom_site_fract_z
Si Si1 0.700760 0.212735 0.500000
Si Si2 0.361908 0.790035 0.625143
Si Si3 0.701858 0.788163 0.084063
Si Si4 0.045333 0.788368 0.622737
Si Si5 0.365114 0.782404 0.796332
Si Si6 0.544459 0.792012 0.200451
O O1 0.750000 0.250000 0.500000
O O2 0.674634 0.279383 0.571808
O O3 0.696993 0.000000 0.500000
O O4 0.408971 0.763755 0.593227
O O5 0.359803 0.721971 0.710428
O O6 0.356245 0.000000 0.630483
O O7 0.750000 0.750000 0.101739
O O8 0.670892 0.722730 0.147970
O O9 0.697039 0.000000 0.081578
O O10 0.693304 0.720242 0.000000
O O11 0.045562 0.725729 0.709187
O O12 0.000000 0.727891 0.591160
O O13 0.044660 0.000000 0.621165
O O14 0.410780 0.722468 0.824687
O O15 0.365524 0.000000 0.794876
O O16 0.500000 0.714228 0.175418
O O17 0.543706 0.000000 0.182581
#
# Coordination Sequence:
#
# PCOD9492852 Si02
#       6
#     8  16  16  16  16  16
#     4  10  22  38  53  68  87 115 150 189 231 270
#     4   9  18  33  50  67  89 118 153 185 216 264
#     4   9  17  29  44  62  86 114 142 175 217 261
#     4   9  16  26  43  69  97 120 145 181 224 264
#     4   8  14  26  45  66  86 111 143 177 211 250
#     4   8  13  23  41  63  87 117 149 177 210 257
#
# _framework density 20.327272000000001
#
# number of rings (size 3 to 8) (size 9 to 14) (size 15 to 20)
#    0.000    3.273    0.000    1.636    0.000    2.545 
#    0.000    4.091    0.000    3.273    0.000    3.818 
#    0.000    0.000    0.000   50.364    0.000   46.909 
#
# Total GULP energy -245009.560715 kJ/mol
# GULP energy per Si atom -5568.399107 kJ/mol
# Density = 2.028101 g / cm^3
# Si number density = 20.327272 Si / 1000 Ang^3
#
#
#
# Elastic Constant Matrix: (Units=GPa)
#
#
# Indices 1 2 3 4 5 6 
#
# 1 222.9232 -1.5018 105.9801 0.0000 0.0000 0.0000
# 2 -1.5018 47.1521 4.5278 0.0000 0.0000 0.0000
# 3 105.9801 4.5278 90.1846 0.0000 0.0000 0.0000
# 4 0.0000 0.0000 0.0000 -7.9093 0.0000 0.0000
# 5 0.0000 0.0000 0.0000 0.0000 -118.8813 0.0000
# 6 0.0000 0.0000 0.0000 0.0000 0.0000 22.5783
#
#
#
# Elastic Compliance Matrix: (Units=1/GPa)
#
#
# Indices 1 2 3 4 5 6 
#
# 1 0.010268 0.001493 -0.012141 0.000000 0.000000 0.000000
# 2 0.001493 0.021528 -0.002835 0.000000 0.000000 0.000000
# 3 -0.012141 -0.002835 0.025499 0.000000 0.000000 0.000000
# 4 0.000000 0.000000 0.000000 -0.126434 0.000000 0.000000
# 5 0.000000 0.000000 0.000000 0.000000 -0.008412 0.000000
# 6 0.000000 0.000000 0.000000 0.000000 0.000000 0.044290
#
#
# Mechanical properties :
#
#
# Convention : Reuss Voigt Hill
#
# Bulk Modulus (GPa) = 32.97385 64.25246 48.61315
# Shear Modulus (GPa) = 1310.46375 -4.09220 653.18577
#
# Velocity S-wave (km/s) = 25.41815 -1.42040 17.94526
# Velocity P-wave (km/s) = 29.62599 5.38401 21.29187
#
# Compressibility (1/GPa) = 0.03032707
#
# Stress axis : x y z
#
# Youngs Moduli (GPa) = 97.38899 46.45162 39.21763
#
# Poissons Ratio (x) = -0.06935 0.47616
# Poissons Ratio (y) = -0.14539 0.11119
# Poissons Ratio (z) = 1.18245 0.13170
#
# Static dielectric constant tensor:
#      x y z
#    x 1.755820 0.000000 0.000000 
#    y 0.000000 1.604550 0.000000 
#    z 0.000000 0.000000 1.714840 
# 
# From -- ./inp_files/57980.got.cif
#   From: 2010.05.17/outbox.cif.g08.bks.cpg/sg65_29_cif.got.tgz:57980.got - 2010.06.03 17:01:31.
