data_PCOD9492103
_publ_section_title
;
Structure prediction by ZEFSAII (Michael W. Deem and Ramdas Pophale) SiO2 
 PCOD9492103
Probable space group: C M M M
;
_chemical_formula_sum "Si O2"
_cell_formula_units_Z 72
_cell_length_a 21.335213
_cell_length_b 8.908219
_cell_length_c 20.444226
_cell_angle_alpha 90.000000
_cell_angle_beta 90.000000
_cell_angle_gamma 90.000000
_cell_volume 3885.604035
_symmetry_space_group_name_H-M "C M M M"
_symmetry_group_IT_number 65
_symmetry_cell_setting 'orthorhombic'
loop_
_space_group_symop_operation_xyz
x,y,z
-x,-y,z
x,-y,-z
-x,y,-z
-x,-y,-z
x,y,-z
-x,y,z
x,-y,z
1/2+x,1/2+y,z
1/2-x,1/2-y,z
1/2+x,1/2-y,-z
1/2-x,1/2+y,-z
1/2-x,1/2-y,-z
1/2+x,1/2+y,-z
1/2-x,1/2+y,z
1/2+x,1/2-y,z
loop_
_atom_site_type_symbol
_atom_site_label
_atom_site_fract_x
_atom_site_fract_y
_atom_site_fract_z
Si Si1 0.428100 0.680365 0.791674
Si Si2 0.924087 0.325516 0.928211
Si Si3 0.868267 0.320831 0.576611
Si Si4 0.000000 0.169747 0.578845
Si Si5 0.186263 0.820157 0.300128
O O1 0.500000 0.733774 0.778822
O O2 0.430073 0.500000 0.790471
O O3 0.407418 0.733749 0.863799
O O4 0.375535 0.728816 0.740048
O O5 0.905623 0.500000 0.921172
O O6 0.000000 0.322233 0.930009
O O7 0.902339 0.271238 0.000000
O O8 0.857084 0.285247 0.500000
O O9 0.865598 0.500000 0.584066
O O10 0.822261 0.239452 0.626257
O O11 0.937292 0.259113 0.594866
O O12 0.000000 0.157177 0.500000
O O13 0.000000 0.000000 0.606669
O O14 0.250000 0.750000 0.272447
O O15 0.189691 0.000000 0.299563
#
# Coordination Sequence:
#
# PCOD9492103 Si02
#       5
#    16  16  16   8  16
#     4   9  19  35  55  81 110 142 181 224 271 324
#     4   8  14  26  47  78 113 144 175 215 264 317
#     4  10  21  37  57  82 110 140 181 231 280 334
#     4   9  17  31  53  81 111 141 172 213 270 327
#     4  11  24  40  58  79 109 147 186 230 282 338
#
# _framework density 18.529937
#
# number of rings (size 3 to 8) (size 9 to 14) (size 15 to 20)
#    0.000    2.556    0.000    2.333    1.556    5.333 
#    0.000    2.222    0.000    0.667    0.000    0.000 
#    0.000    0.000    0.000    0.000    0.000    0.000 
#
# Total GULP energy -200713.922965 kJ/mol
# GULP energy per Si atom -5575.386749 kJ/mol
# Density = 1.848776 g / cm^3
# Si number density = 18.529937 Si / 1000 Ang^3
#
#
#
# Elastic Constant Matrix: (Units=GPa)
#
#
# Indices 1 2 3 4 5 6 
#
# 1 95.4606 29.3443 57.9437 0.0000 0.0000 0.0000
# 2 29.3443 39.1893 34.2163 0.0000 0.0000 0.0000
# 3 57.9437 34.2163 104.1164 0.0000 0.0000 0.0000
# 4 0.0000 0.0000 0.0000 25.3528 0.0000 0.0000
# 5 0.0000 0.0000 0.0000 0.0000 6.1063 0.0000
# 6 0.0000 0.0000 0.0000 0.0000 0.0000 25.4350
#
#
#
# Elastic Compliance Matrix: (Units=1/GPa)
#
#
# Indices 1 2 3 4 5 6 
#
# 1 0.016831 -0.006205 -0.007328 0.000000 0.000000 0.000000
# 2 -0.006205 0.038073 -0.009059 0.000000 0.000000 0.000000
# 3 -0.007328 -0.009059 0.016660 0.000000 0.000000 0.000000
# 4 0.000000 0.000000 0.000000 0.039443 0.000000 0.000000
# 5 0.000000 0.000000 0.000000 0.000000 0.163765 0.000000
# 6 0.000000 0.000000 0.000000 0.000000 0.000000 0.039316
#
#
# Mechanical properties :
#
#
# Convention : Reuss Voigt Hill
#
# Bulk Modulus (GPa) = 37.90686 53.53055 45.71871
# Shear Modulus (GPa) = 13.58464 19.19629 16.39046
#
# Velocity S-wave (km/s) = 2.71055 3.22213 2.97735
# Velocity P-wave (km/s) = 5.50433 6.54173 6.04532
#
# Compressibility (1/GPa) = 0.02638045
#
# Stress axis : x y z
#
# Youngs Moduli (GPa) = 59.41549 26.26563 60.02499
#
# Poissons Ratio (x) = 0.16297 0.43984
# Poissons Ratio (y) = 0.36866 0.54376
# Poissons Ratio (z) = 0.43537 0.23794
#
# Static dielectric constant tensor:
#      x y z
#    x 1.663240 0.000000 0.000000 
#    y 0.000000 1.620980 0.000000 
#    z 0.000000 0.000000 1.665340 
# 
# From -- ./inp_files/64300.got.cif
#   From: 2010.05.17/outbox.cif.g08.bks.cpg/sg65_33_cif.got.tgz:64300.got - 2010.06.03 17:01:31.
