data_PCOD9492863
_publ_section_title
;
Structure prediction by ZEFSAII (Michael W. Deem and Ramdas Pophale) SiO2 
 PCOD9492863
Probable space group: C M M M
;
_chemical_formula_sum "Si O2"
_cell_formula_units_Z 64
_cell_length_a 13.835240
_cell_length_b 10.673753
_cell_length_c 21.856415
_cell_angle_alpha 90.000000
_cell_angle_beta 90.000000
_cell_angle_gamma 90.000000
_cell_volume 3227.622796
_symmetry_space_group_name_H-M "C M M M"
_symmetry_group_IT_number 65
_symmetry_cell_setting 'orthorhombic'
loop_
_space_group_symop_operation_xyz
x,y,z
-x,-y,z
x,-y,-z
-x,y,-z
-x,-y,-z
x,y,-z
-x,y,z
x,-y,z
1/2+x,1/2+y,z
1/2-x,1/2-y,z
1/2+x,1/2-y,-z
1/2-x,1/2+y,-z
1/2-x,1/2-y,-z
1/2+x,1/2+y,-z
1/2-x,1/2+y,z
1/2+x,1/2-y,z
loop_
_atom_site_type_symbol
_atom_site_label
_atom_site_fract_x
_atom_site_fract_y
_atom_site_fract_z
Si Si1 0.114132 0.857489 0.834912
Si Si2 0.890852 0.350108 0.367559
Si Si3 0.117262 0.639750 0.930002
Si Si4 0.882303 0.357063 0.500000
Si Si5 0.750000 0.250000 0.266280
O O1 0.140973 0.753607 0.885438
O O2 0.183420 0.835058 0.777306
O O3 0.000000 0.838856 0.819219
O O4 0.123609 0.000000 0.857588
O O5 0.895849 0.500000 0.374828
O O6 0.858001 0.298744 0.434160
O O7 0.821728 0.321777 0.311609
O O8 0.000000 0.304489 0.355201
O O9 0.148414 0.500000 0.909058
O O10 0.000000 0.637071 0.931727
O O11 0.150209 0.657704 0.000000
O O12 0.844393 0.500000 0.500000
O O13 0.000000 0.363386 0.500000
#
# Coordination Sequence:
#
# PCOD9492863 Si02
#       5
#    16  16  16   8   8
#     4  10  22  38  54  77 112 149 182 221 271 324
#     4   9  18  33  53  76 102 134 174 221 271 319
#     4   8  15  31  57  85 108 134 175 227 277 322
#     4   7  12  27  50  74 100 128 164 218 275 317
#     4  12  22  33  51  76 106 144 186 222 258 312
#
# _framework density 19.828835999999999
#
# number of rings (size 3 to 8) (size 9 to 14) (size 15 to 20)
#    0.000    2.875    0.000    3.750    0.000    3.000 
#    0.000    5.625    0.000    0.000    0.000    0.000 
#    0.000   16.000    0.000    0.000    0.000    0.000 
#
# Total GULP energy -178346.250464 kJ/mol
# GULP energy per Si atom -5573.320327 kJ/mol
# Density = 1.978370 g / cm^3
# Si number density = 19.828836 Si / 1000 Ang^3
#
#
#
# Elastic Constant Matrix: (Units=GPa)
#
#
# Indices 1 2 3 4 5 6 
#
# 1 105.9442 37.1018 49.7995 0.0000 0.0000 0.0000
# 2 37.1018 102.6906 75.1157 0.0000 0.0000 0.0000
# 3 49.7995 75.1157 143.5955 0.0000 0.0000 0.0000
# 4 0.0000 0.0000 0.0000 25.7173 0.0000 0.0000
# 5 0.0000 0.0000 0.0000 0.0000 39.9967 0.0000
# 6 0.0000 0.0000 0.0000 0.0000 0.0000 -6.3440
#
#
#
# Elastic Compliance Matrix: (Units=1/GPa)
#
#
# Indices 1 2 3 4 5 6 
#
# 1 0.011528 -0.002010 -0.002947 0.000000 0.000000 0.000000
# 2 -0.002010 0.016124 -0.007738 0.000000 0.000000 0.000000
# 3 -0.002947 -0.007738 0.012034 0.000000 0.000000 0.000000
# 4 0.000000 0.000000 0.000000 0.038884 0.000000 0.000000
# 5 0.000000 0.000000 0.000000 0.000000 0.025002 0.000000
# 6 0.000000 0.000000 0.000000 0.000000 0.000000 -0.157629
#
#
# Mechanical properties :
#
#
# Convention : Reuss Voigt Hill
#
# Bulk Modulus (GPa) = 69.94194 75.14048 72.54121
# Shear Modulus (GPa) = -209.17327 24.55488 -92.30920
#
# Velocity S-wave (km/s) = -10.28195 3.52283 -6.83038
# Velocity P-wave (km/s) = 10.27660 7.38403 5.05394
#
# Compressibility (1/GPa) = 0.01429757
#
# Stress axis : x y z
#
# Youngs Moduli (GPa) = 86.74705 62.01980 83.10124
#
# Poissons Ratio (x) = 0.12463 0.24487
# Poissons Ratio (y) = 0.17432 0.64300
# Poissons Ratio (z) = 0.25562 0.47988
#
# Static dielectric constant tensor:
#      x y z
#    x 1.735040 0.000000 0.000000 
#    y 0.000000 1.691940 0.000000 
#    z 0.000000 0.000000 1.708940 
# 
# From -- ./inp_files/69544.got.cif
#   From: 2010.05.17/outbox.cif.g08.bks.cpg/sg65_35_cif.got.tgz:69544.got - 2010.06.03 17:01:31.
