data_PCOD9492255
_publ_section_title
;
Structure prediction by ZEFSAII (Michael W. Deem and Ramdas Pophale) SiO2 
 PCOD9492255
Probable space group: C M M M
;
_chemical_formula_sum "Si O2"
_cell_formula_units_Z 80
_cell_length_a 8.845314
_cell_length_b 16.991038
_cell_length_c 27.410479
_cell_angle_alpha 90.000000
_cell_angle_beta 90.000000
_cell_angle_gamma 90.000000
_cell_volume 4119.550117
_symmetry_space_group_name_H-M "C M M M"
_symmetry_group_IT_number 65
_symmetry_cell_setting 'orthorhombic'
loop_
_space_group_symop_operation_xyz
x,y,z
-x,-y,z
x,-y,-z
-x,y,-z
-x,-y,-z
x,y,-z
-x,y,z
x,-y,z
1/2+x,1/2+y,z
1/2-x,1/2-y,z
1/2+x,1/2-y,-z
1/2-x,1/2+y,-z
1/2-x,1/2-y,-z
1/2+x,1/2+y,-z
1/2-x,1/2+y,z
1/2+x,1/2-y,z
loop_
_atom_site_type_symbol
_atom_site_label
_atom_site_fract_x
_atom_site_fract_y
_atom_site_fract_z
Si Si1 0.182889 0.837413 0.101819
Si Si2 0.820816 0.166814 0.215766
Si Si3 0.822202 0.500000 0.941488
Si Si4 0.669154 0.592615 0.500000
Si Si5 0.681759 0.164753 0.405940
Si Si6 0.826921 0.591611 0.304873
O O1 0.250000 0.750000 0.087370
O O2 0.221271 0.847772 0.159373
O O3 0.246818 0.917205 0.076552
O O4 0.000000 0.834504 0.096021
O O5 0.750000 0.250000 0.230401
O O6 0.762781 0.105578 0.255287
O O7 0.000000 0.171681 0.217501
O O8 0.000000 0.500000 0.927108
O O9 0.813038 0.500000 0.000000
O O10 0.653942 0.500000 0.500000
O O11 0.500000 0.629044 0.500000
O O12 0.757400 0.615371 0.548792
O O13 0.500000 0.164217 0.405918
O O14 0.750000 0.250000 0.413360
O O15 0.733843 0.135104 0.352676
O O16 0.828860 0.500000 0.316915
O O17 0.000000 0.618019 0.296336
#
# Coordination Sequence:
#
# PCOD9492255 Si02
#       6
#    16  16   8   8  16  16
#     4  10  22  41  65  94 129 169 216 265 320 382
#     4  10  21  37  59  87 119 156 199 245 297 357
#     4  11  25  43  65  95 129 169 217 266 321 380
#     4  11  24  41  62  87 113 143 186 237 292 349
#     4  11  23  40  61  84 114 150 192 237 287 347
#     4  10  22  38  57  85 118 154 194 238 292 351
#
# _framework density 19.419598000000001
#
# number of rings (size 3 to 8) (size 9 to 14) (size 15 to 20)
#    0.000    1.600    0.000    3.900    1.400    8.800 
#    0.000    0.000    0.000    0.000    0.000    0.000 
#    0.000    0.000    0.000    0.000    0.000    0.000 
#
# Total GULP energy -223231.043930 kJ/mol
# GULP energy per Si atom -5580.776098 kJ/mol
# Density = 1.937540 g / cm^3
# Si number density = 19.419598 Si / 1000 Ang^3
#
#
#
# Elastic Constant Matrix: (Units=GPa)
#
#
# Indices 1 2 3 4 5 6 
#
# 1 70.4579 41.7463 35.5112 0.0000 0.0000 0.0000
# 2 41.7463 119.8608 49.2426 0.0000 0.0000 0.0000
# 3 35.5112 49.2426 73.1099 0.0000 0.0000 0.0000
# 4 0.0000 0.0000 0.0000 48.2429 0.0000 0.0000
# 5 0.0000 0.0000 0.0000 0.0000 -47.7476 0.0000
# 6 0.0000 0.0000 0.0000 0.0000 0.0000 26.7069
#
#
#
# Elastic Compliance Matrix: (Units=1/GPa)
#
#
# Indices 1 2 3 4 5 6 
#
# 1 0.020185 -0.004151 -0.007008 0.000000 0.000000 0.000000
# 2 -0.004151 0.012388 -0.006328 0.000000 0.000000 0.000000
# 3 -0.007008 -0.006328 0.021344 0.000000 0.000000 0.000000
# 4 0.000000 0.000000 0.000000 0.020728 0.000000 0.000000
# 5 0.000000 0.000000 0.000000 0.000000 -0.020943 0.000000
# 6 0.000000 0.000000 0.000000 0.000000 0.000000 0.037444
#
#
# Mechanical properties :
#
#
# Convention : Reuss Voigt Hill
#
# Bulk Modulus (GPa) = 52.79003 57.38097 55.08550
# Shear Modulus (GPa) = 37.75455 14.56900 26.16178
#
# Velocity S-wave (km/s) = 4.41403 2.74199 3.67438
# Velocity P-wave (km/s) = 7.29528 6.29578 6.81388
#
# Compressibility (1/GPa) = 0.01894297
#
# Stress axis : x y z
#
# Youngs Moduli (GPa) = 49.54296 80.72048 46.85084
#
# Poissons Ratio (x) = 0.33506 0.32835
# Poissons Ratio (y) = 0.20564 0.29647
# Poissons Ratio (z) = 0.34722 0.51080
#
# Static dielectric constant tensor:
#      x y z
#    x 1.685040 0.000000 0.000000 
#    y 0.000000 1.747370 0.000000 
#    z 0.000000 0.000000 1.666140 
# 
# From -- ./inp_files/72918.got.cif
#   From: 2010.05.17/outbox.cif.g08.bks.cpg/sg65_37_cif.got.tgz:72918.got - 2010.06.03 17:01:31.
