data_PCOD9492501
_publ_section_title
;
Structure prediction by ZEFSAII (Michael W. Deem and Ramdas Pophale) SiO2 
 PCOD9492501
Probable space group: C M M M
;
_chemical_formula_sum "Si O2"
_cell_formula_units_Z 68
_cell_length_a 9.481032
_cell_length_b 13.925632
_cell_length_c 24.482161
_cell_angle_alpha 90.000000
_cell_angle_beta 90.000000
_cell_angle_gamma 90.000000
_cell_volume 3232.364112
_symmetry_space_group_name_H-M "C M M M"
_symmetry_group_IT_number 65
_symmetry_cell_setting 'orthorhombic'
loop_
_space_group_symop_operation_xyz
x,y,z
-x,-y,z
x,-y,-z
-x,y,-z
-x,-y,-z
x,y,-z
-x,y,z
x,-y,z
1/2+x,1/2+y,z
1/2-x,1/2-y,z
1/2+x,1/2-y,-z
1/2-x,1/2+y,-z
1/2-x,1/2-y,-z
1/2+x,1/2+y,-z
1/2-x,1/2+y,z
1/2+x,1/2-y,z
loop_
_atom_site_type_symbol
_atom_site_label
_atom_site_fract_x
_atom_site_fract_y
_atom_site_fract_z
Si Si1 0.500000 0.289733 0.500000
Si Si2 0.160078 0.116827 0.787771
Si Si3 0.339094 0.616880 0.000000
Si Si4 0.839056 0.614930 0.317454
Si Si5 0.160714 0.383064 0.106506
Si Si6 0.250000 0.250000 0.414357
O O1 0.376583 0.285444 0.452399
O O2 0.231415 0.142692 0.730429
O O3 0.258847 0.144380 0.838273
O O4 0.000000 0.152324 0.792977
O O5 0.154475 0.000000 0.788818
O O6 0.252688 0.643797 0.946061
O O7 0.346190 0.500000 0.000000
O O8 0.500000 0.652560 0.000000
O O9 0.830630 0.500000 0.324165
O O10 0.802258 0.666323 0.373846
O O11 0.000000 0.638346 0.301281
O O12 0.153931 0.500000 0.106334
O O13 0.000000 0.347514 0.104091
#
# Coordination Sequence:
#
# PCOD9492501 Si02
#       6
#     4  16   8  16  16   8
#     4  10  24  42  66  88 126 156 192 230 292 330
#     4   9  17  28  45  71 102 135 179 234 286 335
#     4   9  15  21  31  49  79 124 177 228 282 339
#     4  10  21  38  61  87 117 156 196 235 288 349
#     4   9  15  23  35  54  86 129 176 226 282 343
#     4  11  22  44  64  92 120 159 188 242 280 341
#
# _framework density 21.037234000000002
#
# number of rings (size 3 to 8) (size 9 to 14) (size 15 to 20)
#    0.000    2.471    1.176    1.765    1.647    7.059 
#    0.000    3.529    0.000    0.000    0.000    0.000 
#    0.000    0.941    0.000    3.059    0.000    9.294 
#
# Total GULP energy -189586.966026 kJ/mol
# GULP energy per Si atom -5576.087236 kJ/mol
# Density = 2.098935 g / cm^3
# Si number density = 21.037234 Si / 1000 Ang^3
#
#
#
# Elastic Constant Matrix: (Units=GPa)
#
#
# Indices 1 2 3 4 5 6 
#
# 1 205.6679 18.6220 84.3251 0.0000 0.0000 0.0000
# 2 18.6220 66.0694 9.4167 0.0000 0.0000 0.0000
# 3 84.3251 9.4167 166.1046 0.0000 0.0000 0.0000
# 4 0.0000 0.0000 0.0000 -5.2776 0.0000 0.0000
# 5 0.0000 0.0000 0.0000 0.0000 49.1004 0.0000
# 6 0.0000 0.0000 0.0000 0.0000 0.0000 -0.5683
#
#
#
# Elastic Compliance Matrix: (Units=1/GPa)
#
#
# Indices 1 2 3 4 5 6 
#
# 1 0.006253 -0.001321 -0.003099 0.000000 0.000000 0.000000
# 2 -0.001321 0.015538 -0.000210 0.000000 0.000000 0.000000
# 3 -0.003099 -0.000210 0.007606 0.000000 0.000000 0.000000
# 4 0.000000 0.000000 0.000000 -0.189479 0.000000 0.000000
# 5 0.000000 0.000000 0.000000 0.000000 0.020366 0.000000
# 6 0.000000 0.000000 0.000000 0.000000 0.000000 -1.759487
#
#
# Mechanical properties :
#
#
# Convention : Reuss Voigt Hill
#
# Bulk Modulus (GPa) = 49.66405 73.61886 61.64145
# Shear Modulus (GPa) = -2.65501 30.34942 13.84721
#
# Velocity S-wave (km/s) = -1.12463 3.80235 2.56837
# Velocity P-wave (km/s) = 4.68749 7.37209 6.17739
#
# Compressibility (1/GPa) = 0.02013529
#
# Stress axis : x y z
#
# Youngs Moduli (GPa) = 159.93571 64.35916 131.48145
#
# Poissons Ratio (x) = 0.08499 0.40750
# Poissons Ratio (y) = 0.21121 0.02767
# Poissons Ratio (z) = 0.49569 0.01355
#
# Static dielectric constant tensor:
#      x y z
#    x 1.722550 0.000000 0.000000 
#    y 0.000000 1.840090 0.000000 
#    z 0.000000 0.000000 1.692750 
# 
# From -- ./inp_files/58992.got.cif
#   From: 2010.05.17/outbox.cif.g08.bks.cpg/sg65_30_cif.got.tgz:58992.got - 2010.06.03 17:01:31.
