data_PCOD9492001
_publ_section_title
;
Structure prediction by ZEFSAII (Michael W. Deem and Ramdas Pophale) SiO2 
 PCOD9492001
Probable space group: C M M M
;
_chemical_formula_sum "Si O2"
_cell_formula_units_Z 72
_cell_length_a 18.945865
_cell_length_b 8.505347
_cell_length_c 24.026010
_cell_angle_alpha 90.000000
_cell_angle_beta 90.000000
_cell_angle_gamma 90.000000
_cell_volume 3871.579026
_symmetry_space_group_name_H-M "C M M M"
_symmetry_group_IT_number 65
_symmetry_cell_setting 'orthorhombic'
loop_
_space_group_symop_operation_xyz
x,y,z
-x,-y,z
x,-y,-z
-x,y,-z
-x,-y,-z
x,y,-z
-x,y,z
x,-y,z
1/2+x,1/2+y,z
1/2-x,1/2-y,z
1/2+x,1/2-y,-z
1/2-x,1/2+y,-z
1/2-x,1/2-y,-z
1/2+x,1/2+y,-z
1/2-x,1/2+y,z
1/2+x,1/2-y,z
loop_
_atom_site_type_symbol
_atom_site_label
_atom_site_fract_x
_atom_site_fract_y
_atom_site_fract_z
Si Si1 0.081523 0.808136 0.500000
Si Si2 0.582194 0.310350 0.167969
Si Si3 0.417971 0.187993 0.711600
Si Si4 0.170267 0.188312 0.392093
Si Si5 0.329708 0.309937 0.938453
O O1 0.123958 0.757433 0.554901
O O2 0.000000 0.755607 0.500000
O O3 0.080477 0.000000 0.500000
O O4 0.500000 0.268716 0.161009
O O5 0.587188 0.500000 0.171147
O O6 0.605919 0.241004 0.226975
O O7 0.625264 0.255189 0.114226
O O8 0.500000 0.240838 0.704470
O O9 0.368908 0.256944 0.663723
O O10 0.416793 0.000000 0.708494
O O11 0.250000 0.250000 0.395133
O O12 0.172276 0.000000 0.393077
O O13 0.329600 0.500000 0.937418
O O14 0.250000 0.250000 0.933433
O O15 0.356455 0.261666 0.000000
#
# Coordination Sequence:
#
# PCOD9492001 Si02
#       5
#     8  16  16  16  16
#     4   9  19  36  59  85 110 141 180 219 262 314
#     4   9  18  33  53  76 102 135 175 217 262 312
#     4  10  21  37  56  79 108 141 179 222 267 317
#     4  11  22  37  58  83 113 145 179 220 265 314
#     4   9  18  32  50  73 101 133 169 211 260 314
#
# _framework density 18.597062999999999
#
# number of rings (size 3 to 8) (size 9 to 14) (size 15 to 20)
#    0.000    2.333    0.000    2.333    0.000    4.444 
#    0.000    6.111    0.000    4.000    0.000    6.222 
#    0.000    0.000    0.000    0.000    0.000    0.000 
#
# Total GULP energy -200927.161131 kJ/mol
# GULP energy per Si atom -5581.310031 kJ/mol
# Density = 1.855473 g / cm^3
# Si number density = 18.597063 Si / 1000 Ang^3
#
#
#
# Elastic Constant Matrix: (Units=GPa)
#
#
# Indices 1 2 3 4 5 6 
#
# 1 121.5537 25.8099 119.4604 0.0000 0.0000 0.0000
# 2 25.8099 21.6388 38.0665 0.0000 0.0000 0.0000
# 3 119.4604 38.0665 220.0514 0.0000 0.0000 0.0000
# 4 0.0000 0.0000 0.0000 14.0227 0.0000 0.0000
# 5 0.0000 0.0000 0.0000 0.0000 80.6769 0.0000
# 6 0.0000 0.0000 0.0000 0.0000 0.0000 22.8723
#
#
#
# Elastic Compliance Matrix: (Units=1/GPa)
#
#
# Indices 1 2 3 4 5 6 
#
# 1 0.018201 -0.006220 -0.008805 0.000000 0.000000 0.000000
# 2 -0.006220 0.068554 -0.008483 0.000000 0.000000 0.000000
# 3 -0.008805 -0.008483 0.010792 0.000000 0.000000 0.000000
# 4 0.000000 0.000000 0.000000 0.071313 0.000000 0.000000
# 5 0.000000 0.000000 0.000000 0.000000 0.012395 0.000000
# 6 0.000000 0.000000 0.000000 0.000000 0.000000 0.043721
#
#
# Mechanical properties :
#
#
# Convention : Reuss Voigt Hill
#
# Bulk Modulus (GPa) = 19.78931 81.10195 50.44563
# Shear Modulus (GPa) = 17.31100 35.50818 26.40959
#
# Velocity S-wave (km/s) = 3.05429 4.37434 3.77250
# Velocity P-wave (km/s) = 4.80650 8.31973 6.79413
#
# Compressibility (1/GPa) = 0.05053234
#
# Stress axis : x y z
#
# Youngs Moduli (GPa) = 54.94351 14.58696 92.66472
#
# Poissons Ratio (x) = 0.09073 0.81588
# Poissons Ratio (y) = 0.34174 0.78603
# Poissons Ratio (z) = 0.48376 0.12373
#
# Static dielectric constant tensor:
#      x y z
#    x 1.615450 0.000000 0.000000 
#    y 0.000000 1.634540 0.000000 
#    z 0.000000 0.000000 1.637200 
# 
# From -- ./inp_files/64294.got.cif
#   From: 2010.05.17/outbox.cif.g08.bks.cpg/sg65_33_cif.got.tgz:64294.got - 2010.06.03 17:01:31.
