data_PCOD9492555
_publ_section_title
;
Structure prediction by ZEFSAII (Michael W. Deem and Ramdas Pophale) SiO2 
 PCOD9492555
Probable space group: C M M M
;
_chemical_formula_sum "Si O2"
_cell_formula_units_Z 104
_cell_length_a 29.573505
_cell_length_b 9.032801
_cell_length_c 20.219688
_cell_angle_alpha 90.000000
_cell_angle_beta 90.000000
_cell_angle_gamma 90.000000
_cell_volume 5401.317315
_symmetry_space_group_name_H-M "C M M M"
_symmetry_group_IT_number 65
_symmetry_cell_setting 'orthorhombic'
loop_
_space_group_symop_operation_xyz
x,y,z
-x,-y,z
x,-y,-z
-x,y,-z
-x,-y,-z
x,y,-z
-x,y,z
x,-y,z
1/2+x,1/2+y,z
1/2-x,1/2-y,z
1/2+x,1/2-y,-z
1/2-x,1/2+y,-z
1/2-x,1/2-y,-z
1/2+x,1/2+y,-z
1/2-x,1/2+y,z
1/2+x,1/2-y,z
loop_
_atom_site_type_symbol
_atom_site_label
_atom_site_fract_x
_atom_site_fract_y
_atom_site_fract_z
Si Si1 0.446034 0.676883 0.576025
Si Si2 0.610963 0.826985 0.920780
Si Si3 0.704149 0.670398 0.919319
Si Si4 0.799218 0.677543 0.500000
Si Si5 0.799166 0.321895 0.646259
Si Si6 0.552666 0.323476 0.184316
Si Si7 0.893098 0.322310 0.303555
O O1 0.434400 0.716623 0.500000
O O2 0.500000 0.702480 0.584632
O O3 0.438737 0.500000 0.583800
O O4 0.418002 0.764488 0.630457
O O5 0.659214 0.758433 0.900037
O O6 0.571745 0.738833 0.884264
O O7 0.609292 0.000000 0.903427
O O8 0.607488 0.813696 0.000000
O O9 0.702378 0.500000 0.897786
O O10 0.750000 0.750000 0.896791
O O11 0.705156 0.670392 0.000000
O O12 0.796331 0.500000 0.500000
O O13 0.750000 0.750000 0.500000
O O14 0.817403 0.719385 0.427845
O O15 0.793593 0.500000 0.648194
O O16 0.750000 0.250000 0.656962
O O17 0.840012 0.279829 0.694350
O O18 0.500000 0.287168 0.192822
O O19 0.557716 0.500000 0.186962
O O20 0.581654 0.248723 0.241859
O O21 0.895668 0.500000 0.301328
#
# Coordination Sequence:
#
# PCOD9492555 Si02
#       7
#    16  16  16   8  16  16  16
#     4   9  19  36  56  80 112 149 191 238 286 340
#     4  10  21  38  62  92 123 153 191 242 297 355
#     4   9  16  28  50  82 121 161 197 233 277 332
#     4   8  14  28  48  72 105 142 181 225 274 325
#     4   9  19  34  54  80 113 151 190 236 285 339
#     4  11  25  44  64  85 113 152 196 241 293 358
#     4  11  23  37  58  86 116 150 191 240 293 348
#
# _framework density 19.254560999999999
#
# number of rings (size 3 to 8) (size 9 to 14) (size 15 to 20)
#    0.000    2.308    0.000    2.769    1.077    8.000 
#    0.000    3.077    0.000    1.846    0.000    0.000 
#    0.000    0.000    0.000    0.000    0.000    0.000 
#
# Total GULP energy -290204.081243 kJ/mol
# GULP energy per Si atom -5580.847716 kJ/mol
# Density = 1.921074 g / cm^3
# Si number density = 19.254561 Si / 1000 Ang^3
#
#
#
# Elastic Constant Matrix: (Units=GPa)
#
#
# Indices 1 2 3 4 5 6 
#
# 1 125.8997 60.8967 48.3639 0.0000 0.0000 0.0000
# 2 60.8967 62.0518 32.6770 0.0000 0.0000 0.0000
# 3 48.3639 32.6770 34.4442 0.0000 0.0000 0.0000
# 4 0.0000 0.0000 0.0000 21.7378 0.0000 0.0000
# 5 0.0000 0.0000 0.0000 0.0000 26.6911 0.0000
# 6 0.0000 0.0000 0.0000 0.0000 0.0000 31.6865
#
#
#
# Elastic Compliance Matrix: (Units=1/GPa)
#
#
# Indices 1 2 3 4 5 6 
#
# 1 0.019712 -0.009531 -0.018636 0.000000 0.000000 0.000000
# 2 -0.009531 0.036813 -0.021542 0.000000 0.000000 0.000000
# 3 -0.018636 -0.021542 0.075636 0.000000 0.000000 0.000000
# 4 0.000000 0.000000 0.000000 0.046003 0.000000 0.000000
# 5 0.000000 0.000000 0.000000 0.000000 0.037466 0.000000
# 6 0.000000 0.000000 0.000000 0.000000 0.000000 0.031559
#
#
# Mechanical properties :
#
#
# Convention : Reuss Voigt Hill
#
# Bulk Modulus (GPa) = 30.54006 56.25231 43.39618
# Shear Modulus (GPa) = 13.98524 21.38696 17.68610
#
# Velocity S-wave (km/s) = 2.69798 3.33640 3.03403
# Velocity P-wave (km/s) = 5.05975 6.64233 5.90431
#
# Compressibility (1/GPa) = 0.03274387
#
# Stress axis : x y z
#
# Youngs Moduli (GPa) = 50.73108 27.16410 13.22128
#
# Poissons Ratio (x) = 0.25891 0.24639
# Poissons Ratio (y) = 0.48353 0.28481
# Poissons Ratio (z) = 0.94540 0.58516
#
# Static dielectric constant tensor:
#      x y z
#    x 1.651320 0.000000 0.000000 
#    y 0.000000 1.636150 0.000000 
#    z 0.000000 0.000000 1.709970 
# 
# From -- ./inp_files/65902.got.cif
#   From: 2010.05.17/outbox.cif.g08.bks.cpg/sg65_33_cif.got.tgz:65902.got - 2010.06.03 17:01:31.
