data_PCOD9492647
_publ_section_title
;
Structure prediction by ZEFSAII (Michael W. Deem and Ramdas Pophale) SiO2 
 PCOD9492647
Probable space group: C M M M
;
_chemical_formula_sum "Si O2"
_cell_formula_units_Z 80
_cell_length_a 20.187942
_cell_length_b 28.117301
_cell_length_c 7.474183
_cell_angle_alpha 90.000000
_cell_angle_beta 90.000000
_cell_angle_gamma 90.000000
_cell_volume 4242.573798
_symmetry_space_group_name_H-M "C M M M"
_symmetry_group_IT_number 65
_symmetry_cell_setting 'orthorhombic'
loop_
_space_group_symop_operation_xyz
x,y,z
-x,-y,z
x,-y,-z
-x,y,-z
-x,-y,-z
x,y,-z
-x,y,z
x,-y,z
1/2+x,1/2+y,z
1/2-x,1/2-y,z
1/2+x,1/2-y,-z
1/2-x,1/2+y,-z
1/2-x,1/2-y,-z
1/2+x,1/2+y,-z
1/2-x,1/2+y,z
1/2+x,1/2-y,z
loop_
_atom_site_type_symbol
_atom_site_label
_atom_site_fract_x
_atom_site_fract_y
_atom_site_fract_z
Si Si1 0.427336 0.555945 0.784527
Si Si2 0.330034 0.054469 0.717099
Si Si3 0.578562 0.857927 0.714023
Si Si4 0.799465 0.112279 0.700488
Si Si5 0.305455 0.688635 0.000000
Si Si6 0.648289 0.791720 0.000000
O O1 0.500000 0.574112 0.730369
O O2 0.425156 0.500000 0.745300
O O3 0.365282 0.581024 0.698724
O O4 0.422160 0.561182 0.000000
O O5 0.328865 0.051929 0.500000
O O6 0.388372 0.091288 0.764603
O O7 0.261343 0.079994 0.771406
O O8 0.336038 0.000000 0.781425
O O9 0.588561 0.851280 0.500000
O O10 0.500000 0.857939 0.749076
O O11 0.614759 0.817254 0.829284
O O12 0.781316 0.127683 0.500000
O O13 0.814865 0.156355 0.826268
O O14 0.352694 0.734509 0.000000
O O15 0.226989 0.699444 0.000000
#
# Coordination Sequence:
#
# PCOD9492647 Si02
#       6
#    16  16  16  16   8   8
#     4   9  18  33  54  81 116 158 199 238 286 349
#     4   9  18  33  56  89 125 159 196 236 283 344
#     4  10  21  39  63  90 123 160 198 243 294 351
#     4  11  21  37  59  87 120 154 193 245 298 349
#     4  11  24  40  62  88 112 144 195 254 304 346
#     4  11  23  42  64  86 112 150 199 246 298 355
#
# _framework density 18.856477000000002
#
# number of rings (size 3 to 8) (size 9 to 14) (size 15 to 20)
#    0.000    2.000    3.000    1.500    0.000    2.800 
#    0.000    8.500    0.000    1.200    0.000    0.000 
#    0.000    0.000    0.000    0.000    0.000    0.000 
#
# Total GULP energy -223215.416740 kJ/mol
# GULP energy per Si atom -5580.385419 kJ/mol
# Density = 1.881356 g / cm^3
# Si number density = 18.856477 Si / 1000 Ang^3
#
#
#
# Elastic Constant Matrix: (Units=GPa)
#
#
# Indices 1 2 3 4 5 6 
#
# 1 119.5778 65.6095 28.1510 0.0000 0.0000 0.0000
# 2 65.6095 155.1369 57.9954 0.0000 0.0000 0.0000
# 3 28.1510 57.9954 82.1253 0.0000 0.0000 0.0000
# 4 0.0000 0.0000 0.0000 22.9605 0.0000 0.0000
# 5 0.0000 0.0000 0.0000 0.0000 58.9967 0.0000
# 6 0.0000 0.0000 0.0000 0.0000 0.0000 25.8057
#
#
#
# Elastic Compliance Matrix: (Units=1/GPa)
#
#
# Indices 1 2 3 4 5 6 
#
# 1 0.010915 -0.004372 -0.000654 0.000000 0.000000 0.000000
# 2 -0.004372 0.010509 -0.005923 0.000000 0.000000 0.000000
# 3 -0.000654 -0.005923 0.016583 0.000000 0.000000 0.000000
# 4 0.000000 0.000000 0.000000 0.043553 0.000000 0.000000
# 5 0.000000 0.000000 0.000000 0.000000 0.016950 0.000000
# 6 0.000000 0.000000 0.000000 0.000000 0.000000 0.038751
#
#
# Mechanical properties :
#
#
# Convention : Reuss Voigt Hill
#
# Bulk Modulus (GPa) = 62.07263 73.37243 67.72253
# Shear Modulus (GPa) = 30.38975 35.22488 32.80731
#
# Velocity S-wave (km/s) = 4.01887 4.32679 4.17567
# Velocity P-wave (km/s) = 7.38411 7.99731 7.69682
#
# Compressibility (1/GPa) = 0.01611016
#
# Stress axis : x y z
#
# Youngs Moduli (GPa) = 91.61342 95.15820 60.30169
#
# Poissons Ratio (x) = 0.41600 0.03946
# Poissons Ratio (y) = 0.40050 0.35714
# Poissons Ratio (z) = 0.05995 0.56359
#
# Static dielectric constant tensor:
#      x y z
#    x 1.640100 0.000000 0.000000 
#    y 0.000000 1.641470 0.000000 
#    z 0.000000 0.000000 1.701060 
# 
# From -- ./inp_files/9736.got.cif
#   From: 2010.05.17/outbox.cif.g08.bks.cpg/sg65_5_cif.got.tgz:9736.got - 2010.06.03 17:01:31.
