data_PCOD9492560
_publ_section_title
;
Structure prediction by ZEFSAII (Michael W. Deem and Ramdas Pophale) SiO2 
 PCOD9492560
Probable space group: C M M M
;
_chemical_formula_sum "Si O2"
_cell_formula_units_Z 92
_cell_length_a 29.298457
_cell_length_b 7.658991
_cell_length_c 20.386369
_cell_angle_alpha 90.000000
_cell_angle_beta 90.000000
_cell_angle_gamma 90.000000
_cell_volume 4574.632267
_symmetry_space_group_name_H-M "C M M M"
_symmetry_group_IT_number 65
_symmetry_cell_setting 'orthorhombic'
loop_
_space_group_symop_operation_xyz
x,y,z
-x,-y,z
x,-y,-z
-x,y,-z
-x,-y,-z
x,y,-z
-x,y,z
x,-y,z
1/2+x,1/2+y,z
1/2-x,1/2-y,z
1/2+x,1/2-y,-z
1/2-x,1/2+y,-z
1/2-x,1/2-y,-z
1/2+x,1/2+y,-z
1/2-x,1/2+y,z
1/2+x,1/2-y,z
loop_
_atom_site_type_symbol
_atom_site_label
_atom_site_fract_x
_atom_site_fract_y
_atom_site_fract_z
Si Si1 0.303446 0.205272 0.500000
Si Si2 0.803378 0.790856 0.235942
Si Si3 0.645911 0.707610 0.633733
Si Si4 0.550545 0.705995 0.675735
Si Si5 0.948789 0.289547 0.172490
Si Si6 0.856271 0.702721 0.105680
Si Si7 0.166127 0.000000 0.000000
O O1 0.250000 0.250000 0.500000
O O2 0.328402 0.268009 0.565646
O O3 0.307127 0.000000 0.500000
O O4 0.750000 0.750000 0.234350
O O5 0.825086 0.726017 0.304312
O O6 0.829064 0.709481 0.174126
O O7 0.809280 0.000000 0.231799
O O8 0.641935 0.500000 0.643716
O O9 0.594284 0.779375 0.637731
O O10 0.500000 0.782281 0.663613
O O11 0.547527 0.500000 0.660877
O O12 0.559998 0.723426 0.753708
O O13 0.948543 0.500000 0.176148
O O14 0.908366 0.241870 0.123315
O O15 0.000000 0.232759 0.153367
O O16 0.856113 0.500000 0.082498
O O17 0.835774 0.844456 0.056712
#
# Coordination Sequence:
#
# PCOD9492560 Si02
#       7
#     8  16  16  16  16  16   4
#     4  12  26  42  61  86 125 167 212 257 323 386
#     4  11  22  39  65  95 124 157 210 268 314 374
#     4  10  21  38  62  92 129 166 206 258 311 367
#     4   9  17  31  57  92 125 160 204 252 302 360
#     4   9  18  33  57  90 125 161 203 255 311 368
#     4  11  23  42  66  91 126 168 209 264 319 380
#     4  12  26  44  67  88 134 166 214 254 327 396
#
# _framework density 20.110907000000001
#
# number of rings (size 3 to 8) (size 9 to 14) (size 15 to 20)
#    0.000    1.739    2.609    2.087    1.217    3.478 
#    0.000    1.739    0.000    4.696    0.000    0.000 
#    0.000    0.000    0.000    0.000    0.000    0.000 
#
# Total GULP energy -256291.501440 kJ/mol
# GULP energy per Si atom -5571.554379 kJ/mol
# Density = 2.006513 g / cm^3
# Si number density = 20.110907 Si / 1000 Ang^3
#
#
#
# Elastic Constant Matrix: (Units=GPa)
#
#
# Indices 1 2 3 4 5 6 
#
# 1 49.2018 20.1867 31.0440 0.0000 0.0000 0.0000
# 2 20.1867 73.9968 20.4132 0.0000 0.0000 0.0000
# 3 31.0440 20.4132 118.5146 0.0000 0.0000 0.0000
# 4 0.0000 0.0000 0.0000 -55.0888 0.0000 0.0000
# 5 0.0000 0.0000 0.0000 0.0000 -58.1355 0.0000
# 6 0.0000 0.0000 0.0000 0.0000 0.0000 -4.1024
#
#
#
# Elastic Compliance Matrix: (Units=1/GPa)
#
#
# Indices 1 2 3 4 5 6 
#
# 1 0.026353 -0.005549 -0.005947 0.000000 0.000000 0.000000
# 2 -0.005549 0.015357 -0.001192 0.000000 0.000000 0.000000
# 3 -0.005947 -0.001192 0.010201 0.000000 0.000000 0.000000
# 4 0.000000 0.000000 0.000000 -0.018152 0.000000 0.000000
# 5 0.000000 0.000000 0.000000 0.000000 -0.017201 0.000000
# 6 0.000000 0.000000 0.000000 0.000000 0.000000 -0.243757
#
#
# Mechanical properties :
#
#
# Convention : Reuss Voigt Hill
#
# Bulk Modulus (GPa) = 37.68526 42.77789 40.23157
# Shear Modulus (GPa) = -25.90952 -12.12740 -19.01846
#
# Velocity S-wave (km/s) = -3.59323 -2.45832 -3.07853
# Velocity P-wave (km/s) = 1.25074 3.64134 2.72247
#
# Compressibility (1/GPa) = 0.02653558
#
# Stress axis : x y z
#
# Youngs Moduli (GPa) = 37.94563 65.11889 98.03062
#
# Poissons Ratio (x) = 0.36132 0.58303
# Poissons Ratio (y) = 0.21055 0.11681
# Poissons Ratio (z) = 0.22568 0.07760
#
# Static dielectric constant tensor:
#      x y z
#    x 1.740710 0.000000 0.000000 
#    y 0.000000 1.711560 0.000000 
#    z 0.000000 0.000000 1.582940 
# 
# From -- ./inp_files/65790.got.cif
#   From: 2010.05.17/outbox.cif.g08.bks.cpg/sg65_33_cif.got.tgz:65790.got - 2010.06.03 17:01:31.
