data_PCOD9492916
_publ_section_title
;
Structure prediction by ZEFSAII (Michael W. Deem and Ramdas Pophale) SiO2 
 PCOD9492916
Probable space group: C M M M
;
_chemical_formula_sum "Si O2"
_cell_formula_units_Z 104
_cell_length_a 14.351311
_cell_length_b 19.396693
_cell_length_c 15.989431
_cell_angle_alpha 90.000000
_cell_angle_beta 90.000000
_cell_angle_gamma 90.000000
_cell_volume 4450.945507
_symmetry_space_group_name_H-M "C M M M"
_symmetry_group_IT_number 65
_symmetry_cell_setting 'orthorhombic'
loop_
_space_group_symop_operation_xyz
x,y,z
-x,-y,z
x,-y,-z
-x,y,-z
-x,-y,-z
x,y,-z
-x,y,z
x,-y,z
1/2+x,1/2+y,z
1/2-x,1/2-y,z
1/2+x,1/2-y,-z
1/2-x,1/2+y,-z
1/2-x,1/2-y,-z
1/2+x,1/2+y,-z
1/2-x,1/2+y,z
1/2+x,1/2-y,z
loop_
_atom_site_type_symbol
_atom_site_label
_atom_site_fract_x
_atom_site_fract_y
_atom_site_fract_z
Si Si1 0.747062 0.919682 0.405703
Si Si2 0.854763 0.223548 0.767344
Si Si3 0.396201 0.583017 0.000000
Si Si4 0.113324 0.076805 0.179322
Si Si5 0.890285 0.581923 0.251076
Si Si6 0.607484 0.172621 0.904643
Si Si7 0.646612 0.717159 0.409847
O O1 0.705373 0.913585 0.500000
O O2 0.673044 0.903288 0.332391
O O3 0.831150 0.864833 0.405222
O O4 0.775636 0.000000 0.395797
O O5 0.750000 0.250000 0.766501
O O6 0.860755 0.141586 0.767199
O O7 0.893245 0.255191 0.853429
O O8 0.896730 0.243274 0.677029
O O9 0.349219 0.596444 0.912681
O O10 0.407406 0.500000 0.000000
O O11 0.500000 0.614890 0.000000
O O12 0.000000 0.074003 0.173727
O O13 0.144826 0.000000 0.203265
O O14 0.885974 0.500000 0.236926
O O15 0.855043 0.620720 0.167196
O O16 0.000000 0.599845 0.264191
O O17 0.500000 0.151521 0.914363
O O18 0.646726 0.175981 0.000000
O O19 0.603235 0.732578 0.500000
O O20 0.750000 0.750000 0.411907
#
# Coordination Sequence:
#
# PCOD9492916 Si02
#       7
#    16  16   8  16  16  16  16
#     4   9  17  30  50  76 105 136 170 210 259 315
#     4  11  22  35  54  84 113 139 173 229 291 334
#     4   7  12  26  49  74  96 126 175 223 256 298
#     4   9  18  34  57  81 107 145 190 230 271 329
#     4   9  17  30  50  75 102 135 178 223 261 304
#     4  10  22  39  56  74 102 144 188 225 269 332
#     4   9  18  33  52  72  99 138 178 212 259 328
#
# _framework density 23.365821
#
# number of rings (size 3 to 8) (size 9 to 14) (size 15 to 20)
#    0.000    2.692    0.000    3.231    1.077    1.538 
#    0.000    3.846    0.000    2.769    0.000    1.077 
#    0.000    0.000    0.000    0.000    0.000    0.000 
#
# Total GULP energy -289831.818897 kJ/mol
# GULP energy per Si atom -5573.688825 kJ/mol
# Density = 2.331264 g / cm^3
# Si number density = 23.365821 Si / 1000 Ang^3
#
#
#
# Elastic Constant Matrix: (Units=GPa)
#
#
# Indices 1 2 3 4 5 6 
#
# 1 63.3183 -0.3433 20.0993 0.0000 0.0000 0.0000
# 2 -0.3433 108.7279 27.3758 0.0000 0.0000 0.0000
# 3 20.0993 27.3758 220.8044 0.0000 0.0000 0.0000
# 4 0.0000 0.0000 0.0000 34.7333 0.0000 0.0000
# 5 0.0000 0.0000 0.0000 0.0000 -58.0412 0.0000
# 6 0.0000 0.0000 0.0000 0.0000 0.0000 15.7608
#
#
#
# Elastic Compliance Matrix: (Units=1/GPa)
#
#
# Indices 1 2 3 4 5 6 
#
# 1 0.016283 0.000438 -0.001537 0.000000 0.000000 0.000000
# 2 0.000438 0.009505 -0.001218 0.000000 0.000000 0.000000
# 3 -0.001537 -0.001218 0.004820 0.000000 0.000000 0.000000
# 4 0.000000 0.000000 0.000000 0.028791 0.000000 0.000000
# 5 0.000000 0.000000 0.000000 0.000000 -0.017229 0.000000
# 6 0.000000 0.000000 0.000000 0.000000 0.000000 0.063448
#
#
# Mechanical properties :
#
#
# Convention : Reuss Voigt Hill
#
# Bulk Modulus (GPa) = 38.49819 54.12381 46.31100
# Shear Modulus (GPa) = 42.04845 21.53850 31.79348
#
# Velocity S-wave (km/s) = 4.24674 3.03940 3.69275
# Velocity P-wave (km/s) = 6.36855 5.96081 6.16805
#
# Compressibility (1/GPa) = 0.02597524
#
# Stress axis : x y z
#
# Youngs Moduli (GPa) = 61.41243 105.20309 207.47641
#
# Poissons Ratio (x) = -0.04611 0.31880
# Poissons Ratio (y) = -0.02692 0.25279
# Poissons Ratio (z) = 0.09436 0.12818
#
# Static dielectric constant tensor:
#      x y z
#    x 1.906510 0.000000 0.000000 
#    y 0.000000 1.554630 0.000000 
#    z 0.000000 0.000000 1.965520 
# 
# From -- ./inp_files/42830.got.cif
#   From: 2010.05.17/outbox.cif.g08.bks.cpg/sg65_22_cif.got.tgz:42830.got - 2010.06.03 17:01:31.
