data_PCOD9492581
_publ_section_title
;
Structure prediction by ZEFSAII (Michael W. Deem and Ramdas Pophale) SiO2 
 PCOD9492581
Probable space group: C M M M
;
_chemical_formula_sum "Si O2"
_cell_formula_units_Z 72
_cell_length_a 8.051856
_cell_length_b 21.826989
_cell_length_c 22.033161
_cell_angle_alpha 90.000000
_cell_angle_beta 90.000000
_cell_angle_gamma 90.000000
_cell_volume 3872.278963
_symmetry_space_group_name_H-M "C M M M"
_symmetry_group_IT_number 65
_symmetry_cell_setting 'orthorhombic'
loop_
_space_group_symop_operation_xyz
x,y,z
-x,-y,z
x,-y,-z
-x,y,-z
-x,-y,-z
x,y,-z
-x,y,z
x,-y,z
1/2+x,1/2+y,z
1/2-x,1/2-y,z
1/2+x,1/2-y,-z
1/2-x,1/2+y,-z
1/2-x,1/2-y,-z
1/2+x,1/2+y,-z
1/2-x,1/2+y,z
1/2+x,1/2-y,z
loop_
_atom_site_type_symbol
_atom_site_label
_atom_site_fract_x
_atom_site_fract_y
_atom_site_fract_z
Si Si1 0.299296 0.820351 0.751068
Si Si2 0.305367 0.875558 0.374615
Si Si3 0.693987 0.572627 0.843140
Si Si4 0.500000 0.073489 0.931721
Si Si5 0.694592 0.500000 0.429488
Si Si6 0.196715 0.181151 0.500000
O O1 0.500000 0.823509 0.755172
O O2 0.250000 0.750000 0.766169
O O3 0.240735 0.836967 0.682489
O O4 0.226154 0.875452 0.792207
O O5 0.500000 0.881192 0.364395
O O6 0.270544 0.844690 0.438597
O O7 0.237713 0.942551 0.387797
O O8 0.500000 0.576483 0.862297
O O9 0.721116 0.500000 0.824885
O O10 0.831858 0.587630 0.894452
O O11 0.500000 0.000000 0.936548
O O12 0.500000 0.099289 0.000000
O O13 0.500000 0.500000 0.438798
O O14 0.767194 0.500000 0.500000
O O15 0.250000 0.250000 0.500000
O O16 0.000000 0.170576 0.500000
#
# Coordination Sequence:
#
# PCOD9492581 Si02
#       6
#    16  16  16   8   8   8
#     4  11  24  41  62  90 123 164 210 260 314 377
#     4  11  24  40  60  84 113 151 199 251 310 372
#     4  10  21  38  63  96 132 171 213 258 311 369
#     4   9  18  36  64  98 136 171 210 260 305 359
#     4  11  23  39  59  85 114 150 192 247 314 377
#     4  12  24  39  58  79 108 146 190 250 306 370
#
# _framework density 18.593700999999999
#
# number of rings (size 3 to 8) (size 9 to 14) (size 15 to 20)
#    0.000    1.333    2.222    3.333    1.556    6.222 
#    0.000    2.222    0.000    0.667    0.000    0.000 
#    0.000    0.000    0.000    0.000    0.000    0.000 
#
# Total GULP energy -200612.320659 kJ/mol
# GULP energy per Si atom -5572.564463 kJ/mol
# Density = 1.855138 g / cm^3
# Si number density = 18.593701 Si / 1000 Ang^3
#
#
#
# Elastic Constant Matrix: (Units=GPa)
#
#
# Indices 1 2 3 4 5 6 
#
# 1 98.3362 31.9046 39.6050 0.0000 0.0000 0.0000
# 2 31.9046 136.2426 54.1680 0.0000 0.0000 0.0000
# 3 39.6050 54.1680 116.0784 0.0000 0.0000 0.0000
# 4 0.0000 0.0000 0.0000 5.4055 0.0000 0.0000
# 5 0.0000 0.0000 0.0000 0.0000 3.5473 0.0000
# 6 0.0000 0.0000 0.0000 0.0000 0.0000 52.6312
#
#
#
# Elastic Compliance Matrix: (Units=1/GPa)
#
#
# Indices 1 2 3 4 5 6 
#
# 1 0.012019 -0.001454 -0.003422 0.000000 0.000000 0.000000
# 2 -0.001454 0.009188 -0.003791 0.000000 0.000000 0.000000
# 3 -0.003422 -0.003791 0.011552 0.000000 0.000000 0.000000
# 4 0.000000 0.000000 0.000000 0.184997 0.000000 0.000000
# 5 0.000000 0.000000 0.000000 0.000000 0.281905 0.000000
# 6 0.000000 0.000000 0.000000 0.000000 0.000000 0.019000
#
#
# Mechanical properties :
#
#
# Convention : Reuss Voigt Hill
#
# Bulk Modulus (GPa) = 64.83657 66.89027 65.86342
# Shear Modulus (GPa) = 9.23980 27.31544 18.27762
#
# Velocity S-wave (km/s) = 2.23161 3.83700 3.13869
# Velocity P-wave (km/s) = 6.44872 7.46210 6.97384
#
# Compressibility (1/GPa) = 0.01542340
#
# Stress axis : x y z
#
# Youngs Moduli (GPa) = 83.19956 108.84099 86.56644
#
# Poissons Ratio (x) = 0.15825 0.29627
# Poissons Ratio (y) = 0.12096 0.32821
# Poissons Ratio (z) = 0.28474 0.41266
#
# Static dielectric constant tensor:
#      x y z
#    x 1.657780 0.000000 0.000000 
#    y 0.000000 1.796160 0.000000 
#    z 0.000000 0.000000 1.644840 
# 
# From -- ./inp_files/59352.got.cif
#   From: 2010.05.17/outbox.cif.g08.bks.cpg/sg65_30_cif.got.tgz:59352.got - 2010.06.03 17:01:31.
