data_PCOD9492738
_publ_section_title
;
Structure prediction by ZEFSAII (Michael W. Deem and Ramdas Pophale) SiO2 
 PCOD9492738
Probable space group: C M M M
;
_chemical_formula_sum "Si O2"
_cell_formula_units_Z 58
_cell_length_a 19.506372
_cell_length_b 17.194012
_cell_length_c 7.973237
_cell_angle_alpha 90.000000
_cell_angle_beta 90.000000
_cell_angle_gamma 90.000000
_cell_volume 2674.166237
_symmetry_space_group_name_H-M "C M M M"
_symmetry_group_IT_number 65
_symmetry_cell_setting 'orthorhombic'
loop_
_space_group_symop_operation_xyz
x,y,z
-x,-y,z
x,-y,-z
-x,y,-z
-x,-y,-z
x,y,-z
-x,y,z
x,-y,z
1/2+x,1/2+y,z
1/2-x,1/2-y,z
1/2+x,1/2-y,-z
1/2-x,1/2+y,-z
1/2-x,1/2-y,-z
1/2+x,1/2+y,-z
1/2-x,1/2+y,z
1/2+x,1/2-y,z
loop_
_atom_site_type_symbol
_atom_site_label
_atom_site_fract_x
_atom_site_fract_y
_atom_site_fract_z
Si Si1 0.422815 0.275692 0.801366
Si Si2 0.333325 0.410810 0.697739
Si Si3 0.000000 0.500000 0.500000
Si Si4 0.894798 0.500000 0.811571
Si Si5 0.309112 0.842597 0.805751
O O1 0.500000 0.263804 0.733261
O O2 0.395673 0.363066 0.778229
O O3 0.363077 0.219405 0.730893
O O4 0.426212 0.258205 0.000000
O O5 0.345676 0.414449 0.500000
O O6 0.325101 0.500000 0.760292
O O7 0.264336 0.360509 0.726498
O O8 0.942162 0.500000 0.650104
O O9 0.848546 0.423821 0.802848
O O10 0.926246 0.500000 0.000000
O O11 0.296013 0.821136 0.000000
#
# Coordination Sequence:
#
# PCOD9492738 Si02
#       5
#    16  16   2   8  16
#     4  10  23  42  64  92 125 164 210 263 324 391
#     4  11  24  41  63  91 127 165 211 267 321 383
#     4  12  26  36  60  98 136 184 218 268 328 406
#     4  10  23  41  63  94 134 176 221 273 326 387
#     4  10  21  40  66  93 124 164 212 265 323 385
#
# _framework density 21.689001999999999
#
# number of rings (size 3 to 8) (size 9 to 14) (size 15 to 20)
#    0.000    1.655    1.379    1.862    3.862    7.172 
#    0.000    2.759    0.000    0.000    0.000    0.000 
#    0.000    0.000    0.000    0.000    0.000    0.000 
#
# Total GULP energy -161632.938743 kJ/mol
# GULP energy per Si atom -5573.549612 kJ/mol
# Density = 2.163964 g / cm^3
# Si number density = 21.689002 Si / 1000 Ang^3
#
#
#
# Elastic Constant Matrix: (Units=GPa)
#
#
# Indices 1 2 3 4 5 6 
#
# 1 69.3888 74.3375 3.2288 0.0000 0.0000 0.0000
# 2 74.3375 127.6324 -3.8620 0.0000 0.0000 0.0000
# 3 3.2288 -3.8620 64.9806 0.0000 0.0000 0.0000
# 4 0.0000 0.0000 0.0000 73.0373 0.0000 0.0000
# 5 0.0000 0.0000 0.0000 0.0000 28.8266 0.0000
# 6 0.0000 0.0000 0.0000 0.0000 0.0000 3.7374
#
#
#
# Elastic Compliance Matrix: (Units=1/GPa)
#
#
# Indices 1 2 3 4 5 6 
#
# 1 0.039018 -0.022825 -0.003295 0.000000 0.000000 0.000000
# 2 -0.022825 0.021201 0.002394 0.000000 0.000000 0.000000
# 3 -0.003295 0.002394 0.015695 0.000000 0.000000 0.000000
# 4 0.000000 0.000000 0.000000 0.013692 0.000000 0.000000
# 5 0.000000 0.000000 0.000000 0.000000 0.034690 0.000000
# 6 0.000000 0.000000 0.000000 0.000000 0.000000 0.267569
#
#
# Mechanical properties :
#
#
# Convention : Reuss Voigt Hill
#
# Bulk Modulus (GPa) = 35.13415 45.49004 40.31209
# Shear Modulus (GPa) = 11.14072 33.67344 22.40708
#
# Velocity S-wave (km/s) = 2.26886 3.94453 3.21769
# Velocity P-wave (km/s) = 4.80602 6.46259 5.69486
#
# Compressibility (1/GPa) = 0.02846234
#
# Stress axis : x y z
#
# Youngs Moduli (GPa) = 25.62951 47.16669 63.71360
#
# Poissons Ratio (x) = 1.07657 0.20995
# Poissons Ratio (y) = 0.58499 -0.15254
# Poissons Ratio (z) = 0.08446 -0.11293
#
# Static dielectric constant tensor:
#      x y z
#    x 1.788950 0.000000 0.000000 
#    y 0.000000 1.830130 0.000000 
#    z 0.000000 0.000000 1.785340 
# 
# From -- ./inp_files/8553.got.cif
#   From: 2010.05.17/outbox.cif.g08.bks.cpg/sg65_5_cif.got.tgz:8553.got - 2010.06.03 17:01:31.
