data_PCOD9492601
_publ_section_title
;
Structure prediction by ZEFSAII (Michael W. Deem and Ramdas Pophale) SiO2 
 PCOD9492601
Probable space group: C M M M
;
_chemical_formula_sum "Si O2"
_cell_formula_units_Z 68
_cell_length_a 14.866841
_cell_length_b 25.369158
_cell_length_c 11.077389
_cell_angle_alpha 90.000000
_cell_angle_beta 90.000000
_cell_angle_gamma 90.000000
_cell_volume 4177.939597
_symmetry_space_group_name_H-M "C M M M"
_symmetry_group_IT_number 65
_symmetry_cell_setting 'orthorhombic'
loop_
_space_group_symop_operation_xyz
x,y,z
-x,-y,z
x,-y,-z
-x,y,-z
-x,-y,-z
x,y,-z
-x,y,z
x,-y,z
1/2+x,1/2+y,z
1/2-x,1/2-y,z
1/2+x,1/2-y,-z
1/2-x,1/2+y,-z
1/2-x,1/2-y,-z
1/2+x,1/2+y,-z
1/2-x,1/2+y,z
1/2+x,1/2-y,z
loop_
_atom_site_type_symbol
_atom_site_label
_atom_site_fract_x
_atom_site_fract_y
_atom_site_fract_z
Si Si1 0.000000 0.192997 0.737449
Si Si2 0.500000 0.696446 0.000000
Si Si3 0.645041 0.142773 0.768347
Si Si4 0.500000 0.061481 0.855057
Si Si5 0.156502 0.281350 0.000000
Si Si6 0.000000 0.298837 0.365687
Si Si7 0.797276 0.807771 0.356789
O O1 0.000000 0.256587 0.741008
O O2 0.903361 0.185896 0.673029
O O3 0.000000 0.167961 0.870526
O O4 0.585021 0.734764 0.000000
O O5 0.589348 0.091061 0.805828
O O6 0.644495 0.181180 0.884261
O O7 0.587372 0.166949 0.658016
O O8 0.745470 0.146953 0.717719
O O9 0.500000 0.000000 0.823373
O O10 0.500000 0.066706 0.000000
O O11 0.250000 0.250000 0.000000
O O12 0.000000 0.275601 0.500000
O O13 0.785735 0.812624 0.500000
O O14 0.750000 0.750000 0.324283
#
# Coordination Sequence:
#
# PCOD9492601 Si02
#       7
#     8   4  16   8   8   8  16
#     4  12  21  31  45  71 105 152 187 223 259 312
#     4  12  18  30  42  60 101 136 177 220 250 284
#     4  11  20  33  51  75 103 143 180 228 278 323
#     4  10  21  39  60  83 111 141 186 238 291 338
#     4  12  20  30  44  71 107 140 179 213 258 318
#     4  11  19  29  46  66  98 139 181 216 256 319
#     4  11  21  33  48  73 109 152 192 224 267 333
#
# _framework density 16.275964999999999
#
# number of rings (size 3 to 8) (size 9 to 14) (size 15 to 20)
#    0.000    0.824    5.882    4.588    0.000    0.000 
#    0.000    0.000    0.000   12.706    0.000    0.824 
#    0.000    3.765    0.000    0.000    0.000    0.000 
#
# Total GULP energy -189276.339229 kJ/mol
# GULP energy per Si atom -5566.951154 kJ/mol
# Density = 1.623892 g / cm^3
# Si number density = 16.275965 Si / 1000 Ang^3
#
#
#
# Elastic Constant Matrix: (Units=GPa)
#
#
# Indices 1 2 3 4 5 6 
#
# 1 140.7997 40.4855 27.0009 0.0000 0.0000 0.0000
# 2 40.4855 67.7141 20.0673 0.0000 0.0000 0.0000
# 3 27.0009 20.0673 91.2508 0.0000 0.0000 0.0000
# 4 0.0000 0.0000 0.0000 14.0113 0.0000 0.0000
# 5 0.0000 0.0000 0.0000 0.0000 19.2259 0.0000
# 6 0.0000 0.0000 0.0000 0.0000 0.0000 13.7377
#
#
#
# Elastic Compliance Matrix: (Units=1/GPa)
#
#
# Indices 1 2 3 4 5 6 
#
# 1 0.008775 -0.004789 -0.001543 0.000000 0.000000 0.000000
# 2 -0.004789 0.018411 -0.002632 0.000000 0.000000 0.000000
# 3 -0.001543 -0.002632 0.011994 0.000000 0.000000 0.000000
# 4 0.000000 0.000000 0.000000 0.071371 0.000000 0.000000
# 5 0.000000 0.000000 0.000000 0.000000 0.052013 0.000000
# 6 0.000000 0.000000 0.000000 0.000000 0.000000 0.072792
#
#
# Mechanical properties :
#
#
# Convention : Reuss Voigt Hill
#
# Bulk Modulus (GPa) = 47.05417 52.76355 49.90886
# Shear Modulus (GPa) = 19.20340 23.54237 21.37289
#
# Velocity S-wave (km/s) = 3.43864 3.80735 3.62768
# Velocity P-wave (km/s) = 6.68869 7.19836 6.94820
#
# Compressibility (1/GPa) = 0.02125210
#
# Stress axis : x y z
#
# Youngs Moduli (GPa) = 113.95523 54.31424 83.37326
#
# Poissons Ratio (x) = 0.26013 0.12868
# Poissons Ratio (y) = 0.54577 0.21942
# Poissons Ratio (z) = 0.17588 0.14294
#
# Static dielectric constant tensor:
#      x y z
#    x 1.613520 0.000000 0.000000 
#    y 0.000000 1.534220 0.000000 
#    z 0.000000 0.000000 1.572370 
# 
# From -- ./inp_files/24955.got.cif
#   From: 2010.05.17/outbox.cif.g08.bks.cpg/sg65_13_cif.got.tgz:24955.got - 2010.06.03 17:01:31.
