data_PCOD9492280
_publ_section_title
;
Structure prediction by ZEFSAII (Michael W. Deem and Ramdas Pophale) SiO2 
 PCOD9492280
Probable space group: C M M M
;
_chemical_formula_sum "Si O2"
_cell_formula_units_Z 96
_cell_length_a 13.713267
_cell_length_b 22.761070
_cell_length_c 16.766659
_cell_angle_alpha 90.000000
_cell_angle_beta 90.000000
_cell_angle_gamma 90.000000
_cell_volume 5233.354305
_symmetry_space_group_name_H-M "C M M M"
_symmetry_group_IT_number 65
_symmetry_cell_setting 'orthorhombic'
loop_
_space_group_symop_operation_xyz
x,y,z
-x,-y,z
x,-y,-z
-x,y,-z
-x,-y,-z
x,y,-z
-x,y,z
x,-y,z
1/2+x,1/2+y,z
1/2-x,1/2-y,z
1/2+x,1/2-y,-z
1/2-x,1/2+y,-z
1/2-x,1/2-y,-z
1/2+x,1/2+y,-z
1/2-x,1/2+y,z
1/2+x,1/2-y,z
loop_
_atom_site_type_symbol
_atom_site_label
_atom_site_fract_x
_atom_site_fract_y
_atom_site_fract_z
Si Si1 0.113800 0.785503 0.670077
Si Si2 0.887438 0.569100 0.690081
Si Si3 0.699242 0.169278 0.593576
Si Si4 0.882924 0.606948 0.000000
Si Si5 0.117571 0.255767 0.000000
Si Si6 0.383962 0.675466 0.850935
Si Si7 0.237569 0.568105 0.151073
O O1 0.188545 0.826472 0.621624
O O2 0.142888 0.720071 0.642562
O O3 0.131353 0.795571 0.764068
O O4 0.000000 0.796475 0.653820
O O5 0.882394 0.500000 0.672527
O O6 0.847370 0.608028 0.618437
O O7 0.821545 0.580526 0.767693
O O8 0.000000 0.584247 0.707077
O O9 0.691363 0.181164 0.500000
O O10 0.835990 0.577811 0.922229
O O11 0.854573 0.676053 0.000000
O O12 0.000000 0.601737 0.000000
O O13 0.146534 0.219896 0.078856
O O14 0.000000 0.256451 0.000000
O O15 0.500000 0.664408 0.859287
O O16 0.324054 0.615155 0.856328
O O17 0.270093 0.500000 0.152074
#
# Coordination Sequence:
#
# PCOD9492280 Si02
#       7
#    16  16  16   8   8  16  16
#     4  10  21  37  60  89 122 157 193 238 297 357
#     4  10  22  40  60  83 116 155 194 242 297 353
#     4  11  23  38  60  89 119 151 195 248 298 359
#     4  11  24  38  59  88 120 159 197 240 292 347
#     4   9  21  37  56  89 123 152 190 232 281 337
#     4  10  21  39  61  87 120 156 194 239 290 349
#     4  11  23  39  59  85 116 154 200 244 287 343
#
# _framework density 18.343875000000001
#
# number of rings (size 3 to 8) (size 9 to 14) (size 15 to 20)
#    0.000    1.667    1.667    2.750    2.333    5.667 
#    0.000    0.833    0.000    3.000    0.000    1.167 
#    0.000    0.000    0.000    0.000    0.000    0.000 
#
# Total GULP energy -268180.306836 kJ/mol
# GULP energy per Si atom -5587.089726 kJ/mol
# Density = 1.830212 g / cm^3
# Si number density = 18.343875 Si / 1000 Ang^3
#
#
#
# Elastic Constant Matrix: (Units=GPa)
#
#
# Indices 1 2 3 4 5 6 
#
# 1 78.9975 29.0258 24.6340 0.0000 0.0000 0.0000
# 2 29.0258 56.4461 38.8932 0.0000 0.0000 0.0000
# 3 24.6340 38.8932 91.5344 0.0000 0.0000 0.0000
# 4 0.0000 0.0000 0.0000 -76.0137 0.0000 0.0000
# 5 0.0000 0.0000 0.0000 0.0000 19.4865 0.0000
# 6 0.0000 0.0000 0.0000 0.0000 0.0000 30.9455
#
#
#
# Elastic Compliance Matrix: (Units=1/GPa)
#
#
# Indices 1 2 3 4 5 6 
#
# 1 0.015689 -0.007294 -0.001123 0.000000 0.000000 0.000000
# 2 -0.007294 0.028441 -0.010122 0.000000 0.000000 0.000000
# 3 -0.001123 -0.010122 0.015528 0.000000 0.000000 0.000000
# 4 0.000000 0.000000 0.000000 -0.013156 0.000000 0.000000
# 5 0.000000 0.000000 0.000000 0.000000 0.051318 0.000000
# 6 0.000000 0.000000 0.000000 0.000000 0.000000 0.032315
#
#
# Mechanical properties :
#
#
# Convention : Reuss Voigt Hill
#
# Bulk Modulus (GPa) = 44.28603 45.78712 45.03657
# Shear Modulus (GPa) = 28.61426 3.84529 16.22977
#
# Velocity S-wave (km/s) = 3.95382 1.44941 2.97770
# Velocity P-wave (km/s) = 6.71104 5.27406 6.03547
#
# Compressibility (1/GPa) = 0.02258049
#
# Stress axis : x y z
#
# Youngs Moduli (GPa) = 63.74007 35.16083 64.40040
#
# Poissons Ratio (x) = 0.25645 0.07233
# Poissons Ratio (y) = 0.46490 0.65184
# Poissons Ratio (z) = 0.07159 0.35589
#
# Static dielectric constant tensor:
#      x y z
#    x 1.638460 0.000000 0.000000 
#    y 0.000000 1.614630 0.000000 
#    z 0.000000 0.000000 1.613680 
# 
# From -- ./inp_files/40433.got.cif
#   From: 2010.05.17/outbox.cif.g08.bks.cpg/sg65_21_cif.got.tgz:40433.got - 2010.06.03 17:01:31.
