data_PCOD9492899
_publ_section_title
;
Structure prediction by ZEFSAII (Michael W. Deem and Ramdas Pophale) SiO2 
 PCOD9492899
Probable space group: C M M M
;
_chemical_formula_sum "Si O2"
_cell_formula_units_Z 112
_cell_length_a 14.464723
_cell_length_b 23.807401
_cell_length_c 14.984004
_cell_angle_alpha 90.000000
_cell_angle_beta 90.000000
_cell_angle_gamma 90.000000
_cell_volume 5160.003410
_symmetry_space_group_name_H-M "C M M M"
_symmetry_group_IT_number 65
_symmetry_cell_setting 'orthorhombic'
loop_
_space_group_symop_operation_xyz
x,y,z
-x,-y,z
x,-y,-z
-x,y,-z
-x,-y,-z
x,y,-z
-x,y,z
x,-y,z
1/2+x,1/2+y,z
1/2-x,1/2-y,z
1/2+x,1/2-y,-z
1/2-x,1/2+y,-z
1/2-x,1/2-y,-z
1/2+x,1/2+y,-z
1/2-x,1/2+y,z
1/2+x,1/2-y,z
loop_
_atom_site_type_symbol
_atom_site_label
_atom_site_fract_x
_atom_site_fract_y
_atom_site_fract_z
Si Si1 0.890536 0.168825 0.606964
Si Si2 0.390213 0.905817 0.717924
Si Si3 0.194448 0.597835 0.100927
Si Si4 0.645964 0.772001 0.095062
Si Si5 0.896203 0.275073 0.709033
Si Si6 0.222656 0.060470 0.607160
Si Si7 0.898568 0.933997 0.108009
O O1 0.880748 0.173972 0.500000
O O2 0.851701 0.224938 0.653386
O O3 0.838173 0.112997 0.637892
O O4 0.000000 0.163382 0.626600
O O5 0.500000 0.911209 0.705074
O O6 0.362301 0.927311 0.816715
O O7 0.362569 0.839272 0.710009
O O8 0.325099 0.935152 0.646588
O O9 0.154348 0.660670 0.093489
O O10 0.302753 0.597320 0.129395
O O11 0.188245 0.573150 0.000000
O O12 0.750000 0.750000 0.098541
O O13 0.600785 0.756011 0.187849
O O14 0.605620 0.752857 0.000000
O O15 0.000000 0.279803 0.672380
O O16 0.226157 0.062866 0.500000
O O17 0.182022 0.000000 0.633458
O O18 0.000000 0.914159 0.141050
O O19 0.888205 0.000000 0.132120
O O20 0.902937 0.931707 0.000000
#
# Coordination Sequence:
#
# PCOD9492899 Si02
#       7
#    16  16  16  16  16  16  16
#     4   9  19  37  63  95 125 152 185 229 287 356
#     4  10  22  38  58  86 118 155 198 247 298 342
#     4   9  18  33  54  81 114 152 194 239 286 341
#     4   9  18  31  49  74 108 152 196 234 277 329
#     4   9  19  34  56  86 118 152 190 239 294 348
#     4  10  23  42  63  88 116 151 195 238 287 349
#     4   8  14  27  49  76 107 144 183 227 284 343
#
# _framework density 21.705411000000002
#
# number of rings (size 3 to 8) (size 9 to 14) (size 15 to 20)
#    0.000    2.857    0.000    0.429    4.000    2.571 
#    0.000    9.286    0.000    2.571    0.000    3.000 
#    0.000    0.000    0.000    3.143    0.000    0.286 
#
# Total GULP energy -312126.160447 kJ/mol
# GULP energy per Si atom -5573.681437 kJ/mol
# Density = 2.165601 g / cm^3
# Si number density = 21.705411 Si / 1000 Ang^3
#
#
#
# Elastic Constant Matrix: (Units=GPa)
#
#
# Indices 1 2 3 4 5 6 
#
# 1 92.3423 28.1388 23.5851 0.0000 0.0000 0.0000
# 2 28.1388 80.9687 41.2714 0.0000 0.0000 0.0000
# 3 23.5851 41.2714 37.8403 0.0000 0.0000 0.0000
# 4 0.0000 0.0000 0.0000 -8.0370 0.0000 0.0000
# 5 0.0000 0.0000 0.0000 0.0000 28.8314 0.0000
# 6 0.0000 0.0000 0.0000 0.0000 0.0000 -26.4060
#
#
#
# Elastic Compliance Matrix: (Units=1/GPa)
#
#
# Indices 1 2 3 4 5 6 
#
# 1 0.012907 -0.000867 -0.007099 0.000000 0.000000 0.000000
# 2 -0.000867 0.027871 -0.029857 0.000000 0.000000 0.000000
# 3 -0.007099 -0.029857 0.063416 0.000000 0.000000 0.000000
# 4 0.000000 0.000000 0.000000 -0.124425 0.000000 0.000000
# 5 0.000000 0.000000 0.000000 0.000000 0.034684 0.000000
# 6 0.000000 0.000000 0.000000 0.000000 0.000000 -0.037870
#
#
# Mechanical properties :
#
#
# Convention : Reuss Voigt Hill
#
# Bulk Modulus (GPa) = 35.03007 44.12686 39.57847
# Shear Modulus (GPa) = 80.97894 6.75476 43.86685
#
# Velocity S-wave (km/s) = 6.11467 1.76600 4.50044
# Velocity P-wave (km/s) = 8.12565 4.95302 6.72899
#
# Compressibility (1/GPa) = 0.02854690
#
# Stress axis : x y z
#
# Youngs Moduli (GPa) = 77.48001 35.88006 15.76890
#
# Poissons Ratio (x) = 0.03111 0.11194
# Poissons Ratio (y) = 0.06717 0.47082
# Poissons Ratio (z) = 0.55001 1.07128
#
# Static dielectric constant tensor:
#      x y z
#    x 1.791730 0.000000 0.000000 
#    y 0.000000 1.808170 0.000000 
#    z 0.000000 0.000000 1.811210 
# 
# From -- ./inp_files/40825.got.cif
#   From: 2010.05.17/outbox.cif.g08.bks.cpg/sg65_21_cif.got.tgz:40825.got - 2010.06.03 17:01:31.
