data_PCOD9492533
_publ_section_title
;
Structure prediction by ZEFSAII (Michael W. Deem and Ramdas Pophale) SiO2 
 PCOD9492533
Probable space group: C M M M
;
_chemical_formula_sum "Si O2"
_cell_formula_units_Z 104
_cell_length_a 22.155460
_cell_length_b 28.160677
_cell_length_c 8.838940
_cell_angle_alpha 90.000000
_cell_angle_beta 90.000000
_cell_angle_gamma 90.000000
_cell_volume 5514.727388
_symmetry_space_group_name_H-M "C M M M"
_symmetry_group_IT_number 65
_symmetry_cell_setting 'orthorhombic'
loop_
_space_group_symop_operation_xyz
x,y,z
-x,-y,z
x,-y,-z
-x,y,-z
-x,-y,-z
x,y,-z
-x,y,z
x,-y,z
1/2+x,1/2+y,z
1/2-x,1/2-y,z
1/2+x,1/2-y,-z
1/2-x,1/2+y,-z
1/2-x,1/2-y,-z
1/2+x,1/2+y,-z
1/2-x,1/2+y,z
1/2+x,1/2-y,z
loop_
_atom_site_type_symbol
_atom_site_label
_atom_site_fract_x
_atom_site_fract_y
_atom_site_fract_z
Si Si1 0.169687 0.167739 0.319498
Si Si2 0.500000 0.100068 0.679890
Si Si3 0.571076 0.600006 0.819230
Si Si4 0.926770 0.000000 0.673912
Si Si5 0.873435 0.272229 0.681012
Si Si6 0.381161 0.054712 0.818922
Si Si7 0.796845 0.358315 0.819110
Si Si8 0.000000 0.705589 0.819069
O O1 0.173206 0.162503 0.500000
O O2 0.111971 0.139728 0.257192
O O3 0.161891 0.223594 0.285469
O O4 0.229923 0.147401 0.244617
O O5 0.500000 0.107153 0.500000
O O6 0.440753 0.071820 0.732323
O O7 0.500000 0.151108 0.761868
O O8 0.500000 0.606294 0.782482
O O9 0.590888 0.548272 0.758301
O O10 0.577335 0.601540 0.000000
O O11 0.906177 0.000000 0.500000
O O12 0.000000 0.000000 0.673286
O O13 0.878770 0.277094 0.500000
O O14 0.838205 0.317189 0.747517
O O15 0.939660 0.270757 0.753902
O O16 0.327385 0.091114 0.782899
O O17 0.367198 0.000000 0.784332
O O18 0.392853 0.058349 0.000000
O O19 0.796470 0.352829 0.000000
O O20 0.000000 0.706813 0.000000
#
# Coordination Sequence:
#
# PCOD9492533 Si02
#       8
#    16   8  16   8  16  16  16   8
#     4  11  25  42  62  89 125 165 204 250 311 374
#     4  12  23  37  62  95 130 166 209 261 315 372
#     4  10  21  38  61  90 121 155 200 254 305 359
#     4   9  17  33  59  87 117 155 193 236 297 364
#     4  11  24  42  64  91 124 163 204 254 312 371
#     4  10  22  41  64  91 126 168 212 260 314 370
#     4  11  23  41  65  90 121 165 211 255 305 369
#     4  12  24  39  63  94 126 164 207 258 317 374
#
# _framework density 18.858594
#
# number of rings (size 3 to 8) (size 9 to 14) (size 15 to 20)
#    0.000    1.308    1.538    4.154    1.077    8.000 
#    1.385    0.000    0.000    0.000    0.000    0.000 
#    0.000    0.000    0.000    0.000    0.000    0.000 
#
# Total GULP energy -290769.782333 kJ/mol
# GULP energy per Si atom -5591.726583 kJ/mol
# Density = 1.881567 g / cm^3
# Si number density = 18.858594 Si / 1000 Ang^3
#
#
#
# Elastic Constant Matrix: (Units=GPa)
#
#
# Indices 1 2 3 4 5 6 
#
# 1 114.1754 58.7460 57.1377 0.0000 0.0000 0.0000
# 2 58.7460 105.8111 60.4308 0.0000 0.0000 0.0000
# 3 57.1377 60.4308 82.1684 0.0000 0.0000 0.0000
# 4 0.0000 0.0000 0.0000 33.0575 0.0000 0.0000
# 5 0.0000 0.0000 0.0000 0.0000 21.5120 0.0000
# 6 0.0000 0.0000 0.0000 0.0000 0.0000 11.8630
#
#
#
# Elastic Compliance Matrix: (Units=1/GPa)
#
#
# Indices 1 2 3 4 5 6 
#
# 1 0.014309 -0.003900 -0.007082 0.000000 0.000000 0.000000
# 2 -0.003900 0.017358 -0.010054 0.000000 0.000000 0.000000
# 3 -0.007082 -0.010054 0.024489 0.000000 0.000000 0.000000
# 4 0.000000 0.000000 0.000000 0.030250 0.000000 0.000000
# 5 0.000000 0.000000 0.000000 0.000000 0.046486 0.000000
# 6 0.000000 0.000000 0.000000 0.000000 0.000000 0.084296
#
#
# Mechanical properties :
#
#
# Convention : Reuss Voigt Hill
#
# Bulk Modulus (GPa) = 71.00116 72.75378 71.87747
# Shear Modulus (GPa) = 18.94260 21.67585 20.30923
#
# Velocity S-wave (km/s) = 3.17275 3.39394 3.28521
# Velocity P-wave (km/s) = 7.15212 7.34988 7.25167
#
# Compressibility (1/GPa) = 0.01408428
#
# Stress axis : x y z
#
# Youngs Moduli (GPa) = 69.88562 57.61014 40.83403
#
# Poissons Ratio (x) = 0.22465 0.28920
# Poissons Ratio (y) = 0.27252 0.41056
# Poissons Ratio (z) = 0.49495 0.57923
#
# Static dielectric constant tensor:
#      x y z
#    x 1.628550 0.000000 0.000000 
#    y 0.000000 1.639610 0.000000 
#    z 0.000000 0.000000 1.629780 
# 
# From -- ./inp_files/12474.got.cif
#   From: 2010.05.17/outbox.cif.g08.bks.cpg/sg65_7_cif.got.tgz:12474.got - 2010.06.03 17:01:31.
