data_PCOD9492686
_publ_section_title
;
Structure prediction by ZEFSAII (Michael W. Deem and Ramdas Pophale) SiO2 
 PCOD9492686
Probable space group: C M M M
;
_chemical_formula_sum "Si O2"
_cell_formula_units_Z 72
_cell_length_a 27.754704
_cell_length_b 9.695862
_cell_length_c 14.892134
_cell_angle_alpha 90.000000
_cell_angle_beta 90.000000
_cell_angle_gamma 90.000000
_cell_volume 4007.559333
_symmetry_space_group_name_H-M "C M M M"
_symmetry_group_IT_number 65
_symmetry_cell_setting 'orthorhombic'
loop_
_space_group_symop_operation_xyz
x,y,z
-x,-y,z
x,-y,-z
-x,y,-z
-x,-y,-z
x,y,-z
-x,y,z
x,-y,z
1/2+x,1/2+y,z
1/2-x,1/2-y,z
1/2+x,1/2-y,-z
1/2-x,1/2+y,-z
1/2-x,1/2-y,-z
1/2+x,1/2+y,-z
1/2-x,1/2+y,z
1/2+x,1/2-y,z
loop_
_atom_site_type_symbol
_atom_site_label
_atom_site_fract_x
_atom_site_fract_y
_atom_site_fract_z
Si Si1 0.947627 0.500000 0.106465
Si Si2 0.942514 0.000000 0.108693
Si Si3 0.698516 0.829796 0.000000
Si Si4 0.700140 0.668484 0.500000
Si Si5 0.122860 0.740315 0.156269
Si Si6 0.136261 0.332622 0.638700
Si Si7 0.446362 0.834953 0.500000
O O1 0.916477 0.372767 0.133560
O O2 0.000000 0.500000 0.149045
O O3 0.952178 0.500000 0.000000
O O4 0.909203 0.124846 0.141936
O O5 0.000000 0.000000 0.135857
O O6 0.943184 0.000000 0.000000
O O7 0.750000 0.750000 0.000000
O O8 0.667046 0.781196 0.086667
O O9 0.702642 0.000000 0.000000
O O10 0.702881 0.500000 0.500000
O O11 0.750000 0.750000 0.500000
O O12 0.672307 0.733289 0.585094
O O13 0.137996 0.711370 0.258166
O O14 0.145600 0.500000 0.629413
O O15 0.085236 0.304069 0.588679
O O16 0.500000 0.774451 0.500000
O O17 0.450631 0.000000 0.500000
#
# Coordination Sequence:
#
# PCOD9492686 Si02
#       7
#     8   8   8   8  16  16   8
#     4  11  20  36  64  95 128 171 217 266 317 375
#     4  11  24  40  62  93 134 183 223 262 321 381
#     4  12  26  44  65  92 124 168 217 268 329 388
#     4  11  24  44  70  96 125 160 209 269 330 387
#     4  12  22  42  63  92 134 171 219 269 318 383
#     4  10  21  39  65  93 128 166 208 262 317 375
#     4   8  16  32  55  87 122 158 196 238 294 363
#
# _framework density 17.966045999999999
#
# number of rings (size 3 to 8) (size 9 to 14) (size 15 to 20)
#    0.000    1.222    4.444    2.333    3.111    4.444 
#    0.000    2.222    0.000    1.333    0.000    0.000 
#    0.000    0.000    0.000    0.000    0.000    0.000 
#
# Total GULP energy -200476.810187 kJ/mol
# GULP energy per Si atom -5568.800283 kJ/mol
# Density = 1.792515 g / cm^3
# Si number density = 17.966046 Si / 1000 Ang^3
#
#
#
# Elastic Constant Matrix: (Units=GPa)
#
#
# Indices 1 2 3 4 5 6 
#
# 1 178.5830 83.7121 75.4460 0.0000 0.0000 0.0000
# 2 83.7121 180.9638 53.3829 0.0000 0.0000 0.0000
# 3 75.4460 53.3829 160.1088 0.0000 0.0000 0.0000
# 4 0.0000 0.0000 0.0000 26.0288 0.0000 0.0000
# 5 0.0000 0.0000 0.0000 0.0000 -1.7451 0.0000
# 6 0.0000 0.0000 0.0000 0.0000 0.0000 35.8731
#
#
#
# Elastic Compliance Matrix: (Units=1/GPa)
#
#
# Indices 1 2 3 4 5 6 
#
# 1 0.008196 -0.002941 -0.002881 0.000000 0.000000 0.000000
# 2 -0.002941 0.007184 -0.001009 0.000000 0.000000 0.000000
# 3 -0.002881 -0.001009 0.007940 0.000000 0.000000 0.000000
# 4 0.000000 0.000000 0.000000 0.038419 0.000000 0.000000
# 5 0.000000 0.000000 0.000000 0.000000 -0.573024 0.000000
# 6 0.000000 0.000000 0.000000 0.000000 0.000000 0.027876
#
#
# Mechanical properties :
#
#
# Convention : Reuss Voigt Hill
#
# Bulk Modulus (GPa) = 103.56129 104.97085 104.26607
# Shear Modulus (GPa) = -10.71751 32.50567 10.89408
#
# Velocity S-wave (km/s) = -2.44507 4.25818 2.46513
# Velocity P-wave (km/s) = 7.05668 9.09562 8.14024
#
# Compressibility (1/GPa) = 0.00965612
#
# Stress axis : x y z
#
# Youngs Moduli (GPa) = 122.01648 139.19178 125.94470
#
# Poissons Ratio (x) = 0.40940 0.36288
# Poissons Ratio (y) = 0.35888 0.12713
# Poissons Ratio (z) = 0.35156 0.14050
#
# Static dielectric constant tensor:
#      x y z
#    x 1.689520 0.000000 0.000000 
#    y 0.000000 2.252580 0.000000 
#    z 0.000000 0.000000 1.584470 
# 
# From -- ./inp_files/36732.got.cif
#   From: 2010.05.17/outbox.cif.g08.bks.cpg/sg65_19_cif.got.tgz:36732.got - 2010.06.03 17:01:31.
