data_PCOD9492427
_publ_section_title
;
Structure prediction by ZEFSAII (Michael W. Deem and Ramdas Pophale) SiO2 
 PCOD9492427
Probable space group: C M M M
;
_chemical_formula_sum "Si O2"
_cell_formula_units_Z 64
_cell_length_a 8.791485
_cell_length_b 15.755035
_cell_length_c 24.175594
_cell_angle_alpha 90.000000
_cell_angle_beta 90.000000
_cell_angle_gamma 90.000000
_cell_volume 3348.565245
_symmetry_space_group_name_H-M "C M M M"
_symmetry_group_IT_number 65
_symmetry_cell_setting 'orthorhombic'
loop_
_space_group_symop_operation_xyz
x,y,z
-x,-y,z
x,-y,-z
-x,y,-z
-x,-y,-z
x,y,-z
-x,y,z
x,-y,z
1/2+x,1/2+y,z
1/2-x,1/2-y,z
1/2+x,1/2-y,-z
1/2-x,1/2+y,-z
1/2-x,1/2-y,-z
1/2+x,1/2+y,-z
1/2-x,1/2+y,z
1/2+x,1/2-y,z
loop_
_atom_site_type_symbol
_atom_site_label
_atom_site_fract_x
_atom_site_fract_y
_atom_site_fract_z
Si Si1 0.320729 0.602336 0.563026
Si Si2 0.820032 0.339568 0.674326
Si Si3 0.815508 0.500000 0.860562
Si Si4 0.681511 0.500000 0.261798
Si Si5 0.183135 0.341062 0.063762
O O1 0.281823 0.626331 0.500000
O O2 0.500000 0.621062 0.572229
O O3 0.304026 0.500000 0.567447
O O4 0.221849 0.645769 0.609968
O O5 0.750000 0.250000 0.692192
O O6 0.745765 0.417135 0.707423
O O7 0.000000 0.339941 0.682041
O O8 0.738983 0.500000 0.801024
O O9 0.771843 0.416883 0.895766
O O10 0.000000 0.500000 0.854509
O O11 0.500000 0.500000 0.264993
O O12 0.250000 0.250000 0.079910
O O13 0.000000 0.336125 0.064500
O O14 0.229447 0.358537 0.000000
#
# Coordination Sequence:
#
# PCOD9492427 Si02
#       5
#    16  16   8   8  16
#     4   9  18  35  61  91 124 159 194 239 297 359
#     4  12  25  42  65  91 119 157 202 250 304 363
#     4  10  21  38  60  85 117 158 203 244 291 355
#     4  12  26  45  64  86 120 158 203 257 307 358
#     4   9  18  34  58  88 122 158 195 239 291 347
#
# _framework density 19.112663000000001
#
# number of rings (size 3 to 8) (size 9 to 14) (size 15 to 20)
#    0.000    1.750    1.250    4.500    0.000    4.500 
#    0.000    3.750    0.000    3.750    0.000    0.000 
#    0.000    0.000    0.000    0.000    0.000    0.000 
#
# Total GULP energy -178880.756625 kJ/mol
# GULP energy per Si atom -5590.023645 kJ/mol
# Density = 1.906916 g / cm^3
# Si number density = 19.112663 Si / 1000 Ang^3
#
#
#
# Elastic Constant Matrix: (Units=GPa)
#
#
# Indices 1 2 3 4 5 6 
#
# 1 104.8037 76.7891 64.5288 0.0000 0.0000 0.0000
# 2 76.7891 164.0717 95.0066 0.0000 0.0000 0.0000
# 3 64.5288 95.0066 117.6445 0.0000 0.0000 0.0000
# 4 0.0000 0.0000 0.0000 -8.5328 0.0000 0.0000
# 5 0.0000 0.0000 0.0000 0.0000 31.2319 0.0000
# 6 0.0000 0.0000 0.0000 0.0000 0.0000 32.2238
#
#
#
# Elastic Compliance Matrix: (Units=1/GPa)
#
#
# Indices 1 2 3 4 5 6 
#
# 1 0.016016 -0.004525 -0.005131 0.000000 0.000000 0.000000
# 2 -0.004525 0.012727 -0.007796 0.000000 0.000000 0.000000
# 3 -0.005131 -0.007796 0.017610 0.000000 0.000000 0.000000
# 4 0.000000 0.000000 0.000000 -0.117194 0.000000 0.000000
# 5 0.000000 0.000000 0.000000 0.000000 0.032019 0.000000
# 6 0.000000 0.000000 0.000000 0.000000 0.000000 0.031033
#
#
# Mechanical properties :
#
#
# Convention : Reuss Voigt Hill
#
# Bulk Modulus (GPa) = 87.33610 95.46318 91.39964
# Shear Modulus (GPa) = 161.65339 20.99760 91.32550
#
# Velocity S-wave (km/s) = 9.20667 3.31814 6.92000
# Velocity P-wave (km/s) = 12.60205 8.04588 10.57232
#
# Compressibility (1/GPa) = 0.01145002
#
# Stress axis : x y z
#
# Youngs Moduli (GPa) = 62.43739 78.57330 56.78495
#
# Poissons Ratio (x) = 0.35553 0.29135
# Poissons Ratio (y) = 0.28252 0.44270
# Poissons Ratio (z) = 0.32035 0.61256
#
# Static dielectric constant tensor:
#      x y z
#    x 1.639540 0.000000 0.000000 
#    y 0.000000 1.655990 0.000000 
#    z 0.000000 0.000000 1.651760 
# 
# From -- ./inp_files/66775.got.cif
#   From: 2010.05.17/outbox.cif.g08.bks.cpg/sg65_34_cif.got.tgz:66775.got - 2010.06.03 17:01:31.
