data_PCOD9492613
_publ_section_title
;
Structure prediction by ZEFSAII (Michael W. Deem and Ramdas Pophale) SiO2 
 PCOD9492613
Probable space group: C M M M
;
_chemical_formula_sum "Si O2"
_cell_formula_units_Z 90
_cell_length_a 20.177438
_cell_length_b 26.595784
_cell_length_c 9.022900
_cell_angle_alpha 90.000000
_cell_angle_beta 90.000000
_cell_angle_gamma 90.000000
_cell_volume 4842.001981
_symmetry_space_group_name_H-M "C M M M"
_symmetry_group_IT_number 65
_symmetry_cell_setting 'orthorhombic'
loop_
_space_group_symop_operation_xyz
x,y,z
-x,-y,z
x,-y,-z
-x,y,-z
-x,-y,-z
x,y,-z
-x,y,z
x,-y,z
1/2+x,1/2+y,z
1/2-x,1/2-y,z
1/2+x,1/2-y,-z
1/2-x,1/2+y,-z
1/2-x,1/2-y,-z
1/2+x,1/2+y,-z
1/2-x,1/2+y,z
1/2+x,1/2-y,z
loop_
_atom_site_type_symbol
_atom_site_label
_atom_site_fract_x
_atom_site_fract_y
_atom_site_fract_z
Si Si1 0.500000 0.583321 0.325844
Si Si2 0.275917 0.649439 0.176049
Si Si3 0.867185 0.770043 0.327029
Si Si4 0.630528 0.554533 0.826750
Si Si5 0.000000 0.191223 0.823811
Si Si6 0.138518 0.350580 0.673947
Si Si7 0.000000 0.394317 0.335541
Si Si8 0.500000 0.000000 0.500000
O O1 0.500000 0.593242 0.500000
O O2 0.433577 0.555861 0.275816
O O3 0.500000 0.634497 0.232878
O O4 0.306921 0.698304 0.256388
O O5 0.324095 0.602296 0.206363
O O6 0.203659 0.635101 0.235523
O O7 0.274412 0.658483 0.000000
O O8 0.872371 0.784199 0.500000
O O9 0.933895 0.784398 0.241468
O O10 0.861872 0.709987 0.318508
O O11 0.664329 0.500000 0.810147
O O12 0.610046 0.558872 0.000000
O O13 0.000000 0.193662 0.000000
O O14 0.145966 0.365191 0.500000
O O15 0.069485 0.374925 0.730843
O O16 0.000000 0.453921 0.372887
O O17 0.000000 0.368594 0.500000
#
# Coordination Sequence:
#
# PCOD9492613 Si02
#       8
#     8  16  16  16   8  16   8   2
#     4  12  23  36  59  85 115 149 199 253 294 340
#     4  11  23  38  57  85 121 160 205 246 293 361
#     4  11  22  37  59  85 119 163 202 243 296 354
#     4  10  22  41  60  80 113 161 204 246 303 354
#     4  12  23  36  57  86 118 157 200 247 293 349
#     4  10  21  39  61  87 121 154 190 243 303 364
#     4   8  17  37  62  90 118 143 193 241 301 360
#     4   8  16  36  72  96 114 148 196 250 308 348
#
# _framework density 18.587351999999999
#
# number of rings (size 3 to 8) (size 9 to 14) (size 15 to 20)
#    0.267    1.244    1.778    4.000    0.000    7.111 
#    1.600    0.444    0.000    0.000    0.000    0.622 
#    0.000    0.000    0.000    0.000    0.000    0.000 
#
# Total GULP energy -250851.016357 kJ/mol
# GULP energy per Si atom -5574.467030 kJ/mol
# Density = 1.854505 g / cm^3
# Si number density = 18.587352 Si / 1000 Ang^3
#
#
#
# Elastic Constant Matrix: (Units=GPa)
#
#
# Indices 1 2 3 4 5 6 
#
# 1 141.2472 40.9845 59.9245 0.0000 0.0000 0.0000
# 2 40.9845 82.8447 44.5188 0.0000 0.0000 0.0000
# 3 59.9245 44.5188 88.0425 0.0000 0.0000 0.0000
# 4 0.0000 0.0000 0.0000 17.0599 0.0000 0.0000
# 5 0.0000 0.0000 0.0000 0.0000 38.3869 0.0000
# 6 0.0000 0.0000 0.0000 0.0000 0.0000 7.5106
#
#
#
# Elastic Compliance Matrix: (Units=1/GPa)
#
#
# Indices 1 2 3 4 5 6 
#
# 1 0.010145 -0.001796 -0.005997 0.000000 0.000000 0.000000
# 2 -0.001796 0.016893 -0.007319 0.000000 0.000000 0.000000
# 3 -0.005997 -0.007319 0.019141 0.000000 0.000000 0.000000
# 4 0.000000 0.000000 0.000000 0.058617 0.000000 0.000000
# 5 0.000000 0.000000 0.000000 0.000000 0.026051 0.000000
# 6 0.000000 0.000000 0.000000 0.000000 0.000000 0.133145
#
#
# Mechanical properties :
#
#
# Convention : Reuss Voigt Hill
#
# Bulk Modulus (GPa) = 62.68061 66.99888 64.83974
# Shear Modulus (GPa) = 16.69261 23.70525 20.19893
#
# Velocity S-wave (km/s) = 3.00002 3.57507 3.30009
# Velocity P-wave (km/s) = 6.76724 7.29144 7.03423
#
# Compressibility (1/GPa) = 0.01595390
#
# Stress axis : x y z
#
# Youngs Moduli (GPa) = 98.56888 59.19757 52.24494
#
# Poissons Ratio (x) = 0.10635 0.31330
# Poissons Ratio (y) = 0.17708 0.38238
# Poissons Ratio (z) = 0.59109 0.43327
#
# Static dielectric constant tensor:
#      x y z
#    x 1.854090 0.000000 0.000000 
#    y 0.000000 1.659350 0.000000 
#    z 0.000000 0.000000 1.631330 
# 
# From -- ./inp_files/11932.got.cif
#   From: 2010.05.17/outbox.cif.g08.bks.cpg/sg65_6_cif.got.tgz:11932.got - 2010.06.03 17:01:31.
