data_PCOD9492100
_publ_section_title
;
Structure prediction by ZEFSAII (Michael W. Deem and Ramdas Pophale) SiO2 
 PCOD9492100
Probable space group: C M M M
;
_chemical_formula_sum "Si O2"
_cell_formula_units_Z 96
_cell_length_a 19.945649
_cell_length_b 27.426547
_cell_length_c 8.999698
_cell_angle_alpha 90.000000
_cell_angle_beta 90.000000
_cell_angle_gamma 90.000000
_cell_volume 4923.197312
_symmetry_space_group_name_H-M "C M M M"
_symmetry_group_IT_number 65
_symmetry_cell_setting 'orthorhombic'
loop_
_space_group_symop_operation_xyz
x,y,z
-x,-y,z
x,-y,-z
-x,y,-z
-x,-y,-z
x,y,-z
-x,y,z
x,-y,z
1/2+x,1/2+y,z
1/2-x,1/2-y,z
1/2+x,1/2-y,-z
1/2-x,1/2+y,-z
1/2-x,1/2-y,-z
1/2+x,1/2+y,-z
1/2-x,1/2+y,z
1/2+x,1/2-y,z
loop_
_atom_site_type_symbol
_atom_site_label
_atom_site_fract_x
_atom_site_fract_y
_atom_site_fract_z
Si Si1 0.079441 0.145151 0.326435
Si Si2 0.797735 0.704258 0.676960
Si Si3 0.921386 0.247802 0.823791
Si Si4 0.576960 0.058131 0.323261
Si Si5 0.794529 0.397423 0.176298
Si Si6 0.828036 0.945658 0.322242
O O1 0.094989 0.156711 0.500000
O O2 0.093920 0.192599 0.228596
O O3 0.120830 0.097485 0.282604
O O4 0.000000 0.135284 0.316922
O O5 0.797198 0.697684 0.500000
O O6 0.750000 0.750000 0.713719
O O7 0.871687 0.717297 0.735233
O O8 0.774979 0.654765 0.754840
O O9 0.000000 0.256760 0.791133
O O10 0.910977 0.252862 0.000000
O O11 0.586261 0.066289 0.500000
O O12 0.500000 0.070879 0.285799
O O13 0.632057 0.087713 0.233701
O O14 0.585097 0.000000 0.297369
O O15 0.741326 0.435982 0.239224
O O16 0.792863 0.395489 0.000000
O O17 0.816542 0.942629 0.500000
O O18 0.853702 0.000000 0.289683
#
# Coordination Sequence:
#
# PCOD9492100 Si02
#       6
#    16  16  16  16  16  16
#     4   9  18  34  57  84 113 147 188 231 276 327
#     4  11  24  41  61  83 108 143 188 234 279 329
#     4  10  21  37  58  85 116 148 182 223 275 333
#     4   9  19  38  63  87 112 146 187 229 274 325
#     4  12  25  38  56  83 115 149 184 227 279 333
#     4  10  21  37  57  81 112 150 190 233 278 325
#
# _framework density 19.499523
#
# number of rings (size 3 to 8) (size 9 to 14) (size 15 to 20)
#    0.000    1.833    0.000    4.500    0.000   11.000 
#    0.000    2.500    0.000    0.000    0.000    3.500 
#    0.000    0.000    0.000    0.000    0.000    0.000 
#
# Total GULP energy -268323.173043 kJ/mol
# GULP energy per Si atom -5590.066105 kJ/mol
# Density = 1.945514 g / cm^3
# Si number density = 19.499523 Si / 1000 Ang^3
#
#
#
# Elastic Constant Matrix: (Units=GPa)
#
#
# Indices 1 2 3 4 5 6 
#
# 1 32.7555 1.3427 11.8220 0.0000 0.0000 0.0000
# 2 1.3427 39.7907 9.6017 0.0000 0.0000 0.0000
# 3 11.8220 9.6017 24.8451 0.0000 0.0000 0.0000
# 4 0.0000 0.0000 0.0000 -605.5461 0.0000 0.0000
# 5 0.0000 0.0000 0.0000 0.0000 12.2856 0.0000
# 6 0.0000 0.0000 0.0000 0.0000 0.0000 36.2917
#
#
#
# Elastic Compliance Matrix: (Units=1/GPa)
#
#
# Indices 1 2 3 4 5 6 
#
# 1 0.037255 0.003331 -0.019014 0.000000 0.000000 0.000000
# 2 0.003331 0.028014 -0.012411 0.000000 0.000000 0.000000
# 3 -0.019014 -0.012411 0.054093 0.000000 0.000000 0.000000
# 4 0.000000 0.000000 0.000000 -0.001651 0.000000 0.000000
# 5 0.000000 0.000000 0.000000 0.000000 0.081396 0.000000
# 6 0.000000 0.000000 0.000000 0.000000 0.000000 0.027554
#
#
# Mechanical properties :
#
#
# Convention : Reuss Voigt Hill
#
# Bulk Modulus (GPa) = 15.82946 15.88047 15.85496
# Shear Modulus (GPa) = 16.45229 -106.41877 -44.98324
#
# Velocity S-wave (km/s) = 2.90785 -7.39551 -4.80822
# Velocity P-wave (km/s) = 4.40564 8.04755 4.76201
#
# Compressibility (1/GPa) = 0.06317334
#
# Stress axis : x y z
#
# Youngs Moduli (GPa) = 26.84190 35.69643 18.48656
#
# Poissons Ratio (x) = -0.11891 0.35151
# Poissons Ratio (y) = -0.08941 0.22944
# Poissons Ratio (z) = 0.51038 0.44304
#
# Static dielectric constant tensor:
#      x y z
#    x 1.683430 0.000000 0.000000 
#    y 0.000000 1.674680 0.000000 
#    z 0.000000 0.000000 1.649530 
# 
# From -- ./inp_files/12243.got.cif
#   From: 2010.05.17/outbox.cif.g08.bks.cpg/sg65_7_cif.got.tgz:12243.got - 2010.06.03 17:01:31.
