data_PCOD9492400
_publ_section_title
;
Structure prediction by ZEFSAII (Michael W. Deem and Ramdas Pophale) SiO2 
 PCOD9492400
Probable space group: C M M M
;
_chemical_formula_sum "Si O2"
_cell_formula_units_Z 72
_cell_length_a 30.513123
_cell_length_b 15.220909
_cell_length_c 8.101928
_cell_angle_alpha 90.000000
_cell_angle_beta 90.000000
_cell_angle_gamma 90.000000
_cell_volume 3762.838930
_symmetry_space_group_name_H-M "C M M M"
_symmetry_group_IT_number 65
_symmetry_cell_setting 'orthorhombic'
loop_
_space_group_symop_operation_xyz
x,y,z
-x,-y,z
x,-y,-z
-x,y,-z
-x,-y,-z
x,y,-z
-x,y,z
x,-y,z
1/2+x,1/2+y,z
1/2-x,1/2-y,z
1/2+x,1/2-y,-z
1/2-x,1/2+y,-z
1/2-x,1/2-y,-z
1/2+x,1/2+y,-z
1/2-x,1/2+y,z
1/2+x,1/2-y,z
loop_
_atom_site_type_symbol
_atom_site_label
_atom_site_fract_x
_atom_site_fract_y
_atom_site_fract_z
Si Si1 0.948246 0.214500 0.185619
Si Si2 0.707174 0.305000 0.301344
Si Si3 0.829337 0.500000 0.801511
Si Si4 0.627684 0.181329 0.303074
Si Si5 0.053174 0.098468 0.500000
Si Si6 0.771618 0.000000 0.802851
O O1 0.917782 0.298518 0.213008
O O2 0.934604 0.148758 0.332593
O O3 0.000000 0.233142 0.205334
O O4 0.942000 0.179262 0.000000
O O5 0.708140 0.301037 0.500000
O O6 0.750000 0.250000 0.241206
O O7 0.663653 0.253481 0.247260
O O8 0.708140 0.407170 0.252916
O O9 0.852967 0.586763 0.737574
O O10 0.778904 0.500000 0.743293
O O11 0.829431 0.500000 0.000000
O O12 0.621596 0.188949 0.500000
O O13 0.000000 0.094777 0.500000
O O14 0.070641 0.000000 0.500000
O O15 0.771703 0.000000 0.000000
#
# Coordination Sequence:
#
# PCOD9492400 Si02
#       6
#    16  16   8  16   8   8
#     4  10  21  39  63  89 123 165 204 253 315 368
#     4  10  21  38  60  83 114 154 198 244 293 356
#     4  11  23  37  58  88 121 156 202 253 305 371
#     4  11  22  39  63  89 117 158 205 255 308 362
#     4   9  18  36  62  89 118 153 203 257 301 363
#     4  11  23  37  57  86 121 160 199 249 305 358
#
# _framework density 19.134488000000001
#
# number of rings (size 3 to 8) (size 9 to 14) (size 15 to 20)
#    0.000    1.667    3.333    1.333    0.000    3.556 
#    2.000    2.778    0.000    3.333    0.000    0.000 
#    0.000    0.000    0.000    0.000    0.000    0.000 
#
# Total GULP energy -201001.076921 kJ/mol
# GULP energy per Si atom -5583.363248 kJ/mol
# Density = 1.909094 g / cm^3
# Si number density = 19.134488 Si / 1000 Ang^3
#
#
#
# Elastic Constant Matrix: (Units=GPa)
#
#
# Indices 1 2 3 4 5 6 
#
# 1 68.1727 53.7471 38.9934 0.0000 0.0000 0.0000
# 2 53.7471 152.9555 31.7544 0.0000 0.0000 0.0000
# 3 38.9934 31.7544 79.6713 0.0000 0.0000 0.0000
# 4 0.0000 0.0000 0.0000 -4.5901 0.0000 0.0000
# 5 0.0000 0.0000 0.0000 0.0000 18.2736 0.0000
# 6 0.0000 0.0000 0.0000 0.0000 0.0000 8.9669
#
#
#
# Elastic Compliance Matrix: (Units=1/GPa)
#
#
# Indices 1 2 3 4 5 6 
#
# 1 0.025850 -0.007039 -0.009846 0.000000 0.000000 0.000000
# 2 -0.007039 0.009045 -0.000160 0.000000 0.000000 0.000000
# 3 -0.009846 -0.000160 0.017434 0.000000 0.000000 0.000000
# 4 0.000000 0.000000 0.000000 -0.217861 0.000000 0.000000
# 5 0.000000 0.000000 0.000000 0.000000 0.054724 0.000000
# 6 0.000000 0.000000 0.000000 0.000000 0.000000 0.111521
#
#
# Mechanical properties :
#
#
# Convention : Reuss Voigt Hill
#
# Bulk Modulus (GPa) = 54.82857 61.08770 57.95813
# Shear Modulus (GPa) = 122.30123 16.28372 69.29248
#
# Velocity S-wave (km/s) = 8.00346 2.92038 6.02429
# Velocity P-wave (km/s) = 10.68287 6.58530 8.87384
#
# Compressibility (1/GPa) = 0.01823867
#
# Stress axis : x y z
#
# Youngs Moduli (GPa) = 38.68426 110.56366 57.35857
#
# Poissons Ratio (x) = 0.77830 0.56476
# Poissons Ratio (y) = 0.27231 0.00915
# Poissons Ratio (z) = 0.38089 0.01764
#
# Static dielectric constant tensor:
#      x y z
#    x 1.670360 0.000000 0.000000 
#    y 0.000000 1.652640 0.000000 
#    z 0.000000 0.000000 1.671640 
# 
# From -- ./inp_files/15792.got.cif
#   From: 2010.05.17/outbox.cif.g08.bks.cpg/sg65_8_cif.got.tgz:15792.got - 2010.06.03 17:01:31.
