data_PCOD9492477
_publ_section_title
;
Structure prediction by ZEFSAII (Michael W. Deem and Ramdas Pophale) SiO2 
 PCOD9492477
Probable space group: C M M M
;
_chemical_formula_sum "Si O2"
_cell_formula_units_Z 96
_cell_length_a 15.449151
_cell_length_b 16.679030
_cell_length_c 17.033175
_cell_angle_alpha 90.000000
_cell_angle_beta 90.000000
_cell_angle_gamma 90.000000
_cell_volume 4389.054931
_symmetry_space_group_name_H-M "C M M M"
_symmetry_group_IT_number 65
_symmetry_cell_setting 'orthorhombic'
loop_
_space_group_symop_operation_xyz
x,y,z
-x,-y,z
x,-y,-z
-x,y,-z
-x,-y,-z
x,y,-z
-x,y,z
x,-y,z
1/2+x,1/2+y,z
1/2-x,1/2-y,z
1/2+x,1/2-y,-z
1/2-x,1/2+y,-z
1/2-x,1/2-y,-z
1/2+x,1/2+y,-z
1/2-x,1/2+y,z
1/2+x,1/2-y,z
loop_
_atom_site_type_symbol
_atom_site_label
_atom_site_fract_x
_atom_site_fract_y
_atom_site_fract_z
Si Si1 0.596213 0.725540 0.085142
Si Si2 0.401958 0.882826 0.826218
Si Si3 0.898963 0.091645 0.705035
Si Si4 0.209872 0.913561 0.135172
Si Si5 0.147759 0.763014 0.411810
Si Si6 0.099722 0.414307 0.641127
O O1 0.500000 0.688284 0.089347
O O2 0.602297 0.788123 0.155790
O O3 0.670196 0.660414 0.089570
O O4 0.601038 0.768125 0.000000
O O5 0.500000 0.907195 0.851699
O O6 0.313761 0.913281 0.865003
O O7 0.393484 0.904969 0.735229
O O8 0.831296 0.096309 0.777292
O O9 0.880535 0.165695 0.646565
O O10 0.000000 0.098447 0.731007
O O11 0.889546 0.000000 0.672294
O O12 0.179403 0.000000 0.105755
O O13 0.120112 0.784776 0.500000
O O14 0.250000 0.750000 0.408765
O O15 0.119870 0.672451 0.392817
O O16 0.143969 0.500000 0.618754
O O17 0.000000 0.423635 0.621286
#
# Coordination Sequence:
#
# PCOD9492477 Si02
#       6
#    16  16  16  16  16  16
#     4  10  22  40  61  85 116 156 199 244 296 352
#     4  10  21  38  61  87 115 152 199 243 287 349
#     4  10  22  41  64  89 119 158 206 258 307 356
#     4  11  22  36  59  89 120 153 191 242 300 356
#     4  11  24  39  57  85 121 160 200 244 298 361
#     4  10  21  38  61  86 113 149 193 242 294 348
#
# _framework density 21.872589999999999
#
# number of rings (size 3 to 8) (size 9 to 14) (size 15 to 20)
#    0.000    1.667    0.000    4.000    0.000    9.000 
#    0.000    4.167    0.000    1.500    0.000   11.667 
#    0.000    0.000    0.000    0.000    0.000    0.000 
#
# Total GULP energy -267593.335770 kJ/mol
# GULP energy per Si atom -5574.861162 kJ/mol
# Density = 2.182281 g / cm^3
# Si number density = 21.872590 Si / 1000 Ang^3
#
#
#
# Elastic Constant Matrix: (Units=GPa)
#
#
# Indices 1 2 3 4 5 6 
#
# 1 106.3129 50.4640 17.8485 0.0000 0.0000 0.0000
# 2 50.4640 124.8152 36.7847 0.0000 0.0000 0.0000
# 3 17.8485 36.7847 44.1158 0.0000 0.0000 0.0000
# 4 0.0000 0.0000 0.0000 21.6343 0.0000 0.0000
# 5 0.0000 0.0000 0.0000 0.0000 23.2531 0.0000
# 6 0.0000 0.0000 0.0000 0.0000 0.0000 -16.1706
#
#
#
# Elastic Compliance Matrix: (Units=1/GPa)
#
#
# Indices 1 2 3 4 5 6 
#
# 1 0.011676 -0.004413 -0.001044 0.000000 0.000000 0.000000
# 2 -0.004413 0.012290 -0.008462 0.000000 0.000000 0.000000
# 3 -0.001044 -0.008462 0.030146 0.000000 0.000000 0.000000
# 4 0.000000 0.000000 0.000000 0.046223 0.000000 0.000000
# 5 0.000000 0.000000 0.000000 0.000000 0.043005 0.000000
# 6 0.000000 0.000000 0.000000 0.000000 0.000000 -0.061840
#
#
# Mechanical properties :
#
#
# Convention : Reuss Voigt Hill
#
# Bulk Modulus (GPa) = 38.06158 53.93760 45.99959
# Shear Modulus (GPa) = 42.33808 17.08645 29.71226
#
# Velocity S-wave (km/s) = 4.40440 2.79799 3.68968
# Velocity P-wave (km/s) = 6.58059 5.92890 6.26323
#
# Compressibility (1/GPa) = 0.02627321
#
# Stress axis : x y z
#
# Youngs Moduli (GPa) = 85.64360 81.36668 33.17173
#
# Poissons Ratio (x) = 0.35908 0.03464
# Poissons Ratio (y) = 0.37795 0.28071
# Poissons Ratio (z) = 0.08944 0.68855
#
# Static dielectric constant tensor:
#      x y z
#    x 1.783140 0.000000 0.000000 
#    y 0.000000 1.861460 0.000000 
#    z 0.000000 0.000000 1.799880 
# 
# From -- ./inp_files/62578.got.cif
#   From: 2010.05.17/outbox.cif.g08.bks.cpg/sg65_32_cif.got.tgz:62578.got - 2010.06.03 17:01:31.
