data_PCOD9492314
_publ_section_title
;
Structure prediction by ZEFSAII (Michael W. Deem and Ramdas Pophale) SiO2 
 PCOD9492314
Probable space group: C M M M
;
_chemical_formula_sum "Si O2"
_cell_formula_units_Z 104
_cell_length_a 29.676368
_cell_length_b 8.670249
_cell_length_c 24.014504
_cell_angle_alpha 90.000000
_cell_angle_beta 90.000000
_cell_angle_gamma 90.000000
_cell_volume 6178.967900
_symmetry_space_group_name_H-M "C M M M"
_symmetry_group_IT_number 65
_symmetry_cell_setting 'orthorhombic'
loop_
_space_group_symop_operation_xyz
x,y,z
-x,-y,z
x,-y,-z
-x,y,-z
-x,-y,-z
x,y,-z
-x,y,z
x,-y,z
1/2+x,1/2+y,z
1/2-x,1/2-y,z
1/2+x,1/2-y,-z
1/2-x,1/2+y,-z
1/2-x,1/2-y,-z
1/2+x,1/2+y,-z
1/2-x,1/2+y,z
1/2+x,1/2-y,z
loop_
_atom_site_type_symbol
_atom_site_label
_atom_site_fract_x
_atom_site_fract_y
_atom_site_fract_z
Si Si1 0.702461 0.185561 0.731876
Si Si2 0.604616 0.813511 0.437695
Si Si3 0.445291 0.321645 0.000000
Si Si4 0.552679 0.315473 0.668129
Si Si5 0.947476 0.187121 0.878082
Si Si6 0.893757 0.314945 0.773786
Si Si7 0.202565 0.685201 0.398217
O O1 0.750000 0.250000 0.752547
O O2 0.658082 0.235576 0.764950
O O3 0.697611 0.232689 0.666809
O O4 0.704120 0.000000 0.732658
O O5 0.589771 0.772009 0.500000
O O6 0.575190 0.740144 0.389108
O O7 0.656997 0.767844 0.429247
O O8 0.602626 0.000000 0.432223
O O9 0.432769 0.255373 0.060296
O O10 0.430102 0.500000 0.000000
O O11 0.500000 0.324232 0.000000
O O12 0.500000 0.273151 0.669594
O O13 0.556235 0.500000 0.672677
O O14 0.578606 0.240051 0.719829
O O15 0.916739 0.248215 0.828783
O O16 0.000000 0.230968 0.868971
O O17 0.946342 0.000000 0.878823
O O18 0.894659 0.500000 0.775736
O O19 0.205047 0.500000 0.400101
O O20 0.250000 0.750000 0.419436
#
# Coordination Sequence:
#
# PCOD9492314 Si02
#       7
#    16  16   8  16  16  16  16
#     4   9  18  32  50  72  99 128 160 199 246 299
#     4  10  21  38  57  75  98 129 164 201 247 306
#     4   7  12  26  47  69 100 141 178 211 244 283
#     4  11  24  39  54  73  98 129 167 211 252 292
#     4   9  17  30  49  75 106 141 179 212 244 287
#     4  11  21  34  52  77 106 134 165 205 253 301
#     4   9  17  32  51  74 100 126 157 196 243 298
#
# _framework density 16.831289999999999
#
# number of rings (size 3 to 8) (size 9 to 14) (size 15 to 20)
#    0.000    2.385    1.538    2.308    0.000    6.154 
#    0.000    1.923    0.000    1.385    0.000    0.538 
#    0.000    0.000    0.000    0.000    0.000    0.000 
#
# Total GULP energy -290006.985714 kJ/mol
# GULP energy per Si atom -5577.057418 kJ/mol
# Density = 1.679298 g / cm^3
# Si number density = 16.831290 Si / 1000 Ang^3
#
#
#
# Elastic Constant Matrix: (Units=GPa)
#
#
# Indices 1 2 3 4 5 6 
#
# 1 114.1040 26.1522 65.7950 0.0000 0.0000 0.0000
# 2 26.1522 13.7109 23.9359 0.0000 0.0000 0.0000
# 3 65.7950 23.9359 129.9366 0.0000 0.0000 0.0000
# 4 0.0000 0.0000 0.0000 19.3584 0.0000 0.0000
# 5 0.0000 0.0000 0.0000 0.0000 33.2302 0.0000
# 6 0.0000 0.0000 0.0000 0.0000 0.0000 29.0104
#
#
#
# Elastic Compliance Matrix: (Units=1/GPa)
#
#
# Indices 1 2 3 4 5 6 
#
# 1 0.016773 -0.025303 -0.003832 0.000000 0.000000 0.000000
# 2 -0.025303 0.145678 -0.014023 0.000000 0.000000 0.000000
# 3 -0.003832 -0.014023 0.012220 0.000000 0.000000 0.000000
# 4 0.000000 0.000000 0.000000 0.051657 0.000000 0.000000
# 5 0.000000 0.000000 0.000000 0.000000 0.030093 0.000000
# 6 0.000000 0.000000 0.000000 0.000000 0.000000 0.034470
#
#
# Mechanical properties :
#
#
# Convention : Reuss Voigt Hill
#
# Bulk Modulus (GPa) = 11.31806 54.39087 32.85446
# Shear Modulus (GPa) = 12.29532 25.77769 19.03651
#
# Velocity S-wave (km/s) = 2.70572 3.91773 3.36671
# Velocity P-wave (km/s) = 4.06204 7.26982 5.88857
#
# Compressibility (1/GPa) = 0.08835437
#
# Stress axis : x y z
#
# Youngs Moduli (GPa) = 59.62016 6.86446 81.83451
#
# Poissons Ratio (x) = 0.17369 0.31360
# Poissons Ratio (y) = 1.50854 1.14760
# Poissons Ratio (z) = 0.22847 0.09626
#
# Static dielectric constant tensor:
#      x y z
#    x 1.560770 0.000000 0.000000 
#    y 0.000000 1.575770 0.000000 
#    z 0.000000 0.000000 1.569900 
# 
# From -- ./inp_files/60802.got.cif
#   From: 2010.05.17/outbox.cif.g08.bks.cpg/sg65_31_cif.got.tgz:60802.got - 2010.06.03 17:01:31.
