data_PCOD9492274
_publ_section_title
;
Structure prediction by ZEFSAII (Michael W. Deem and Ramdas Pophale) SiO2 
 PCOD9492274
Probable space group: C M M M
;
_chemical_formula_sum "Si O2"
_cell_formula_units_Z 64
_cell_length_a 8.576018
_cell_length_b 28.910997
_cell_length_c 13.403590
_cell_angle_alpha 90.000000
_cell_angle_beta 90.000000
_cell_angle_gamma 90.000000
_cell_volume 3323.302600
_symmetry_space_group_name_H-M "C M M M"
_symmetry_group_IT_number 65
_symmetry_cell_setting 'orthorhombic'
loop_
_space_group_symop_operation_xyz
x,y,z
-x,-y,z
x,-y,-z
-x,y,-z
-x,-y,-z
x,y,-z
-x,y,z
x,-y,z
1/2+x,1/2+y,z
1/2-x,1/2-y,z
1/2+x,1/2-y,-z
1/2-x,1/2+y,-z
1/2-x,1/2-y,-z
1/2+x,1/2+y,-z
1/2-x,1/2+y,z
1/2+x,1/2-y,z
loop_
_atom_site_type_symbol
_atom_site_label
_atom_site_fract_x
_atom_site_fract_y
_atom_site_fract_z
Si Si1 0.311675 0.697784 0.890545
Si Si2 0.314770 0.197825 0.500000
Si Si3 0.678200 0.056294 0.000000
Si Si4 0.312302 0.447534 0.786382
Si Si5 0.188948 0.144113 0.308338
O O1 0.500000 0.698449 0.889684
O O2 0.250000 0.750000 0.882487
O O3 0.261416 0.669371 0.794057
O O4 0.262002 0.679537 0.000000
O O5 0.500000 0.200244 0.500000
O O6 0.250000 0.250000 0.500000
O O7 0.257109 0.170325 0.402692
O O8 0.761722 0.068792 0.896824
O O9 0.500000 0.072214 0.000000
O O10 0.678587 0.000000 0.000000
O O11 0.500000 0.448877 0.786189
O O12 0.254572 0.500000 0.769754
O O13 0.263367 0.409412 0.705779
O O14 0.000000 0.145971 0.314659
#
# Coordination Sequence:
#
# PCOD9492274 Si02
#       5
#    16   8   8  16  16
#     4   9  18  32  51  77 109 142 176 221 279 339
#     4  12  26  44  65  86 113 145 190 241 291 348
#     4   9  17  29  47  75 114 157 196 237 283 333
#     4   9  18  33  55  83 115 153 196 240 286 339
#     4  10  21  37  60  85 113 148 193 240 288 342
#
# _framework density 19.257952
#
# number of rings (size 3 to 8) (size 9 to 14) (size 15 to 20)
#    0.000    2.375    0.000    2.250    1.750    5.500 
#    0.000    0.625    0.000    3.750    0.000    0.000 
#    0.000    0.000    0.000    0.000    0.000    0.000 
#
# Total GULP energy -178578.723701 kJ/mol
# GULP energy per Si atom -5580.585116 kJ/mol
# Density = 1.921412 g / cm^3
# Si number density = 19.257952 Si / 1000 Ang^3
#
#
#
# Elastic Constant Matrix: (Units=GPa)
#
#
# Indices 1 2 3 4 5 6 
#
# 1 19.9733 31.6356 35.6221 0.0000 0.0000 0.0000
# 2 31.6356 140.8021 103.2296 0.0000 0.0000 0.0000
# 3 35.6221 103.2296 159.0584 0.0000 0.0000 0.0000
# 4 0.0000 0.0000 0.0000 37.4223 0.0000 0.0000
# 5 0.0000 0.0000 0.0000 0.0000 20.3477 0.0000
# 6 0.0000 0.0000 0.0000 0.0000 0.0000 18.5092
#
#
#
# Elastic Compliance Matrix: (Units=1/GPa)
#
#
# Indices 1 2 3 4 5 6 
#
# 1 0.090804 -0.010478 -0.013536 0.000000 0.000000 0.000000
# 2 -0.010478 0.014758 -0.007231 0.000000 0.000000 0.000000
# 3 -0.013536 -0.007231 0.014012 0.000000 0.000000 0.000000
# 4 0.000000 0.000000 0.000000 0.026722 0.000000 0.000000
# 5 0.000000 0.000000 0.000000 0.000000 0.049146 0.000000
# 6 0.000000 0.000000 0.000000 0.000000 0.000000 0.054027
#
#
# Mechanical properties :
#
#
# Convention : Reuss Voigt Hill
#
# Bulk Modulus (GPa) = 17.51834 73.42317 45.47075
# Shear Modulus (GPa) = 15.10633 25.21227 20.15930
#
# Velocity S-wave (km/s) = 2.80379 3.62220 3.23895
# Velocity P-wave (km/s) = 4.42697 7.46342 6.13599
#
# Compressibility (1/GPa) = 0.05708303
#
# Stress axis : x y z
#
# Youngs Moduli (GPa) = 11.01274 67.75877 71.36913
#
# Poissons Ratio (x) = 0.70999 0.96603
# Poissons Ratio (y) = 0.11539 0.51611
# Poissons Ratio (z) = 0.14906 0.49000
#
# Static dielectric constant tensor:
#      x y z
#    x 1.656420 0.000000 0.000000 
#    y 0.000000 1.706490 0.000000 
#    z 0.000000 0.000000 1.649820 
# 
# From -- ./inp_files/20935.got.cif
#   From: 2010.05.17/outbox.cif.g08.bks.cpg/sg65_11_cif.got.tgz:20935.got - 2010.06.03 17:01:31.
