data_PCOD9492921
_publ_section_title
;
Structure prediction by ZEFSAII (Michael W. Deem and Ramdas Pophale) SiO2 
 PCOD9492921
Probable space group: C M M M
;
_chemical_formula_sum "Si O2"
_cell_formula_units_Z 64
_cell_length_a 8.388561
_cell_length_b 15.634323
_cell_length_c 25.060784
_cell_angle_alpha 90.000000
_cell_angle_beta 90.000000
_cell_angle_gamma 90.000000
_cell_volume 3286.708594
_symmetry_space_group_name_H-M "C M M M"
_symmetry_group_IT_number 65
_symmetry_cell_setting 'orthorhombic'
loop_
_space_group_symop_operation_xyz
x,y,z
-x,-y,z
x,-y,-z
-x,y,-z
-x,-y,-z
x,y,-z
-x,y,z
x,-y,z
1/2+x,1/2+y,z
1/2-x,1/2-y,z
1/2+x,1/2-y,-z
1/2-x,1/2+y,-z
1/2-x,1/2-y,-z
1/2+x,1/2+y,-z
1/2-x,1/2+y,z
1/2+x,1/2-y,z
loop_
_atom_site_type_symbol
_atom_site_label
_atom_site_fract_x
_atom_site_fract_y
_atom_site_fract_z
Si Si1 0.806986 0.847916 0.617258
Si Si2 0.192122 0.152064 0.500000
Si Si3 0.694022 0.599744 0.000000
Si Si4 0.689220 0.000000 0.185127
Si Si5 0.806943 0.000000 0.306036
Si Si6 0.309230 0.658197 0.115738
O O1 0.750000 0.750000 0.624695
O O2 0.755773 0.880900 0.558075
O O3 0.000000 0.846049 0.617729
O O4 0.753796 0.915064 0.661958
O O5 0.250000 0.250000 0.500000
O O6 0.000000 0.148022 0.500000
O O7 0.749778 0.642124 0.054961
O O8 0.739325 0.500000 0.000000
O O9 0.500000 0.602813 0.000000
O O10 0.749714 0.000000 0.245597
O O11 0.750774 0.917353 0.153406
O O12 0.500000 0.000000 0.184758
O O13 0.000000 0.000000 0.306351
O O14 0.500000 0.656588 0.114745
O O15 0.250000 0.750000 0.134465
#
# Coordination Sequence:
#
# PCOD9492921 Si02
#       6
#    16   8   8   8   8  16
#     4   9  18  33  55  81 111 144 181 225 280 340
#     4   8  14  27  49  79 110 140 174 219 273 337
#     4   9  17  34  62  93 124 158 188 227 286 343
#     4  12  26  43  60  83 114 154 203 250 295 342
#     4  10  22  39  57  79 108 148 192 238 289 340
#     4  11  22  40  65  92 123 156 193 237 288 347
#
# _framework density 19.472369
#
# number of rings (size 3 to 8) (size 9 to 14) (size 15 to 20)
#    0.000    2.125    1.250    2.250    0.000    2.500 
#    0.000    7.500    0.000    0.000    0.000    9.625 
#    0.000    0.000    0.000    0.000    0.000    0.000 
#
# Total GULP energy -178590.653217 kJ/mol
# GULP energy per Si atom -5580.957913 kJ/mol
# Density = 1.942805 g / cm^3
# Si number density = 19.472369 Si / 1000 Ang^3
#
#
#
# Elastic Constant Matrix: (Units=GPa)
#
#
# Indices 1 2 3 4 5 6 
#
# 1 34.9262 27.4293 34.3703 0.0000 0.0000 0.0000
# 2 27.4293 159.1089 99.9399 0.0000 0.0000 0.0000
# 3 34.3703 99.9399 191.7101 0.0000 0.0000 0.0000
# 4 0.0000 0.0000 0.0000 -127.8923 0.0000 0.0000
# 5 0.0000 0.0000 0.0000 0.0000 14.4112 0.0000
# 6 0.0000 0.0000 0.0000 0.0000 0.0000 22.8461
#
#
#
# Elastic Compliance Matrix: (Units=1/GPa)
#
#
# Indices 1 2 3 4 5 6 
#
# 1 0.035818 -0.003184 -0.004762 0.000000 0.000000 0.000000
# 2 -0.003184 0.009628 -0.004448 0.000000 0.000000 0.000000
# 3 -0.004762 -0.004448 0.008389 0.000000 0.000000 0.000000
# 4 0.000000 0.000000 0.000000 -0.007819 0.000000 0.000000
# 5 0.000000 0.000000 0.000000 0.000000 0.069390 0.000000
# 6 0.000000 0.000000 0.000000 0.000000 0.000000 0.043771
#
#
# Mechanical properties :
#
#
# Convention : Reuss Voigt Hill
#
# Bulk Modulus (GPa) = 34.42678 78.80268 56.61473
# Shear Modulus (GPa) = 25.82005 -3.19328 11.31339
#
# Velocity S-wave (km/s) = 3.64536 -1.28198 2.41300
# Velocity P-wave (km/s) = 5.95284 6.19399 6.07462
#
# Compressibility (1/GPa) = 0.02904715
#
# Stress axis : x y z
#
# Youngs Moduli (GPa) = 27.91869 103.86408 119.20556
#
# Poissons Ratio (x) = 0.33068 0.56764
# Poissons Ratio (y) = 0.08889 0.53027
# Poissons Ratio (z) = 0.13294 0.46202
#
# Static dielectric constant tensor:
#      x y z
#    x 1.664490 0.000000 0.000000 
#    y 0.000000 1.653000 0.000000 
#    z 0.000000 0.000000 1.695360 
# 
# From -- ./inp_files/66901.got.cif
#   From: 2010.05.17/outbox.cif.g08.bks.cpg/sg65_34_cif.got.tgz:66901.got - 2010.06.03 17:01:31.
