data_PCOD9492727
_publ_section_title
;
Structure prediction by ZEFSAII (Michael W. Deem and Ramdas Pophale) SiO2 
 PCOD9492727
Probable space group: C M M M
;
_chemical_formula_sum "Si O2"
_cell_formula_units_Z 42
_cell_length_a 33.970904
_cell_length_b 7.668794
_cell_length_c 7.856975
_cell_angle_alpha 90.000000
_cell_angle_beta 90.000000
_cell_angle_gamma 90.000000
_cell_volume 2046.866637
_symmetry_space_group_name_H-M "C M M M"
_symmetry_group_IT_number 65
_symmetry_cell_setting 'orthorhombic'
loop_
_space_group_symop_operation_xyz
x,y,z
-x,-y,z
x,-y,-z
-x,y,-z
-x,-y,-z
x,y,-z
-x,y,z
x,-y,z
1/2+x,1/2+y,z
1/2-x,1/2-y,z
1/2+x,1/2-y,-z
1/2-x,1/2+y,-z
1/2-x,1/2-y,-z
1/2+x,1/2+y,-z
1/2-x,1/2+y,z
1/2+x,1/2-y,z
loop_
_atom_site_type_symbol
_atom_site_label
_atom_site_fract_x
_atom_site_fract_y
_atom_site_fract_z
Si Si1 0.500000 0.500000 0.000000
Si Si2 0.878440 0.702328 0.199757
Si Si3 0.792367 0.708577 0.694132
Si Si4 0.563930 0.500000 0.310361
O O1 0.534060 0.500000 0.152329
O O2 0.881318 0.500000 0.258283
O O3 0.833178 0.763632 0.221643
O O4 0.908020 0.830895 0.292593
O O5 0.887860 0.705322 0.000000
O O6 0.792033 0.777749 0.500000
O O7 0.794097 0.500000 0.687756
O O8 0.750000 0.750000 0.774285
O O9 0.546281 0.500000 0.500000
#
# Coordination Sequence:
#
# PCOD9492727 Si02
#       4
#     2  16  16   8
#     4  12  26  52  70 110 136 154 218 276 326 418
#     4  10  21  40  64  93 132 176 222 269 321 387
#     4   9  18  31  49  80 122 168 222 272 314 371
#     4  12  25  45  75 100 133 175 210 267 339 398
#
# _framework density 20.519165999999998
#
# number of rings (size 3 to 8) (size 9 to 14) (size 15 to 20)
#    0.000    1.905    1.905    1.429    2.667    3.048 
#    0.000    1.905    0.000    2.286    0.000    0.000 
#    0.000    0.000    0.000    0.000    0.000    0.000 
#
# Total GULP energy -116916.751869 kJ/mol
# GULP energy per Si atom -5567.464375 kJ/mol
# Density = 2.047246 g / cm^3
# Si number density = 20.519166 Si / 1000 Ang^3
#
#
#
# Elastic Constant Matrix: (Units=GPa)
#
#
# Indices 1 2 3 4 5 6 
#
# 1 150.0865 51.2297 54.8030 0.0000 0.0000 0.0000
# 2 51.2297 78.6461 29.8365 0.0000 0.0000 0.0000
# 3 54.8030 29.8365 118.2386 0.0000 0.0000 0.0000
# 4 0.0000 0.0000 0.0000 159.1636 0.0000 0.0000
# 5 0.0000 0.0000 0.0000 0.0000 57.4334 0.0000
# 6 0.0000 0.0000 0.0000 0.0000 0.0000 -9.7726
#
#
#
# Elastic Compliance Matrix: (Units=1/GPa)
#
#
# Indices 1 2 3 4 5 6 
#
# 1 0.009522 -0.005008 -0.003150 0.000000 0.000000 0.000000
# 2 -0.005008 0.016695 -0.001892 0.000000 0.000000 0.000000
# 3 -0.003150 -0.001892 0.010395 0.000000 0.000000 0.000000
# 4 0.000000 0.000000 0.000000 0.006283 0.000000 0.000000
# 5 0.000000 0.000000 0.000000 0.000000 0.017411 0.000000
# 6 0.000000 0.000000 0.000000 0.000000 0.000000 -0.102327
#
#
# Mechanical properties :
#
#
# Convention : Reuss Voigt Hill
#
# Bulk Modulus (GPa) = 60.55753 68.74552 64.65152
# Shear Modulus (GPa) = -304.56070 55.43834 -124.56118
#
# Velocity S-wave (km/s) = -12.19630 5.20351 -7.79978
# Velocity P-wave (km/s) = 12.99062 8.34732 7.03841
#
# Compressibility (1/GPa) = 0.01651322
#
# Stress axis : x y z
#
# Youngs Moduli (GPa) = 105.01649 59.89842 96.20204
#
# Poissons Ratio (x) = 0.29996 0.30302
# Poissons Ratio (y) = 0.52590 0.18199
# Poissons Ratio (z) = 0.33079 0.11331
#
# Static dielectric constant tensor:
#      x y z
#    x 1.723740 0.000000 0.000000 
#    y 0.000000 1.733700 0.000000 
#    z 0.000000 0.000000 1.752950 
# 
# From -- ./inp_files/2723.got.cif
#   From: 2010.05.17/outbox.cif.g08.bks.cpg/sg65_2_cif.got.tgz:2723.got - 2010.06.03 17:01:31.
