data_PCOD9492751
_publ_section_title
;
Structure prediction by ZEFSAII (Michael W. Deem and Ramdas Pophale) SiO2 
 PCOD9492751
Probable space group: C M M M
;
_chemical_formula_sum "Si O2"
_cell_formula_units_Z 42
_cell_length_a 34.291125
_cell_length_b 8.136650
_cell_length_c 7.158801
_cell_angle_alpha 90.000000
_cell_angle_beta 90.000000
_cell_angle_gamma 90.000000
_cell_volume 1997.412018
_symmetry_space_group_name_H-M "C M M M"
_symmetry_group_IT_number 65
_symmetry_cell_setting 'orthorhombic'
loop_
_space_group_symop_operation_xyz
x,y,z
-x,-y,z
x,-y,-z
-x,y,-z
-x,-y,-z
x,y,-z
-x,y,z
x,-y,z
1/2+x,1/2+y,z
1/2-x,1/2-y,z
1/2+x,1/2-y,-z
1/2-x,1/2+y,-z
1/2-x,1/2-y,-z
1/2+x,1/2+y,-z
1/2-x,1/2+y,z
1/2+x,1/2-y,z
loop_
_atom_site_type_symbol
_atom_site_label
_atom_site_fract_x
_atom_site_fract_y
_atom_site_fract_z
Si Si1 0.574427 0.500000 0.226706
Si Si2 0.374748 0.819305 0.226276
Si Si3 0.792276 0.189150 0.226820
Si Si4 0.500000 0.500000 0.500000
O O1 0.599023 0.336429 0.277951
O O2 0.534308 0.500000 0.337283
O O3 0.569473 0.500000 0.000000
O O4 0.330030 0.790897 0.285917
O O5 0.388643 0.000000 0.285773
O O6 0.374458 0.819124 0.000000
O O7 0.750000 0.250000 0.289374
O O8 0.797996 0.000000 0.279062
O O9 0.791674 0.196059 0.000000
#
# Coordination Sequence:
#
# PCOD9492751 Si02
#       4
#     8  16  16   2
#     4  10  21  41  63  88 121 151 192 243 297 360
#     4   9  16  29  51  78 113 158 196 235 291 345
#     4   9  14  20  34  66 113 156 197 243 280 324
#     4  12  26  44  70  94 112 150 190 244 314 366
#
# _framework density 21.027207000000001
#
# number of rings (size 3 to 8) (size 9 to 14) (size 15 to 20)
#    0.000    2.667    1.905    1.429    0.000    4.571 
#    0.000    2.857    0.000    4.571    0.000    1.333 
#    0.000    0.000    0.000    0.000    0.000    0.381 
#
# Total GULP energy -117028.098841 kJ/mol
# GULP energy per Si atom -5572.766611 kJ/mol
# Density = 2.097935 g / cm^3
# Si number density = 21.027207 Si / 1000 Ang^3
#
#
#
# Elastic Constant Matrix: (Units=GPa)
#
#
# Indices 1 2 3 4 5 6 
#
# 1 186.4115 96.5403 30.3413 0.0000 0.0000 0.0000
# 2 96.5403 191.5395 18.1133 0.0000 0.0000 0.0000
# 3 30.3413 18.1133 126.6725 0.0000 0.0000 0.0000
# 4 0.0000 0.0000 0.0000 -25.8102 0.0000 0.0000
# 5 0.0000 0.0000 0.0000 0.0000 -438.9790 0.0000
# 6 0.0000 0.0000 0.0000 0.0000 0.0000 -1.1063
#
#
#
# Elastic Compliance Matrix: (Units=1/GPa)
#
#
# Indices 1 2 3 4 5 6 
#
# 1 0.007454 -0.003637 -0.001265 0.000000 0.000000 0.000000
# 2 -0.003637 0.007067 -0.000139 0.000000 0.000000 0.000000
# 3 -0.001265 -0.000139 0.008217 0.000000 0.000000 0.000000
# 4 0.000000 0.000000 0.000000 -0.038744 0.000000 0.000000
# 5 0.000000 0.000000 0.000000 0.000000 -0.002278 0.000000
# 6 0.000000 0.000000 0.000000 0.000000 0.000000 -0.903895
#
#
# Mechanical properties :
#
#
# Convention : Reuss Voigt Hill
#
# Bulk Modulus (GPa) = 79.02168 88.29037 83.65602
# Shear Modulus (GPa) = -5.50736 -69.20386 -37.35561
#
# Velocity S-wave (km/s) = -1.62014 -5.74309 -4.21947
# Velocity P-wave (km/s) = 5.84487 1.37753 4.01652
#
# Compressibility (1/GPa) = 0.01265476
#
# Stress axis : x y z
#
# Youngs Moduli (GPa) = 134.15234 141.49518 121.69326
#
# Poissons Ratio (x) = 0.51468 0.15398
# Poissons Ratio (y) = 0.48797 0.01696
# Poissons Ratio (z) = 0.16975 0.01971
#
# Static dielectric constant tensor:
#      x y z
#    x 1.688840 0.000000 0.000000 
#    y 0.000000 1.744060 0.000000 
#    z 0.000000 0.000000 1.814650 
# 
# From -- ./inp_files/2867.got.cif
#   From: 2010.05.17/outbox.cif.g08.bks.cpg/sg65_2_cif.got.tgz:2867.got - 2010.06.03 17:01:31.
