data_PCOD9492459
_publ_section_title
;
Structure prediction by ZEFSAII (Michael W. Deem and Ramdas Pophale) SiO2 
 PCOD9492459
Probable space group: C M M M
;
_chemical_formula_sum "Si O2"
_cell_formula_units_Z 88
_cell_length_a 8.711696
_cell_length_b 23.785353
_cell_length_c 23.084130
_cell_angle_alpha 90.000000
_cell_angle_beta 90.000000
_cell_angle_gamma 90.000000
_cell_volume 4783.280227
_symmetry_space_group_name_H-M "C M M M"
_symmetry_group_IT_number 65
_symmetry_cell_setting 'orthorhombic'
loop_
_space_group_symop_operation_xyz
x,y,z
-x,-y,z
x,-y,-z
-x,y,-z
-x,-y,-z
x,y,-z
-x,y,z
x,-y,z
1/2+x,1/2+y,z
1/2-x,1/2-y,z
1/2+x,1/2-y,-z
1/2-x,1/2+y,-z
1/2-x,1/2-y,-z
1/2+x,1/2+y,-z
1/2-x,1/2+y,z
1/2+x,1/2-y,z
loop_
_atom_site_type_symbol
_atom_site_label
_atom_site_fract_x
_atom_site_fract_y
_atom_site_fract_z
Si Si1 0.316082 0.879808 0.830020
Si Si2 0.316518 0.687686 0.722513
Si Si3 0.316559 0.311250 0.067981
Si Si4 0.683242 0.500000 0.353718
Si Si5 0.184422 0.500000 0.223542
Si Si6 0.184791 0.618414 0.614682
Si Si7 0.815233 0.687229 0.500000
O O1 0.500000 0.874128 0.827731
O O2 0.240506 0.839618 0.782142
O O3 0.255560 0.858988 0.891775
O O4 0.276834 0.943653 0.811940
O O5 0.500000 0.688701 0.720476
O O6 0.250000 0.750000 0.716988
O O7 0.250826 0.650249 0.670454
O O8 0.500000 0.310303 0.074986
O O9 0.250000 0.250000 0.084739
O O10 0.280927 0.319817 0.000000
O O11 0.500000 0.500000 0.355984
O O12 0.736235 0.500000 0.286314
O O13 0.750223 0.555615 0.383541
O O14 0.000000 0.500000 0.233506
O O15 0.230221 0.652778 0.557308
O O16 0.000000 0.616716 0.618147
O O17 0.750000 0.750000 0.500000
O O18 0.000000 0.691048 0.500000
#
# Coordination Sequence:
#
# PCOD9492459 Si02
#       7
#    16  16  16   8   8  16   8
#     4  11  22  38  61  88 118 157 201 249 304 359
#     4  12  24  38  58  88 121 156 199 248 305 364
#     4  10  21  38  60  87 121 160 201 249 303 359
#     4  12  24  39  63  93 122 160 203 251 304 359
#     4  10  22  40  62  86 120 161 200 248 304 359
#     4  11  23  42  64  89 122 160 202 250 303 362
#     4  10  24  43  66  91 121 162 202 248 307 364
#
# _framework density 18.397417000000001
#
# number of rings (size 3 to 8) (size 9 to 14) (size 15 to 20)
#    0.000    1.091    1.818    5.182    0.000    5.091 
#    0.000    2.273    0.000    2.727    0.000    0.000 
#    0.000    0.000    0.000    0.000    0.000    0.000 
#
# Total GULP energy -246102.879028 kJ/mol
# GULP energy per Si atom -5593.247251 kJ/mol
# Density = 1.835554 g / cm^3
# Si number density = 18.397417 Si / 1000 Ang^3
#
#
#
# Elastic Constant Matrix: (Units=GPa)
#
#
# Indices 1 2 3 4 5 6 
#
# 1 90.2271 58.8426 47.1918 0.0000 0.0000 0.0000
# 2 58.8426 169.2725 64.5100 0.0000 0.0000 0.0000
# 3 47.1918 64.5100 100.0223 0.0000 0.0000 0.0000
# 4 0.0000 0.0000 0.0000 -20.7591 0.0000 0.0000
# 5 0.0000 0.0000 0.0000 0.0000 -182.3009 0.0000
# 6 0.0000 0.0000 0.0000 0.0000 0.0000 30.5365
#
#
#
# Elastic Compliance Matrix: (Units=1/GPa)
#
#
# Indices 1 2 3 4 5 6 
#
# 1 0.016223 -0.003610 -0.005326 0.000000 0.000000 0.000000
# 2 -0.003610 0.008636 -0.003867 0.000000 0.000000 0.000000
# 3 -0.005326 -0.003867 0.015005 0.000000 0.000000 0.000000
# 4 0.000000 0.000000 0.000000 -0.048172 0.000000 0.000000
# 5 0.000000 0.000000 0.000000 0.000000 -0.005485 0.000000
# 6 0.000000 0.000000 0.000000 0.000000 0.000000 0.032748
#
#
# Mechanical properties :
#
#
# Convention : Reuss Voigt Hill
#
# Bulk Modulus (GPa) = 70.13369 77.84564 73.98967
# Shear Modulus (GPa) = 101.39478 -21.90620 39.74429
#
# Velocity S-wave (km/s) = 7.43191 -3.45443 4.65297
# Velocity P-wave (km/s) = 10.57585 5.14728 8.31694
#
# Compressibility (1/GPa) = 0.01425848
#
# Stress axis : x y z
#
# Youngs Moduli (GPa) = 61.64099 115.79353 66.64612
#
# Poissons Ratio (x) = 0.41797 0.35497
# Poissons Ratio (y) = 0.22250 0.25771
# Poissons Ratio (z) = 0.32831 0.44775
#
# Static dielectric constant tensor:
#      x y z
#    x 1.615740 0.000000 0.000000 
#    y 0.000000 1.595360 0.000000 
#    z 0.000000 0.000000 1.618270 
# 
# From -- ./inp_files/59857.got.cif
#   From: 2010.05.17/outbox.cif.g08.bks.cpg/sg65_30_cif.got.tgz:59857.got - 2010.06.03 17:01:31.
