data_PCOD9492367
_publ_section_title
;
Structure prediction by ZEFSAII (Michael W. Deem and Ramdas Pophale) SiO2 
 PCOD9492367
Probable space group: C M M M
;
_chemical_formula_sum "Si O2"
_cell_formula_units_Z 72
_cell_length_a 7.327563
_cell_length_b 28.518264
_cell_length_c 16.223045
_cell_angle_alpha 90.000000
_cell_angle_beta 90.000000
_cell_angle_gamma 90.000000
_cell_volume 3390.119592
_symmetry_space_group_name_H-M "C M M M"
_symmetry_group_IT_number 65
_symmetry_cell_setting 'orthorhombic'
loop_
_space_group_symop_operation_xyz
x,y,z
-x,-y,z
x,-y,-z
-x,y,-z
-x,-y,-z
x,y,-z
-x,y,z
x,-y,z
1/2+x,1/2+y,z
1/2-x,1/2-y,z
1/2+x,1/2-y,-z
1/2-x,1/2+y,-z
1/2-x,1/2-y,-z
1/2+x,1/2+y,-z
1/2-x,1/2+y,z
1/2+x,1/2-y,z
loop_
_atom_site_type_symbol
_atom_site_label
_atom_site_fract_x
_atom_site_fract_y
_atom_site_fract_z
Si Si1 0.717799 0.805121 0.000000
Si Si2 0.216185 0.694823 0.500000
Si Si3 0.777519 0.632052 0.653566
Si Si4 0.294241 0.850017 0.833146
Si Si5 0.220281 0.947870 0.096291
Si Si6 0.000000 0.055116 0.400086
O O1 0.750000 0.750000 0.000000
O O2 0.791244 0.826965 0.085257
O O3 0.500000 0.815399 0.000000
O O4 0.250000 0.750000 0.500000
O O5 0.279373 0.667665 0.418673
O O6 0.000000 0.688804 0.500000
O O7 0.717693 0.653233 0.741590
O O8 0.674811 0.583287 0.635176
O O9 0.000000 0.626486 0.654514
O O10 0.500000 0.830881 0.828002
O O11 0.297142 0.905348 0.852281
O O12 0.000000 0.945684 0.100683
O O13 0.276215 0.000000 0.122246
O O14 0.270291 0.941892 0.000000
O O15 0.000000 0.058595 0.500000
O O16 0.000000 0.000000 0.378113
#
# Coordination Sequence:
#
# PCOD9492367 Si02
#       6
#     8   8  16  16  16   8
#     4  10  22  40  59  84 119 159 212 263 313 378
#     4  10  22  40  66  93 121 158 200 260 327 382
#     4  10  23  43  63  92 134 169 209 264 321 388
#     4  10  21  38  59  82 117 162 201 248 305 362
#     4   9  18  32  51  79 113 148 192 242 290 345
#     4  11  24  42  70  99 129 173 219 264 322 395
#
# _framework density 21.238189999999999
#
# number of rings (size 3 to 8) (size 9 to 14) (size 15 to 20)
#    0.000    2.111    2.222    0.667    3.111    3.556 
#    0.000    4.444    0.000    0.000    0.000    0.000 
#    0.000    0.000    0.000    0.000    0.000    0.000 
#
# Total GULP energy -200962.270489 kJ/mol
# GULP energy per Si atom -5582.285291 kJ/mol
# Density = 2.118985 g / cm^3
# Si number density = 21.238190 Si / 1000 Ang^3
#
#
#
# Elastic Constant Matrix: (Units=GPa)
#
#
# Indices 1 2 3 4 5 6 
#
# 1 99.4574 12.0044 25.1987 0.0000 0.0000 0.0000
# 2 12.0044 130.0142 89.1209 0.0000 0.0000 0.0000
# 3 25.1987 89.1209 204.4098 0.0000 0.0000 0.0000
# 4 0.0000 0.0000 0.0000 1.4544 0.0000 0.0000
# 5 0.0000 0.0000 0.0000 0.0000 1.9304 0.0000
# 6 0.0000 0.0000 0.0000 0.0000 0.0000 27.6700
#
#
#
# Elastic Compliance Matrix: (Units=1/GPa)
#
#
# Indices 1 2 3 4 5 6 
#
# 1 0.010380 -0.000116 -0.001229 0.000000 0.000000 0.000000
# 2 -0.000116 0.010971 -0.004769 0.000000 0.000000 0.000000
# 3 -0.001229 -0.004769 0.007123 0.000000 0.000000 0.000000
# 4 0.000000 0.000000 0.000000 0.687563 0.000000 0.000000
# 5 0.000000 0.000000 0.000000 0.000000 0.518020 0.000000
# 6 0.000000 0.000000 0.000000 0.000000 0.000000 0.036140
#
#
# Mechanical properties :
#
#
# Convention : Reuss Voigt Hill
#
# Bulk Modulus (GPa) = 61.55360 76.28105 68.91733
# Shear Modulus (GPa) = 3.88247 26.71479 15.29863
#
# Velocity S-wave (km/s) = 1.35352 3.55049 2.68682
# Velocity P-wave (km/s) = 5.61143 7.26656 6.49196
#
# Compressibility (1/GPa) = 0.01624600
#
# Stress axis : x y z
#
# Youngs Moduli (GPa) = 96.33970 91.14751 140.39185
#
# Poissons Ratio (x) = 0.01057 0.17255
# Poissons Ratio (y) = 0.01117 0.66954
# Poissons Ratio (z) = 0.11841 0.43469
#
# Static dielectric constant tensor:
#      x y z
#    x 1.737660 0.000000 0.000000 
#    y 0.000000 1.731490 0.000000 
#    z 0.000000 0.000000 1.787280 
# 
# From -- ./inp_files/36638.got.cif
#   From: 2010.05.17/outbox.cif.g08.bks.cpg/sg65_19_cif.got.tgz:36638.got - 2010.06.03 17:01:31.
