data_PCOD9492347
_publ_section_title
;
Structure prediction by ZEFSAII (Michael W. Deem and Ramdas Pophale) SiO2 
 PCOD9492347
Probable space group: C M M M
;
_chemical_formula_sum "Si O2"
_cell_formula_units_Z 96
_cell_length_a 15.080732
_cell_length_b 14.241594
_cell_length_c 23.072580
_cell_angle_alpha 90.000000
_cell_angle_beta 90.000000
_cell_angle_gamma 90.000000
_cell_volume 4955.382507
_symmetry_space_group_name_H-M "C M M M"
_symmetry_group_IT_number 65
_symmetry_cell_setting 'orthorhombic'
loop_
_space_group_symop_operation_xyz
x,y,z
-x,-y,z
x,-y,-z
-x,y,-z
-x,-y,-z
x,y,-z
-x,y,z
x,-y,z
1/2+x,1/2+y,z
1/2-x,1/2-y,z
1/2+x,1/2-y,-z
1/2-x,1/2+y,-z
1/2-x,1/2-y,-z
1/2+x,1/2+y,-z
1/2-x,1/2+y,z
1/2+x,1/2-y,z
loop_
_atom_site_type_symbol
_atom_site_label
_atom_site_fract_x
_atom_site_fract_y
_atom_site_fract_z
Si Si1 0.764580 0.886730 0.117310
Si Si2 0.604347 0.765031 0.930647
Si Si3 0.144779 0.734604 0.565307
Si Si4 0.763648 0.886562 0.251607
Si Si5 0.399534 0.607187 0.650636
Si Si6 0.901165 0.387242 0.326167
O O1 0.669897 0.844594 0.096091
O O2 0.844224 0.832037 0.084879
O O3 0.775480 0.860518 0.185173
O O4 0.767495 0.000000 0.110516
O O5 0.500000 0.767404 0.912057
O O6 0.605292 0.776259 0.000000
O O7 0.113260 0.717391 0.500000
O O8 0.250000 0.750000 0.563798
O O9 0.106539 0.828302 0.594440
O O10 0.123372 0.653246 0.611044
O O11 0.836350 0.856141 0.298545
O O12 0.669551 0.857727 0.278116
O O13 0.766964 0.000000 0.251893
O O14 0.500000 0.606813 0.671956
O O15 0.373565 0.500000 0.636546
O O16 0.899825 0.500000 0.328749
O O17 0.000000 0.355036 0.311544
#
# Coordination Sequence:
#
# PCOD9492347 Si02
#       6
#    16  16  16  16  16  16
#     4  10  21  38  64  91 119 159 203 247 293 348
#     4  10  23  41  59  87 127 163 200 247 294 344
#     4  11  23  37  56  80 107 142 185 233 281 335
#     4   9  19  37  58  85 117 144 184 234 279 337
#     4  10  21  38  59  80 108 146 182 225 284 342
#     4  10  21  38  59  80 108 146 182 225 284 342
#
# _framework density 19.372872999999998
#
# number of rings (size 3 to 8) (size 9 to 14) (size 15 to 20)
#    0.000    2.000    1.667    1.500    0.000    8.000 
#    0.000    8.333    0.000    0.000    0.000    0.000 
#    0.000    0.000    0.000    0.000    0.000    0.000 
#
# Total GULP energy -267846.352733 kJ/mol
# GULP energy per Si atom -5580.132349 kJ/mol
# Density = 1.932878 g / cm^3
# Si number density = 19.372873 Si / 1000 Ang^3
#
#
#
# Elastic Constant Matrix: (Units=GPa)
#
#
# Indices 1 2 3 4 5 6 
#
# 1 100.7011 -10.7714 2.2223 0.0000 0.0000 0.0000
# 2 -10.7714 70.3802 -20.5217 0.0000 0.0000 0.0000
# 3 2.2223 -20.5217 63.4210 0.0000 0.0000 0.0000
# 4 0.0000 0.0000 0.0000 30.8090 0.0000 0.0000
# 5 0.0000 0.0000 0.0000 0.0000 -19.2604 0.0000
# 6 0.0000 0.0000 0.0000 0.0000 0.0000 7.5093
#
#
#
# Elastic Compliance Matrix: (Units=1/GPa)
#
#
# Indices 1 2 3 4 5 6 
#
# 1 0.010097 0.001592 0.000161 0.000000 0.000000 0.000000
# 2 0.001592 0.015940 0.005102 0.000000 0.000000 0.000000
# 3 0.000161 0.005102 0.017413 0.000000 0.000000 0.000000
# 4 0.000000 0.000000 0.000000 0.032458 0.000000 0.000000
# 5 0.000000 0.000000 0.000000 0.000000 -0.051920 0.000000
# 6 0.000000 0.000000 0.000000 0.000000 0.000000 0.133169
#
#
# Mechanical properties :
#
#
# Convention : Reuss Voigt Hill
#
# Bulk Modulus (GPa) = 17.49422 19.59563 18.54493
# Shear Modulus (GPa) = 30.76942 21.38312 26.07627
#
# Velocity S-wave (km/s) = 3.98964 3.32590 3.67279
# Velocity P-wave (km/s) = 5.50207 4.98856 5.25160
#
# Compressibility (1/GPa) = 0.05716174
#
# Stress axis : x y z
#
# Youngs Moduli (GPa) = 99.03791 62.73557 57.42868
#
# Poissons Ratio (x) = -0.09990 -0.00927
# Poissons Ratio (y) = -0.15771 -0.29300
# Poissons Ratio (z) = -0.01599 -0.32008
#
# Static dielectric constant tensor:
#      x y z
#    x 1.690510 0.000000 0.000000 
#    y 0.000000 1.697290 0.000000 
#    z 0.000000 0.000000 1.645530 
# 
# From -- ./inp_files/62572.got.cif
#   From: 2010.05.17/outbox.cif.g08.bks.cpg/sg65_32_cif.got.tgz:62572.got - 2010.06.03 17:01:31.
