data_PCOD9492090
_publ_section_title
;
Structure prediction by ZEFSAII (Michael W. Deem and Ramdas Pophale) SiO2 
 PCOD9492090
Probable space group: C M M M
;
_chemical_formula_sum "Si O2"
_cell_formula_units_Z 80
_cell_length_a 19.450390
_cell_length_b 8.691701
_cell_length_c 26.183813
_cell_angle_alpha 90.000000
_cell_angle_beta 90.000000
_cell_angle_gamma 90.000000
_cell_volume 4426.556199
_symmetry_space_group_name_H-M "C M M M"
_symmetry_group_IT_number 65
_symmetry_cell_setting 'orthorhombic'
loop_
_space_group_symop_operation_xyz
x,y,z
-x,-y,z
x,-y,-z
-x,y,-z
-x,-y,-z
x,y,-z
-x,y,z
x,-y,z
1/2+x,1/2+y,z
1/2-x,1/2-y,z
1/2+x,1/2-y,-z
1/2-x,1/2+y,-z
1/2-x,1/2-y,-z
1/2+x,1/2+y,-z
1/2-x,1/2+y,z
1/2+x,1/2-y,z
loop_
_atom_site_type_symbol
_atom_site_label
_atom_site_fract_x
_atom_site_fract_y
_atom_site_fract_z
Si Si1 0.421444 0.812766 0.441917
Si Si2 0.419162 0.182974 0.147695
Si Si3 0.919767 0.184167 0.741656
Si Si4 0.173261 0.684905 0.651450
Si Si5 0.326586 0.684290 0.057987
O O1 0.405526 0.763854 0.500000
O O2 0.500000 0.765075 0.429738
O O3 0.367431 0.762026 0.399487
O O4 0.421313 0.000000 0.441773
O O5 0.500000 0.214260 0.139112
O O6 0.400290 0.260769 0.201541
O O7 0.375591 0.247435 0.100951
O O8 0.409692 0.000000 0.152040
O O9 0.870991 0.259185 0.699671
O O10 0.000000 0.228958 0.733208
O O11 0.915224 0.000000 0.738684
O O12 0.175867 0.500000 0.651365
O O13 0.250000 0.750000 0.652925
O O14 0.324792 0.500000 0.062042
O O15 0.250000 0.750000 0.064785
O O16 0.348872 0.724502 0.000000
#
# Coordination Sequence:
#
# PCOD9492090 Si02
#       5
#    16  16  16  16  16
#     4   8  15  30  53  79 105 137 179 223 267 318
#     4  10  21  37  58  84 112 142 179 223 270 321
#     4  10  21  38  59  81 107 139 177 223 273 325
#     4  11  22  35  53  79 111 145 182 223 268 319
#     4  10  21  37  57  81 111 147 185 224 268 320
#
# _framework density 18.072741000000001
#
# number of rings (size 3 to 8) (size 9 to 14) (size 15 to 20)
#    0.000    2.200    0.000    3.600    0.000    6.000 
#    0.000    6.000    0.000    1.800    0.000    7.000 
#    0.000    0.000    0.000    0.000    0.000    0.000 
#
# Total GULP energy -223336.920904 kJ/mol
# GULP energy per Si atom -5583.423023 kJ/mol
# Density = 1.803161 g / cm^3
# Si number density = 18.072741 Si / 1000 Ang^3
#
#
#
# Elastic Constant Matrix: (Units=GPa)
#
#
# Indices 1 2 3 4 5 6 
#
# 1 119.9011 47.5730 119.2439 0.0000 0.0000 0.0000
# 2 47.5730 47.4090 53.7069 0.0000 0.0000 0.0000
# 3 119.2439 53.7069 172.0648 0.0000 0.0000 0.0000
# 4 0.0000 0.0000 0.0000 17.9465 0.0000 0.0000
# 5 0.0000 0.0000 0.0000 0.0000 27.3964 0.0000
# 6 0.0000 0.0000 0.0000 0.0000 0.0000 22.2659
#
#
#
# Elastic Compliance Matrix: (Units=1/GPa)
#
#
# Indices 1 2 3 4 5 6 
#
# 1 0.029616 -0.010005 -0.017402 0.000000 0.000000 0.000000
# 2 -0.010005 0.036012 -0.004306 0.000000 0.000000 0.000000
# 3 -0.017402 -0.004306 0.019215 0.000000 0.000000 0.000000
# 4 0.000000 0.000000 0.000000 0.055721 0.000000 0.000000
# 5 0.000000 0.000000 0.000000 0.000000 0.036501 0.000000
# 6 0.000000 0.000000 0.000000 0.000000 0.000000 0.044912
#
#
# Mechanical properties :
#
#
# Convention : Reuss Voigt Hill
#
# Bulk Modulus (GPa) = 46.69298 86.71362 66.70330
# Shear Modulus (GPa) = 17.09152 21.44518 19.26835
#
# Velocity S-wave (km/s) = 3.07857 3.44845 3.26875
# Velocity P-wave (km/s) = 6.20718 7.99626 7.15784
#
# Compressibility (1/GPa) = 0.02141650
#
# Stress axis : x y z
#
# Youngs Moduli (GPa) = 33.76533 27.76884 52.04135
#
# Poissons Ratio (x) = 0.27784 0.90560
# Poissons Ratio (y) = 0.33784 0.22411
# Poissons Ratio (z) = 0.58757 0.11958
#
# Static dielectric constant tensor:
#      x y z
#    x 1.592010 0.000000 0.000000 
#    y 0.000000 1.605810 0.000000 
#    z 0.000000 0.000000 1.603040 
# 
# From -- ./inp_files/72761.got.cif
#   From: 2010.05.17/outbox.cif.g08.bks.cpg/sg65_37_cif.got.tgz:72761.got - 2010.06.03 17:01:31.
