data_PCOD9492074
_publ_section_title
;
Structure prediction by ZEFSAII (Michael W. Deem and Ramdas Pophale) SiO2 
 PCOD9492074
Probable space group: C M M M
;
_chemical_formula_sum "Si O2"
_cell_formula_units_Z 96
_cell_length_a 19.108499
_cell_length_b 8.726760
_cell_length_c 31.505224
_cell_angle_alpha 90.000000
_cell_angle_beta 90.000000
_cell_angle_gamma 90.000000
_cell_volume 5253.662599
_symmetry_space_group_name_H-M "C M M M"
_symmetry_group_IT_number 65
_symmetry_cell_setting 'orthorhombic'
loop_
_space_group_symop_operation_xyz
x,y,z
-x,-y,z
x,-y,-z
-x,y,-z
-x,-y,-z
x,y,-z
-x,y,z
x,-y,z
1/2+x,1/2+y,z
1/2-x,1/2-y,z
1/2+x,1/2-y,-z
1/2-x,1/2+y,-z
1/2-x,1/2-y,-z
1/2+x,1/2+y,-z
1/2-x,1/2+y,z
1/2+x,1/2-y,z
loop_
_atom_site_type_symbol
_atom_site_label
_atom_site_fract_x
_atom_site_fract_y
_atom_site_fract_z
Si Si1 0.171936 0.683899 0.204570
Si Si2 0.826119 0.816621 0.950745
Si Si3 0.581895 0.683210 0.718800
Si Si4 0.827889 0.685090 0.547174
Si Si5 0.082132 0.316179 0.627708
Si Si6 0.419236 0.815014 0.122778
O O1 0.175373 0.500000 0.205202
O O2 0.250000 0.750000 0.203005
O O3 0.130511 0.741822 0.245809
O O4 0.127419 0.732019 0.163162
O O5 0.750000 0.750000 0.938857
O O6 0.884261 0.751696 0.919392
O O7 0.823674 0.000000 0.947815
O O8 0.839248 0.774252 0.000000
O O9 0.500000 0.728611 0.724919
O O10 0.586097 0.500000 0.721696
O O11 0.603149 0.737070 0.671699
O O12 0.854185 0.729552 0.500000
O O13 0.825292 0.500000 0.548198
O O14 0.750000 0.750000 0.551609
O O15 0.874883 0.735696 0.586630
O O16 0.090552 0.500000 0.632410
O O17 0.000000 0.285234 0.621006
O O18 0.500000 0.767151 0.127659
O O19 0.417686 0.000000 0.120580
#
# Coordination Sequence:
#
# PCOD9492074 Si02
#       6
#    16  16  16  16  16  16
#     4  11  23  39  59  83 111 142 180 224 270 322
#     4  10  21  37  58  84 114 149 188 229 273 321
#     4  10  21  37  57  81 109 141 178 220 267 320
#     4   9  18  32  50  73 101 134 172 214 261 313
#     4   9  18  33  53  76 103 137 175 216 263 313
#     4  10  22  39  59  84 113 146 183 224 272 324
#
# _framework density 18.272967000000001
#
# number of rings (size 3 to 8) (size 9 to 14) (size 15 to 20)
#    0.000    2.167    0.000    2.500    0.000    7.667 
#    0.000    5.000    0.000    0.000    0.000    4.667 
#    0.000    0.000    0.000    0.000    0.000    0.000 
#
# Total GULP energy -268017.407709 kJ/mol
# GULP energy per Si atom -5583.695994 kJ/mol
# Density = 1.823138 g / cm^3
# Si number density = 18.272967 Si / 1000 Ang^3
#
#
#
# Elastic Constant Matrix: (Units=GPa)
#
#
# Indices 1 2 3 4 5 6 
#
# 1 131.9098 39.2840 105.8160 0.0000 0.0000 0.0000
# 2 39.2840 25.2325 40.8443 0.0000 0.0000 0.0000
# 3 105.8160 40.8443 148.3821 0.0000 0.0000 0.0000
# 4 0.0000 0.0000 0.0000 21.2238 0.0000 0.0000
# 5 0.0000 0.0000 0.0000 0.0000 43.0293 0.0000
# 6 0.0000 0.0000 0.0000 0.0000 0.0000 28.2976
#
#
#
# Elastic Compliance Matrix: (Units=1/GPa)
#
#
# Indices 1 2 3 4 5 6 
#
# 1 0.020377 -0.014794 -0.010459 0.000000 0.000000 0.000000
# 2 -0.014794 0.082223 -0.012083 0.000000 0.000000 0.000000
# 3 -0.010459 -0.012083 0.017524 0.000000 0.000000 0.000000
# 4 0.000000 0.000000 0.000000 0.047117 0.000000 0.000000
# 5 0.000000 0.000000 0.000000 0.000000 0.023240 0.000000
# 6 0.000000 0.000000 0.000000 0.000000 0.000000 0.035339
#
#
# Mechanical properties :
#
#
# Convention : Reuss Voigt Hill
#
# Bulk Modulus (GPa) = 22.00142 75.26812 48.63477
# Shear Modulus (GPa) = 15.84072 26.48213 21.16143
#
# Velocity S-wave (km/s) = 2.94750 3.81103 3.40674
# Velocity P-wave (km/s) = 4.86315 7.78753 6.49215
#
# Compressibility (1/GPa) = 0.04545162
#
# Stress axis : x y z
#
# Youngs Moduli (GPa) = 49.07512 12.16208 57.06415
#
# Poissons Ratio (x) = 0.17993 0.59684
# Poissons Ratio (y) = 0.72602 0.68950
# Poissons Ratio (z) = 0.51329 0.14695
#
# Static dielectric constant tensor:
#      x y z
#    x 1.598800 0.000000 0.000000 
#    y 0.000000 1.617410 0.000000 
#    z 0.000000 0.000000 1.618070 
# 
# From -- ./inp_files/75342.got.cif
#   From: 2010.05.17/outbox.cif.g08.bks.cpg/sg65_38_cif.got.tgz:75342.got - 2010.06.03 17:01:31.
