data_PCOD9492862
_publ_section_title
;
Structure prediction by ZEFSAII (Michael W. Deem and Ramdas Pophale) SiO2 
 PCOD9492862
Probable space group: C M M M
;
_chemical_formula_sum "Si O2"
_cell_formula_units_Z 80
_cell_length_a 10.624804
_cell_length_b 27.342927
_cell_length_c 13.868931
_cell_angle_alpha 90.000000
_cell_angle_beta 90.000000
_cell_angle_gamma 90.000000
_cell_volume 4029.108082
_symmetry_space_group_name_H-M "C M M M"
_symmetry_group_IT_number 65
_symmetry_cell_setting 'orthorhombic'
loop_
_space_group_symop_operation_xyz
x,y,z
-x,-y,z
x,-y,-z
-x,y,-z
-x,-y,-z
x,y,-z
-x,y,z
x,-y,z
1/2+x,1/2+y,z
1/2-x,1/2-y,z
1/2+x,1/2-y,-z
1/2-x,1/2+y,-z
1/2-x,1/2-y,-z
1/2+x,1/2+y,-z
1/2-x,1/2+y,z
1/2+x,1/2-y,z
loop_
_atom_site_type_symbol
_atom_site_label
_atom_site_fract_x
_atom_site_fract_y
_atom_site_fract_z
Si Si1 0.642401 0.708982 0.112842
Si Si2 0.150023 0.552945 0.108238
Si Si3 0.362860 0.787775 0.609753
Si Si4 0.237968 0.366421 0.749505
Si Si5 0.853729 0.557970 0.614192
O O1 0.500000 0.728916 0.121723
O O2 0.750000 0.750000 0.128133
O O3 0.661225 0.666793 0.193264
O O4 0.656187 0.692230 0.000000
O O5 0.193619 0.500000 0.148243
O O6 0.180065 0.600891 0.166677
O O7 0.000000 0.550198 0.103528
O O8 0.200215 0.556876 0.000000
O O9 0.355041 0.808335 0.500000
O O10 0.500000 0.763846 0.618203
O O11 0.250000 0.750000 0.619921
O O12 0.347446 0.828154 0.691273
O O13 0.249775 0.408894 0.667966
O O14 0.849235 0.566568 0.500000
O O15 0.836481 0.500000 0.629845
O O16 0.000000 0.569208 0.645930
#
# Coordination Sequence:
#
# PCOD9492862 Si02
#       5
#    16  16  16  16  16
#     4  10  24  45  64  85 117 154 192 238 294 357
#     4   9  18  31  47  74 113 150 185 229 279 331
#     4  10  22  38  54  76 110 149 187 230 282 340
#     4  12  20  30  56  84 108 142 189 238 286 337
#     4   9  18  32  51  81 123 165 203 246 295 346
#
# _framework density 19.855509999999999
#
# number of rings (size 3 to 8) (size 9 to 14) (size 15 to 20)
#    0.000    2.000    0.000    5.400    0.000    8.000 
#    0.000    2.000    0.000    4.200    0.000    8.400 
#    0.000    0.000    0.000    0.000    0.000    0.000 
#
# Total GULP energy -222680.961399 kJ/mol
# GULP energy per Si atom -5567.024035 kJ/mol
# Density = 1.981032 g / cm^3
# Si number density = 19.855510 Si / 1000 Ang^3
#
#
#
# Elastic Constant Matrix: (Units=GPa)
#
#
# Indices 1 2 3 4 5 6 
#
# 1 92.5255 53.5855 35.8119 0.0000 0.0000 0.0000
# 2 53.5855 97.3736 48.1087 0.0000 0.0000 0.0000
# 3 35.8119 48.1087 108.5977 0.0000 0.0000 0.0000
# 4 0.0000 0.0000 0.0000 40.7759 0.0000 0.0000
# 5 0.0000 0.0000 0.0000 0.0000 8.0426 0.0000
# 6 0.0000 0.0000 0.0000 0.0000 0.0000 23.7333
#
#
#
# Elastic Compliance Matrix: (Units=1/GPa)
#
#
# Indices 1 2 3 4 5 6 
#
# 1 0.016127 -0.007998 -0.001775 0.000000 0.000000 0.000000
# 2 -0.007998 0.017113 -0.004944 0.000000 0.000000 0.000000
# 3 -0.001775 -0.004944 0.011984 0.000000 0.000000 0.000000
# 4 0.000000 0.000000 0.000000 0.024524 0.000000 0.000000
# 5 0.000000 0.000000 0.000000 0.000000 0.124338 0.000000
# 6 0.000000 0.000000 0.000000 0.000000 0.000000 0.042135
#
#
# Mechanical properties :
#
#
# Convention : Reuss Voigt Hill
#
# Bulk Modulus (GPa) = 63.32840 63.72320 63.52580
# Shear Modulus (GPa) = 18.45579 25.24309 21.84944
#
# Velocity S-wave (km/s) = 3.05209 3.56945 3.32086
# Velocity P-wave (km/s) = 6.66214 7.01079 6.83869
#
# Compressibility (1/GPa) = 0.01579070
#
# Stress axis : x y z
#
# Youngs Moduli (GPa) = 62.00914 58.43346 83.44592
#
# Poissons Ratio (x) = 0.46733 0.14812
# Poissons Ratio (y) = 0.49593 0.41255
# Poissons Ratio (z) = 0.11007 0.28889
#
# Static dielectric constant tensor:
#      x y z
#    x 1.687550 0.000000 0.000000 
#    y 0.000000 1.725170 0.000000 
#    z 0.000000 0.000000 1.779800 
# 
# From -- ./inp_files/38275.got.cif
#   From: 2010.05.17/outbox.cif.g08.bks.cpg/sg65_20_cif.got.tgz:38275.got - 2010.06.03 17:01:31.
