data_PCOD9492126
_publ_section_title
;
Structure prediction by ZEFSAII (Michael W. Deem and Ramdas Pophale) SiO2 
 PCOD9492126
Probable space group: C M M M
;
_chemical_formula_sum "Si O2"
_cell_formula_units_Z 64
_cell_length_a 8.715672
_cell_length_b 23.128417
_cell_length_c 13.877213
_cell_angle_alpha 90.000000
_cell_angle_beta 90.000000
_cell_angle_gamma 90.000000
_cell_volume 2797.364384
_symmetry_space_group_name_H-M "C M M M"
_symmetry_group_IT_number 65
_symmetry_cell_setting 'orthorhombic'
loop_
_space_group_symop_operation_xyz
x,y,z
-x,-y,z
x,-y,-z
-x,y,-z
-x,-y,-z
x,y,-z
-x,y,z
x,-y,z
1/2+x,1/2+y,z
1/2-x,1/2-y,z
1/2+x,1/2-y,-z
1/2-x,1/2+y,-z
1/2-x,1/2-y,-z
1/2+x,1/2+y,-z
1/2-x,1/2+y,z
1/2+x,1/2-y,z
loop_
_atom_site_type_symbol
_atom_site_label
_atom_site_fract_x
_atom_site_fract_y
_atom_site_fract_z
Si Si1 0.670099 0.304653 0.386410
Si Si2 0.823081 0.313681 0.883967
Si Si3 0.821512 0.577565 0.609492
Si Si4 0.681647 0.563325 0.187579
O O1 0.647921 0.293475 0.500000
O O2 0.500000 0.319119 0.347302
O O3 0.750000 0.250000 0.340381
O O4 0.794772 0.354391 0.383793
O O5 0.750000 0.250000 0.863949
O O6 0.750633 0.374469 0.845437
O O7 0.000000 0.312340 0.851670
O O8 0.817772 0.319026 0.000000
O O9 0.774646 0.561503 0.500000
O O10 0.720766 0.558013 0.698917
O O11 0.000000 0.563133 0.621642
O O12 0.500000 0.566357 0.171749
O O13 0.735192 0.500000 0.145481
#
# Coordination Sequence:
#
# PCOD9492126 Si02
#       4
#    16  16  16  16
#     4   9  16  27  45  70 102 141 189 247 309 371
#     4  10  22  43  73 106 138 172 212 262 322 391
#     4  10  21  37  57  82 116 162 217 274 328 383
#     4  11  25  43  64  94 133 176 222 273 328 388
#
# _framework density 22.878679000000002
#
# number of rings (size 3 to 8) (size 9 to 14) (size 15 to 20)
#    0.000    2.000    0.000    3.000    0.000   10.000 
#    0.000   10.000    0.000    0.000    0.000    0.000 
#    0.000    0.000    0.000    0.000    0.000    0.000 
#
# Total GULP energy -178276.372377 kJ/mol
# GULP energy per Si atom -5571.136637 kJ/mol
# Density = 2.282661 g / cm^3
# Si number density = 22.878679 Si / 1000 Ang^3
#
#
#
# Elastic Constant Matrix: (Units=GPa)
#
#
# Indices 1 2 3 4 5 6 
#
# 1 114.1342 84.3212 19.1895 0.0000 0.0000 0.0000
# 2 84.3212 254.7306 37.9824 0.0000 0.0000 0.0000
# 3 19.1895 37.9824 77.2499 0.0000 0.0000 0.0000
# 4 0.0000 0.0000 0.0000 -54.7637 0.0000 0.0000
# 5 0.0000 0.0000 0.0000 0.0000 22.5754 0.0000
# 6 0.0000 0.0000 0.0000 0.0000 0.0000 14.8925
#
#
#
# Elastic Compliance Matrix: (Units=1/GPa)
#
#
# Indices 1 2 3 4 5 6 
#
# 1 0.011681 -0.003706 -0.001080 0.000000 0.000000 0.000000
# 2 -0.003706 0.005412 -0.001740 0.000000 0.000000 0.000000
# 3 -0.001080 -0.001740 0.014069 0.000000 0.000000 0.000000
# 4 0.000000 0.000000 0.000000 -0.018260 0.000000 0.000000
# 5 0.000000 0.000000 0.000000 0.000000 0.044296 0.000000
# 6 0.000000 0.000000 0.000000 0.000000 0.000000 0.067148
#
#
# Mechanical properties :
#
#
# Convention : Reuss Voigt Hill
#
# Bulk Modulus (GPa) = 55.21723 81.01122 68.11423
# Shear Modulus (GPa) = 34.85941 16.84895 25.85418
#
# Velocity S-wave (km/s) = 3.90765 2.71670 3.36528
# Velocity P-wave (km/s) = 6.67434 6.73250 6.70348
#
# Compressibility (1/GPa) = 0.01811029
#
# Stress axis : x y z
#
# Youngs Moduli (GPa) = 85.61059 184.77931 71.07870
#
# Poissons Ratio (x) = 0.68472 0.07674
# Poissons Ratio (y) = 0.31724 0.12371
# Poissons Ratio (z) = 0.09243 0.32159
#
# Static dielectric constant tensor:
#      x y z
#    x 1.871760 0.000000 0.000000 
#    y 0.000000 3.385910 0.000000 
#    z 0.000000 0.000000 1.883410 
# 
# From -- ./inp_files/35966.got.cif
#   From: 2010.05.17/outbox.cif.g08.bks.cpg/sg65_18_cif.got.tgz:35966.got - 2010.06.03 17:01:31.
