data_PCOD9492444
_publ_section_title
;
Structure prediction by ZEFSAII (Michael W. Deem and Ramdas Pophale) SiO2 
 PCOD9492444
Probable space group: C M M M
;
_chemical_formula_sum "Si O2"
_cell_formula_units_Z 88
_cell_length_a 8.806650
_cell_length_b 21.381699
_cell_length_c 24.267362
_cell_angle_alpha 90.000000
_cell_angle_beta 90.000000
_cell_angle_gamma 90.000000
_cell_volume 4569.571917
_symmetry_space_group_name_H-M "C M M M"
_symmetry_group_IT_number 65
_symmetry_cell_setting 'orthorhombic'
loop_
_space_group_symop_operation_xyz
x,y,z
-x,-y,z
x,-y,-z
-x,y,-z
-x,-y,-z
x,y,-z
-x,y,z
x,-y,z
1/2+x,1/2+y,z
1/2-x,1/2-y,z
1/2+x,1/2-y,-z
1/2-x,1/2+y,-z
1/2-x,1/2-y,-z
1/2+x,1/2+y,-z
1/2-x,1/2+y,z
1/2+x,1/2-y,z
loop_
_atom_site_type_symbol
_atom_site_label
_atom_site_fract_x
_atom_site_fract_y
_atom_site_fract_z
Si Si1 0.173205 0.500000 0.433308
Si Si2 0.680532 0.367513 0.435270
Si Si3 0.182295 0.429275 0.143808
Si Si4 0.679602 0.185957 0.668687
Si Si5 0.681677 0.429514 0.734556
Si Si6 0.316944 0.816601 0.936160
O O1 0.163470 0.500000 0.500000
O O2 0.263562 0.562753 0.419598
O O3 0.000000 0.500000 0.411844
O O4 0.713853 0.357447 0.500000
O O5 0.500000 0.362568 0.427296
O O6 0.767578 0.321915 0.394499
O O7 0.210677 0.500000 0.122679
O O8 0.266090 0.423103 0.202090
O O9 0.228869 0.374824 0.101856
O O10 0.000000 0.423977 0.152920
O O11 0.500000 0.188178 0.672308
O O12 0.750000 0.250000 0.691309
O O13 0.742559 0.125558 0.700226
O O14 0.500000 0.424848 0.730302
O O15 0.726827 0.500000 0.716378
O O16 0.500000 0.812843 0.934765
O O17 0.250000 0.750000 0.917670
O O18 0.270826 0.826253 0.000000
#
# Coordination Sequence:
#
# PCOD9492444 Si02
#       6
#     8  16  16  16  16  16
#     4   9  17  31  53  83 115 147 187 231 274 325
#     4  10  21  38  60  86 118 154 191 234 286 344
#     4   9  18  34  56  82 112 147 191 240 288 339
#     4  12  26  43  63  87 118 152 193 240 291 351
#     4  10  22  41  64  88 116 151 192 239 293 351
#     4   9  18  32  51  78 113 153 194 236 284 338
#
# _framework density 19.257822000000001
#
# number of rings (size 3 to 8) (size 9 to 14) (size 15 to 20)
#    0.000    2.091    0.000    3.000    1.273    5.455 
#    0.000    3.636    0.000    0.000    0.000    5.091 
#    0.000    0.000    0.000    0.000    0.000    0.000 
#
# Total GULP energy -245772.590447 kJ/mol
# GULP energy per Si atom -5585.740692 kJ/mol
# Density = 1.921399 g / cm^3
# Si number density = 19.257822 Si / 1000 Ang^3
#
#
#
# Elastic Constant Matrix: (Units=GPa)
#
#
# Indices 1 2 3 4 5 6 
#
# 1 86.5096 70.3653 40.5741 0.0000 0.0000 0.0000
# 2 70.3653 177.8185 80.2541 0.0000 0.0000 0.0000
# 3 40.5741 80.2541 69.7508 0.0000 0.0000 0.0000
# 4 0.0000 0.0000 0.0000 15.3885 0.0000 0.0000
# 5 0.0000 0.0000 0.0000 0.0000 25.3775 0.0000
# 6 0.0000 0.0000 0.0000 0.0000 0.0000 32.3634
#
#
#
# Elastic Compliance Matrix: (Units=1/GPa)
#
#
# Indices 1 2 3 4 5 6 
#
# 1 0.017747 -0.004917 -0.004666 0.000000 0.000000 0.000000
# 2 -0.004917 0.013061 -0.012168 0.000000 0.000000 0.000000
# 3 -0.004666 -0.012168 0.031051 0.000000 0.000000 0.000000
# 4 0.000000 0.000000 0.000000 0.064984 0.000000 0.000000
# 5 0.000000 0.000000 0.000000 0.000000 0.039405 0.000000
# 6 0.000000 0.000000 0.000000 0.000000 0.000000 0.030899
#
#
# Mechanical properties :
#
#
# Convention : Reuss Voigt Hill
#
# Bulk Modulus (GPa) = 54.47330 79.60732 67.04031
# Shear Modulus (GPa) = 20.26201 24.15158 22.20680
#
# Velocity S-wave (km/s) = 3.24720 3.54519 3.39946
# Velocity P-wave (km/s) = 6.51205 7.62793 7.09197
#
# Compressibility (1/GPa) = 0.01835762
#
# Stress axis : x y z
#
# Youngs Moduli (GPa) = 56.34684 76.56468 32.20512
#
# Poissons Ratio (x) = 0.37645 0.15028
# Poissons Ratio (y) = 0.27704 0.39186
# Poissons Ratio (z) = 0.26294 0.93160
#
# Static dielectric constant tensor:
#      x y z
#    x 1.645100 0.000000 0.000000 
#    y 0.000000 1.681110 0.000000 
#    z 0.000000 0.000000 1.671930 
# 
# From -- ./inp_files/67467.got.cif
#   From: 2010.05.17/outbox.cif.g08.bks.cpg/sg65_34_cif.got.tgz:67467.got - 2010.06.03 17:01:31.
