data_PCOD9492199
_publ_section_title
;
Structure prediction by ZEFSAII (Michael W. Deem and Ramdas Pophale) SiO2 
 PCOD9492199
Probable space group: C M M M
;
_chemical_formula_sum "Si O2"
_cell_formula_units_Z 50
_cell_length_a 25.283523
_cell_length_b 11.204039
_cell_length_c 7.471403
_cell_angle_alpha 90.000000
_cell_angle_beta 90.000000
_cell_angle_gamma 90.000000
_cell_volume 2116.480944
_symmetry_space_group_name_H-M "C M M M"
_symmetry_group_IT_number 65
_symmetry_cell_setting 'orthorhombic'
loop_
_space_group_symop_operation_xyz
x,y,z
-x,-y,z
x,-y,-z
-x,y,-z
-x,-y,-z
x,y,-z
-x,y,z
x,-y,z
1/2+x,1/2+y,z
1/2-x,1/2-y,z
1/2+x,1/2-y,-z
1/2-x,1/2+y,-z
1/2-x,1/2-y,-z
1/2+x,1/2+y,-z
1/2-x,1/2+y,z
1/2+x,1/2-y,z
loop_
_atom_site_type_symbol
_atom_site_label
_atom_site_fract_x
_atom_site_fract_y
_atom_site_fract_z
Si Si1 0.720042 0.130236 0.219184
Si Si2 0.402981 0.500000 0.781642
Si Si3 0.614624 0.238783 0.211711
Si Si4 0.000000 0.634073 0.711494
Si Si5 0.500000 0.500000 0.500000
O O1 0.750000 0.250000 0.276257
O O2 0.659168 0.149204 0.279605
O O3 0.739543 0.000000 0.277502
O O4 0.722627 0.129013 0.000000
O O5 0.374632 0.375587 0.736667
O O6 0.454537 0.500000 0.658303
O O7 0.413266 0.500000 0.000000
O O8 0.554029 0.203071 0.246210
O O9 0.620415 0.235215 0.000000
O O10 0.000000 0.500000 0.789987
O O11 0.000000 0.623380 0.500000
#
# Coordination Sequence:
#
# PCOD9492199 Si02
#       5
#    16   8  16   8   2
#     4   9  18  32  56  87 119 156 199 250 311 375
#     4  10  23  37  57  92 127 163 208 258 310 369
#     4  10  21  37  58  85 120 155 198 250 304 369
#     4  11  24  38  55  81 113 153 198 248 301 368
#     4  12  22  36  60  86 126 180 210 260 306 380
#
# _framework density 23.624120999999999
#
# number of rings (size 3 to 8) (size 9 to 14) (size 15 to 20)
#    0.000    2.080    0.000    2.640    6.720    5.120 
#    0.000    0.000    0.000    0.960    0.000    0.000 
#    0.000    0.000    0.000    0.000    0.000    0.320 
#
# Total GULP energy -139301.241654 kJ/mol
# GULP energy per Si atom -5572.049666 kJ/mol
# Density = 2.357035 g / cm^3
# Si number density = 23.624121 Si / 1000 Ang^3
#
#
#
# Elastic Constant Matrix: (Units=GPa)
#
#
# Indices 1 2 3 4 5 6 
#
# 1 90.9255 72.9573 -18.0712 0.0000 0.0000 0.0000
# 2 72.9573 225.9260 9.8787 0.0000 0.0000 0.0000
# 3 -18.0712 9.8787 60.2416 0.0000 0.0000 0.0000
# 4 0.0000 0.0000 0.0000 4.6353 0.0000 0.0000
# 5 0.0000 0.0000 0.0000 0.0000 18.0167 0.0000
# 6 0.0000 0.0000 0.0000 0.0000 0.0000 -0.9007
#
#
#
# Elastic Compliance Matrix: (Units=1/GPa)
#
#
# Indices 1 2 3 4 5 6 
#
# 1 0.016720 -0.005659 0.005944 0.000000 0.000000 0.000000
# 2 -0.005659 0.006374 -0.002743 0.000000 0.000000 0.000000
# 3 0.005944 -0.002743 0.018833 0.000000 0.000000 0.000000
# 4 0.000000 0.000000 0.000000 0.215735 0.000000 0.000000
# 5 0.000000 0.000000 0.000000 0.000000 0.055504 0.000000
# 6 0.000000 0.000000 0.000000 0.000000 0.000000 -1.110287
#
#
# Mechanical properties :
#
#
# Convention : Reuss Voigt Hill
#
# Bulk Modulus (GPa) = 27.01985 56.29140 41.65562
# Shear Modulus (GPa) = -6.41134 25.17215 9.38040
#
# Velocity S-wave (km/s) = -1.64918 3.26778 1.99482
# Velocity P-wave (km/s) = 2.79926 6.17394 4.79340
#
# Compressibility (1/GPa) = 0.03700983
#
# Stress axis : x y z
#
# Youngs Moduli (GPa) = 59.80766 156.89493 53.09933
#
# Poissons Ratio (x) = 0.88791 -0.31561
# Poissons Ratio (y) = 0.33847 0.14564
# Poissons Ratio (z) = -0.35548 0.43034
#
# Static dielectric constant tensor:
#      x y z
#    x 1.723720 0.000000 0.000000 
#    y 0.000000 1.967260 0.000000 
#    z 0.000000 0.000000 1.882070 
# 
# From -- ./inp_files/15365.got.cif
#   From: 2010.05.17/outbox.cif.g08.bks.cpg/sg65_8_cif.got.tgz:15365.got - 2010.06.03 17:01:31.
