data_PCOD9492190
_publ_section_title
;
Structure prediction by ZEFSAII (Michael W. Deem and Ramdas Pophale) SiO2 
 PCOD9492190
Probable space group: C M M M
;
_chemical_formula_sum "Si O2"
_cell_formula_units_Z 88
_cell_length_a 21.559815
_cell_length_b 8.505495
_cell_length_c 24.658232
_cell_angle_alpha 90.000000
_cell_angle_beta 90.000000
_cell_angle_gamma 90.000000
_cell_volume 4521.750111
_symmetry_space_group_name_H-M "C M M M"
_symmetry_group_IT_number 65
_symmetry_cell_setting 'orthorhombic'
loop_
_space_group_symop_operation_xyz
x,y,z
-x,-y,z
x,-y,-z
-x,y,-z
-x,-y,-z
x,y,-z
-x,y,z
x,-y,z
1/2+x,1/2+y,z
1/2-x,1/2-y,z
1/2+x,1/2-y,-z
1/2-x,1/2+y,-z
1/2-x,1/2-y,-z
1/2+x,1/2+y,-z
1/2-x,1/2+y,z
1/2+x,1/2-y,z
loop_
_atom_site_type_symbol
_atom_site_label
_atom_site_fract_x
_atom_site_fract_y
_atom_site_fract_z
Si Si1 0.930147 0.311554 0.634669
Si Si2 0.000000 0.321552 0.934296
Si Si3 0.366999 0.311333 0.938856
Si Si4 0.314877 0.689919 0.828585
Si Si5 0.431095 0.309871 0.242761
Si Si6 0.182922 0.188217 0.437074
O O1 0.927743 0.500000 0.635171
O O2 0.922994 0.249349 0.695953
O O3 0.874909 0.248246 0.597619
O O4 0.000000 0.264115 0.616318
O O5 0.063190 0.232464 0.920903
O O6 0.000000 0.500000 0.913734
O O7 0.000000 0.328125 0.000000
O O8 0.362920 0.500000 0.941358
O O9 0.323122 0.254074 0.890780
O O10 0.355474 0.249753 0.000000
O O11 0.314705 0.500000 0.828513
O O12 0.250000 0.750000 0.806027
O O13 0.374433 0.743883 0.794488
O O14 0.500000 0.259941 0.223700
O O15 0.430292 0.500000 0.243091
O O16 0.176135 0.239365 0.500000
O O17 0.250000 0.250000 0.417588
O O18 0.183956 0.000000 0.435474
#
# Coordination Sequence:
#
# PCOD9492190 Si02
#       6
#    16   8  16  16  16  16
#     4  10  21  37  58  85 116 149 188 234 282 333
#     4   9  17  29  47  75 105 131 165 211 260 307
#     4   9  18  33  53  76 104 140 179 217 263 326
#     4  10  22  37  55  79 108 141 180 224 274 330
#     4   9  19  37  59  79 103 141 187 233 278 329
#     4  10  21  37  58  85 118 156 196 235 277 328
#
# _framework density 19.461490999999999
#
# number of rings (size 3 to 8) (size 9 to 14) (size 15 to 20)
#    0.000    2.455    0.000    1.364    1.273    6.182 
#    0.000    3.636    0.000    0.000    0.000    0.000 
#    0.000    0.000    0.000    0.000    0.000    0.000 
#
# Total GULP energy -245500.381134 kJ/mol
# GULP energy per Si atom -5579.554117 kJ/mol
# Density = 1.941720 g / cm^3
# Si number density = 19.461491 Si / 1000 Ang^3
#
#
#
# Elastic Constant Matrix: (Units=GPa)
#
#
# Indices 1 2 3 4 5 6 
#
# 1 187.5698 25.3434 90.9984 0.0000 0.0000 0.0000
# 2 25.3434 12.8767 16.9640 0.0000 0.0000 0.0000
# 3 90.9984 16.9640 77.2648 0.0000 0.0000 0.0000
# 4 0.0000 0.0000 0.0000 12.1057 0.0000 0.0000
# 5 0.0000 0.0000 0.0000 0.0000 13.9272 0.0000
# 6 0.0000 0.0000 0.0000 0.0000 0.0000 26.8065
#
#
#
# Elastic Compliance Matrix: (Units=1/GPa)
#
#
# Indices 1 2 3 4 5 6 
#
# 1 0.012945 -0.007587 -0.013580 0.000000 0.000000 0.000000
# 2 -0.007587 0.113711 -0.016031 0.000000 0.000000 0.000000
# 3 -0.013580 -0.016031 0.032456 0.000000 0.000000 0.000000
# 4 0.000000 0.000000 0.000000 0.082606 0.000000 0.000000
# 5 0.000000 0.000000 0.000000 0.000000 0.071802 0.000000
# 6 0.000000 0.000000 0.000000 0.000000 0.000000 0.037304
#
#
# Mechanical properties :
#
#
# Convention : Reuss Voigt Hill
#
# Bulk Modulus (GPa) = 11.80408 60.48034 36.14221
# Shear Modulus (GPa) = 11.02644 20.19492 15.61068
#
# Velocity S-wave (km/s) = 2.38287 3.22481 2.83527
# Velocity P-wave (km/s) = 3.69449 6.70897 5.41570
#
# Compressibility (1/GPa) = 0.08471645
#
# Stress axis : x y z
#
# Youngs Moduli (GPa) = 77.25274 8.79426 30.81137
#
# Poissons Ratio (x) = 0.06672 0.41841
# Poissons Ratio (y) = 0.58610 0.49393
# Poissons Ratio (z) = 1.04907 0.14098
#
# Static dielectric constant tensor:
#      x y z
#    x 1.678740 0.000000 0.000000 
#    y 0.000000 1.666570 0.000000 
#    z 0.000000 0.000000 1.682700 
# 
# From -- ./inp_files/67521.got.cif
#   From: 2010.05.17/outbox.cif.g08.bks.cpg/sg65_34_cif.got.tgz:67521.got - 2010.06.03 17:01:31.
