data_PCOD9492550
_publ_section_title
;
Structure prediction by ZEFSAII (Michael W. Deem and Ramdas Pophale) SiO2 
 PCOD9492550
Probable space group: C M M M
;
_chemical_formula_sum "Si O2"
_cell_formula_units_Z 112
_cell_length_a 25.578171
_cell_length_b 15.983702
_cell_length_c 13.797761
_cell_angle_alpha 90.000000
_cell_angle_beta 90.000000
_cell_angle_gamma 90.000000
_cell_volume 5640.991930
_symmetry_space_group_name_H-M "C M M M"
_symmetry_group_IT_number 65
_symmetry_cell_setting 'orthorhombic'
loop_
_space_group_symop_operation_xyz
x,y,z
-x,-y,z
x,-y,-z
-x,y,-z
-x,-y,-z
x,y,-z
-x,y,z
x,-y,z
1/2+x,1/2+y,z
1/2-x,1/2-y,z
1/2+x,1/2-y,-z
1/2-x,1/2+y,-z
1/2-x,1/2-y,-z
1/2+x,1/2+y,-z
1/2-x,1/2+y,z
1/2+x,1/2-y,z
loop_
_atom_site_type_symbol
_atom_site_label
_atom_site_fract_x
_atom_site_fract_y
_atom_site_fract_z
Si Si1 0.589310 0.746299 0.113344
Si Si2 0.348669 0.664258 0.612448
Si Si3 0.939386 0.096510 0.743114
Si Si4 0.255057 0.904026 0.703110
Si Si5 0.941693 0.591780 0.226023
Si Si6 0.138630 0.636900 0.608048
Si Si7 0.204096 0.317242 0.892597
O O1 0.572394 0.665529 0.174456
O O2 0.563127 0.830792 0.153348
O O3 0.650762 0.766980 0.126978
O O4 0.578786 0.733992 0.000000
O O5 0.340220 0.640626 0.500000
O O6 0.397049 0.615021 0.659645
O O7 0.295506 0.648968 0.672486
O O8 0.361999 0.762494 0.615989
O O9 0.000000 0.107060 0.711779
O O10 0.933290 0.000000 0.776039
O O11 0.302047 0.891045 0.627556
O O12 0.280366 0.878249 0.805848
O O13 0.238468 0.000000 0.705284
O O14 0.934592 0.500000 0.179411
O O15 0.899003 0.601730 0.309673
O O16 0.000000 0.594714 0.268540
O O17 0.122329 0.612538 0.500000
O O18 0.250000 0.250000 0.896425
O O19 0.199035 0.356841 0.000000
#
# Coordination Sequence:
#
# PCOD9492550 Si02
#       7
#    16  16  16  16  16  16  16
#     4  11  23  42  68  95 130 171 213 266 324 384
#     4  11  24  42  65  93 126 169 220 269 322 385
#     4  11  24  42  65  94 130 172 219 270 323 383
#     4  12  23  37  61  92 130 167 207 266 322 378
#     4  11  24  42  64  93 129 166 211 267 322 382
#     4  11  23  40  64  91 123 168 217 263 320 387
#     4  10  21  38  62  90 123 165 210 258 318 381
#
# _framework density 19.854665000000001
#
# number of rings (size 3 to 8) (size 9 to 14) (size 15 to 20)
#    0.000    1.000    2.857    3.857    0.000    6.571 
#    0.000    5.714    0.000    4.286    0.000    0.000 
#    0.000    0.000    0.000    0.000    0.000    0.000 
#
# Total GULP energy -312965.054465 kJ/mol
# GULP energy per Si atom -5588.661687 kJ/mol
# Density = 1.980947 g / cm^3
# Si number density = 19.854665 Si / 1000 Ang^3
#
#
#
# Elastic Constant Matrix: (Units=GPa)
#
#
# Indices 1 2 3 4 5 6 
#
# 1 119.0382 16.5742 19.6031 0.0000 0.0000 0.0000
# 2 16.5742 100.7411 25.7163 0.0000 0.0000 0.0000
# 3 19.6031 25.7163 83.3553 0.0000 0.0000 0.0000
# 4 0.0000 0.0000 0.0000 -2.6240 0.0000 0.0000
# 5 0.0000 0.0000 0.0000 0.0000 28.2935 0.0000
# 6 0.0000 0.0000 0.0000 0.0000 0.0000 26.2993
#
#
#
# Elastic Compliance Matrix: (Units=1/GPa)
#
#
# Indices 1 2 3 4 5 6 
#
# 1 0.008831 -0.001002 -0.001768 0.000000 0.000000 0.000000
# 2 -0.001002 0.010889 -0.003124 0.000000 0.000000 0.000000
# 3 -0.001768 -0.003124 0.013376 0.000000 0.000000 0.000000
# 4 0.000000 0.000000 0.000000 -0.381097 0.000000 0.000000
# 5 0.000000 0.000000 0.000000 0.000000 0.035344 0.000000
# 6 0.000000 0.000000 0.000000 0.000000 0.000000 0.038024
#
#
# Mechanical properties :
#
#
# Convention : Reuss Voigt Hill
#
# Bulk Modulus (GPa) = 46.92702 47.43577 47.18139
# Shear Modulus (GPa) = -19.55086 26.47648 3.46281
#
# Velocity S-wave (km/s) = -3.14140 3.65569 1.32207
# Velocity P-wave (km/s) = 3.24480 6.46236 5.11326
#
# Compressibility (1/GPa) = 0.02130968
#
# Stress axis : x y z
#
# Youngs Moduli (GPa) = 113.23411 91.83894 74.75900
#
# Poissons Ratio (x) = 0.09199 0.13216
# Poissons Ratio (y) = 0.11342 0.23353
# Poissons Ratio (z) = 0.20018 0.28688
#
# Static dielectric constant tensor:
#      x y z
#    x 1.700700 0.000000 0.000000 
#    y 0.000000 1.697530 0.000000 
#    z 0.000000 0.000000 1.708400 
# 
# From -- ./inp_files/40876.got.cif
#   From: 2010.05.17/outbox.cif.g08.bks.cpg/sg65_21_cif.got.tgz:40876.got - 2010.06.03 17:01:31.
