data_PCOD9492055
_publ_section_title
;
Structure prediction by ZEFSAII (Michael W. Deem and Ramdas Pophale) SiO2 
 PCOD9492055
Probable space group: C M M M
;
_chemical_formula_sum "Si O2"
_cell_formula_units_Z 96
_cell_length_a 8.795827
_cell_length_b 26.192567
_cell_length_c 23.837913
_cell_angle_alpha 90.000000
_cell_angle_beta 90.000000
_cell_angle_gamma 90.000000
_cell_volume 5491.904452
_symmetry_space_group_name_H-M "C M M M"
_symmetry_group_IT_number 65
_symmetry_cell_setting 'orthorhombic'
loop_
_space_group_symop_operation_xyz
x,y,z
-x,-y,z
x,-y,-z
-x,y,-z
-x,-y,-z
x,y,-z
-x,y,z
x,-y,z
1/2+x,1/2+y,z
1/2-x,1/2-y,z
1/2+x,1/2-y,-z
1/2-x,1/2+y,-z
1/2-x,1/2-y,-z
1/2+x,1/2+y,-z
1/2-x,1/2+y,z
1/2+x,1/2-y,z
loop_
_atom_site_type_symbol
_atom_site_label
_atom_site_fract_x
_atom_site_fract_y
_atom_site_fract_z
Si Si1 0.316276 0.500000 0.137624
Si Si2 0.681888 0.939511 0.564464
Si Si3 0.681763 0.000000 0.261670
Si Si4 0.180946 0.098501 0.324216
Si Si5 0.816765 0.900825 0.935297
Si Si6 0.681347 0.195000 0.128751
Si Si7 0.817727 0.305389 0.260268
O O1 0.500000 0.500000 0.145785
O O2 0.235107 0.500000 0.197355
O O3 0.275178 0.550168 0.102021
O O4 0.718923 0.926436 0.500000
O O5 0.500000 0.933262 0.571956
O O6 0.769905 0.908068 0.611187
O O7 0.714399 0.000000 0.572114
O O8 0.747260 0.050204 0.291777
O O9 0.500000 0.000000 0.265974
O O10 0.246811 0.149925 0.297285
O O11 0.000000 0.097234 0.318547
O O12 0.747058 0.850067 0.908826
O O13 0.000000 0.896826 0.933970
O O14 0.770505 0.907592 0.000000
O O15 0.500000 0.196998 0.123764
O O16 0.750000 0.250000 0.113537
O O17 0.719177 0.185203 0.194411
O O18 0.750000 0.250000 0.274800
O O19 0.000000 0.304840 0.265961
#
# Coordination Sequence:
#
# PCOD9492055 Si02
#       7
#     8  16   8  16  16  16  16
#     4  10  21  38  58  79 107 142 181 222 269 329
#     4   9  18  34  56  81 113 153 191 229 277 327
#     4  12  24  37  54  80 114 148 183 227 281 332
#     4  12  23  35  55  85 117 149 188 231 276 329
#     4  10  21  37  57  80 107 141 179 220 268 325
#     4  10  21  37  58  82 107 138 177 224 277 327
#     4  10  21  38  59  83 112 147 186 229 278 332
#
# _framework density 17.480276
#
# number of rings (size 3 to 8) (size 9 to 14) (size 15 to 20)
#    0.000    1.667    0.833    5.000    0.000    7.333 
#    0.000    0.833    0.000    2.000    0.000    0.000 
#    0.000    0.000    0.000    0.000    0.000    0.000 
#
# Total GULP energy -268250.378742 kJ/mol
# GULP energy per Si atom -5588.549557 kJ/mol
# Density = 1.744049 g / cm^3
# Si number density = 17.480276 Si / 1000 Ang^3
#
#
#
# Elastic Constant Matrix: (Units=GPa)
#
#
# Indices 1 2 3 4 5 6 
#
# 1 68.8074 47.8194 55.2604 0.0000 0.0000 0.0000
# 2 47.8194 116.3086 75.1126 0.0000 0.0000 0.0000
# 3 55.2604 75.1126 118.1060 0.0000 0.0000 0.0000
# 4 0.0000 0.0000 0.0000 -15.9959 0.0000 0.0000
# 5 0.0000 0.0000 0.0000 0.0000 29.5030 0.0000
# 6 0.0000 0.0000 0.0000 0.0000 0.0000 29.0573
#
#
#
# Elastic Compliance Matrix: (Units=1/GPa)
#
#
# Indices 1 2 3 4 5 6 
#
# 1 0.024626 -0.004554 -0.008626 0.000000 0.000000 0.000000
# 2 -0.004554 0.015432 -0.007684 0.000000 0.000000 0.000000
# 3 -0.008626 -0.007684 0.017390 0.000000 0.000000 0.000000
# 4 0.000000 0.000000 0.000000 -0.062516 0.000000 0.000000
# 5 0.000000 0.000000 0.000000 0.000000 0.033895 0.000000
# 6 0.000000 0.000000 0.000000 0.000000 0.000000 0.034415
#
#
# Mechanical properties :
#
#
# Convention : Reuss Voigt Hill
#
# Bulk Modulus (GPa) = 63.61187 73.28965 68.45076
# Shear Modulus (GPa) = 45.36820 16.84820 31.10820
#
# Velocity S-wave (km/s) = 5.10003 3.10795 4.22313
# Velocity P-wave (km/s) = 8.43505 7.40926 7.93874
#
# Compressibility (1/GPa) = 0.01572034
#
# Stress axis : x y z
#
# Youngs Moduli (GPa) = 40.60767 64.79834 57.50550
#
# Poissons Ratio (x) = 0.29510 0.49603
# Poissons Ratio (y) = 0.18493 0.44186
# Poissons Ratio (z) = 0.35027 0.49790
#
# Static dielectric constant tensor:
#      x y z
#    x 1.580990 0.000000 0.000000 
#    y 0.000000 1.556450 0.000000 
#    z 0.000000 0.000000 1.587410 
# 
# From -- ./inp_files/67874.got.cif
#   From: 2010.05.17/outbox.cif.g08.bks.cpg/sg65_34_cif.got.tgz:67874.got - 2010.06.03 17:01:31.
