data_PCOD9492450
_publ_section_title
;
Structure prediction by ZEFSAII (Michael W. Deem and Ramdas Pophale) SiO2 
 PCOD9492450
Probable space group: C M M M
;
_chemical_formula_sum "Si O2"
_cell_formula_units_Z 64
_cell_length_a 18.709792
_cell_length_b 8.730197
_cell_length_c 21.004504
_cell_angle_alpha 90.000000
_cell_angle_beta 90.000000
_cell_angle_gamma 90.000000
_cell_volume 3430.879254
_symmetry_space_group_name_H-M "C M M M"
_symmetry_group_IT_number 65
_symmetry_cell_setting 'orthorhombic'
loop_
_space_group_symop_operation_xyz
x,y,z
-x,-y,z
x,-y,-z
-x,y,-z
-x,-y,-z
x,y,-z
-x,y,z
x,-y,z
1/2+x,1/2+y,z
1/2-x,1/2-y,z
1/2+x,1/2-y,-z
1/2-x,1/2+y,-z
1/2-x,1/2-y,-z
1/2+x,1/2+y,-z
1/2-x,1/2+y,z
1/2+x,1/2-y,z
loop_
_atom_site_type_symbol
_atom_site_label
_atom_site_fract_x
_atom_site_fract_y
_atom_site_fract_z
Si Si1 0.417970 0.686390 0.000000
Si Si2 0.670411 0.315730 0.875056
Si Si3 0.829371 0.317383 0.500000
Si Si4 0.415964 0.816731 0.243362
Si Si5 0.915427 0.182609 0.618464
O O1 0.375615 0.733389 0.063293
O O2 0.419550 0.500000 0.000000
O O3 0.500000 0.739989 0.000000
O O4 0.673110 0.500000 0.873860
O O5 0.750000 0.250000 0.879344
O O6 0.631405 0.255582 0.811955
O O7 0.826955 0.500000 0.500000
O O8 0.750000 0.250000 0.500000
O O9 0.870833 0.258208 0.562250
O O10 0.500000 0.780065 0.232390
O O11 0.396405 0.750343 0.312527
O O12 0.408233 0.000000 0.243691
O O13 0.000000 0.212193 0.608296
O O14 0.904601 0.000000 0.618316
#
# Coordination Sequence:
#
# PCOD9492450 Si02
#       5
#     8  16   8  16  16
#     4   9  19  36  59  85 112 147 192 239 286 340
#     4  11  22  37  58  84 117 154 192 235 286 343
#     4  12  25  40  59  85 119 155 193 238 289 342
#     4  10  21  38  60  87 117 149 190 238 286 339
#     4  10  21  39  63  89 117 151 192 236 284 341
#
# _framework density 18.654109999999999
#
# number of rings (size 3 to 8) (size 9 to 14) (size 15 to 20)
#    0.000    1.625    0.000    4.875    0.000    6.500 
#    0.000    6.875    0.000    4.500    0.000    0.000 
#    0.000    0.000    0.000    0.000    0.000    0.000 
#
# Total GULP energy -178920.887227 kJ/mol
# GULP energy per Si atom -5591.277726 kJ/mol
# Density = 1.861165 g / cm^3
# Si number density = 18.654110 Si / 1000 Ang^3
#
#
#
# Elastic Constant Matrix: (Units=GPa)
#
#
# Indices 1 2 3 4 5 6 
#
# 1 150.9459 74.5453 138.8963 0.0000 0.0000 0.0000
# 2 74.5453 86.4884 80.5644 0.0000 0.0000 0.0000
# 3 138.8963 80.5644 212.2711 0.0000 0.0000 0.0000
# 4 0.0000 0.0000 0.0000 25.8372 0.0000 0.0000
# 5 0.0000 0.0000 0.0000 0.0000 -52.6206 0.0000
# 6 0.0000 0.0000 0.0000 0.0000 0.0000 27.6219
#
#
#
# Elastic Compliance Matrix: (Units=1/GPa)
#
#
# Indices 1 2 3 4 5 6 
#
# 1 0.019403 -0.007575 -0.009821 0.000000 0.000000 0.000000
# 2 -0.007575 0.020843 -0.002954 0.000000 0.000000 0.000000
# 3 -0.009821 -0.002954 0.012258 0.000000 0.000000 0.000000
# 4 0.000000 0.000000 0.000000 0.038704 0.000000 0.000000
# 5 0.000000 0.000000 0.000000 0.000000 -0.019004 0.000000
# 6 0.000000 0.000000 0.000000 0.000000 0.000000 0.036203
#
#
# Mechanical properties :
#
#
# Convention : Reuss Voigt Hill
#
# Bulk Modulus (GPa) = 84.71732 115.30193 100.00962
# Shear Modulus (GPa) = 32.67074 10.54767 21.60921
#
# Velocity S-wave (km/s) = 4.18951 2.38047 3.40724
# Velocity P-wave (km/s) = 8.30157 8.33667 8.31914
#
# Compressibility (1/GPa) = 0.01180396
#
# Stress axis : x y z
#
# Youngs Moduli (GPa) = 51.53860 47.97752 81.57819
#
# Poissons Ratio (x) = 0.36345 0.80117
# Poissons Ratio (y) = 0.39043 0.24097
# Poissons Ratio (z) = 0.50615 0.14172
#
# Static dielectric constant tensor:
#      x y z
#    x 1.619440 0.000000 0.000000 
#    y 0.000000 1.621930 0.000000 
#    z 0.000000 0.000000 1.607460 
# 
# From -- ./inp_files/63286.got.cif
#   From: 2010.05.17/outbox.cif.g08.bks.cpg/sg65_32_cif.got.tgz:63286.got - 2010.06.03 17:01:31.
