data_PCOD9492260
_publ_section_title
;
Structure prediction by ZEFSAII (Michael W. Deem and Ramdas Pophale) SiO2 
 PCOD9492260
Probable space group: C M M M
;
_chemical_formula_sum "Si O2"
_cell_formula_units_Z 120
_cell_length_a 14.361163
_cell_length_b 23.390267
_cell_length_c 19.136102
_cell_angle_alpha 90.000000
_cell_angle_beta 90.000000
_cell_angle_gamma 90.000000
_cell_volume 6428.035521
_symmetry_space_group_name_H-M "C M M M"
_symmetry_group_IT_number 65
_symmetry_cell_setting 'orthorhombic'
loop_
_space_group_symop_operation_xyz
x,y,z
-x,-y,z
x,-y,-z
-x,y,-z
-x,-y,-z
x,y,-z
-x,y,z
x,-y,z
1/2+x,1/2+y,z
1/2-x,1/2-y,z
1/2+x,1/2-y,-z
1/2-x,1/2+y,-z
1/2-x,1/2-y,-z
1/2+x,1/2+y,-z
1/2-x,1/2+y,z
1/2+x,1/2-y,z
loop_
_atom_site_type_symbol
_atom_site_label
_atom_site_fract_x
_atom_site_fract_y
_atom_site_fract_z
Si Si1 0.111849 0.711228 0.580380
Si Si2 0.108275 0.832698 0.647540
Si Si3 0.389284 0.107503 0.081419
Si Si4 0.612983 0.240305 0.921206
Si Si5 0.790559 0.606676 0.348710
Si Si6 0.890255 0.835368 0.188048
Si Si7 0.746540 0.065771 0.804897
Si Si8 0.892719 0.500000 0.583333
O O1 0.140933 0.701586 0.500000
O O2 0.131637 0.776013 0.603797
O O3 0.158961 0.665617 0.631179
O O4 0.000000 0.704054 0.583977
O O5 0.182102 0.882524 0.632760
O O6 0.118776 0.818863 0.730219
O O7 0.000000 0.847692 0.635122
O O8 0.500000 0.101823 0.093788
O O9 0.362564 0.174321 0.092183
O O10 0.329248 0.070814 0.134265
O O11 0.372352 0.093851 0.000000
O O12 0.500000 0.241114 0.920817
O O13 0.643997 0.285006 0.862870
O O14 0.642272 0.256340 0.000000
O O15 0.794937 0.590838 0.267168
O O16 0.839431 0.555880 0.390107
O O17 0.832709 0.893115 0.176773
O O18 0.000000 0.844548 0.174817
O O19 0.773800 0.000000 0.793883
O O20 0.894505 0.500000 0.500000
O O21 0.000000 0.500000 0.608647
#
# Coordination Sequence:
#
# PCOD9492260 Si02
#       8
#    16  16  16  16  16  16  16   8
#     4  10  21  37  59  88 118 148 183 227 287 352
#     4   9  20  37  58  85 117 152 187 227 280 345
#     4   9  20  38  58  82 114 150 184 225 280 337
#     4   8  15  31  56  85 113 141 178 223 277 337
#     4  11  22  39  58  83 116 151 192 237 285 333
#     4   9  19  36  58  82 111 146 183 229 282 332
#     4  11  24  39  54  80 111 147 196 238 273 321
#     4  11  24  42  63  85 112 148 191 238 285 335
#
# _framework density 18.668222
#
# number of rings (size 3 to 8) (size 9 to 14) (size 15 to 20)
#    0.000    2.333    0.667    2.000    1.867    5.600 
#    0.000    2.333    0.000    0.400    0.000    2.800 
#    0.000    0.000    0.000    0.000    0.000    0.000 
#
# Total GULP energy -334956.740120 kJ/mol
# GULP energy per Si atom -5582.612335 kJ/mol
# Density = 1.862573 g / cm^3
# Si number density = 18.668222 Si / 1000 Ang^3
#
#
#
# Elastic Constant Matrix: (Units=GPa)
#
#
# Indices 1 2 3 4 5 6 
#
# 1 67.9100 35.7042 31.2726 0.0000 0.0000 0.0000
# 2 35.7042 71.0598 34.9898 0.0000 0.0000 0.0000
# 3 31.2726 34.9898 45.7337 0.0000 0.0000 0.0000
# 4 0.0000 0.0000 0.0000 25.4550 0.0000 0.0000
# 5 0.0000 0.0000 0.0000 0.0000 19.7869 0.0000
# 6 0.0000 0.0000 0.0000 0.0000 0.0000 21.6832
#
#
#
# Elastic Compliance Matrix: (Units=1/GPa)
#
#
# Indices 1 2 3 4 5 6 
#
# 1 0.023045 -0.006128 -0.011069 0.000000 0.000000 0.000000
# 2 -0.006128 0.024208 -0.014331 0.000000 0.000000 0.000000
# 3 -0.011069 -0.014331 0.040399 0.000000 0.000000 0.000000
# 4 0.000000 0.000000 0.000000 0.039285 0.000000 0.000000
# 5 0.000000 0.000000 0.000000 0.000000 0.050538 0.000000
# 6 0.000000 0.000000 0.000000 0.000000 0.000000 0.046119
#
#
# Mechanical properties :
#
#
# Convention : Reuss Voigt Hill
#
# Bulk Modulus (GPa) = 40.65805 43.18185 41.91995
# Shear Modulus (GPa) = 16.95782 18.90081 17.92932
#
# Velocity S-wave (km/s) = 3.01720 3.18537 3.10243
# Velocity P-wave (km/s) = 5.82791 6.05889 5.94453
#
# Compressibility (1/GPa) = 0.02459537
#
# Stress axis : x y z
#
# Youngs Moduli (GPa) = 43.39357 41.30828 24.75319
#
# Poissons Ratio (x) = 0.25316 0.27400
# Poissons Ratio (y) = 0.26593 0.35473
# Poissons Ratio (z) = 0.48034 0.59197
#
# Static dielectric constant tensor:
#      x y z
#    x 1.669180 0.000000 0.000000 
#    y 0.000000 1.614790 0.000000 
#    z 0.000000 0.000000 1.635810 
# 
# From -- ./inp_files/63035.got.cif
#   From: 2010.05.17/outbox.cif.g08.bks.cpg/sg65_32_cif.got.tgz:63035.got - 2010.06.03 17:01:31.
