data_PCOD9492154
_publ_section_title
;
Structure prediction by ZEFSAII (Michael W. Deem and Ramdas Pophale) SiO2 
 PCOD9492154
Probable space group: C M M M
;
_chemical_formula_sum "Si O2"
_cell_formula_units_Z 104
_cell_length_a 8.738327
_cell_length_b 27.444396
_cell_length_c 21.375161
_cell_angle_alpha 90.000000
_cell_angle_beta 90.000000
_cell_angle_gamma 90.000000
_cell_volume 5126.150639
_symmetry_space_group_name_H-M "C M M M"
_symmetry_group_IT_number 65
_symmetry_cell_setting 'orthorhombic'
loop_
_space_group_symop_operation_xyz
x,y,z
-x,-y,z
x,-y,-z
-x,y,-z
-x,-y,-z
x,y,-z
-x,y,z
x,-y,z
1/2+x,1/2+y,z
1/2-x,1/2-y,z
1/2+x,1/2-y,-z
1/2-x,1/2+y,-z
1/2-x,1/2-y,-z
1/2+x,1/2+y,-z
1/2-x,1/2+y,z
1/2+x,1/2-y,z
loop_
_atom_site_type_symbol
_atom_site_label
_atom_site_fract_x
_atom_site_fract_y
_atom_site_fract_z
Si Si1 0.817258 0.597612 0.245251
Si Si2 0.315122 0.159992 0.070067
Si Si3 0.682738 0.597345 0.625802
Si Si4 0.317913 0.698354 0.197148
Si Si5 0.816308 0.801507 0.572527
Si Si6 0.172416 0.557673 0.500000
Si Si7 0.814699 0.446456 0.113057
O O1 0.757577 0.577962 0.311064
O O2 0.746852 0.651123 0.233033
O O3 0.775527 0.564381 0.185572
O O4 0.000000 0.601716 0.246011
O O5 0.500000 0.162604 0.079512
O O6 0.234100 0.189286 0.125238
O O7 0.269394 0.102781 0.076990
O O8 0.280187 0.176850 0.000000
O O9 0.500000 0.594404 0.630215
O O10 0.729389 0.653857 0.615967
O O11 0.739202 0.572666 0.562418
O O12 0.500000 0.699242 0.202157
O O13 0.250000 0.750000 0.218588
O O14 0.768042 0.810620 0.500000
O O15 0.750000 0.750000 0.592407
O O16 0.000000 0.799118 0.572397
O O17 0.160766 0.500000 0.500000
O O18 0.000000 0.578746 0.500000
O O19 0.757901 0.500000 0.093350
O O20 0.000000 0.447940 0.108389
#
# Coordination Sequence:
#
# PCOD9492154 Si02
#       7
#    16  16  16  16  16   8  16
#     4  10  21  37  57  84 115 148 189 235 282 337
#     4   9  18  33  54  83 117 150 188 234 283 339
#     4  11  22  39  60  84 115 149 187 233 288 346
#     4  11  22  38  59  82 112 152 195 239 285 335
#     4   9  18  33  52  77 106 137 171 211 260 322
#     4  11  25  43  62  85 112 147 194 243 292 349
#     4   8  15  30  53  80 110 144 183 230 279 327
#
# _framework density 20.288128
#
# number of rings (size 3 to 8) (size 9 to 14) (size 15 to 20)
#    0.000    2.231    0.769    3.462    0.000    4.000 
#    0.000    4.615    0.000   11.077    0.000    4.308 
#    0.000    0.000    0.000    0.000    0.000    0.000 
#
# Total GULP energy -290336.333257 kJ/mol
# GULP energy per Si atom -5583.391024 kJ/mol
# Density = 2.024195 g / cm^3
# Si number density = 20.288128 Si / 1000 Ang^3
#
#
#
# Elastic Constant Matrix: (Units=GPa)
#
#
# Indices 1 2 3 4 5 6 
#
# 1 52.8550 5.1812 17.8566 0.0000 0.0000 0.0000
# 2 5.1812 46.3996 -18.1609 0.0000 0.0000 0.0000
# 3 17.8566 -18.1609 76.7599 0.0000 0.0000 0.0000
# 4 0.0000 0.0000 0.0000 -0.8420 0.0000 0.0000
# 5 0.0000 0.0000 0.0000 0.0000 25.3167 0.0000
# 6 0.0000 0.0000 0.0000 0.0000 0.0000 21.0026
#
#
#
# Elastic Compliance Matrix: (Units=1/GPa)
#
#
# Indices 1 2 3 4 5 6 
#
# 1 0.021459 -0.004794 -0.006126 0.000000 0.000000 0.000000
# 2 -0.004794 0.024822 0.006988 0.000000 0.000000 0.000000
# 3 -0.006126 0.006988 0.016106 0.000000 0.000000 0.000000
# 4 0.000000 0.000000 0.000000 -1.187606 0.000000 0.000000
# 5 0.000000 0.000000 0.000000 0.000000 0.039500 0.000000
# 6 0.000000 0.000000 0.000000 0.000000 0.000000 0.047613
#
#
# Mechanical properties :
#
#
# Convention : Reuss Voigt Hill
#
# Bulk Modulus (GPa) = 18.34085 20.64093 19.49089
# Shear Modulus (GPa) = -4.94039 20.50463 7.78212
#
# Velocity S-wave (km/s) = -1.56218 3.18255 1.96064
# Velocity P-wave (km/s) = 2.40955 4.86835 3.84102
#
# Compressibility (1/GPa) = 0.05452310
#
# Stress axis : x y z
#
# Youngs Moduli (GPa) = 46.59967 40.28626 62.08819
#
# Poissons Ratio (x) = 0.19314 0.38037
# Poissons Ratio (y) = 0.22340 -0.43387
# Poissons Ratio (z) = 0.28549 -0.28152
#
# Static dielectric constant tensor:
#      x y z
#    x 1.695310 0.000000 0.000000 
#    y 0.000000 1.725270 0.000000 
#    z 0.000000 0.000000 1.739720 
# 
# From -- ./inp_files/60447.got.cif
#   From: 2010.05.17/outbox.cif.g08.bks.cpg/sg65_31_cif.got.tgz:60447.got - 2010.06.03 17:01:31.
