data_PCOD9492975
_publ_section_title
;
Structure prediction by ZEFSAII (Michael W. Deem and Ramdas Pophale) SiO2 
 PCOD9492975
Probable space group: C M M M
;
_chemical_formula_sum "Si O2"
_cell_formula_units_Z 68
_cell_length_a 7.500981
_cell_length_b 19.904329
_cell_length_c 20.617673
_cell_angle_alpha 90.000000
_cell_angle_beta 90.000000
_cell_angle_gamma 90.000000
_cell_volume 3078.259683
_symmetry_space_group_name_H-M "C M M M"
_symmetry_group_IT_number 65
_symmetry_cell_setting 'orthorhombic'
loop_
_space_group_symop_operation_xyz
x,y,z
-x,-y,z
x,-y,-z
-x,y,-z
-x,-y,-z
x,y,-z
-x,y,z
x,-y,z
1/2+x,1/2+y,z
1/2-x,1/2-y,z
1/2+x,1/2-y,-z
1/2-x,1/2+y,-z
1/2-x,1/2-y,-z
1/2+x,1/2+y,-z
1/2-x,1/2+y,z
1/2+x,1/2-y,z
loop_
_atom_site_type_symbol
_atom_site_label
_atom_site_fract_x
_atom_site_fract_y
_atom_site_fract_z
Si Si1 0.500000 0.000000 0.231843
Si Si2 0.218180 0.422831 0.000000
Si Si3 0.711857 0.175535 0.886864
Si Si4 0.287854 0.673091 0.384882
Si Si5 0.294509 0.382447 0.246602
Si Si6 0.718610 0.577603 0.500000
O O1 0.656986 0.941771 0.232721
O O2 0.275290 0.381556 0.063362
O O3 0.276121 0.500000 0.000000
O O4 0.000000 0.423189 0.000000
O O5 0.500000 0.168041 0.880989
O O6 0.750000 0.250000 0.912270
O O7 0.792369 0.165418 0.815961
O O8 0.500000 0.666643 0.385766
O O9 0.250000 0.750000 0.402561
O O10 0.231838 0.655397 0.311907
O O11 0.219973 0.619091 0.436969
O O12 0.500000 0.405448 0.256574
O O13 0.775139 0.500000 0.500000
O O14 0.500000 0.577183 0.500000
#
# Coordination Sequence:
#
# PCOD9492975 Si02
#       6
#     4   8  16  16  16   8
#     4  12  26  44  68 100 144 172 210 276 344 384
#     4   9  21  38  63  93 132 177 227 277 337 397
#     4  11  22  40  67  97 133 179 226 279 333 394
#     4  10  22  39  65  94 128 173 222 273 329 394
#     4  11  25  43  69 102 133 175 224 270 330 402
#     4   9  19  38  61  89 128 173 219 272 335 394
#
# _framework density 22.090406000000002
#
# number of rings (size 3 to 8) (size 9 to 14) (size 15 to 20)
#    0.000    1.647    1.176    2.471    4.941    1.882 
#    0.000    1.765    0.000    4.235    0.000    0.000 
#    0.000    0.000    0.000    0.000    0.000    0.000 
#
# Total GULP energy -189556.821646 kJ/mol
# GULP energy per Si atom -5575.200637 kJ/mol
# Density = 2.204013 g / cm^3
# Si number density = 22.090406 Si / 1000 Ang^3
#
#
#
# Elastic Constant Matrix: (Units=GPa)
#
#
# Indices 1 2 3 4 5 6 
#
# 1 100.8572 13.6220 0.7206 0.0000 0.0000 0.0000
# 2 13.6220 196.4321 79.1749 0.0000 0.0000 0.0000
# 3 0.7206 79.1749 158.5171 0.0000 0.0000 0.0000
# 4 0.0000 0.0000 0.0000-7839.1179 0.0000 0.0000
# 5 0.0000 0.0000 0.0000 0.0000 11.8939 0.0000
# 6 0.0000 0.0000 0.0000 0.0000 0.0000 40.8455
#
#
#
# Elastic Compliance Matrix: (Units=1/GPa)
#
#
# Indices 1 2 3 4 5 6 
#
# 1 0.010027 -0.000848 0.000378 0.000000 0.000000 0.000000
# 2 -0.000848 0.006446 -0.003216 0.000000 0.000000 0.000000
# 3 0.000378 -0.003216 0.007913 0.000000 0.000000 0.000000
# 4 0.000000 0.000000 0.000000 -0.000128 0.000000 0.000000
# 5 0.000000 0.000000 0.000000 0.000000 0.084077 0.000000
# 6 0.000000 0.000000 0.000000 0.000000 0.000000 0.024482
#
#
# Mechanical properties :
#
#
# Convention : Reuss Voigt Hill
#
# Bulk Modulus (GPa) = 58.77343 71.42681 65.10012
# Shear Modulus (GPa) = 34.27965 -1533.12309 -749.42172
#
# Velocity S-wave (km/s) = 3.94355 -26.37288 -18.43878
# Velocity P-wave (km/s) = 6.88470 29.91601 20.58602
#
# Compressibility (1/GPa) = 0.01701449
#
# Stress axis : x y z
#
# Youngs Moduli (GPa) = 99.73288 155.14255 126.37679
#
# Poissons Ratio (x) = 0.13150 -0.04774
# Poissons Ratio (y) = 0.08453 0.40638
# Poissons Ratio (z) = -0.03768 0.49887
#
# Static dielectric constant tensor:
#      x y z
#    x 1.841990 0.000000 0.000000 
#    y 0.000000 1.767160 0.000000 
#    z 0.000000 0.000000 1.814450 
# 
# From -- ./inp_files/59025.got.cif
#   From: 2010.05.17/outbox.cif.g08.bks.cpg/sg65_30_cif.got.tgz:59025.got - 2010.06.03 17:01:31.
