data_PCOD9492425
_publ_section_title
;
Structure prediction by ZEFSAII (Michael W. Deem and Ramdas Pophale) SiO2 
 PCOD9492425
Probable space group: C M M M
;
_chemical_formula_sum "Si O2"
_cell_formula_units_Z 112
_cell_length_a 14.204021
_cell_length_b 13.984923
_cell_length_c 24.523585
_cell_angle_alpha 90.000000
_cell_angle_beta 90.000000
_cell_angle_gamma 90.000000
_cell_volume 4871.417404
_symmetry_space_group_name_H-M "C M M M"
_symmetry_group_IT_number 65
_symmetry_cell_setting 'orthorhombic'
loop_
_space_group_symop_operation_xyz
x,y,z
-x,-y,z
x,-y,-z
-x,y,-z
-x,-y,-z
x,y,-z
-x,y,z
x,-y,z
1/2+x,1/2+y,z
1/2-x,1/2-y,z
1/2+x,1/2-y,-z
1/2-x,1/2+y,-z
1/2-x,1/2-y,-z
1/2+x,1/2+y,-z
1/2-x,1/2+y,z
1/2+x,1/2-y,z
loop_
_atom_site_type_symbol
_atom_site_label
_atom_site_fract_x
_atom_site_fract_y
_atom_site_fract_z
Si Si1 0.107933 0.668861 0.318721
Si Si2 0.112803 0.213434 0.171478
Si Si3 0.394095 0.605193 0.680651
Si Si4 0.860909 0.360633 0.559475
Si Si5 0.638123 0.632997 0.558437
Si Si6 0.614152 0.609938 0.939152
Si Si7 0.218924 0.392547 0.217082
O O1 0.137745 0.781847 0.317587
O O2 0.107350 0.620280 0.378640
O O3 0.179130 0.617326 0.278117
O O4 0.000000 0.664454 0.298486
O O5 0.138981 0.177965 0.110771
O O6 0.154356 0.317835 0.183642
O O7 0.173374 0.143654 0.210913
O O8 0.000000 0.208762 0.178107
O O9 0.500000 0.607161 0.703578
O O10 0.352818 0.500000 0.697992
O O11 0.399864 0.596920 0.614868
O O12 0.896193 0.396038 0.500000
O O13 0.750327 0.382352 0.559878
O O14 0.876332 0.246925 0.557685
O O15 0.603737 0.598567 0.500000
O O16 0.500000 0.608602 0.940422
O O17 0.644064 0.500000 0.928707
O O18 0.646367 0.637813 0.000000
O O19 0.209969 0.500000 0.197244
#
# Coordination Sequence:
#
# PCOD9492425 Si02
#       7
#    16  16  16  16  16  16  16
#     4  10  21  38  60  85 116 158 208 263 330 406
#     4  10  22  42  69 102 139 180 228 279 327 379
#     4   9  18  32  50  75 108 144 185 239 302 370
#     4   8  15  30  52  75  98 131 184 251 320 392
#     4   8  14  25  42  66  99 138 175 218 285 371
#     4   8  14  29  60 102 144 185 228 275 329 385
#     4  11  25  44  66  95 132 176 226 278 336 399
#
# _framework density 22.991254999999999
#
# number of rings (size 3 to 8) (size 9 to 14) (size 15 to 20)
#    0.000    2.857    0.000    2.143    0.000    7.429 
#    0.000   12.143    0.000    9.429    0.000    3.000 
#    0.000    0.000    0.000    0.000    0.000    0.000 
#
# Total GULP energy -312350.000227 kJ/mol
# GULP energy per Si atom -5577.678575 kJ/mol
# Density = 2.293893 g / cm^3
# Si number density = 22.991255 Si / 1000 Ang^3
#
#
#
# Elastic Constant Matrix: (Units=GPa)
#
#
# Indices 1 2 3 4 5 6 
#
# 1 127.4717 39.0795 38.1165 0.0000 0.0000 0.0000
# 2 39.0795 166.4952 45.0220 0.0000 0.0000 0.0000
# 3 38.1165 45.0220 136.2537 0.0000 0.0000 0.0000
# 4 0.0000 0.0000 0.0000 -314.8243 0.0000 0.0000
# 5 0.0000 0.0000 0.0000 0.0000 27.3078 0.0000
# 6 0.0000 0.0000 0.0000 0.0000 0.0000 16.5962
#
#
#
# Elastic Compliance Matrix: (Units=1/GPa)
#
#
# Indices 1 2 3 4 5 6 
#
# 1 0.008914 -0.001557 -0.001979 0.000000 0.000000 0.000000
# 2 -0.001557 0.006867 -0.001834 0.000000 0.000000 0.000000
# 3 -0.001979 -0.001834 0.008499 0.000000 0.000000 0.000000
# 4 0.000000 0.000000 0.000000 -0.003176 0.000000 0.000000
# 5 0.000000 0.000000 0.000000 0.000000 0.036620 0.000000
# 6 0.000000 0.000000 0.000000 0.000000 0.000000 0.060255
#
#
# Mechanical properties :
#
#
# Convention : Reuss Voigt Hill
#
# Bulk Modulus (GPa) = 73.85216 74.96185 74.40701
# Shear Modulus (GPa) = 37.52863 -33.65054 1.93904
#
# Velocity S-wave (km/s) = 4.04456 -3.82988 0.91935
# Velocity P-wave (km/s) = 7.34866 3.62187 5.79313
#
# Compressibility (1/GPa) = 0.01354056
#
# Stress axis : x y z
#
# Youngs Moduli (GPa) = 112.18235 145.61364 117.66377
#
# Poissons Ratio (x) = 0.22674 0.23288
# Poissons Ratio (y) = 0.17468 0.21575
# Poissons Ratio (z) = 0.22203 0.26700
#
# Static dielectric constant tensor:
#      x y z
#    x 1.885710 0.000000 0.000000 
#    y 0.000000 1.876290 0.000000 
#    z 0.000000 0.000000 1.939280 
# 
# From -- ./inp_files/74878.got.cif
#   From: 2010.05.17/outbox.cif.g08.bks.cpg/sg65_38_cif.got.tgz:74878.got - 2010.06.03 17:01:31.
