data_PCOD9492181
_publ_section_title
;
Structure prediction by ZEFSAII (Michael W. Deem and Ramdas Pophale) SiO2 
 PCOD9492181
Probable space group: C M M M
;
_chemical_formula_sum "Si O2"
_cell_formula_units_Z 80
_cell_length_a 8.823740
_cell_length_b 18.816725
_cell_length_c 25.794037
_cell_angle_alpha 90.000000
_cell_angle_beta 90.000000
_cell_angle_gamma 90.000000
_cell_volume 4282.684277
_symmetry_space_group_name_H-M "C M M M"
_symmetry_group_IT_number 65
_symmetry_cell_setting 'orthorhombic'
loop_
_space_group_symop_operation_xyz
x,y,z
-x,-y,z
x,-y,-z
-x,y,-z
-x,-y,-z
x,y,-z
-x,y,z
x,-y,z
1/2+x,1/2+y,z
1/2-x,1/2-y,z
1/2+x,1/2-y,-z
1/2-x,1/2+y,-z
1/2-x,1/2-y,-z
1/2+x,1/2+y,-z
1/2-x,1/2+y,z
1/2+x,1/2-y,z
loop_
_atom_site_type_symbol
_atom_site_label
_atom_site_fract_x
_atom_site_fract_y
_atom_site_fract_z
Si Si1 0.817531 0.582064 0.349050
Si Si2 0.319152 0.827387 0.939173
Si Si3 0.318797 0.672671 0.559934
Si Si4 0.682158 0.828785 0.753182
Si Si5 0.818526 0.916813 0.848478
O O1 0.772832 0.500000 0.341859
O O2 0.745215 0.615628 0.400193
O O3 0.775085 0.629026 0.299166
O O4 0.000000 0.584747 0.353735
O O5 0.500000 0.825524 0.931475
O O6 0.250000 0.750000 0.926665
O O7 0.244612 0.885094 0.901989
O O8 0.289017 0.841371 0.000000
O O9 0.278794 0.656439 0.500000
O O10 0.500000 0.676383 0.563874
O O11 0.250000 0.750000 0.572459
O O12 0.500000 0.825139 0.756145
O O13 0.750000 0.750000 0.752431
O O14 0.745173 0.872012 0.802076
O O15 0.000000 0.909151 0.846983
O O16 0.780613 0.000000 0.843302
#
# Coordination Sequence:
#
# PCOD9492181 Si02
#       5
#    16  16  16  16  16
#     4  10  22  39  59  85 116 150 188 232 284 338
#     4  10  21  38  61  87 116 152 193 236 282 334
#     4  10  21  37  58  84 114 150 192 236 282 334
#     4  11  23  40  62  86 114 148 189 235 282 337
#     4  11  24  40  59  85 117 152 190 234 285 338
#
# _framework density 18.679874999999999
#
# number of rings (size 3 to 8) (size 9 to 14) (size 15 to 20)
#    0.000    1.600    0.000    4.200    0.000    9.200 
#    0.000    4.000    0.000    0.000    0.000    0.000 
#    0.000    0.000    0.000    0.000    0.000    0.000 
#
# Total GULP energy -223656.687341 kJ/mol
# GULP energy per Si atom -5591.417184 kJ/mol
# Density = 1.863736 g / cm^3
# Si number density = 18.679875 Si / 1000 Ang^3
#
#
#
# Elastic Constant Matrix: (Units=GPa)
#
#
# Indices 1 2 3 4 5 6 
#
# 1 54.8522 69.7237 52.6540 0.0000 0.0000 0.0000
# 2 69.7237 188.4593 104.0158 0.0000 0.0000 0.0000
# 3 52.6540 104.0158 104.8408 0.0000 0.0000 0.0000
# 4 0.0000 0.0000 0.0000 -110.4860 0.0000 0.0000
# 5 0.0000 0.0000 0.0000 0.0000 16.0806 0.0000
# 6 0.0000 0.0000 0.0000 0.0000 0.0000 30.7172
#
#
#
# Elastic Compliance Matrix: (Units=1/GPa)
#
#
# Indices 1 2 3 4 5 6 
#
# 1 0.040286 -0.008261 -0.012037 0.000000 0.000000 0.000000
# 2 -0.008261 0.013423 -0.009168 0.000000 0.000000 0.000000
# 3 -0.012037 -0.009168 0.024679 0.000000 0.000000 0.000000
# 4 0.000000 0.000000 0.000000 -0.009051 0.000000 0.000000
# 5 0.000000 0.000000 0.000000 0.000000 0.062187 0.000000
# 6 0.000000 0.000000 0.000000 0.000000 0.000000 0.032555
#
#
# Mechanical properties :
#
#
# Convention : Reuss Voigt Hill
#
# Bulk Modulus (GPa) = 51.39722 88.99325 70.19524
# Shear Modulus (GPa) = 21.78690 -4.62041 8.58324
#
# Velocity S-wave (km/s) = 3.41886 -1.57443 2.14590
# Velocity P-wave (km/s) = 6.56957 6.66630 6.61811
#
# Compressibility (1/GPa) = 0.01945630
#
# Stress axis : x y z
#
# Youngs Moduli (GPa) = 24.82257 74.50118 40.51981
#
# Poissons Ratio (x) = 0.61546 0.48772
# Poissons Ratio (y) = 0.20506 0.37149
# Poissons Ratio (z) = 0.29878 0.68303
#
# Static dielectric constant tensor:
#      x y z
#    x 1.625360 0.000000 0.000000 
#    y 0.000000 1.610340 0.000000 
#    z 0.000000 0.000000 1.627740 
# 
# From -- ./inp_files/72814.got.cif
#   From: 2010.05.17/outbox.cif.g08.bks.cpg/sg65_37_cif.got.tgz:72814.got - 2010.06.03 17:01:31.
