data_PCOD9492679
_publ_section_title
;
Structure prediction by ZEFSAII (Michael W. Deem and Ramdas Pophale) SiO2 
 PCOD9492679
Probable space group: C M M M
;
_chemical_formula_sum "Si O2"
_cell_formula_units_Z 56
_cell_length_a 8.623878
_cell_length_b 15.766006
_cell_length_c 21.550222
_cell_angle_alpha 90.000000
_cell_angle_beta 90.000000
_cell_angle_gamma 90.000000
_cell_volume 2930.056804
_symmetry_space_group_name_H-M "C M M M"
_symmetry_group_IT_number 65
_symmetry_cell_setting 'orthorhombic'
loop_
_space_group_symop_operation_xyz
x,y,z
-x,-y,z
x,-y,-z
-x,y,-z
-x,-y,-z
x,y,-z
-x,y,z
x,-y,z
1/2+x,1/2+y,z
1/2-x,1/2-y,z
1/2+x,1/2-y,-z
1/2-x,1/2+y,-z
1/2-x,1/2-y,-z
1/2+x,1/2+y,-z
1/2-x,1/2+y,z
1/2+x,1/2-y,z
loop_
_atom_site_type_symbol
_atom_site_label
_atom_site_fract_x
_atom_site_fract_y
_atom_site_fract_z
Si Si1 0.315375 0.500000 0.150580
Si Si2 0.313572 0.659311 0.365093
Si Si3 0.688445 0.598367 0.500000
Si Si4 0.814500 0.342772 0.073195
Si Si5 0.815078 0.500000 0.289178
O O1 0.500000 0.500000 0.156737
O O2 0.260856 0.582929 0.113053
O O3 0.238793 0.500000 0.218179
O O4 0.500000 0.658963 0.363496
O O5 0.250000 0.750000 0.344332
O O6 0.261468 0.642409 0.436343
O O7 0.251309 0.582725 0.323644
O O8 0.737995 0.500000 0.500000
O O9 0.500000 0.598444 0.500000
O O10 0.750000 0.250000 0.090240
O O11 0.000000 0.344320 0.080862
O O12 0.780045 0.356156 0.000000
O O13 0.000000 0.500000 0.293009
#
# Coordination Sequence:
#
# PCOD9492679 Si02
#       5
#     8  16   8  16   8
#     4  12  25  41  63  90 122 163 207 251 304 361
#     4  11  22  40  64  91 123 159 201 248 304 363
#     4   9  17  34  62  91 122 158 194 245 304 359
#     4  10  21  39  64  95 129 163 201 248 300 355
#     4  12  26  44  62  86 119 160 208 255 304 360
#
# _framework density 19.112259000000002
#
# number of rings (size 3 to 8) (size 9 to 14) (size 15 to 20)
#    0.000    1.286    1.429    5.143    0.000    4.571 
#    0.000    8.571    0.000    0.000    0.000    0.000 
#    0.000    0.000    0.000    0.000    0.000    0.000 
#
# Total GULP energy -156609.162243 kJ/mol
# GULP energy per Si atom -5593.184366 kJ/mol
# Density = 1.906876 g / cm^3
# Si number density = 19.112259 Si / 1000 Ang^3
#
#
#
# Elastic Constant Matrix: (Units=GPa)
#
#
# Indices 1 2 3 4 5 6 
#
# 1 102.3289 64.8309 52.0606 0.0000 0.0000 0.0000
# 2 64.8309 193.5451 87.3608 0.0000 0.0000 0.0000
# 3 52.0606 87.3608 103.5065 0.0000 0.0000 0.0000
# 4 0.0000 0.0000 0.0000 -14.5387 0.0000 0.0000
# 5 0.0000 0.0000 0.0000 0.0000 27.8901 0.0000
# 6 0.0000 0.0000 0.0000 0.0000 0.0000 37.6337
#
#
#
# Elastic Compliance Matrix: (Units=1/GPa)
#
#
# Indices 1 2 3 4 5 6 
#
# 1 0.013793 -0.002405 -0.004908 0.000000 0.000000 0.000000
# 2 -0.002405 0.008766 -0.006189 0.000000 0.000000 0.000000
# 3 -0.004908 -0.006189 0.017353 0.000000 0.000000 0.000000
# 4 0.000000 0.000000 0.000000 -0.068782 0.000000 0.000000
# 5 0.000000 0.000000 0.000000 0.000000 0.035855 0.000000
# 6 0.000000 0.000000 0.000000 0.000000 0.000000 0.026572
#
#
# Mechanical properties :
#
#
# Convention : Reuss Voigt Hill
#
# Bulk Modulus (GPa) = 77.46547 89.76499 83.61523
# Shear Modulus (GPa) = 77.08635 23.20557 50.14596
#
# Velocity S-wave (km/s) = 6.35775 3.48828 5.12782
# Velocity P-wave (km/s) = 9.72186 7.95571 8.88279
#
# Compressibility (1/GPa) = 0.01290898
#
# Stress axis : x y z
#
# Youngs Moduli (GPa) = 72.50133 114.07978 57.62702
#
# Poissons Ratio (x) = 0.27436 0.28281
# Poissons Ratio (y) = 0.17437 0.35664
# Poissons Ratio (z) = 0.35580 0.70602
#
# Static dielectric constant tensor:
#      x y z
#    x 1.637800 0.000000 0.000000 
#    y 0.000000 1.634000 0.000000 
#    z 0.000000 0.000000 1.647700 
# 
# From -- ./inp_files/58606.got.cif
#   From: 2010.05.17/outbox.cif.g08.bks.cpg/sg65_30_cif.got.tgz:58606.got - 2010.06.03 17:01:31.
