data_PCOD9492659
_publ_section_title
;
Structure prediction by ZEFSAII (Michael W. Deem and Ramdas Pophale) SiO2 
 PCOD9492659
Probable space group: C M M M
;
_chemical_formula_sum "Si O2"
_cell_formula_units_Z 36
_cell_length_a 7.620832
_cell_length_b 14.815246
_cell_length_c 12.565747
_cell_angle_alpha 90.000000
_cell_angle_beta 90.000000
_cell_angle_gamma 90.000000
_cell_volume 1418.729392
_symmetry_space_group_name_H-M "C M M M"
_symmetry_group_IT_number 65
_symmetry_cell_setting 'orthorhombic'
loop_
_space_group_symop_operation_xyz
x,y,z
-x,-y,z
x,-y,-z
-x,y,-z
-x,-y,-z
x,y,-z
-x,y,z
x,-y,z
1/2+x,1/2+y,z
1/2-x,1/2-y,z
1/2+x,1/2-y,-z
1/2-x,1/2+y,-z
1/2-x,1/2-y,-z
1/2+x,1/2+y,-z
1/2-x,1/2+y,z
1/2+x,1/2-y,z
loop_
_atom_site_type_symbol
_atom_site_label
_atom_site_fract_x
_atom_site_fract_y
_atom_site_fract_z
Si Si1 0.500000 0.673298 0.000000
Si Si2 0.209318 0.143471 0.384174
Si Si3 0.195135 0.395272 0.148949
O O1 0.346150 0.660312 0.907686
O O2 0.270119 0.109124 0.500000
O O3 0.250000 0.250000 0.383003
O O4 0.289792 0.106577 0.276313
O O5 0.000000 0.129449 0.378758
O O6 0.215424 0.500000 0.116812
O O7 0.000000 0.363392 0.118452
#
# Coordination Sequence:
#
# PCOD9492659 Si02
#       3
#     4  16  16
#     4  12  23  42  64  88 126 168 207 254 305 358
#     4  10  21  39  64  91 124 163 201 252 314 371
#     4  11  23  39  64  93 123 163 207 253 305 363
#
# _framework density 25.374815999999999
#
# number of rings (size 3 to 8) (size 9 to 14) (size 15 to 20)
#    0.000    1.333    2.222    4.000    0.000    5.333 
#    0.000    5.556    0.000    0.000    0.000    0.000 
#    0.000    0.000    0.000    0.000    0.000    0.000 
#
# Total GULP energy -100388.514720 kJ/mol
# GULP energy per Si atom -5577.139707 kJ/mol
# Density = 2.531706 g / cm^3
# Si number density = 25.374816 Si / 1000 Ang^3
#
#
#
# Elastic Constant Matrix: (Units=GPa)
#
#
# Indices 1 2 3 4 5 6 
#
# 1 214.7582 20.6324 62.4095 0.0000 0.0000 0.0000
# 2 20.6324 85.6345 11.9097 0.0000 0.0000 0.0000
# 3 62.4095 11.9097 267.9934 0.0000 0.0000 0.0000
# 4 0.0000 0.0000 0.0000-1844.9274 0.0000 0.0000
# 5 0.0000 0.0000 0.0000 0.0000 71.0854 0.0000
# 6 0.0000 0.0000 0.0000 0.0000 0.0000 10.7391
#
#
#
# Elastic Compliance Matrix: (Units=1/GPa)
#
#
# Indices 1 2 3 4 5 6 
#
# 1 0.005090 -0.001068 -0.001138 0.000000 0.000000 0.000000
# 2 -0.001068 0.011974 -0.000283 0.000000 0.000000 0.000000
# 3 -0.001138 -0.000283 0.004009 0.000000 0.000000 0.000000
# 4 0.000000 0.000000 0.000000 -0.000542 0.000000 0.000000
# 5 0.000000 0.000000 0.000000 0.000000 0.014068 0.000000
# 6 0.000000 0.000000 0.000000 0.000000 0.000000 0.093118
#
#
# Mechanical properties :
#
#
# Convention : Reuss Voigt Hill
#
# Bulk Modulus (GPa) = 62.13334 84.25437 73.19386
# Shear Modulus (GPa) = 36.21631 -321.05827 -142.42098
#
# Velocity S-wave (km/s) = 3.78200 -11.26060 -7.49992
# Velocity P-wave (km/s) = 6.60384 11.65298 6.78901
#
# Compressibility (1/GPa) = 0.01609442
#
# Stress axis : x y z
#
# Youngs Moduli (GPa) = 196.47688 83.51237 249.43886
#
# Poissons Ratio (x) = 0.08919 0.28381
# Poissons Ratio (y) = 0.20984 0.07070
# Poissons Ratio (z) = 0.22355 0.02367
#
# Static dielectric constant tensor:
#      x y z
#    x 1.917510 0.000000 0.000000 
#    y 0.000000 2.035790 0.000000 
#    z 0.000000 0.000000 1.984610 
# 
# From -- ./inp_files/19671.got.cif
#   From: 2010.05.17/outbox.cif.g08.bks.cpg/sg65_10_cif.got.tgz:19671.got - 2010.06.03 17:01:31.
