data_PCOD9492011
_publ_section_title
;
Structure prediction by ZEFSAII (Michael W. Deem and Ramdas Pophale) SiO2 
 PCOD9492011
Probable space group: C M M M
;
_chemical_formula_sum "Si O2"
_cell_formula_units_Z 88
_cell_length_a 24.227501
_cell_length_b 20.713449
_cell_length_c 9.255570
_cell_angle_alpha 90.000000
_cell_angle_beta 90.000000
_cell_angle_gamma 90.000000
_cell_volume 4644.769955
_symmetry_space_group_name_H-M "C M M M"
_symmetry_group_IT_number 65
_symmetry_cell_setting 'orthorhombic'
loop_
_space_group_symop_operation_xyz
x,y,z
-x,-y,z
x,-y,-z
-x,y,-z
-x,-y,-z
x,y,-z
-x,y,z
x,-y,z
1/2+x,1/2+y,z
1/2-x,1/2-y,z
1/2+x,1/2-y,-z
1/2-x,1/2+y,-z
1/2-x,1/2-y,-z
1/2+x,1/2+y,-z
1/2-x,1/2+y,z
1/2+x,1/2-y,z
loop_
_atom_site_type_symbol
_atom_site_label
_atom_site_fract_x
_atom_site_fract_y
_atom_site_fract_z
Si Si1 0.500000 0.577435 0.326838
Si Si2 0.000000 0.269063 0.843108
Si Si3 0.891303 0.576620 0.839398
Si Si4 0.214461 0.425145 0.667924
Si Si5 0.592542 0.661737 0.166727
Si Si6 0.000000 0.611007 0.332757
Si Si7 0.705714 0.306142 0.329633
O O1 0.500000 0.500000 0.305166
O O2 0.500000 0.590101 0.500000
O O3 0.554816 0.609620 0.254117
O O4 0.946900 0.223936 0.839234
O O5 0.000000 0.313629 0.704092
O O6 0.000000 0.303880 0.000000
O O7 0.883572 0.500000 0.850627
O O8 0.836557 0.600615 0.761132
O O9 0.945383 0.586165 0.745186
O O10 0.897302 0.603816 0.000000
O O11 0.197240 0.425256 0.500000
O O12 0.227986 0.500000 0.705423
O O13 0.263924 0.375252 0.682913
O O14 0.649252 0.684623 0.241306
O O15 0.601710 0.640150 0.000000
O O16 0.000000 0.595335 0.500000
O O17 0.693378 0.294047 0.500000
O O18 0.750000 0.250000 0.285582
#
# Coordination Sequence:
#
# PCOD9492011 Si02
#       7
#     8   8  16  16  16   8  16
#     4  10  21  39  66  96 125 160 200 247 309 377
#     4   9  21  40  57  80 114 150 188 233 288 344
#     4  10  21  37  56  79 110 145 182 230 284 337
#     4   9  19  37  58  81 112 151 195 241 288 343
#     4  10  22  40  61  88 121 156 196 246 300 355
#     4  12  24  34  54  82 107 143 188 232 281 338
#     4  10  22  38  58  86 121 160 204 251 301 362
#
# _framework density 18.94604
#
# number of rings (size 3 to 8) (size 9 to 14) (size 15 to 20)
#    0.000    2.091    0.000    3.000    2.545    6.909 
#    0.000    1.818    0.000    0.000    0.000    0.000 
#    0.000    0.000    0.000    0.000    0.000    0.000 
#
# Total GULP energy -245313.170482 kJ/mol
# GULP energy per Si atom -5575.299329 kJ/mol
# Density = 1.890292 g / cm^3
# Si number density = 18.946040 Si / 1000 Ang^3
#
#
#
# Elastic Constant Matrix: (Units=GPa)
#
#
# Indices 1 2 3 4 5 6 
#
# 1 145.4721 37.0435 92.5854 0.0000 0.0000 0.0000
# 2 37.0435 58.2147 32.0627 0.0000 0.0000 0.0000
# 3 92.5854 32.0627 124.3202 0.0000 0.0000 0.0000
# 4 0.0000 0.0000 0.0000 19.9911 0.0000 0.0000
# 5 0.0000 0.0000 0.0000 0.0000 45.5568 0.0000
# 6 0.0000 0.0000 0.0000 0.0000 0.0000 9.2711
#
#
#
# Elastic Compliance Matrix: (Units=1/GPa)
#
#
# Indices 1 2 3 4 5 6 
#
# 1 0.013689 -0.003608 -0.009264 0.000000 0.000000 0.000000
# 2 -0.003608 0.020973 -0.002722 0.000000 0.000000 0.000000
# 3 -0.009264 -0.002722 0.015645 0.000000 0.000000 0.000000
# 4 0.000000 0.000000 0.000000 0.050022 0.000000 0.000000
# 5 0.000000 0.000000 0.000000 0.000000 0.021951 0.000000
# 6 0.000000 0.000000 0.000000 0.000000 0.000000 0.107862
#
#
# Mechanical properties :
#
#
# Convention : Reuss Voigt Hill
#
# Bulk Modulus (GPa) = 52.30513 72.37670 62.34091
# Shear Modulus (GPa) = 18.67741 26.05151 22.36446
#
# Velocity S-wave (km/s) = 3.14319 3.71217 3.43946
# Velocity P-wave (km/s) = 6.39063 7.52715 6.98206
#
# Compressibility (1/GPa) = 0.01911858
#
# Stress axis : x y z
#
# Youngs Moduli (GPa) = 73.05034 47.68049 63.91801
#
# Poissons Ratio (x) = 0.17205 0.59215
# Poissons Ratio (y) = 0.26359 0.17397
# Poissons Ratio (z) = 0.67675 0.12977
#
# Static dielectric constant tensor:
#      x y z
#    x 1.813350 0.000000 0.000000 
#    y 0.000000 1.682010 0.000000 
#    z 0.000000 0.000000 1.737670 
# 
# From -- ./inp_files/11855.got.cif
#   From: 2010.05.17/outbox.cif.g08.bks.cpg/sg65_6_cif.got.tgz:11855.got - 2010.06.03 17:01:31.
