data_PCOD9492835
_publ_section_title
;
Structure prediction by ZEFSAII (Michael W. Deem and Ramdas Pophale) SiO2 
 PCOD9492835
Probable space group: C M M M
;
_chemical_formula_sum "Si O2"
_cell_formula_units_Z 96
_cell_length_a 13.896233
_cell_length_b 24.946576
_cell_length_c 14.715795
_cell_angle_alpha 90.000000
_cell_angle_beta 90.000000
_cell_angle_gamma 90.000000
_cell_volume 5101.428009
_symmetry_space_group_name_H-M "C M M M"
_symmetry_group_IT_number 65
_symmetry_cell_setting 'orthorhombic'
loop_
_space_group_symop_operation_xyz
x,y,z
-x,-y,z
x,-y,-z
-x,y,-z
-x,-y,-z
x,y,-z
-x,y,z
x,-y,z
1/2+x,1/2+y,z
1/2-x,1/2-y,z
1/2+x,1/2-y,-z
1/2-x,1/2+y,-z
1/2-x,1/2-y,-z
1/2+x,1/2+y,-z
1/2-x,1/2+y,z
1/2+x,1/2-y,z
loop_
_atom_site_type_symbol
_atom_site_label
_atom_site_fract_x
_atom_site_fract_y
_atom_site_fract_z
Si Si1 0.886183 0.845373 0.108990
Si Si2 0.113852 0.632312 0.245656
Si Si3 0.736208 0.189553 0.606383
Si Si4 0.116838 0.725908 0.896354
Si Si5 0.114182 0.097866 0.604608
Si Si6 0.284867 0.559885 0.219127
O O1 0.850978 0.785299 0.134854
O O2 0.834564 0.893935 0.159192
O O3 0.000000 0.848681 0.130033
O O4 0.875660 0.849288 0.000000
O O5 0.155639 0.658610 0.337169
O O6 0.137867 0.676052 0.167779
O O7 0.174637 0.578687 0.228822
O O8 0.000000 0.624273 0.248454
O O9 0.710624 0.191429 0.500000
O O10 0.750000 0.250000 0.639367
O O11 0.834884 0.155835 0.614814
O O12 0.000000 0.729755 0.899196
O O13 0.149503 0.716677 0.000000
O O14 0.131291 0.080186 0.500000
O O15 0.164697 0.062886 0.681918
O O16 0.000000 0.100399 0.618859
O O17 0.294564 0.500000 0.182198
#
# Coordination Sequence:
#
# PCOD9492835 Si02
#       6
#    16  16  16  16  16  16
#     4   9  19  36  58  85 116 145 175 221 282 344
#     4  10  22  37  57  81 108 148 192 233 274 319
#     4   9  19  34  53  82 118 148 176 214 269 336
#     4   8  16  33  57  84 110 138 176 221 271 327
#     4   9  19  36  57  80 107 141 180 222 272 329
#     4  11  24  38  54  78 110 147 190 235 277 324
#
# _framework density 18.818261
#
# number of rings (size 3 to 8) (size 9 to 14) (size 15 to 20)
#    0.000    2.667    0.000    1.500    4.667    4.000 
#    0.000    5.000    0.000    0.000    0.000    8.167 
#    0.000    0.000    0.000    0.000    0.000    0.000 
#
# Total GULP energy -267913.116589 kJ/mol
# GULP energy per Si atom -5581.523262 kJ/mol
# Density = 1.877543 g / cm^3
# Si number density = 18.818261 Si / 1000 Ang^3
#
#
#
# Elastic Constant Matrix: (Units=GPa)
#
#
# Indices 1 2 3 4 5 6 
#
# 1 109.3321 29.4615 32.3626 0.0000 0.0000 0.0000
# 2 29.4615 97.7038 32.2597 0.0000 0.0000 0.0000
# 3 32.3626 32.2597 47.0129 0.0000 0.0000 0.0000
# 4 0.0000 0.0000 0.0000 20.8579 0.0000 0.0000
# 5 0.0000 0.0000 0.0000 0.0000 19.1439 0.0000
# 6 0.0000 0.0000 0.0000 0.0000 0.0000 11.1486
#
#
#
# Elastic Compliance Matrix: (Units=1/GPa)
#
#
# Indices 1 2 3 4 5 6 
#
# 1 0.011580 -0.001112 -0.007208 0.000000 0.000000 0.000000
# 2 -0.001112 0.013340 -0.008388 0.000000 0.000000 0.000000
# 3 -0.007208 -0.008388 0.031989 0.000000 0.000000 0.000000
# 4 0.000000 0.000000 0.000000 0.047943 0.000000 0.000000
# 5 0.000000 0.000000 0.000000 0.000000 0.052236 0.000000
# 6 0.000000 0.000000 0.000000 0.000000 0.000000 0.089697
#
#
# Mechanical properties :
#
#
# Convention : Reuss Voigt Hill
#
# Bulk Modulus (GPa) = 42.56853 49.13513 45.85183
# Shear Modulus (GPa) = 17.35914 20.89442 19.12678
#
# Velocity S-wave (km/s) = 3.04050 3.33577 3.19155
# Velocity P-wave (km/s) = 5.91576 6.40340 6.16440
#
# Compressibility (1/GPa) = 0.02349153
#
# Stress axis : x y z
#
# Youngs Moduli (GPa) = 86.35799 74.96301 31.26084
#
# Poissons Ratio (x) = 0.08333 0.22534
# Poissons Ratio (y) = 0.09600 0.26223
# Poissons Ratio (z) = 0.62250 0.62882
#
# Static dielectric constant tensor:
#      x y z
#    x 1.663270 0.000000 0.000000 
#    y 0.000000 1.630610 0.000000 
#    z 0.000000 0.000000 1.661470 
# 
# From -- ./inp_files/40395.got.cif
#   From: 2010.05.17/outbox.cif.g08.bks.cpg/sg65_21_cif.got.tgz:40395.got - 2010.06.03 17:01:31.
