data_PCOD9492282
_publ_section_title
;
Structure prediction by ZEFSAII (Michael W. Deem and Ramdas Pophale) SiO2 
 PCOD9492282
Probable space group: C M M M
;
_chemical_formula_sum "Si O2"
_cell_formula_units_Z 88
_cell_length_a 24.398664
_cell_length_b 22.200777
_cell_length_c 8.416833
_cell_angle_alpha 90.000000
_cell_angle_beta 90.000000
_cell_angle_gamma 90.000000
_cell_volume 4559.140027
_symmetry_space_group_name_H-M "C M M M"
_symmetry_group_IT_number 65
_symmetry_cell_setting 'orthorhombic'
loop_
_space_group_symop_operation_xyz
x,y,z
-x,-y,z
x,-y,-z
-x,y,-z
-x,-y,-z
x,y,-z
-x,y,z
x,-y,z
1/2+x,1/2+y,z
1/2-x,1/2-y,z
1/2+x,1/2-y,-z
1/2-x,1/2+y,-z
1/2-x,1/2-y,-z
1/2+x,1/2+y,-z
1/2-x,1/2+y,z
1/2+x,1/2-y,z
loop_
_atom_site_type_symbol
_atom_site_label
_atom_site_fract_x
_atom_site_fract_y
_atom_site_fract_z
Si Si1 0.500000 0.570333 0.309067
Si Si2 0.000000 0.241865 0.817821
Si Si3 0.903646 0.570110 0.820855
Si Si4 0.219063 0.431722 0.690970
Si Si5 0.593964 0.659575 0.192429
Si Si6 0.000000 0.637483 0.327038
Si Si7 0.718713 0.312510 0.192174
O O1 0.500000 0.500000 0.263776
O O2 0.500000 0.574918 0.500000
O O3 0.555892 0.603060 0.247120
O O4 0.944655 0.214306 0.750196
O O5 0.000000 0.311925 0.804547
O O6 0.000000 0.222088 0.000000
O O7 0.917832 0.500000 0.830321
O O8 0.842113 0.574309 0.758685
O O9 0.945886 0.599465 0.701207
O O10 0.907791 0.595589 0.000000
O O11 0.218607 0.429661 0.500000
O O12 0.238920 0.500000 0.736626
O O13 0.250989 0.373805 0.755607
O O14 0.655654 0.675509 0.246655
O O15 0.597625 0.655770 0.000000
O O16 0.000000 0.666112 0.500000
O O17 0.750000 0.250000 0.245158
O O18 0.718374 0.309463 0.000000
#
# Coordination Sequence:
#
# PCOD9492282 Si02
#       7
#     8   8  16  16  16   8  16
#     4  10  21  37  60  90 121 154 194 245 309 375
#     4   9  19  36  57  80 110 150 192 233 286 344
#     4  10  21  38  59  81 108 147 194 240 285 338
#     4  10  22  40  60  86 121 158 197 246 303 360
#     4   9  20  39  60  85 116 152 195 244 294 349
#     4  12  24  34  52  84 115 147 186 232 291 350
#     4  10  22  39  62  91 121 159 207 254 301 362
#
# _framework density 19.301884999999999
#
# number of rings (size 3 to 8) (size 9 to 14) (size 15 to 20)
#    0.000    2.091    0.000    3.000    2.545    7.273 
#    0.000    3.636    0.000    0.000    0.000    0.000 
#    0.000    0.000    0.000    0.000    0.000    0.000 
#
# Total GULP energy -244999.203375 kJ/mol
# GULP energy per Si atom -5568.163713 kJ/mol
# Density = 1.925795 g / cm^3
# Si number density = 19.301885 Si / 1000 Ang^3
#
#
#
# Elastic Constant Matrix: (Units=GPa)
#
#
# Indices 1 2 3 4 5 6 
#
# 1 109.6437 85.3783 18.7169 0.0000 0.0000 0.0000
# 2 85.3783 126.9036 15.0004 0.0000 0.0000 0.0000
# 3 18.7169 15.0004 21.5730 0.0000 0.0000 0.0000
# 4 0.0000 0.0000 0.0000 -33.8617 0.0000 0.0000
# 5 0.0000 0.0000 0.0000 0.0000 28.7635 0.0000
# 6 0.0000 0.0000 0.0000 0.0000 0.0000 11.3621
#
#
#
# Elastic Compliance Matrix: (Units=1/GPa)
#
#
# Indices 1 2 3 4 5 6 
#
# 1 0.020642 -0.012825 -0.008992 0.000000 0.000000 0.000000
# 2 -0.012825 0.016553 -0.000383 0.000000 0.000000 0.000000
# 3 -0.008992 -0.000383 0.054422 0.000000 0.000000 0.000000
# 4 0.000000 0.000000 0.000000 -0.029532 0.000000 0.000000
# 5 0.000000 0.000000 0.000000 0.000000 0.034766 0.000000
# 6 0.000000 0.000000 0.000000 0.000000 0.000000 0.088012
#
#
# Mechanical properties :
#
#
# Convention : Reuss Voigt Hill
#
# Bulk Modulus (GPa) = 21.17839 55.14573 38.16206
# Shear Modulus (GPa) = 20.40801 10.52109 15.46455
#
# Velocity S-wave (km/s) = 3.25515 2.33723 2.83361
# Velocity P-wave (km/s) = 5.01239 5.99297 5.52448
#
# Compressibility (1/GPa) = 0.04721793
#
# Stress axis : x y z
#
# Youngs Moduli (GPa) = 48.44562 60.41051 18.37493
#
# Poissons Ratio (x) = 0.77474 0.16522
# Poissons Ratio (y) = 0.62129 0.00705
# Poissons Ratio (z) = 0.43561 0.02316
#
# Static dielectric constant tensor:
#      x y z
#    x 1.695770 0.000000 0.000000 
#    y 0.000000 1.680490 0.000000 
#    z 0.000000 0.000000 1.685460 
# 
# From -- ./inp_files/11854.got.cif
#   From: 2010.05.17/outbox.cif.g08.bks.cpg/sg65_6_cif.got.tgz:11854.got - 2010.06.03 17:01:31.
