data_PCOD9492803
_publ_section_title
;
Structure prediction by ZEFSAII (Michael W. Deem and Ramdas Pophale) SiO2 
 PCOD9492803
Probable space group: C M M M
;
_chemical_formula_sum "Si O2"
_cell_formula_units_Z 88
_cell_length_a 24.436168
_cell_length_b 13.937497
_cell_length_c 13.716682
_cell_angle_alpha 90.000000
_cell_angle_beta 90.000000
_cell_angle_gamma 90.000000
_cell_volume 4671.614088
_symmetry_space_group_name_H-M "C M M M"
_symmetry_group_IT_number 65
_symmetry_cell_setting 'orthorhombic'
loop_
_space_group_symop_operation_xyz
x,y,z
-x,-y,z
x,-y,-z
-x,y,-z
-x,-y,-z
x,y,-z
-x,y,z
x,-y,z
1/2+x,1/2+y,z
1/2-x,1/2-y,z
1/2+x,1/2-y,-z
1/2-x,1/2+y,-z
1/2-x,1/2-y,-z
1/2+x,1/2+y,-z
1/2-x,1/2+y,z
1/2+x,1/2-y,z
loop_
_atom_site_type_symbol
_atom_site_label
_atom_site_fract_x
_atom_site_fract_y
_atom_site_fract_z
Si Si1 0.279375 0.385096 0.889469
Si Si2 0.665028 0.703131 0.612397
Si Si3 0.725300 0.888145 0.688126
Si Si4 0.500000 0.614093 0.890187
Si Si5 0.109588 0.200926 0.804559
Si Si6 0.565385 0.890387 0.115833
O O1 0.288359 0.500000 0.885615
O O2 0.236463 0.364437 0.802629
O O3 0.336615 0.335099 0.861870
O O4 0.262122 0.361151 0.000000
O O5 0.650128 0.697044 0.500000
O O6 0.685147 0.810775 0.640403
O O7 0.716557 0.634100 0.636020
O O8 0.619235 0.679698 0.691259
O O9 0.710673 0.000000 0.678357
O O10 0.500000 0.500000 0.893233
O O11 0.555286 0.649358 0.841122
O O12 0.500000 0.653678 0.000000
O O13 0.099259 0.312807 0.825282
O O14 0.500000 0.878166 0.132415
O O15 0.579814 0.000000 0.140296
O O16 0.574553 0.877073 0.000000
#
# Coordination Sequence:
#
# PCOD9492803 Si02
#       6
#    16  16  16   8  16  16
#     4   9  17  30  50  79 114 144 169 206 262 324
#     4  10  22  37  53  78 106 136 181 229 269 308
#     4   9  18  35  58  80 105 140 178 217 264 318
#     4  11  22  36  58  86 112 139 172 208 252 316
#     4  11  20  33  53  77 107 143 177 218 264 309
#     4   9  17  30  49  72  99 133 171 210 253 304
#
# _framework density 18.837171999999999
#
# number of rings (size 3 to 8) (size 9 to 14) (size 15 to 20)
#    0.000    2.273    0.909    3.818    0.000    4.364 
#    0.000    9.545    0.000    2.727    0.000    1.273 
#    0.000    0.000    0.000    0.000    0.000    0.000 
#
# Total GULP energy -245783.263919 kJ/mol
# GULP energy per Si atom -5585.983271 kJ/mol
# Density = 1.879430 g / cm^3
# Si number density = 18.837172 Si / 1000 Ang^3
#
#
#
# Elastic Constant Matrix: (Units=GPa)
#
#
# Indices 1 2 3 4 5 6 
#
# 1 41.2367 5.4973 23.6306 0.0000 0.0000 0.0000
# 2 5.4973 60.9441 11.0775 0.0000 0.0000 0.0000
# 3 23.6306 11.0775 139.2743 0.0000 0.0000 0.0000
# 4 0.0000 0.0000 0.0000 10.3401 0.0000 0.0000
# 5 0.0000 0.0000 0.0000 0.0000 14.7152 0.0000
# 6 0.0000 0.0000 0.0000 0.0000 0.0000 15.8521
#
#
#
# Elastic Compliance Matrix: (Units=1/GPa)
#
#
# Indices 1 2 3 4 5 6 
#
# 1 0.027020 -0.001627 -0.004455 0.000000 0.000000 0.000000
# 2 -0.001627 0.016747 -0.001056 0.000000 0.000000 0.000000
# 3 -0.004455 -0.001056 0.008020 0.000000 0.000000 0.000000
# 4 0.000000 0.000000 0.000000 0.096711 0.000000 0.000000
# 5 0.000000 0.000000 0.000000 0.000000 0.067957 0.000000
# 6 0.000000 0.000000 0.000000 0.000000 0.000000 0.063083
#
#
# Mechanical properties :
#
#
# Convention : Reuss Voigt Hill
#
# Bulk Modulus (GPa) = 26.65922 35.76286 31.21104
# Shear Modulus (GPa) = 16.32285 21.59811 18.96048
#
# Velocity S-wave (km/s) = 2.94687 3.38978 3.17605
# Velocity P-wave (km/s) = 5.07562 5.86065 5.48221
#
# Compressibility (1/GPa) = 0.03751047
#
# Stress axis : x y z
#
# Youngs Moduli (GPa) = 37.00937 59.71143 124.68917
#
# Poissons Ratio (x) = 0.09718 0.55550
# Poissons Ratio (y) = 0.06023 0.13166
# Poissons Ratio (z) = 0.16488 0.06305
#
# Static dielectric constant tensor:
#      x y z
#    x 1.641400 0.000000 0.000000 
#    y 0.000000 1.682010 0.000000 
#    z 0.000000 0.000000 1.649330 
# 
# From -- ./inp_files/24817.got.cif
#   From: 2010.05.17/outbox.cif.g08.bks.cpg/sg65_13_cif.got.tgz:24817.got - 2010.06.03 17:01:31.
