data_PCOD9492883
_publ_section_title
;
Structure prediction by ZEFSAII (Michael W. Deem and Ramdas Pophale) SiO2 
 PCOD9492883
Probable space group: C M M M
;
_chemical_formula_sum "Si O2"
_cell_formula_units_Z 72
_cell_length_a 17.400957
_cell_length_b 14.322394
_cell_length_c 15.245226
_cell_angle_alpha 90.000000
_cell_angle_beta 90.000000
_cell_angle_gamma 90.000000
_cell_volume 3799.466480
_symmetry_space_group_name_H-M "C M M M"
_symmetry_group_IT_number 65
_symmetry_cell_setting 'orthorhombic'
loop_
_space_group_symop_operation_xyz
x,y,z
-x,-y,z
x,-y,-z
-x,y,-z
-x,-y,-z
x,y,-z
-x,y,z
x,-y,z
1/2+x,1/2+y,z
1/2-x,1/2-y,z
1/2+x,1/2-y,-z
1/2-x,1/2+y,-z
1/2-x,1/2-y,-z
1/2+x,1/2+y,-z
1/2-x,1/2+y,z
1/2+x,1/2-y,z
loop_
_atom_site_type_symbol
_atom_site_label
_atom_site_fract_x
_atom_site_fract_y
_atom_site_fract_z
Si Si1 0.911884 0.393929 0.832102
Si Si2 0.000000 0.112328 0.102990
Si Si3 0.091282 0.111845 0.402353
Si Si4 0.750691 0.109104 0.095657
Si Si5 0.865579 0.198089 0.777203
O O1 0.907117 0.500000 0.795230
O O2 0.841936 0.387372 0.900779
O O3 0.890422 0.306455 0.771178
O O4 0.000000 0.382347 0.863977
O O5 0.071954 0.151170 0.157475
O O6 0.000000 0.000000 0.105952
O O7 0.000000 0.140162 0.000000
O O8 0.115849 0.142339 0.500000
O O9 0.132429 0.156487 0.319682
O O10 0.000000 0.131508 0.393757
O O11 0.099745 0.000000 0.398024
O O12 0.788244 0.166999 0.173447
O O13 0.772336 0.000000 0.105334
O O14 0.778006 0.141459 0.000000
#
# Coordination Sequence:
#
# PCOD9492883 Si02
#       5
#    16   8  16  16  16
#     4  10  22  40  57  77 107 152 203 241 271 318
#     4  11  22  32  48  80 118 149 178 216 270 340
#     4   9  17  30  52  84 118 149 184 227 280 345
#     4  10  22  38  57  83 115 150 188 235 286 339
#     4  12  20  35  58  83 113 151 186 228 287 340
#
# _framework density 18.950029000000001
#
# number of rings (size 3 to 8) (size 9 to 14) (size 15 to 20)
#    0.000    1.667    2.222    4.000    0.000    4.889 
#    0.000    2.222    0.000    3.333    0.000    6.222 
#    0.000    0.000    0.000    0.000    0.000    0.000 
#
# Total GULP energy -200682.681270 kJ/mol
# GULP energy per Si atom -5574.518924 kJ/mol
# Density = 1.890690 g / cm^3
# Si number density = 18.950029 Si / 1000 Ang^3
#
#
#
# Elastic Constant Matrix: (Units=GPa)
#
#
# Indices 1 2 3 4 5 6 
#
# 1 95.1234 35.6406 46.7677 0.0000 0.0000 0.0000
# 2 35.6406 99.0214 61.1559 0.0000 0.0000 0.0000
# 3 46.7677 61.1559 166.2258 0.0000 0.0000 0.0000
# 4 0.0000 0.0000 0.0000 -55.2150 0.0000 0.0000
# 5 0.0000 0.0000 0.0000 0.0000 24.0165 0.0000
# 6 0.0000 0.0000 0.0000 0.0000 0.0000 25.5056
#
#
#
# Elastic Compliance Matrix: (Units=1/GPa)
#
#
# Indices 1 2 3 4 5 6 
#
# 1 0.012899 -0.003107 -0.002486 0.000000 0.000000 0.000000
# 2 -0.003107 0.013817 -0.004209 0.000000 0.000000 0.000000
# 3 -0.002486 -0.004209 0.008264 0.000000 0.000000 0.000000
# 4 0.000000 0.000000 0.000000 -0.018111 0.000000 0.000000
# 5 0.000000 0.000000 0.000000 0.000000 0.041638 0.000000
# 6 0.000000 0.000000 0.000000 0.000000 0.000000 0.039207
#
#
# Mechanical properties :
#
#
# Convention : Reuss Voigt Hill
#
# Bulk Modulus (GPa) = 65.04066 71.94434 68.49250
# Shear Modulus (GPa) = 40.83502 13.31515 27.07509
#
# Velocity S-wave (km/s) = 4.64710 2.65362 3.78400
# Velocity P-wave (km/s) = 7.94926 6.88743 7.43732
#
# Compressibility (1/GPa) = 0.01537500
#
# Stress axis : x y z
#
# Youngs Moduli (GPa) = 77.52432 72.37564 121.00864
#
# Poissons Ratio (x) = 0.22490 0.30082
# Poissons Ratio (y) = 0.24090 0.50933
# Poissons Ratio (z) = 0.19272 0.30463
#
# Static dielectric constant tensor:
#      x y z
#    x 1.730330 0.000000 0.000000 
#    y 0.000000 1.714410 0.000000 
#    z 0.000000 0.000000 1.616830 
# 
# From -- ./inp_files/42156.got.cif
#   From: 2010.05.17/outbox.cif.g08.bks.cpg/sg65_22_cif.got.tgz:42156.got - 2010.06.03 17:01:31.
