data_PCOD9492468
_publ_section_title
;
Structure prediction by ZEFSAII (Michael W. Deem and Ramdas Pophale) SiO2 
 PCOD9492468
Probable space group: C M M M
;
_chemical_formula_sum "Si O2"
_cell_formula_units_Z 72
_cell_length_a 15.558964
_cell_length_b 11.822089
_cell_length_c 18.365111
_cell_angle_alpha 90.000000
_cell_angle_beta 90.000000
_cell_angle_gamma 90.000000
_cell_volume 3378.068548
_symmetry_space_group_name_H-M "C M M M"
_symmetry_group_IT_number 65
_symmetry_cell_setting 'orthorhombic'
loop_
_space_group_symop_operation_xyz
x,y,z
-x,-y,z
x,-y,-z
-x,y,-z
-x,-y,-z
x,y,-z
-x,y,z
x,-y,z
1/2+x,1/2+y,z
1/2-x,1/2-y,z
1/2+x,1/2-y,-z
1/2-x,1/2+y,-z
1/2-x,1/2-y,-z
1/2+x,1/2+y,-z
1/2-x,1/2+y,z
1/2+x,1/2-y,z
loop_
_atom_site_type_symbol
_atom_site_label
_atom_site_fract_x
_atom_site_fract_y
_atom_site_fract_z
Si Si1 0.604238 0.745824 0.867435
Si Si2 0.153138 0.706890 0.417853
Si Si3 0.897142 0.622426 0.730142
Si Si4 0.188710 0.364070 0.000000
Si Si5 0.000000 0.875858 0.587216
Si Si6 0.100152 0.000000 0.912614
O O1 0.500000 0.743572 0.870094
O O2 0.631626 0.782999 0.786878
O O3 0.634627 0.836315 0.927155
O O4 0.637320 0.619425 0.886079
O O5 0.130439 0.665425 0.500000
O O6 0.250000 0.750000 0.421085
O O7 0.143929 0.625954 0.349397
O O8 0.085926 0.806082 0.397483
O O9 0.880976 0.500000 0.764213
O O10 0.000000 0.633848 0.720088
O O11 0.250000 0.250000 0.000000
O O12 0.214008 0.500000 0.000000
O O13 0.000000 0.887365 0.500000
O O14 0.000000 0.000000 0.621159
O O15 0.000000 0.000000 0.888981
O O16 0.099615 0.000000 0.000000
#
# Coordination Sequence:
#
# PCOD9492468 Si02
#       6
#    16  16  16   8   8   8
#     4  10  21  40  66  93 123 164 215 264 321 385
#     4  10  21  38  62  91 123 164 215 268 330 396
#     4  10  21  38  60  89 125 162 206 264 322 386
#     4  12  27  41  62  92 128 171 212 263 327 389
#     4   9  18  36  59  85 121 160 204 262 323 391
#     4   9  16  32  64  98 121 153 201 265 317 370
#
# _framework density 21.313956000000001
#
# number of rings (size 3 to 8) (size 9 to 14) (size 15 to 20)
#    0.000    2.000    2.222    1.000    1.556    4.000 
#    2.000    3.333    0.000    0.000    0.000    0.000 
#    0.000    0.000    0.000    0.000    0.000    0.000 
#
# Total GULP energy -200671.203281 kJ/mol
# GULP energy per Si atom -5574.200091 kJ/mol
# Density = 2.126544 g / cm^3
# Si number density = 21.313956 Si / 1000 Ang^3
#
#
#
# Elastic Constant Matrix: (Units=GPa)
#
#
# Indices 1 2 3 4 5 6 
#
# 1 66.7211 34.8586 8.6161 0.0000 0.0000 0.0000
# 2 34.8586 148.1770 62.5785 0.0000 0.0000 0.0000
# 3 8.6161 62.5785 126.7955 0.0000 0.0000 0.0000
# 4 0.0000 0.0000 0.0000 29.1380 0.0000 0.0000
# 5 0.0000 0.0000 0.0000 0.0000 10.6530 0.0000
# 6 0.0000 0.0000 0.0000 0.0000 0.0000 14.6408
#
#
#
# Elastic Compliance Matrix: (Units=1/GPa)
#
#
# Indices 1 2 3 4 5 6 
#
# 1 0.017197 -0.004487 0.001046 0.000000 0.000000 0.000000
# 2 -0.004487 0.009697 -0.004481 0.000000 0.000000 0.000000
# 3 0.001046 -0.004481 0.010027 0.000000 0.000000 0.000000
# 4 0.000000 0.000000 0.000000 0.034319 0.000000 0.000000
# 5 0.000000 0.000000 0.000000 0.000000 0.093870 0.000000
# 6 0.000000 0.000000 0.000000 0.000000 0.000000 0.068302
#
#
# Mechanical properties :
#
#
# Convention : Reuss Voigt Hill
#
# Bulk Modulus (GPa) = 47.44563 61.53333 54.48948
# Shear Modulus (GPa) = 19.50973 26.59573 23.05273
#
# Velocity S-wave (km/s) = 3.02876 3.53626 3.29230
# Velocity P-wave (km/s) = 5.87706 6.75324 6.33033
#
# Compressibility (1/GPa) = 0.02107676
#
# Stress axis : x y z
#
# Youngs Moduli (GPa) = 58.14925 103.12818 99.73020
#
# Poissons Ratio (x) = 0.46278 -0.10433
# Poissons Ratio (y) = 0.26094 0.44687
# Poissons Ratio (z) = -0.06083 0.46209
#
# Static dielectric constant tensor:
#      x y z
#    x 1.747820 0.000000 0.000000 
#    y 0.000000 1.858980 0.000000 
#    z 0.000000 0.000000 1.767600 
# 
# From -- ./inp_files/54133.got.cif
#   From: 2010.05.17/outbox.cif.g08.bks.cpg/sg65_28_cif.got.tgz:54133.got - 2010.06.03 17:01:31.
