data_PCOD9492169
_publ_section_title
;
Structure prediction by ZEFSAII (Michael W. Deem and Ramdas Pophale) SiO2 
 PCOD9492169
Probable space group: C M M M
;
_chemical_formula_sum "Si O2"
_cell_formula_units_Z 64
_cell_length_a 8.814351
_cell_length_b 16.623434
_cell_length_c 22.943978
_cell_angle_alpha 90.000000
_cell_angle_beta 90.000000
_cell_angle_gamma 90.000000
_cell_volume 3361.861377
_symmetry_space_group_name_H-M "C M M M"
_symmetry_group_IT_number 65
_symmetry_cell_setting 'orthorhombic'
loop_
_space_group_symop_operation_xyz
x,y,z
-x,-y,z
x,-y,-z
-x,y,-z
-x,-y,-z
x,y,-z
-x,y,z
x,-y,z
1/2+x,1/2+y,z
1/2-x,1/2-y,z
1/2+x,1/2-y,-z
1/2-x,1/2+y,-z
1/2-x,1/2-y,-z
1/2+x,1/2+y,-z
1/2-x,1/2+y,z
1/2+x,1/2-y,z
loop_
_atom_site_type_symbol
_atom_site_label
_atom_site_fract_x
_atom_site_fract_y
_atom_site_fract_z
Si Si1 0.829174 0.405320 0.614218
Si Si2 0.321872 0.663043 0.500000
Si Si3 0.683726 0.158813 0.130890
Si Si4 0.317292 0.837906 0.263835
Si Si5 0.820490 0.000000 0.930244
O O1 0.842086 0.500000 0.610434
O O2 0.733053 0.377635 0.559523
O O3 0.768298 0.385701 0.678732
O O4 0.000000 0.369596 0.609019
O O5 0.500000 0.667110 0.500000
O O6 0.250000 0.750000 0.500000
O O7 0.500000 0.163185 0.125466
O O8 0.750000 0.250000 0.119037
O O9 0.725146 0.137021 0.198238
O O10 0.746514 0.083407 0.093666
O O11 0.500000 0.837080 0.264091
O O12 0.250000 0.750000 0.271489
O O13 0.000000 0.000000 0.915533
O O14 0.804932 0.000000 0.000000
#
# Coordination Sequence:
#
# PCOD9492169 Si02
#       5
#    16   8  16  16   8
#     4  10  21  37  58  83 114 149 186 231 289 348
#     4  12  25  40  57  77 107 145 193 242 289 344
#     4  10  21  39  65  94 128 165 207 256 310 368
#     4   9  19  35  58  86 116 150 190 237 288 348
#     4  11  25  43  63  91 127 166 211 258 305 363
#
# _framework density 19.037072999999999
#
# number of rings (size 3 to 8) (size 9 to 14) (size 15 to 20)
#    0.000    1.875    0.000    3.375    1.750    7.500 
#    0.000    0.000    0.000    0.000    0.000    0.000 
#    0.000    0.000    0.000    0.000    0.000    0.000 
#
# Total GULP energy -178368.046656 kJ/mol
# GULP energy per Si atom -5574.001458 kJ/mol
# Density = 1.899374 g / cm^3
# Si number density = 19.037073 Si / 1000 Ang^3
#
#
#
# Elastic Constant Matrix: (Units=GPa)
#
#
# Indices 1 2 3 4 5 6 
#
# 1 79.3417 52.9193 67.7244 0.0000 0.0000 0.0000
# 2 52.9193 112.2113 90.8506 0.0000 0.0000 0.0000
# 3 67.7244 90.8506 129.8099 0.0000 0.0000 0.0000
# 4 0.0000 0.0000 0.0000 45.9994 0.0000 0.0000
# 5 0.0000 0.0000 0.0000 0.0000 27.7190 0.0000
# 6 0.0000 0.0000 0.0000 0.0000 0.0000 31.2399
#
#
#
# Elastic Compliance Matrix: (Units=1/GPa)
#
#
# Indices 1 2 3 4 5 6 
#
# 1 0.023051 -0.002617 -0.010195 0.000000 0.000000 0.000000
# 2 -0.002617 0.020862 -0.013235 0.000000 0.000000 0.000000
# 3 -0.010195 -0.013235 0.022285 0.000000 0.000000 0.000000
# 4 0.000000 0.000000 0.000000 0.021739 0.000000 0.000000
# 5 0.000000 0.000000 0.000000 0.000000 0.036076 0.000000
# 6 0.000000 0.000000 0.000000 0.000000 0.000000 0.032010
#
#
# Mechanical properties :
#
#
# Convention : Reuss Voigt Hill
#
# Bulk Modulus (GPa) = 70.89999 82.70570 76.80284
# Shear Modulus (GPa) = 23.49411 28.31624 25.90518
#
# Velocity S-wave (km/s) = 3.51682 3.86090 3.69287
# Velocity P-wave (km/s) = 7.33585 7.96331 7.65601
#
# Compressibility (1/GPa) = 0.01410437
#
# Stress axis : x y z
#
# Youngs Moduli (GPa) = 43.38184 47.93480 44.87275
#
# Poissons Ratio (x) = 0.12545 0.45746
# Poissons Ratio (y) = 0.11353 0.59390
# Poissons Ratio (z) = 0.44226 0.63443
#
# Static dielectric constant tensor:
#      x y z
#    x 1.675710 0.000000 0.000000 
#    y 0.000000 1.629630 0.000000 
#    z 0.000000 0.000000 1.449920 
# 
# From -- ./inp_files/58841.got.cif
#   From: 2010.05.17/outbox.cif.g08.bks.cpg/sg65_30_cif.got.tgz:58841.got - 2010.06.03 17:01:31.
