data_PCOD9492204
_publ_section_title
;
Structure prediction by ZEFSAII (Michael W. Deem and Ramdas Pophale) SiO2 
 PCOD9492204
Probable space group: C M M M
;
_chemical_formula_sum "Si O2"
_cell_formula_units_Z 120
_cell_length_a 30.925732
_cell_length_b 14.780761
_cell_length_c 14.026783
_cell_angle_alpha 90.000000
_cell_angle_beta 90.000000
_cell_angle_gamma 90.000000
_cell_volume 6411.724614
_symmetry_space_group_name_H-M "C M M M"
_symmetry_group_IT_number 65
_symmetry_cell_setting 'orthorhombic'
loop_
_space_group_symop_operation_xyz
x,y,z
-x,-y,z
x,-y,-z
-x,y,-z
-x,-y,-z
x,y,-z
-x,y,z
x,-y,z
1/2+x,1/2+y,z
1/2-x,1/2-y,z
1/2+x,1/2-y,-z
1/2-x,1/2+y,-z
1/2-x,1/2-y,-z
1/2+x,1/2+y,-z
1/2-x,1/2+y,z
1/2+x,1/2-y,z
loop_
_atom_site_type_symbol
_atom_site_label
_atom_site_fract_x
_atom_site_fract_y
_atom_site_fract_z
Si Si1 0.088271 0.108061 0.789018
Si Si2 0.794891 0.698244 0.609499
Si Si3 0.609992 0.727040 0.388826
Si Si4 0.842753 0.772551 0.887123
Si Si5 0.176925 0.400233 0.209843
Si Si6 0.450205 0.897194 0.615508
Si Si7 0.230923 0.098924 0.114186
Si Si8 0.000000 0.109679 0.890764
O O1 0.095934 0.150733 0.685212
O O2 0.123016 0.151010 0.860694
O O3 0.042176 0.135696 0.832009
O O4 0.091471 0.000000 0.786369
O O5 0.792159 0.666111 0.500000
O O6 0.750000 0.750000 0.630847
O O7 0.838109 0.759726 0.616166
O O8 0.804853 0.620377 0.685233
O O9 0.599227 0.708118 0.500000
O O10 0.584731 0.820031 0.360776
O O11 0.851872 0.681709 0.828542
O O12 0.797385 0.816532 0.852820
O O13 0.841449 0.754950 0.000000
O O14 0.157744 0.500000 0.203969
O O15 0.219461 0.395736 0.143274
O O16 0.450607 0.899869 0.500000
O O17 0.500000 0.876303 0.645202
O O18 0.439511 0.000000 0.647602
O O19 0.214567 0.000000 0.148153
O O20 0.227675 0.099773 0.000000
O O21 0.000000 0.000000 0.895799
O O22 0.000000 0.142975 0.000000
#
# Coordination Sequence:
#
# PCOD9492204 Si02
#       8
#    16  16  16  16  16  16  16   8
#     4  11  23  39  60  87 117 151 196 241 293 359
#     4  10  21  39  59  78 110 156 207 254 297 347
#     4  10  21  37  58  86 120 157 197 249 303 355
#     4  11  21  36  58  83 111 145 189 241 292 346
#     4  11  22  35  54  81 116 152 188 233 293 356
#     4   8  15  30  55  86 117 148 183 229 287 348
#     4   9  18  32  53  81 110 142 181 231 293 350
#     4   9  20  40  63  87 116 149 187 237 291 350
#
# _framework density 18.715713999999998
#
# number of rings (size 3 to 8) (size 9 to 14) (size 15 to 20)
#    0.000    2.067    1.333    2.800    0.933    4.267 
#    0.000    1.333    0.000    3.600    0.000    0.000 
#    0.000    2.133    0.000    0.000    0.000    0.000 
#
# Total GULP energy -334633.137478 kJ/mol
# GULP energy per Si atom -5577.218958 kJ/mol
# Density = 1.867312 g / cm^3
# Si number density = 18.715714 Si / 1000 Ang^3
#
#
#
# Elastic Constant Matrix: (Units=GPa)
#
#
# Indices 1 2 3 4 5 6 
#
# 1 85.4998 28.7430 17.4663 0.0000 0.0000 0.0000
# 2 28.7430 104.3141 35.2964 0.0000 0.0000 0.0000
# 3 17.4663 35.2964 68.7683 0.0000 0.0000 0.0000
# 4 0.0000 0.0000 0.0000 24.4845 0.0000 0.0000
# 5 0.0000 0.0000 0.0000 0.0000 20.0177 0.0000
# 6 0.0000 0.0000 0.0000 0.0000 0.0000 13.3395
#
#
#
# Elastic Compliance Matrix: (Units=1/GPa)
#
#
# Indices 1 2 3 4 5 6 
#
# 1 0.013068 -0.002998 -0.001780 0.000000 0.000000 0.000000
# 2 -0.002998 0.012289 -0.005546 0.000000 0.000000 0.000000
# 3 -0.001780 -0.005546 0.017840 0.000000 0.000000 0.000000
# 4 0.000000 0.000000 0.000000 0.040842 0.000000 0.000000
# 5 0.000000 0.000000 0.000000 0.000000 0.049956 0.000000
# 6 0.000000 0.000000 0.000000 0.000000 0.000000 0.074965
#
#
# Mechanical properties :
#
#
# Convention : Reuss Voigt Hill
#
# Bulk Modulus (GPa) = 44.34964 46.84374 45.59669
# Shear Modulus (GPa) = 21.08591 23.37344 22.22967
#
# Velocity S-wave (km/s) = 3.36019 3.53777 3.45012
# Velocity P-wave (km/s) = 6.22916 6.46306 6.34719
#
# Compressibility (1/GPa) = 0.02254810
#
# Stress axis : x y z
#
# Youngs Moduli (GPa) = 76.52550 81.37204 56.05280
#
# Poissons Ratio (x) = 0.24398 0.09978
# Poissons Ratio (y) = 0.22945 0.31087
# Poissons Ratio (z) = 0.13622 0.45130
#
# Static dielectric constant tensor:
#      x y z
#    x 1.671610 0.000000 0.000000 
#    y 0.000000 1.668750 0.000000 
#    z 0.000000 0.000000 1.651830 
# 
# From -- ./inp_files/48095.got.cif
#   From: 2010.05.17/outbox.cif.g08.bks.cpg/sg65_25_cif.got.tgz:48095.got - 2010.06.03 17:01:31.
