data_PCOD9492832
_publ_section_title
;
Structure prediction by ZEFSAII (Michael W. Deem and Ramdas Pophale) SiO2 
 PCOD9492832
Probable space group: C M M M
;
_chemical_formula_sum "Si O2"
_cell_formula_units_Z 56
_cell_length_a 21.263527
_cell_length_b 9.052853
_cell_length_c 14.985768
_cell_angle_alpha 90.000000
_cell_angle_beta 90.000000
_cell_angle_gamma 90.000000
_cell_volume 2884.694166
_symmetry_space_group_name_H-M "C M M M"
_symmetry_group_IT_number 65
_symmetry_cell_setting 'orthorhombic'
loop_
_space_group_symop_operation_xyz
x,y,z
-x,-y,z
x,-y,-z
-x,y,-z
-x,-y,-z
x,y,-z
-x,y,z
x,-y,z
1/2+x,1/2+y,z
1/2-x,1/2-y,z
1/2+x,1/2-y,-z
1/2-x,1/2+y,-z
1/2-x,1/2-y,-z
1/2+x,1/2+y,-z
1/2-x,1/2+y,z
1/2+x,1/2-y,z
loop_
_atom_site_type_symbol
_atom_site_label
_atom_site_fract_x
_atom_site_fract_y
_atom_site_fract_z
Si Si1 0.682350 0.320878 0.643992
Si Si2 0.312302 0.834768 0.000000
Si Si3 0.620857 0.175288 0.186681
Si Si4 0.574390 0.321851 0.500000
Si Si5 0.500000 0.677028 0.892465
O O1 0.688538 0.500000 0.644997
O O2 0.750000 0.250000 0.615857
O O3 0.663982 0.253154 0.739663
O O4 0.620919 0.282835 0.582853
O O5 0.250000 0.750000 0.000000
O O6 0.349029 0.810101 0.910256
O O7 0.291558 0.000000 0.000000
O O8 0.557094 0.261555 0.166749
O O9 0.612337 0.000000 0.206960
O O10 0.569733 0.500000 0.500000
O O11 0.500000 0.269083 0.500000
O O12 0.500000 0.500000 0.894681
O O13 0.500000 0.724881 0.000000
#
# Coordination Sequence:
#
# PCOD9492832 Si02
#       5
#    16   8  16   8   8
#     4  11  23  41  67  96 128 168 213 264 322 386
#     4  10  22  37  56  81 117 162 204 252 307 364
#     4  11  23  40  61  89 126 167 210 261 317 373
#     4   9  21  42  67  95 128 165 209 263 322 382
#     4  11  23  39  61  90 123 168 217 261 314 378
#
# _framework density 19.412803
#
# number of rings (size 3 to 8) (size 9 to 14) (size 15 to 20)
#    0.000    1.429    1.429    3.429    2.000    5.143 
#    0.000    2.143    0.000    3.429    0.000    0.000 
#    0.000    0.000    0.000    0.000    0.000    0.000 
#
# Total GULP energy -155907.941195 kJ/mol
# GULP energy per Si atom -5568.140757 kJ/mol
# Density = 1.936862 g / cm^3
# Si number density = 19.412803 Si / 1000 Ang^3
#
#
#
# Elastic Constant Matrix: (Units=GPa)
#
#
# Indices 1 2 3 4 5 6 
#
# 1 75.4515 211.4079 -53.7938 0.0000 0.0000 0.0000
# 2 211.4079 -136.3977 179.8659 0.0000 0.0000 0.0000
# 3 -53.7938 179.8659 2.7244 0.0000 0.0000 0.0000
# 4 0.0000 0.0000 0.0000 510.7361 0.0000 0.0000
# 5 0.0000 0.0000 0.0000 0.0000 43.6480 0.0000
# 6 0.0000 0.0000 0.0000 0.0000 0.0000 37.3713
#
#
#
# Elastic Compliance Matrix: (Units=1/GPa)
#
#
# Indices 1 2 3 4 5 6 
#
# 1 0.005205 0.001631 -0.004881 0.000000 0.000000 0.000000
# 2 0.001631 0.000428 0.003967 0.000000 0.000000 0.000000
# 3 -0.004881 0.003967 0.008746 0.000000 0.000000 0.000000
# 4 0.000000 0.000000 0.000000 0.001958 0.000000 0.000000
# 5 0.000000 0.000000 0.000000 0.000000 0.022911 0.000000
# 6 0.000000 0.000000 0.000000 0.000000 0.000000 0.026758
#
#
# Mechanical properties :
#
#
# Convention : Reuss Voigt Hill
#
# Bulk Modulus (GPa) = 63.24347 68.52650 65.88499
# Shear Modulus (GPa) = 71.59036 91.97095 81.78066
#
# Velocity S-wave (km/s) = 6.07931 6.89052 6.49759
# Velocity P-wave (km/s) = 9.05131 9.93388 9.50285
#
# Compressibility (1/GPa) = 0.01581191
#
# Stress axis : x y z
#
# Youngs Moduli (GPa) = 192.12915 2338.77453 114.34289
#
# Poissons Ratio (x) = -3.81356 0.55811
# Poissons Ratio (y) = -0.31328 -0.45365
# Poissons Ratio (z) = 0.93779 -9.27889
#
# Static dielectric constant tensor:
#      x y z
#    x 1.519340 0.000000 0.000000 
#    y 0.000000 1.600180 0.000000 
#    z 0.000000 0.000000 1.672460 
# 
# From -- ./inp_files/35578.got.cif
#   From: 2010.05.17/outbox.cif.g08.bks.cpg/sg65_18_cif.got.tgz:35578.got - 2010.06.03 17:01:31.
