data_PCOD9492754
_publ_section_title
;
Structure prediction by ZEFSAII (Michael W. Deem and Ramdas Pophale) SiO2 
 PCOD9492754
Probable space group: C M M M
;
_chemical_formula_sum "Si O2"
_cell_formula_units_Z 88
_cell_length_a 23.312564
_cell_length_b 17.319769
_cell_length_c 12.021121
_cell_angle_alpha 90.000000
_cell_angle_beta 90.000000
_cell_angle_gamma 90.000000
_cell_volume 4853.746668
_symmetry_space_group_name_H-M "C M M M"
_symmetry_group_IT_number 65
_symmetry_cell_setting 'orthorhombic'
loop_
_space_group_symop_operation_xyz
x,y,z
-x,-y,z
x,-y,-z
-x,y,-z
-x,-y,-z
x,y,-z
-x,y,z
x,-y,z
1/2+x,1/2+y,z
1/2-x,1/2-y,z
1/2+x,1/2-y,-z
1/2-x,1/2+y,-z
1/2-x,1/2-y,-z
1/2+x,1/2+y,-z
1/2-x,1/2+y,z
1/2+x,1/2-y,z
loop_
_atom_site_type_symbol
_atom_site_label
_atom_site_fract_x
_atom_site_fract_y
_atom_site_fract_z
Si Si1 0.657789 0.913283 0.133267
Si Si2 0.567211 0.592412 0.500000
Si Si3 0.932926 0.320796 0.271389
Si Si4 0.931969 0.000000 0.124706
Si Si5 0.723980 0.664185 0.128905
Si Si6 0.430883 0.909852 0.500000
Si Si7 0.891257 0.852876 0.735042
O O1 0.610510 0.857618 0.183770
O O2 0.722928 0.890297 0.161617
O O3 0.645479 0.000000 0.170848
O O4 0.654738 0.909461 0.000000
O O5 0.564626 0.500000 0.500000
O O6 0.500000 0.620158 0.500000
O O7 0.600794 0.619933 0.608693
O O8 0.916256 0.359771 0.390177
O O9 0.924069 0.228917 0.262829
O O10 0.000000 0.338929 0.251392
O O11 0.915539 0.922557 0.190199
O O12 0.000000 0.000000 0.116776
O O13 0.906923 0.000000 0.000000
O O14 0.750000 0.750000 0.128442
O O15 0.672131 0.659535 0.215195
O O16 0.706164 0.647105 0.000000
O O17 0.500000 0.914874 0.500000
O O18 0.409954 0.000000 0.500000
#
# Coordination Sequence:
#
# PCOD9492754 Si02
#       7
#    16   8  16   8  16   8  16
#     4  10  22  39  60  88 122 162 205 251 312 379
#     4  11  23  41  63  88 128 173 207 252 318 391
#     4  11  22  37  61  90 122 160 204 257 317 380
#     4  11  24  39  59  93 131 164 208 268 325 382
#     4  10  21  41  65  90 122 162 210 265 319 372
#     4   9  19  37  60  86 116 153 201 251 300 363
#     4  12  23  40  64  92 123 166 215 262 315 385
#
# _framework density 18.130324999999999
#
# number of rings (size 3 to 8) (size 9 to 14) (size 15 to 20)
#    0.000    1.364    2.727    3.273    1.273    2.909 
#    0.000    2.273    0.000    1.091    0.000    0.000 
#    0.000    0.000    0.000    0.000    0.000    0.000 
#
# Total GULP energy -245487.741076 kJ/mol
# GULP energy per Si atom -5579.266843 kJ/mol
# Density = 1.808906 g / cm^3
# Si number density = 18.130325 Si / 1000 Ang^3
#
#
#
# Elastic Constant Matrix: (Units=GPa)
#
#
# Indices 1 2 3 4 5 6 
#
# 1 101.3147 24.1542 58.9176 0.0000 0.0000 0.0000
# 2 24.1542 114.4898 40.2425 0.0000 0.0000 0.0000
# 3 58.9176 40.2425 105.9067 0.0000 0.0000 0.0000
# 4 0.0000 0.0000 0.0000 32.6601 0.0000 0.0000
# 5 0.0000 0.0000 0.0000 0.0000 29.5377 0.0000
# 6 0.0000 0.0000 0.0000 0.0000 0.0000 29.1818
#
#
#
# Elastic Compliance Matrix: (Units=1/GPa)
#
#
# Indices 1 2 3 4 5 6 
#
# 1 0.014597 -0.000260 -0.008022 0.000000 0.000000 0.000000
# 2 -0.000260 0.010085 -0.003688 0.000000 0.000000 0.000000
# 3 -0.008022 -0.003688 0.015306 0.000000 0.000000 0.000000
# 4 0.000000 0.000000 0.000000 0.030618 0.000000 0.000000
# 5 0.000000 0.000000 0.000000 0.000000 0.033855 0.000000
# 6 0.000000 0.000000 0.000000 0.000000 0.000000 0.034268
#
#
# Mechanical properties :
#
#
# Convention : Reuss Voigt Hill
#
# Bulk Modulus (GPa) = 62.30585 63.14888 62.72736
# Shear Modulus (GPa) = 29.75853 31.50238 30.63046
#
# Velocity S-wave (km/s) = 4.05578 4.17292 4.11476
# Velocity P-wave (km/s) = 7.50817 7.62390 7.56625
#
# Compressibility (1/GPa) = 0.01604986
#
# Stress axis : x y z
#
# Youngs Moduli (GPa) = 68.50642 99.15289 65.33306
#
# Poissons Ratio (x) = 0.02578 0.52409
# Poissons Ratio (y) = 0.01781 0.24092
# Poissons Ratio (z) = 0.54955 0.36564
#
# Static dielectric constant tensor:
#      x y z
#    x 1.543950 0.000000 0.000000 
#    y 0.000000 1.521760 0.000000 
#    z 0.000000 0.000000 1.611840 
# 
# From -- ./inp_files/28773.got.cif
#   From: 2010.05.17/outbox.cif.g08.bks.cpg/sg65_15_cif.got.tgz:28773.got - 2010.06.03 17:01:31.
