data_PCOD9492138
_publ_section_title
;
Structure prediction by ZEFSAII (Michael W. Deem and Ramdas Pophale) SiO2 
 PCOD9492138
Probable space group: C M M M
;
_chemical_formula_sum "Si O2"
_cell_formula_units_Z 88
_cell_length_a 21.407258
_cell_length_b 8.907679
_cell_length_c 24.159228
_cell_angle_alpha 90.000000
_cell_angle_beta 90.000000
_cell_angle_gamma 90.000000
_cell_volume 4606.898606
_symmetry_space_group_name_H-M "C M M M"
_symmetry_group_IT_number 65
_symmetry_cell_setting 'orthorhombic'
loop_
_space_group_symop_operation_xyz
x,y,z
-x,-y,z
x,-y,-z
-x,y,-z
-x,-y,-z
x,y,-z
-x,y,z
x,-y,z
1/2+x,1/2+y,z
1/2-x,1/2-y,z
1/2+x,1/2-y,-z
1/2-x,1/2+y,-z
1/2-x,1/2-y,-z
1/2+x,1/2+y,-z
1/2-x,1/2+y,z
1/2+x,1/2-y,z
loop_
_atom_site_type_symbol
_atom_site_label
_atom_site_fract_x
_atom_site_fract_y
_atom_site_fract_z
Si Si1 0.929039 0.320191 0.634504
Si Si2 0.000000 0.169936 0.066899
Si Si3 0.368670 0.820752 0.935371
Si Si4 0.312866 0.679368 0.831491
Si Si5 0.430212 0.319542 0.243743
Si Si6 0.183715 0.178364 0.434102
O O1 0.923479 0.500000 0.634307
O O2 0.923078 0.258665 0.696939
O O3 0.874860 0.249135 0.597493
O O4 0.000000 0.281434 0.615694
O O5 0.937176 0.258206 0.080381
O O6 0.000000 0.000000 0.090004
O O7 0.000000 0.158427 0.000000
O O8 0.322098 0.742618 0.893141
O O9 0.366782 0.000000 0.929737
O O10 0.357266 0.783481 0.000000
O O11 0.308605 0.500000 0.832627
O O12 0.250000 0.750000 0.807234
O O13 0.374013 0.723617 0.796525
O O14 0.500000 0.283543 0.221981
O O15 0.427346 0.500000 0.251228
O O16 0.177103 0.205417 0.500000
O O17 0.250000 0.250000 0.416602
O O18 0.185549 0.000000 0.424713
#
# Coordination Sequence:
#
# PCOD9492138 Si02
#       6
#    16   8  16  16  16  16
#     4  10  21  37  59  88 120 155 196 242 292 346
#     4   9  17  31  53  81 111 143 181 223 268 325
#     4  10  21  37  57  83 115 149 187 233 285 341
#     4  11  24  40  60  85 115 150 190 237 290 349
#     4   9  20  40  63  85 111 148 194 243 291 343
#     4  10  21  37  58  85 119 160 203 246 293 345
#
# _framework density 19.101787000000002
#
# number of rings (size 3 to 8) (size 9 to 14) (size 15 to 20)
#    0.000    2.091    0.000    2.455    1.273    7.273 
#    0.000    3.636    0.000    0.000    0.000    0.000 
#    0.000    0.000    0.000    0.000    0.000    0.000 
#
# Total GULP energy -245761.382382 kJ/mol
# GULP energy per Si atom -5585.485963 kJ/mol
# Density = 1.905831 g / cm^3
# Si number density = 19.101787 Si / 1000 Ang^3
#
#
#
# Elastic Constant Matrix: (Units=GPa)
#
#
# Indices 1 2 3 4 5 6 
#
# 1 189.8116 71.9023 84.9067 0.0000 0.0000 0.0000
# 2 71.9023 63.0776 48.3841 0.0000 0.0000 0.0000
# 3 84.9067 48.3841 68.4688 0.0000 0.0000 0.0000
# 4 0.0000 0.0000 0.0000 23.5164 0.0000 0.0000
# 5 0.0000 0.0000 0.0000 0.0000 11.9901 0.0000
# 6 0.0000 0.0000 0.0000 0.0000 0.0000 37.0795
#
#
#
# Elastic Compliance Matrix: (Units=1/GPa)
#
#
# Indices 1 2 3 4 5 6 
#
# 1 0.012560 -0.005175 -0.011919 0.000000 0.000000 0.000000
# 2 -0.005175 0.036751 -0.019552 0.000000 0.000000 0.000000
# 3 -0.011919 -0.019552 0.043202 0.000000 0.000000 0.000000
# 4 0.000000 0.000000 0.000000 0.042524 0.000000 0.000000
# 5 0.000000 0.000000 0.000000 0.000000 0.083402 0.000000
# 6 0.000000 0.000000 0.000000 0.000000 0.000000 0.026969
#
#
# Mechanical properties :
#
#
# Convention : Reuss Voigt Hill
#
# Bulk Modulus (GPa) = 52.02802 81.30491 66.66646
# Shear Modulus (GPa) = 15.37957 22.26151 18.82054
#
# Velocity S-wave (km/s) = 2.84057 3.41752 3.14232
# Velocity P-wave (km/s) = 6.16886 7.63080 6.93844
#
# Compressibility (1/GPa) = 0.01922041
#
# Stress axis : x y z
#
# Youngs Moduli (GPa) = 79.61650 27.21048 23.14711
#
# Poissons Ratio (x) = 0.14082 0.27588
# Poissons Ratio (y) = 0.41204 0.45258
# Poissons Ratio (z) = 0.94891 0.53203
#
# Static dielectric constant tensor:
#      x y z
#    x 1.692480 0.000000 0.000000 
#    y 0.000000 1.635190 0.000000 
#    z 0.000000 0.000000 1.651370 
# 
# From -- ./inp_files/70942.got.cif
#   From: 2010.05.17/outbox.cif.g08.bks.cpg/sg65_36_cif.got.tgz:70942.got - 2010.06.03 17:01:31.
