data_PCOD9492678
_publ_section_title
;
Structure prediction by ZEFSAII (Michael W. Deem and Ramdas Pophale) SiO2 
 PCOD9492678
Probable space group: C M M M
;
_chemical_formula_sum "Si O2"
_cell_formula_units_Z 72
_cell_length_a 24.772048
_cell_length_b 18.022612
_cell_length_c 7.832811
_cell_angle_alpha 90.000000
_cell_angle_beta 90.000000
_cell_angle_gamma 90.000000
_cell_volume 3497.013375
_symmetry_space_group_name_H-M "C M M M"
_symmetry_group_IT_number 65
_symmetry_cell_setting 'orthorhombic'
loop_
_space_group_symop_operation_xyz
x,y,z
-x,-y,z
x,-y,-z
-x,y,-z
-x,-y,-z
x,y,-z
-x,y,z
x,-y,z
1/2+x,1/2+y,z
1/2-x,1/2-y,z
1/2+x,1/2-y,-z
1/2-x,1/2+y,-z
1/2-x,1/2-y,-z
1/2+x,1/2+y,-z
1/2-x,1/2+y,z
1/2+x,1/2-y,z
loop_
_atom_site_type_symbol
_atom_site_label
_atom_site_fract_x
_atom_site_fract_y
_atom_site_fract_z
Si Si1 0.343244 0.805645 0.300663
Si Si2 0.937629 0.414841 0.793435
Si Si3 0.635169 0.358254 0.188964
Si Si4 0.937104 0.088995 0.500000
Si Si5 0.249498 0.416996 0.707032
O O1 0.333777 0.787358 0.500000
O O2 0.395758 0.857408 0.283997
O O3 0.351761 0.728965 0.204615
O O4 0.292843 0.854528 0.237303
O O5 0.925198 0.500000 0.743437
O O6 0.000000 0.399689 0.746780
O O7 0.934072 0.410806 0.000000
O O8 0.592949 0.379697 0.334225
O O9 0.691191 0.400640 0.223817
O O10 0.615038 0.375849 0.000000
O O11 0.000000 0.108970 0.500000
O O12 0.932090 0.000000 0.500000
O O13 0.251860 0.414356 0.500000
O O14 0.231749 0.500000 0.756228
#
# Coordination Sequence:
#
# PCOD9492678 Si02
#       5
#    16  16  16   8  16
#     4  11  22  38  61  93 131 174 220 267 320 381
#     4   9  19  36  56  81 120 169 218 270 324 378
#     4  12  25  43  69 100 132 171 215 266 330 392
#     4  11  26  50  75  98 129 167 211 270 330 390
#     4  10  21  39  64  94 132 175 219 268 321 382
#
# _framework density 20.588999000000001
#
# number of rings (size 3 to 8) (size 9 to 14) (size 15 to 20)
#    0.000    1.444    2.222    3.333    0.000    9.333 
#    0.000    2.222    0.000    0.000    0.000    0.000 
#    0.000    0.000    0.000    0.000    0.000    0.000 
#
# Total GULP energy -201428.532027 kJ/mol
# GULP energy per Si atom -5595.237001 kJ/mol
# Density = 2.054214 g / cm^3
# Si number density = 20.588999 Si / 1000 Ang^3
#
#
#
# Elastic Constant Matrix: (Units=GPa)
#
#
# Indices 1 2 3 4 5 6 
#
# 1 103.8339 40.6919 44.3868 0.0000 0.0000 0.0000
# 2 40.6919 76.1848 26.5453 0.0000 0.0000 0.0000
# 3 44.3868 26.5453 96.2999 0.0000 0.0000 0.0000
# 4 0.0000 0.0000 0.0000 18.8707 0.0000 0.0000
# 5 0.0000 0.0000 0.0000 0.0000 -0.1995 0.0000
# 6 0.0000 0.0000 0.0000 0.0000 0.0000 153.5484
#
#
#
# Elastic Compliance Matrix: (Units=1/GPa)
#
#
# Indices 1 2 3 4 5 6 
#
# 1 0.013963 -0.005770 -0.004846 0.000000 0.000000 0.000000
# 2 -0.005770 0.016905 -0.002000 0.000000 0.000000 0.000000
# 3 -0.004846 -0.002000 0.013169 0.000000 0.000000 0.000000
# 4 0.000000 0.000000 0.000000 0.052992 0.000000 0.000000
# 5 0.000000 0.000000 0.000000 0.000000 -5.012909 0.000000
# 6 0.000000 0.000000 0.000000 0.000000 0.000000 0.006513
#
#
# Mechanical properties :
#
#
# Convention : Reuss Voigt Hill
#
# Bulk Modulus (GPa) = 53.17549 55.50740 54.34144
# Shear Modulus (GPa) = -1.02504 45.42357 22.19927
#
# Velocity S-wave (km/s) = -0.70636 4.70212 3.28717
# Velocity P-wave (km/s) = 5.02175 7.51653 6.39203
#
# Compressibility (1/GPa) = 0.01880566
#
# Stress axis : x y z
#
# Youngs Moduli (GPa) = 71.61658 59.15510 75.93548
#
# Poissons Ratio (x) = 0.34131 0.36795
# Poissons Ratio (y) = 0.41321 0.15190
# Poissons Ratio (z) = 0.34702 0.11834
#
# Static dielectric constant tensor:
#      x y z
#    x 1.690760 0.000000 0.000000 
#    y 0.000000 1.716040 0.000000 
#    z 0.000000 0.000000 1.737030 
# 
# From -- ./inp_files/13605.got.cif
#   From: 2010.05.17/outbox.cif.g08.bks.cpg/sg65_7_cif.got.tgz:13605.got - 2010.06.03 17:01:31.
