data_PCOD9492870
_publ_section_title
;
Structure prediction by ZEFSAII (Michael W. Deem and Ramdas Pophale) SiO2 
 PCOD9492870
Probable space group: C M M M
;
_chemical_formula_sum "Si O2"
_cell_formula_units_Z 80
_cell_length_a 14.387321
_cell_length_b 26.866234
_cell_length_c 10.941085
_cell_angle_alpha 90.000000
_cell_angle_beta 90.000000
_cell_angle_gamma 90.000000
_cell_volume 4229.091859
_symmetry_space_group_name_H-M "C M M M"
_symmetry_group_IT_number 65
_symmetry_cell_setting 'orthorhombic'
loop_
_space_group_symop_operation_xyz
x,y,z
-x,-y,z
x,-y,-z
-x,y,-z
-x,-y,-z
x,y,-z
-x,y,z
x,-y,z
1/2+x,1/2+y,z
1/2-x,1/2-y,z
1/2+x,1/2-y,-z
1/2-x,1/2+y,-z
1/2-x,1/2-y,-z
1/2+x,1/2+y,-z
1/2-x,1/2+y,z
1/2+x,1/2-y,z
loop_
_atom_site_type_symbol
_atom_site_label
_atom_site_fract_x
_atom_site_fract_y
_atom_site_fract_z
Si Si1 0.606191 0.055958 0.646827
Si Si2 0.846695 0.220567 0.634505
Si Si3 0.604581 0.212331 0.139490
Si Si4 0.250752 0.133428 0.755798
Si Si5 0.395568 0.556090 0.854085
O O1 0.605809 0.055531 0.500000
O O2 0.500000 0.065256 0.687328
O O3 0.674792 0.098359 0.690117
O O4 0.632586 0.000000 0.688102
O O5 0.892117 0.224663 0.500000
O O6 0.750000 0.250000 0.625067
O O7 0.892459 0.245845 0.753952
O O8 0.814919 0.164943 0.665470
O O9 0.500000 0.189932 0.145346
O O10 0.686924 0.173031 0.167637
O O11 0.616754 0.231594 0.000000
O O12 0.181561 0.096687 0.825170
O O13 0.500000 0.569181 0.809522
O O14 0.373186 0.500000 0.808425
O O15 0.400654 0.553080 0.000000
#
# Coordination Sequence:
#
# PCOD9492870 Si02
#       5
#    16  16  16  16  16
#     4   9  18  32  51  79 114 148 181 217 261 320
#     4   9  20  36  53  76 106 140 180 224 269 319
#     4  10  22  38  55  79 112 146 180 222 275 336
#     4  11  19  32  57  82 107 139 183 229 275 320
#     4   9  19  35  53  76 107 142 182 226 270 319
#
# _framework density 18.916589999999999
#
# number of rings (size 3 to 8) (size 9 to 14) (size 15 to 20)
#    0.000    2.400    0.000    3.600    0.000    6.400 
#    0.000    2.000    0.000    1.800    0.000   15.400 
#    0.000    0.000    0.000    0.000    0.000    0.000 
#
# Total GULP energy -222713.264117 kJ/mol
# GULP energy per Si atom -5567.831603 kJ/mol
# Density = 1.887354 g / cm^3
# Si number density = 18.916590 Si / 1000 Ang^3
#
#
#
# Elastic Constant Matrix: (Units=GPa)
#
#
# Indices 1 2 3 4 5 6 
#
# 1 97.9407 50.6618 40.6364 0.0000 0.0000 0.0000
# 2 50.6618 104.1341 47.5033 0.0000 0.0000 0.0000
# 3 40.6364 47.5033 109.5791 0.0000 0.0000 0.0000
# 4 0.0000 0.0000 0.0000 -3.4401 0.0000 0.0000
# 5 0.0000 0.0000 0.0000 0.0000 24.3499 0.0000
# 6 0.0000 0.0000 0.0000 0.0000 0.0000 24.8987
#
#
#
# Elastic Compliance Matrix: (Units=1/GPa)
#
#
# Indices 1 2 3 4 5 6 
#
# 1 0.014327 -0.005667 -0.002856 0.000000 0.000000 0.000000
# 2 -0.005667 0.014212 -0.004059 0.000000 0.000000 0.000000
# 3 -0.002856 -0.004059 0.011945 0.000000 0.000000 0.000000
# 4 0.000000 0.000000 0.000000 -0.290690 0.000000 0.000000
# 5 0.000000 0.000000 0.000000 0.000000 0.041068 0.000000
# 6 0.000000 0.000000 0.000000 0.000000 0.000000 0.040163
#
#
# Mechanical properties :
#
#
# Convention : Reuss Voigt Hill
#
# Bulk Modulus (GPa) = 65.28245 65.47300 65.37773
# Shear Modulus (GPa) = -36.04773 20.68519 -7.68127
#
# Velocity S-wave (km/s) = -4.37007 3.31039 -2.01728
# Velocity P-wave (km/s) = 3.02031 7.02126 5.40465
#
# Compressibility (1/GPa) = 0.01531805
#
# Stress axis : x y z
#
# Youngs Moduli (GPa) = 69.79949 70.36379 83.71856
#
# Poissons Ratio (x) = 0.39876 0.23912
# Poissons Ratio (y) = 0.39556 0.33984
# Poissons Ratio (z) = 0.19936 0.28563
#
# Static dielectric constant tensor:
#      x y z
#    x 1.662050 0.000000 0.000000 
#    y 0.000000 1.681150 0.000000 
#    z 0.000000 0.000000 1.668420 
# 
# From -- ./inp_files/24634.got.cif
#   From: 2010.05.17/outbox.cif.g08.bks.cpg/sg65_13_cif.got.tgz:24634.got - 2010.06.03 17:01:31.
