data_PCOD9492076
_publ_section_title
;
Structure prediction by ZEFSAII (Michael W. Deem and Ramdas Pophale) SiO2 
 PCOD9492076
Probable space group: C M M M
;
_chemical_formula_sum "Si O2"
_cell_formula_units_Z 56
_cell_length_a 7.893276
_cell_length_b 18.690532
_cell_length_c 18.653246
_cell_angle_alpha 90.000000
_cell_angle_beta 90.000000
_cell_angle_gamma 90.000000
_cell_volume 2751.904572
_symmetry_space_group_name_H-M "C M M M"
_symmetry_group_IT_number 65
_symmetry_cell_setting 'orthorhombic'
loop_
_space_group_symop_operation_xyz
x,y,z
-x,-y,z
x,-y,-z
-x,y,-z
-x,-y,-z
x,y,-z
-x,y,z
x,-y,z
1/2+x,1/2+y,z
1/2-x,1/2-y,z
1/2+x,1/2-y,-z
1/2-x,1/2+y,-z
1/2-x,1/2-y,-z
1/2+x,1/2+y,-z
1/2-x,1/2+y,z
1/2+x,1/2-y,z
loop_
_atom_site_type_symbol
_atom_site_label
_atom_site_fract_x
_atom_site_fract_y
_atom_site_fract_z
Si Si1 0.796715 0.081340 0.360575
Si Si2 0.206712 0.417079 0.080325
Si Si3 0.702047 0.167359 0.781350
Si Si4 0.795395 0.833193 0.500000
O O1 0.760229 0.122071 0.286967
O O2 0.732644 0.126478 0.428663
O O3 0.000000 0.077331 0.367933
O O4 0.730789 0.000000 0.359774
O O5 0.254951 0.500000 0.092521
O O6 0.268298 0.367324 0.144655
O O7 0.000000 0.415384 0.080232
O O8 0.261820 0.396124 0.000000
O O9 0.500000 0.162779 0.783439
O O10 0.750000 0.250000 0.774494
O O11 0.750000 0.750000 0.500000
O O12 0.000000 0.837327 0.500000
#
# Coordination Sequence:
#
# PCOD9492076 Si02
#       4
#    16  16  16   8
#     4  10  21  38  59  81 107 140 178 220 266 316
#     4   8  15  30  52  76 102 135 176 220 265 314
#     4  11  22  35  53  79 110 143 180 221 266 316
#     4  10  21  37  57  81 109 142 177 214 260 314
#
# _framework density 20.349544999999999
#
# number of rings (size 3 to 8) (size 9 to 14) (size 15 to 20)
#    0.000    2.286    0.000    3.857    0.000    7.429 
#    0.000    0.000    0.000    5.143    0.000   10.000 
#    0.000    0.000    0.000    0.000    0.000    0.000 
#
# Total GULP energy -156386.489538 kJ/mol
# GULP energy per Si atom -5585.231769 kJ/mol
# Density = 2.030323 g / cm^3
# Si number density = 20.349545 Si / 1000 Ang^3
#
#
#
# Elastic Constant Matrix: (Units=GPa)
#
#
# Indices 1 2 3 4 5 6 
#
# 1 22.2538 6.3936 8.3265 0.0000 0.0000 0.0000
# 2 6.3936 203.4294 143.2244 0.0000 0.0000 0.0000
# 3 8.3265 143.2244 213.9215 0.0000 0.0000 0.0000
# 4 0.0000 0.0000 0.0000 29.3220 0.0000 0.0000
# 5 0.0000 0.0000 0.0000 0.0000 30.7460 0.0000
# 6 0.0000 0.0000 0.0000 0.0000 0.0000 11.4641
#
#
#
# Elastic Compliance Matrix: (Units=1/GPa)
#
#
# Indices 1 2 3 4 5 6 
#
# 1 0.045613 -0.000347 -0.001543 0.000000 0.000000 0.000000
# 2 -0.000347 0.009302 -0.006214 0.000000 0.000000 0.000000
# 3 -0.001543 -0.006214 0.008895 0.000000 0.000000 0.000000
# 4 0.000000 0.000000 0.000000 0.034104 0.000000 0.000000
# 5 0.000000 0.000000 0.000000 0.000000 0.032525 0.000000
# 6 0.000000 0.000000 0.000000 0.000000 0.000000 0.087229
#
#
# Mechanical properties :
#
#
# Convention : Reuss Voigt Hill
#
# Bulk Modulus (GPa) = 21.00776 83.94374 52.47575
# Shear Modulus (GPa) = 20.02057 33.08376 26.55216
#
# Velocity S-wave (km/s) = 3.14002 4.03646 3.61613
# Velocity P-wave (km/s) = 4.84687 7.94132 6.57863
#
# Compressibility (1/GPa) = 0.04760145
#
# Stress axis : x y z
#
# Youngs Moduli (GPa) = 21.92344 107.50735 112.42086
#
# Poissons Ratio (x) = 0.03734 0.17345
# Poissons Ratio (y) = 0.00761 0.69860
# Poissons Ratio (z) = 0.03383 0.66807
#
# Static dielectric constant tensor:
#      x y z
#    x 1.754410 0.000000 0.000000 
#    y 0.000000 1.673290 0.000000 
#    z 0.000000 0.000000 1.714720 
# 
# From -- ./inp_files/35458.got.cif
#   From: 2010.05.17/outbox.cif.g08.bks.cpg/sg65_18_cif.got.tgz:35458.got - 2010.06.03 17:01:31.
