data_PCOD9492096
_publ_section_title
;
Structure prediction by ZEFSAII (Michael W. Deem and Ramdas Pophale) SiO2 
 PCOD9492096
Probable space group: C M M M
;
_chemical_formula_sum "Si O2"
_cell_formula_units_Z 96
_cell_length_a 8.808971
_cell_length_b 18.938454
_cell_length_c 31.412921
_cell_angle_alpha 90.000000
_cell_angle_beta 90.000000
_cell_angle_gamma 90.000000
_cell_volume 5240.563959
_symmetry_space_group_name_H-M "C M M M"
_symmetry_group_IT_number 65
_symmetry_cell_setting 'orthorhombic'
loop_
_space_group_symop_operation_xyz
x,y,z
-x,-y,z
x,-y,-z
-x,y,-z
-x,-y,-z
x,y,-z
-x,y,z
x,-y,z
1/2+x,1/2+y,z
1/2-x,1/2-y,z
1/2+x,1/2-y,-z
1/2-x,1/2+y,-z
1/2-x,1/2-y,-z
1/2+x,1/2+y,-z
1/2-x,1/2+y,z
1/2+x,1/2-y,z
loop_
_atom_site_type_symbol
_atom_site_label
_atom_site_fract_x
_atom_site_fract_y
_atom_site_fract_z
Si Si1 0.318829 0.671617 0.206839
Si Si2 0.816468 0.417722 0.129304
Si Si3 0.681233 0.916583 0.283990
Si Si4 0.317168 0.826824 0.951586
Si Si5 0.321981 0.415719 0.624852
Si Si6 0.318327 0.171750 0.548201
O O1 0.500000 0.675613 0.206243
O O2 0.250000 0.750000 0.205713
O O3 0.259082 0.627359 0.166535
O O4 0.262185 0.630648 0.248772
O O5 0.774800 0.500000 0.131915
O O6 0.773814 0.383679 0.083891
O O7 0.000000 0.413017 0.133626
O O8 0.500000 0.908245 0.280822
O O9 0.737629 0.897153 0.331211
O O10 0.716533 0.000000 0.277262
O O11 0.500000 0.821602 0.951209
O O12 0.250000 0.750000 0.941053
O O13 0.270017 0.844861 0.000000
O O14 0.500000 0.398465 0.628636
O O15 0.307344 0.500000 0.619408
O O16 0.250755 0.376953 0.584578
O O17 0.282124 0.146929 0.500000
O O18 0.500000 0.174772 0.552282
O O19 0.250000 0.250000 0.552612
#
# Coordination Sequence:
#
# PCOD9492096 Si02
#       6
#    16  16  16  16  16  16
#     4  12  25  40  59  83 112 145 185 230 276 329
#     4  10  21  37  57  82 113 148 186 229 278 331
#     4  10  21  39  62  86 114 146 181 224 275 330
#     4   9  18  33  54  80 110 146 187 230 276 326
#     4  10  21  37  58  85 116 149 186 228 275 329
#     4  10  21  37  57  81 111 148 190 235 282 332
#
# _framework density 18.318639000000001
#
# number of rings (size 3 to 8) (size 9 to 14) (size 15 to 20)
#    0.000    1.833    0.000    4.000    0.000    8.667 
#    0.000    6.667    0.000    0.000    0.000    3.500 
#    0.000    0.000    0.000    0.000    0.000    0.000 
#
# Total GULP energy -268192.000971 kJ/mol
# GULP energy per Si atom -5587.333354 kJ/mol
# Density = 1.827694 g / cm^3
# Si number density = 18.318639 Si / 1000 Ang^3
#
#
#
# Elastic Constant Matrix: (Units=GPa)
#
#
# Indices 1 2 3 4 5 6 
#
# 1 77.3009 66.4888 68.6486 0.0000 0.0000 0.0000
# 2 66.4888 121.1309 107.4769 0.0000 0.0000 0.0000
# 3 68.6486 107.4769 158.9474 0.0000 0.0000 0.0000
# 4 0.0000 0.0000 0.0000 35.5661 0.0000 0.0000
# 5 0.0000 0.0000 0.0000 0.0000 28.1273 0.0000
# 6 0.0000 0.0000 0.0000 0.0000 0.0000 30.8609
#
#
#
# Elastic Compliance Matrix: (Units=1/GPa)
#
#
# Indices 1 2 3 4 5 6 
#
# 1 0.025420 -0.010528 -0.003860 0.000000 0.000000 0.000000
# 2 -0.010528 0.024997 -0.012356 0.000000 0.000000 0.000000
# 3 -0.003860 -0.012356 0.016313 0.000000 0.000000 0.000000
# 4 0.000000 0.000000 0.000000 0.028117 0.000000 0.000000
# 5 0.000000 0.000000 0.000000 0.000000 0.035553 0.000000
# 6 0.000000 0.000000 0.000000 0.000000 0.000000 0.032403
#
#
# Mechanical properties :
#
#
# Convention : Reuss Voigt Hill
#
# Bulk Modulus (GPa) = 75.51154 93.62311 84.56733
# Shear Modulus (GPa) = 22.65470 26.56183 24.60827
#
# Velocity S-wave (km/s) = 3.52049 3.81200 3.66914
# Velocity P-wave (km/s) = 7.60499 8.40204 8.01343
#
# Compressibility (1/GPa) = 0.01324301
#
# Stress axis : x y z
#
# Youngs Moduli (GPa) = 39.33921 40.00412 61.30114
#
# Poissons Ratio (x) = 0.42118 0.23660
# Poissons Ratio (y) = 0.41418 0.75741
# Poissons Ratio (z) = 0.15183 0.49427
#
# Static dielectric constant tensor:
#      x y z
#    x 1.613700 0.000000 0.000000 
#    y 0.000000 1.596620 0.000000 
#    z 0.000000 0.000000 1.616060 
# 
# From -- ./inp_files/73189.got.cif
#   From: 2010.05.17/outbox.cif.g08.bks.cpg/sg65_37_cif.got.tgz:73189.got - 2010.06.03 17:01:31.
