data_PCOD9492179
_publ_section_title
;
Structure prediction by ZEFSAII (Michael W. Deem and Ramdas Pophale) SiO2 
 PCOD9492179
Probable space group: C M M M
;
_chemical_formula_sum "Si O2"
_cell_formula_units_Z 72
_cell_length_a 8.550642
_cell_length_b 32.632677
_cell_length_c 14.340533
_cell_angle_alpha 90.000000
_cell_angle_beta 90.000000
_cell_angle_gamma 90.000000
_cell_volume 4001.443778
_symmetry_space_group_name_H-M "C M M M"
_symmetry_group_IT_number 65
_symmetry_cell_setting 'orthorhombic'
loop_
_space_group_symop_operation_xyz
x,y,z
-x,-y,z
x,-y,-z
-x,y,-z
-x,-y,-z
x,y,-z
-x,y,z
x,-y,z
1/2+x,1/2+y,z
1/2-x,1/2-y,z
1/2+x,1/2-y,-z
1/2-x,1/2+y,-z
1/2-x,1/2-y,-z
1/2+x,1/2+y,-z
1/2-x,1/2+y,z
1/2+x,1/2-y,z
loop_
_atom_site_type_symbol
_atom_site_label
_atom_site_fract_x
_atom_site_fract_y
_atom_site_fract_z
Si Si1 0.000000 0.544907 0.112227
Si Si2 0.812627 0.546151 0.611540
Si Si3 0.322740 0.591752 0.109310
Si Si4 0.314904 0.792585 0.393733
Si Si5 0.321357 0.371333 0.701274
O O1 0.167279 0.565550 0.132835
O O2 0.000000 0.500000 0.155086
O O3 0.000000 0.542140 0.000000
O O4 0.785046 0.549956 0.500000
O O5 0.760337 0.500000 0.639416
O O6 0.736097 0.584564 0.663264
O O7 0.000000 0.548310 0.625713
O O8 0.500000 0.572967 0.120303
O O9 0.316160 0.627118 0.186380
O O10 0.310718 0.603225 0.000000
O O11 0.252700 0.796551 0.500000
O O12 0.500000 0.788908 0.398094
O O13 0.250000 0.750000 0.353676
O O14 0.273417 0.833507 0.338844
O O15 0.500000 0.366139 0.671422
#
# Coordination Sequence:
#
# PCOD9492179 Si02
#       5
#     8  16  16  16  16
#     4   9  18  32  52  76 101 139 189 235 284 334
#     4   9  19  35  52  72 103 143 183 223 268 320
#     4   9  20  37  53  75 109 145 185 234 284 333
#     4  10  21  37  58  84 114 144 175 219 273 328
#     4  11  22  34  54  81 107 142 184 224 274 332
#
# _framework density 17.993506
#
# number of rings (size 3 to 8) (size 9 to 14) (size 15 to 20)
#    0.000    2.333    0.000    2.667    3.111    6.222 
#    0.000    5.556    0.000    0.667    0.000    0.000 
#    0.000    0.000    0.000    0.000    0.000    0.000 
#
# Total GULP energy -200543.325471 kJ/mol
# GULP energy per Si atom -5570.647930 kJ/mol
# Density = 1.795255 g / cm^3
# Si number density = 17.993506 Si / 1000 Ang^3
#
#
#
# Elastic Constant Matrix: (Units=GPa)
#
#
# Indices 1 2 3 4 5 6 
#
# 1 90.8753 43.7689 28.6397 0.0000 0.0000 0.0000
# 2 43.7689 109.5659 39.3924 0.0000 0.0000 0.0000
# 3 28.6397 39.3924 54.6816 0.0000 0.0000 0.0000
# 4 0.0000 0.0000 0.0000 7.2154 0.0000 0.0000
# 5 0.0000 0.0000 0.0000 0.0000 21.9153 0.0000
# 6 0.0000 0.0000 0.0000 0.0000 0.0000 22.3672
#
#
#
# Elastic Compliance Matrix: (Units=1/GPa)
#
#
# Indices 1 2 3 4 5 6 
#
# 1 0.014434 -0.004113 -0.004597 0.000000 0.000000 0.000000
# 2 -0.004113 0.013489 -0.007563 0.000000 0.000000 0.000000
# 3 -0.004597 -0.007563 0.026144 0.000000 0.000000 0.000000
# 4 0.000000 0.000000 0.000000 0.138592 0.000000 0.000000
# 5 0.000000 0.000000 0.000000 0.000000 0.045630 0.000000
# 6 0.000000 0.000000 0.000000 0.000000 0.000000 0.044708
#
#
# Mechanical properties :
#
#
# Convention : Reuss Voigt Hill
#
# Bulk Modulus (GPa) = 46.46726 53.19165 49.82946
# Shear Modulus (GPa) = 15.49345 19.85438 17.67392
#
# Velocity S-wave (km/s) = 2.93756 3.32538 3.13747
# Velocity P-wave (km/s) = 6.11443 6.66108 6.39360
#
# Compressibility (1/GPa) = 0.02152053
#
# Stress axis : x y z
#
# Youngs Moduli (GPa) = 69.28148 74.13249 38.25019
#
# Poissons Ratio (x) = 0.30494 0.17582
# Poissons Ratio (y) = 0.28498 0.28930
# Poissons Ratio (z) = 0.31845 0.56068
#
# Static dielectric constant tensor:
#      x y z
#    x 1.666030 0.000000 0.000000 
#    y 0.000000 1.591020 0.000000 
#    z 0.000000 0.000000 1.637830 
# 
# From -- ./inp_files/36980.got.cif
#   From: 2010.05.17/outbox.cif.g08.bks.cpg/sg65_19_cif.got.tgz:36980.got - 2010.06.03 17:01:31.
