data_PCOD9492218
_publ_section_title
;
Structure prediction by ZEFSAII (Michael W. Deem and Ramdas Pophale) SiO2 
 PCOD9492218
Probable space group: C M M M
;
_chemical_formula_sum "Si O2"
_cell_formula_units_Z 64
_cell_length_a 12.069951
_cell_length_b 30.134778
_cell_length_c 8.555666
_cell_angle_alpha 90.000000
_cell_angle_beta 90.000000
_cell_angle_gamma 90.000000
_cell_volume 3111.912130
_symmetry_space_group_name_H-M "C M M M"
_symmetry_group_IT_number 65
_symmetry_cell_setting 'orthorhombic'
loop_
_space_group_symop_operation_xyz
x,y,z
-x,-y,z
x,-y,-z
-x,y,-z
-x,-y,-z
x,y,-z
-x,y,z
x,-y,z
1/2+x,1/2+y,z
1/2-x,1/2-y,z
1/2+x,1/2-y,-z
1/2-x,1/2+y,-z
1/2-x,1/2-y,-z
1/2+x,1/2+y,-z
1/2-x,1/2+y,z
1/2+x,1/2-y,z
loop_
_atom_site_type_symbol
_atom_site_label
_atom_site_fract_x
_atom_site_fract_y
_atom_site_fract_z
Si Si1 0.500000 0.552027 0.185572
Si Si2 0.729757 0.449380 0.685087
Si Si3 0.695673 0.701196 0.175473
Si Si4 0.122992 0.771999 0.500000
Si Si5 0.123678 0.625260 0.815283
O O1 0.500000 0.500000 0.237067
O O2 0.615472 0.570565 0.247228
O O3 0.500000 0.553646 0.000000
O O4 0.718631 0.451335 0.500000
O O5 0.743721 0.500000 0.745138
O O6 0.829691 0.417884 0.730784
O O7 0.750000 0.750000 0.164749
O O8 0.624613 0.701999 0.334325
O O9 0.792998 0.665939 0.204637
O O10 0.647170 0.692182 0.000000
O O11 0.250000 0.750000 0.500000
O O12 0.000000 0.748009 0.500000
O O13 0.000000 0.636845 0.763669
O O14 0.121713 0.615555 0.000000
#
# Coordination Sequence:
#
# PCOD9492218 Si02
#       5
#     8  16  16   8  16
#     4   9  17  33  59  85 113 155 205 255 309 371
#     4  10  21  37  58  88 124 162 205 256 315 378
#     4   9  20  40  64  91 124 165 212 264 318 378
#     4  10  22  40  64  98 131 166 215 267 323 388
#     4  10  22  40  62  90 123 163 211 260 315 380
#
# _framework density 20.566133000000001
#
# number of rings (size 3 to 8) (size 9 to 14) (size 15 to 20)
#    0.000    2.375    0.000    1.125    1.750    8.500 
#    2.250    7.500    0.000    0.000    0.000    0.000 
#    0.000    0.000    0.000    0.000    0.000    0.000 
#
# Total GULP energy -178236.665272 kJ/mol
# GULP energy per Si atom -5569.895790 kJ/mol
# Density = 2.051932 g / cm^3
# Si number density = 20.566133 Si / 1000 Ang^3
#
#
#
# Elastic Constant Matrix: (Units=GPa)
#
#
# Indices 1 2 3 4 5 6 
#
# 1 105.1988 25.4424 48.4718 0.0000 0.0000 0.0000
# 2 25.4424 64.0427 21.2375 0.0000 0.0000 0.0000
# 3 48.4718 21.2375 96.7230 0.0000 0.0000 0.0000
# 4 0.0000 0.0000 0.0000 25.7211 0.0000 0.0000
# 5 0.0000 0.0000 0.0000 0.0000 14.1308 0.0000
# 6 0.0000 0.0000 0.0000 0.0000 0.0000 11.7214
#
#
#
# Elastic Compliance Matrix: (Units=1/GPa)
#
#
# Indices 1 2 3 4 5 6 
#
# 1 0.012950 -0.003228 -0.005781 0.000000 0.000000 0.000000
# 2 -0.003228 0.017645 -0.002257 0.000000 0.000000 0.000000
# 3 -0.005781 -0.002257 0.013732 0.000000 0.000000 0.000000
# 4 0.000000 0.000000 0.000000 0.038879 0.000000 0.000000
# 5 0.000000 0.000000 0.000000 0.000000 0.070768 0.000000
# 6 0.000000 0.000000 0.000000 0.000000 0.000000 0.085314
#
#
# Mechanical properties :
#
#
# Convention : Reuss Voigt Hill
#
# Bulk Modulus (GPa) = 45.88083 50.69644 48.28864
# Shear Modulus (GPa) = 18.58158 21.70217 20.14188
#
# Velocity S-wave (km/s) = 3.00909 3.25197 3.13289
# Velocity P-wave (km/s) = 5.86773 6.22931 6.05122
#
# Compressibility (1/GPa) = 0.02179559
#
# Stress axis : x y z
#
# Youngs Moduli (GPa) = 77.21910 56.67256 72.82510
#
# Poissons Ratio (x) = 0.18292 0.42101
# Poissons Ratio (y) = 0.24923 0.16436
# Poissons Ratio (z) = 0.44642 0.12790
#
# Static dielectric constant tensor:
#      x y z
#    x 1.758890 0.000000 0.000000 
#    y 0.000000 1.733090 0.000000 
#    z 0.000000 0.000000 1.750710 
# 
# From -- ./inp_files/4927.got.cif
#   From: 2010.05.17/outbox.cif.g08.bks.cpg/sg65_3_cif.got.tgz:4927.got - 2010.06.03 17:01:31.
