data_PCOD9492961
_publ_section_title
;
Structure prediction by ZEFSAII (Michael W. Deem and Ramdas Pophale) SiO2 
 PCOD9492961
Probable space group: C M M M
;
_chemical_formula_sum "Si O2"
_cell_formula_units_Z 120
_cell_length_a 23.886293
_cell_length_b 25.107879
_cell_length_c 9.787731
_cell_angle_alpha 90.000000
_cell_angle_beta 90.000000
_cell_angle_gamma 90.000000
_cell_volume 5870.036575
_symmetry_space_group_name_H-M "C M M M"
_symmetry_group_IT_number 65
_symmetry_cell_setting 'orthorhombic'
loop_
_space_group_symop_operation_xyz
x,y,z
-x,-y,z
x,-y,-z
-x,y,-z
-x,-y,-z
x,y,-z
-x,y,z
x,-y,z
1/2+x,1/2+y,z
1/2-x,1/2-y,z
1/2+x,1/2-y,-z
1/2-x,1/2+y,-z
1/2-x,1/2-y,-z
1/2+x,1/2+y,-z
1/2-x,1/2+y,z
1/2+x,1/2-y,z
loop_
_atom_site_type_symbol
_atom_site_label
_atom_site_fract_x
_atom_site_fract_y
_atom_site_fract_z
Si Si1 0.245235 0.444471 0.656254
Si Si2 0.783777 0.673426 0.342877
Si Si3 0.615826 0.841353 0.839905
Si Si4 0.062706 0.936088 0.000000
Si Si5 0.938359 0.231626 0.159270
Si Si6 0.432355 0.062384 0.340129
Si Si7 0.151575 0.822588 0.348526
Si Si8 0.136036 0.060803 0.735386
O O1 0.268880 0.445232 0.500000
O O2 0.213792 0.500000 0.673713
O O3 0.212279 0.390791 0.662766
O O4 0.297103 0.443344 0.759780
O O5 0.794994 0.690128 0.500000
O O6 0.830231 0.687099 0.231987
O O7 0.717965 0.684802 0.315069
O O8 0.569035 0.795341 0.832193
O O9 0.595517 0.893769 0.758529
O O10 0.627149 0.852859 0.000000
O O11 0.098697 0.925083 0.134300
O O12 0.000000 0.912902 0.000000
O O13 0.057039 0.000000 0.000000
O O14 0.889546 0.204082 0.242798
O O15 0.000000 0.215986 0.209268
O O16 0.933520 0.216970 0.000000
O O17 0.416152 0.071460 0.500000
O O18 0.500000 0.068165 0.332192
O O19 0.420215 0.000000 0.307661
O O20 0.143149 0.800592 0.500000
O O21 0.135827 0.885439 0.352423
O O22 0.120328 0.000000 0.687754
#
# Coordination Sequence:
#
# PCOD9492961 Si02
#       8
#    16  16  16   8  16  16  16  16
#     4   8  14  28  51  75 103 144 189 228 271 329
#     4   9  19  36  56  83 119 156 194 239 296 357
#     4  11  23  39  60  89 123 159 202 249 297 352
#     4   9  18  30  44  68 102 141 184 226 274 339
#     4  10  24  45  65  84 112 154 198 243 300 361
#     4   9  19  37  62  92 125 164 209 252 298 355
#     4  10  22  39  61  90 119 150 196 250 298 352
#     4   9  17  31  52  78 109 146 186 228 280 340
#
# _framework density 20.442803000000001
#
# number of rings (size 3 to 8) (size 9 to 14) (size 15 to 20)
#    0.000    2.600    0.000    2.400    0.933    5.333 
#    3.600    4.667    0.000    1.200    0.000    9.333 
#    0.000    0.000    0.000    0.000    0.000    0.000 
#
# Total GULP energy -334120.165921 kJ/mol
# GULP energy per Si atom -5568.669432 kJ/mol
# Density = 2.039627 g / cm^3
# Si number density = 20.442803 Si / 1000 Ang^3
#
#
#
# Elastic Constant Matrix: (Units=GPa)
#
#
# Indices 1 2 3 4 5 6 
#
# 1 121.9960 30.3827 73.3116 0.0000 0.0000 0.0000
# 2 30.3827 93.7224 37.0446 0.0000 0.0000 0.0000
# 3 73.3116 37.0446 90.2625 0.0000 0.0000 0.0000
# 4 0.0000 0.0000 0.0000 75.9897 0.0000 0.0000
# 5 0.0000 0.0000 0.0000 0.0000 27.3949 0.0000
# 6 0.0000 0.0000 0.0000 0.0000 0.0000 22.4945
#
#
#
# Elastic Compliance Matrix: (Units=1/GPa)
#
#
# Indices 1 2 3 4 5 6 
#
# 1 0.016013 -0.000060 -0.012981 0.000000 0.000000 0.000000
# 2 -0.000060 0.012736 -0.005178 0.000000 0.000000 0.000000
# 3 -0.012981 -0.005178 0.023747 0.000000 0.000000 0.000000
# 4 0.000000 0.000000 0.000000 0.013160 0.000000 0.000000
# 5 0.000000 0.000000 0.000000 0.000000 0.036503 0.000000
# 6 0.000000 0.000000 0.000000 0.000000 0.000000 0.044455
#
#
# Mechanical properties :
#
#
# Convention : Reuss Voigt Hill
#
# Bulk Modulus (GPa) = 62.27639 65.27319 63.77479
# Shear Modulus (GPa) = 26.53864 36.19194 31.36529
#
# Velocity S-wave (km/s) = 3.60695 4.21218 3.92126
# Velocity P-wave (km/s) = 6.91929 7.46027 7.19487
#
# Compressibility (1/GPa) = 0.01605745
#
# Stress axis : x y z
#
# Youngs Moduli (GPa) = 62.45081 78.51751 42.11044
#
# Poissons Ratio (x) = 0.00472 0.54663
# Poissons Ratio (y) = 0.00375 0.21805
# Poissons Ratio (z) = 0.81066 0.40658
#
# Static dielectric constant tensor:
#      x y z
#    x 1.736610 0.000000 0.000000 
#    y 0.000000 1.806140 0.000000 
#    z 0.000000 0.000000 1.703240 
# 
# From -- ./inp_files/17044.got.cif
#   From: 2010.05.17/outbox.cif.g08.bks.cpg/sg65_9_cif.got.tgz:17044.got - 2010.06.03 17:01:31.
