data_PCOD9492914
_publ_section_title
;
Structure prediction by ZEFSAII (Michael W. Deem and Ramdas Pophale) SiO2 
 PCOD9492914
Probable space group: C M M M
;
_chemical_formula_sum "Si O2"
_cell_formula_units_Z 66
_cell_length_a 10.128227
_cell_length_b 14.154222
_cell_length_c 26.700823
_cell_angle_alpha 90.000000
_cell_angle_beta 90.000000
_cell_angle_gamma 90.000000
_cell_volume 3827.754513
_symmetry_space_group_name_H-M "C M M M"
_symmetry_group_IT_number 65
_symmetry_cell_setting 'orthorhombic'
loop_
_space_group_symop_operation_xyz
x,y,z
-x,-y,z
x,-y,-z
-x,y,-z
-x,-y,-z
x,y,-z
-x,y,z
x,-y,z
1/2+x,1/2+y,z
1/2-x,1/2-y,z
1/2+x,1/2-y,-z
1/2-x,1/2+y,-z
1/2-x,1/2-y,-z
1/2+x,1/2+y,-z
1/2-x,1/2+y,z
1/2+x,1/2-y,z
loop_
_atom_site_type_symbol
_atom_site_label
_atom_site_fract_x
_atom_site_fract_y
_atom_site_fract_z
Si Si1 0.339983 0.500000 0.556947
Si Si2 0.843047 0.159275 0.364118
Si Si3 0.500000 0.500000 0.000000
Si Si4 0.152660 0.000000 0.719802
Si Si5 0.243916 0.364619 0.000000
Si Si6 0.153441 0.500000 0.813166
Si Si7 0.150742 0.663001 0.893683
O O1 0.500000 0.500000 0.556005
O O2 0.291379 0.500000 0.500000
O O3 0.304193 0.406908 0.588635
O O4 0.750000 0.250000 0.361038
O O5 0.000000 0.182789 0.368228
O O6 0.828399 0.091331 0.315782
O O7 0.383529 0.582620 0.000000
O O8 0.250748 0.000000 0.766113
O O9 0.000000 0.000000 0.736658
O O10 0.250000 0.250000 0.000000
O O11 0.172783 0.386133 0.052412
O O12 0.174424 0.590071 0.848923
O O13 0.000000 0.500000 0.797133
O O14 0.250000 0.750000 0.889547
O O15 0.000000 0.696765 0.891383
#
# Coordination Sequence:
#
# PCOD9492914 Si02
#       7
#     8  16   2   8   8   8  16
#     4   8  15  30  51  76 110 149 180 214 262 321
#     4   9  18  33  54  78 105 138 184 226 268 324
#     4  12  24  40  62  94 116 164 194 232 296 346
#     4   9  20  38  54  73 102 143 183 226 275 333
#     4  10  23  38  63  89 122 150 197 236 280 355
#     4  10  22  39  55  81 111 140 182 231 282 336
#     4  10  22  39  60  85 116 148 183 230 283 339
#
# _framework density 17.242484999999999
#
# number of rings (size 3 to 8) (size 9 to 14) (size 15 to 20)
#    0.000    2.545    0.000    2.545    6.788    3.394 
#    2.182    9.091    0.000    0.727    0.000    0.000 
#    0.000    0.000    0.000    0.000    0.000    0.000 
#
# Total GULP energy -183713.081264 kJ/mol
# GULP energy per Si atom -5567.063069 kJ/mol
# Density = 1.720324 g / cm^3
# Si number density = 17.242485 Si / 1000 Ang^3
#
#
#
# Elastic Constant Matrix: (Units=GPa)
#
#
# Indices 1 2 3 4 5 6 
#
# 1 124.6575 92.2328 85.2399 0.0000 0.0000 0.0000
# 2 92.2328 133.0397 53.2829 0.0000 0.0000 0.0000
# 3 85.2399 53.2829 143.5013 0.0000 0.0000 0.0000
# 4 0.0000 0.0000 0.0000 4.6741 0.0000 0.0000
# 5 0.0000 0.0000 0.0000 0.0000 14.6880 0.0000
# 6 0.0000 0.0000 0.0000 0.0000 0.0000 41.2018
#
#
#
# Elastic Compliance Matrix: (Units=1/GPa)
#
#
# Indices 1 2 3 4 5 6 
#
# 1 0.024028 -0.012853 -0.009500 0.000000 0.000000 0.000000
# 2 -0.012853 0.015705 0.001803 0.000000 0.000000 0.000000
# 3 -0.009500 0.001803 0.011942 0.000000 0.000000 0.000000
# 4 0.000000 0.000000 0.000000 0.213945 0.000000 0.000000
# 5 0.000000 0.000000 0.000000 0.000000 0.068083 0.000000
# 6 0.000000 0.000000 0.000000 0.000000 0.000000 0.024271
#
#
# Mechanical properties :
#
#
# Convention : Reuss Voigt Hill
#
# Bulk Modulus (GPa) = 94.56040 95.85664 95.20852
# Shear Modulus (GPa) = 12.41930 23.47563 17.94746
#
# Velocity S-wave (km/s) = 2.68670 3.69385 3.22978
# Velocity P-wave (km/s) = 8.03648 8.59690 8.32141
#
# Compressibility (1/GPa) = 0.01057525
#
# Stress axis : x y z
#
# Youngs Moduli (GPa) = 41.61796 63.67406 83.73708
#
# Poissons Ratio (x) = 0.81841 0.79553
# Poissons Ratio (y) = 0.53492 -0.15101
# Poissons Ratio (z) = 0.39538 -0.11483
#
# Static dielectric constant tensor:
#      x y z
#    x 1.564130 0.000000 0.000000 
#    y 0.000000 1.585970 0.000000 
#    z 0.000000 0.000000 1.590070 
# 
# From -- ./inp_files/72442.got.cif
#   From: 2010.05.17/outbox.cif.g08.bks.cpg/sg65_37_cif.got.tgz:72442.got - 2010.06.03 17:01:31.
