data_PCOD9492141
_publ_section_title
;
Structure prediction by ZEFSAII (Michael W. Deem and Ramdas Pophale) SiO2 
 PCOD9492141
Probable space group: C M M M
;
_chemical_formula_sum "Si O2"
_cell_formula_units_Z 80
_cell_length_a 8.714632
_cell_length_b 18.789492
_cell_length_c 25.993856
_cell_angle_alpha 90.000000
_cell_angle_beta 90.000000
_cell_angle_gamma 90.000000
_cell_volume 4256.325174
_symmetry_space_group_name_H-M "C M M M"
_symmetry_group_IT_number 65
_symmetry_cell_setting 'orthorhombic'
loop_
_space_group_symop_operation_xyz
x,y,z
-x,-y,z
x,-y,-z
-x,y,-z
-x,-y,-z
x,y,-z
-x,y,z
x,-y,z
1/2+x,1/2+y,z
1/2-x,1/2-y,z
1/2+x,1/2-y,-z
1/2-x,1/2+y,-z
1/2-x,1/2-y,-z
1/2+x,1/2+y,-z
1/2-x,1/2+y,z
1/2+x,1/2-y,z
loop_
_atom_site_type_symbol
_atom_site_label
_atom_site_fract_x
_atom_site_fract_y
_atom_site_fract_z
Si Si1 0.682992 0.329401 0.747372
Si Si2 0.814285 0.417283 0.157128
Si Si3 0.316486 0.328212 0.439944
Si Si4 0.314976 0.171688 0.941741
Si Si5 0.683808 0.916889 0.651749
O O1 0.500000 0.326020 0.747076
O O2 0.750000 0.250000 0.747484
O O3 0.741394 0.371615 0.797373
O O4 0.741862 0.371502 0.697414
O O5 0.770989 0.500000 0.160859
O O6 0.769121 0.383599 0.102248
O O7 0.000000 0.413027 0.161387
O O8 0.282131 0.342834 0.500000
O O9 0.500000 0.327213 0.433481
O O10 0.250000 0.250000 0.427730
O O11 0.242459 0.385020 0.401946
O O12 0.500000 0.175666 0.941364
O O13 0.250000 0.250000 0.930191
O O14 0.266773 0.152328 0.000000
O O15 0.500000 0.910408 0.654758
O O16 0.724287 0.000000 0.656763
#
# Coordination Sequence:
#
# PCOD9492141 Si02
#       5
#    16  16  16  16  16
#     4  12  25  41  62  85 112 147 189 235 283 339
#     4  10  21  37  57  83 116 150 186 232 284 337
#     4  10  21  38  61  88 119 155 195 238 282 332
#     4   9  18  33  54  80 110 147 190 233 278 330
#     4  11  24  41  61  86 118 153 189 233 285 339
#
# _framework density 18.795556000000001
#
# number of rings (size 3 to 8) (size 9 to 14) (size 15 to 20)
#    0.000    1.600    0.000    4.800    0.000    8.800 
#    0.000    4.000    0.000    0.000    0.000    4.200 
#    0.000    0.000    0.000    0.000    0.000    0.000 
#
# Total GULP energy -223622.338696 kJ/mol
# GULP energy per Si atom -5590.558467 kJ/mol
# Density = 1.875278 g / cm^3
# Si number density = 18.795556 Si / 1000 Ang^3
#
#
#
# Elastic Constant Matrix: (Units=GPa)
#
#
# Indices 1 2 3 4 5 6 
#
# 1 64.0572 72.3965 56.3026 0.0000 0.0000 0.0000
# 2 72.3965 191.2758 114.6105 0.0000 0.0000 0.0000
# 3 56.3026 114.6105 123.9326 0.0000 0.0000 0.0000
# 4 0.0000 0.0000 0.0000 -130.9459 0.0000 0.0000
# 5 0.0000 0.0000 0.0000 0.0000 8.3182 0.0000
# 6 0.0000 0.0000 0.0000 0.0000 0.0000 31.7226
#
#
#
# Elastic Compliance Matrix: (Units=1/GPa)
#
#
# Indices 1 2 3 4 5 6 
#
# 1 0.029732 -0.007087 -0.006953 0.000000 0.000000 0.000000
# 2 -0.007087 0.013415 -0.009186 0.000000 0.000000 0.000000
# 3 -0.006953 -0.009186 0.019723 0.000000 0.000000 0.000000
# 4 0.000000 0.000000 0.000000 -0.007637 0.000000 0.000000
# 5 0.000000 0.000000 0.000000 0.000000 0.120218 0.000000
# 6 0.000000 0.000000 0.000000 0.000000 0.000000 0.031523
#
#
# Mechanical properties :
#
#
# Convention : Reuss Voigt Hill
#
# Bulk Modulus (GPa) = 60.91256 96.20943 78.56100
# Shear Modulus (GPa) = 19.31253 -9.11730 5.09761
#
# Velocity S-wave (km/s) = 3.20895 -2.20484 1.64864
# Velocity P-wave (km/s) = 6.79766 6.69453 6.74629
#
# Compressibility (1/GPa) = 0.01641698
#
# Stress axis : x y z
#
# Youngs Moduli (GPa) = 33.63326 74.54608 50.70287
#
# Poissons Ratio (x) = 0.52831 0.35256
# Poissons Ratio (y) = 0.23836 0.46575
# Poissons Ratio (z) = 0.23387 0.68477
#
# Static dielectric constant tensor:
#      x y z
#    x 1.631020 0.000000 0.000000 
#    y 0.000000 1.612350 0.000000 
#    z 0.000000 0.000000 1.642700 
# 
# From -- ./inp_files/72706.got.cif
#   From: 2010.05.17/outbox.cif.g08.bks.cpg/sg65_37_cif.got.tgz:72706.got - 2010.06.03 17:01:31.
