data_PCOD9492962
_publ_section_title
;
Structure prediction by ZEFSAII (Michael W. Deem and Ramdas Pophale) SiO2 
 PCOD9492962
Probable space group: C M M M
;
_chemical_formula_sum "Si O2"
_cell_formula_units_Z 68
_cell_length_a 15.281163
_cell_length_b 9.500178
_cell_length_c 25.403084
_cell_angle_alpha 90.000000
_cell_angle_beta 90.000000
_cell_angle_gamma 90.000000
_cell_volume 3687.861437
_symmetry_space_group_name_H-M "C M M M"
_symmetry_group_IT_number 65
_symmetry_cell_setting 'orthorhombic'
loop_
_space_group_symop_operation_xyz
x,y,z
-x,-y,z
x,-y,-z
-x,y,-z
-x,-y,-z
x,y,-z
-x,y,z
x,-y,z
1/2+x,1/2+y,z
1/2-x,1/2-y,z
1/2+x,1/2-y,-z
1/2-x,1/2+y,-z
1/2-x,1/2-y,-z
1/2+x,1/2+y,-z
1/2-x,1/2+y,z
1/2+x,1/2-y,z
loop_
_atom_site_type_symbol
_atom_site_label
_atom_site_fract_x
_atom_site_fract_y
_atom_site_fract_z
Si Si1 0.837298 0.168266 0.111397
Si Si2 0.397626 0.831805 0.666912
Si Si3 0.726830 0.500000 0.500000
Si Si4 0.104685 0.160956 0.230339
Si Si5 0.250000 0.750000 0.415880
Si Si6 0.500000 0.835297 0.936927
O O1 0.750000 0.250000 0.095365
O O2 0.849950 0.183789 0.174453
O O3 0.917001 0.249122 0.084168
O O4 0.836160 0.000000 0.099998
O O5 0.500000 0.792544 0.657337
O O6 0.370712 0.764673 0.722720
O O7 0.333327 0.780388 0.621372
O O8 0.393184 0.000000 0.670019
O O9 0.729804 0.379180 0.453810
O O10 0.000000 0.175215 0.221333
O O11 0.121358 0.000000 0.247317
O O12 0.500000 0.000000 0.919237
O O13 0.500000 0.835576 0.000000
#
# Coordination Sequence:
#
# PCOD9492962 Si02
#       6
#    16  16   4  16   8   8
#     4  11  23  41  64  95 132 171 219 264 323 385
#     4  10  22  39  61  90 123 160 204 248 310 377
#     4  10  24  42  66  84 122 160 208 252 314 354
#     4   9  19  37  60  90 127 164 204 257 311 375
#     4  11  22  44  62  90 118 162 201 264 302 370
#     4  11  25  45  69  95 127 173 223 274 323 376
#
# _framework density 18.438870000000001
#
# number of rings (size 3 to 8) (size 9 to 14) (size 15 to 20)
#    0.000    1.765    2.353    1.059    3.294    3.294 
#    0.000    3.529    0.000    0.000    0.000    0.000 
#    0.000    0.000    0.000    0.000    0.000    0.000 
#
# Total GULP energy -189307.775279 kJ/mol
# GULP energy per Si atom -5567.875744 kJ/mol
# Density = 1.839690 g / cm^3
# Si number density = 18.438870 Si / 1000 Ang^3
#
#
#
# Elastic Constant Matrix: (Units=GPa)
#
#
# Indices 1 2 3 4 5 6 
#
# 1 121.2169 75.3466 49.6241 0.0000 0.0000 0.0000
# 2 75.3466 159.5136 68.8847 0.0000 0.0000 0.0000
# 3 49.6241 68.8847 78.4068 0.0000 0.0000 0.0000
# 4 0.0000 0.0000 0.0000 59.6760 0.0000 0.0000
# 5 0.0000 0.0000 0.0000 0.0000 -0.4873 0.0000
# 6 0.0000 0.0000 0.0000 0.0000 0.0000 -0.5305
#
#
#
# Elastic Compliance Matrix: (Units=1/GPa)
#
#
# Indices 1 2 3 4 5 6 
#
# 1 0.012559 -0.004028 -0.004410 0.000000 0.000000 0.000000
# 2 -0.004028 0.011393 -0.007460 0.000000 0.000000 0.000000
# 3 -0.004410 -0.007460 0.022099 0.000000 0.000000 0.000000
# 4 0.000000 0.000000 0.000000 0.016757 0.000000 0.000000
# 5 0.000000 0.000000 0.000000 0.000000 -2.052305 0.000000
# 6 0.000000 0.000000 0.000000 0.000000 0.000000 -1.885139
#
#
# Mechanical properties :
#
#
# Convention : Reuss Voigt Hill
#
# Bulk Modulus (GPa) = 70.14949 82.98311 76.56630
# Shear Modulus (GPa) = -1.30273 22.75045 10.72386
#
# Velocity S-wave (km/s) = -0.84146 3.51640 2.41423
# Velocity P-wave (km/s) = 6.09778 7.84786 7.02751
#
# Compressibility (1/GPa) = 0.01425527
#
# Stress axis : x y z
#
# Youngs Moduli (GPa) = 79.62714 87.77089 45.25006
#
# Poissons Ratio (x) = 0.35352 0.19954
# Poissons Ratio (y) = 0.32071 0.33759
# Poissons Ratio (z) = 0.35114 0.65481
#
# Static dielectric constant tensor:
#      x y z
#    x 1.663110 0.000000 0.000000 
#    y 0.000000 1.616800 0.000000 
#    z 0.000000 0.000000 1.598810 
# 
# From -- ./inp_files/70381.got.cif
#   From: 2010.05.17/outbox.cif.g08.bks.cpg/sg65_36_cif.got.tgz:70381.got - 2010.06.03 17:01:31.
