data_PCOD9492841
_publ_section_title
;
Structure prediction by ZEFSAII (Michael W. Deem and Ramdas Pophale) SiO2 
 PCOD9492841
Probable space group: C M M M
;
_chemical_formula_sum "Si O2"
_cell_formula_units_Z 56
_cell_length_a 21.365851
_cell_length_b 8.364940
_cell_length_c 15.236937
_cell_angle_alpha 90.000000
_cell_angle_beta 90.000000
_cell_angle_gamma 90.000000
_cell_volume 2723.207268
_symmetry_space_group_name_H-M "C M M M"
_symmetry_group_IT_number 65
_symmetry_cell_setting 'orthorhombic'
loop_
_space_group_symop_operation_xyz
x,y,z
-x,-y,z
x,-y,-z
-x,y,-z
-x,-y,-z
x,y,-z
-x,y,z
x,-y,z
1/2+x,1/2+y,z
1/2-x,1/2-y,z
1/2+x,1/2-y,-z
1/2-x,1/2+y,-z
1/2-x,1/2-y,-z
1/2+x,1/2+y,-z
1/2-x,1/2+y,z
1/2+x,1/2-y,z
loop_
_atom_site_type_symbol
_atom_site_label
_atom_site_fract_x
_atom_site_fract_y
_atom_site_fract_z
Si Si1 0.872466 0.692177 0.682756
Si Si2 0.074349 0.308793 0.000000
Si Si3 0.000000 0.807687 0.393941
Si Si4 0.681308 0.191280 0.500000
Si Si5 0.679239 0.311293 0.135160
O O1 0.867129 0.500000 0.691102
O O2 0.943098 0.742390 0.664478
O O3 0.845207 0.751538 0.590745
O O4 0.836996 0.768755 0.764421
O O5 0.119603 0.256803 0.080766
O O6 0.070683 0.500000 0.000000
O O7 0.000000 0.252169 0.000000
O O8 0.000000 0.755901 0.500000
O O9 0.000000 0.000000 0.396061
O O10 0.750000 0.250000 0.500000
O O11 0.673628 0.000000 0.500000
O O12 0.680241 0.500000 0.121084
O O13 0.750000 0.250000 0.113234
#
# Coordination Sequence:
#
# PCOD9492841 Si02
#       5
#    16   8   8   8  16
#     4  11  23  41  64  93 130 176 225 275 333 397
#     4  11  26  49  76 105 137 177 222 273 337 406
#     4  11  23  39  61  92 129 176 227 279 337 398
#     4  10  22  37  58  87 123 168 216 270 325 384
#     4  12  26  46  72 103 139 178 225 279 338 405
#
# _framework density 20.563987000000001
#
# number of rings (size 3 to 8) (size 9 to 14) (size 15 to 20)
#    0.000    0.857    1.429    5.571    2.000    6.286 
#    0.000    0.000    0.000    0.000    0.000    0.000 
#    0.000    0.000    0.000    0.000    0.000    0.000 
#
# Total GULP energy -156112.170099 kJ/mol
# GULP energy per Si atom -5575.434646 kJ/mol
# Density = 2.051718 g / cm^3
# Si number density = 20.563987 Si / 1000 Ang^3
#
#
#
# Elastic Constant Matrix: (Units=GPa)
#
#
# Indices 1 2 3 4 5 6 
#
# 1 201.5031 33.1688 63.3085 0.0000 0.0000 0.0000
# 2 33.1688 74.3803 22.8093 0.0000 0.0000 0.0000
# 3 63.3085 22.8093 125.0545 0.0000 0.0000 0.0000
# 4 0.0000 0.0000 0.0000 48.0087 0.0000 0.0000
# 5 0.0000 0.0000 0.0000 0.0000 41.6374 0.0000
# 6 0.0000 0.0000 0.0000 0.0000 0.0000 37.7169
#
#
#
# Elastic Compliance Matrix: (Units=1/GPa)
#
#
# Indices 1 2 3 4 5 6 
#
# 1 0.006143 -0.001891 -0.002765 0.000000 0.000000 0.000000
# 2 -0.001891 0.014823 -0.001746 0.000000 0.000000 0.000000
# 3 -0.002765 -0.001746 0.009715 0.000000 0.000000 0.000000
# 4 0.000000 0.000000 0.000000 0.020830 0.000000 0.000000
# 5 0.000000 0.000000 0.000000 0.000000 0.024017 0.000000
# 6 0.000000 0.000000 0.000000 0.000000 0.000000 0.026513
#
#
# Mechanical properties :
#
#
# Convention : Reuss Voigt Hill
#
# Bulk Modulus (GPa) = 55.94087 71.05681 63.49884
# Shear Modulus (GPa) = 41.38947 44.24936 42.81942
#
# Velocity S-wave (km/s) = 4.49120 4.64377 4.56812
# Velocity P-wave (km/s) = 7.35913 7.96127 7.66612
#
# Compressibility (1/GPa) = 0.01787602
#
# Stress axis : x y z
#
# Youngs Moduli (GPa) = 162.79576 67.46117 102.93733
#
# Poissons Ratio (x) = 0.12760 0.28459
# Poissons Ratio (y) = 0.30791 0.17975
# Poissons Ratio (z) = 0.45009 0.11780
#
# Static dielectric constant tensor:
#      x y z
#    x 1.502440 0.000000 0.000000 
#    y 0.000000 1.746880 0.000000 
#    z 0.000000 0.000000 1.740510 
# 
# From -- ./inp_files/43605.got.cif
#   From: 2010.05.17/outbox.cif.g08.bks.cpg/sg65_22_cif.got.tgz:43605.got - 2010.06.03 17:01:31.
