data_PCOD9492820
_publ_section_title
;
Structure prediction by ZEFSAII (Michael W. Deem and Ramdas Pophale) SiO2 
 PCOD9492820
Probable space group: C M M M
;
_chemical_formula_sum "Si O2"
_cell_formula_units_Z 72
_cell_length_a 27.323975
_cell_length_b 10.111587
_cell_length_c 14.875369
_cell_angle_alpha 90.000000
_cell_angle_beta 90.000000
_cell_angle_gamma 90.000000
_cell_volume 4109.897113
_symmetry_space_group_name_H-M "C M M M"
_symmetry_group_IT_number 65
_symmetry_cell_setting 'orthorhombic'
loop_
_space_group_symop_operation_xyz
x,y,z
-x,-y,z
x,-y,-z
-x,y,-z
-x,-y,-z
x,y,-z
-x,y,z
x,-y,z
1/2+x,1/2+y,z
1/2-x,1/2-y,z
1/2+x,1/2-y,-z
1/2-x,1/2+y,-z
1/2-x,1/2-y,-z
1/2+x,1/2+y,-z
1/2-x,1/2+y,z
1/2+x,1/2-y,z
loop_
_atom_site_type_symbol
_atom_site_label
_atom_site_fract_x
_atom_site_fract_y
_atom_site_fract_z
Si Si1 0.059476 0.500000 0.608657
Si Si2 0.298251 0.656345 0.300604
Si Si3 0.209041 0.142619 0.500000
Si Si4 0.097869 0.247236 0.281792
Si Si5 0.941074 0.000000 0.604836
Si Si6 0.058606 0.347867 0.099219
O O1 0.066781 0.500000 0.500000
O O2 0.084378 0.625617 0.657145
O O3 0.000000 0.500000 0.624138
O O4 0.289710 0.500000 0.277308
O O5 0.250000 0.750000 0.293006
O O6 0.316438 0.654837 0.405198
O O7 0.345207 0.723336 0.256640
O O8 0.250000 0.250000 0.500000
O O9 0.234166 0.000000 0.500000
O O10 0.077737 0.125265 0.339523
O O11 0.072544 0.263943 0.185423
O O12 0.924315 0.000000 0.500000
O O13 0.000000 0.000000 0.603268
O O14 0.075715 0.500000 0.112573
O O15 0.000000 0.352132 0.096075
O O16 0.075800 0.303054 0.000000
#
# Coordination Sequence:
#
# PCOD9492820 Si02
#       6
#     8  16   8  16   8  16
#     4  11  24  38  54  84 122 159 204 244 278 344
#     4  10  22  37  55  80 112 150 196 245 291 345
#     4   8  16  32  50  70  99 138 186 236 279 324
#     4  12  22  37  60  86 117 158 201 242 293 353
#     4  11  24  38  56  82 122 167 198 232 288 358
#     4   9  18  35  60  88 116 149 194 247 298 347
#
# _framework density 17.518687
#
# number of rings (size 3 to 8) (size 9 to 14) (size 15 to 20)
#    0.000    1.778    2.222    3.333    4.667    1.778 
#    0.000    0.556    0.000    2.667    0.000    0.000 
#    0.000    0.000    0.000    0.000    0.000    0.000 
#
# Total GULP energy -200417.527079 kJ/mol
# GULP energy per Si atom -5567.153530 kJ/mol
# Density = 1.747881 g / cm^3
# Si number density = 17.518687 Si / 1000 Ang^3
#
#
#
# Elastic Constant Matrix: (Units=GPa)
#
#
# Indices 1 2 3 4 5 6 
#
# 1 90.7568 42.3934 33.2415 0.0000 0.0000 0.0000
# 2 42.3934 124.7716 55.1344 0.0000 0.0000 0.0000
# 3 33.2415 55.1344 125.9783 0.0000 0.0000 0.0000
# 4 0.0000 0.0000 0.0000 17.1352 0.0000 0.0000
# 5 0.0000 0.0000 0.0000 0.0000 8.5948 0.0000
# 6 0.0000 0.0000 0.0000 0.0000 0.0000 9.2679
#
#
#
# Elastic Compliance Matrix: (Units=1/GPa)
#
#
# Indices 1 2 3 4 5 6 
#
# 1 0.013462 -0.003725 -0.001922 0.000000 0.000000 0.000000
# 2 -0.003725 0.010967 -0.003817 0.000000 0.000000 0.000000
# 3 -0.001922 -0.003817 0.010115 0.000000 0.000000 0.000000
# 4 0.000000 0.000000 0.000000 0.058359 0.000000 0.000000
# 5 0.000000 0.000000 0.000000 0.000000 0.116349 0.000000
# 6 0.000000 0.000000 0.000000 0.000000 0.000000 0.107899
#
#
# Mechanical properties :
#
#
# Convention : Reuss Voigt Hill
#
# Bulk Modulus (GPa) = 64.03154 67.00505 65.51829
# Shear Modulus (GPa) = 14.65047 21.04873 17.84960
#
# Velocity S-wave (km/s) = 2.89498 3.47003 3.19547
# Velocity P-wave (km/s) = 6.91407 7.37466 7.14807
#
# Compressibility (1/GPa) = 0.01561730
#
# Stress axis : x y z
#
# Youngs Moduli (GPa) = 74.28129 91.18479 98.85848
#
# Poissons Ratio (x) = 0.33964 0.19002
# Poissons Ratio (y) = 0.27668 0.37732
# Poissons Ratio (z) = 0.14278 0.34803
#
# Static dielectric constant tensor:
#      x y z
#    x 1.632630 0.000000 0.000000 
#    y 0.000000 1.003770 0.000000 
#    z 0.000000 0.000000 1.613450 
# 
# From -- ./inp_files/46581.got.cif
#   From: 2010.05.17/outbox.cif.g08.bks.cpg/sg65_24_cif.got.tgz:46581.got - 2010.06.03 17:01:31.
