data_PCOD9492808
_publ_section_title
;
Structure prediction by ZEFSAII (Michael W. Deem and Ramdas Pophale) SiO2 
 PCOD9492808
Probable space group: C M M M
;
_chemical_formula_sum "Si O2"
_cell_formula_units_Z 56
_cell_length_a 10.770832
_cell_length_b 13.854573
_cell_length_c 18.920187
_cell_angle_alpha 90.000000
_cell_angle_beta 90.000000
_cell_angle_gamma 90.000000
_cell_volume 2823.370169
_symmetry_space_group_name_H-M "C M M M"
_symmetry_group_IT_number 65
_symmetry_cell_setting 'orthorhombic'
loop_
_space_group_symop_operation_xyz
x,y,z
-x,-y,z
x,-y,-z
-x,y,-z
-x,-y,-z
x,y,-z
-x,y,z
x,-y,z
1/2+x,1/2+y,z
1/2-x,1/2-y,z
1/2+x,1/2-y,-z
1/2-x,1/2+y,-z
1/2-x,1/2-y,-z
1/2+x,1/2+y,-z
1/2-x,1/2+y,z
1/2+x,1/2-y,z
loop_
_atom_site_type_symbol
_atom_site_label
_atom_site_fract_x
_atom_site_fract_y
_atom_site_fract_z
Si Si1 0.641377 0.614159 0.188407
Si Si2 0.351550 0.109142 0.578553
Si Si3 0.750000 0.250000 0.695472
Si Si4 0.638355 0.117063 0.080938
O O1 0.500000 0.623718 0.162051
O O2 0.658947 0.500000 0.206810
O O3 0.663820 0.684467 0.254409
O O4 0.746312 0.640367 0.130878
O O5 0.307181 0.139737 0.500000
O O6 0.500000 0.105231 0.575137
O O7 0.318115 0.177337 0.642734
O O8 0.305310 0.000000 0.590762
O O9 0.500000 0.148069 0.105932
O O10 0.635448 0.000000 0.078985
O O11 0.654502 0.150170 0.000000
#
# Coordination Sequence:
#
# PCOD9492808 Si02
#       4
#    16  16   8  16
#     4  10  22  37  53  80 117 151 185 229 280 333
#     4   9  19  36  57  81 107 137 180 231 275 319
#     4  12  21  34  55  80 110 150 186 220 269 336
#     4   8  15  31  56  82 107 141 188 237 281 327
#
# _framework density 19.834451999999999
#
# number of rings (size 3 to 8) (size 9 to 14) (size 15 to 20)
#    0.000    2.571    0.000    3.857    0.000    2.857 
#    0.000    6.429    0.000    0.000    0.000   12.000 
#    0.000    0.000    0.000    0.000    0.000    0.000 
#
# Total GULP energy -156151.567586 kJ/mol
# GULP energy per Si atom -5576.841699 kJ/mol
# Density = 1.978931 g / cm^3
# Si number density = 19.834452 Si / 1000 Ang^3
#
#
#
# Elastic Constant Matrix: (Units=GPa)
#
#
# Indices 1 2 3 4 5 6 
#
# 1 134.0641 45.3807 83.6317 0.0000 0.0000 0.0000
# 2 45.3807 105.2687 52.6840 0.0000 0.0000 0.0000
# 3 83.6317 52.6840 129.9428 0.0000 0.0000 0.0000
# 4 0.0000 0.0000 0.0000 27.3387 0.0000 0.0000
# 5 0.0000 0.0000 0.0000 0.0000 42.2358 0.0000
# 6 0.0000 0.0000 0.0000 0.0000 0.0000 -17.3736
#
#
#
# Elastic Compliance Matrix: (Units=1/GPa)
#
#
# Indices 1 2 3 4 5 6 
#
# 1 0.012711 -0.001738 -0.007476 0.000000 0.000000 0.000000
# 2 -0.001738 0.012155 -0.003810 0.000000 0.000000 0.000000
# 3 -0.007476 -0.003810 0.014052 0.000000 0.000000 0.000000
# 4 0.000000 0.000000 0.000000 0.036578 0.000000 0.000000
# 5 0.000000 0.000000 0.000000 0.000000 0.023677 0.000000
# 6 0.000000 0.000000 0.000000 0.000000 0.000000 -0.057559
#
#
# Mechanical properties :
#
#
# Convention : Reuss Voigt Hill
#
# Bulk Modulus (GPa) = 77.69626 81.40760 79.55193
# Shear Modulus (GPa) = 69.48921 22.94546 46.21734
#
# Velocity S-wave (km/s) = 5.92542 3.40494 4.83240
# Velocity P-wave (km/s) = 9.27748 7.52268 8.44578
#
# Compressibility (1/GPa) = 0.01287063
#
# Stress axis : x y z
#
# Youngs Moduli (GPa) = 78.66965 82.26800 71.16357
#
# Poissons Ratio (x) = 0.14299 0.53205
# Poissons Ratio (y) = 0.13673 0.27111
# Poissons Ratio (z) = 0.58817 0.31341
#
# Static dielectric constant tensor:
#      x y z
#    x 1.688440 0.000000 0.000000 
#    y 0.000000 1.736710 0.000000 
#    z 0.000000 0.000000 1.681940 
# 
# From -- ./inp_files/37436.got.cif
#   From: 2010.05.17/outbox.cif.g08.bks.cpg/sg65_19_cif.got.tgz:37436.got - 2010.06.03 17:01:31.
