data_PCOD9492201
_publ_section_title
;
Structure prediction by ZEFSAII (Michael W. Deem and Ramdas Pophale) SiO2 
 PCOD9492201
Probable space group: C M M M
;
_chemical_formula_sum "Si O2"
_cell_formula_units_Z 72
_cell_length_a 19.701794
_cell_length_b 20.320858
_cell_length_c 9.184937
_cell_angle_alpha 90.000000
_cell_angle_beta 90.000000
_cell_angle_gamma 90.000000
_cell_volume 3677.257113
_symmetry_space_group_name_H-M "C M M M"
_symmetry_group_IT_number 65
_symmetry_cell_setting 'orthorhombic'
loop_
_space_group_symop_operation_xyz
x,y,z
-x,-y,z
x,-y,-z
-x,y,-z
-x,-y,-z
x,y,-z
-x,y,z
x,-y,z
1/2+x,1/2+y,z
1/2-x,1/2-y,z
1/2+x,1/2-y,-z
1/2-x,1/2+y,-z
1/2-x,1/2-y,-z
1/2+x,1/2+y,-z
1/2-x,1/2+y,z
1/2+x,1/2-y,z
loop_
_atom_site_type_symbol
_atom_site_label
_atom_site_fract_x
_atom_site_fract_y
_atom_site_fract_z
Si Si1 0.082578 0.572253 0.170388
Si Si2 0.140950 0.923076 0.173575
Si Si3 0.000000 0.920784 0.664388
Si Si4 0.807472 0.195859 0.326479
Si Si5 0.578128 0.795957 0.325579
O O1 0.105893 0.500000 0.222301
O O2 0.105283 0.636161 0.257518
O O3 0.000000 0.571763 0.180024
O O4 0.099820 0.578375 0.000000
O O5 0.068798 0.905875 0.249130
O O6 0.194786 0.871988 0.239277
O O7 0.155794 0.000000 0.205924
O O8 0.135686 0.916343 0.000000
O O9 0.000000 0.892175 0.500000
O O10 0.000000 0.000000 0.651348
O O11 0.807282 0.182269 0.500000
O O12 0.750000 0.250000 0.297168
O O13 0.876393 0.234131 0.285571
O O14 0.580184 0.802395 0.500000
O O15 0.500000 0.786663 0.280442
#
# Coordination Sequence:
#
# PCOD9492201 Si02
#       5
#    16  16   8  16  16
#     4   8  14  26  45  70 100 132 167 209 257 312
#     4  10  21  37  58  86 118 150 191 242 293 349
#     4   9  17  31  55  87 119 151 186 229 286 345
#     4  10  22  39  57  79 111 150 191 234 286 349
#     4   9  18  32  51  76 103 133 175 227 278 331
#
# _framework density 19.579812
#
# number of rings (size 3 to 8) (size 9 to 14) (size 15 to 20)
#    0.000    2.778    0.000    1.667    1.556    4.444 
#    0.000    3.333    0.000    6.667    0.000    0.000 
#    0.000    0.000    0.000    0.000    0.000    0.000 
#
# Total GULP energy -200768.509665 kJ/mol
# GULP energy per Si atom -5576.903046 kJ/mol
# Density = 1.953525 g / cm^3
# Si number density = 19.579812 Si / 1000 Ang^3
#
#
#
# Elastic Constant Matrix: (Units=GPa)
#
#
# Indices 1 2 3 4 5 6 
#
# 1 35.5252 43.9336 27.1943 0.0000 0.0000 0.0000
# 2 43.9336 150.1929 63.2515 0.0000 0.0000 0.0000
# 3 27.1943 63.2515 53.8019 0.0000 0.0000 0.0000
# 4 0.0000 0.0000 0.0000 29.9907 0.0000 0.0000
# 5 0.0000 0.0000 0.0000 0.0000 13.0224 0.0000
# 6 0.0000 0.0000 0.0000 0.0000 0.0000 20.7675
#
#
#
# Elastic Compliance Matrix: (Units=1/GPa)
#
#
# Indices 1 2 3 4 5 6 
#
# 1 0.050270 -0.007930 -0.016086 0.000000 0.000000 0.000000
# 2 -0.007930 0.014438 -0.012965 0.000000 0.000000 0.000000
# 3 -0.016086 -0.012965 0.041960 0.000000 0.000000 0.000000
# 4 0.000000 0.000000 0.000000 0.033344 0.000000 0.000000
# 5 0.000000 0.000000 0.000000 0.000000 0.076791 0.000000
# 6 0.000000 0.000000 0.000000 0.000000 0.000000 0.048152
#
#
# Mechanical properties :
#
#
# Convention : Reuss Voigt Hill
#
# Bulk Modulus (GPa) = 30.57665 56.47540 43.52602
# Shear Modulus (GPa) = 14.29304 19.76549 17.02927
#
# Velocity S-wave (km/s) = 2.70476 3.18068 2.95233
# Velocity P-wave (km/s) = 5.04030 6.51117 5.82237
#
# Compressibility (1/GPa) = 0.03270469
#
# Stress axis : x y z
#
# Youngs Moduli (GPa) = 19.89249 69.26129 23.83214
#
# Poissons Ratio (x) = 0.54927 0.38336
# Poissons Ratio (y) = 0.15776 0.30900
# Poissons Ratio (z) = 0.31999 0.89801
#
# Static dielectric constant tensor:
#      x y z
#    x 1.729880 0.000000 0.000000 
#    y 0.000000 1.710860 0.000000 
#    z 0.000000 0.000000 1.654300 
# 
# From -- ./inp_files/11268.got.cif
#   From: 2010.05.17/outbox.cif.g08.bks.cpg/sg65_6_cif.got.tgz:11268.got - 2010.06.03 17:01:31.
