data_PCOD9492019
_publ_section_title
;
Structure prediction by ZEFSAII (Michael W. Deem and Ramdas Pophale) SiO2 
 PCOD9492019
Probable space group: C M M M
;
_chemical_formula_sum "Si O2"
_cell_formula_units_Z 104
_cell_length_a 8.856918
_cell_length_b 26.931711
_cell_length_c 25.608845
_cell_angle_alpha 90.000000
_cell_angle_beta 90.000000
_cell_angle_gamma 90.000000
_cell_volume 6108.527887
_symmetry_space_group_name_H-M "C M M M"
_symmetry_group_IT_number 65
_symmetry_cell_setting 'orthorhombic'
loop_
_space_group_symop_operation_xyz
x,y,z
-x,-y,z
x,-y,-z
-x,y,-z
-x,-y,-z
x,y,-z
-x,y,z
x,-y,z
1/2+x,1/2+y,z
1/2-x,1/2-y,z
1/2+x,1/2-y,-z
1/2-x,1/2+y,-z
1/2-x,1/2-y,-z
1/2+x,1/2+y,-z
1/2-x,1/2+y,z
1/2+x,1/2-y,z
loop_
_atom_site_type_symbol
_atom_site_label
_atom_site_fract_x
_atom_site_fract_y
_atom_site_fract_z
Si Si1 0.677876 0.500000 0.062555
Si Si2 0.172086 0.059165 0.332397
Si Si3 0.180959 0.442219 0.225486
Si Si4 0.182082 0.598424 0.885512
Si Si5 0.169838 0.701419 0.562436
Si Si6 0.318981 0.403468 0.441806
Si Si7 0.819718 0.803484 0.062211
O O1 0.500000 0.500000 0.076458
O O2 0.755057 0.549867 0.084585
O O3 0.690124 0.500000 0.000000
O O4 0.257629 0.076836 0.280840
O O5 0.238610 0.069881 0.389710
O O6 0.000000 0.078431 0.331312
O O7 0.166774 0.000000 0.327944
O O8 0.229952 0.500000 0.217448
O O9 0.225216 0.410332 0.175154
O O10 0.000000 0.442871 0.227929
O O11 0.248444 0.649355 0.908450
O O12 0.000000 0.598986 0.889545
O O13 0.155234 0.709076 0.500000
O O14 0.250000 0.750000 0.584852
O O15 0.274543 0.653549 0.567182
O O16 0.000000 0.693490 0.582777
O O17 0.261698 0.418076 0.500000
O O18 0.500000 0.410047 0.443497
O O19 0.750000 0.750000 0.077626
O O20 0.000000 0.802659 0.070060
O O21 0.790898 0.809613 0.000000
#
# Coordination Sequence:
#
# PCOD9492019 Si02
#       7
#     8  16  16  16  16  16  16
#     4  11  23  35  49  77 115 147 174 211 262 315
#     4   9  18  31  48  71  96 127 168 207 246 295
#     4   9  18  34  52  72  99 131 169 210 255 307
#     4  11  21  35  55  79 107 141 180 221 267 317
#     4   9  16  26  42  64  89 117 150 186 228 283
#     4   9  17  29  45  67  97 128 158 197 245 297
#     4  10  21  37  56  80 110 145 185 224 264 313
#
# _framework density 17.025378
#
# number of rings (size 3 to 8) (size 9 to 14) (size 15 to 20)
#    0.000    2.385    0.769    2.077    0.000    7.385 
#    0.000    1.538    0.000    0.923    0.000   10.769 
#    0.000    0.000    0.000    0.000    0.000    0.000 
#
# Total GULP energy -289605.979454 kJ/mol
# GULP energy per Si atom -5569.345759 kJ/mol
# Density = 1.698663 g / cm^3
# Si number density = 17.025378 Si / 1000 Ang^3
#
#
#
# Elastic Constant Matrix: (Units=GPa)
#
#
# Indices 1 2 3 4 5 6 
#
# 1 35.9479 33.5353 45.2881 0.0000 0.0000 0.0000
# 2 33.5353 91.4259 64.0793 0.0000 0.0000 0.0000
# 3 45.2881 64.0793 128.2836 0.0000 0.0000 0.0000
# 4 0.0000 0.0000 0.0000 6.4487 0.0000 0.0000
# 5 0.0000 0.0000 0.0000 0.0000 19.9153 0.0000
# 6 0.0000 0.0000 0.0000 0.0000 0.0000 22.7963
#
#
#
# Elastic Compliance Matrix: (Units=1/GPa)
#
#
# Indices 1 2 3 4 5 6 
#
# 1 0.055694 -0.010229 -0.014552 0.000000 0.000000 0.000000
# 2 -0.010229 0.018709 -0.005734 0.000000 0.000000 0.000000
# 3 -0.014552 -0.005734 0.015797 0.000000 0.000000 0.000000
# 4 0.000000 0.000000 0.000000 0.155071 0.000000 0.000000
# 5 0.000000 0.000000 0.000000 0.000000 0.050213 0.000000
# 6 0.000000 0.000000 0.000000 0.000000 0.000000 0.043867
#
#
# Mechanical properties :
#
#
# Convention : Reuss Voigt Hill
#
# Bulk Modulus (GPa) = 34.28328 60.16254 47.22291
# Shear Modulus (GPa) = 12.19204 17.34904 14.77054
#
# Velocity S-wave (km/s) = 2.67893 3.19566 2.94863
# Velocity P-wave (km/s) = 5.45428 7.00214 6.27611
#
# Compressibility (1/GPa) = 0.02916873
#
# Stress axis : x y z
#
# Youngs Moduli (GPa) = 17.95530 53.45047 63.30424
#
# Poissons Ratio (x) = 0.54677 0.92120
# Poissons Ratio (y) = 0.18367 0.36299
# Poissons Ratio (z) = 0.26128 0.30649
#
# Static dielectric constant tensor:
#      x y z
#    x 1.617310 0.000000 0.000000 
#    y 0.000000 1.562140 0.000000 
#    z 0.000000 0.000000 1.594870 
# 
# From -- ./inp_files/68198.got.cif
#   From: 2010.05.17/outbox.cif.g08.bks.cpg/sg65_35_cif.got.tgz:68198.got - 2010.06.03 17:01:31.
