data_PCOD9492666
_publ_section_title
;
Structure prediction by ZEFSAII (Michael W. Deem and Ramdas Pophale) SiO2 
 PCOD9492666
Probable space group: C M M M
;
_chemical_formula_sum "Si O2"
_cell_formula_units_Z 68
_cell_length_a 22.715862
_cell_length_b 17.540597
_cell_length_c 8.072205
_cell_angle_alpha 90.000000
_cell_angle_beta 90.000000
_cell_angle_gamma 90.000000
_cell_volume 3216.368313
_symmetry_space_group_name_H-M "C M M M"
_symmetry_group_IT_number 65
_symmetry_cell_setting 'orthorhombic'
loop_
_space_group_symop_operation_xyz
x,y,z
-x,-y,z
x,-y,-z
-x,y,-z
-x,-y,-z
x,y,-z
-x,y,z
x,-y,z
1/2+x,1/2+y,z
1/2-x,1/2-y,z
1/2+x,1/2-y,-z
1/2-x,1/2+y,-z
1/2-x,1/2-y,-z
1/2+x,1/2+y,-z
1/2-x,1/2+y,z
1/2+x,1/2-y,z
loop_
_atom_site_type_symbol
_atom_site_label
_atom_site_fract_x
_atom_site_fract_y
_atom_site_fract_z
Si Si1 0.326359 0.913116 0.804389
Si Si2 0.500000 0.328732 0.297739
Si Si3 0.122103 0.000000 0.185794
Si Si4 0.699260 0.637358 0.695325
Si Si5 0.115821 0.731020 0.698591
Si Si6 0.500000 0.500000 0.744653
O O1 0.267649 0.878866 0.721909
O O2 0.378207 0.853233 0.770830
O O3 0.336566 0.000000 0.746301
O O4 0.315291 0.915858 0.000000
O O5 0.500000 0.343900 0.500000
O O6 0.442071 0.279504 0.257807
O O7 0.500000 0.409683 0.204341
O O8 0.162685 0.072828 0.210922
O O9 0.068072 0.000000 0.313568
O O10 0.095886 0.000000 0.000000
O O11 0.686540 0.629672 0.500000
O O12 0.672773 0.718512 0.748318
O O13 0.116160 0.723477 0.500000
#
# Coordination Sequence:
#
# PCOD9492666 Si02
#       6
#    16   8   8  16  16   4
#     4  11  24  41  61  88 122 160 201 251 311 368
#     4  10  21  39  64  93 123 158 205 252 299 357
#     4  12  24  37  56  91 132 168 205 245 293 360
#     4  11  22  38  63  92 122 160 204 251 301 359
#     4  10  22  40  62  91 121 156 204 253 302 361
#     4  12  22  40  62  90 129 172 199 246 291 362
#
# _framework density 21.141856000000001
#
# number of rings (size 3 to 8) (size 9 to 14) (size 15 to 20)
#    0.000    1.176    3.529    2.824    0.000    7.059 
#    0.000    1.176    0.000    3.529    0.000    0.000 
#    0.000    0.000    0.000    0.000    0.000    0.000 
#
# Total GULP energy -189745.554675 kJ/mol
# GULP energy per Si atom -5580.751608 kJ/mol
# Density = 2.109374 g / cm^3
# Si number density = 21.141856 Si / 1000 Ang^3
#
#
#
# Elastic Constant Matrix: (Units=GPa)
#
#
# Indices 1 2 3 4 5 6 
#
# 1 77.9691 62.7930 10.5520 0.0000 0.0000 0.0000
# 2 62.7930 190.3737 23.5054 0.0000 0.0000 0.0000
# 3 10.5520 23.5054 50.1309 0.0000 0.0000 0.0000
# 4 0.0000 0.0000 0.0000 4.7891 0.0000 0.0000
# 5 0.0000 0.0000 0.0000 0.0000 -2.0774 0.0000
# 6 0.0000 0.0000 0.0000 0.0000 0.0000 44.7399
#
#
#
# Elastic Compliance Matrix: (Units=1/GPa)
#
#
# Indices 1 2 3 4 5 6 
#
# 1 0.017516 -0.005649 -0.001038 0.000000 0.000000 0.000000
# 2 -0.005649 0.007398 -0.002279 0.000000 0.000000 0.000000
# 3 -0.001038 -0.002279 0.021235 0.000000 0.000000 0.000000
# 4 0.000000 0.000000 0.000000 0.208809 0.000000 0.000000
# 5 0.000000 0.000000 0.000000 0.000000 -0.481382 0.000000
# 6 0.000000 0.000000 0.000000 0.000000 0.000000 0.022351
#
#
# Mechanical properties :
#
#
# Convention : Reuss Voigt Hill
#
# Bulk Modulus (GPa) = 35.44230 56.90826 46.17528
# Shear Modulus (GPa) = -28.29104 24.26520 -2.01292
#
# Velocity S-wave (km/s) = -3.66205 3.39150 -0.97682
# Velocity P-wave (km/s) = 1.03939 6.50478 4.54047
#
# Compressibility (1/GPa) = 0.02821487
#
# Stress axis : x y z
#
# Youngs Moduli (GPa) = 57.09153 135.17858 47.09184
#
# Poissons Ratio (x) = 0.76365 0.04888
# Poissons Ratio (y) = 0.32252 0.10735
# Poissons Ratio (z) = 0.05926 0.30814
#
# Static dielectric constant tensor:
#      x y z
#    x 1.730130 0.000000 0.000000 
#    y 0.000000 1.748270 0.000000 
#    z 0.000000 0.000000 1.823180 
# 
# From -- ./inp_files/10987.got.cif
#   From: 2010.05.17/outbox.cif.g08.bks.cpg/sg65_6_cif.got.tgz:10987.got - 2010.06.03 17:01:31.
