data_PCOD9492886
_publ_section_title
;
Structure prediction by ZEFSAII (Michael W. Deem and Ramdas Pophale) SiO2 
 PCOD9492886
Probable space group: C M M M
;
_chemical_formula_sum "Si O2"
_cell_formula_units_Z 104
_cell_length_a 20.478260
_cell_length_b 30.684666
_cell_length_c 9.057794
_cell_angle_alpha 90.000000
_cell_angle_beta 90.000000
_cell_angle_gamma 90.000000
_cell_volume 5691.633048
_symmetry_space_group_name_H-M "C M M M"
_symmetry_group_IT_number 65
_symmetry_cell_setting 'orthorhombic'
loop_
_space_group_symop_operation_xyz
x,y,z
-x,-y,z
x,-y,-z
-x,y,-z
-x,-y,-z
x,y,-z
-x,y,z
x,-y,z
1/2+x,1/2+y,z
1/2-x,1/2-y,z
1/2+x,1/2-y,-z
1/2-x,1/2+y,-z
1/2-x,1/2-y,-z
1/2+x,1/2+y,-z
1/2-x,1/2+y,z
1/2+x,1/2-y,z
loop_
_atom_site_type_symbol
_atom_site_label
_atom_site_fract_x
_atom_site_fract_y
_atom_site_fract_z
Si Si1 0.123993 0.677885 0.670199
Si Si2 0.000000 0.277451 0.824795
Si Si3 0.074553 0.580788 0.666937
Si Si4 0.076676 0.500000 0.173162
Si Si5 0.757301 0.801522 0.823547
Si Si6 0.000000 0.188613 0.332839
Si Si7 0.577320 0.550798 0.178036
Si Si8 0.865506 0.135663 0.673078
O O1 0.132393 0.693295 0.500000
O O2 0.064028 0.702534 0.747506
O O3 0.107334 0.627102 0.665776
O O4 0.188337 0.681447 0.766455
O O5 0.000000 0.226423 0.787448
O O6 0.000000 0.285598 0.000000
O O7 0.072722 0.563722 0.500000
O O8 0.106683 0.544116 0.766106
O O9 0.000000 0.588555 0.717464
O O10 0.000000 0.500000 0.224249
O O11 0.076567 0.500000 0.000000
O O12 0.750000 0.750000 0.784574
O O13 0.813517 0.831251 0.748547
O O14 0.765298 0.804296 0.000000
O O15 0.000000 0.207877 0.500000
O O16 0.064509 0.159695 0.318298
O O17 0.500000 0.557643 0.215778
O O18 0.592913 0.500000 0.216789
O O19 0.621849 0.588252 0.252374
O O20 0.582518 0.554575 0.000000
O O21 0.848279 0.130308 0.500000
#
# Coordination Sequence:
#
# PCOD9492886 Si02
#       8
#    16   8  16   8  16   8  16  16
#     4  11  22  39  61  84 112 150 194 241 293 348
#     4  12  24  36  56  86 118 152 192 243 297 351
#     4   9  17  32  53  78 107 141 178 219 271 329
#     4   9  17  27  45  77 111 141 175 218 269 322
#     4  11  25  43  61  85 117 157 202 247 302 366
#     4  10  22  38  57  85 119 152 194 242 290 345
#     4   9  18  34  59  92 128 165 202 246 304 364
#     4  11  22  38  61  90 121 159 202 249 302 358
#
# _framework density 18.272435000000002
#
# number of rings (size 3 to 8) (size 9 to 14) (size 15 to 20)
#    0.000    1.769    1.538    3.692    0.000    7.385 
#    0.000    0.769    1.692    0.000    0.000    0.000 
#    0.000    0.000    0.000    0.000    0.000    0.000 
#
# Total GULP energy -289926.153836 kJ/mol
# GULP energy per Si atom -5575.502958 kJ/mol
# Density = 1.823085 g / cm^3
# Si number density = 18.272435 Si / 1000 Ang^3
#
#
#
# Elastic Constant Matrix: (Units=GPa)
#
#
# Indices 1 2 3 4 5 6 
#
# 1 87.7603 40.8485 23.6239 0.0000 0.0000 0.0000
# 2 40.8485 123.5924 60.8572 0.0000 0.0000 0.0000
# 3 23.6239 60.8572 61.2588 0.0000 0.0000 0.0000
# 4 0.0000 0.0000 0.0000 55.4877 0.0000 0.0000
# 5 0.0000 0.0000 0.0000 0.0000 27.3937 0.0000
# 6 0.0000 0.0000 0.0000 0.0000 0.0000 31.4546
#
#
#
# Elastic Compliance Matrix: (Units=1/GPa)
#
#
# Indices 1 2 3 4 5 6 
#
# 1 0.013538 -0.003727 -0.001519 0.000000 0.000000 0.000000
# 2 -0.003727 0.016865 -0.015317 0.000000 0.000000 0.000000
# 3 -0.001519 -0.015317 0.032127 0.000000 0.000000 0.000000
# 4 0.000000 0.000000 0.000000 0.018022 0.000000 0.000000
# 5 0.000000 0.000000 0.000000 0.000000 0.036505 0.000000
# 6 0.000000 0.000000 0.000000 0.000000 0.000000 0.031792
#
#
# Mechanical properties :
#
#
# Convention : Reuss Voigt Hill
#
# Bulk Modulus (GPa) = 46.71877 58.14118 52.42997
# Shear Modulus (GPa) = 25.36668 32.68599 29.02633
#
# Velocity S-wave (km/s) = 3.72996 4.23403 3.98996
# Velocity P-wave (km/s) = 6.64632 7.46932 7.06981
#
# Compressibility (1/GPa) = 0.02140467
#
# Stress axis : x y z
#
# Youngs Moduli (GPa) = 73.86579 59.29374 31.12665
#
# Poissons Ratio (x) = 0.22097 0.04727
# Poissons Ratio (y) = 0.27528 0.47678
# Poissons Ratio (z) = 0.11217 0.90823
#
# Static dielectric constant tensor:
#      x y z
#    x 1.615020 0.000000 0.000000 
#    y 0.000000 1.696580 0.000000 
#    z 0.000000 0.000000 1.632730 
# 
# From -- ./inp_files/12468.got.cif
#   From: 2010.05.17/outbox.cif.g08.bks.cpg/sg65_7_cif.got.tgz:12468.got - 2010.06.03 17:01:31.
