data_PCOD9492756
_publ_section_title
;
Structure prediction by ZEFSAII (Michael W. Deem and Ramdas Pophale) SiO2 
 PCOD9492756
Probable space group: C M M M
;
_chemical_formula_sum "Si O2"
_cell_formula_units_Z 88
_cell_length_a 22.051865
_cell_length_b 18.704305
_cell_length_c 11.546097
_cell_angle_alpha 90.000000
_cell_angle_beta 90.000000
_cell_angle_gamma 90.000000
_cell_volume 4762.358691
_symmetry_space_group_name_H-M "C M M M"
_symmetry_group_IT_number 65
_symmetry_cell_setting 'orthorhombic'
loop_
_space_group_symop_operation_xyz
x,y,z
-x,-y,z
x,-y,-z
-x,y,-z
-x,-y,-z
x,y,-z
-x,y,z
x,-y,z
1/2+x,1/2+y,z
1/2-x,1/2-y,z
1/2+x,1/2-y,-z
1/2-x,1/2+y,-z
1/2-x,1/2-y,-z
1/2+x,1/2+y,-z
1/2-x,1/2+y,z
1/2+x,1/2-y,z
loop_
_atom_site_type_symbol
_atom_site_label
_atom_site_fract_x
_atom_site_fract_y
_atom_site_fract_z
Si Si1 0.500000 0.418405 0.362271
Si Si2 0.428943 0.585455 0.000000
Si Si3 0.428235 0.800134 0.136319
Si Si4 0.931413 0.586878 0.500000
Si Si5 0.639911 0.915135 0.730909
Si Si6 0.887765 0.152880 0.762284
Si Si7 0.725283 0.415114 0.361535
O O1 0.500000 0.500000 0.316745
O O2 0.500000 0.420770 0.500000
O O3 0.441239 0.378221 0.316756
O O4 0.395906 0.613715 0.114245
O O5 0.429439 0.500000 0.000000
O O6 0.500000 0.610200 0.000000
O O7 0.500000 0.809405 0.162699
O O8 0.389381 0.870081 0.166369
O O9 0.400411 0.735564 0.210926
O O10 0.423766 0.782710 0.000000
O O11 0.932361 0.500000 0.500000
O O12 0.896551 0.607717 0.615603
O O13 0.000000 0.613323 0.500000
O O14 0.710362 0.903417 0.701280
O O15 0.631324 0.000000 0.748386
O O16 0.825493 0.132708 0.699563
O O17 0.730288 0.401375 0.500000
O O18 0.709764 0.500000 0.349625
#
# Coordination Sequence:
#
# PCOD9492756 Si02
#       7
#     8   8  16   8  16  16  16
#     4  11  22  37  59  91 128 162 208 266 310 362
#     4  11  20  34  60  87 115 161 220 273 311 357
#     4  11  24  44  64  87 126 168 207 267 327 370
#     4   9  16  32  62  95 120 145 193 260 313 363
#     4  10  21  41  66  94 124 160 210 259 313 382
#     4  12  22  39  60  91 126 167 211 255 312 382
#     4  10  21  41  66  92 129 170 206 253 314 381
#
# _framework density 18.478238000000001
#
# number of rings (size 3 to 8) (size 9 to 14) (size 15 to 20)
#    0.000    1.364    3.636    2.727    0.000    3.636 
#    4.909    2.727    0.000    0.000    0.000    0.000 
#    0.000    0.000    0.000    0.000    0.000    0.000 
#
# Total GULP energy -245783.466137 kJ/mol
# GULP energy per Si atom -5585.987867 kJ/mol
# Density = 1.843618 g / cm^3
# Si number density = 18.478238 Si / 1000 Ang^3
#
#
#
# Elastic Constant Matrix: (Units=GPa)
#
#
# Indices 1 2 3 4 5 6 
#
# 1 132.3919 66.4553 40.2575 0.0000 0.0000 0.0000
# 2 66.4553 87.6691 37.6057 0.0000 0.0000 0.0000
# 3 40.2575 37.6057 67.0061 0.0000 0.0000 0.0000
# 4 0.0000 0.0000 0.0000 37.0281 0.0000 0.0000
# 5 0.0000 0.0000 0.0000 0.0000 40.8169 0.0000
# 6 0.0000 0.0000 0.0000 0.0000 0.0000 175.6641
#
#
#
# Elastic Compliance Matrix: (Units=1/GPa)
#
#
# Indices 1 2 3 4 5 6 
#
# 1 0.012610 -0.008309 -0.002913 0.000000 0.000000 0.000000
# 2 -0.008309 0.020498 -0.006512 0.000000 0.000000 0.000000
# 3 -0.002913 -0.006512 0.020329 0.000000 0.000000 0.000000
# 4 0.000000 0.000000 0.000000 0.027006 0.000000 0.000000
# 5 0.000000 0.000000 0.000000 0.000000 0.024500 0.000000
# 6 0.000000 0.000000 0.000000 0.000000 0.000000 0.005693
#
#
# Mechanical properties :
#
#
# Convention : Reuss Voigt Hill
#
# Bulk Modulus (GPa) = 55.65120 63.96712 59.80916
# Shear Modulus (GPa) = 32.87448 60.21842 46.54645
#
# Velocity S-wave (km/s) = 4.22250 5.71486 5.02440
# Velocity P-wave (km/s) = 7.34542 8.84527 8.13001
#
# Compressibility (1/GPa) = 0.01796906
#
# Stress axis : x y z
#
# Youngs Moduli (GPa) = 79.30284 48.78412 49.19140
#
# Poissons Ratio (x) = 0.40536 0.14328
# Poissons Ratio (y) = 0.65894 0.32034
# Poissons Ratio (z) = 0.23099 0.31769
#
# Static dielectric constant tensor:
#      x y z
#    x 1.619040 0.000000 0.000000 
#    y 0.000000 1.645550 0.000000 
#    z 0.000000 0.000000 1.630310 
# 
# From -- ./inp_files/28765.got.cif
#   From: 2010.05.17/outbox.cif.g08.bks.cpg/sg65_15_cif.got.tgz:28765.got - 2010.06.03 17:01:31.
