data_PCOD9492833
_publ_section_title
;
Structure prediction by ZEFSAII (Michael W. Deem and Ramdas Pophale) SiO2 
 PCOD9492833
Probable space group: C M M M
;
_chemical_formula_sum "Si O2"
_cell_formula_units_Z 104
_cell_length_a 24.272952
_cell_length_b 25.892113
_cell_length_c 8.044732
_cell_angle_alpha 90.000000
_cell_angle_beta 90.000000
_cell_angle_gamma 90.000000
_cell_volume 5055.937207
_symmetry_space_group_name_H-M "C M M M"
_symmetry_group_IT_number 65
_symmetry_cell_setting 'orthorhombic'
loop_
_space_group_symop_operation_xyz
x,y,z
-x,-y,z
x,-y,-z
-x,y,-z
-x,-y,-z
x,y,-z
-x,y,z
x,-y,z
1/2+x,1/2+y,z
1/2-x,1/2-y,z
1/2+x,1/2-y,-z
1/2-x,1/2+y,-z
1/2-x,1/2-y,-z
1/2+x,1/2+y,-z
1/2-x,1/2+y,z
1/2+x,1/2-y,z
loop_
_atom_site_type_symbol
_atom_site_label
_atom_site_fract_x
_atom_site_fract_y
_atom_site_fract_z
Si Si1 0.887258 0.244956 0.194013
Si Si2 0.000000 0.598798 0.191278
Si Si3 0.500000 0.562927 0.191110
Si Si4 0.879691 0.059106 0.796413
Si Si5 0.617566 0.057582 0.698047
Si Si6 0.818629 0.342715 0.302557
Si Si7 0.306813 0.653843 0.201748
Si Si8 0.500000 0.786961 0.312473
O O1 0.851947 0.297017 0.215479
O O2 0.849426 0.198154 0.256226
O O3 0.945362 0.254024 0.281413
O O4 0.898659 0.235674 0.000000
O O5 0.055368 0.576617 0.271737
O O6 0.000000 0.661073 0.203211
O O7 0.000000 0.583135 0.000000
O O8 0.500000 0.500000 0.186273
O O9 0.559478 0.576895 0.263871
O O10 0.500000 0.581714 0.000000
O O11 0.832638 0.098925 0.748177
O O12 0.870060 0.000000 0.744190
O O13 0.882376 0.058891 0.000000
O O14 0.626018 0.054685 0.500000
O O15 0.658414 0.102217 0.760440
O O16 0.625789 0.000000 0.767713
O O17 0.829793 0.338799 0.500000
O O18 0.753916 0.337966 0.270923
O O19 0.303489 0.655870 0.000000
O O20 0.500000 0.806847 0.500000
#
# Coordination Sequence:
#
# PCOD9492833 Si02
#       8
#    16   8   8  16  16  16  16   8
#     4  11  23  40  61  87 118 151 190 242 298 350
#     4  12  23  37  61  92 123 155 194 245 303 358
#     4   7  10  19  40  70 101 133 170 212 260 317
#     4   8  14  27  49  78 111 146 183 227 283 346
#     4  10  22  40  61  86 119 160 203 248 297 353
#     4  11  23  39  60  82 111 155 202 243 288 348
#     4  10  22  37  56  84 117 152 193 244 298 345
#     4  12  24  40  64  91 120 156 194 239 297 361
#
# _framework density 20.569876000000001
#
# number of rings (size 3 to 8) (size 9 to 14) (size 15 to 20)
#    0.000    1.923    1.538    3.923    0.000    6.154 
#    0.000    2.308    0.000    0.000    0.000    0.000 
#    0.000    2.462    0.000    0.000    0.000    0.000 
#
# Total GULP energy -290441.983491 kJ/mol
# GULP energy per Si atom -5585.422759 kJ/mol
# Density = 2.052306 g / cm^3
# Si number density = 20.569876 Si / 1000 Ang^3
#
#
#
# Elastic Constant Matrix: (Units=GPa)
#
#
# Indices 1 2 3 4 5 6 
#
# 1 115.5964 47.6712 -10.0055 0.0000 0.0000 0.0000
# 2 47.6712 104.6247 -1.6750 0.0000 0.0000 0.0000
# 3 -10.0055 -1.6750 15.1600 0.0000 0.0000 0.0000
# 4 0.0000 0.0000 0.0000 14.6233 0.0000 0.0000
# 5 0.0000 0.0000 0.0000 0.0000 8.1703 0.0000
# 6 0.0000 0.0000 0.0000 0.0000 0.0000 20.0543
#
#
#
# Elastic Compliance Matrix: (Units=1/GPa)
#
#
# Indices 1 2 3 4 5 6 
#
# 1 0.011334 -0.005053 0.006922 0.000000 0.000000 0.000000
# 2 -0.005053 0.011828 -0.002028 0.000000 0.000000 0.000000
# 3 0.006922 -0.002028 0.070307 0.000000 0.000000 0.000000
# 4 0.000000 0.000000 0.000000 0.068384 0.000000 0.000000
# 5 0.000000 0.000000 0.000000 0.000000 0.122395 0.000000
# 6 0.000000 0.000000 0.000000 0.000000 0.000000 0.049865
#
#
# Mechanical properties :
#
#
# Convention : Reuss Voigt Hill
#
# Bulk Modulus (GPa) = 10.73542 34.15139 22.44341
# Shear Modulus (GPa) = 13.68055 21.86225 17.77140
#
# Velocity S-wave (km/s) = 2.58171 3.26364 2.94250
# Velocity P-wave (km/s) = 3.75730 5.55342 4.74119
#
# Compressibility (1/GPa) = 0.09314958
#
# Stress axis : x y z
#
# Youngs Moduli (GPa) = 88.23092 84.54507 14.22330
#
# Poissons Ratio (x) = 0.42724 -0.09845
# Poissons Ratio (y) = 0.44586 0.02885
# Poissons Ratio (z) = -0.61073 0.17149
#
# Static dielectric constant tensor:
#      x y z
#    x 1.705590 0.000000 0.000000 
#    y 0.000000 1.733840 0.000000 
#    z 0.000000 0.000000 1.746850 
# 
# From -- ./inp_files/12480.got.cif
#   From: 2010.05.17/outbox.cif.g08.bks.cpg/sg65_7_cif.got.tgz:12480.got - 2010.06.03 17:01:31.
