data_PCOD9492497
_publ_section_title
;
Structure prediction by ZEFSAII (Michael W. Deem and Ramdas Pophale) SiO2 
 PCOD9492497
Probable space group: C M M M
;
_chemical_formula_sum "Si O2"
_cell_formula_units_Z 96
_cell_length_a 25.626141
_cell_length_b 17.631821
_cell_length_c 11.899136
_cell_angle_alpha 90.000000
_cell_angle_beta 90.000000
_cell_angle_gamma 90.000000
_cell_volume 5376.452433
_symmetry_space_group_name_H-M "C M M M"
_symmetry_group_IT_number 65
_symmetry_cell_setting 'orthorhombic'
loop_
_space_group_symop_operation_xyz
x,y,z
-x,-y,z
x,-y,-z
-x,y,-z
-x,-y,-z
x,y,-z
-x,y,z
x,-y,z
1/2+x,1/2+y,z
1/2-x,1/2-y,z
1/2+x,1/2-y,-z
1/2-x,1/2+y,-z
1/2-x,1/2-y,-z
1/2+x,1/2+y,-z
1/2-x,1/2+y,z
1/2+x,1/2-y,z
loop_
_atom_site_type_symbol
_atom_site_label
_atom_site_fract_x
_atom_site_fract_y
_atom_site_fract_z
Si Si1 0.059441 0.408840 0.631922
Si Si2 0.354739 0.672337 0.133102
Si Si3 0.059768 0.089466 0.273519
Si Si4 0.311740 0.743650 0.500000
Si Si5 0.655687 0.824785 0.731647
Si Si6 0.873620 0.911763 0.500000
Si Si7 0.254248 0.090775 0.866770
O O1 0.068249 0.389412 0.500000
O O2 0.062491 0.500000 0.639928
O O3 0.103059 0.371503 0.709035
O O4 0.000000 0.386004 0.660091
O O5 0.405173 0.631590 0.183085
O O6 0.352107 0.755989 0.182878
O O7 0.301519 0.627581 0.164452
O O8 0.357008 0.673657 0.000000
O O9 0.089682 0.098269 0.391551
O O10 0.000000 0.116310 0.280139
O O11 0.058940 0.000000 0.248104
O O12 0.250000 0.750000 0.500000
O O13 0.330509 0.786377 0.387734
O O14 0.331731 0.656283 0.500000
O O15 0.701555 0.875865 0.784944
O O16 0.853959 0.000000 0.500000
O O17 0.251408 0.000000 0.856754
O O18 0.264499 0.108552 0.000000
#
# Coordination Sequence:
#
# PCOD9492497 Si02
#       7
#    16  16  16   8  16   8  16
#     4   9  19  38  61  86 118 154 194 241 293 353
#     4  11  23  39  59  85 120 158 199 248 298 350
#     4  10  21  38  61  87 116 153 199 249 295 349
#     4  12  24  39  55  91 129 155 187 243 305 366
#     4  12  22  38  59  91 121 153 194 242 303 357
#     4  10  21  42  64  85 116 162 207 239 290 363
#     4  10  22  41  64  86 113 157 206 246 291 355
#
# _framework density 17.855640000000001
#
# number of rings (size 3 to 8) (size 9 to 14) (size 15 to 20)
#    0.000    1.500    2.500    3.750    0.000    4.333 
#    0.000    1.667    0.000    1.500    0.000    5.833 
#    0.000    0.000    0.000    0.000    0.000    0.000 
#
# Total GULP energy -268049.294782 kJ/mol
# GULP energy per Si atom -5584.360308 kJ/mol
# Density = 1.781500 g / cm^3
# Si number density = 17.855640 Si / 1000 Ang^3
#
#
#
# Elastic Constant Matrix: (Units=GPa)
#
#
# Indices 1 2 3 4 5 6 
#
# 1 150.9497 85.1064 51.5527 0.0000 0.0000 0.0000
# 2 85.1064 93.1389 49.6010 0.0000 0.0000 0.0000
# 3 51.5527 49.6010 69.4559 0.0000 0.0000 0.0000
# 4 0.0000 0.0000 0.0000 18.3039 0.0000 0.0000
# 5 0.0000 0.0000 0.0000 0.0000 1.9173 0.0000
# 6 0.0000 0.0000 0.0000 0.0000 0.0000 13.2597
#
#
#
# Elastic Compliance Matrix: (Units=1/GPa)
#
#
# Indices 1 2 3 4 5 6 
#
# 1 0.013835 -0.011575 -0.002002 0.000000 0.000000 0.000000
# 2 -0.011575 0.027011 -0.010698 0.000000 0.000000 0.000000
# 3 -0.002002 -0.010698 0.023523 0.000000 0.000000 0.000000
# 4 0.000000 0.000000 0.000000 0.054633 0.000000 0.000000
# 5 0.000000 0.000000 0.000000 0.000000 0.521571 0.000000
# 6 0.000000 0.000000 0.000000 0.000000 0.000000 0.075416
#
#
# Mechanical properties :
#
#
# Convention : Reuss Voigt Hill
#
# Bulk Modulus (GPa) = 63.21817 76.22942 69.72379
# Shear Modulus (GPa) = 6.49509 15.18182 10.83845
#
# Velocity S-wave (km/s) = 1.90931 2.91907 2.46642
# Velocity P-wave (km/s) = 6.35158 7.35840 6.87345
#
# Compressibility (1/GPa) = 0.01581824
#
# Stress axis : x y z
#
# Youngs Moduli (GPa) = 72.28146 37.02234 42.51075
#
# Poissons Ratio (x) = 0.42854 0.08512
# Poissons Ratio (y) = 0.83668 0.45477
# Poissons Ratio (z) = 0.14473 0.39605
#
# Static dielectric constant tensor:
#      x y z
#    x 1.595650 0.000000 0.000000 
#    y 0.000000 1.610640 0.000000 
#    z 0.000000 0.000000 1.609060 
# 
# From -- ./inp_files/30819.got.cif
#   From: 2010.05.17/outbox.cif.g08.bks.cpg/sg65_16_cif.got.tgz:30819.got - 2010.06.03 17:01:31.
