data_PCOD9492500
_publ_section_title
;
Structure prediction by ZEFSAII (Michael W. Deem and Ramdas Pophale) SiO2 
 PCOD9492500
Probable space group: C M M M
;
_chemical_formula_sum "Si O2"
_cell_formula_units_Z 72
_cell_length_a 17.817946
_cell_length_b 26.402312
_cell_length_c 7.544517
_cell_angle_alpha 90.000000
_cell_angle_beta 90.000000
_cell_angle_gamma 90.000000
_cell_volume 3549.204625
_symmetry_space_group_name_H-M "C M M M"
_symmetry_group_IT_number 65
_symmetry_cell_setting 'orthorhombic'
loop_
_space_group_symop_operation_xyz
x,y,z
-x,-y,z
x,-y,-z
-x,y,-z
-x,-y,-z
x,y,-z
-x,y,z
x,-y,z
1/2+x,1/2+y,z
1/2-x,1/2-y,z
1/2+x,1/2-y,-z
1/2-x,1/2+y,-z
1/2-x,1/2-y,-z
1/2+x,1/2+y,-z
1/2-x,1/2+y,z
1/2+x,1/2-y,z
loop_
_atom_site_type_symbol
_atom_site_label
_atom_site_fract_x
_atom_site_fract_y
_atom_site_fract_z
Si Si1 0.293027 0.442044 0.293513
Si Si2 0.662046 0.762999 0.702727
Si Si3 0.413269 0.578919 0.000000
Si Si4 0.000000 0.558927 0.283365
Si Si5 0.414791 0.300157 0.000000
Si Si6 0.648095 0.879298 0.716008
O O1 0.309887 0.430286 0.500000
O O2 0.265104 0.500000 0.286361
O O3 0.365912 0.437968 0.171254
O O4 0.225885 0.405816 0.229582
O O5 0.634976 0.759591 0.500000
O O6 0.750000 0.750000 0.703575
O O7 0.623774 0.722642 0.827793
O O8 0.647691 0.820386 0.767642
O O9 0.500000 0.562141 0.000000
O O10 0.412224 0.639663 0.000000
O O11 0.925022 0.589073 0.227001
O O12 0.000000 0.500000 0.227873
O O13 0.000000 0.558866 0.500000
O O14 0.500000 0.282778 0.000000
O O15 0.648531 0.880201 0.500000
#
# Coordination Sequence:
#
# PCOD9492500 Si02
#       6
#    16  16   8   8   8  16
#     4  10  21  39  64  91 120 156 197 241 298 367
#     4  10  21  38  61  87 117 155 202 254 301 354
#     4  11  25  43  61  86 119 154 198 254 310 362
#     4   9  16  28  50  83 123 161 198 243 293 352
#     4  11  25  40  58  84 116 157 200 245 303 360
#     4   9  18  32  56  88 121 158 200 244 296 355
#
# _framework density 20.286234
#
# number of rings (size 3 to 8) (size 9 to 14) (size 15 to 20)
#    0.000    2.111    0.000    2.667    1.556    8.000 
#    0.000    3.333    0.000    0.000    0.000    3.111 
#    0.000    0.000    0.000    0.000    0.000    0.000 
#
# Total GULP energy -201174.051294 kJ/mol
# GULP energy per Si atom -5588.168091 kJ/mol
# Density = 2.024006 g / cm^3
# Si number density = 20.286234 Si / 1000 Ang^3
#
#
#
# Elastic Constant Matrix: (Units=GPa)
#
#
# Indices 1 2 3 4 5 6 
#
# 1 91.2513 21.8203 27.7421 0.0000 0.0000 0.0000
# 2 21.8203 99.7206 16.9429 0.0000 0.0000 0.0000
# 3 27.7421 16.9429 77.4359 0.0000 0.0000 0.0000
# 4 0.0000 0.0000 0.0000 21.7624 0.0000 0.0000
# 5 0.0000 0.0000 0.0000 0.0000 -31.8715 0.0000
# 6 0.0000 0.0000 0.0000 0.0000 0.0000 37.0945
#
#
#
# Elastic Compliance Matrix: (Units=1/GPa)
#
#
# Indices 1 2 3 4 5 6 
#
# 1 0.012702 -0.002084 -0.004095 0.000000 0.000000 0.000000
# 2 -0.002084 0.010757 -0.001607 0.000000 0.000000 0.000000
# 3 -0.004095 -0.001607 0.014732 0.000000 0.000000 0.000000
# 4 0.000000 0.000000 0.000000 0.045951 0.000000 0.000000
# 5 0.000000 0.000000 0.000000 0.000000 -0.031376 0.000000
# 6 0.000000 0.000000 0.000000 0.000000 0.000000 0.026958
#
#
# Mechanical properties :
#
#
# Convention : Reuss Voigt Hill
#
# Bulk Modulus (GPa) = 44.20772 44.60203 44.40488
# Shear Modulus (GPa) = 48.62145 18.85726 33.73935
#
# Velocity S-wave (km/s) = 4.90099 3.05217 4.08262
# Velocity P-wave (km/s) = 7.33932 5.86985 6.64533
#
# Compressibility (1/GPa) = 0.02262048
#
# Stress axis : x y z
#
# Youngs Moduli (GPa) = 78.72875 92.96263 67.87717
#
# Poissons Ratio (x) = 0.19370 0.27793
# Poissons Ratio (y) = 0.16404 0.10909
# Poissons Ratio (z) = 0.32237 0.14940
#
# Static dielectric constant tensor:
#      x y z
#    x 1.749260 0.000000 0.000000 
#    y 0.000000 1.702810 0.000000 
#    z 0.000000 0.000000 1.773060 
# 
# From -- ./inp_files/7435.got.cif
#   From: 2010.05.17/outbox.cif.g08.bks.cpg/sg65_4_cif.got.tgz:7435.got - 2010.06.03 17:01:31.
