data_PCOD9492553
_publ_section_title
;
Structure prediction by ZEFSAII (Michael W. Deem and Ramdas Pophale) SiO2 
 PCOD9492553
Probable space group: C M M M
;
_chemical_formula_sum "Si O2"
_cell_formula_units_Z 72
_cell_length_a 8.354301
_cell_length_b 15.492634
_cell_length_c 28.942931
_cell_angle_alpha 90.000000
_cell_angle_beta 90.000000
_cell_angle_gamma 90.000000
_cell_volume 3746.087256
_symmetry_space_group_name_H-M "C M M M"
_symmetry_group_IT_number 65
_symmetry_cell_setting 'orthorhombic'
loop_
_space_group_symop_operation_xyz
x,y,z
-x,-y,z
x,-y,-z
-x,y,-z
-x,-y,-z
x,y,-z
-x,y,z
x,-y,z
1/2+x,1/2+y,z
1/2-x,1/2-y,z
1/2+x,1/2-y,-z
1/2-x,1/2+y,-z
1/2-x,1/2-y,-z
1/2+x,1/2+y,-z
1/2-x,1/2+y,z
1/2+x,1/2-y,z
loop_
_atom_site_type_symbol
_atom_site_label
_atom_site_fract_x
_atom_site_fract_y
_atom_site_fract_z
Si Si1 0.810038 0.500000 0.278654
Si Si2 0.808370 0.846310 0.552693
Si Si3 0.000000 0.605517 0.946515
Si Si4 0.684758 0.604580 0.109920
Si Si5 0.189597 0.845309 0.215739
Si Si6 0.191361 0.500000 0.616652
O O1 0.759707 0.416486 0.249700
O O2 0.744659 0.500000 0.330875
O O3 0.000000 0.500000 0.281895
O O4 0.754154 0.866428 0.500000
O O5 0.750000 0.750000 0.563757
O O6 0.746543 0.916253 0.588519
O O7 0.000000 0.847657 0.552908
O O8 0.166108 0.633708 0.921889
O O9 0.000000 0.500000 0.944696
O O10 0.000000 0.631343 0.000000
O O11 0.500000 0.632992 0.098880
O O12 0.681659 0.500000 0.108316
O O13 0.725069 0.632275 0.162224
O O14 0.250000 0.750000 0.226368
O O15 0.000000 0.848360 0.220268
O O16 0.000000 0.500000 0.618141
#
# Coordination Sequence:
#
# PCOD9492553 Si02
#       6
#     8  16   8  16  16   8
#     4  11  25  42  62  87 122 159 199 252 311 363
#     4  10  21  38  62  91 121 159 207 253 299 355
#     4   9  18  30  52  86 118 155 195 239 303 366
#     4   9  18  33  55  83 115 152 196 247 299 359
#     4  11  23  39  62  91 117 153 203 252 303 364
#     4  11  24  40  59  88 122 162 201 245 310 370
#
# _framework density 19.220054000000001
#
# number of rings (size 3 to 8) (size 9 to 14) (size 15 to 20)
#    0.000    1.889    1.111    2.333    3.111    5.778 
#    0.000    2.222    0.000    0.667    0.000    0.000 
#    0.000    0.000    0.000    0.000    0.000    0.000 
#
# Total GULP energy -201066.886290 kJ/mol
# GULP energy per Si atom -5585.191286 kJ/mol
# Density = 1.917631 g / cm^3
# Si number density = 19.220054 Si / 1000 Ang^3
#
#
#
# Elastic Constant Matrix: (Units=GPa)
#
#
# Indices 1 2 3 4 5 6 
#
# 1 88.6162 59.1856 95.0927 0.0000 0.0000 0.0000
# 2 59.1856 95.0386 92.0175 0.0000 0.0000 0.0000
# 3 95.0927 92.0175 172.4681 0.0000 0.0000 0.0000
# 4 0.0000 0.0000 0.0000 -15.0380 0.0000 0.0000
# 5 0.0000 0.0000 0.0000 0.0000 28.8517 0.0000
# 6 0.0000 0.0000 0.0000 0.0000 0.0000 30.4312
#
#
#
# Elastic Compliance Matrix: (Units=1/GPa)
#
#
# Indices 1 2 3 4 5 6 
#
# 1 0.028876 -0.005311 -0.013087 0.000000 0.000000 0.000000
# 2 -0.005311 0.022742 -0.009206 0.000000 0.000000 0.000000
# 3 -0.013087 -0.009206 0.017926 0.000000 0.000000 0.000000
# 4 0.000000 0.000000 0.000000 -0.066498 0.000000 0.000000
# 5 0.000000 0.000000 0.000000 0.000000 0.034660 0.000000
# 6 0.000000 0.000000 0.000000 0.000000 0.000000 0.032861
#
#
# Mechanical properties :
#
#
# Convention : Reuss Voigt Hill
#
# Bulk Modulus (GPa) = 69.75585 94.30162 82.02874
# Shear Modulus (GPa) = 38.29866 16.17078 27.23472
#
# Velocity S-wave (km/s) = 4.46874 2.90375 3.76838
# Velocity P-wave (km/s) = 7.93715 7.77258 7.85530
#
# Compressibility (1/GPa) = 0.01433571
#
# Stress axis : x y z
#
# Youngs Moduli (GPa) = 34.63123 43.97072 55.78638
#
# Poissons Ratio (x) = 0.23353 0.73010
# Poissons Ratio (y) = 0.18393 0.51354
# Poissons Ratio (z) = 0.45323 0.40477
#
# Static dielectric constant tensor:
#      x y z
#    x 1.667160 0.000000 0.000000 
#    y 0.000000 1.638740 0.000000 
#    z 0.000000 0.000000 1.665550 
# 
# From -- ./inp_files/72590.got.cif
#   From: 2010.05.17/outbox.cif.g08.bks.cpg/sg65_37_cif.got.tgz:72590.got - 2010.06.03 17:01:31.
