data_PCOD9492439
_publ_section_title
;
Structure prediction by ZEFSAII (Michael W. Deem and Ramdas Pophale) SiO2 
 PCOD9492439
Probable space group: C M M M
;
_chemical_formula_sum "Si O2"
_cell_formula_units_Z 88
_cell_length_a 24.225394
_cell_length_b 8.536954
_cell_length_c 23.425092
_cell_angle_alpha 90.000000
_cell_angle_beta 90.000000
_cell_angle_gamma 90.000000
_cell_volume 4844.568440
_symmetry_space_group_name_H-M "C M M M"
_symmetry_group_IT_number 65
_symmetry_cell_setting 'orthorhombic'
loop_
_space_group_symop_operation_xyz
x,y,z
-x,-y,z
x,-y,-z
-x,y,-z
-x,-y,-z
x,y,-z
-x,y,z
x,-y,z
1/2+x,1/2+y,z
1/2-x,1/2-y,z
1/2+x,1/2-y,-z
1/2-x,1/2+y,-z
1/2-x,1/2-y,-z
1/2+x,1/2+y,-z
1/2-x,1/2+y,z
1/2+x,1/2-y,z
loop_
_atom_site_type_symbol
_atom_site_label
_atom_site_fract_x
_atom_site_fract_y
_atom_site_fract_z
Si Si1 0.187670 0.687691 0.436435
Si Si2 0.500000 0.688098 0.687414
Si Si3 0.377793 0.687926 0.328330
Si Si4 0.108686 0.811497 0.877569
Si Si5 0.000000 0.312449 0.184983
Si Si6 0.564971 0.690425 0.000000
Si Si7 0.312287 0.813023 0.217564
O O1 0.165832 0.727764 0.500000
O O2 0.187841 0.500000 0.430935
O O3 0.250000 0.750000 0.433818
O O4 0.155123 0.761625 0.384214
O O5 0.500000 0.500000 0.682833
O O6 0.558911 0.743601 0.664187
O O7 0.500000 0.739137 0.752763
O O8 0.377265 0.500000 0.322538
O O9 0.349509 0.755424 0.271041
O O10 0.054058 0.749920 0.846324
O O11 0.098446 0.763004 0.943277
O O12 0.159919 0.745921 0.841377
O O13 0.110666 0.000000 0.875204
O O14 0.000000 0.500000 0.187247
O O15 0.562182 0.500000 0.000000
O O16 0.500000 0.743274 0.000000
O O17 0.250000 0.750000 0.223702
O O18 0.311562 0.000000 0.217994
#
# Coordination Sequence:
#
# PCOD9492439 Si02
#       7
#    16   8  16  16   8   8  16
#     4  10  21  38  60  86 117 154 196 243 292 342
#     4  10  22  38  58  84 118 157 194 234 288 347
#     4  11  22  38  61  88 118 154 194 239 290 344
#     4  11  21  38  61  86 118 153 194 241 290 345
#     4  12  22  33  55  87 120 156 191 237 292 345
#     4   9  18  34  59  88 115 152 193 233 286 346
#     4  12  25  41  60  86 117 152 195 240 294 350
#
# _framework density 18.164671999999999
#
# number of rings (size 3 to 8) (size 9 to 14) (size 15 to 20)
#    0.000    1.182    2.727    4.636    0.000    1.818 
#    0.000    3.182    0.000    2.727    0.000    0.000 
#    0.000    0.000    0.000    0.000    0.000    0.000 
#
# Total GULP energy -245718.813111 kJ/mol
# GULP energy per Si atom -5584.518480 kJ/mol
# Density = 1.812333 g / cm^3
# Si number density = 18.164672 Si / 1000 Ang^3
#
#
#
# Elastic Constant Matrix: (Units=GPa)
#
#
# Indices 1 2 3 4 5 6 
#
# 1 128.6197 40.3038 68.2084 0.0000 0.0000 0.0000
# 2 40.3038 118.0834 57.7315 0.0000 0.0000 0.0000
# 3 68.2084 57.7315 148.5956 0.0000 0.0000 0.0000
# 4 0.0000 0.0000 0.0000 23.4828 0.0000 0.0000
# 5 0.0000 0.0000 0.0000 0.0000 38.5573 0.0000
# 6 0.0000 0.0000 0.0000 0.0000 0.0000 26.2981
#
#
#
# Elastic Compliance Matrix: (Units=1/GPa)
#
#
# Indices 1 2 3 4 5 6 
#
# 1 0.010491 -0.001514 -0.004227 0.000000 0.000000 0.000000
# 2 -0.001514 0.010673 -0.003452 0.000000 0.000000 0.000000
# 3 -0.004227 -0.003452 0.010011 0.000000 0.000000 0.000000
# 4 0.000000 0.000000 0.000000 0.042584 0.000000 0.000000
# 5 0.000000 0.000000 0.000000 0.000000 0.025935 0.000000
# 6 0.000000 0.000000 0.000000 0.000000 0.000000 0.038026
#
#
# Mechanical properties :
#
#
# Convention : Reuss Voigt Hill
#
# Bulk Modulus (GPa) = 78.19170 80.86512 79.52841
# Shear Modulus (GPa) = 31.17797 32.93796 32.05796
#
# Velocity S-wave (km/s) = 4.14745 4.26290 4.20557
# Velocity P-wave (km/s) = 8.12863 8.29724 8.21337
#
# Compressibility (1/GPa) = 0.01278908
#
# Stress axis : x y z
#
# Youngs Moduli (GPa) = 95.31865 93.69572 99.88857
#
# Poissons Ratio (x) = 0.14185 0.42227
# Poissons Ratio (y) = 0.14431 0.34478
# Poissons Ratio (z) = 0.40295 0.32340
#
# Static dielectric constant tensor:
#      x y z
#    x 1.621040 0.000000 0.000000 
#    y 0.000000 1.616850 0.000000 
#    z 0.000000 0.000000 1.611870 
# 
# From -- ./inp_files/65213.got.cif
#   From: 2010.05.17/outbox.cif.g08.bks.cpg/sg65_33_cif.got.tgz:65213.got - 2010.06.03 17:01:31.
