data_PCOD9492654
_publ_section_title
;
Structure prediction by ZEFSAII (Michael W. Deem and Ramdas Pophale) SiO2 
 PCOD9492654
Probable space group: C M M M
;
_chemical_formula_sum "Si O2"
_cell_formula_units_Z 66
_cell_length_a 20.926501
_cell_length_b 17.144429
_cell_length_c 9.289520
_cell_angle_alpha 90.000000
_cell_angle_beta 90.000000
_cell_angle_gamma 90.000000
_cell_volume 3332.828129
_symmetry_space_group_name_H-M "C M M M"
_symmetry_group_IT_number 65
_symmetry_cell_setting 'orthorhombic'
loop_
_space_group_symop_operation_xyz
x,y,z
-x,-y,z
x,-y,-z
-x,y,-z
-x,-y,-z
x,y,-z
-x,y,z
x,-y,z
1/2+x,1/2+y,z
1/2-x,1/2-y,z
1/2+x,1/2-y,-z
1/2-x,1/2+y,-z
1/2-x,1/2-y,-z
1/2+x,1/2+y,-z
1/2-x,1/2+y,z
1/2+x,1/2-y,z
loop_
_atom_site_type_symbol
_atom_site_label
_atom_site_fract_x
_atom_site_fract_y
_atom_site_fract_z
Si Si1 0.500000 0.613922 0.271864
Si Si2 0.500000 0.800570 0.673295
Si Si3 0.000000 0.000000 0.000000
Si Si4 0.136358 0.854681 0.340198
Si Si5 0.372659 0.196961 0.828994
Si Si6 0.722859 0.910938 0.333034
O O1 0.500000 0.708668 0.281913
O O2 0.500000 0.568631 0.123648
O O3 0.429762 0.597549 0.336108
O O4 0.500000 0.806139 0.500000
O O5 0.564212 0.833131 0.745159
O O6 0.139526 0.817353 0.500000
O O7 0.135948 0.786349 0.222482
O O8 0.200573 0.903440 0.320099
O O9 0.312788 0.147728 0.772345
O O10 0.380403 0.192608 0.000000
O O11 0.707204 0.891707 0.500000
O O12 0.703828 0.000000 0.305088
#
# Coordination Sequence:
#
# PCOD9492654 Si02
#       6
#     8   8   2  16  16  16
#     4  10  22  38  56  84 119 157 198 235 295 347
#     4  10  21  41  68  89 112 152 199 250 289 342
#     4  12  28  36  50  88 132 172 180 242 316 352
#     4  10  21  39  64  87 114 158 209 251 285 341
#     4  11  22  37  61  93 120 152 192 244 301 357
#     4  10  22  40  59  84 119 159 201 245 294 349
#
# _framework density 19.803003
#
# number of rings (size 3 to 8) (size 9 to 14) (size 15 to 20)
#    0.000    1.697    0.000    5.818    8.485    4.364 
#    0.000    2.727    0.000    3.636    0.000    0.000 
#    0.000    0.000    0.000    0.000    0.000    0.000 
#
# Total GULP energy -183780.900916 kJ/mol
# GULP energy per Si atom -5569.118210 kJ/mol
# Density = 1.975793 g / cm^3
# Si number density = 19.803003 Si / 1000 Ang^3
#
#
#
# Elastic Constant Matrix: (Units=GPa)
#
#
# Indices 1 2 3 4 5 6 
#
# 1 108.0849 24.8361 54.5071 0.0000 0.0000 0.0000
# 2 24.8361 42.6983 51.8143 0.0000 0.0000 0.0000
# 3 54.5071 51.8143 162.9683 0.0000 0.0000 0.0000
# 4 0.0000 0.0000 0.0000 41.6449 0.0000 0.0000
# 5 0.0000 0.0000 0.0000 0.0000 4.4955 0.0000
# 6 0.0000 0.0000 0.0000 0.0000 0.0000 -13.7398
#
#
#
# Elastic Compliance Matrix: (Units=1/GPa)
#
#
# Indices 1 2 3 4 5 6 
#
# 1 0.011402 -0.003263 -0.002776 0.000000 0.000000 0.000000
# 2 -0.003263 0.039066 -0.011329 0.000000 0.000000 0.000000
# 3 -0.002776 -0.011329 0.010667 0.000000 0.000000 0.000000
# 4 0.000000 0.000000 0.000000 0.024013 0.000000 0.000000
# 5 0.000000 0.000000 0.000000 0.000000 0.222445 0.000000
# 6 0.000000 0.000000 0.000000 0.000000 0.000000 -0.072781
#
#
# Mechanical properties :
#
#
# Convention : Reuss Voigt Hill
#
# Bulk Modulus (GPa) = 37.88232 64.00738 50.94485
# Shear Modulus (GPa) = 17.96313 18.65305 18.30809
#
# Velocity S-wave (km/s) = 3.01506 3.07242 3.04388
# Velocity P-wave (km/s) = 5.59392 6.70661 6.17537
#
# Compressibility (1/GPa) = 0.02639754
#
# Stress axis : x y z
#
# Youngs Moduli (GPa) = 87.70575 25.59739 93.75018
#
# Poissons Ratio (x) = 0.08354 0.26024
# Poissons Ratio (y) = 0.28623 1.06212
# Poissons Ratio (z) = 0.24346 0.29000
#
# Static dielectric constant tensor:
#      x y z
#    x 1.757750 0.000000 0.000000 
#    y 0.000000 1.671600 0.000000 
#    z 0.000000 0.000000 1.686170 
# 
# From -- ./inp_files/10946.got.cif
#   From: 2010.05.17/outbox.cif.g08.bks.cpg/sg65_6_cif.got.tgz:10946.got - 2010.06.03 17:01:31.
