data_PCOD9492122
_publ_section_title
;
Structure prediction by ZEFSAII (Michael W. Deem and Ramdas Pophale) SiO2 
 PCOD9492122
Probable space group: C M M M
;
_chemical_formula_sum "Si O2"
_cell_formula_units_Z 72
_cell_length_a 7.604560
_cell_length_b 22.888983
_cell_length_c 18.651915
_cell_angle_alpha 90.000000
_cell_angle_beta 90.000000
_cell_angle_gamma 90.000000
_cell_volume 3246.564347
_symmetry_space_group_name_H-M "C M M M"
_symmetry_group_IT_number 65
_symmetry_cell_setting 'orthorhombic'
loop_
_space_group_symop_operation_xyz
x,y,z
-x,-y,z
x,-y,-z
-x,y,-z
-x,-y,-z
x,y,-z
-x,y,z
x,-y,z
1/2+x,1/2+y,z
1/2-x,1/2-y,z
1/2+x,1/2-y,-z
1/2-x,1/2+y,-z
1/2-x,1/2-y,-z
1/2+x,1/2+y,-z
1/2-x,1/2+y,z
1/2+x,1/2-y,z
loop_
_atom_site_type_symbol
_atom_site_label
_atom_site_fract_x
_atom_site_fract_y
_atom_site_fract_z
Si Si1 0.203387 0.934970 0.652580
Si Si2 0.712590 0.500000 0.917497
Si Si3 0.797214 0.400294 0.191539
Si Si4 0.711310 0.314767 0.582366
Si Si5 0.711128 0.818096 0.077361
O O1 0.206895 0.925175 0.738159
O O2 0.277982 0.874555 0.619494
O O3 0.000000 0.937737 0.628973
O O4 0.280459 0.000000 0.637188
O O5 0.500000 0.500000 0.913544
O O6 0.785394 0.554417 0.873600
O O7 0.765500 0.500000 0.000000
O O8 0.719083 0.344060 0.151731
O O9 0.000000 0.390887 0.212377
O O10 0.775116 0.314372 0.500000
O O11 0.500000 0.318547 0.582123
O O12 0.750000 0.250000 0.613814
O O13 0.500000 0.826973 0.078351
O O14 0.750000 0.750000 0.076178
O O15 0.776614 0.842457 0.000000
#
# Coordination Sequence:
#
# PCOD9492122 Si02
#       5
#    16   8  16  16  16
#     4  10  21  37  57  82 116 153 191 238 288 343
#     4  11  23  37  55  79 106 141 186 233 281 332
#     4  11  22  36  55  79 109 145 184 229 281 338
#     4   9  19  37  61  88 117 152 194 239 289 346
#     4   9  19  35  53  74 101 135 178 227 277 330
#
# _framework density 22.177289999999999
#
# number of rings (size 3 to 8) (size 9 to 14) (size 15 to 20)
#    0.000    2.111    1.111    1.667    0.000    5.778 
#    0.000    8.889    0.000    0.000    0.000    4.667 
#    0.000    0.000    0.000    0.000    0.000    0.000 
#
# Total GULP energy -200676.762388 kJ/mol
# GULP energy per Si atom -5574.354511 kJ/mol
# Density = 2.212681 g / cm^3
# Si number density = 22.177290 Si / 1000 Ang^3
#
#
#
# Elastic Constant Matrix: (Units=GPa)
#
#
# Indices 1 2 3 4 5 6 
#
# 1 59.0751 1.1534 -3.3061 0.0000 0.0000 0.0000
# 2 1.1534 178.1472 63.8715 0.0000 0.0000 0.0000
# 3 -3.3061 63.8715 68.0609 0.0000 0.0000 0.0000
# 4 0.0000 0.0000 0.0000 31.5574 0.0000 0.0000
# 5 0.0000 0.0000 0.0000 0.0000 9.9499 0.0000
# 6 0.0000 0.0000 0.0000 0.0000 0.0000 21.2774
#
#
#
# Elastic Compliance Matrix: (Units=1/GPa)
#
#
# Indices 1 2 3 4 5 6 
#
# 1 0.017018 -0.000613 0.001402 0.000000 0.000000 0.000000
# 2 -0.000613 0.008482 -0.007989 0.000000 0.000000 0.000000
# 3 0.001402 -0.007989 0.022258 0.000000 0.000000 0.000000
# 4 0.000000 0.000000 0.000000 0.031688 0.000000 0.000000
# 5 0.000000 0.000000 0.000000 0.000000 0.100503 0.000000
# 6 0.000000 0.000000 0.000000 0.000000 0.000000 0.046998
#
#
# Mechanical properties :
#
#
# Convention : Reuss Voigt Hill
#
# Bulk Modulus (GPa) = 29.97847 47.63563 38.80705
# Shear Modulus (GPa) = 19.80446 28.79457 24.29952
#
# Velocity S-wave (km/s) = 2.99156 3.60721 3.31372
# Velocity P-wave (km/s) = 5.04773 6.23502 5.67252
#
# Compressibility (1/GPa) = 0.03335727
#
# Stress axis : x y z
#
# Youngs Moduli (GPa) = 58.76126 117.89979 44.92670
#
# Poissons Ratio (x) = 0.07224 -0.06297
# Poissons Ratio (y) = 0.03600 0.35894
# Poissons Ratio (z) = -0.08236 0.94195
#
# Static dielectric constant tensor:
#      x y z
#    x 1.842870 0.000000 0.000000 
#    y 0.000000 1.973290 0.000000 
#    z 0.000000 0.000000 1.808400 
# 
# From -- ./inp_files/49528.got.cif
#   From: 2010.05.17/outbox.cif.g08.bks.cpg/sg65_25_cif.got.tgz:49528.got - 2010.06.03 17:01:31.
