data_PCOD9492040
_publ_section_title
;
Structure prediction by ZEFSAII (Michael W. Deem and Ramdas Pophale) SiO2 
 PCOD9492040
Probable space group: C M M M
;
_chemical_formula_sum "Si O2"
_cell_formula_units_Z 104
_cell_length_a 26.738698
_cell_length_b 8.962709
_cell_length_c 22.819396
_cell_angle_alpha 90.000000
_cell_angle_beta 90.000000
_cell_angle_gamma 90.000000
_cell_volume 5468.694932
_symmetry_space_group_name_H-M "C M M M"
_symmetry_group_IT_number 65
_symmetry_cell_setting 'orthorhombic'
loop_
_space_group_symop_operation_xyz
x,y,z
-x,-y,z
x,-y,-z
-x,y,-z
-x,-y,-z
x,y,-z
-x,y,z
x,-y,z
1/2+x,1/2+y,z
1/2-x,1/2-y,z
1/2+x,1/2-y,-z
1/2-x,1/2+y,-z
1/2-x,1/2-y,-z
1/2+x,1/2+y,-z
1/2-x,1/2+y,z
1/2+x,1/2-y,z
loop_
_atom_site_type_symbol
_atom_site_label
_atom_site_fract_x
_atom_site_fract_y
_atom_site_fract_z
Si Si1 0.803941 0.678202 0.930216
Si Si2 0.899308 0.179445 0.134201
Si Si3 0.341476 0.679544 0.565637
Si Si4 0.444816 0.321296 0.624566
Si Si5 0.000000 0.181384 0.066584
Si Si6 0.702424 0.172616 0.320933
Si Si7 0.404294 0.825602 0.259876
O O1 0.802135 0.500000 0.920911
O O2 0.750000 0.750000 0.915240
O O3 0.849477 0.748738 0.893668
O O4 0.812271 0.705524 0.000000
O O5 0.908077 0.234808 0.200213
O O6 0.948802 0.226132 0.098255
O O7 0.894833 0.000000 0.132320
O O8 0.328981 0.729570 0.500000
O O9 0.337054 0.500000 0.567863
O O10 0.399021 0.718501 0.581944
O O11 0.308845 0.749964 0.616949
O O12 0.500000 0.285563 0.601413
O O13 0.442002 0.500000 0.633671
O O14 0.436250 0.241920 0.686810
O O15 0.000000 0.000000 0.066415
O O16 0.000000 0.234357 0.000000
O O17 0.750000 0.250000 0.292377
O O18 0.652899 0.186113 0.282224
O O19 0.713044 0.000000 0.330749
O O20 0.416202 0.000000 0.251039
#
# Coordination Sequence:
#
# PCOD9492040 Si02
#       7
#    16  16  16  16   8  16  16
#     4  10  21  38  60  86 116 150 189 234 285 340
#     4  11  22  37  60  87 116 152 194 239 287 342
#     4   9  18  33  53  79 110 142 179 223 271 327
#     4   9  18  33  54  78 106 141 181 225 274 328
#     4   9  20  38  59  85 117 153 192 233 280 337
#     4  10  21  37  57  78 105 142 182 226 277 331
#     4  10  22  38  54  78 110 143 183 229 278 332
#
# _framework density 19.017334000000002
#
# number of rings (size 3 to 8) (size 9 to 14) (size 15 to 20)
#    0.000    2.231    0.000    2.308    1.077    5.231 
#    0.000    4.231    0.000    2.769    0.000    4.308 
#    0.000    0.000    0.000    0.000    0.000    0.000 
#
# Total GULP energy -290318.974214 kJ/mol
# GULP energy per Si atom -5583.057196 kJ/mol
# Density = 1.897405 g / cm^3
# Si number density = 19.017334 Si / 1000 Ang^3
#
#
#
# Elastic Constant Matrix: (Units=GPa)
#
#
# Indices 1 2 3 4 5 6 
#
# 1 61.8223 16.5813 -6.0983 0.0000 0.0000 0.0000
# 2 16.5813 41.8857 20.2473 0.0000 0.0000 0.0000
# 3 -6.0983 20.2473 67.4273 0.0000 0.0000 0.0000
# 4 0.0000 0.0000 0.0000 23.3388 0.0000 0.0000
# 5 0.0000 0.0000 0.0000 0.0000 -4.4503 0.0000
# 6 0.0000 0.0000 0.0000 0.0000 0.0000 26.0060
#
#
#
# Elastic Compliance Matrix: (Units=1/GPa)
#
#
# Indices 1 2 3 4 5 6 
#
# 1 0.019304 -0.009927 0.004727 0.000000 0.000000 0.000000
# 2 -0.009927 0.033033 -0.010817 0.000000 0.000000 0.000000
# 3 0.004727 -0.010817 0.018506 0.000000 0.000000 0.000000
# 4 0.000000 0.000000 0.000000 0.042847 0.000000 0.000000
# 5 0.000000 0.000000 0.000000 0.000000 -0.224704 0.000000
# 6 0.000000 0.000000 0.000000 0.000000 0.000000 0.038453
#
#
# Mechanical properties :
#
#
# Convention : Reuss Voigt Hill
#
# Bulk Modulus (GPa) = 25.76692 25.84398 25.80545
# Shear Modulus (GPa) = -181.22454 18.33923 -81.44266
#
# Velocity S-wave (km/s) = -9.77248 3.10876 -6.55122
# Velocity P-wave (km/s) = 10.66567 5.14830 6.60498
#
# Compressibility (1/GPa) = 0.03880944
#
# Stress axis : x y z
#
# Youngs Moduli (GPa) = 51.80247 30.27261 54.03509
#
# Poissons Ratio (x) = 0.30051 -0.25541
# Poissons Ratio (y) = 0.51423 0.58450
# Poissons Ratio (z) = -0.24486 0.32746
#
# Static dielectric constant tensor:
#      x y z
#    x 1.663570 0.000000 0.000000 
#    y 0.000000 1.638760 0.000000 
#    z 0.000000 0.000000 1.630260 
# 
# From -- ./inp_files/65890.got.cif
#   From: 2010.05.17/outbox.cif.g08.bks.cpg/sg65_33_cif.got.tgz:65890.got - 2010.06.03 17:01:31.
