data_PCOD9492127
_publ_section_title
;
Structure prediction by ZEFSAII (Michael W. Deem and Ramdas Pophale) SiO2 
 PCOD9492127
Probable space group: C M M M
;
_chemical_formula_sum "Si O2"
_cell_formula_units_Z 64
_cell_length_a 9.009244
_cell_length_b 22.457225
_cell_length_c 13.617486
_cell_angle_alpha 90.000000
_cell_angle_beta 90.000000
_cell_angle_gamma 90.000000
_cell_volume 2755.125440
_symmetry_space_group_name_H-M "C M M M"
_symmetry_group_IT_number 65
_symmetry_cell_setting 'orthorhombic'
loop_
_space_group_symop_operation_xyz
x,y,z
-x,-y,z
x,-y,-z
-x,y,-z
-x,-y,-z
x,y,-z
-x,y,z
x,-y,z
1/2+x,1/2+y,z
1/2-x,1/2-y,z
1/2+x,1/2-y,-z
1/2-x,1/2+y,-z
1/2-x,1/2-y,-z
1/2+x,1/2+y,-z
1/2-x,1/2+y,z
1/2+x,1/2-y,z
loop_
_atom_site_type_symbol
_atom_site_label
_atom_site_fract_x
_atom_site_fract_y
_atom_site_fract_z
Si Si1 0.337614 0.433529 0.617562
Si Si2 0.172439 0.809811 0.807796
Si Si3 0.826011 0.568452 0.881844
Si Si4 0.167072 0.675221 0.615850
O O1 0.351800 0.435227 0.500000
O O2 0.500000 0.410743 0.653922
O O3 0.321891 0.500000 0.653824
O O4 0.190714 0.395344 0.631010
O O5 0.250000 0.750000 0.850541
O O6 0.239497 0.873718 0.840647
O O7 0.205606 0.804807 0.690514
O O8 0.000000 0.807855 0.829992
O O9 0.778046 0.500000 0.857382
O O10 0.000000 0.573964 0.854904
O O11 0.816095 0.572335 0.000000
O O12 0.191047 0.688069 0.500000
O O13 0.000000 0.692767 0.642669
#
# Coordination Sequence:
#
# PCOD9492127 Si02
#       4
#    16  16  16  16
#     4   8  14  26  45  70 102 142 191 248 308 368
#     4  12  26  43  65  94 132 176 222 274 329 389
#     4   9  20  43  75 107 138 172 211 260 321 390
#     4  10  21  37  57  82 116 162 217 274 329 386
#
# _framework density 23.229431999999999
#
# number of rings (size 3 to 8) (size 9 to 14) (size 15 to 20)
#    0.000    2.250    0.000    4.500    0.000    5.000 
#    0.000    3.750    0.000    0.000    0.000    0.000 
#    0.000    0.000    0.000    0.000    0.000    0.000 
#
# Total GULP energy -178281.813363 kJ/mol
# GULP energy per Si atom -5571.306668 kJ/mol
# Density = 2.317656 g / cm^3
# Si number density = 23.229432 Si / 1000 Ang^3
#
#
#
# Elastic Constant Matrix: (Units=GPa)
#
#
# Indices 1 2 3 4 5 6 
#
# 1 142.2305 105.3187 39.8024 0.0000 0.0000 0.0000
# 2 105.3187 188.0949 21.0655 0.0000 0.0000 0.0000
# 3 39.8024 21.0655 73.8034 0.0000 0.0000 0.0000
# 4 0.0000 0.0000 0.0000 8.4643 0.0000 0.0000
# 5 0.0000 0.0000 0.0000 0.0000 27.2440 0.0000
# 6 0.0000 0.0000 0.0000 0.0000 0.0000 44.4883
#
#
#
# Elastic Compliance Matrix: (Units=1/GPa)
#
#
# Indices 1 2 3 4 5 6 
#
# 1 0.013835 -0.007139 -0.005424 0.000000 0.000000 0.000000
# 2 -0.007139 0.009176 0.001231 0.000000 0.000000 0.000000
# 3 -0.005424 0.001231 0.016123 0.000000 0.000000 0.000000
# 4 0.000000 0.000000 0.000000 0.118143 0.000000 0.000000
# 5 0.000000 0.000000 0.000000 0.000000 0.036705 0.000000
# 6 0.000000 0.000000 0.000000 0.000000 0.000000 0.022478
#
#
# Mechanical properties :
#
#
# Convention : Reuss Voigt Hill
#
# Bulk Modulus (GPa) = 60.71343 81.83357 71.27350
# Shear Modulus (GPa) = 20.44037 31.90212 26.17125
#
# Velocity S-wave (km/s) = 2.96959 3.70989 3.36019
# Velocity P-wave (km/s) = 6.16045 7.32502 6.76783
#
# Compressibility (1/GPa) = 0.01647082
#
# Stress axis : x y z
#
# Youngs Moduli (GPa) = 72.28080 108.98070 62.02296
#
# Poissons Ratio (x) = 0.77802 0.33638
# Poissons Ratio (y) = 0.51602 -0.07635
# Poissons Ratio (z) = 0.39202 -0.13416
#
# Static dielectric constant tensor:
#      x y z
#    x 1.855600 0.000000 0.000000 
#    y 0.000000 2.092800 0.000000 
#    z 0.000000 0.000000 1.915980 
# 
# From -- ./inp_files/35977.got.cif
#   From: 2010.05.17/outbox.cif.g08.bks.cpg/sg65_18_cif.got.tgz:35977.got - 2010.06.03 17:01:31.
