data_PCOD9492275
_publ_section_title
;
Structure prediction by ZEFSAII (Michael W. Deem and Ramdas Pophale) SiO2 
 PCOD9492275
Probable space group: C M M M
;
_chemical_formula_sum "Si O2"
_cell_formula_units_Z 64
_cell_length_a 24.724121
_cell_length_b 16.126796
_cell_length_c 7.516178
_cell_angle_alpha 90.000000
_cell_angle_beta 90.000000
_cell_angle_gamma 90.000000
_cell_volume 2996.856923
_symmetry_space_group_name_H-M "C M M M"
_symmetry_group_IT_number 65
_symmetry_cell_setting 'orthorhombic'
loop_
_space_group_symop_operation_xyz
x,y,z
-x,-y,z
x,-y,-z
-x,y,-z
-x,-y,-z
x,y,-z
-x,y,z
x,-y,z
1/2+x,1/2+y,z
1/2-x,1/2-y,z
1/2+x,1/2-y,-z
1/2-x,1/2+y,-z
1/2-x,1/2-y,-z
1/2+x,1/2+y,-z
1/2-x,1/2+y,z
1/2+x,1/2-y,z
loop_
_atom_site_type_symbol
_atom_site_label
_atom_site_fract_x
_atom_site_fract_y
_atom_site_fract_z
Si Si1 0.000000 0.129732 0.283087
Si Si2 0.110923 0.595413 0.717987
Si Si3 0.777730 0.667570 0.708376
Si Si4 0.000000 0.319169 0.282434
Si Si5 0.910348 0.000000 0.715193
Si Si6 0.284068 0.500000 0.794881
O O1 0.000000 0.223978 0.224083
O O2 0.000000 0.129052 0.500000
O O3 0.946502 0.078979 0.228761
O O4 0.111505 0.595936 0.500000
O O5 0.115385 0.500000 0.772551
O O6 0.163307 0.645267 0.782135
O O7 0.054401 0.634803 0.774398
O O8 0.786817 0.685349 0.500000
O O9 0.750000 0.750000 0.785443
O O10 0.741078 0.584817 0.718267
O O11 0.000000 0.319432 0.500000
O O12 0.908472 0.000000 0.500000
O O13 0.848878 0.000000 0.777264
O O14 0.268746 0.500000 0.000000
#
# Coordination Sequence:
#
# PCOD9492275 Si02
#       6
#     8  16  16   8   8   8
#     4   8  16  30  50  80 111 139 177 235 290 330
#     4   9  16  28  46  75 112 141 171 223 287 340
#     4  10  21  37  60  86 112 147 194 246 291 338
#     4   9  16  24  44  79 112 137 170 221 288 343
#     4   9  18  34  56  80 111 145 183 232 282 335
#     4  12  25  39  57  83 117 158 192 234 289 348
#
# _framework density 21.355708
#
# number of rings (size 3 to 8) (size 9 to 14) (size 15 to 20)
#    0.000    2.500    1.250    2.250    3.500    2.000 
#    0.000    1.250    0.000    0.000    0.000    1.750 
#    0.000    0.000    0.000    0.000    0.000    0.000 
#
# Total GULP energy -178717.582131 kJ/mol
# GULP energy per Si atom -5584.924442 kJ/mol
# Density = 2.130710 g / cm^3
# Si number density = 21.355708 Si / 1000 Ang^3
#
#
#
# Elastic Constant Matrix: (Units=GPa)
#
#
# Indices 1 2 3 4 5 6 
#
# 1 224.1742 118.8004 -5.2433 0.0000 0.0000 0.0000
# 2 118.8004 191.8138 -0.5362 0.0000 0.0000 0.0000
# 3 -5.2433 -0.5362 53.5063 0.0000 0.0000 0.0000
# 4 0.0000 0.0000 0.0000 14.2066 0.0000 0.0000
# 5 0.0000 0.0000 0.0000 0.0000 -31.3128 0.0000
# 6 0.0000 0.0000 0.0000 0.0000 0.0000 0.6192
#
#
#
# Elastic Compliance Matrix: (Units=1/GPa)
#
#
# Indices 1 2 3 4 5 6 
#
# 1 0.006660 -0.004123 0.000611 0.000000 0.000000 0.000000
# 2 -0.004123 0.007766 -0.000326 0.000000 0.000000 0.000000
# 3 0.000611 -0.000326 0.018746 0.000000 0.000000 0.000000
# 4 0.000000 0.000000 0.000000 0.070390 0.000000 0.000000
# 5 0.000000 0.000000 0.000000 0.000000 -0.031936 0.000000
# 6 0.000000 0.000000 0.000000 0.000000 0.000000 1.615028
#
#
# Mechanical properties :
#
#
# Convention : Reuss Voigt Hill
#
# Bulk Modulus (GPa) = 39.22170 77.28180 58.25175
# Shear Modulus (GPa) = 2.93629 20.46750 11.70189
#
# Velocity S-wave (km/s) = 1.17385 3.09918 2.34338
# Velocity P-wave (km/s) = 4.49922 7.00521 5.88710
#
# Compressibility (1/GPa) = 0.02549609
#
# Stress axis : x y z
#
# Youngs Moduli (GPa) = 150.14411 128.76178 53.34467
#
# Poissons Ratio (x) = 0.53093 -0.03261
# Poissons Ratio (y) = 0.61910 0.01740
# Poissons Ratio (z) = -0.09179 0.04201
#
# Static dielectric constant tensor:
#      x y z
#    x 1.733170 0.000000 0.000000 
#    y 0.000000 1.748240 0.000000 
#    z 0.000000 0.000000 1.779270 
# 
# From -- ./inp_files/13423.got.cif
#   From: 2010.05.17/outbox.cif.g08.bks.cpg/sg65_7_cif.got.tgz:13423.got - 2010.06.03 17:01:31.
