data_PCOD9492537
_publ_section_title
;
Structure prediction by ZEFSAII (Michael W. Deem and Ramdas Pophale) SiO2 
 PCOD9492537
Probable space group: C M M M
;
_chemical_formula_sum "Si O2"
_cell_formula_units_Z 88
_cell_length_a 9.048397
_cell_length_b 26.836024
_cell_length_c 19.343156
_cell_angle_alpha 90.000000
_cell_angle_beta 90.000000
_cell_angle_gamma 90.000000
_cell_volume 4696.963151
_symmetry_space_group_name_H-M "C M M M"
_symmetry_group_IT_number 65
_symmetry_cell_setting 'orthorhombic'
loop_
_space_group_symop_operation_xyz
x,y,z
-x,-y,z
x,-y,-z
-x,y,-z
-x,-y,-z
x,y,-z
-x,y,z
x,-y,z
1/2+x,1/2+y,z
1/2-x,1/2-y,z
1/2+x,1/2-y,-z
1/2-x,1/2+y,-z
1/2-x,1/2-y,-z
1/2+x,1/2+y,-z
1/2-x,1/2+y,z
1/2+x,1/2-y,z
loop_
_atom_site_type_symbol
_atom_site_label
_atom_site_fract_x
_atom_site_fract_y
_atom_site_fract_z
Si Si1 0.328245 0.555895 0.289249
Si Si2 0.678646 0.599001 0.853315
Si Si3 0.678566 0.908911 0.421813
Si Si4 0.326719 0.000000 0.916908
Si Si5 0.666429 0.201859 0.416269
Si Si6 0.174375 0.697453 0.083342
O O1 0.500000 0.564438 0.306472
O O2 0.315940 0.500000 0.259959
O O3 0.284303 0.593066 0.228178
O O4 0.236313 0.558877 0.359179
O O5 0.500000 0.598052 0.860206
O O6 0.747778 0.550352 0.890272
O O7 0.745585 0.649750 0.883525
O O8 0.725185 0.922769 0.500000
O O9 0.500000 0.907918 0.422565
O O10 0.732787 0.852651 0.405222
O O11 0.500000 0.000000 0.895499
O O12 0.321596 0.000000 0.000000
O O13 0.658883 0.206013 0.500000
O O14 0.500000 0.202131 0.389412
O O15 0.750000 0.250000 0.389551
O O16 0.250000 0.750000 0.103346
O O17 0.000000 0.697790 0.100570
O O18 0.187152 0.693122 0.000000
#
# Coordination Sequence:
#
# PCOD9492537 Si02
#       6
#    16  16  16   8  16  16
#     4  10  22  40  57  77 108 145 187 235 290 348
#     4  11  22  39  60  84 118 158 198 242 293 350
#     4   9  19  35  54  79 108 139 182 234 286 345
#     4  11  23  37  57  89 122 151 190 239 287 342
#     4   8  14  26  45  70 100 129 160 205 260 318
#     4  10  21  38  61  91 125 160 200 244 290 344
#
# _framework density 18.735510000000001
#
# number of rings (size 3 to 8) (size 9 to 14) (size 15 to 20)
#    0.000    2.273    0.909    3.000    0.000    7.273 
#    0.000    4.545    0.000    2.182    0.000    0.000 
#    0.000    0.000    0.000    0.000    0.000    0.000 
#
# Total GULP energy -245308.809271 kJ/mol
# GULP energy per Si atom -5575.200211 kJ/mol
# Density = 1.869287 g / cm^3
# Si number density = 18.735510 Si / 1000 Ang^3
#
#
#
# Elastic Constant Matrix: (Units=GPa)
#
#
# Indices 1 2 3 4 5 6 
#
# 1 75.8305 58.9470 45.6676 0.0000 0.0000 0.0000
# 2 58.9470 128.3449 50.9773 0.0000 0.0000 0.0000
# 3 45.6676 50.9773 77.0628 0.0000 0.0000 0.0000
# 4 0.0000 0.0000 0.0000 26.8507 0.0000 0.0000
# 5 0.0000 0.0000 0.0000 0.0000 23.7230 0.0000
# 6 0.0000 0.0000 0.0000 0.0000 0.0000 35.0081
#
#
#
# Elastic Compliance Matrix: (Units=1/GPa)
#
#
# Indices 1 2 3 4 5 6 
#
# 1 0.024975 -0.007585 -0.009783 0.000000 0.000000 0.000000
# 2 -0.007585 0.012872 -0.004020 0.000000 0.000000 0.000000
# 3 -0.009783 -0.004020 0.021433 0.000000 0.000000 0.000000
# 4 0.000000 0.000000 0.000000 0.037243 0.000000 0.000000
# 5 0.000000 0.000000 0.000000 0.000000 0.042153 0.000000
# 6 0.000000 0.000000 0.000000 0.000000 0.000000 0.028565
#
#
# Mechanical properties :
#
#
# Convention : Reuss Voigt Hill
#
# Bulk Modulus (GPa) = 60.58968 65.82467 63.20718
# Shear Modulus (GPa) = 23.19995 25.49277 24.34636
#
# Velocity S-wave (km/s) = 3.52275 3.69272 3.60874
# Velocity P-wave (km/s) = 6.99686 7.30695 7.15358
#
# Compressibility (1/GPa) = 0.01650446
#
# Stress axis : x y z
#
# Youngs Moduli (GPa) = 40.03987 77.68877 46.65737
#
# Poissons Ratio (x) = 0.58928 0.45644
# Poissons Ratio (y) = 0.30371 0.18755
# Poissons Ratio (z) = 0.39170 0.31230
#
# Static dielectric constant tensor:
#      x y z
#    x 1.647250 0.000000 0.000000 
#    y 0.000000 1.675460 0.000000 
#    z 0.000000 0.000000 1.636000 
# 
# From -- ./inp_files/60148.got.cif
#   From: 2010.05.17/outbox.cif.g08.bks.cpg/sg65_31_cif.got.tgz:60148.got - 2010.06.03 17:01:31.
