data_PCOD9492874
_publ_section_title
;
Structure prediction by ZEFSAII (Michael W. Deem and Ramdas Pophale) SiO2 
 PCOD9492874
Probable space group: C M M M
;
_chemical_formula_sum "Si O2"
_cell_formula_units_Z 66
_cell_length_a 8.691857
_cell_length_b 19.342850
_cell_length_c 21.077526
_cell_angle_alpha 90.000000
_cell_angle_beta 90.000000
_cell_angle_gamma 90.000000
_cell_volume 3543.665091
_symmetry_space_group_name_H-M "C M M M"
_symmetry_group_IT_number 65
_symmetry_cell_setting 'orthorhombic'
loop_
_space_group_symop_operation_xyz
x,y,z
-x,-y,z
x,-y,-z
-x,y,-z
-x,-y,-z
x,y,-z
-x,y,z
x,-y,z
1/2+x,1/2+y,z
1/2-x,1/2-y,z
1/2+x,1/2-y,-z
1/2-x,1/2+y,-z
1/2-x,1/2-y,-z
1/2+x,1/2+y,-z
1/2-x,1/2+y,z
1/2+x,1/2-y,z
loop_
_atom_site_type_symbol
_atom_site_label
_atom_site_fract_x
_atom_site_fract_y
_atom_site_fract_z
Si Si1 0.313947 0.827754 0.138892
Si Si2 0.817300 0.176686 0.634578
Si Si3 0.830084 0.643687 0.500000
Si Si4 0.185382 0.672282 0.000000
Si Si5 0.813794 0.580126 0.741690
Si Si6 0.000000 0.500000 0.500000
O O1 0.500000 0.823766 0.140360
O O2 0.250000 0.750000 0.146110
O O3 0.264763 0.876868 0.196211
O O4 0.267762 0.856339 0.068954
O O5 0.750000 0.250000 0.657391
O O6 0.757739 0.164102 0.563452
O O7 0.754191 0.116774 0.679992
O O8 0.000000 0.178886 0.636502
O O9 0.000000 0.678571 0.500000
O O10 0.868908 0.562045 0.500000
O O11 0.250000 0.750000 0.000000
O O12 0.000000 0.673887 0.000000
O O13 0.769201 0.500000 0.745840
O O14 0.000000 0.583038 0.737725
#
# Coordination Sequence:
#
# PCOD9492874 Si02
#       6
#    16  16   8   8  16   2
#     4   9  17  31  52  78 106 141 183 231 280 334
#     4  12  25  41  62  89 116 149 190 238 284 331
#     4  10  22  42  66  90 118 151 186 220 276 332
#     4   8  14  26  47  75 105 135 177 228 279 328
#     4  10  22  38  56  78 113 153 190 231 285 341
#     4   8  24  40  70  92 120 160 180 218 292 324
#
# _framework density 18.624784999999999
#
# number of rings (size 3 to 8) (size 9 to 14) (size 15 to 20)
#    0.364    1.697    0.000    3.636    1.697    3.394 
#    0.000    1.212    0.000    3.636    0.000    0.000 
#    0.000   11.636    0.000    0.000    0.000    0.000 
#
# Total GULP energy -183835.401535 kJ/mol
# GULP energy per Si atom -5570.769743 kJ/mol
# Density = 1.858239 g / cm^3
# Si number density = 18.624785 Si / 1000 Ang^3
#
#
#
# Elastic Constant Matrix: (Units=GPa)
#
#
# Indices 1 2 3 4 5 6 
#
# 1 42.3628 35.0623 39.4500 0.0000 0.0000 0.0000
# 2 35.0623 118.8310 67.3492 0.0000 0.0000 0.0000
# 3 39.4500 67.3492 173.4700 0.0000 0.0000 0.0000
# 4 0.0000 0.0000 0.0000 14.9617 0.0000 0.0000
# 5 0.0000 0.0000 0.0000 0.0000 18.2343 0.0000
# 6 0.0000 0.0000 0.0000 0.0000 0.0000 25.1374
#
#
#
# Elastic Compliance Matrix: (Units=1/GPa)
#
#
# Indices 1 2 3 4 5 6 
#
# 1 0.034265 -0.007300 -0.004958 0.000000 0.000000 0.000000
# 2 -0.007300 0.012345 -0.003133 0.000000 0.000000 0.000000
# 3 -0.004958 -0.003133 0.008109 0.000000 0.000000 0.000000
# 4 0.000000 0.000000 0.000000 0.066837 0.000000 0.000000
# 5 0.000000 0.000000 0.000000 0.000000 0.054842 0.000000
# 6 0.000000 0.000000 0.000000 0.000000 0.000000 0.039781
#
#
# Mechanical properties :
#
#
# Convention : Reuss Voigt Hill
#
# Bulk Modulus (GPa) = 41.77748 68.70964 55.24356
# Shear Modulus (GPa) = 19.61253 24.52017 22.06635
#
# Velocity S-wave (km/s) = 3.24857 3.63234 3.44580
# Velocity P-wave (km/s) = 6.04572 7.38671 6.74960
#
# Compressibility (1/GPa) = 0.02393634
#
# Stress axis : x y z
#
# Youngs Moduli (GPa) = 29.18435 81.00607 123.32735
#
# Poissons Ratio (x) = 0.59135 0.61148
# Poissons Ratio (y) = 0.21305 0.38634
# Poissons Ratio (z) = 0.14470 0.25376
#
# Static dielectric constant tensor:
#      x y z
#    x 1.630390 0.000000 0.000000 
#    y 0.000000 1.613680 0.000000 
#    z 0.000000 0.000000 1.670580 
# 
# From -- ./inp_files/49248.got.cif
#   From: 2010.05.17/outbox.cif.g08.bks.cpg/sg65_25_cif.got.tgz:49248.got - 2010.06.03 17:01:31.
