data_PCOD9492014
_publ_section_title
;
Structure prediction by ZEFSAII (Michael W. Deem and Ramdas Pophale) SiO2 
 PCOD9492014
Probable space group: C M M M
;
_chemical_formula_sum "Si O2"
_cell_formula_units_Z 72
_cell_length_a 19.946043
_cell_length_b 22.929309
_cell_length_c 8.287008
_cell_angle_alpha 90.000000
_cell_angle_beta 90.000000
_cell_angle_gamma 90.000000
_cell_volume 3790.054683
_symmetry_space_group_name_H-M "C M M M"
_symmetry_group_IT_number 65
_symmetry_cell_setting 'orthorhombic'
loop_
_space_group_symop_operation_xyz
x,y,z
-x,-y,z
x,-y,-z
-x,y,-z
-x,-y,-z
x,y,-z
-x,y,z
x,-y,z
1/2+x,1/2+y,z
1/2-x,1/2-y,z
1/2+x,1/2-y,-z
1/2-x,1/2+y,-z
1/2-x,1/2-y,-z
1/2+x,1/2+y,-z
1/2-x,1/2+y,z
1/2+x,1/2-y,z
loop_
_atom_site_type_symbol
_atom_site_label
_atom_site_fract_x
_atom_site_fract_y
_atom_site_fract_z
Si Si1 0.422610 0.000000 0.306167
Si Si2 0.423819 0.352012 0.694730
Si Si3 0.077028 0.278199 0.194981
Si Si4 0.338478 0.111458 0.193231
Si Si5 0.196465 0.066893 0.694807
O O1 0.384501 0.057153 0.244656
O O2 0.500000 0.000000 0.253202
O O3 0.420422 0.000000 0.500000
O O4 0.424809 0.354396 0.500000
O O5 0.500000 0.363384 0.752182
O O6 0.405423 0.286310 0.745065
O O7 0.368969 0.398240 0.752792
O O8 0.126928 0.328771 0.251573
O O9 0.000000 0.290672 0.245852
O O10 0.077909 0.277697 0.000000
O O11 0.264131 0.099961 0.257185
O O12 0.335869 0.113325 0.000000
O O13 0.193864 0.064963 0.500000
O O14 0.198814 0.000000 0.753474
#
# Coordination Sequence:
#
# PCOD9492014 Si02
#       5
#     8  16  16  16  16
#     4  11  23  37  55  81 112 147 186 227 273 322
#     4   9  19  36  58  83 108 140 185 232 279 333
#     4   9  19  36  56  79 109 144 182 227 276 324
#     4  11  22  36  56  81 111 148 188 227 269 326
#     4  10  21  37  56  79 112 148 183 229 281 331
#
# _framework density 18.997088999999999
#
# number of rings (size 3 to 8) (size 9 to 14) (size 15 to 20)
#    0.000    2.111    1.111    1.667    0.000    5.778 
#    0.000    8.889    0.000    0.000    0.000    4.667 
#    0.000    0.000    0.000    0.000    0.000    0.000 
#
# Total GULP energy -201010.426925 kJ/mol
# GULP energy per Si atom -5583.622970 kJ/mol
# Density = 1.895385 g / cm^3
# Si number density = 18.997089 Si / 1000 Ang^3
#
#
#
# Elastic Constant Matrix: (Units=GPa)
#
#
# Indices 1 2 3 4 5 6 
#
# 1 148.3207 100.8877 15.2745 0.0000 0.0000 0.0000
# 2 100.8877 120.8340 16.2340 0.0000 0.0000 0.0000
# 3 15.2745 16.2340 8.5515 0.0000 0.0000 0.0000
# 4 0.0000 0.0000 0.0000 33.3949 0.0000 0.0000
# 5 0.0000 0.0000 0.0000 0.0000 14.4722 0.0000
# 6 0.0000 0.0000 0.0000 0.0000 0.0000 40.9950
#
#
#
# Elastic Compliance Matrix: (Units=1/GPa)
#
#
# Indices 1 2 3 4 5 6 
#
# 1 0.015718 -0.012553 -0.004244 0.000000 0.000000 0.000000
# 2 -0.012553 0.021135 -0.017700 0.000000 0.000000 0.000000
# 3 -0.004244 -0.017700 0.158120 0.000000 0.000000 0.000000
# 4 0.000000 0.000000 0.000000 0.029945 0.000000 0.000000
# 5 0.000000 0.000000 0.000000 0.000000 0.069098 0.000000
# 6 0.000000 0.000000 0.000000 0.000000 0.000000 0.024393
#
#
# Mechanical properties :
#
#
# Convention : Reuss Voigt Hill
#
# Bulk Modulus (GPa) = 7.93787 60.27761 34.10774
# Shear Modulus (GPa) = 11.64429 27.45975 19.55202
#
# Velocity S-wave (km/s) = 2.47847 3.80606 3.21161
# Velocity P-wave (km/s) = 3.51823 7.14938 5.63434
#
# Compressibility (1/GPa) = 0.12597842
#
# Stress axis : x y z
#
# Youngs Moduli (GPa) = 63.62219 47.31579 6.32431
#
# Poissons Ratio (x) = 0.59395 0.02684
# Poissons Ratio (y) = 0.79865 0.11194
# Poissons Ratio (z) = 0.27004 0.83747
#
# Static dielectric constant tensor:
#      x y z
#    x 1.651410 0.000000 0.000000 
#    y 0.000000 1.633680 0.000000 
#    z 0.000000 0.000000 1.665810 
# 
# From -- ./inp_files/9292.got.cif
#   From: 2010.05.17/outbox.cif.g08.bks.cpg/sg65_5_cif.got.tgz:9292.got - 2010.06.03 17:01:31.
