data_PCOD9492624
_publ_section_title
;
Structure prediction by ZEFSAII (Michael W. Deem and Ramdas Pophale) SiO2 
 PCOD9492624
Probable space group: C M M M
;
_chemical_formula_sum "Si O2"
_cell_formula_units_Z 58
_cell_length_a 7.777106
_cell_length_b 37.531749
_cell_length_c 10.130159
_cell_angle_alpha 90.000000
_cell_angle_beta 90.000000
_cell_angle_gamma 90.000000
_cell_volume 2956.875804
_symmetry_space_group_name_H-M "C M M M"
_symmetry_group_IT_number 65
_symmetry_cell_setting 'orthorhombic'
loop_
_space_group_symop_operation_xyz
x,y,z
-x,-y,z
x,-y,-z
-x,y,-z
-x,-y,-z
x,y,-z
-x,y,z
x,-y,z
1/2+x,1/2+y,z
1/2-x,1/2-y,z
1/2+x,1/2-y,-z
1/2-x,1/2+y,-z
1/2-x,1/2-y,-z
1/2+x,1/2+y,-z
1/2-x,1/2+y,z
1/2+x,1/2-y,z
loop_
_atom_site_type_symbol
_atom_site_label
_atom_site_fract_x
_atom_site_fract_y
_atom_site_fract_z
Si Si1 0.194467 0.000000 0.720447
Si Si2 0.795861 0.211977 0.349349
Si Si3 0.204790 0.365496 0.650825
Si Si4 0.709283 0.926462 0.150262
Si Si5 0.000000 0.500000 0.500000
O O1 0.219313 0.035422 0.807262
O O2 0.347325 0.000000 0.613879
O O3 0.000000 0.000000 0.665605
O O4 0.722777 0.212861 0.500000
O O5 0.750000 0.250000 0.286301
O O6 0.735526 0.174241 0.293745
O O7 0.000000 0.210412 0.356734
O O8 0.274594 0.367457 0.500000
O O9 0.269580 0.396373 0.746511
O O10 0.000000 0.370291 0.641200
O O11 0.500000 0.928160 0.156911
O O12 0.756194 0.917684 0.000000
#
# Coordination Sequence:
#
# PCOD9492624 Si02
#       5
#     8  16  16  16   2
#     4  12  26  42  68  95 122 165 205 246 305 363
#     4   9  16  27  45  71 105 141 181 231 291 354
#     4   9  18  31  52  79 111 150 193 240 296 354
#     4  10  21  39  62  86 121 165 203 246 299 358
#     4  12  26  48  66  94 136 152 196 264 304 362
#
# _framework density 19.615297999999999
#
# number of rings (size 3 to 8) (size 9 to 14) (size 15 to 20)
#    0.000    2.207    1.379    1.448    1.931    6.621 
#    0.000    0.000    0.000    0.828    0.000    0.000 
#    0.000    0.000    0.000    0.000    0.000    0.000 
#
# Total GULP energy -161447.176306 kJ/mol
# GULP energy per Si atom -5567.144011 kJ/mol
# Density = 1.957065 g / cm^3
# Si number density = 19.615298 Si / 1000 Ang^3
#
#
#
# Elastic Constant Matrix: (Units=GPa)
#
#
# Indices 1 2 3 4 5 6 
#
# 1 72.9894 8.1231 27.9199 0.0000 0.0000 0.0000
# 2 8.1231 199.7923 73.2378 0.0000 0.0000 0.0000
# 3 27.9199 73.2378 89.4795 0.0000 0.0000 0.0000
# 4 0.0000 0.0000 0.0000 26.1130 0.0000 0.0000
# 5 0.0000 0.0000 0.0000 0.0000 1.5935 0.0000
# 6 0.0000 0.0000 0.0000 0.0000 0.0000 22.4906
#
#
#
# Elastic Compliance Matrix: (Units=1/GPa)
#
#
# Indices 1 2 3 4 5 6 
#
# 1 0.015942 0.001679 -0.006349 0.000000 0.000000 0.000000
# 2 0.001679 0.007327 -0.006521 0.000000 0.000000 0.000000
# 3 -0.006349 -0.006521 0.018494 0.000000 0.000000 0.000000
# 4 0.000000 0.000000 0.000000 0.038295 0.000000 0.000000
# 5 0.000000 0.000000 0.000000 0.000000 0.627558 0.000000
# 6 0.000000 0.000000 0.000000 0.000000 0.000000 0.044463
#
#
# Mechanical properties :
#
#
# Convention : Reuss Voigt Hill
#
# Bulk Modulus (GPa) = 51.59398 64.53590 58.06494
# Shear Modulus (GPa) = 6.40268 26.90479 16.65373
#
# Velocity S-wave (km/s) = 1.80865 3.70756 2.91695
# Velocity P-wave (km/s) = 5.54271 7.16242 6.40398
#
# Compressibility (1/GPa) = 0.01938211
#
# Stress axis : x y z
#
# Youngs Moduli (GPa) = 62.72642 136.47305 54.07066
#
# Poissons Ratio (x) = -0.22915 0.34328
# Poissons Ratio (y) = -0.10532 0.35261
# Poissons Ratio (z) = 0.39823 0.88999
#
# Static dielectric constant tensor:
#      x y z
#    x 1.704430 0.000000 0.000000 
#    y 0.000000 1.707980 0.000000 
#    z 0.000000 0.000000 1.670170 
# 
# From -- ./inp_files/20853.got.cif
#   From: 2010.05.17/outbox.cif.g08.bks.cpg/sg65_11_cif.got.tgz:20853.got - 2010.06.03 17:01:31.
