data_PCOD9492904
_publ_section_title
;
Structure prediction by ZEFSAII (Michael W. Deem and Ramdas Pophale) SiO2 
 PCOD9492904
Probable space group: C M M M
;
_chemical_formula_sum "Si O2"
_cell_formula_units_Z 84
_cell_length_a 26.478687
_cell_length_b 14.164731
_cell_length_c 12.835228
_cell_angle_alpha 90.000000
_cell_angle_beta 90.000000
_cell_angle_gamma 90.000000
_cell_volume 4814.025262
_symmetry_space_group_name_H-M "C M M M"
_symmetry_group_IT_number 65
_symmetry_cell_setting 'orthorhombic'
loop_
_space_group_symop_operation_xyz
x,y,z
-x,-y,z
x,-y,-z
-x,y,-z
-x,-y,-z
x,y,-z
-x,y,z
x,-y,z
1/2+x,1/2+y,z
1/2-x,1/2-y,z
1/2+x,1/2-y,-z
1/2-x,1/2+y,-z
1/2-x,1/2-y,-z
1/2+x,1/2+y,-z
1/2-x,1/2+y,z
1/2+x,1/2-y,z
loop_
_atom_site_type_symbol
_atom_site_label
_atom_site_fract_x
_atom_site_fract_y
_atom_site_fract_z
Si Si1 0.819697 0.000000 0.382891
Si Si2 0.728111 0.000000 0.219798
Si Si3 0.500000 0.610933 0.626868
Si Si4 0.307949 0.715724 0.000000
Si Si5 0.283988 0.500000 0.000000
Si Si6 0.389293 0.315941 0.621159
Si Si7 0.946003 0.387212 0.118464
Si Si8 0.155738 0.319638 0.789003
O O1 0.856960 0.911535 0.373501
O O2 0.797639 0.000000 0.500000
O O3 0.775144 0.000000 0.298827
O O4 0.695151 0.095648 0.230793
O O5 0.749566 0.000000 0.102660
O O6 0.500000 0.500000 0.659690
O O7 0.500000 0.609784 0.500000
O O8 0.552941 0.661490 0.657656
O O9 0.250000 0.750000 0.000000
O O10 0.329446 0.759431 0.107714
O O11 0.312435 0.601420 0.000000
O O12 0.392342 0.285968 0.500000
O O13 0.356475 0.244647 0.690088
O O14 0.948240 0.500000 0.112123
O O15 0.898296 0.363215 0.184833
O O16 0.000000 0.352519 0.159205
O O17 0.939835 0.351652 0.000000
#
# Coordination Sequence:
#
# PCOD9492904 Si02
#       8
#     8   8   8   8   4  16  16  16
#     4  10  22  41  60  81 112 152 200 249 295 351
#     4  12  24  38  60  85 116 161 200 243 290 354
#     4   9  16  36  66  90 112 147 200 254 299 352
#     4  12  24  40  61  87 115 161 199 244 295 344
#     4  12  24  40  60  84 122 144 206 250 286 344
#     4  10  22  38  60  89 118 151 197 248 299 354
#     4   9  18  34  57  83 112 149 197 245 284 334
#     4  12  23  37  60  86 122 157 197 241 300 354
#
# _framework density 17.449014999999999
#
# number of rings (size 3 to 8) (size 9 to 14) (size 15 to 20)
#    0.000    1.429    4.762    1.714    1.333    0.762 
#    0.000    1.905    0.000    0.000    0.000    4.667 
#    0.000    0.000    0.000    0.000    0.000    0.000 
#
# Total GULP energy -234070.339090 kJ/mol
# GULP energy per Si atom -5573.103312 kJ/mol
# Density = 1.740930 g / cm^3
# Si number density = 17.449015 Si / 1000 Ang^3
#
#
#
# Elastic Constant Matrix: (Units=GPa)
#
#
# Indices 1 2 3 4 5 6 
#
# 1 103.4901 35.2813 58.3050 0.0000 0.0000 0.0000
# 2 35.2813 100.8442 48.2072 0.0000 0.0000 0.0000
# 3 58.3050 48.2072 96.1612 0.0000 0.0000 0.0000
# 4 0.0000 0.0000 0.0000 23.7606 0.0000 0.0000
# 5 0.0000 0.0000 0.0000 0.0000 25.1214 0.0000
# 6 0.0000 0.0000 0.0000 0.0000 0.0000 117.0752
#
#
#
# Elastic Compliance Matrix: (Units=1/GPa)
#
#
# Indices 1 2 3 4 5 6 
#
# 1 0.014780 -0.001167 -0.008376 0.000000 0.000000 0.000000
# 2 -0.001167 0.013134 -0.005877 0.000000 0.000000 0.000000
# 3 -0.008376 -0.005877 0.018424 0.000000 0.000000 0.000000
# 4 0.000000 0.000000 0.000000 0.042086 0.000000 0.000000
# 5 0.000000 0.000000 0.000000 0.000000 0.039807 0.000000
# 6 0.000000 0.000000 0.000000 0.000000 0.000000 0.008542
#
#
# Mechanical properties :
#
#
# Convention : Reuss Voigt Hill
#
# Bulk Modulus (GPa) = 64.52489 64.89805 64.71147
# Shear Modulus (GPa) = 28.93886 43.77158 36.35522
#
# Velocity S-wave (km/s) = 4.07686 5.01397 4.56950
# Velocity P-wave (km/s) = 7.69548 8.41389 8.06269
#
# Compressibility (1/GPa) = 0.01549790
#
# Stress axis : x y z
#
# Youngs Moduli (GPa) = 67.66059 76.13950 54.27624
#
# Poissons Ratio (x) = 0.08882 0.45464
# Poissons Ratio (y) = 0.07893 0.31898
# Poissons Ratio (z) = 0.56676 0.44746
#
# Static dielectric constant tensor:
#      x y z
#    x 1.596820 0.000000 0.000000 
#    y 0.000000 2.308570 0.000000 
#    z 0.000000 0.000000 1.618300 
# 
# From -- ./inp_files/30619.got.cif
#   From: 2010.05.17/outbox.cif.g08.bks.cpg/sg65_16_cif.got.tgz:30619.got - 2010.06.03 17:01:31.
