data_PCOD9492705
_publ_section_title
;
Structure prediction by ZEFSAII (Michael W. Deem and Ramdas Pophale) SiO2 
 PCOD9492705
Probable space group: C M M M
;
_chemical_formula_sum "Si O2"
_cell_formula_units_Z 116
_cell_length_a 30.061336
_cell_length_b 24.585117
_cell_length_c 7.812562
_cell_angle_alpha 90.000000
_cell_angle_beta 90.000000
_cell_angle_gamma 90.000000
_cell_volume 5773.963499
_symmetry_space_group_name_H-M "C M M M"
_symmetry_group_IT_number 65
_symmetry_cell_setting 'orthorhombic'
loop_
_space_group_symop_operation_xyz
x,y,z
-x,-y,z
x,-y,-z
-x,y,-z
-x,-y,-z
x,y,-z
-x,y,z
x,-y,z
1/2+x,1/2+y,z
1/2-x,1/2-y,z
1/2+x,1/2-y,-z
1/2-x,1/2+y,-z
1/2-x,1/2-y,-z
1/2+x,1/2+y,-z
1/2-x,1/2+y,z
1/2+x,1/2-y,z
loop_
_atom_site_type_symbol
_atom_site_label
_atom_site_fract_x
_atom_site_fract_y
_atom_site_fract_z
Si Si1 0.051001 0.655138 0.707766
Si Si2 0.722342 0.409208 0.196261
Si Si3 0.631921 0.363080 0.693938
Si Si4 0.550593 0.561873 0.793242
Si Si5 0.616528 0.938653 0.704782
Si Si6 0.273372 0.500000 0.500000
Si Si7 0.689664 0.853370 0.795931
Si Si8 0.625517 0.760174 0.202788
O O1 0.051376 0.654846 0.500000
O O2 0.077203 0.601002 0.767904
O O3 0.080190 0.706314 0.766496
O O4 0.000000 0.656666 0.764725
O O5 0.672786 0.385156 0.195923
O O6 0.726226 0.453248 0.346123
O O7 0.758724 0.362569 0.238911
O O8 0.732307 0.428425 0.000000
O O9 0.644559 0.375036 0.500000
O O10 0.586847 0.395502 0.733242
O O11 0.625132 0.299025 0.716660
O O12 0.500000 0.573876 0.737051
O O13 0.561716 0.500000 0.738074
O O14 0.550593 0.562035 0.000000
O O15 0.611455 0.942359 0.500000
O O16 0.662212 0.906484 0.737553
O O17 0.616336 0.000000 0.773909
O O18 0.664632 0.799866 0.727903
O O19 0.684204 0.850631 0.000000
O O20 0.631466 0.752405 0.000000
#
# Coordination Sequence:
#
# PCOD9492705 Si02
#       8
#    16  16  16  16  16   4  16  16
#     4   9  18  34  54  80 114 151 194 248 311 369
#     4  11  25  44  65  95 132 168 207 257 306 360
#     4  12  25  41  61  93 125 159 208 251 305 374
#     4   9  20  40  65  91 120 158 201 248 307 370
#     4   9  18  30  51  80 113 154 197 247 300 364
#     4  12  26  44  64 100 129 170 215 248 306 374
#     4   9  21  39  59  84 117 158 203 253 309 363
#     4  10  21  40  62  84 113 155 206 256 310 368
#
# _framework density 20.090185999999999
#
# number of rings (size 3 to 8) (size 9 to 14) (size 15 to 20)
#    0.000    2.069    0.690    2.276    2.897    3.034 
#    0.000    4.828    0.000    0.000    0.000    3.862 
#    0.000    0.000    0.000    0.000    0.000    0.000 
#
# Total GULP energy -323190.503542 kJ/mol
# GULP energy per Si atom -5572.250061 kJ/mol
# Density = 2.004446 g / cm^3
# Si number density = 20.090186 Si / 1000 Ang^3
#
#
#
# Elastic Constant Matrix: (Units=GPa)
#
#
# Indices 1 2 3 4 5 6 
#
# 1 111.4205 63.7050 20.7484 0.0000 0.0000 0.0000
# 2 63.7050 120.1748 27.6809 0.0000 0.0000 0.0000
# 3 20.7484 27.6809 65.5688 0.0000 0.0000 0.0000
# 4 0.0000 0.0000 0.0000 19.0645 0.0000 0.0000
# 5 0.0000 0.0000 0.0000 0.0000 18.8985 0.0000
# 6 0.0000 0.0000 0.0000 0.0000 0.0000 20.1284
#
#
#
# Elastic Compliance Matrix: (Units=1/GPa)
#
#
# Indices 1 2 3 4 5 6 
#
# 1 0.012982 -0.006575 -0.001332 0.000000 0.000000 0.000000
# 2 -0.006575 0.012548 -0.003217 0.000000 0.000000 0.000000
# 3 -0.001332 -0.003217 0.017031 0.000000 0.000000 0.000000
# 4 0.000000 0.000000 0.000000 0.052454 0.000000 0.000000
# 5 0.000000 0.000000 0.000000 0.000000 0.052914 0.000000
# 6 0.000000 0.000000 0.000000 0.000000 0.000000 0.049681
#
#
# Mechanical properties :
#
#
# Convention : Reuss Voigt Hill
#
# Bulk Modulus (GPa) = 49.23032 57.93697 53.58365
# Shear Modulus (GPa) = 22.06252 23.95359 23.00805
#
# Velocity S-wave (km/s) = 3.31747 3.45672 3.38781
# Velocity P-wave (km/s) = 6.26354 6.69574 6.48324
#
# Compressibility (1/GPa) = 0.02031269
#
# Stress axis : x y z
#
# Youngs Moduli (GPa) = 77.02694 79.69641 58.71756
#
# Poissons Ratio (x) = 0.52402 0.07823
# Poissons Ratio (y) = 0.50646 0.18887
# Poissons Ratio (z) = 0.10263 0.25635
#
# Static dielectric constant tensor:
#      x y z
#    x 1.700940 0.000000 0.000000 
#    y 0.000000 1.690190 0.000000 
#    z 0.000000 0.000000 1.727620 
# 
# From -- ./inp_files/18937.got.cif
#   From: 2010.05.17/outbox.cif.g08.bks.cpg/sg65_10_cif.got.tgz:18937.got - 2010.06.03 17:01:31.
