data_PCOD9492571
_publ_section_title
;
Structure prediction by ZEFSAII (Michael W. Deem and Ramdas Pophale) SiO2 
 PCOD9492571
Probable space group: C M M M
;
_chemical_formula_sum "Si O2"
_cell_formula_units_Z 64
_cell_length_a 21.792218
_cell_length_b 17.811047
_cell_length_c 8.546318
_cell_angle_alpha 90.000000
_cell_angle_beta 90.000000
_cell_angle_gamma 90.000000
_cell_volume 3317.186833
_symmetry_space_group_name_H-M "C M M M"
_symmetry_group_IT_number 65
_symmetry_cell_setting 'orthorhombic'
loop_
_space_group_symop_operation_xyz
x,y,z
-x,-y,z
x,-y,-z
-x,y,-z
-x,-y,-z
x,y,-z
-x,y,z
x,-y,z
1/2+x,1/2+y,z
1/2-x,1/2-y,z
1/2+x,1/2-y,-z
1/2-x,1/2+y,-z
1/2-x,1/2-y,-z
1/2+x,1/2+y,-z
1/2-x,1/2+y,z
1/2+x,1/2-y,z
loop_
_atom_site_type_symbol
_atom_site_label
_atom_site_fract_x
_atom_site_fract_y
_atom_site_fract_z
Si Si1 0.071610 0.836039 0.812819
Si Si2 0.425950 0.500000 0.678375
Si Si3 0.000000 0.590841 0.176183
Si Si4 0.367056 0.086923 0.190170
Si Si5 0.182038 0.732357 0.685387
O O1 0.089614 0.920917 0.760280
O O2 0.124350 0.778870 0.755069
O O3 0.000000 0.821146 0.759237
O O4 0.070334 0.832827 0.000000
O O5 0.500000 0.500000 0.674664
O O6 0.402872 0.500000 0.500000
O O7 0.064609 0.609014 0.249004
O O8 0.000000 0.500000 0.161683
O O9 0.000000 0.622759 0.000000
O O10 0.324357 0.145121 0.273124
O O11 0.355485 0.000000 0.224700
O O12 0.366366 0.094427 0.000000
O O13 0.180818 0.745365 0.500000
O O14 0.250000 0.750000 0.747464
#
# Coordination Sequence:
#
# PCOD9492571 Si02
#       5
#    16   8   8  16  16
#     4  10  21  38  63  92 119 152 197 247 296 350
#     4   9  17  33  59  91 125 155 188 237 298 359
#     4   7  12  26  51  83 113 138 171 220 279 337
#     4   9  18  35  60  87 115 149 189 236 290 348
#     4  11  25  42  57  81 120 162 199 241 296 351
#
# _framework density 19.293457
#
# number of rings (size 3 to 8) (size 9 to 14) (size 15 to 20)
#    0.000    2.500    0.000    3.375    1.750    5.500 
#    2.250    0.000    0.000    2.250    0.000    0.000 
#    0.000    0.000    0.000    0.000    0.000    0.000 
#
# Total GULP energy -178231.499480 kJ/mol
# GULP energy per Si atom -5569.734359 kJ/mol
# Density = 1.924954 g / cm^3
# Si number density = 19.293457 Si / 1000 Ang^3
#
#
#
# Elastic Constant Matrix: (Units=GPa)
#
#
# Indices 1 2 3 4 5 6 
#
# 1 107.7660 52.6450 23.3157 0.0000 0.0000 0.0000
# 2 52.6450 78.3239 18.3993 0.0000 0.0000 0.0000
# 3 23.3157 18.3993 36.2333 0.0000 0.0000 0.0000
# 4 0.0000 0.0000 0.0000 38.3577 0.0000 0.0000
# 5 0.0000 0.0000 0.0000 0.0000 15.9335 0.0000
# 6 0.0000 0.0000 0.0000 0.0000 0.0000 32.6568
#
#
#
# Elastic Compliance Matrix: (Units=1/GPa)
#
#
# Indices 1 2 3 4 5 6 
#
# 1 0.014572 -0.008620 -0.005000 0.000000 0.000000 0.000000
# 2 -0.008620 0.019596 -0.004404 0.000000 0.000000 0.000000
# 3 -0.005000 -0.004404 0.033053 0.000000 0.000000 0.000000
# 4 0.000000 0.000000 0.000000 0.026070 0.000000 0.000000
# 5 0.000000 0.000000 0.000000 0.000000 0.062761 0.000000
# 6 0.000000 0.000000 0.000000 0.000000 0.000000 0.030621
#
#
# Mechanical properties :
#
#
# Convention : Reuss Voigt Hill
#
# Bulk Modulus (GPa) = 32.07885 45.67144 38.87515
# Shear Modulus (GPa) = 21.44895 25.92049 23.68472
#
# Velocity S-wave (km/s) = 3.33787 3.66934 3.50752
# Velocity P-wave (km/s) = 5.61409 6.45565 6.04952
#
# Compressibility (1/GPa) = 0.03117319
#
# Stress axis : x y z
#
# Youngs Moduli (GPa) = 68.62436 51.03091 30.25489
#
# Poissons Ratio (x) = 0.43989 0.15127
# Poissons Ratio (y) = 0.59155 0.13324
# Poissons Ratio (z) = 0.34310 0.22474
#
# Static dielectric constant tensor:
#      x y z
#    x 1.674000 0.000000 0.000000 
#    y 0.000000 1.674800 0.000000 
#    z 0.000000 0.000000 1.663470 
# 
# From -- ./inp_files/10857.got.cif
#   From: 2010.05.17/outbox.cif.g08.bks.cpg/sg65_6_cif.got.tgz:10857.got - 2010.06.03 17:01:31.
