data_PCOD9492535
_publ_section_title
;
Structure prediction by ZEFSAII (Michael W. Deem and Ramdas Pophale) SiO2 
 PCOD9492535
Probable space group: C M M M
;
_chemical_formula_sum "Si O2"
_cell_formula_units_Z 72
_cell_length_a 25.963174
_cell_length_b 8.590795
_cell_length_c 14.786232
_cell_angle_alpha 90.000000
_cell_angle_beta 90.000000
_cell_angle_gamma 90.000000
_cell_volume 3297.984846
_symmetry_space_group_name_H-M "C M M M"
_symmetry_group_IT_number 65
_symmetry_cell_setting 'orthorhombic'
loop_
_space_group_symop_operation_xyz
x,y,z
-x,-y,z
x,-y,-z
-x,y,-z
-x,-y,-z
x,y,-z
-x,y,z
x,-y,z
1/2+x,1/2+y,z
1/2-x,1/2-y,z
1/2+x,1/2-y,-z
1/2-x,1/2+y,-z
1/2-x,1/2-y,-z
1/2+x,1/2+y,-z
1/2-x,1/2+y,z
1/2+x,1/2-y,z
loop_
_atom_site_type_symbol
_atom_site_label
_atom_site_fract_x
_atom_site_fract_y
_atom_site_fract_z
Si Si1 0.199002 0.674068 0.392562
Si Si2 0.594085 0.686104 0.793597
Si Si3 0.692785 0.813554 0.105271
Si Si4 0.000000 0.675663 0.106578
Si Si5 0.089407 0.183118 0.598968
O O1 0.208359 0.655092 0.500000
O O2 0.188020 0.500000 0.356655
O O3 0.250000 0.750000 0.351732
O O4 0.150620 0.788468 0.389605
O O5 0.599028 0.500000 0.787427
O O6 0.648829 0.752693 0.826839
O O7 0.550921 0.735171 0.863669
O O8 0.572050 0.744688 0.696040
O O9 0.750000 0.750000 0.125063
O O10 0.693646 0.000000 0.109327
O O11 0.680679 0.768499 0.000000
O O12 0.000000 0.500000 0.144472
O O13 0.000000 0.664412 0.000000
O O14 0.074596 0.250450 0.500000
O O15 0.077337 0.000000 0.594912
#
# Coordination Sequence:
#
# PCOD9492535 Si02
#       5
#    16  16  16   8  16
#     4   9  16  26  43  68  99 140 190 240 288 336
#     4  11  23  39  63  93 122 157 202 250 300 354
#     4  10  21  38  61  90 125 163 201 246 304 368
#     4  11  25  45  68  93 122 156 193 239 298 361
#     4   9  19  36  55  77 110 151 194 240 289 343
#
# _framework density 21.831513000000001
#
# number of rings (size 3 to 8) (size 9 to 14) (size 15 to 20)
#    0.000    2.111    0.000    3.000    0.000   10.222 
#    0.000    0.556    0.000    3.333    0.000    0.000 
#    0.000    0.000    0.000    0.000    0.000    0.000 
#
# Total GULP energy -200800.087562 kJ/mol
# GULP energy per Si atom -5577.780210 kJ/mol
# Density = 2.178182 g / cm^3
# Si number density = 21.831513 Si / 1000 Ang^3
#
#
#
# Elastic Constant Matrix: (Units=GPa)
#
#
# Indices 1 2 3 4 5 6 
#
# 1 63.1195 12.6373 31.4862 0.0000 0.0000 0.0000
# 2 12.6373 41.4908 26.3229 0.0000 0.0000 0.0000
# 3 31.4862 26.3229 145.7456 0.0000 0.0000 0.0000
# 4 0.0000 0.0000 0.0000 13.7988 0.0000 0.0000
# 5 0.0000 0.0000 0.0000 0.0000 -241.9315 0.0000
# 6 0.0000 0.0000 0.0000 0.0000 0.0000 14.9806
#
#
#
# Elastic Compliance Matrix: (Units=1/GPa)
#
#
# Indices 1 2 3 4 5 6 
#
# 1 0.018181 -0.003440 -0.003306 0.000000 0.000000 0.000000
# 2 -0.003440 0.027872 -0.004291 0.000000 0.000000 0.000000
# 3 -0.003306 -0.004291 0.008351 0.000000 0.000000 0.000000
# 4 0.000000 0.000000 0.000000 0.072470 0.000000 0.000000
# 5 0.000000 0.000000 0.000000 0.000000 -0.004133 0.000000
# 6 0.000000 0.000000 0.000000 0.000000 0.000000 0.066753
#
#
# Mechanical properties :
#
#
# Convention : Reuss Voigt Hill
#
# Bulk Modulus (GPa) = 30.93194 43.47208 37.20201
# Shear Modulus (GPa) = 22.48779 -30.63645 -4.07433
#
# Velocity S-wave (km/s) = 3.21294 -3.75015 -1.36759
# Velocity P-wave (km/s) = 5.28802 1.09741 3.81887
#
# Compressibility (1/GPa) = 0.03232904
#
# Stress axis : x y z
#
# Youngs Moduli (GPa) = 55.00231 35.87881 119.75288
#
# Poissons Ratio (x) = 0.12342 0.39596
# Poissons Ratio (y) = 0.18920 0.51383
# Poissons Ratio (z) = 0.18186 0.15395
#
# Static dielectric constant tensor:
#      x y z
#    x 1.786080 0.000000 0.000000 
#    y 0.000000 1.770810 0.000000 
#    z 0.000000 0.000000 1.897110 
# 
# From -- ./inp_files/46520.got.cif
#   From: 2010.05.17/outbox.cif.g08.bks.cpg/sg65_24_cif.got.tgz:46520.got - 2010.06.03 17:01:31.
