data_PCOD9492980
_publ_section_title
;
Structure prediction by ZEFSAII (Michael W. Deem and Ramdas Pophale) SiO2 
 PCOD9492980
Probable space group: C M M M
;
_chemical_formula_sum "Si O2"
_cell_formula_units_Z 64
_cell_length_a 18.259047
_cell_length_b 13.997024
_cell_length_c 13.939892
_cell_angle_alpha 90.000000
_cell_angle_beta 90.000000
_cell_angle_gamma 90.000000
_cell_volume 3562.650526
_symmetry_space_group_name_H-M "C M M M"
_symmetry_group_IT_number 65
_symmetry_cell_setting 'orthorhombic'
loop_
_space_group_symop_operation_xyz
x,y,z
-x,-y,z
x,-y,-z
-x,y,-z
-x,-y,-z
x,y,-z
-x,y,z
x,-y,z
1/2+x,1/2+y,z
1/2-x,1/2-y,z
1/2+x,1/2-y,-z
1/2-x,1/2+y,-z
1/2-x,1/2-y,-z
1/2+x,1/2+y,-z
1/2-x,1/2+y,z
1/2+x,1/2-y,z
loop_
_atom_site_type_symbol
_atom_site_label
_atom_site_fract_x
_atom_site_fract_y
_atom_site_fract_z
Si Si1 0.410662 0.288492 0.389446
Si Si2 0.860587 0.229430 0.807643
Si Si3 0.082226 0.000000 0.614953
Si Si4 0.771373 0.611497 0.888263
Si Si5 0.000000 0.885797 0.114763
O O1 0.391070 0.265536 0.500000
O O2 0.500000 0.286360 0.385332
O O3 0.375359 0.233854 0.300760
O O4 0.385169 0.397234 0.364847
O O5 0.841971 0.322304 0.871002
O O6 0.791582 0.158984 0.823257
O O7 0.930018 0.168387 0.842049
O O8 0.075159 0.000000 0.500000
O O9 0.000000 0.000000 0.655455
O O10 0.782132 0.500000 0.867367
O O11 0.748510 0.619937 0.000000
O O12 0.000000 0.000000 0.134010
O O13 0.000000 0.875472 0.000000
#
# Coordination Sequence:
#
# PCOD9492980 Si02
#       5
#    16  16   8  16   8
#     4   9  17  29  48  78 113 143 172 215 272 328
#     4  11  20  34  58  82 108 143 182 223 273 331
#     4   7  12  22  38  64 102 138 164 193 244 313
#     4  10  22  40  57  74 106 151 189 220 266 332
#     4  11  22  32  50  86 118 133 168 236 292 322
#
# _framework density 17.964153
#
# number of rings (size 3 to 8) (size 9 to 14) (size 15 to 20)
#    0.000    2.250    1.250    5.250    3.500    2.000 
#    0.000    3.125    0.000    4.500    0.000    1.750 
#    0.000    0.000    0.000    0.000    0.000    0.000 
#
# Total GULP energy -178142.425579 kJ/mol
# GULP energy per Si atom -5566.950799 kJ/mol
# Density = 1.792327 g / cm^3
# Si number density = 17.964153 Si / 1000 Ang^3
#
#
#
# Elastic Constant Matrix: (Units=GPa)
#
#
# Indices 1 2 3 4 5 6 
#
# 1 65.4151 35.1606 28.0860 0.0000 0.0000 0.0000
# 2 35.1606 90.5870 22.0647 0.0000 0.0000 0.0000
# 3 28.0860 22.0647 127.8705 0.0000 0.0000 0.0000
# 4 0.0000 0.0000 0.0000 15.8742 0.0000 0.0000
# 5 0.0000 0.0000 0.0000 0.0000 31.6360 0.0000
# 6 0.0000 0.0000 0.0000 0.0000 0.0000 14.1912
#
#
#
# Elastic Compliance Matrix: (Units=1/GPa)
#
#
# Indices 1 2 3 4 5 6 
#
# 1 0.020552 -0.007179 -0.003275 0.000000 0.000000 0.000000
# 2 -0.007179 0.014031 -0.000844 0.000000 0.000000 0.000000
# 3 -0.003275 -0.000844 0.008686 0.000000 0.000000 0.000000
# 4 0.000000 0.000000 0.000000 0.062995 0.000000 0.000000
# 5 0.000000 0.000000 0.000000 0.000000 0.031610 0.000000
# 6 0.000000 0.000000 0.000000 0.000000 0.000000 0.070466
#
#
# Mechanical properties :
#
#
# Convention : Reuss Voigt Hill
#
# Bulk Modulus (GPa) = 48.37674 50.49948 49.43811
# Shear Modulus (GPa) = 21.02357 25.57769 23.30063
#
# Velocity S-wave (km/s) = 3.42469 3.77745 3.60538
# Velocity P-wave (km/s) = 6.52886 6.87006 6.70163
#
# Compressibility (1/GPa) = 0.02067109
#
# Stress axis : x y z
#
# Youngs Moduli (GPa) = 48.65662 71.26880 115.13437
#
# Poissons Ratio (x) = 0.51167 0.37710
# Poissons Ratio (y) = 0.34932 0.09721
# Poissons Ratio (z) = 0.15937 0.06017
#
# Static dielectric constant tensor:
#      x y z
#    x 1.640110 0.000000 0.000000 
#    y 0.000000 1.673960 0.000000 
#    z 0.000000 0.000000 1.661910 
# 
# From -- ./inp_files/39694.got.cif
#   From: 2010.05.17/outbox.cif.g08.bks.cpg/sg65_20_cif.got.tgz:39694.got - 2010.06.03 17:01:31.
