data_PCOD9492689
_publ_section_title
;
Structure prediction by ZEFSAII (Michael W. Deem and Ramdas Pophale) SiO2 
 PCOD9492689
Probable space group: C M M M
;
_chemical_formula_sum "Si O2"
_cell_formula_units_Z 88
_cell_length_a 15.785203
_cell_length_b 10.017634
_cell_length_c 27.049672
_cell_angle_alpha 90.000000
_cell_angle_beta 90.000000
_cell_angle_gamma 90.000000
_cell_volume 4277.375082
_symmetry_space_group_name_H-M "C M M M"
_symmetry_group_IT_number 65
_symmetry_cell_setting 'orthorhombic'
loop_
_space_group_symop_operation_xyz
x,y,z
-x,-y,z
x,-y,-z
-x,y,-z
-x,-y,-z
x,y,-z
-x,y,z
x,-y,z
1/2+x,1/2+y,z
1/2-x,1/2-y,z
1/2+x,1/2-y,-z
1/2-x,1/2+y,-z
1/2-x,1/2-y,-z
1/2+x,1/2+y,-z
1/2-x,1/2+y,z
1/2+x,1/2-y,z
loop_
_atom_site_type_symbol
_atom_site_label
_atom_site_fract_x
_atom_site_fract_y
_atom_site_fract_z
Si Si1 0.166418 0.165144 0.621333
Si Si2 0.099338 0.144172 0.206645
Si Si3 0.154751 0.234300 0.104166
Si Si4 0.905250 0.152102 0.000000
Si Si5 0.396847 0.844226 0.712469
Si Si6 0.500000 0.339736 0.444255
Si Si7 0.401496 0.000000 0.943511
O O1 0.250000 0.250000 0.605154
O O2 0.139277 0.239951 0.672143
O O3 0.086441 0.191979 0.585096
O O4 0.177634 0.000000 0.625148
O O5 0.106904 0.161385 0.147879
O O6 0.129904 0.275448 0.235622
O O7 0.000000 0.137336 0.218916
O O8 0.137844 0.000000 0.221069
O O9 0.250000 0.250000 0.121082
O O10 0.147079 0.172988 0.049727
O O11 0.120109 0.377420 0.090865
O O12 0.000000 0.220980 0.000000
O O13 0.922802 0.000000 0.000000
O O14 0.500000 0.846222 0.708604
O O15 0.130647 0.500000 0.707197
O O16 0.500000 0.500000 0.447530
O O17 0.500000 0.284431 0.500000
O O18 0.500000 0.000000 0.950896
O O19 0.362796 0.000000 0.000000
#
# Coordination Sequence:
#
# PCOD9492689 Si02
#       7
#    16  16  16   8  16   8   8
#     4  11  22  39  66  99 138 184 233 285 340 400
#     4  10  22  41  64  87 119 161 208 257 317 388
#     4  12  26  39  61  87 121 151 192 252 309 370
#     4  11  23  41  65  85 109 145 191 237 297 377
#     4  10  21  39  65  96 129 168 219 274 330 397
#     4   9  20  40  67  99 139 189 239 286 341 402
#     4  11  24  42  64  86 114 158 202 240 300 386
#
# _framework density 20.573366
#
# number of rings (size 3 to 8) (size 9 to 14) (size 15 to 20)
#    0.000    1.364    1.818    3.545    3.818    3.273 
#    0.000    1.818    0.000    3.818    0.000    0.000 
#    0.000    0.000    0.000    0.000    0.000    0.000 
#
# Total GULP energy -245008.129568 kJ/mol
# GULP energy per Si atom -5568.366581 kJ/mol
# Density = 2.052654 g / cm^3
# Si number density = 20.573366 Si / 1000 Ang^3
#
#
#
# Elastic Constant Matrix: (Units=GPa)
#
#
# Indices 1 2 3 4 5 6 
#
# 1 69.2969 35.3959 16.9122 0.0000 0.0000 0.0000
# 2 35.3959 163.4862 45.8636 0.0000 0.0000 0.0000
# 3 16.9122 45.8636 107.6292 0.0000 0.0000 0.0000
# 4 0.0000 0.0000 0.0000 39.7183 0.0000 0.0000
# 5 0.0000 0.0000 0.0000 0.0000 45.9280 0.0000
# 6 0.0000 0.0000 0.0000 0.0000 0.0000 31.8224
#
#
#
# Elastic Compliance Matrix: (Units=1/GPa)
#
#
# Indices 1 2 3 4 5 6 
#
# 1 0.016362 -0.003204 -0.001206 0.000000 0.000000 0.000000
# 2 -0.003204 0.007575 -0.002724 0.000000 0.000000 0.000000
# 3 -0.001206 -0.002724 0.010641 0.000000 0.000000 0.000000
# 4 0.000000 0.000000 0.000000 0.025177 0.000000 0.000000
# 5 0.000000 0.000000 0.000000 0.000000 0.021773 0.000000
# 6 0.000000 0.000000 0.000000 0.000000 0.000000 0.031424
#
#
# Mechanical properties :
#
#
# Convention : Reuss Voigt Hill
#
# Bulk Modulus (GPa) = 49.23767 59.63952 54.43860
# Shear Modulus (GPa) = 37.31603 39.64311 38.47957
#
# Velocity S-wave (km/s) = 4.26350 4.39443 4.32946
# Velocity P-wave (km/s) = 6.94415 7.40268 7.17708
#
# Compressibility (1/GPa) = 0.02030965
#
# Stress axis : x y z
#
# Youngs Moduli (GPa) = 61.11894 132.01816 93.97180
#
# Poissons Ratio (x) = 0.42301 0.11329
# Poissons Ratio (y) = 0.19584 0.25601
# Poissons Ratio (z) = 0.07368 0.35966
#
# Static dielectric constant tensor:
#      x y z
#    x 1.769900 0.000000 0.000000 
#    y 0.000000 1.717990 0.000000 
#    z 0.000000 0.000000 1.690240 
# 
# From -- ./inp_files/74802.got.cif
#   From: 2010.05.17/outbox.cif.g08.bks.cpg/sg65_38_cif.got.tgz:74802.got - 2010.06.03 17:01:31.
