data_PCOD9492442
_publ_section_title
;
Structure prediction by ZEFSAII (Michael W. Deem and Ramdas Pophale) SiO2 
 PCOD9492442
Probable space group: C M M M
;
_chemical_formula_sum "Si O2"
_cell_formula_units_Z 112
_cell_length_a 13.924448
_cell_length_b 27.294813
_cell_length_c 14.922868
_cell_angle_alpha 90.000000
_cell_angle_beta 90.000000
_cell_angle_gamma 90.000000
_cell_volume 5671.662875
_symmetry_space_group_name_H-M "C M M M"
_symmetry_group_IT_number 65
_symmetry_cell_setting 'orthorhombic'
loop_
_space_group_symop_operation_xyz
x,y,z
-x,-y,z
x,-y,-z
-x,y,-z
-x,-y,-z
x,y,-z
-x,y,z
x,-y,z
1/2+x,1/2+y,z
1/2-x,1/2-y,z
1/2+x,1/2-y,-z
1/2-x,1/2+y,-z
1/2-x,1/2-y,-z
1/2+x,1/2+y,-z
1/2-x,1/2+y,z
1/2+x,1/2-y,z
loop_
_atom_site_type_symbol
_atom_site_label
_atom_site_fract_x
_atom_site_fract_y
_atom_site_fract_z
Si Si1 0.224423 0.850373 0.398966
Si Si2 0.610855 0.283647 0.905354
Si Si3 0.270590 0.132421 0.901509
Si Si4 0.109457 0.234970 0.296572
Si Si5 0.611528 0.847240 0.279708
Si Si6 0.107938 0.943334 0.146031
Si Si7 0.110764 0.053656 0.637403
O O1 0.242393 0.833136 0.500000
O O2 0.177761 0.805560 0.340957
O O3 0.317666 0.872490 0.349611
O O4 0.154524 0.896861 0.399997
O O5 0.500000 0.301717 0.904098
O O6 0.690945 0.324842 0.904514
O O7 0.624534 0.258832 0.810313
O O8 0.621353 0.255368 0.000000
O O9 0.341074 0.143670 0.818362
O O10 0.200567 0.085796 0.887643
O O11 0.317744 0.129656 0.000000
O O12 0.116306 0.291773 0.321403
O O13 0.000000 0.217989 0.311899
O O14 0.500000 0.860845 0.276817
O O15 0.112791 0.941760 0.254165
O O16 0.000000 0.924586 0.120427
O O17 0.112109 0.000000 0.118262
O O18 0.000000 0.052097 0.610986
O O19 0.153697 0.000000 0.614354
#
# Coordination Sequence:
#
# PCOD9492442 Si02
#       7
#    16  16  16  16  16  16  16
#     4  12  24  39  63  90 118 154 196 241 297 365
#     4   9  17  30  53  85 116 146 181 225 281 349
#     4  11  21  34  57  85 117 158 199 239 289 354
#     4  10  21  38  60  86 118 151 190 241 298 361
#     4  11  25  43  59  78 111 156 205 257 301 334
#     4   9  17  32  58  92 128 161 192 233 292 365
#     4   9  18  35  62  96 130 158 185 225 285 360
#
# _framework density 19.747295000000001
#
# number of rings (size 3 to 8) (size 9 to 14) (size 15 to 20)
#    0.000    1.857    2.857    2.143    0.000    7.143 
#    0.000    5.714    0.000    1.714    0.000    2.000 
#    0.000    0.000    0.000    0.000    0.000    0.000 
#
# Total GULP energy -311945.221639 kJ/mol
# GULP energy per Si atom -5570.450386 kJ/mol
# Density = 1.970235 g / cm^3
# Si number density = 19.747295 Si / 1000 Ang^3
#
#
#
# Elastic Constant Matrix: (Units=GPa)
#
#
# Indices 1 2 3 4 5 6 
#
# 1 116.7372 20.2081 41.7613 0.0000 0.0000 0.0000
# 2 20.2081 46.6258 9.5443 0.0000 0.0000 0.0000
# 3 41.7613 9.5443 102.6901 0.0000 0.0000 0.0000
# 4 0.0000 0.0000 0.0000 -37.6473 0.0000 0.0000
# 5 0.0000 0.0000 0.0000 0.0000 9.8135 0.0000
# 6 0.0000 0.0000 0.0000 0.0000 0.0000 18.7482
#
#
#
# Elastic Compliance Matrix: (Units=1/GPa)
#
#
# Indices 1 2 3 4 5 6 
#
# 1 0.010647 -0.003800 -0.003976 0.000000 0.000000 0.000000
# 2 -0.003800 0.023220 -0.000613 0.000000 0.000000 0.000000
# 3 -0.003976 -0.000613 0.011412 0.000000 0.000000 0.000000
# 4 0.000000 0.000000 0.000000 -0.026562 0.000000 0.000000
# 5 0.000000 0.000000 0.000000 0.000000 0.101901 0.000000
# 6 0.000000 0.000000 0.000000 0.000000 0.000000 0.053338
#
#
# Mechanical properties :
#
#
# Convention : Reuss Voigt Hill
#
# Bulk Modulus (GPa) = 35.08813 45.45340 40.27077
# Shear Modulus (GPa) = 24.97076 11.15217 18.06147
#
# Velocity S-wave (km/s) = 3.55986 2.37901 3.02757
# Velocity P-wave (km/s) = 5.89101 5.53297 5.71479
#
# Compressibility (1/GPa) = 0.02849967
#
# Stress axis : x y z
#
# Youngs Moduli (GPa) = 93.92605 43.06655 87.62625
#
# Poissons Ratio (x) = 0.16367 0.34845
# Poissons Ratio (y) = 0.35696 0.05368
# Poissons Ratio (z) = 0.37350 0.02638
#
# Static dielectric constant tensor:
#      x y z
#    x 1.709250 0.000000 0.000000 
#    y 0.000000 1.716440 0.000000 
#    z 0.000000 0.000000 1.769250 
# 
# From -- ./inp_files/41041.got.cif
#   From: 2010.05.17/outbox.cif.g08.bks.cpg/sg65_21_cif.got.tgz:41041.got - 2010.06.03 17:01:31.
