data_PCOD9492348
_publ_section_title
;
Structure prediction by ZEFSAII (Michael W. Deem and Ramdas Pophale) SiO2 
 PCOD9492348
Probable space group: C M M M
;
_chemical_formula_sum "Si O2"
_cell_formula_units_Z 104
_cell_length_a 30.723998
_cell_length_b 8.882617
_cell_length_c 19.903866
_cell_angle_alpha 90.000000
_cell_angle_beta 90.000000
_cell_angle_gamma 90.000000
_cell_volume 5431.954256
_symmetry_space_group_name_H-M "C M M M"
_symmetry_group_IT_number 65
_symmetry_cell_setting 'orthorhombic'
loop_
_space_group_symop_operation_xyz
x,y,z
-x,-y,z
x,-y,-z
-x,y,-z
-x,-y,-z
x,y,-z
-x,y,z
x,-y,z
1/2+x,1/2+y,z
1/2-x,1/2-y,z
1/2+x,1/2-y,-z
1/2-x,1/2+y,-z
1/2-x,1/2-y,-z
1/2+x,1/2+y,-z
1/2-x,1/2+y,z
1/2+x,1/2-y,z
loop_
_atom_site_type_symbol
_atom_site_label
_atom_site_fract_x
_atom_site_fract_y
_atom_site_fract_z
Si Si1 0.168297 0.171349 0.869630
Si Si2 0.298320 0.818446 0.731605
Si Si3 0.204044 0.324304 0.000000
Si Si4 0.050250 0.677833 0.419841
Si Si5 0.885299 0.820687 0.315595
Si Si6 0.430078 0.329801 0.920608
Si Si7 0.548448 0.177273 0.210932
O O1 0.185030 0.255449 0.803658
O O2 0.117352 0.160532 0.886209
O O3 0.185702 0.000000 0.868408
O O4 0.182848 0.265240 0.933039
O O5 0.250000 0.750000 0.718108
O O6 0.337966 0.759261 0.684624
O O7 0.296223 0.000000 0.731325
O O8 0.250000 0.250000 0.000000
O O9 0.205979 0.500000 0.000000
O O10 0.055968 0.692727 0.500000
O O11 0.055065 0.500000 0.402757
O O12 0.085386 0.772397 0.378931
O O13 0.000000 0.720042 0.404622
O O14 0.914571 0.764733 0.252333
O O15 0.879273 0.000000 0.310903
O O16 0.448349 0.500000 0.918368
O O17 0.452473 0.219394 0.867930
O O18 0.428338 0.286706 0.000000
O O19 0.500000 0.211245 0.238207
O O20 0.556823 0.000000 0.218421
#
# Coordination Sequence:
#
# PCOD9492348 Si02
#       7
#    16  16   8  16  16  16  16
#     4  11  21  38  58  80 110 143 187 244 306 369
#     4  12  25  42  63  88 118 155 200 249 304 364
#     4  12  24  36  52  76 105 142 187 240 302 369
#     4   9  19  38  65  98 136 175 212 250 296 352
#     4  12  24  39  62  93 128 165 205 251 302 357
#     4  10  21  38  59  80 108 147 192 246 307 370
#     4  11  24  40  59  85 117 155 202 253 305 364
#
# _framework density 19.145965
#
# number of rings (size 3 to 8) (size 9 to 14) (size 15 to 20)
#    0.000    1.077    2.308    5.769    0.000    4.923 
#    0.000    2.308    0.000    0.462    0.000    0.000 
#    0.000    0.000    0.000    0.000    0.000    0.000 
#
# Total GULP energy -290207.378316 kJ/mol
# GULP energy per Si atom -5580.911121 kJ/mol
# Density = 1.910239 g / cm^3
# Si number density = 19.145965 Si / 1000 Ang^3
#
#
#
# Elastic Constant Matrix: (Units=GPa)
#
#
# Indices 1 2 3 4 5 6 
#
# 1 137.2281 73.1736 37.2743 0.0000 0.0000 0.0000
# 2 73.1736 148.6774 36.8011 0.0000 0.0000 0.0000
# 3 37.2743 36.8011 78.4113 0.0000 0.0000 0.0000
# 4 0.0000 0.0000 0.0000 32.0163 0.0000 0.0000
# 5 0.0000 0.0000 0.0000 0.0000 -229.6605 0.0000
# 6 0.0000 0.0000 0.0000 0.0000 0.0000 23.9714
#
#
#
# Elastic Compliance Matrix: (Units=1/GPa)
#
#
# Indices 1 2 3 4 5 6 
#
# 1 0.010426 -0.004418 -0.002883 0.000000 0.000000 0.000000
# 2 -0.004418 0.009482 -0.002350 0.000000 0.000000 0.000000
# 3 -0.002883 -0.002350 0.015227 0.000000 0.000000 0.000000
# 4 0.000000 0.000000 0.000000 0.031234 0.000000 0.000000
# 5 0.000000 0.000000 0.000000 0.000000 -0.004354 0.000000
# 6 0.000000 0.000000 0.000000 0.000000 0.000000 0.041716
#
#
# Mechanical properties :
#
#
# Convention : Reuss Voigt Hill
#
# Bulk Modulus (GPa) = 63.15837 73.20163 68.18000
# Shear Modulus (GPa) = 38.96832 -20.26339 9.35247
#
# Velocity S-wave (km/s) = 4.51636 -3.25678 2.21256
# Velocity P-wave (km/s) = 7.76248 4.91674 6.49732
#
# Compressibility (1/GPa) = 0.01583321
#
# Stress axis : x y z
#
# Youngs Moduli (GPa) = 95.91633 105.46420 65.67437
#
# Poissons Ratio (x) = 0.46590 0.18932
# Poissons Ratio (y) = 0.42372 0.15435
# Poissons Ratio (z) = 0.27650 0.24786
#
# Static dielectric constant tensor:
#      x y z
#    x 1.720620 0.000000 0.000000 
#    y 0.000000 1.645240 0.000000 
#    z 0.000000 0.000000 1.654440 
# 
# From -- ./inp_files/65934.got.cif
#   From: 2010.05.17/outbox.cif.g08.bks.cpg/sg65_33_cif.got.tgz:65934.got - 2010.06.03 17:01:31.
