data_PCOD9492609
_publ_section_title
;
Structure prediction by ZEFSAII (Michael W. Deem and Ramdas Pophale) SiO2 
 PCOD9492609
Probable space group: C M M M
;
_chemical_formula_sum "Si O2"
_cell_formula_units_Z 88
_cell_length_a 30.961443
_cell_length_b 17.053445
_cell_length_c 7.582686
_cell_angle_alpha 90.000000
_cell_angle_beta 90.000000
_cell_angle_gamma 90.000000
_cell_volume 4003.652637
_symmetry_space_group_name_H-M "C M M M"
_symmetry_group_IT_number 65
_symmetry_cell_setting 'orthorhombic'
loop_
_space_group_symop_operation_xyz
x,y,z
-x,-y,z
x,-y,-z
-x,y,-z
-x,-y,-z
x,y,-z
-x,y,z
x,-y,z
1/2+x,1/2+y,z
1/2-x,1/2-y,z
1/2+x,1/2-y,-z
1/2-x,1/2+y,-z
1/2-x,1/2-y,-z
1/2+x,1/2+y,-z
1/2-x,1/2+y,z
1/2+x,1/2-y,z
loop_
_atom_site_type_symbol
_atom_site_label
_atom_site_fract_x
_atom_site_fract_y
_atom_site_fract_z
Si Si1 0.772889 0.328687 0.296505
Si Si2 0.547003 0.092201 0.785731
Si Si3 0.093513 0.847476 0.293037
Si Si4 0.755786 0.000000 0.714938
Si Si5 0.500000 0.409109 0.788441
Si Si6 0.870737 0.316666 0.799407
Si Si7 0.143862 0.000000 0.285631
O O1 0.757494 0.331845 0.500000
O O2 0.750000 0.250000 0.219173
O O3 0.762827 0.415845 0.222214
O O4 0.824375 0.317875 0.291263
O O5 0.500000 0.123391 0.725506
O O6 0.590451 0.132171 0.718550
O O7 0.548164 0.000000 0.747051
O O8 0.547378 0.100891 0.000000
O O9 0.103296 0.837380 0.500000
O O10 0.043083 0.865536 0.272220
O O11 0.109986 0.770245 0.199601
O O12 0.119179 0.922931 0.224487
O O13 0.806245 0.000000 0.760222
O O14 0.750603 0.000000 0.500000
O O15 0.500000 0.500000 0.725892
O O16 0.500000 0.410334 0.000000
O O17 0.863057 0.343923 0.000000
O O18 0.141136 0.000000 0.500000
#
# Coordination Sequence:
#
# PCOD9492609 Si02
#       7
#    16  16  16   8   8  16   8
#     4  10  21  39  61  84 116 156 201 253 311 374
#     4   8  16  33  55  78 108 149 192 230 278 348
#     4  11  22  38  60  86 119 160 206 247 293 354
#     4   9  18  34  60  88 110 147 200 251 308 368
#     4  11  23  39  59  87 126 163 202 253 305 354
#     4  11  23  36  58  89 120 153 195 247 305 361
#     4   9  18  35  60  85 110 147 199 246 287 351
#
# _framework density 21.979928999999998
#
# number of rings (size 3 to 8) (size 9 to 14) (size 15 to 20)
#    0.000    2.091    0.909    3.000    2.545    3.636 
#    0.000    0.000    0.000    2.182    0.000    5.091 
#    0.000    0.000    0.000    0.000    0.000    0.000 
#
# Total GULP energy -245711.556946 kJ/mol
# GULP energy per Si atom -5584.353567 kJ/mol
# Density = 2.192990 g / cm^3
# Si number density = 21.979929 Si / 1000 Ang^3
#
#
#
# Elastic Constant Matrix: (Units=GPa)
#
#
# Indices 1 2 3 4 5 6 
#
# 1 170.8144 92.2907 -11.6237 0.0000 0.0000 0.0000
# 2 92.2907 145.9624 -2.3447 0.0000 0.0000 0.0000
# 3 -11.6237 -2.3447 56.6259 0.0000 0.0000 0.0000
# 4 0.0000 0.0000 0.0000 7.0933 0.0000 0.0000
# 5 0.0000 0.0000 0.0000 0.0000 54.1122 0.0000
# 6 0.0000 0.0000 0.0000 0.0000 0.0000 86.5479
#
#
#
# Elastic Compliance Matrix: (Units=1/GPa)
#
#
# Indices 1 2 3 4 5 6 
#
# 1 0.009038 -0.005689 0.001620 0.000000 0.000000 0.000000
# 2 -0.005689 0.010436 -0.000736 0.000000 0.000000 0.000000
# 3 0.001620 -0.000736 0.017962 0.000000 0.000000 0.000000
# 4 0.000000 0.000000 0.000000 0.140977 0.000000 0.000000
# 5 0.000000 0.000000 0.000000 0.000000 0.018480 0.000000
# 6 0.000000 0.000000 0.000000 0.000000 0.000000 0.011554
#
#
# Mechanical properties :
#
#
# Convention : Reuss Voigt Hill
#
# Bulk Modulus (GPa) = 35.93644 58.89414 47.41529
# Shear Modulus (GPa) = 21.99421 49.22272 35.60846
#
# Velocity S-wave (km/s) = 3.16674 4.73741 4.02934
# Velocity P-wave (km/s) = 5.45492 7.53503 6.57772
#
# Compressibility (1/GPa) = 0.02782691
#
# Stress axis : x y z
#
# Youngs Moduli (GPa) = 110.64247 95.82050 55.67379
#
# Poissons Ratio (x) = 0.54509 -0.09018
# Poissons Ratio (y) = 0.62941 0.04095
# Poissons Ratio (z) = -0.17921 0.07049
#
# Static dielectric constant tensor:
#      x y z
#    x 1.758490 0.000000 0.000000 
#    y 0.000000 1.786400 0.000000 
#    z 0.000000 0.000000 1.841400 
# 
# From -- ./inp_files/18403.got.cif
#   From: 2010.05.17/outbox.cif.g08.bks.cpg/sg65_10_cif.got.tgz:18403.got - 2010.06.03 17:01:31.
