data_PCOD9492405
_publ_section_title
;
Structure prediction by ZEFSAII (Michael W. Deem and Ramdas Pophale) SiO2 
 PCOD9492405
Probable space group: C M M M
;
_chemical_formula_sum "Si O2"
_cell_formula_units_Z 104
_cell_length_a 21.070003
_cell_length_b 8.533912
_cell_length_c 31.009576
_cell_angle_alpha 90.000000
_cell_angle_beta 90.000000
_cell_angle_gamma 90.000000
_cell_volume 5575.817951
_symmetry_space_group_name_H-M "C M M M"
_symmetry_group_IT_number 65
_symmetry_cell_setting 'orthorhombic'
loop_
_space_group_symop_operation_xyz
x,y,z
-x,-y,z
x,-y,-z
-x,y,-z
-x,-y,-z
x,y,-z
-x,y,z
x,-y,z
1/2+x,1/2+y,z
1/2-x,1/2-y,z
1/2+x,1/2-y,-z
1/2-x,1/2+y,-z
1/2-x,1/2-y,-z
1/2+x,1/2+y,-z
1/2-x,1/2+y,z
1/2+x,1/2-y,z
loop_
_atom_site_type_symbol
_atom_site_label
_atom_site_fract_x
_atom_site_fract_y
_atom_site_fract_z
Si Si1 0.000000 0.822204 0.551964
Si Si2 0.927353 0.689714 0.306023
Si Si3 0.316385 0.683905 0.635299
Si Si4 0.073359 0.692152 0.116922
Si Si5 0.680603 0.810700 0.049729
Si Si6 0.423060 0.820631 0.211456
Si Si7 0.636364 0.813923 0.449986
O O1 0.063908 0.729974 0.562272
O O2 0.000000 0.834230 0.500000
O O3 0.000000 0.000000 0.569509
O O4 0.928519 0.500000 0.304136
O O5 0.876365 0.741632 0.340683
O O6 0.907469 0.749433 0.258128
O O7 0.000000 0.740560 0.315322
O O8 0.318283 0.500000 0.640957
O O9 0.250000 0.750000 0.652287
O O10 0.321659 0.725906 0.584784
O O11 0.073187 0.500000 0.118322
O O12 0.123702 0.741269 0.080927
O O13 0.093502 0.748845 0.164864
O O14 0.000000 0.738342 0.108498
O O15 0.750000 0.750000 0.063153
O O16 0.681790 0.000000 0.050476
O O17 0.670083 0.761027 0.000000
O O18 0.500000 0.827984 0.211214
O O19 0.399051 0.000000 0.211596
O O20 0.646885 0.767810 0.500000
O O21 0.645356 0.000000 0.446551
#
# Coordination Sequence:
#
# PCOD9492405 Si02
#       7
#     8  16  16  16  16  16  16
#     4   9  17  31  53  83 115 143 175 217 259 297
#     4   9  18  35  60  85 108 137 174 213 258 317
#     4  12  26  42  59  80 111 145 180 220 266 317
#     4   8  13  23  43  71  98 123 160 211 258 299
#     4   9  17  28  42  62  92 131 170 209 254 303
#     4   7  11  23  46  75 102 128 160 202 253 307
#     4  10  21  38  60  84 111 144 180 218 262 311
#
# _framework density 18.651971
#
# number of rings (size 3 to 8) (size 9 to 14) (size 15 to 20)
#    0.000    2.846    0.000    3.923    1.077    2.769 
#    0.000    2.308    0.000    3.231    0.000    4.308 
#    0.000    0.000    0.000    0.000    0.000    0.000 
#
# Total GULP energy -289746.100972 kJ/mol
# GULP energy per Si atom -5572.040403 kJ/mol
# Density = 1.860952 g / cm^3
# Si number density = 18.651971 Si / 1000 Ang^3
#
#
#
# Elastic Constant Matrix: (Units=GPa)
#
#
# Indices 1 2 3 4 5 6 
#
# 1 104.5759 14.7430 67.1175 0.0000 0.0000 0.0000
# 2 14.7430 23.7156 14.7764 0.0000 0.0000 0.0000
# 3 67.1175 14.7764 108.7073 0.0000 0.0000 0.0000
# 4 0.0000 0.0000 0.0000 6.7776 0.0000 0.0000
# 5 0.0000 0.0000 0.0000 0.0000 5.0537 0.0000
# 6 0.0000 0.0000 0.0000 0.0000 0.0000 21.5348
#
#
#
# Elastic Compliance Matrix: (Units=1/GPa)
#
#
# Indices 1 2 3 4 5 6 
#
# 1 0.016212 -0.004197 -0.009439 0.000000 0.000000 0.000000
# 2 -0.004197 0.047155 -0.003818 0.000000 0.000000 0.000000
# 3 -0.009439 -0.003818 0.015546 0.000000 0.000000 0.000000
# 4 0.000000 0.000000 0.000000 0.147544 0.000000 0.000000
# 5 0.000000 0.000000 0.000000 0.000000 0.197874 0.000000
# 6 0.000000 0.000000 0.000000 0.000000 0.000000 0.046437
#
#
# Mechanical properties :
#
#
# Convention : Reuss Voigt Hill
#
# Bulk Modulus (GPa) = 22.72547 47.80804 35.26675
# Shear Modulus (GPa) = 9.60903 16.03069 12.81986
#
# Velocity S-wave (km/s) = 2.27221 2.93484 2.62452
# Velocity P-wave (km/s) = 4.36970 6.09686 5.30405
#
# Compressibility (1/GPa) = 0.04400349
#
# Stress axis : x y z
#
# Youngs Moduli (GPa) = 61.68161 21.20687 64.32566
#
# Poissons Ratio (x) = 0.08901 0.60718
# Poissons Ratio (y) = 0.25889 0.24561
# Poissons Ratio (z) = 0.58222 0.08097
#
# Static dielectric constant tensor:
#      x y z
#    x 1.636380 0.000000 0.000000 
#    y 0.000000 1.644440 0.000000 
#    z 0.000000 0.000000 1.689830 
# 
# From -- ./inp_files/78235.got.cif
#   From: 2010.05.17/outbox.cif.g08.bks.cpg/sg65_40_cif.got.tgz:78235.got - 2010.06.03 17:01:31.
