data_PCOD9492098
_publ_section_title
;
Structure prediction by ZEFSAII (Michael W. Deem and Ramdas Pophale) SiO2 
 PCOD9492098
Probable space group: C M M M
;
_chemical_formula_sum "Si O2"
_cell_formula_units_Z 72
_cell_length_a 9.174203
_cell_length_b 27.052941
_cell_length_c 14.048260
_cell_angle_alpha 90.000000
_cell_angle_beta 90.000000
_cell_angle_gamma 90.000000
_cell_volume 3486.626024
_symmetry_space_group_name_H-M "C M M M"
_symmetry_group_IT_number 65
_symmetry_cell_setting 'orthorhombic'
loop_
_space_group_symop_operation_xyz
x,y,z
-x,-y,z
x,-y,-z
-x,y,-z
-x,-y,-z
x,y,-z
-x,y,z
x,-y,z
1/2+x,1/2+y,z
1/2-x,1/2-y,z
1/2+x,1/2-y,-z
1/2-x,1/2+y,-z
1/2-x,1/2-y,-z
1/2+x,1/2+y,-z
1/2-x,1/2+y,z
1/2+x,1/2-y,z
loop_
_atom_site_type_symbol
_atom_site_label
_atom_site_fract_x
_atom_site_fract_y
_atom_site_fract_z
Si Si1 0.831531 0.000000 0.116609
Si Si2 0.673262 0.900181 0.112499
Si Si3 0.829412 0.154865 0.386738
Si Si4 0.673763 0.799016 0.781247
Si Si5 0.666863 0.055348 0.615567
O O1 0.753216 0.949518 0.147789
O O2 0.000000 0.000000 0.144451
O O3 0.824044 0.000000 0.000000
O O4 0.500000 0.907212 0.124552
O O5 0.714451 0.848950 0.162346
O O6 0.702559 0.895409 0.000000
O O7 0.809172 0.161242 0.500000
O O8 0.732857 0.191775 0.325070
O O9 0.773948 0.099762 0.360482
O O10 0.000000 0.160703 0.364828
O O11 0.500000 0.793748 0.782797
O O12 0.750000 0.750000 0.820526
O O13 0.662894 0.054166 0.500000
O O14 0.500000 0.065831 0.647204
O O15 0.708077 0.000000 0.646494
#
# Coordination Sequence:
#
# PCOD9492098 Si02
#       5
#     8  16  16  16  16
#     4   9  17  31  57  93 126 155 190 235 285 336
#     4   9  19  38  63  90 121 157 194 232 283 348
#     4  10  21  37  57  81 111 149 194 244 295 345
#     4  11  24  41  61  85 115 153 196 245 295 348
#     4   8  14  27  49  76 106 141 181 227 280 339
#
# _framework density 20.650335999999999
#
# number of rings (size 3 to 8) (size 9 to 14) (size 15 to 20)
#    0.000    2.556    0.000    2.333    0.000    5.778 
#    2.000    2.222    0.000    0.000    0.000    0.000 
#    0.000    0.000    0.000    0.000    0.000    0.000 
#
# Total GULP energy -201138.822641 kJ/mol
# GULP energy per Si atom -5587.189518 kJ/mol
# Density = 2.060334 g / cm^3
# Si number density = 20.650336 Si / 1000 Ang^3
#
#
#
# Elastic Constant Matrix: (Units=GPa)
#
#
# Indices 1 2 3 4 5 6 
#
# 1 70.2240 82.5763 26.2087 0.0000 0.0000 0.0000
# 2 82.5763 174.0126 47.4351 0.0000 0.0000 0.0000
# 3 26.2087 47.4351 65.6851 0.0000 0.0000 0.0000
# 4 0.0000 0.0000 0.0000 26.1433 0.0000 0.0000
# 5 0.0000 0.0000 0.0000 0.0000 13.5508 0.0000
# 6 0.0000 0.0000 0.0000 0.0000 0.0000 40.8811
#
#
#
# Elastic Compliance Matrix: (Units=1/GPa)
#
#
# Indices 1 2 3 4 5 6 
#
# 1 0.032490 -0.014797 -0.002278 0.000000 0.000000 0.000000
# 2 -0.014797 0.013894 -0.004130 0.000000 0.000000 0.000000
# 3 -0.002278 -0.004130 0.019115 0.000000 0.000000 0.000000
# 4 0.000000 0.000000 0.000000 0.038251 0.000000 0.000000
# 5 0.000000 0.000000 0.000000 0.000000 0.073797 0.000000
# 6 0.000000 0.000000 0.000000 0.000000 0.000000 0.024461
#
#
# Mechanical properties :
#
#
# Convention : Reuss Voigt Hill
#
# Bulk Modulus (GPa) = 43.30821 69.15131 56.22976
# Shear Modulus (GPa) = 19.83229 26.36179 23.09704
#
# Velocity S-wave (km/s) = 3.10237 3.57680 3.34800
# Velocity P-wave (km/s) = 5.81813 7.11460 6.49877
#
# Compressibility (1/GPa) = 0.02309031
#
# Stress axis : x y z
#
# Youngs Moduli (GPa) = 30.77879 71.97250 52.31368
#
# Poissons Ratio (x) = 1.06497 0.11917
# Poissons Ratio (y) = 0.45543 0.21604
# Poissons Ratio (z) = 0.07011 0.29723
#
# Static dielectric constant tensor:
#      x y z
#    x 1.695280 0.000000 0.000000 
#    y 0.000000 1.728490 0.000000 
#    z 0.000000 0.000000 1.782720 
# 
# From -- ./inp_files/36599.got.cif
#   From: 2010.05.17/outbox.cif.g08.bks.cpg/sg65_19_cif.got.tgz:36599.got - 2010.06.03 17:01:31.
