data_PCOD9492023
_publ_section_title
;
Structure prediction by ZEFSAII (Michael W. Deem and Ramdas Pophale) SiO2 
 PCOD9492023
Probable space group: C M M M
;
_chemical_formula_sum "Si O2"
_cell_formula_units_Z 88
_cell_length_a 16.693539
_cell_length_b 8.716385
_cell_length_c 30.219994
_cell_angle_alpha 90.000000
_cell_angle_beta 90.000000
_cell_angle_gamma 90.000000
_cell_volume 4397.230124
_symmetry_space_group_name_H-M "C M M M"
_symmetry_group_IT_number 65
_symmetry_cell_setting 'orthorhombic'
loop_
_space_group_symop_operation_xyz
x,y,z
-x,-y,z
x,-y,-z
-x,y,-z
-x,-y,-z
x,y,-z
-x,y,z
x,-y,z
1/2+x,1/2+y,z
1/2-x,1/2-y,z
1/2+x,1/2-y,-z
1/2-x,1/2+y,-z
1/2-x,1/2-y,-z
1/2+x,1/2+y,-z
1/2-x,1/2+y,z
1/2+x,1/2-y,z
loop_
_atom_site_type_symbol
_atom_site_label
_atom_site_fract_x
_atom_site_fract_y
_atom_site_fract_z
Si Si1 0.663001 0.681422 0.729925
Si Si2 0.164556 0.816711 0.900314
Si Si3 0.500000 0.313342 0.948570
Si Si4 0.908100 0.681856 0.815171
Si Si5 0.660277 0.814675 0.451652
Si Si6 0.594470 0.819707 0.642508
O O1 0.662587 0.500000 0.735589
O O2 0.750000 0.750000 0.739117
O O3 0.604899 0.758579 0.765644
O O4 0.639101 0.725564 0.680135
O O5 0.250000 0.750000 0.915734
O O6 0.149360 0.766250 0.849673
O O7 0.083909 0.762764 0.926108
O O8 0.168261 0.000000 0.903406
O O9 0.500000 0.500000 0.945681
O O10 0.500000 0.270053 0.000000
O O11 0.893802 0.500000 0.816898
O O12 0.000000 0.712474 0.828282
O O13 0.626886 0.767827 0.500000
O O14 0.750000 0.750000 0.448827
O O15 0.614230 0.767781 0.407389
O O16 0.662706 0.000000 0.451430
O O17 0.500000 0.808432 0.649905
O O18 0.617485 0.000000 0.646602
#
# Coordination Sequence:
#
# PCOD9492023 Si02
#       6
#    16  16   8  16  16  16
#     4  12  25  40  59  83 114 151 195 241 292 353
#     4  11  22  39  64  94 129 169 215 262 314 372
#     4   9  20  40  65  93 129 173 217 263 316 373
#     4  11  23  40  63  90 123 159 200 250 304 361
#     4   9  18  33  54  79 106 140 182 227 277 335
#     4  10  21  37  56  80 112 147 185 232 287 344
#
# _framework density 20.012598000000001
#
# number of rings (size 3 to 8) (size 9 to 14) (size 15 to 20)
#    0.000    1.545    0.909    4.364    0.000    6.545 
#    0.000    1.818    0.000    3.818    0.000    3.818 
#    0.000    0.000    0.000    0.000    0.000    0.000 
#
# Total GULP energy -245796.869350 kJ/mol
# GULP energy per Si atom -5586.292485 kJ/mol
# Density = 1.996705 g / cm^3
# Si number density = 20.012598 Si / 1000 Ang^3
#
#
#
# Elastic Constant Matrix: (Units=GPa)
#
#
# Indices 1 2 3 4 5 6 
#
# 1 100.0692 42.3067 38.6117 0.0000 0.0000 0.0000
# 2 42.3067 33.8675 10.9389 0.0000 0.0000 0.0000
# 3 38.6117 10.9389 91.9652 0.0000 0.0000 0.0000
# 4 0.0000 0.0000 0.0000 19.9895 0.0000 0.0000
# 5 0.0000 0.0000 0.0000 0.0000 29.8411 0.0000
# 6 0.0000 0.0000 0.0000 0.0000 0.0000 27.0331
#
#
#
# Elastic Compliance Matrix: (Units=1/GPa)
#
#
# Indices 1 2 3 4 5 6 
#
# 1 0.024886 -0.028820 -0.007021 0.000000 0.000000 0.000000
# 2 -0.028820 0.064082 0.004478 0.000000 0.000000 0.000000
# 3 -0.007021 0.004478 0.013289 0.000000 0.000000 0.000000
# 4 0.000000 0.000000 0.000000 0.050026 0.000000 0.000000
# 5 0.000000 0.000000 0.000000 0.000000 0.033511 0.000000
# 6 0.000000 0.000000 0.000000 0.000000 0.000000 0.036992
#
#
# Mechanical properties :
#
#
# Convention : Reuss Voigt Hill
#
# Bulk Modulus (GPa) = 25.29630 45.51295 35.40462
# Shear Modulus (GPa) = 16.73985 24.30903 20.52444
#
# Velocity S-wave (km/s) = 2.89531 3.48902 3.20594
# Velocity P-wave (km/s) = 4.88311 6.24680 5.60657
#
# Compressibility (1/GPa) = 0.03953148
#
# Stress axis : x y z
#
# Youngs Moduli (GPa) = 40.18272 15.60502 75.25227
#
# Poissons Ratio (x) = 0.44974 0.52831
# Poissons Ratio (y) = 1.15807 -0.33696
# Poissons Ratio (z) = 0.28210 -0.06988
#
# Static dielectric constant tensor:
#      x y z
#    x 1.696440 0.000000 0.000000 
#    y 0.000000 1.666830 0.000000 
#    z 0.000000 0.000000 1.705860 
# 
# From -- ./inp_files/77793.got.cif
#   From: 2010.05.17/outbox.cif.g08.bks.cpg/sg65_39_cif.got.tgz:77793.got - 2010.06.03 17:01:31.
