data_PCOD9492997
_publ_section_title
;
Structure prediction by ZEFSAII (Michael W. Deem and Ramdas Pophale) SiO2 
 PCOD9492997
Probable space group: C M M M
;
_chemical_formula_sum "Si O2"
_cell_formula_units_Z 80
_cell_length_a 18.843632
_cell_length_b 8.458094
_cell_length_c 26.396303
_cell_angle_alpha 90.000000
_cell_angle_beta 90.000000
_cell_angle_gamma 90.000000
_cell_volume 4207.074732
_symmetry_space_group_name_H-M "C M M M"
_symmetry_group_IT_number 65
_symmetry_cell_setting 'orthorhombic'
loop_
_space_group_symop_operation_xyz
x,y,z
-x,-y,z
x,-y,-z
-x,y,-z
-x,-y,-z
x,y,-z
-x,y,z
x,-y,z
1/2+x,1/2+y,z
1/2-x,1/2-y,z
1/2+x,1/2-y,-z
1/2-x,1/2+y,-z
1/2-x,1/2-y,-z
1/2+x,1/2+y,-z
1/2-x,1/2+y,z
1/2+x,1/2-y,z
loop_
_atom_site_type_symbol
_atom_site_label
_atom_site_fract_x
_atom_site_fract_y
_atom_site_fract_z
Si Si1 0.669972 0.310204 0.153882
Si Si2 0.670111 0.811044 0.348191
Si Si3 0.418157 0.307446 0.057055
Si Si4 0.581913 0.191410 0.249940
Si Si5 0.918229 0.190821 0.442338
O O1 0.670417 0.500000 0.153778
O O2 0.750000 0.250000 0.158365
O O3 0.633554 0.253687 0.101529
O O4 0.623100 0.252223 0.200871
O O5 0.750000 0.750000 0.343833
O O6 0.622764 0.755325 0.300609
O O7 0.633815 0.756560 0.400170
O O8 0.671329 0.000000 0.347089
O O9 0.500000 0.260303 0.066816
O O10 0.417331 0.500000 0.057099
O O11 0.398690 0.256353 0.000000
O O12 0.500000 0.243515 0.250122
O O13 0.582644 0.000000 0.249240
O O14 0.900565 0.239741 0.500000
O O15 0.000000 0.238996 0.432087
O O16 0.916071 0.000000 0.440925
#
# Coordination Sequence:
#
# PCOD9492997 Si02
#       5
#    16  16  16  16  16
#     4  11  22  35  54  81 111 145 184 223 269 324
#     4  11  23  38  57  82 112 146 183 223 270 323
#     4   8  15  30  52  77 105 138 179 226 271 318
#     4  10  22  40  60  82 109 140 177 225 277 326
#     4   9  19  37  60  85 113 145 182 225 272 321
#
# _framework density 19.015588999999999
#
# number of rings (size 3 to 8) (size 9 to 14) (size 15 to 20)
#    0.000    2.200    0.000    4.200    0.000    6.800 
#    0.000    1.000    0.000    1.800    0.000    7.000 
#    0.000    0.000    0.000    0.000    0.000    0.000 
#
# Total GULP energy -223394.154545 kJ/mol
# GULP energy per Si atom -5584.853864 kJ/mol
# Density = 1.897231 g / cm^3
# Si number density = 19.015589 Si / 1000 Ang^3
#
#
#
# Elastic Constant Matrix: (Units=GPa)
#
#
# Indices 1 2 3 4 5 6 
#
# 1 193.2178 31.9052 136.0759 0.0000 0.0000 0.0000
# 2 31.9052 17.8308 29.1806 0.0000 0.0000 0.0000
# 3 136.0759 29.1806 176.2077 0.0000 0.0000 0.0000
# 4 0.0000 0.0000 0.0000 -44.1520 0.0000 0.0000
# 5 0.0000 0.0000 0.0000 0.0000 -41.9771 0.0000
# 6 0.0000 0.0000 0.0000 0.0000 0.0000 -7.7179
#
#
#
# Elastic Compliance Matrix: (Units=1/GPa)
#
#
# Indices 1 2 3 4 5 6 
#
# 1 0.012288 -0.008859 -0.008023 0.000000 0.000000 0.000000
# 2 -0.008859 0.083319 -0.006957 0.000000 0.000000 0.000000
# 3 -0.008023 -0.006957 0.013023 0.000000 0.000000 0.000000
# 4 0.000000 0.000000 0.000000 -0.022649 0.000000 0.000000
# 5 0.000000 0.000000 0.000000 0.000000 -0.023823 0.000000
# 6 0.000000 0.000000 0.000000 0.000000 0.000000 -0.129569
#
#
# Mechanical properties :
#
#
# Convention : Reuss Voigt Hill
#
# Bulk Modulus (GPa) = 16.40595 86.84219 51.62407
# Shear Modulus (GPa) = 8576.63567 -6.09641 4285.26963
#
# Velocity S-wave (km/s) = 67.23176 -1.79248 47.52314
# Velocity P-wave (km/s) = 77.68822 6.44082 55.12233
#
# Compressibility (1/GPa) = 0.06095348
#
# Stress axis : x y z
#
# Youngs Moduli (GPa) = 81.37836 12.00212 76.78961
#
# Poissons Ratio (x) = 0.10632 0.61605
# Poissons Ratio (y) = 0.72090 0.53421
# Poissons Ratio (z) = 0.65286 0.08350
#
# Static dielectric constant tensor:
#      x y z
#    x 1.629390 0.000000 0.000000 
#    y 0.000000 1.650690 0.000000 
#    z 0.000000 0.000000 1.648120 
# 
# From -- ./inp_files/75017.got.cif
#   From: 2010.05.17/outbox.cif.g08.bks.cpg/sg65_38_cif.got.tgz:75017.got - 2010.06.03 17:01:31.
