data_PCOD9492130
_publ_section_title
;
Structure prediction by ZEFSAII (Michael W. Deem and Ramdas Pophale) SiO2 
 PCOD9492130
Probable space group: C M M M
;
_chemical_formula_sum "Si O2"
_cell_formula_units_Z 88
_cell_length_a 28.618093
_cell_length_b 15.199077
_cell_length_c 11.149408
_cell_angle_alpha 90.000000
_cell_angle_beta 90.000000
_cell_angle_gamma 90.000000
_cell_volume 4849.642379
_symmetry_space_group_name_H-M "C M M M"
_symmetry_group_IT_number 65
_symmetry_cell_setting 'orthorhombic'
loop_
_space_group_symop_operation_xyz
x,y,z
-x,-y,z
x,-y,-z
-x,y,-z
-x,-y,-z
x,y,-z
-x,y,z
x,-y,z
1/2+x,1/2+y,z
1/2-x,1/2-y,z
1/2+x,1/2-y,-z
1/2-x,1/2+y,-z
1/2-x,1/2-y,-z
1/2+x,1/2+y,-z
1/2-x,1/2+y,z
1/2+x,1/2-y,z
loop_
_atom_site_type_symbol
_atom_site_label
_atom_site_fract_x
_atom_site_fract_y
_atom_site_fract_z
Si Si1 0.121604 0.602573 0.639278
Si Si2 0.196600 0.245843 0.643280
Si Si3 0.373409 0.401851 0.697766
Si Si4 0.552901 0.392868 0.500000
Si Si5 0.554091 0.149936 0.139148
Si Si6 0.549742 0.362052 0.861934
O O1 0.105017 0.621250 0.500000
O O2 0.135066 0.500000 0.641128
O O3 0.165622 0.666792 0.661865
O O4 0.084954 0.617236 0.748444
O O5 0.197382 0.229770 0.500000
O O6 0.250000 0.250000 0.685029
O O7 0.168923 0.164547 0.699729
O O8 0.359668 0.500000 0.658926
O O9 0.414605 0.366135 0.610624
O O10 0.402918 0.404277 0.817614
O O11 0.550438 0.500000 0.500000
O O12 0.500000 0.359018 0.500000
O O13 0.500000 0.120740 0.151324
O O14 0.553907 0.256322 0.147692
O O15 0.568854 0.127894 0.000000
O O16 0.500000 0.389167 0.801909
O O17 0.545646 0.383428 0.000000
#
# Coordination Sequence:
#
# PCOD9492130 Si02
#       6
#    16  16  16   8  16  16
#     4  10  21  37  57  83 113 143 182 232 285 335
#     4  10  21  38  58  79 106 141 183 231 284 336
#     4  11  20  32  53  81 111 142 179 221 268 322
#     4   9  18  30  45  74 113 143 170 207 254 314
#     4   9  18  34  57  83 113 152 193 227 266 327
#     4   9  18  33  53  79 112 150 188 220 257 317
#
# _framework density 18.145669000000002
#
# number of rings (size 3 to 8) (size 9 to 14) (size 15 to 20)
#    0.000    2.273    2.727    1.636    0.000    3.273 
#    0.000    4.545    0.000    2.182    0.000    2.545 
#    0.000    0.000    0.000    0.000    0.000    0.000 
#
# Total GULP energy -245035.579761 kJ/mol
# GULP energy per Si atom -5568.990449 kJ/mol
# Density = 1.810437 g / cm^3
# Si number density = 18.145669 Si / 1000 Ang^3
#
#
#
# Elastic Constant Matrix: (Units=GPa)
#
#
# Indices 1 2 3 4 5 6 
#
# 1 147.5700 60.8203 57.8322 0.0000 0.0000 0.0000
# 2 60.8203 86.3581 34.0066 0.0000 0.0000 0.0000
# 3 57.8322 34.0066 86.0722 0.0000 0.0000 0.0000
# 4 0.0000 0.0000 0.0000 10.6313 0.0000 0.0000
# 5 0.0000 0.0000 0.0000 0.0000 1.5680 0.0000
# 6 0.0000 0.0000 0.0000 0.0000 0.0000 456.1207
#
#
#
# Elastic Compliance Matrix: (Units=1/GPa)
#
#
# Indices 1 2 3 4 5 6 
#
# 1 0.011243 -0.005855 -0.005241 0.000000 0.000000 0.000000
# 2 -0.005855 0.016762 -0.002689 0.000000 0.000000 0.000000
# 3 -0.005241 -0.002689 0.016202 0.000000 0.000000 0.000000
# 4 0.000000 0.000000 0.000000 0.094062 0.000000 0.000000
# 5 0.000000 0.000000 0.000000 0.000000 0.637749 0.000000
# 6 0.000000 0.000000 0.000000 0.000000 0.000000 0.002192
#
#
# Mechanical properties :
#
#
# Convention : Reuss Voigt Hill
#
# Bulk Modulus (GPa) = 60.10368 69.47982 64.79175
# Shear Modulus (GPa) = 6.16275 104.82009 55.49142
#
# Velocity S-wave (km/s) = 1.84490 7.60863 5.53602
# Velocity P-wave (km/s) = 6.14272 10.74996 8.75484
#
# Compressibility (1/GPa) = 0.01663792
#
# Stress axis : x y z
#
# Youngs Moduli (GPa) = 88.94047 59.65974 61.71995
#
# Poissons Ratio (x) = 0.34928 0.32350
# Poissons Ratio (y) = 0.52071 0.16595
# Poissons Ratio (z) = 0.46618 0.16041
#
# Static dielectric constant tensor:
#      x y z
#    x 1.601750 0.000000 0.000000 
#    y 0.000000 1.667320 0.000000 
#    z 0.000000 0.000000 1.783210 
# 
# From -- ./inp_files/32204.got.cif
#   From: 2010.05.17/outbox.cif.g08.bks.cpg/sg65_17_cif.got.tgz:32204.got - 2010.06.03 17:01:31.
