data_PCOD9492596
_publ_section_title
;
Structure prediction by ZEFSAII (Michael W. Deem and Ramdas Pophale) SiO2 
 PCOD9492596
Probable space group: C M M M
;
_chemical_formula_sum "Si O2"
_cell_formula_units_Z 52
_cell_length_a 16.878230
_cell_length_b 7.515877
_cell_length_c 18.002063
_cell_angle_alpha 90.000000
_cell_angle_beta 90.000000
_cell_angle_gamma 90.000000
_cell_volume 2283.646313
_symmetry_space_group_name_H-M "C M M M"
_symmetry_group_IT_number 65
_symmetry_cell_setting 'orthorhombic'
loop_
_space_group_symop_operation_xyz
x,y,z
-x,-y,z
x,-y,-z
-x,y,-z
-x,-y,-z
x,y,-z
-x,y,z
x,-y,z
1/2+x,1/2+y,z
1/2-x,1/2-y,z
1/2+x,1/2-y,-z
1/2-x,1/2+y,-z
1/2-x,1/2-y,-z
1/2+x,1/2+y,-z
1/2-x,1/2+y,z
1/2+x,1/2-y,z
loop_
_atom_site_type_symbol
_atom_site_label
_atom_site_fract_x
_atom_site_fract_y
_atom_site_fract_z
Si Si1 0.658684 0.202370 0.608020
Si Si2 0.590275 0.284642 0.762618
Si Si3 0.843663 0.786789 0.081033
Si Si4 0.601655 0.500000 0.500000
O O1 0.750000 0.250000 0.590281
O O2 0.644926 0.219123 0.695981
O O3 0.606253 0.344462 0.564476
O O4 0.643410 0.000000 0.586037
O O5 0.500000 0.232687 0.746834
O O6 0.594723 0.500000 0.762963
O O7 0.615283 0.220032 0.844291
O O8 0.750000 0.750000 0.086496
O O9 0.854981 0.000000 0.080095
O O10 0.870835 0.718998 0.000000
#
# Coordination Sequence:
#
# PCOD9492596 Si02
#       4
#    16  16  16   4
#     4  12  24  40  67  96 125 161 204 258 315 374
#     4  10  21  39  59  85 126 169 210 256 309 369
#     4   9  18  33  57  88 121 160 208 258 308 361
#     4  12  24  44  67 100 123 156 204 262 320 368
#
# _framework density 22.770600999999999
#
# number of rings (size 3 to 8) (size 9 to 14) (size 15 to 20)
#    0.000    1.538    3.077    1.846    0.000    4.923 
#    0.000    4.615    0.000    1.846    0.000    6.462 
#    0.000    0.000    0.000    0.000    0.000    0.000 
#
# Total GULP energy -144885.098710 kJ/mol
# GULP energy per Si atom -5572.503797 kJ/mol
# Density = 2.271877 g / cm^3
# Si number density = 22.770601 Si / 1000 Ang^3
#
#
#
# Elastic Constant Matrix: (Units=GPa)
#
#
# Indices 1 2 3 4 5 6 
#
# 1 37.2547 6.2047 18.4091 0.0000 0.0000 0.0000
# 2 6.2047 159.2177 36.5549 0.0000 0.0000 0.0000
# 3 18.4091 36.5549 177.4806 0.0000 0.0000 0.0000
# 4 0.0000 0.0000 0.0000 -93.9673 0.0000 0.0000
# 5 0.0000 0.0000 0.0000 0.0000 -205.1908 0.0000
# 6 0.0000 0.0000 0.0000 0.0000 0.0000 2.3390
#
#
#
# Elastic Compliance Matrix: (Units=1/GPa)
#
#
# Indices 1 2 3 4 5 6 
#
# 1 0.028323 -0.000451 -0.002845 0.000000 0.000000 0.000000
# 2 -0.000451 0.006600 -0.001313 0.000000 0.000000 0.000000
# 3 -0.002845 -0.001313 0.006200 0.000000 0.000000 0.000000
# 4 0.000000 0.000000 0.000000 -0.010642 0.000000 0.000000
# 5 0.000000 0.000000 0.000000 0.000000 -0.004874 0.000000
# 6 0.000000 0.000000 0.000000 0.000000 0.000000 0.427534
#
#
# Mechanical properties :
#
#
# Convention : Reuss Voigt Hill
#
# Bulk Modulus (GPa) = 31.34175 55.14339 43.24257
# Shear Modulus (GPa) = 10.57098 -38.51152 -13.97027
#
# Velocity S-wave (km/s) = 2.15696 -4.11698 -2.47962
# Velocity P-wave (km/s) = 4.47183 1.29233 3.29146
#
# Compressibility (1/GPa) = 0.03190632
#
# Stress axis : x y z
#
# Youngs Moduli (GPa) = 35.30686 151.52393 161.29408
#
# Poissons Ratio (x) = 0.06827 0.45888
# Poissons Ratio (y) = 0.01591 0.21171
# Poissons Ratio (z) = 0.10045 0.19888
#
# Static dielectric constant tensor:
#      x y z
#    x 1.842800 0.000000 0.000000 
#    y 0.000000 1.810400 0.000000 
#    z 0.000000 0.000000 1.843820 
# 
# From -- ./inp_files/35307.got.cif
#   From: 2010.05.17/outbox.cif.g08.bks.cpg/sg65_18_cif.got.tgz:35307.got - 2010.06.03 17:01:31.
