data_PCOD9492490
_publ_section_title
;
Structure prediction by ZEFSAII (Michael W. Deem and Ramdas Pophale) SiO2 
 PCOD9492490
Probable space group: C M M M
;
_chemical_formula_sum "Si O2"
_cell_formula_units_Z 96
_cell_length_a 18.726026
_cell_length_b 8.664328
_cell_length_c 31.382690
_cell_angle_alpha 90.000000
_cell_angle_beta 90.000000
_cell_angle_gamma 90.000000
_cell_volume 5091.792226
_symmetry_space_group_name_H-M "C M M M"
_symmetry_group_IT_number 65
_symmetry_cell_setting 'orthorhombic'
loop_
_space_group_symop_operation_xyz
x,y,z
-x,-y,z
x,-y,-z
-x,y,-z
-x,-y,-z
x,y,-z
-x,y,z
x,-y,z
1/2+x,1/2+y,z
1/2-x,1/2-y,z
1/2+x,1/2-y,-z
1/2-x,1/2+y,-z
1/2-x,1/2-y,-z
1/2+x,1/2+y,-z
1/2-x,1/2+y,z
1/2+x,1/2-y,z
loop_
_atom_site_type_symbol
_atom_site_label
_atom_site_fract_x
_atom_site_fract_y
_atom_site_fract_z
Si Si1 0.670070 0.814539 0.206185
Si Si2 0.416944 0.686021 0.451247
Si Si3 0.170526 0.315109 0.627160
Si Si4 0.171197 0.684821 0.950562
Si Si5 0.917962 0.311962 0.289877
Si Si6 0.582870 0.315034 0.126370
O O1 0.750000 0.750000 0.207579
O O2 0.625921 0.764578 0.248081
O O3 0.629292 0.755524 0.164467
O O4 0.672687 0.000000 0.205439
O O5 0.399318 0.730401 0.500000
O O6 0.500000 0.728034 0.443431
O O7 0.412037 0.500000 0.448641
O O8 0.366461 0.760166 0.416275
O O9 0.173424 0.500000 0.627809
O O10 0.250000 0.250000 0.630841
O O11 0.122570 0.262480 0.667297
O O12 0.172260 0.500000 0.946316
O O13 0.250000 0.750000 0.940570
O O14 0.114976 0.755900 0.918060
O O15 0.155675 0.723350 0.000000
O O16 0.919186 0.500000 0.290030
O O17 0.000000 0.258936 0.288756
O O18 0.500000 0.269904 0.130876
O O19 0.587735 0.500000 0.127943
#
# Coordination Sequence:
#
# PCOD9492490 Si02
#       6
#    16  16  16  16  16  16
#     4  11  22  38  61  85 114 150 187 229 277 331
#     4   9  19  37  59  82 110 144 183 229 281 336
#     4  11  22  36  56  82 114 149 187 231 277 330
#     4  10  21  38  61  87 115 149 190 234 280 334
#     4   9  19  36  58  84 112 144 184 230 279 330
#     4  11  24  40  58  83 116 151 189 234 282 333
#
# _framework density 18.853871000000002
#
# number of rings (size 3 to 8) (size 9 to 14) (size 15 to 20)
#    0.000    1.833    0.000    4.500    0.000    5.000 
#    0.000    5.000    0.000    6.000    0.000    0.000 
#    0.000    0.000    0.000    0.000    0.000    0.000 
#
# Total GULP energy -268273.527745 kJ/mol
# GULP energy per Si atom -5589.031828 kJ/mol
# Density = 1.881096 g / cm^3
# Si number density = 18.853871 Si / 1000 Ang^3
#
#
#
# Elastic Constant Matrix: (Units=GPa)
#
#
# Indices 1 2 3 4 5 6 
#
# 1 194.6881 50.7019 116.2225 0.0000 0.0000 0.0000
# 2 50.7019 43.5758 41.4069 0.0000 0.0000 0.0000
# 3 116.2225 41.4069 135.9553 0.0000 0.0000 0.0000
# 4 0.0000 0.0000 0.0000 6.7841 0.0000 0.0000
# 5 0.0000 0.0000 0.0000 0.0000 41.5697 0.0000
# 6 0.0000 0.0000 0.0000 0.0000 0.0000 7.0087
#
#
#
# Elastic Compliance Matrix: (Units=1/GPa)
#
#
# Indices 1 2 3 4 5 6 
#
# 1 0.011393 -0.005631 -0.008025 0.000000 0.000000 0.000000
# 2 -0.005631 0.035078 -0.005869 0.000000 0.000000 0.000000
# 3 -0.008025 -0.005869 0.016003 0.000000 0.000000 0.000000
# 4 0.000000 0.000000 0.000000 0.147404 0.000000 0.000000
# 5 0.000000 0.000000 0.000000 0.000000 0.024056 0.000000
# 6 0.000000 0.000000 0.000000 0.000000 0.000000 0.142679
#
#
# Mechanical properties :
#
#
# Convention : Reuss Voigt Hill
#
# Bulk Modulus (GPa) = 42.69216 87.87577 65.28397
# Shear Modulus (GPa) = 11.80715 22.13169 16.96942
#
# Velocity S-wave (km/s) = 2.50520 3.42987 3.00334
# Velocity P-wave (km/s) = 5.57323 7.89908 6.83580
#
# Compressibility (1/GPa) = 0.02342350
#
# Stress axis : x y z
#
# Youngs Moduli (GPa) = 87.76958 28.50774 62.48848
#
# Poissons Ratio (x) = 0.16054 0.50145
# Poissons Ratio (y) = 0.49427 0.36677
# Poissons Ratio (z) = 0.70432 0.16732
#
# Static dielectric constant tensor:
#      x y z
#    x 1.620450 0.000000 0.000000 
#    y 0.000000 1.646580 0.000000 
#    z 0.000000 0.000000 1.632730 
# 
# From -- ./inp_files/75360.got.cif
#   From: 2010.05.17/outbox.cif.g08.bks.cpg/sg65_38_cif.got.tgz:75360.got - 2010.06.03 17:01:31.
