data_PCOD9492657
_publ_section_title
;
Structure prediction by ZEFSAII (Michael W. Deem and Ramdas Pophale) SiO2 
 PCOD9492657
Probable space group: C M M M
;
_chemical_formula_sum "Si O2"
_cell_formula_units_Z 58
_cell_length_a 19.729786
_cell_length_b 8.309090
_cell_length_c 17.873352
_cell_angle_alpha 90.000000
_cell_angle_beta 90.000000
_cell_angle_gamma 90.000000
_cell_volume 2930.095978
_symmetry_space_group_name_H-M "C M M M"
_symmetry_group_IT_number 65
_symmetry_cell_setting 'orthorhombic'
loop_
_space_group_symop_operation_xyz
x,y,z
-x,-y,z
x,-y,-z
-x,y,-z
-x,-y,-z
x,y,-z
-x,y,z
x,-y,z
1/2+x,1/2+y,z
1/2-x,1/2-y,z
1/2+x,1/2-y,-z
1/2-x,1/2+y,-z
1/2-x,1/2-y,-z
1/2+x,1/2+y,-z
1/2-x,1/2+y,z
1/2+x,1/2-y,z
loop_
_atom_site_type_symbol
_atom_site_label
_atom_site_fract_x
_atom_site_fract_y
_atom_site_fract_z
Si Si1 0.423383 0.190880 0.287936
Si Si2 0.176098 0.191756 0.414778
Si Si3 0.000000 0.500000 0.000000
Si Si4 0.325767 0.687165 0.839158
Si Si5 0.606898 0.308130 0.000000
O O1 0.500000 0.256387 0.282825
O O2 0.382399 0.255583 0.358945
O O3 0.380269 0.228713 0.214125
O O4 0.427382 0.000000 0.295484
O O5 0.166443 0.253225 0.500000
O O6 0.250000 0.250000 0.388194
O O7 0.177585 0.000000 0.417178
O O8 0.942100 0.649998 0.000000
O O9 0.326850 0.500000 0.818841
O O10 0.250000 0.750000 0.828020
O O11 0.348749 0.704768 0.924894
O O12 0.580591 0.500000 0.000000
#
# Coordination Sequence:
#
# PCOD9492657 Si02
#       5
#    16  16   2  16   8
#     4  11  25  41  61  90 125 165 209 255 316 381
#     4  10  21  39  64  91 121 160 205 254 311 373
#     4  12  26  40  76  94 140 176 202 288 312 402
#     4  11  24  43  67  93 128 165 214 268 315 381
#     4  10  26  44  67 102 131 174 222 265 327 386
#
# _framework density 19.794573
#
# number of rings (size 3 to 8) (size 9 to 14) (size 15 to 20)
#    0.000    1.379    0.000    3.931    5.793    4.414 
#    0.000    2.759    0.000    0.000    0.000    0.000 
#    0.000    0.000    0.000    0.000    0.000    0.000 
#
# Total GULP energy -161708.272108 kJ/mol
# GULP energy per Si atom -5576.147314 kJ/mol
# Density = 1.974952 g / cm^3
# Si number density = 19.794573 Si / 1000 Ang^3
#
#
#
# Elastic Constant Matrix: (Units=GPa)
#
#
# Indices 1 2 3 4 5 6 
#
# 1 188.8543 47.8968 80.7149 0.0000 0.0000 0.0000
# 2 47.8968 97.5567 19.1039 0.0000 0.0000 0.0000
# 3 80.7149 19.1039 102.1059 0.0000 0.0000 0.0000
# 4 0.0000 0.0000 0.0000 44.2818 0.0000 0.0000
# 5 0.0000 0.0000 0.0000 0.0000 -59.7550 0.0000
# 6 0.0000 0.0000 0.0000 0.0000 0.0000 34.6015
#
#
#
# Elastic Compliance Matrix: (Units=1/GPa)
#
#
# Indices 1 2 3 4 5 6 
#
# 1 0.008802 -0.003072 -0.006384 0.000000 0.000000 0.000000
# 2 -0.003072 0.011712 0.000237 0.000000 0.000000 0.000000
# 3 -0.006384 0.000237 0.014796 0.000000 0.000000 0.000000
# 4 0.000000 0.000000 0.000000 0.022583 0.000000 0.000000
# 5 0.000000 0.000000 0.000000 0.000000 -0.016735 0.000000
# 6 0.000000 0.000000 0.000000 0.000000 0.000000 0.028900
#
#
# Mechanical properties :
#
#
# Convention : Reuss Voigt Hill
#
# Bulk Modulus (GPa) = 59.26500 75.99422 67.62961
# Shear Modulus (GPa) = 53.12384 19.87910 36.50147
#
# Velocity S-wave (km/s) = 5.18612 3.17246 4.29886
# Velocity P-wave (km/s) = 8.11580 7.20376 7.67334
#
# Compressibility (1/GPa) = 0.01687336
#
# Stress axis : x y z
#
# Youngs Moduli (GPa) = 113.60518 85.38158 67.58712
#
# Poissons Ratio (x) = 0.26226 0.43145
# Poissons Ratio (y) = 0.34895 -0.01600
# Poissons Ratio (z) = 0.72521 -0.02022
#
# Static dielectric constant tensor:
#      x y z
#    x 1.687080 0.000000 0.000000 
#    y 0.000000 1.702430 0.000000 
#    z 0.000000 0.000000 1.687340 
# 
# From -- ./inp_files/53936.got.cif
#   From: 2010.05.17/outbox.cif.g08.bks.cpg/sg65_27_cif.got.tgz:53936.got - 2010.06.03 17:01:31.
