data_PCOD9492029
_publ_section_title
;
Structure prediction by ZEFSAII (Michael W. Deem and Ramdas Pophale) SiO2 
 PCOD9492029
Probable space group: C M M M
;
_chemical_formula_sum "Si O2"
_cell_formula_units_Z 88
_cell_length_a 8.597682
_cell_length_b 29.322818
_cell_length_c 18.494495
_cell_angle_alpha 90.000000
_cell_angle_beta 90.000000
_cell_angle_gamma 90.000000
_cell_volume 4662.615037
_symmetry_space_group_name_H-M "C M M M"
_symmetry_group_IT_number 65
_symmetry_cell_setting 'orthorhombic'
loop_
_space_group_symop_operation_xyz
x,y,z
-x,-y,z
x,-y,-z
-x,y,-z
-x,-y,-z
x,y,-z
-x,y,z
x,-y,z
1/2+x,1/2+y,z
1/2-x,1/2-y,z
1/2+x,1/2-y,-z
1/2-x,1/2+y,-z
1/2-x,1/2-y,-z
1/2+x,1/2+y,-z
1/2-x,1/2+y,z
1/2+x,1/2-y,z
loop_
_atom_site_type_symbol
_atom_site_label
_atom_site_fract_x
_atom_site_fract_y
_atom_site_fract_z
Si Si1 0.814565 0.298680 0.855002
Si Si2 0.689559 0.947572 0.500000
Si Si3 0.311932 0.446998 0.220996
Si Si4 0.185402 0.798709 0.691826
Si Si5 0.313515 0.108107 0.641942
Si Si6 0.812322 0.109569 0.919336
O O1 0.750000 0.250000 0.881054
O O2 0.750061 0.305310 0.773444
O O3 0.757184 0.340945 0.902098
O O4 0.000000 0.297124 0.852245
O O5 0.500000 0.948652 0.500000
O O6 0.737390 0.920512 0.571815
O O7 0.743454 0.000000 0.500000
O O8 0.500000 0.444009 0.226358
O O9 0.267804 0.500000 0.224876
O O10 0.239235 0.418744 0.286490
O O11 0.265133 0.424568 0.144696
O O12 0.250000 0.750000 0.666028
O O13 0.241911 0.841518 0.645475
O O14 0.000000 0.797272 0.695276
O O15 0.500000 0.111808 0.641315
O O16 0.000000 0.113079 0.916818
O O17 0.767856 0.094533 0.000000
#
# Coordination Sequence:
#
# PCOD9492029 Si02
#       6
#    16   8  16  16  16  16
#     4  11  21  35  57  84 114 151 192 239 291 346
#     4   9  20  38  60  89 124 159 196 239 288 343
#     4  10  21  37  58  84 114 151 196 244 293 347
#     4  11  21  36  59  88 120 153 193 238 286 346
#     4  11  21  37  62  90 119 156 196 238 289 345
#     4  10  21  37  56  80 115 156 196 241 292 347
#
# _framework density 18.873528
#
# number of rings (size 3 to 8) (size 9 to 14) (size 15 to 20)
#    0.000    1.545    1.818    5.455    0.000    2.182 
#    0.000    4.091    0.000    3.273    0.000    2.545 
#    0.000    0.000    0.000    0.000    0.000    0.000 
#
# Total GULP energy -245900.137669 kJ/mol
# GULP energy per Si atom -5588.639492 kJ/mol
# Density = 1.883057 g / cm^3
# Si number density = 18.873528 Si / 1000 Ang^3
#
#
#
# Elastic Constant Matrix: (Units=GPa)
#
#
# Indices 1 2 3 4 5 6 
#
# 1 56.3663 39.9200 37.8932 0.0000 0.0000 0.0000
# 2 39.9200 152.0119 83.5302 0.0000 0.0000 0.0000
# 3 37.8932 83.5302 128.4379 0.0000 0.0000 0.0000
# 4 0.0000 0.0000 0.0000 9.4888 0.0000 0.0000
# 5 0.0000 0.0000 0.0000 0.0000 5.7667 0.0000
# 6 0.0000 0.0000 0.0000 0.0000 0.0000 17.0099
#
#
#
# Elastic Compliance Matrix: (Units=1/GPa)
#
#
# Indices 1 2 3 4 5 6 
#
# 1 0.023366 -0.003654 -0.004517 0.000000 0.000000 0.000000
# 2 -0.003654 0.010808 -0.005951 0.000000 0.000000 0.000000
# 3 -0.004517 -0.005951 0.012989 0.000000 0.000000 0.000000
# 4 0.000000 0.000000 0.000000 0.105387 0.000000 0.000000
# 5 0.000000 0.000000 0.000000 0.000000 0.173410 0.000000
# 6 0.000000 0.000000 0.000000 0.000000 0.000000 0.058789
#
#
# Mechanical properties :
#
#
# Convention : Reuss Voigt Hill
#
# Bulk Modulus (GPa) = 52.85911 73.27810 63.06860
# Shear Modulus (GPa) = 11.92465 18.15126 15.03796
#
# Velocity S-wave (km/s) = 2.51633 3.10454 2.82578
# Velocity P-wave (km/s) = 6.04238 7.19452 6.64347
#
# Compressibility (1/GPa) = 0.01891822
#
# Stress axis : x y z
#
# Youngs Moduli (GPa) = 42.79780 92.52329 76.98861
#
# Poissons Ratio (x) = 0.33807 0.34778
# Poissons Ratio (y) = 0.15638 0.45817
# Poissons Ratio (z) = 0.19333 0.55062
#
# Static dielectric constant tensor:
#      x y z
#    x 1.637690 0.000000 0.000000 
#    y 0.000000 1.641370 0.000000 
#    z 0.000000 0.000000 1.642580 
# 
# From -- ./inp_files/50336.got.cif
#   From: 2010.05.17/outbox.cif.g08.bks.cpg/sg65_26_cif.got.tgz:50336.got - 2010.06.03 17:01:31.
