data_PCOD9492123
_publ_section_title
;
Structure prediction by ZEFSAII (Michael W. Deem and Ramdas Pophale) SiO2 
 PCOD9492123
Probable space group: C M M M
;
_chemical_formula_sum "Si O2"
_cell_formula_units_Z 68
_cell_length_a 19.053707
_cell_length_b 14.139105
_cell_length_c 13.138569
_cell_angle_alpha 90.000000
_cell_angle_beta 90.000000
_cell_angle_gamma 90.000000
_cell_volume 3539.561547
_symmetry_space_group_name_H-M "C M M M"
_symmetry_group_IT_number 65
_symmetry_cell_setting 'orthorhombic'
loop_
_space_group_symop_operation_xyz
x,y,z
-x,-y,z
x,-y,-z
-x,y,-z
-x,-y,-z
x,y,-z
-x,y,z
x,-y,z
1/2+x,1/2+y,z
1/2-x,1/2-y,z
1/2+x,1/2-y,-z
1/2-x,1/2+y,-z
1/2-x,1/2-y,-z
1/2+x,1/2+y,-z
1/2-x,1/2+y,z
1/2+x,1/2-y,z
loop_
_atom_site_type_symbol
_atom_site_label
_atom_site_fract_x
_atom_site_fract_y
_atom_site_fract_z
Si Si1 0.750000 0.750000 0.500000
Si Si2 0.917207 0.265931 0.615503
Si Si3 0.278487 0.385749 0.888310
Si Si4 0.420072 0.387989 0.214032
Si Si5 0.206409 0.612880 0.321541
O O1 0.752101 0.667733 0.590743
O O2 0.888331 0.251655 0.500000
O O3 0.909208 0.173294 0.684384
O O4 0.873065 0.350681 0.663153
O O5 0.000000 0.286201 0.609991
O O6 0.275757 0.500000 0.889965
O O7 0.359450 0.360872 0.864699
O O8 0.233266 0.357983 0.790381
O O9 0.255874 0.353396 0.000000
O O10 0.500000 0.371382 0.178277
O O11 0.413163 0.500000 0.235729
O O12 0.212183 0.500000 0.331693
#
# Coordination Sequence:
#
# PCOD9492123 Si02
#       5
#     4  16  16  16  16
#     4  12  22  36  56  84 116 142 186 238 280 350
#     4  10  21  37  57  82 116 153 195 245 287 344
#     4   9  19  36  58  85 115 152 197 240 289 349
#     4   9  18  34  56  84 118 155 193 236 290 346
#     4  11  23  39  60  85 117 156 194 241 296 347
#
# _framework density 19.211418999999999
#
# number of rings (size 3 to 8) (size 9 to 14) (size 15 to 20)
#    0.000    2.118    1.176    1.765    0.000    1.412 
#    0.000   12.353    0.000    2.118    0.000    3.294 
#    0.000    0.000    0.000    0.000    0.000    0.000 
#
# Total GULP energy -189276.839547 kJ/mol
# GULP energy per Si atom -5566.965869 kJ/mol
# Density = 1.916769 g / cm^3
# Si number density = 19.211419 Si / 1000 Ang^3
#
#
#
# Elastic Constant Matrix: (Units=GPa)
#
#
# Indices 1 2 3 4 5 6 
#
# 1 49.6180 20.3172 45.1740 0.0000 0.0000 0.0000
# 2 20.3172 91.1985 35.6274 0.0000 0.0000 0.0000
# 3 45.1740 35.6274 177.3533 0.0000 0.0000 0.0000
# 4 0.0000 0.0000 0.0000 153.0530 0.0000 0.0000
# 5 0.0000 0.0000 0.0000 0.0000 21.7745 0.0000
# 6 0.0000 0.0000 0.0000 0.0000 0.0000 28.2193
#
#
#
# Elastic Compliance Matrix: (Units=1/GPa)
#
#
# Indices 1 2 3 4 5 6 
#
# 1 0.027317 -0.003654 -0.006224 0.000000 0.000000 0.000000
# 2 -0.003654 0.012388 -0.001558 0.000000 0.000000 0.000000
# 3 -0.006224 -0.001558 0.007537 0.000000 0.000000 0.000000
# 4 0.000000 0.000000 0.000000 0.006534 0.000000 0.000000
# 5 0.000000 0.000000 0.000000 0.000000 0.045925 0.000000
# 6 0.000000 0.000000 0.000000 0.000000 0.000000 0.035437
#
#
# Mechanical properties :
#
#
# Convention : Reuss Voigt Hill
#
# Bulk Modulus (GPa) = 41.03483 57.82298 49.42891
# Shear Modulus (GPa) = 30.09669 55.07945 42.58807
#
# Velocity S-wave (km/s) = 3.96233 5.36026 4.71341
# Velocity P-wave (km/s) = 6.50687 8.27487 7.44355
#
# Compressibility (1/GPa) = 0.02436954
#
# Stress axis : x y z
#
# Youngs Moduli (GPa) = 36.60775 80.72515 132.68486
#
# Poissons Ratio (x) = 0.29499 0.82580
# Poissons Ratio (y) = 0.13377 0.20669
# Poissons Ratio (z) = 0.22784 0.12575
#
# Static dielectric constant tensor:
#      x y z
#    x 2.021030 0.000000 0.000000 
#    y 0.000000 1.631430 0.000000 
#    z 0.000000 0.000000 1.638910 
# 
# From -- ./inp_files/28299.got.cif
#   From: 2010.05.17/outbox.cif.g08.bks.cpg/sg65_15_cif.got.tgz:28299.got - 2010.06.03 17:01:31.
