data_PCOD9492166
_publ_section_title
;
Structure prediction by ZEFSAII (Michael W. Deem and Ramdas Pophale) SiO2 
 PCOD9492166
Probable space group: C M M M
;
_chemical_formula_sum "Si O2"
_cell_formula_units_Z 88
_cell_length_a 7.829369
_cell_length_b 18.425293
_cell_length_c 30.685645
_cell_angle_alpha 90.000000
_cell_angle_beta 90.000000
_cell_angle_gamma 90.000000
_cell_volume 4426.662598
_symmetry_space_group_name_H-M "C M M M"
_symmetry_group_IT_number 65
_symmetry_cell_setting 'orthorhombic'
loop_
_space_group_symop_operation_xyz
x,y,z
-x,-y,z
x,-y,-z
-x,y,-z
-x,-y,-z
x,y,-z
-x,y,z
x,-y,z
1/2+x,1/2+y,z
1/2-x,1/2-y,z
1/2+x,1/2-y,-z
1/2-x,1/2+y,-z
1/2-x,1/2-y,-z
1/2+x,1/2+y,-z
1/2-x,1/2+y,z
1/2+x,1/2-y,z
loop_
_atom_site_type_symbol
_atom_site_label
_atom_site_fract_x
_atom_site_fract_y
_atom_site_fract_z
Si Si1 0.794060 0.835256 0.394881
Si Si2 0.702865 0.166132 0.218880
Si Si3 0.704188 0.417926 0.306507
Si Si4 0.796330 0.834032 0.951554
Si Si5 0.795759 0.418294 0.134853
Si Si6 0.500000 0.914524 0.447858
O O1 0.750000 0.750000 0.395678
O O2 0.745570 0.869044 0.347759
O O3 0.670111 0.876378 0.428658
O O4 0.000000 0.844913 0.401974
O O5 0.500000 0.163241 0.216272
O O6 0.750000 0.250000 0.223261
O O7 0.754105 0.120306 0.261083
O O8 0.773769 0.130794 0.174367
O O9 0.500000 0.423049 0.309000
O O10 0.774589 0.500000 0.308771
O O11 0.750000 0.750000 0.943740
O O12 0.734166 0.882623 0.911954
O O13 0.000000 0.839547 0.952586
O O14 0.730003 0.853743 0.000000
O O15 0.726542 0.500000 0.136951
O O16 0.000000 0.422502 0.140492
O O17 0.500000 0.908208 0.500000
O O18 0.500000 0.000000 0.436155
#
# Coordination Sequence:
#
# PCOD9492166 Si02
#       6
#    16  16  16  16  16   8
#     4  11  23  43  68 101 136 177 225 280 331 396
#     4  11  23  38  58  85 116 156 199 246 298 357
#     4  10  22  39  62  92 126 163 207 256 312 373
#     4  10  21  37  58  83 109 142 186 234 286 347
#     4  10  22  39  57  81 114 148 189 237 292 356
#     4  11  26  46  70 102 137 179 229 279 341 403
#
# _framework density 19.879536000000002
#
# number of rings (size 3 to 8) (size 9 to 14) (size 15 to 20)
#    0.000    1.545    0.909    3.273    1.273    9.091 
#    0.000    2.727    0.000    0.000    0.000    0.000 
#    0.000    0.000    0.000    0.000    0.000    0.000 
#
# Total GULP energy -245801.120974 kJ/mol
# GULP energy per Si atom -5586.389113 kJ/mol
# Density = 1.983429 g / cm^3
# Si number density = 19.879536 Si / 1000 Ang^3
#
#
#
# Elastic Constant Matrix: (Units=GPa)
#
#
# Indices 1 2 3 4 5 6 
#
# 1 65.6256 35.5930 35.6878 0.0000 0.0000 0.0000
# 2 35.5930 178.9673 97.4066 0.0000 0.0000 0.0000
# 3 35.6878 97.4066 139.3048 0.0000 0.0000 0.0000
# 4 0.0000 0.0000 0.0000 30.2071 0.0000 0.0000
# 5 0.0000 0.0000 0.0000 0.0000 31.5879 0.0000
# 6 0.0000 0.0000 0.0000 0.0000 0.0000 1.5835
#
#
#
# Elastic Compliance Matrix: (Units=1/GPa)
#
#
# Indices 1 2 3 4 5 6 
#
# 1 0.018030 -0.001730 -0.003409 0.000000 0.000000 0.000000
# 2 -0.001730 0.009187 -0.005980 0.000000 0.000000 0.000000
# 3 -0.003409 -0.005980 0.012234 0.000000 0.000000 0.000000
# 4 0.000000 0.000000 0.000000 0.033105 0.000000 0.000000
# 5 0.000000 0.000000 0.000000 0.000000 0.031658 0.000000
# 6 0.000000 0.000000 0.000000 0.000000 0.000000 0.631510
#
#
# Mechanical properties :
#
#
# Convention : Reuss Voigt Hill
#
# Bulk Modulus (GPa) = 58.10297 80.14140 69.12218
# Shear Modulus (GPa) = 6.54708 27.02303 16.78506
#
# Velocity S-wave (km/s) = 1.81673 3.69092 2.90890
# Velocity P-wave (km/s) = 5.80445 7.65277 6.79178
#
# Compressibility (1/GPa) = 0.01721082
#
# Stress axis : x y z
#
# Youngs Moduli (GPa) = 55.46191 108.85336 81.74244
#
# Poissons Ratio (x) = 0.18836 0.27868
# Poissons Ratio (y) = 0.09597 0.48885
# Poissons Ratio (z) = 0.18908 0.65098
#
# Static dielectric constant tensor:
#      x y z
#    x 1.708660 0.000000 0.000000 
#    y 0.000000 1.665320 0.000000 
#    z 0.000000 0.000000 1.693280 
# 
# From -- ./inp_files/76575.got.cif
#   From: 2010.05.17/outbox.cif.g08.bks.cpg/sg65_39_cif.got.tgz:76575.got - 2010.06.03 17:01:31.
