data_PCOD9492744
_publ_section_title
;
Structure prediction by ZEFSAII (Michael W. Deem and Ramdas Pophale) SiO2 
 PCOD9492744
Probable space group: C M M M
;
_chemical_formula_sum "Si O2"
_cell_formula_units_Z 64
_cell_length_a 10.131867
_cell_length_b 30.299468
_cell_length_c 11.222057
_cell_angle_alpha 90.000000
_cell_angle_beta 90.000000
_cell_angle_gamma 90.000000
_cell_volume 3445.061298
_symmetry_space_group_name_H-M "C M M M"
_symmetry_group_IT_number 65
_symmetry_cell_setting 'orthorhombic'
loop_
_space_group_symop_operation_xyz
x,y,z
-x,-y,z
x,-y,-z
-x,y,-z
-x,-y,-z
x,y,-z
-x,y,z
x,-y,z
1/2+x,1/2+y,z
1/2-x,1/2-y,z
1/2+x,1/2-y,-z
1/2-x,1/2+y,-z
1/2-x,1/2-y,-z
1/2+x,1/2+y,-z
1/2-x,1/2+y,z
1/2+x,1/2-y,z
loop_
_atom_site_type_symbol
_atom_site_label
_atom_site_fract_x
_atom_site_fract_y
_atom_site_fract_z
Si Si1 0.000000 0.912165 0.358181
Si Si2 0.157281 0.595475 0.000000
Si Si3 0.000000 0.551822 0.643681
Si Si4 0.777121 0.382020 0.262060
Si Si5 0.275342 0.500000 0.000000
Si Si6 0.500000 0.500000 0.799198
Si Si7 0.350844 0.787020 0.642044
O O1 0.133056 0.887540 0.318615
O O2 0.000000 0.919090 0.500000
O O3 0.000000 0.957634 0.284917
O O4 0.221380 0.614438 0.880342
O O5 0.187065 0.543416 0.000000
O O6 0.000000 0.603482 0.000000
O O7 0.126980 0.578683 0.691266
O O8 0.000000 0.500000 0.679631
O O9 0.000000 0.553460 0.500000
O O10 0.832666 0.334757 0.300413
O O11 0.372346 0.500000 0.885343
O O12 0.330295 0.792674 0.500000
O O13 0.500000 0.771491 0.660851
O O14 0.250000 0.750000 0.685912
#
# Coordination Sequence:
#
# PCOD9492744 Si02
#       7
#     8   8   8  16   4   4  16
#     4  12  26  41  63  93 132 173 218 271 331 392
#     4  12  24  41  67  90 124 174 228 274 319 386
#     4  11  24  41  62  92 131 173 218 271 336 393
#     4  12  25  43  65  95 131 174 221 273 328 390
#     4  11  23  42  62  86 127 175 228 274 316 390
#     4  11  23  42  62  86 127 179 218 268 324 387
#     4  10  21  40  67  96 129 166 211 271 338 402
#
# _framework density 18.577318999999999
#
# number of rings (size 3 to 8) (size 9 to 14) (size 15 to 20)
#    0.000    0.750    5.000    2.625    5.250    0.500 
#    0.000    0.625    0.000    0.000    0.000    0.000 
#    0.000    0.000    0.000    0.000    0.000    0.000 
#
# Total GULP energy -178936.364701 kJ/mol
# GULP energy per Si atom -5591.761397 kJ/mol
# Density = 1.853504 g / cm^3
# Si number density = 18.577319 Si / 1000 Ang^3
#
#
#
# Elastic Constant Matrix: (Units=GPa)
#
#
# Indices 1 2 3 4 5 6 
#
# 1 95.2828 36.3759 48.3823 0.0000 0.0000 0.0000
# 2 36.3759 115.6042 36.4850 0.0000 0.0000 0.0000
# 3 48.3823 36.4850 125.2158 0.0000 0.0000 0.0000
# 4 0.0000 0.0000 0.0000 -20.9073 0.0000 0.0000
# 5 0.0000 0.0000 0.0000 0.0000 19.0893 0.0000
# 6 0.0000 0.0000 0.0000 0.0000 0.0000 1.3851
#
#
#
# Elastic Compliance Matrix: (Units=1/GPa)
#
#
# Indices 1 2 3 4 5 6 
#
# 1 0.013916 -0.002953 -0.004516 0.000000 0.000000 0.000000
# 2 -0.002953 0.010153 -0.001817 0.000000 0.000000 0.000000
# 3 -0.004516 -0.001817 0.010261 0.000000 0.000000 0.000000
# 4 0.000000 0.000000 0.000000 -0.047830 0.000000 0.000000
# 5 0.000000 0.000000 0.000000 0.000000 0.052385 0.000000
# 6 0.000000 0.000000 0.000000 0.000000 0.000000 0.721972
#
#
# Mechanical properties :
#
#
# Convention : Reuss Voigt Hill
#
# Bulk Modulus (GPa) = 63.46897 64.28769 63.87833
# Shear Modulus (GPa) = 6.37200 14.23738 10.30469
#
# Velocity S-wave (km/s) = 1.85403 2.77137 2.35774
# Velocity P-wave (km/s) = 6.23074 6.70233 6.47084
#
# Compressibility (1/GPa) = 0.01575573
#
# Stress axis : x y z
#
# Youngs Moduli (GPa) = 71.86012 98.49284 97.45810
#
# Poissons Ratio (x) = 0.29089 0.44016
# Poissons Ratio (y) = 0.21223 0.17710
# Poissons Ratio (z) = 0.32455 0.17898
#
# Static dielectric constant tensor:
#      x y z
#    x 1.654920 0.000000 0.000000 
#    y 0.000000 1.606300 0.000000 
#    z 0.000000 0.000000 1.629240 
# 
# From -- ./inp_files/21133.got.cif
#   From: 2010.05.17/outbox.cif.g08.bks.cpg/sg65_11_cif.got.tgz:21133.got - 2010.06.03 17:01:31.
