data_PCOD9492273
_publ_section_title
;
Structure prediction by ZEFSAII (Michael W. Deem and Ramdas Pophale) SiO2 
 PCOD9492273
Probable space group: C M M M
;
_chemical_formula_sum "Si O2"
_cell_formula_units_Z 68
_cell_length_a 18.238964
_cell_length_b 10.030462
_cell_length_c 20.327100
_cell_angle_alpha 90.000000
_cell_angle_beta 90.000000
_cell_angle_gamma 90.000000
_cell_volume 3718.746093
_symmetry_space_group_name_H-M "C M M M"
_symmetry_group_IT_number 65
_symmetry_cell_setting 'orthorhombic'
loop_
_space_group_symop_operation_xyz
x,y,z
-x,-y,z
x,-y,-z
-x,y,-z
-x,-y,-z
x,y,-z
-x,y,z
x,-y,z
1/2+x,1/2+y,z
1/2-x,1/2-y,z
1/2+x,1/2-y,-z
1/2-x,1/2+y,-z
1/2-x,1/2-y,-z
1/2+x,1/2+y,-z
1/2-x,1/2+y,z
1/2+x,1/2-y,z
loop_
_atom_site_type_symbol
_atom_site_label
_atom_site_fract_x
_atom_site_fract_y
_atom_site_fract_z
Si Si1 0.586818 0.344314 0.868589
Si Si2 0.586390 0.153366 0.251060
Si Si3 0.642490 0.000000 0.500000
Si Si4 0.179145 0.842093 0.000000
Si Si5 0.163110 0.725015 0.386206
Si Si6 0.416518 0.500000 0.578939
O O1 0.500000 0.324458 0.880828
O O2 0.597560 0.500000 0.851532
O O3 0.608309 0.251557 0.807693
O O4 0.631419 0.315920 0.934720
O O5 0.500000 0.177994 0.266654
O O6 0.634010 0.175358 0.315990
O O7 0.592870 0.000000 0.229542
O O8 0.644009 0.117317 0.442279
O O9 0.250000 0.750000 0.000000
O O10 0.197814 0.000000 0.000000
O O11 0.250000 0.750000 0.386627
O O12 0.124404 0.866399 0.399624
O O13 0.500000 0.500000 0.603942
O O14 0.417988 0.500000 0.500000
#
# Coordination Sequence:
#
# PCOD9492273 Si02
#       6
#    16  16   4   8  16   8
#     4   9  19  38  64  89 120 164 210 253 303 365
#     4  10  22  41  61  89 124 159 204 259 314 374
#     4  12  24  44  63  90 121 162 206 256 324 390
#     4  10  21  37  59  93 129 164 204 254 302 360
#     4  12  25  42  66  91 123 165 210 261 324 390
#     4  11  25  43  62  91 124 156 203 263 316 378
#
# _framework density 18.285733
#
# number of rings (size 3 to 8) (size 9 to 14) (size 15 to 20)
#    0.000    1.529    2.353    2.118    3.294    3.294 
#    0.000    4.706    0.000    3.529    0.000    0.000 
#    0.000    0.000    0.000    0.000    0.000    0.000 
#
# Total GULP energy -189396.657956 kJ/mol
# GULP energy per Si atom -5570.489940 kJ/mol
# Density = 1.824411 g / cm^3
# Si number density = 18.285733 Si / 1000 Ang^3
#
#
#
# Elastic Constant Matrix: (Units=GPa)
#
#
# Indices 1 2 3 4 5 6 
#
# 1 86.1782 72.3360 59.2987 0.0000 0.0000 0.0000
# 2 72.3360 147.4217 96.5344 0.0000 0.0000 0.0000
# 3 59.2987 96.5344 167.5785 0.0000 0.0000 0.0000
# 4 0.0000 0.0000 0.0000 11.6623 0.0000 0.0000
# 5 0.0000 0.0000 0.0000 0.0000 14.2877 0.0000
# 6 0.0000 0.0000 0.0000 0.0000 0.0000 14.9461
#
#
#
# Elastic Compliance Matrix: (Units=1/GPa)
#
#
# Indices 1 2 3 4 5 6 
#
# 1 0.020275 -0.008431 -0.002318 0.000000 0.000000 0.000000
# 2 -0.008431 0.014397 -0.005310 0.000000 0.000000 0.000000
# 3 -0.002318 -0.005310 0.009847 0.000000 0.000000 0.000000
# 4 0.000000 0.000000 0.000000 0.085746 0.000000 0.000000
# 5 0.000000 0.000000 0.000000 0.000000 0.069990 0.000000
# 6 0.000000 0.000000 0.000000 0.000000 0.000000 0.066907
#
#
# Mechanical properties :
#
#
# Convention : Reuss Voigt Hill
#
# Bulk Modulus (GPa) = 80.63764 95.27962 87.95863
# Shear Modulus (GPa) = 16.47908 19.71319 18.09613
#
# Velocity S-wave (km/s) = 3.00525 3.28695 3.14925
# Velocity P-wave (km/s) = 7.49910 8.16238 7.83776
#
# Compressibility (1/GPa) = 0.01240116
#
# Stress axis : x y z
#
# Youngs Moduli (GPa) = 49.32070 69.45715 101.55721
#
# Poissons Ratio (x) = 0.58558 0.23541
# Poissons Ratio (y) = 0.41581 0.53931
# Poissons Ratio (z) = 0.11433 0.36884
#
# Static dielectric constant tensor:
#      x y z
#    x 1.428630 0.000000 0.000000 
#    y 0.000000 1.660750 0.000000 
#    z 0.000000 0.000000 1.594170 
# 
# From -- ./inp_files/55418.got.cif
#   From: 2010.05.17/outbox.cif.g08.bks.cpg/sg65_28_cif.got.tgz:55418.got - 2010.06.03 17:01:31.
