data_PCOD9492629
_publ_section_title
;
Structure prediction by ZEFSAII (Michael W. Deem and Ramdas Pophale) SiO2 
 PCOD9492629
Probable space group: C M M M
;
_chemical_formula_sum "Si O2"
_cell_formula_units_Z 50
_cell_length_a 34.167339
_cell_length_b 10.279719
_cell_length_c 7.550592
_cell_angle_alpha 90.000000
_cell_angle_beta 90.000000
_cell_angle_gamma 90.000000
_cell_volume 2651.999290
_symmetry_space_group_name_H-M "C M M M"
_symmetry_group_IT_number 65
_symmetry_cell_setting 'orthorhombic'
loop_
_space_group_symop_operation_xyz
x,y,z
-x,-y,z
x,-y,-z
-x,y,-z
-x,-y,-z
x,y,-z
-x,y,z
x,-y,z
1/2+x,1/2+y,z
1/2-x,1/2-y,z
1/2+x,1/2-y,-z
1/2-x,1/2+y,-z
1/2-x,1/2-y,-z
1/2+x,1/2+y,-z
1/2-x,1/2+y,z
1/2+x,1/2-y,z
loop_
_atom_site_type_symbol
_atom_site_label
_atom_site_fract_x
_atom_site_fract_y
_atom_site_fract_z
Si Si1 0.000000 0.000000 0.500000
Si Si2 0.500000 0.278529 0.804212
Si Si3 0.785801 0.151335 0.000000
Si Si4 0.919219 0.647102 0.714314
Si Si5 0.851882 0.150583 0.289903
O O1 0.000000 0.113268 0.346290
O O2 0.461230 0.191680 0.782631
O O3 0.500000 0.336489 0.000000
O O4 0.750000 0.250000 0.000000
O O5 0.813647 0.170794 0.170867
O O6 0.772906 0.000000 0.000000
O O7 0.921048 0.649646 0.500000
O O8 0.909831 0.500000 0.769693
O O9 0.885934 0.750526 0.765135
O O10 0.844094 0.167887 0.500000
O O11 0.864650 0.000000 0.264481
#
# Coordination Sequence:
#
# PCOD9492629 Si02
#       5
#     2   8   8  16  16
#     4  12  26  48  58  86 128 160 220 264 312 354
#     4  12  26  40  62  91 120 167 215 258 309 361
#     4  10  22  40  60  89 120 153 191 245 306 365
#     4  10  21  39  62  88 126 167 205 254 310 358
#     4   9  20  38  61  86 118 158 202 248 297 358
#
# _framework density 18.853701000000001
#
# number of rings (size 3 to 8) (size 9 to 14) (size 15 to 20)
#    0.000    1.920    1.600    0.720    4.480    4.480 
#    0.000    0.000    0.000    0.000    0.000    0.000 
#    0.000    0.000    0.000    0.000    0.000    0.000 
#
# Total GULP energy -139382.670676 kJ/mol
# GULP energy per Si atom -5575.306827 kJ/mol
# Density = 1.881079 g / cm^3
# Si number density = 18.853701 Si / 1000 Ang^3
#
#
#
# Elastic Constant Matrix: (Units=GPa)
#
#
# Indices 1 2 3 4 5 6 
#
# 1 145.1009 119.9654 48.3088 0.0000 0.0000 0.0000
# 2 119.9654 170.8131 65.2109 0.0000 0.0000 0.0000
# 3 48.3088 65.2109 101.9748 0.0000 0.0000 0.0000
# 4 0.0000 0.0000 0.0000 -8.5683 0.0000 0.0000
# 5 0.0000 0.0000 0.0000 0.0000 14.9761 0.0000
# 6 0.0000 0.0000 0.0000 0.0000 0.0000 -132.4501
#
#
#
# Elastic Compliance Matrix: (Units=1/GPa)
#
#
# Indices 1 2 3 4 5 6 
#
# 1 0.016457 -0.011353 -0.000536 0.000000 0.000000 0.000000
# 2 -0.011353 0.015578 -0.004583 0.000000 0.000000 0.000000
# 3 -0.000536 -0.004583 0.012991 0.000000 0.000000 0.000000
# 4 0.000000 0.000000 0.000000 -0.116710 0.000000 0.000000
# 5 0.000000 0.000000 0.000000 0.000000 0.066773 0.000000
# 6 0.000000 0.000000 0.000000 0.000000 0.000000 -0.007550
#
#
# Mechanical properties :
#
#
# Convention : Reuss Voigt Hill
#
# Bulk Modulus (GPa) = 82.77634 98.31766 90.54700
# Shear Modulus (GPa) = 203.99200 -12.91488 95.53856
#
# Velocity S-wave (km/s) = 10.41308 -2.62010 7.12626
# Velocity P-wave (km/s) = 13.73230 6.56564 10.76299
#
# Compressibility (1/GPa) = 0.01208075
#
# Stress axis : x y z
#
# Youngs Moduli (GPa) = 60.76520 64.19415 76.97590
#
# Poissons Ratio (x) = 0.72882 0.04125
# Poissons Ratio (y) = 0.68989 0.35280
# Poissons Ratio (z) = 0.03256 0.29422
#
# Static dielectric constant tensor:
#      x y z
#    x 1.603110 0.000000 0.000000 
#    y 0.000000 1.638680 0.000000 
#    z 0.000000 0.000000 1.673060 
# 
# From -- ./inp_files/17582.got.cif
#   From: 2010.05.17/outbox.cif.g08.bks.cpg/sg65_9_cif.got.tgz:17582.got - 2010.06.03 17:01:31.
