data_PCOD9492421
_publ_section_title
;
Structure prediction by ZEFSAII (Michael W. Deem and Ramdas Pophale) SiO2 
 PCOD9492421
Probable space group: C M M M
;
_chemical_formula_sum "Si O2"
_cell_formula_units_Z 96
_cell_length_a 17.849464
_cell_length_b 24.062031
_cell_length_c 10.816576
_cell_angle_alpha 90.000000
_cell_angle_beta 90.000000
_cell_angle_gamma 90.000000
_cell_volume 4645.658344
_symmetry_space_group_name_H-M "C M M M"
_symmetry_group_IT_number 65
_symmetry_cell_setting 'orthorhombic'
loop_
_space_group_symop_operation_xyz
x,y,z
-x,-y,z
x,-y,-z
-x,y,-z
-x,-y,-z
x,y,-z
-x,y,z
x,-y,z
1/2+x,1/2+y,z
1/2-x,1/2-y,z
1/2+x,1/2-y,-z
1/2-x,1/2+y,-z
1/2-x,1/2-y,-z
1/2+x,1/2+y,-z
1/2-x,1/2+y,z
1/2+x,1/2-y,z
loop_
_atom_site_type_symbol
_atom_site_label
_atom_site_fract_x
_atom_site_fract_y
_atom_site_fract_z
Si Si1 0.254946 0.322382 0.632863
Si Si2 0.082086 0.407835 0.855716
Si Si3 0.147983 0.287407 0.140970
Si Si4 0.230912 0.440525 0.724575
Si Si5 0.915868 0.818688 0.735234
Si Si6 0.384054 0.562614 0.144803
O O1 0.225359 0.303203 0.500000
O O2 0.210221 0.299037 0.752426
O O3 0.243264 0.388146 0.639429
O O4 0.344088 0.313613 0.645671
O O5 0.094367 0.341135 0.848784
O O6 0.149640 0.435422 0.783767
O O7 0.000000 0.422516 0.808463
O O8 0.086660 0.422958 0.000000
O O9 0.104645 0.229843 0.166083
O O10 0.178304 0.287942 0.000000
O O11 0.241231 0.500000 0.663402
O O12 0.294621 0.435742 0.830530
O O13 0.913627 0.881651 0.789368
O O14 0.000000 0.808792 0.687006
O O15 0.408371 0.500000 0.186809
O O16 0.400712 0.566441 0.000000
#
# Coordination Sequence:
#
# PCOD9492421 Si02
#       6
#    16  16  16  16  16  16
#     4  10  23  42  62  84 113 151 194 238 285 339
#     4   9  17  29  48  79 118 153 185 230 288 342
#     4  10  21  38  60  85 116 154 195 236 280 336
#     4   9  18  33  54  78 106 145 195 242 283 335
#     4  11  23  36  56  87 118 147 186 237 290 343
#     4   9  18  33  52  76 111 153 192 232 282 340
#
# _framework density 20.664455
#
# number of rings (size 3 to 8) (size 9 to 14) (size 15 to 20)
#    0.000    2.333    0.000    2.000    0.000   11.000 
#    0.000    1.667    0.000   12.000    0.000    9.333 
#    0.000    0.000    0.000    0.000    0.000    0.000 
#
# Total GULP energy -267557.240032 kJ/mol
# GULP energy per Si atom -5574.109167 kJ/mol
# Density = 2.061742 g / cm^3
# Si number density = 20.664455 Si / 1000 Ang^3
#
#
#
# Elastic Constant Matrix: (Units=GPa)
#
#
# Indices 1 2 3 4 5 6 
#
# 1 145.1352 4.7559 34.0780 0.0000 0.0000 0.0000
# 2 4.7559 137.4447 15.8661 0.0000 0.0000 0.0000
# 3 34.0780 15.8661 92.0823 0.0000 0.0000 0.0000
# 4 0.0000 0.0000 0.0000 14.8957 0.0000 0.0000
# 5 0.0000 0.0000 0.0000 0.0000 5.1904 0.0000
# 6 0.0000 0.0000 0.0000 0.0000 0.0000 9.1477
#
#
#
# Elastic Compliance Matrix: (Units=1/GPa)
#
#
# Indices 1 2 3 4 5 6 
#
# 1 0.007546 0.000063 -0.002804 0.000000 0.000000 0.000000
# 2 0.000063 0.007424 -0.001302 0.000000 0.000000 0.000000
# 3 -0.002804 -0.001302 0.012122 0.000000 0.000000 0.000000
# 4 0.000000 0.000000 0.000000 0.067134 0.000000 0.000000
# 5 0.000000 0.000000 0.000000 0.000000 0.192665 0.000000
# 6 0.000000 0.000000 0.000000 0.000000 0.000000 0.109317
#
#
# Mechanical properties :
#
#
# Convention : Reuss Voigt Hill
#
# Bulk Modulus (GPa) = 52.61684 53.78469 53.20077
# Shear Modulus (GPa) = 12.17643 27.17755 19.67699
#
# Velocity S-wave (km/s) = 2.43007 3.63048 3.08914
# Velocity P-wave (km/s) = 5.77853 6.60742 6.20683
#
# Compressibility (1/GPa) = 0.01900532
#
# Stress axis : x y z
#
# Youngs Moduli (GPa) = 132.51424 134.70150 82.49613
#
# Poissons Ratio (x) = -0.00842 0.23128
# Poissons Ratio (y) = -0.00828 0.10743
# Poissons Ratio (z) = 0.37151 0.17542
#
# Static dielectric constant tensor:
#      x y z
#    x 1.732550 0.000000 0.000000 
#    y 0.000000 1.789610 0.000000 
#    z 0.000000 0.000000 1.712720 
# 
# From -- ./inp_files/27103.got.cif
#   From: 2010.05.17/outbox.cif.g08.bks.cpg/sg65_14_cif.got.tgz:27103.got - 2010.06.03 17:01:31.
