data_PCOD9492440
_publ_section_title
;
Structure prediction by ZEFSAII (Michael W. Deem and Ramdas Pophale) SiO2 
 PCOD9492440
Probable space group: C M M M
;
_chemical_formula_sum "Si O2"
_cell_formula_units_Z 88
_cell_length_a 21.771225
_cell_length_b 8.723435
_cell_length_c 25.633150
_cell_angle_alpha 90.000000
_cell_angle_beta 90.000000
_cell_angle_gamma 90.000000
_cell_volume 4868.244417
_symmetry_space_group_name_H-M "C M M M"
_symmetry_group_IT_number 65
_symmetry_cell_setting 'orthorhombic'
loop_
_space_group_symop_operation_xyz
x,y,z
-x,-y,z
x,-y,-z
-x,y,-z
-x,-y,-z
x,y,-z
-x,y,z
x,-y,z
1/2+x,1/2+y,z
1/2-x,1/2-y,z
1/2+x,1/2-y,-z
1/2-x,1/2+y,-z
1/2-x,1/2-y,-z
1/2+x,1/2+y,-z
1/2-x,1/2+y,z
1/2+x,1/2-y,z
loop_
_atom_site_type_symbol
_atom_site_label
_atom_site_fract_x
_atom_site_fract_y
_atom_site_fract_z
Si Si1 0.129135 0.184057 0.894402
Si Si2 0.928233 0.182538 0.281002
Si Si3 0.316955 0.816501 0.000000
Si Si4 0.000000 0.185220 0.938320
Si Si5 0.817659 0.682989 0.211428
Si Si6 0.074145 0.673641 0.391913
Si Si7 0.574984 0.677581 0.500000
O O1 0.154593 0.245295 0.948532
O O2 0.058014 0.226215 0.902688
O O3 0.163913 0.261000 0.846492
O O4 0.134919 0.000000 0.889918
O O5 0.874754 0.259229 0.246815
O O6 0.914021 0.223938 0.341221
O O7 0.000000 0.231735 0.270573
O O8 0.926257 0.000000 0.272947
O O9 0.250000 0.750000 0.000000
O O10 0.320313 0.000000 0.000000
O O11 0.000000 0.000000 0.943317
O O12 0.000000 0.240952 0.000000
O O13 0.814149 0.500000 0.213554
O O14 0.750000 0.750000 0.225104
O O15 0.096397 0.500000 0.383795
O O16 0.096249 0.741522 0.446843
O O17 0.000000 0.667396 0.396020
O O18 0.592522 0.500000 0.500000
O O19 0.500000 0.682954 0.500000
#
# Coordination Sequence:
#
# PCOD9492440 Si02
#       7
#    16  16   8   8  16  16   8
#     4  11  22  40  63  87 115 149 187 231 281 341
#     4  10  21  38  60  86 117 155 196 240 294 353
#     4  12  24  39  58  83 111 146 184 230 283 339
#     4   9  18  36  62  90 116 148 182 217 272 339
#     4  12  26  44  63  87 117 152 196 245 294 347
#     4   9  16  27  45  73 110 150 192 240 291 343
#     4   9  15  23  39  67 106 151 194 237 288 347
#
# _framework density 18.076332000000001
#
# number of rings (size 3 to 8) (size 9 to 14) (size 15 to 20)
#    0.000    1.636    0.909    4.909    1.273    4.364 
#    0.000    1.818    0.000    0.000    0.000    0.636 
#    0.000    0.000    0.000    0.000    0.000    0.000 
#
# Total GULP energy -245344.688657 kJ/mol
# GULP energy per Si atom -5576.015651 kJ/mol
# Density = 1.803519 g / cm^3
# Si number density = 18.076332 Si / 1000 Ang^3
#
#
#
# Elastic Constant Matrix: (Units=GPa)
#
#
# Indices 1 2 3 4 5 6 
#
# 1 118.8366 51.7870 52.4022 0.0000 0.0000 0.0000
# 2 51.7870 107.7761 41.0667 0.0000 0.0000 0.0000
# 3 52.4022 41.0667 112.3020 0.0000 0.0000 0.0000
# 4 0.0000 0.0000 0.0000 37.6662 0.0000 0.0000
# 5 0.0000 0.0000 0.0000 0.0000 -17.2387 0.0000
# 6 0.0000 0.0000 0.0000 0.0000 0.0000 20.3529
#
#
#
# Elastic Compliance Matrix: (Units=1/GPa)
#
#
# Indices 1 2 3 4 5 6 
#
# 1 0.012061 -0.004242 -0.004077 0.000000 0.000000 0.000000
# 2 -0.004242 0.012273 -0.002508 0.000000 0.000000 0.000000
# 3 -0.004077 -0.002508 0.011724 0.000000 0.000000 0.000000
# 4 0.000000 0.000000 0.000000 0.026549 0.000000 0.000000
# 5 0.000000 0.000000 0.000000 0.000000 -0.058009 0.000000
# 6 0.000000 0.000000 0.000000 0.000000 0.000000 0.049133
#
#
# Mechanical properties :
#
#
# Convention : Reuss Voigt Hill
#
# Bulk Modulus (GPa) = 69.42773 69.93629 69.68201
# Shear Modulus (GPa) = 62.35456 21.06667 41.71061
#
# Velocity S-wave (km/s) = 5.87963 3.41754 4.80883
# Velocity P-wave (km/s) = 9.19700 7.37199 8.33460
#
# Compressibility (1/GPa) = 0.01440347
#
# Stress axis : x y z
#
# Youngs Moduli (GPa) = 82.91023 81.48195 85.29412
#
# Poissons Ratio (x) = 0.34565 0.34772
# Poissons Ratio (y) = 0.35171 0.21395
# Poissons Ratio (z) = 0.33800 0.20439
#
# Static dielectric constant tensor:
#      x y z
#    x 0.039580 0.000000 0.000000 
#    y 0.000000 1.618200 0.000000 
#    z 0.000000 0.000000 1.595690 
# 
# From -- ./inp_files/71058.got.cif
#   From: 2010.05.17/outbox.cif.g08.bks.cpg/sg65_36_cif.got.tgz:71058.got - 2010.06.03 17:01:31.
