data_PCOD9492612
_publ_section_title
;
Structure prediction by ZEFSAII (Michael W. Deem and Ramdas Pophale) SiO2 
 PCOD9492612
Probable space group: C M M M
;
_chemical_formula_sum "Si O2"
_cell_formula_units_Z 58
_cell_length_a 16.886443
_cell_length_b 19.943426
_cell_length_c 8.467391
_cell_angle_alpha 90.000000
_cell_angle_beta 90.000000
_cell_angle_gamma 90.000000
_cell_volume 2851.593126
_symmetry_space_group_name_H-M "C M M M"
_symmetry_group_IT_number 65
_symmetry_cell_setting 'orthorhombic'
loop_
_space_group_symop_operation_xyz
x,y,z
-x,-y,z
x,-y,-z
-x,y,-z
-x,-y,-z
x,y,-z
-x,y,z
x,-y,z
1/2+x,1/2+y,z
1/2-x,1/2-y,z
1/2+x,1/2-y,-z
1/2-x,1/2+y,-z
1/2-x,1/2-y,-z
1/2+x,1/2+y,-z
1/2-x,1/2+y,z
1/2+x,1/2-y,z
loop_
_atom_site_type_symbol
_atom_site_label
_atom_site_fract_x
_atom_site_fract_y
_atom_site_fract_z
Si Si1 0.909016 0.685485 0.309801
Si Si2 0.836668 0.182330 0.814980
Si Si3 0.708280 0.923379 0.309482
Si Si4 0.000000 0.864327 0.322817
Si Si5 0.000000 0.000000 0.500000
O O1 0.909629 0.687551 0.500000
O O2 0.847139 0.742332 0.252632
O O3 0.873467 0.613351 0.262065
O O4 0.000000 0.696256 0.254744
O O5 0.776364 0.128680 0.741213
O O6 0.922967 0.153971 0.773211
O O7 0.821362 0.186705 0.000000
O O8 0.710554 0.926538 0.500000
O O9 0.717415 0.000000 0.251016
O O10 0.000000 0.830253 0.500000
O O11 0.000000 0.941577 0.365937
#
# Coordination Sequence:
#
# PCOD9492612 Si02
#       5
#    16  16  16   8   2
#     4  10  21  40  66  93 120 160 209 258 309 363
#     4  12  24  38  60  92 126 161 204 253 307 366
#     4  10  23  41  63  90 124 164 207 256 309 366
#     4  10  21  39  61  87 118 159 205 247 306 362
#     4   8  24  36  62  88 116 168 198 256 308 364
#
# _framework density 20.339506
#
# number of rings (size 3 to 8) (size 9 to 14) (size 15 to 20)
#    0.414    1.103    1.379    3.724    1.931    5.517 
#    0.000    3.448    0.000    0.000    0.000    3.862 
#    0.000    0.000    0.000    0.000    0.000    0.000 
#
# Total GULP energy -161490.761732 kJ/mol
# GULP energy per Si atom -5568.646956 kJ/mol
# Density = 2.029321 g / cm^3
# Si number density = 20.339506 Si / 1000 Ang^3
#
#
#
# Elastic Constant Matrix: (Units=GPa)
#
#
# Indices 1 2 3 4 5 6 
#
# 1 98.9591 74.4073 9.5801 0.0000 0.0000 0.0000
# 2 74.4073 185.3045 22.5406 0.0000 0.0000 0.0000
# 3 9.5801 22.5406 25.6008 0.0000 0.0000 0.0000
# 4 0.0000 0.0000 0.0000 -37.4108 0.0000 0.0000
# 5 0.0000 0.0000 0.0000 0.0000 -32.5068 0.0000
# 6 0.0000 0.0000 0.0000 0.0000 0.0000 27.9975
#
#
#
# Elastic Compliance Matrix: (Units=1/GPa)
#
#
# Indices 1 2 3 4 5 6 
#
# 1 0.014478 -0.005773 -0.000335 0.000000 0.000000 0.000000
# 2 -0.005773 0.008346 -0.005188 0.000000 0.000000 0.000000
# 3 -0.000335 -0.005188 0.043754 0.000000 0.000000 0.000000
# 4 0.000000 0.000000 0.000000 -0.026730 0.000000 0.000000
# 5 0.000000 0.000000 0.000000 0.000000 -0.030763 0.000000
# 6 0.000000 0.000000 0.000000 0.000000 0.000000 0.035717
#
#
# Mechanical properties :
#
#
# Convention : Reuss Voigt Hill
#
# Bulk Modulus (GPa) = 22.73414 58.10226 40.41820
# Shear Modulus (GPa) = 60.93386 5.17174 33.05280
#
# Velocity S-wave (km/s) = 5.47936 1.59632 4.03557
# Velocity P-wave (km/s) = 7.15771 5.65914 6.45208
#
# Compressibility (1/GPa) = 0.04398672
#
# Stress axis : x y z
#
# Youngs Moduli (GPa) = 69.06929 119.82384 22.85488
#
# Poissons Ratio (x) = 0.69172 0.00766
# Poissons Ratio (y) = 0.39872 0.11857
# Poissons Ratio (z) = 0.02315 0.62162
#
# Static dielectric constant tensor:
#      x y z
#    x 1.730350 0.000000 0.000000 
#    y 0.000000 1.751820 0.000000 
#    z 0.000000 0.000000 1.693850 
# 
# From -- ./inp_files/8544.got.cif
#   From: 2010.05.17/outbox.cif.g08.bks.cpg/sg65_5_cif.got.tgz:8544.got - 2010.06.03 17:01:31.
