data_PCOD9492561
_publ_section_title
;
Structure prediction by ZEFSAII (Michael W. Deem and Ramdas Pophale) SiO2 
 PCOD9492561
Probable space group: C M M M
;
_chemical_formula_sum "Si O2"
_cell_formula_units_Z 64
_cell_length_a 20.840547
_cell_length_b 7.819552
_cell_length_c 19.773041
_cell_angle_alpha 90.000000
_cell_angle_beta 90.000000
_cell_angle_gamma 90.000000
_cell_volume 3222.288732
_symmetry_space_group_name_H-M "C M M M"
_symmetry_group_IT_number 65
_symmetry_cell_setting 'orthorhombic'
loop_
_space_group_symop_operation_xyz
x,y,z
-x,-y,z
x,-y,-z
-x,y,-z
-x,-y,-z
x,y,-z
-x,y,z
x,-y,z
1/2+x,1/2+y,z
1/2-x,1/2-y,z
1/2+x,1/2-y,-z
1/2-x,1/2+y,-z
1/2-x,1/2-y,-z
1/2+x,1/2+y,-z
1/2-x,1/2+y,z
1/2+x,1/2-y,z
loop_
_atom_site_type_symbol
_atom_site_label
_atom_site_fract_x
_atom_site_fract_y
_atom_site_fract_z
Si Si1 0.925107 0.304325 0.823205
Si Si2 0.422419 0.500000 0.923414
Si Si3 0.180508 0.205216 0.717197
Si Si4 0.000000 0.308031 0.581341
Si Si5 0.358191 0.700126 0.575696
O O1 0.921301 0.500000 0.847225
O O2 0.905434 0.167976 0.880330
O O3 0.877717 0.279704 0.760388
O O4 0.000000 0.270812 0.804670
O O5 0.500000 0.500000 0.927427
O O6 0.397412 0.500000 0.000000
O O7 0.250000 0.250000 0.746593
O O8 0.178024 0.274868 0.640074
O O9 0.172967 0.000000 0.715692
O O10 0.066664 0.215879 0.595774
O O11 0.000000 0.500000 0.610274
O O12 0.000000 0.321480 0.500000
O O13 0.348661 0.774936 0.500000
O O14 0.342215 0.500000 0.570804
#
# Coordination Sequence:
#
# PCOD9492561 Si02
#       5
#    16   8  16   8  16
#     4  10  21  38  62  93 126 162 202 245 295 355
#     4   9  18  36  64  98 131 159 194 242 294 349
#     4  11  23  38  57  82 115 159 204 251 308 361
#     4   9  17  29  47  73 103 135 175 236 301 350
#     4   9  19  35  53  74 105 147 195 247 304 363
#
# _framework density 19.861657999999998
#
# number of rings (size 3 to 8) (size 9 to 14) (size 15 to 20)
#    0.000    2.250    1.250    1.125    1.750    4.500 
#    0.000    2.500    0.000    0.750    0.000    0.000 
#    0.000    0.000    0.000    0.000    0.000    0.000 
#
# Total GULP energy -178469.246844 kJ/mol
# GULP energy per Si atom -5577.163964 kJ/mol
# Density = 1.981645 g / cm^3
# Si number density = 19.861658 Si / 1000 Ang^3
#
#
#
# Elastic Constant Matrix: (Units=GPa)
#
#
# Indices 1 2 3 4 5 6 
#
# 1 79.7263 17.1190 47.7966 0.0000 0.0000 0.0000
# 2 17.1190 91.3848 43.7033 0.0000 0.0000 0.0000
# 3 47.7966 43.7033 124.1765 0.0000 0.0000 0.0000
# 4 0.0000 0.0000 0.0000 1.8197 0.0000 0.0000
# 5 0.0000 0.0000 0.0000 0.0000-1870.3957 0.0000
# 6 0.0000 0.0000 0.0000 0.0000 0.0000 14.5788
#
#
#
# Elastic Compliance Matrix: (Units=1/GPa)
#
#
# Indices 1 2 3 4 5 6 
#
# 1 0.016306 -0.000064 -0.006254 0.000000 0.000000 0.000000
# 2 -0.000064 0.013158 -0.004606 0.000000 0.000000 0.000000
# 3 -0.006254 -0.004606 0.012081 0.000000 0.000000 0.000000
# 4 0.000000 0.000000 0.000000 0.549531 0.000000 0.000000
# 5 0.000000 0.000000 0.000000 0.000000 -0.000535 0.000000
# 6 0.000000 0.000000 0.000000 0.000000 0.000000 0.068593
#
#
# Mechanical properties :
#
#
# Convention : Reuss Voigt Hill
#
# Bulk Modulus (GPa) = 50.76878 56.94727 53.85803
# Shear Modulus (GPa) = 7.27223 -358.35486 -175.54132
#
# Velocity S-wave (km/s) = 1.91556 -13.44683 -9.41137
# Velocity P-wave (km/s) = 5.52351 14.57242 9.53536
#
# Compressibility (1/GPa) = 0.01969714
#
# Stress axis : x y z
#
# Youngs Moduli (GPa) = 61.32784 76.00219 82.77239
#
# Poissons Ratio (x) = 0.00485 0.51764
# Poissons Ratio (y) = 0.00391 0.38126
# Poissons Ratio (z) = 0.38353 0.35008
#
# Static dielectric constant tensor:
#      x y z
#    x 1.695250 0.000000 0.000000 
#    y 0.000000 1.723980 0.000000 
#    z 0.000000 0.000000 1.713340 
# 
# From -- ./inp_files/55323.got.cif
#   From: 2010.05.17/outbox.cif.g08.bks.cpg/sg65_28_cif.got.tgz:55323.got - 2010.06.03 17:01:31.
