data_PCOD9492368
_publ_section_title
;
Structure prediction by ZEFSAII (Michael W. Deem and Ramdas Pophale) SiO2 
 PCOD9492368
Probable space group: C M M M
;
_chemical_formula_sum "Si O2"
_cell_formula_units_Z 72
_cell_length_a 15.776669
_cell_length_b 8.750822
_cell_length_c 28.641735
_cell_angle_alpha 90.000000
_cell_angle_beta 90.000000
_cell_angle_gamma 90.000000
_cell_volume 3954.244199
_symmetry_space_group_name_H-M "C M M M"
_symmetry_group_IT_number 65
_symmetry_cell_setting 'orthorhombic'
loop_
_space_group_symop_operation_xyz
x,y,z
-x,-y,z
x,-y,-z
-x,y,-z
-x,-y,-z
x,y,-z
-x,y,z
x,-y,z
1/2+x,1/2+y,z
1/2-x,1/2-y,z
1/2+x,1/2-y,-z
1/2-x,1/2+y,-z
1/2-x,1/2-y,-z
1/2+x,1/2+y,-z
1/2-x,1/2+y,z
1/2+x,1/2-y,z
loop_
_atom_site_type_symbol
_atom_site_label
_atom_site_fract_x
_atom_site_fract_y
_atom_site_fract_z
Si Si1 0.500000 0.313663 0.384056
Si Si2 0.341620 0.817293 0.110165
Si Si3 0.158361 0.815673 0.446012
Si Si4 0.158228 0.682909 0.780016
Si Si5 0.000000 0.183779 0.723982
Si Si6 0.000000 0.183096 0.945447
O O1 0.500000 0.500000 0.385027
O O2 0.583662 0.263558 0.411939
O O3 0.500000 0.267428 0.330194
O O4 0.250000 0.750000 0.096981
O O5 0.355785 0.780765 0.165059
O O6 0.416952 0.748341 0.079835
O O7 0.340307 0.000000 0.105445
O O8 0.140332 0.772503 0.500000
O O9 0.250000 0.750000 0.433248
O O10 0.162125 0.000000 0.444342
O O11 0.159034 0.500000 0.775179
O O12 0.250000 0.750000 0.766910
O O13 0.083066 0.753382 0.749821
O O14 0.000000 0.000000 0.725939
O O15 0.000000 0.000000 0.941758
O O16 0.000000 0.225258 0.000000
#
# Coordination Sequence:
#
# PCOD9492368 Si02
#       6
#     8  16  16  16   8   8
#     4   9  19  34  51  74 104 139 176 210 255 318
#     4  10  21  38  61  85 109 141 182 228 273 319
#     4   9  17  32  54  76  99 131 172 217 262 309
#     4  10  21  38  59  83 109 140 182 227 271 320
#     4  11  22  35  53  79 112 147 180 219 269 323
#     4  11  24  39  56  82 116 151 184 220 266 321
#
# _framework density 18.208285
#
# number of rings (size 3 to 8) (size 9 to 14) (size 15 to 20)
#    0.000    2.111    0.000    3.000    0.000    8.889 
#    0.000    5.000    0.000    2.667    0.000    0.000 
#    0.000    0.000    0.000    0.000    0.000    0.000 
#
# Total GULP energy -201080.318751 kJ/mol
# GULP energy per Si atom -5585.564410 kJ/mol
# Density = 1.816684 g / cm^3
# Si number density = 18.208285 Si / 1000 Ang^3
#
#
#
# Elastic Constant Matrix: (Units=GPa)
#
#
# Indices 1 2 3 4 5 6 
#
# 1 218.3670 61.7550 140.7132 0.0000 0.0000 0.0000
# 2 61.7550 40.2697 53.3508 0.0000 0.0000 0.0000
# 3 140.7132 53.3508 128.6194 0.0000 0.0000 0.0000
# 4 0.0000 0.0000 0.0000 22.2797 0.0000 0.0000
# 5 0.0000 0.0000 0.0000 0.0000 -25.3576 0.0000
# 6 0.0000 0.0000 0.0000 0.0000 0.0000 40.0230
#
#
#
# Elastic Compliance Matrix: (Units=1/GPa)
#
#
# Indices 1 2 3 4 5 6 
#
# 1 0.015676 -0.002928 -0.015936 0.000000 0.000000 0.000000
# 2 -0.002928 0.055673 -0.019890 0.000000 0.000000 0.000000
# 3 -0.015936 -0.019890 0.033460 0.000000 0.000000 0.000000
# 4 0.000000 0.000000 0.000000 0.044884 0.000000 0.000000
# 5 0.000000 0.000000 0.000000 0.000000 -0.039436 0.000000
# 6 0.000000 0.000000 0.000000 0.000000 0.000000 0.024986
#
#
# Mechanical properties :
#
#
# Convention : Reuss Voigt Hill
#
# Bulk Modulus (GPa) = 36.62755 99.87712 68.25234
# Shear Modulus (GPa) = 22.53758 16.15150 19.34454
#
# Velocity S-wave (km/s) = 3.52201 2.98155 3.26299
# Velocity P-wave (km/s) = 6.05796 8.17463 7.19456
#
# Compressibility (1/GPa) = 0.02730185
#
# Stress axis : x y z
#
# Youngs Moduli (GPa) = 63.79007 17.96187 29.88669
#
# Poissons Ratio (x) = 0.05259 0.47628
# Poissons Ratio (y) = 0.18676 0.59445
# Poissons Ratio (z) = 1.01656 0.35726
#
# Static dielectric constant tensor:
#      x y z
#    x 1.587540 0.000000 0.000000 
#    y 0.000000 1.613230 0.000000 
#    z 0.000000 0.000000 1.612150 
# 
# From -- ./inp_files/74657.got.cif
#   From: 2010.05.17/outbox.cif.g08.bks.cpg/sg65_38_cif.got.tgz:74657.got - 2010.06.03 17:01:31.
