data_PCOD9492887
_publ_section_title
;
Structure prediction by ZEFSAII (Michael W. Deem and Ramdas Pophale) SiO2 
 PCOD9492887
Probable space group: C M M M
;
_chemical_formula_sum "Si O2"
_cell_formula_units_Z 56
_cell_length_a 29.292782
_cell_length_b 8.856595
_cell_length_c 10.885501
_cell_angle_alpha 90.000000
_cell_angle_beta 90.000000
_cell_angle_gamma 90.000000
_cell_volume 2824.072404
_symmetry_space_group_name_H-M "C M M M"
_symmetry_group_IT_number 65
_symmetry_cell_setting 'orthorhombic'
loop_
_space_group_symop_operation_xyz
x,y,z
-x,-y,z
x,-y,-z
-x,y,-z
-x,-y,-z
x,y,-z
-x,y,z
x,-y,z
1/2+x,1/2+y,z
1/2-x,1/2-y,z
1/2+x,1/2-y,-z
1/2-x,1/2+y,-z
1/2-x,1/2-y,-z
1/2+x,1/2+y,-z
1/2-x,1/2+y,z
1/2+x,1/2-y,z
loop_
_atom_site_type_symbol
_atom_site_label
_atom_site_fract_x
_atom_site_fract_y
_atom_site_fract_z
Si Si1 0.145144 0.817838 0.135103
Si Si2 0.551657 0.318744 0.757479
Si Si3 0.300728 0.819049 0.363101
Si Si4 0.555362 0.829978 0.500000
O O1 0.091470 0.779181 0.148361
O O2 0.170932 0.745302 0.249550
O O3 0.149237 0.000000 0.143508
O O4 0.161994 0.771007 0.000000
O O5 0.500000 0.265479 0.785625
O O6 0.549879 0.500000 0.749537
O O7 0.566614 0.255198 0.625124
O O8 0.319438 0.780380 0.500000
O O9 0.250000 0.750000 0.356826
O O10 0.298392 0.000000 0.354828
O O11 0.500000 0.837650 0.500000
O O12 0.573890 0.000000 0.500000
#
# Coordination Sequence:
#
# PCOD9492887 Si02
#       4
#    16  16  16   8
#     4  10  22  38  57  85 119 156 196 237 286 341
#     4   9  18  33  53  78 111 152 196 239 283 332
#     4  10  22  41  65  91 116 146 187 235 289 347
#     4   9  17  29  47  73 104 139 184 237 287 333
#
# _framework density 19.829521
#
# number of rings (size 3 to 8) (size 9 to 14) (size 15 to 20)
#    0.000    2.429    0.000    1.286    2.000    6.286 
#    0.000    2.857    0.000    0.000    0.000    6.000 
#    0.000    0.000    0.000    0.000    0.000    0.000 
#
# Total GULP energy -156232.156821 kJ/mol
# GULP energy per Si atom -5579.719886 kJ/mol
# Density = 1.978439 g / cm^3
# Si number density = 19.829521 Si / 1000 Ang^3
#
#
#
# Elastic Constant Matrix: (Units=GPa)
#
#
# Indices 1 2 3 4 5 6 
#
# 1 77.6665 29.9021 74.0290 0.0000 0.0000 0.0000
# 2 29.9021 25.7759 48.4972 0.0000 0.0000 0.0000
# 3 74.0290 48.4972 179.2215 0.0000 0.0000 0.0000
# 4 0.0000 0.0000 0.0000 22.0735 0.0000 0.0000
# 5 0.0000 0.0000 0.0000 0.0000 10.4362 0.0000
# 6 0.0000 0.0000 0.0000 0.0000 0.0000 20.8923
#
#
#
# Elastic Compliance Matrix: (Units=1/GPa)
#
#
# Indices 1 2 3 4 5 6 
#
# 1 0.025388 -0.019804 -0.005128 0.000000 0.000000 0.000000
# 2 -0.019804 0.094483 -0.017387 0.000000 0.000000 0.000000
# 3 -0.005128 -0.017387 0.012403 0.000000 0.000000 0.000000
# 4 0.000000 0.000000 0.000000 0.045303 0.000000 0.000000
# 5 0.000000 0.000000 0.000000 0.000000 0.095820 0.000000
# 6 0.000000 0.000000 0.000000 0.000000 0.000000 0.047864
#
#
# Mechanical properties :
#
#
# Convention : Reuss Voigt Hill
#
# Bulk Modulus (GPa) = 20.99232 65.28003 43.13618
# Shear Modulus (GPa) = 11.85459 19.36280 15.60870
#
# Velocity S-wave (km/s) = 2.44770 3.12823 2.80865
# Velocity P-wave (km/s) = 4.31250 6.78527 5.68496
#
# Compressibility (1/GPa) = 0.04763647
#
# Stress axis : x y z
#
# Youngs Moduli (GPa) = 39.38898 10.58386 80.62846
#
# Poissons Ratio (x) = 0.20960 0.41343
# Poissons Ratio (y) = 0.78007 1.40187
# Poissons Ratio (z) = 0.20197 0.18402
#
# Static dielectric constant tensor:
#      x y z
#    x 1.729020 0.000000 0.000000 
#    y 0.000000 1.672380 0.000000 
#    z 0.000000 0.000000 1.685560 
# 
# From -- ./inp_files/33114.got.cif
#   From: 2010.05.17/outbox.cif.g08.bks.cpg/sg65_17_cif.got.tgz:33114.got - 2010.06.03 17:01:31.
