data_PCOD9492503
_publ_section_title
;
Structure prediction by ZEFSAII (Michael W. Deem and Ramdas Pophale) SiO2 
 PCOD9492503
Probable space group: C M M M
;
_chemical_formula_sum "Si O2"
_cell_formula_units_Z 64
_cell_length_a 7.690485
_cell_length_b 15.348727
_cell_length_c 24.388965
_cell_angle_alpha 90.000000
_cell_angle_beta 90.000000
_cell_angle_gamma 90.000000
_cell_volume 2878.852814
_symmetry_space_group_name_H-M "C M M M"
_symmetry_group_IT_number 65
_symmetry_cell_setting 'orthorhombic'
loop_
_space_group_symop_operation_xyz
x,y,z
-x,-y,z
x,-y,-z
-x,y,-z
-x,-y,-z
x,y,-z
-x,y,z
x,-y,z
1/2+x,1/2+y,z
1/2-x,1/2-y,z
1/2+x,1/2-y,-z
1/2-x,1/2+y,-z
1/2-x,1/2-y,-z
1/2+x,1/2+y,-z
1/2-x,1/2+y,z
1/2+x,1/2-y,z
loop_
_atom_site_type_symbol
_atom_site_label
_atom_site_fract_x
_atom_site_fract_y
_atom_site_fract_z
Si Si1 0.294295 0.148349 0.146204
Si Si2 0.300180 0.895587 0.383290
Si Si3 0.786550 0.397484 0.500000
Si Si4 0.294827 0.500000 0.061220
Si Si5 0.708828 0.148142 0.264592
O O1 0.500000 0.145376 0.152082
O O2 0.250000 0.250000 0.137121
O O3 0.248832 0.085211 0.096685
O O4 0.223567 0.115312 0.205556
O O5 0.500000 0.862501 0.380783
O O6 0.224932 0.861504 0.441119
O O7 0.218694 0.879499 0.323779
O O8 0.308176 0.000000 0.388692
O O9 0.738870 0.500000 0.500000
O O10 0.000000 0.393859 0.500000
O O11 0.500000 0.500000 0.055524
O O12 0.216661 0.500000 0.000000
O O13 0.500000 0.130356 0.266501
O O14 0.750000 0.250000 0.261459
#
# Coordination Sequence:
#
# PCOD9492503 Si02
#       5
#    16  16   8   8  16
#     4  10  21  38  61  87 118 155 192 233 283 334
#     4   8  13  22  40  64  91 124 166 213 258 305
#     4   7  10  18  33  58  89 121 160 209 258 302
#     4  11  25  43  63  89 119 150 187 230 276 333
#     4   9  18  31  49  72 101 134 169 214 263 315
#
# _framework density 22.231079000000001
#
# number of rings (size 3 to 8) (size 9 to 14) (size 15 to 20)
#    0.000    3.000    0.000    2.625    1.750    2.500 
#    0.000    0.625    0.000    0.000    0.000    0.000 
#    0.000    3.000    0.000    0.000    0.000    0.000 
#
# Total GULP energy -178160.452612 kJ/mol
# GULP energy per Si atom -5567.514144 kJ/mol
# Density = 2.218048 g / cm^3
# Si number density = 22.231079 Si / 1000 Ang^3
#
#
#
# Elastic Constant Matrix: (Units=GPa)
#
#
# Indices 1 2 3 4 5 6 
#
# 1 46.1925 -1.5077 17.4438 0.0000 0.0000 0.0000
# 2 -1.5077 62.5707 76.6059 0.0000 0.0000 0.0000
# 3 17.4438 76.6059 300.3414 0.0000 0.0000 0.0000
# 4 0.0000 0.0000 0.0000 57.0297 0.0000 0.0000
# 5 0.0000 0.0000 0.0000 0.0000 -60.8146 0.0000
# 6 0.0000 0.0000 0.0000 0.0000 0.0000 17.3659
#
#
#
# Elastic Compliance Matrix: (Units=1/GPa)
#
#
# Indices 1 2 3 4 5 6 
#
# 1 0.022546 0.003121 -0.002106 0.000000 0.000000 0.000000
# 2 0.003121 0.023671 -0.006219 0.000000 0.000000 0.000000
# 3 -0.002106 -0.006219 0.005038 0.000000 0.000000 0.000000
# 4 0.000000 0.000000 0.000000 0.017535 0.000000 0.000000
# 5 0.000000 0.000000 0.000000 0.000000 -0.016443 0.000000
# 6 0.000000 0.000000 0.000000 0.000000 0.000000 0.057584
#
#
# Mechanical properties :
#
#
# Convention : Reuss Voigt Hill
#
# Bulk Modulus (GPa) = 24.48108 66.02095 45.25102
# Shear Modulus (GPa) = 37.32670 23.82038 30.57354
#
# Velocity S-wave (km/s) = 4.10205 3.27691 3.71247
# Velocity P-wave (km/s) = 5.78547 6.63925 6.22701
#
# Compressibility (1/GPa) = 0.04084786
#
# Stress axis : x y z
#
# Youngs Moduli (GPa) = 44.35471 42.24595 198.49051
#
# Poissons Ratio (x) = -0.13185 0.41792
# Poissons Ratio (y) = -0.13843 1.23438
# Poissons Ratio (z) = 0.09339 0.26272
#
# Static dielectric constant tensor:
#      x y z
#    x 1.853050 0.000000 0.000000 
#    y 0.000000 1.775350 0.000000 
#    z 0.000000 0.000000 1.972100 
# 
# From -- ./inp_files/58855.got.cif
#   From: 2010.05.17/outbox.cif.g08.bks.cpg/sg65_30_cif.got.tgz:58855.got - 2010.06.03 17:01:31.
