data_PCOD9492235
_publ_section_title
;
Structure prediction by ZEFSAII (Michael W. Deem and Ramdas Pophale) SiO2 
 PCOD9492235
Probable space group: C M M M
;
_chemical_formula_sum "Si O2"
_cell_formula_units_Z 116
_cell_length_a 24.594484
_cell_length_b 27.388268
_cell_length_c 9.274564
_cell_angle_alpha 90.000000
_cell_angle_beta 90.000000
_cell_angle_gamma 90.000000
_cell_volume 6247.349270
_symmetry_space_group_name_H-M "C M M M"
_symmetry_group_IT_number 65
_symmetry_cell_setting 'orthorhombic'
loop_
_space_group_symop_operation_xyz
x,y,z
-x,-y,z
x,-y,-z
-x,y,-z
-x,-y,-z
x,y,-z
-x,y,z
x,-y,z
1/2+x,1/2+y,z
1/2-x,1/2-y,z
1/2+x,1/2-y,-z
1/2-x,1/2+y,-z
1/2-x,1/2-y,-z
1/2+x,1/2+y,-z
1/2-x,1/2+y,z
1/2+x,1/2-y,z
loop_
_atom_site_type_symbol
_atom_site_label
_atom_site_fract_x
_atom_site_fract_y
_atom_site_fract_z
Si Si1 0.565306 0.782446 0.662757
Si Si2 0.137050 0.646609 0.828879
Si Si3 0.000000 0.000000 0.250044
Si Si4 0.434461 0.689658 0.837126
Si Si5 0.178264 0.556821 0.330900
Si Si6 0.299920 0.596840 0.330515
Si Si7 0.093076 0.077429 0.172827
Si Si8 0.740397 0.192972 0.672145
O O1 0.585773 0.789135 0.500000
O O2 0.500000 0.781365 0.659210
O O3 0.585569 0.825380 0.764719
O O4 0.585184 0.730863 0.727539
O O5 0.142867 0.592135 0.767683
O O6 0.188771 0.675080 0.762073
O O7 0.138033 0.647682 0.000000
O O8 0.047949 0.957550 0.240997
O O9 0.500000 0.692790 0.840479
O O10 0.420665 0.634225 0.799288
O O11 0.414449 0.699694 0.000000
O O12 0.166547 0.566419 0.500000
O O13 0.170191 0.500000 0.301728
O O14 0.241705 0.570886 0.309675
O O15 0.314305 0.593685 0.500000
O O16 0.346772 0.572072 0.236928
O O17 0.288667 0.654167 0.294058
O O18 0.091214 0.069141 0.000000
O O19 0.730174 0.186989 0.500000
O O20 0.750000 0.250000 0.699892
#
# Coordination Sequence:
#
# PCOD9492235 Si02
#       8
#    16  16   4  16  16  16  16  16
#     4  10  21  37  59  85 114 153 196 233 274 338
#     4  11  22  35  56  88 122 151 184 233 288 345
#     4  12  25  44  61  78 109 160 209 254 313 372
#     4   9  18  34  53  75 104 140 184 236 290 341
#     4   9  19  39  63  83 110 151 194 233 280 343
#     4   9  20  36  55  82 112 143 185 239 293 345
#     4  11  22  37  57  77 105 146 195 245 298 358
#     4   9  19  37  58  81 113 154 192 231 288 355
#
# _framework density 18.567874
#
# number of rings (size 3 to 8) (size 9 to 14) (size 15 to 20)
#    0.000    2.207    0.690    3.103    2.897    4.138 
#    0.000    0.690    0.000    0.414    0.000    2.897 
#    0.000    0.000    0.000    0.000    0.000    0.000 
#
# Total GULP energy -323177.751947 kJ/mol
# GULP energy per Si atom -5572.030206 kJ/mol
# Density = 1.852561 g / cm^3
# Si number density = 18.567874 Si / 1000 Ang^3
#
#
#
# Elastic Constant Matrix: (Units=GPa)
#
#
# Indices 1 2 3 4 5 6 
#
# 1 37.8096 23.6288 22.2018 0.0000 0.0000 0.0000
# 2 23.6288 110.3908 56.7038 0.0000 0.0000 0.0000
# 3 22.2018 56.7038 68.2977 0.0000 0.0000 0.0000
# 4 0.0000 0.0000 0.0000 10.1629 0.0000 0.0000
# 5 0.0000 0.0000 0.0000 0.0000 17.0143 0.0000
# 6 0.0000 0.0000 0.0000 0.0000 0.0000 15.2580
#
#
#
# Elastic Compliance Matrix: (Units=1/GPa)
#
#
# Indices 1 2 3 4 5 6 
#
# 1 0.033150 -0.002721 -0.008517 0.000000 0.000000 0.000000
# 2 -0.002721 0.016018 -0.012414 0.000000 0.000000 0.000000
# 3 -0.008517 -0.012414 0.027718 0.000000 0.000000 0.000000
# 4 0.000000 0.000000 0.000000 0.098397 0.000000 0.000000
# 5 0.000000 0.000000 0.000000 0.000000 0.058774 0.000000
# 6 0.000000 0.000000 0.000000 0.000000 0.000000 0.065540
#
#
# Mechanical properties :
#
#
# Convention : Reuss Voigt Hill
#
# Bulk Modulus (GPa) = 33.80594 46.84078 40.32336
# Shear Modulus (GPa) = 14.01497 16.08460 15.04979
#
# Velocity S-wave (km/s) = 2.75034 2.94642 2.85007
# Velocity P-wave (km/s) = 5.32278 6.07098 5.70915
#
# Compressibility (1/GPa) = 0.02958060
#
# Stress axis : x y z
#
# Youngs Moduli (GPa) = 30.16596 62.43028 36.07821
#
# Poissons Ratio (x) = 0.16984 0.30730
# Poissons Ratio (y) = 0.08207 0.44789
# Poissons Ratio (z) = 0.25694 0.77503
#
# Static dielectric constant tensor:
#      x y z
#    x 1.641070 0.000000 0.000000 
#    y 0.000000 1.649060 0.000000 
#    z 0.000000 0.000000 1.639820 
# 
# From -- ./inp_files/14872.got.cif
#   From: 2010.05.17/outbox.cif.g08.bks.cpg/sg65_8_cif.got.tgz:14872.got - 2010.06.03 17:01:31.
