data_PCOD9492397
_publ_section_title
;
Structure prediction by ZEFSAII (Michael W. Deem and Ramdas Pophale) SiO2 
 PCOD9492397
Probable space group: C M M M
;
_chemical_formula_sum "Si O2"
_cell_formula_units_Z 104
_cell_length_a 9.020311
_cell_length_b 21.296625
_cell_length_c 30.725620
_cell_angle_alpha 90.000000
_cell_angle_beta 90.000000
_cell_angle_gamma 90.000000
_cell_volume 5902.458607
_symmetry_space_group_name_H-M "C M M M"
_symmetry_group_IT_number 65
_symmetry_cell_setting 'orthorhombic'
loop_
_space_group_symop_operation_xyz
x,y,z
-x,-y,z
x,-y,-z
-x,y,-z
-x,-y,-z
x,y,-z
-x,y,z
x,-y,z
1/2+x,1/2+y,z
1/2-x,1/2-y,z
1/2+x,1/2-y,-z
1/2-x,1/2+y,-z
1/2-x,1/2-y,-z
1/2+x,1/2+y,-z
1/2-x,1/2+y,z
1/2+x,1/2-y,z
loop_
_atom_site_type_symbol
_atom_site_label
_atom_site_fract_x
_atom_site_fract_y
_atom_site_fract_z
Si Si1 0.177047 0.426481 0.814207
Si Si2 0.679109 0.000000 0.950341
Si Si3 0.824188 0.186710 0.133469
Si Si4 0.329262 0.076679 0.363708
Si Si5 0.332229 0.575781 0.276462
Si Si6 0.822735 0.360705 0.052065
Si Si7 0.173584 0.923732 0.451895
O O1 0.216465 0.500000 0.823779
O O2 0.258619 0.374833 0.843182
O O3 0.226690 0.412629 0.764622
O O4 0.000000 0.421203 0.819508
O O5 0.718912 0.931991 0.933205
O O6 0.500000 0.000000 0.951167
O O7 0.732191 0.000000 0.000000
O O8 0.750000 0.250000 0.151769
O O9 0.774249 0.182001 0.083011
O O10 0.000000 0.189125 0.137423
O O11 0.500000 0.094872 0.358826
O O12 0.234410 0.098259 0.322209
O O13 0.263849 0.098026 0.409952
O O14 0.324266 0.000000 0.363840
O O15 0.500000 0.598788 0.268904
O O16 0.340096 0.500000 0.279771
O O17 0.000000 0.351890 0.059419
O O18 0.798731 0.354567 0.000000
O O19 0.225116 0.902965 0.500000
O O20 0.000000 0.907651 0.447261
O O21 0.181190 0.000000 0.451951
#
# Coordination Sequence:
#
# PCOD9492397 Si02
#       7
#    16   8  16  16  16  16  16
#     4  10  21  38  60  83 107 136 171 213 263 317
#     4   7  12  26  51  81 109 137 169 205 247 295
#     4  12  26  42  59  81 112 145 180 217 259 309
#     4   9  15  21  31  49  74 105 143 190 243 295
#     4   9  16  27  44  66  91 118 153 199 249 299
#     4   9  18  35  59  85 112 143 178 214 255 303
#     4   8  13  20  28  39  60  95 140 188 238 292
#
# _framework density 17.619776000000002
#
# number of rings (size 3 to 8) (size 9 to 14) (size 15 to 20)
#    0.000    2.692    0.000    4.154    1.077    5.538 
#    0.000    1.538    0.000    1.385    0.000    0.000 
#    0.000    0.000    0.000    0.000    0.000    0.769 
#
# Total GULP energy -289647.324211 kJ/mol
# GULP energy per Si atom -5570.140850 kJ/mol
# Density = 1.757967 g / cm^3
# Si number density = 17.619776 Si / 1000 Ang^3
#
#
#
# Elastic Constant Matrix: (Units=GPa)
#
#
# Indices 1 2 3 4 5 6 
#
# 1 96.3197 43.4930 51.1868 0.0000 0.0000 0.0000
# 2 43.4930 61.8535 36.8010 0.0000 0.0000 0.0000
# 3 51.1868 36.8010 97.9891 0.0000 0.0000 0.0000
# 4 0.0000 0.0000 0.0000 2.2186 0.0000 0.0000
# 5 0.0000 0.0000 0.0000 0.0000 30.5245 0.0000
# 6 0.0000 0.0000 0.0000 0.0000 0.0000 15.3927
#
#
#
# Elastic Compliance Matrix: (Units=1/GPa)
#
#
# Indices 1 2 3 4 5 6 
#
# 1 0.017446 -0.008815 -0.005803 0.000000 0.000000 0.000000
# 2 -0.008815 0.025273 -0.004887 0.000000 0.000000 0.000000
# 3 -0.005803 -0.004887 0.015072 0.000000 0.000000 0.000000
# 4 0.000000 0.000000 0.000000 0.450725 0.000000 0.000000
# 5 0.000000 0.000000 0.000000 0.000000 0.032761 0.000000
# 6 0.000000 0.000000 0.000000 0.000000 0.000000 0.064966
#
#
# Mechanical properties :
#
#
# Convention : Reuss Voigt Hill
#
# Bulk Modulus (GPa) = 53.24345 57.68045 55.46195
# Shear Modulus (GPa) = 7.67444 17.93927 12.80685
#
# Velocity S-wave (km/s) = 2.08927 3.19428 2.69893
# Velocity P-wave (km/s) = 6.00863 6.81262 6.42322
#
# Compressibility (1/GPa) = 0.01878165
#
# Stress axis : x y z
#
# Youngs Moduli (GPa) = 57.31874 39.56758 66.34902
#
# Poissons Ratio (x) = 0.34879 0.38501
# Poissons Ratio (y) = 0.50527 0.32424
# Poissons Ratio (z) = 0.33261 0.19336
#
# Static dielectric constant tensor:
#      x y z
#    x 1.589360 0.000000 0.000000 
#    y 0.000000 1.610530 0.000000 
#    z 0.000000 0.000000 1.627140 
# 
# From -- ./inp_files/76909.got.cif
#   From: 2010.05.17/outbox.cif.g08.bks.cpg/sg65_39_cif.got.tgz:76909.got - 2010.06.03 17:01:31.
