data_PCOD9492796
_publ_section_title
;
Structure prediction by ZEFSAII (Michael W. Deem and Ramdas Pophale) SiO2 
 PCOD9492796
Probable space group: C M M M
;
_chemical_formula_sum "Si O2"
_cell_formula_units_Z 88
_cell_length_a 10.583762
_cell_length_b 32.515298
_cell_length_c 14.362177
_cell_angle_alpha 90.000000
_cell_angle_beta 90.000000
_cell_angle_gamma 90.000000
_cell_volume 4942.515939
_symmetry_space_group_name_H-M "C M M M"
_symmetry_group_IT_number 65
_symmetry_cell_setting 'orthorhombic'
loop_
_space_group_symop_operation_xyz
x,y,z
-x,-y,z
x,-y,-z
-x,y,-z
-x,-y,-z
x,y,-z
-x,y,z
x,-y,z
1/2+x,1/2+y,z
1/2-x,1/2-y,z
1/2+x,1/2-y,-z
1/2-x,1/2+y,-z
1/2-x,1/2-y,-z
1/2+x,1/2+y,-z
1/2-x,1/2+y,z
1/2+x,1/2-y,z
loop_
_atom_site_type_symbol
_atom_site_label
_atom_site_fract_x
_atom_site_fract_y
_atom_site_fract_z
Si Si1 0.639346 0.694716 0.391180
Si Si2 0.846522 0.545161 0.290838
Si Si3 0.846491 0.413489 0.104695
Si Si4 0.143763 0.629459 0.388553
Si Si5 0.250000 0.250000 0.752838
Si Si6 0.152021 0.318927 0.107527
O O1 0.654966 0.707169 0.500000
O O2 0.500000 0.675302 0.383831
O O3 0.753351 0.664019 0.366044
O O4 0.647331 0.732216 0.319320
O O5 0.801547 0.500000 0.320543
O O6 0.806089 0.555813 0.185545
O O7 0.814200 0.584897 0.351793
O O8 0.000000 0.543877 0.292259
O O9 0.810839 0.366302 0.127677
O O10 0.000000 0.414129 0.103329
O O11 0.803784 0.423318 0.000000
O O12 0.136920 0.627866 0.500000
O O13 0.000000 0.638091 0.352957
O O14 0.206391 0.286563 0.820222
O O15 0.000000 0.317146 0.111182
O O16 0.189323 0.310063 0.000000
#
# Coordination Sequence:
#
# PCOD9492796 Si02
#       6
#    16  16  16  16   8  16
#     4  10  22  37  51  71 100 133 169 208 250 297
#     4   9  16  25  41  69  99 122 151 195 242 286
#     4   8  14  25  39  56  85 124 156 183 226 284
#     4   9  18  33  52  71  93 126 164 199 240 292
#     4  12  20  30  50  72  94 126 166 210 250 290
#     4   9  18  31  46  67  96 128 162 200 242 290
#
# _framework density 17.804697000000001
#
# number of rings (size 3 to 8) (size 9 to 14) (size 15 to 20)
#    0.000    2.727    0.000    3.273    0.000    3.636 
#    0.000    5.455    0.000    0.545    0.000    2.545 
#    0.000    0.000    0.000    6.545    0.000    3.455 
#
# Total GULP energy -245079.914946 kJ/mol
# GULP energy per Si atom -5569.998067 kJ/mol
# Density = 1.776417 g / cm^3
# Si number density = 17.804697 Si / 1000 Ang^3
#
#
#
# Elastic Constant Matrix: (Units=GPa)
#
#
# Indices 1 2 3 4 5 6 
#
# 1 48.8377 22.3071 16.9713 0.0000 0.0000 0.0000
# 2 22.3071 50.0565 25.0415 0.0000 0.0000 0.0000
# 3 16.9713 25.0415 53.5289 0.0000 0.0000 0.0000
# 4 0.0000 0.0000 0.0000 21.1411 0.0000 0.0000
# 5 0.0000 0.0000 0.0000 0.0000 -0.1209 0.0000
# 6 0.0000 0.0000 0.0000 0.0000 0.0000 12.2221
#
#
#
# Elastic Compliance Matrix: (Units=1/GPa)
#
#
# Indices 1 2 3 4 5 6 
#
# 1 0.026265 -0.009842 -0.003723 0.000000 0.000000 0.000000
# 2 -0.009842 0.029769 -0.010806 0.000000 0.000000 0.000000
# 3 -0.003723 -0.010806 0.024917 0.000000 0.000000 0.000000
# 4 0.000000 0.000000 0.000000 0.047301 0.000000 0.000000
# 5 0.000000 0.000000 0.000000 0.000000 -8.274719 0.000000
# 6 0.000000 0.000000 0.000000 0.000000 0.000000 0.081819
#
#
# Mechanical properties :
#
#
# Convention : Reuss Voigt Hill
#
# Bulk Modulus (GPa) = 31.04715 31.22920 31.13818
# Shear Modulus (GPa) = -0.62460 12.52203 5.94872
#
# Velocity S-wave (km/s) = -0.59293 2.65486 1.82985
# Velocity P-wave (km/s) = 4.12392 5.19381 4.68947
#
# Compressibility (1/GPa) = 0.03220907
#
# Stress axis : x y z
#
# Youngs Moduli (GPa) = 38.07306 33.59147 40.13305
#
# Poissons Ratio (x) = 0.33062 0.14942
# Poissons Ratio (y) = 0.37473 0.43368
# Poissons Ratio (z) = 0.14175 0.36299
#
# Static dielectric constant tensor:
#      x y z
#    x 1.601330 0.000000 0.000000 
#    y 0.000000 1.617810 0.000000 
#    z 0.000000 0.000000 1.642720 
# 
# From -- ./inp_files/38669.got.cif
#   From: 2010.05.17/outbox.cif.g08.bks.cpg/sg65_20_cif.got.tgz:38669.got - 2010.06.03 17:01:31.
