data_PCOD9492392
_publ_section_title
;
Structure prediction by ZEFSAII (Michael W. Deem and Ramdas Pophale) SiO2 
 PCOD9492392
Probable space group: C M M M
;
_chemical_formula_sum "Si O2"
_cell_formula_units_Z 68
_cell_length_a 22.905880
_cell_length_b 17.261381
_cell_length_c 8.085616
_cell_angle_alpha 90.000000
_cell_angle_beta 90.000000
_cell_angle_gamma 90.000000
_cell_volume 3196.948438
_symmetry_space_group_name_H-M "C M M M"
_symmetry_group_IT_number 65
_symmetry_cell_setting 'orthorhombic'
loop_
_space_group_symop_operation_xyz
x,y,z
-x,-y,z
x,-y,-z
-x,y,-z
-x,-y,-z
x,y,-z
-x,y,z
x,-y,z
1/2+x,1/2+y,z
1/2-x,1/2-y,z
1/2+x,1/2-y,-z
1/2-x,1/2+y,-z
1/2-x,1/2-y,-z
1/2+x,1/2+y,-z
1/2-x,1/2+y,z
1/2+x,1/2-y,z
loop_
_atom_site_type_symbol
_atom_site_label
_atom_site_fract_x
_atom_site_fract_y
_atom_site_fract_z
Si Si1 0.334790 0.911103 0.799960
Si Si2 0.500000 0.317956 0.309469
Si Si3 0.120434 0.000000 0.312806
Si Si4 0.703796 0.631873 0.805592
Si Si5 0.119704 0.744235 0.696077
Si Si6 0.500000 0.500000 0.756149
O O1 0.269514 0.884386 0.748560
O O2 0.378576 0.846987 0.730734
O O3 0.344464 0.000000 0.748478
O O4 0.337052 0.908582 0.000000
O O5 0.500000 0.291447 0.500000
O O6 0.439575 0.284532 0.237897
O O7 0.500000 0.410980 0.310474
O O8 0.160374 0.074272 0.288136
O O9 0.067032 0.000000 0.184799
O O10 0.095475 0.000000 0.500000
O O11 0.676380 0.716276 0.778879
O O12 0.702092 0.612802 0.000000
O O13 0.124101 0.758605 0.500000
#
# Coordination Sequence:
#
# PCOD9492392 Si02
#       6
#    16   8   8  16  16   4
#     4  10  22  42  63  84 117 160 196 238 304 363
#     4  10  21  38  59  86 122 159 193 238 300 353
#     4  12  22  35  60  91 122 160 203 245 285 342
#     4  11  22  39  60  87 124 161 194 239 298 356
#     4  11  23  39  61  90 119 154 200 248 294 349
#     4  12  21  38  63  86 125 168 195 234 297 346
#
# _framework density 21.270282000000002
#
# number of rings (size 3 to 8) (size 9 to 14) (size 15 to 20)
#    0.000    1.176    3.529    3.529    0.000    5.176 
#    0.000    5.294    0.000    3.529    0.000    0.000 
#    0.000    0.000    0.000    0.000    0.000    0.000 
#
# Total GULP energy -189777.284435 kJ/mol
# GULP energy per Si atom -5581.684836 kJ/mol
# Density = 2.122187 g / cm^3
# Si number density = 21.270282 Si / 1000 Ang^3
#
#
#
# Elastic Constant Matrix: (Units=GPa)
#
#
# Indices 1 2 3 4 5 6 
#
# 1 85.2587 50.4207 12.7753 0.0000 0.0000 0.0000
# 2 50.4207 150.7192 6.3374 0.0000 0.0000 0.0000
# 3 12.7753 6.3374 41.8501 0.0000 0.0000 0.0000
# 4 0.0000 0.0000 0.0000 22.1232 0.0000 0.0000
# 5 0.0000 0.0000 0.0000 0.0000 19.0133 0.0000
# 6 0.0000 0.0000 0.0000 0.0000 0.0000 33.4631
#
#
#
# Elastic Compliance Matrix: (Units=1/GPa)
#
#
# Indices 1 2 3 4 5 6 
#
# 1 0.015230 -0.004931 -0.003902 0.000000 0.000000 0.000000
# 2 -0.004931 0.008274 0.000252 0.000000 0.000000 0.000000
# 3 -0.003902 0.000252 0.025048 0.000000 0.000000 0.000000
# 4 0.000000 0.000000 0.000000 0.045201 0.000000 0.000000
# 5 0.000000 0.000000 0.000000 0.000000 0.052595 0.000000
# 6 0.000000 0.000000 0.000000 0.000000 0.000000 0.029884
#
#
# Mechanical properties :
#
#
# Convention : Reuss Voigt Hill
#
# Bulk Modulus (GPa) = 31.85773 46.32164 39.08968
# Shear Modulus (GPa) = 24.52707 28.80621 26.66664
#
# Velocity S-wave (km/s) = 3.39944 3.68407 3.54461
# Velocity P-wave (km/s) = 5.51528 6.31834 5.93042
#
# Compressibility (1/GPa) = 0.03138956
#
# Stress axis : x y z
#
# Youngs Moduli (GPa) = 65.66103 120.86410 39.92354
#
# Poissons Ratio (x) = 0.59595 0.15580
# Poissons Ratio (y) = 0.32376 -0.01007
# Poissons Ratio (z) = 0.25624 -0.03049
#
# Static dielectric constant tensor:
#      x y z
#    x 1.767950 0.000000 0.000000 
#    y 0.000000 1.766500 0.000000 
#    z 0.000000 0.000000 1.789200 
# 
# From -- ./inp_files/10985.got.cif
#   From: 2010.05.17/outbox.cif.g08.bks.cpg/sg65_6_cif.got.tgz:10985.got - 2010.06.03 17:01:31.
