data_PCOD9492989
_publ_section_title
;
Structure prediction by ZEFSAII (Michael W. Deem and Ramdas Pophale) SiO2 
 PCOD9492989
Probable space group: C M M M
;
_chemical_formula_sum "Si O2"
_cell_formula_units_Z 80
_cell_length_a 16.538342
_cell_length_b 30.012708
_cell_length_c 7.997612
_cell_angle_alpha 90.000000
_cell_angle_beta 90.000000
_cell_angle_gamma 90.000000
_cell_volume 3969.698125
_symmetry_space_group_name_H-M "C M M M"
_symmetry_group_IT_number 65
_symmetry_cell_setting 'orthorhombic'
loop_
_space_group_symop_operation_xyz
x,y,z
-x,-y,z
x,-y,-z
-x,y,-z
-x,-y,-z
x,y,-z
-x,y,z
x,-y,z
1/2+x,1/2+y,z
1/2-x,1/2-y,z
1/2+x,1/2-y,-z
1/2-x,1/2+y,-z
1/2-x,1/2-y,-z
1/2+x,1/2+y,-z
1/2-x,1/2+y,z
1/2+x,1/2-y,z
loop_
_atom_site_type_symbol
_atom_site_label
_atom_site_fract_x
_atom_site_fract_y
_atom_site_fract_z
Si Si1 0.500000 0.577712 0.306208
Si Si2 0.333806 0.289533 0.306414
Si Si3 0.719217 0.133128 0.806848
Si Si4 0.176059 0.049453 0.797724
Si Si5 0.000000 0.174438 0.192126
Si Si6 0.407624 0.199101 0.698655
O O1 0.500000 0.591050 0.500000
O O2 0.415472 0.553461 0.269488
O O3 0.500000 0.621433 0.192854
O O4 0.306231 0.289241 0.500000
O O5 0.280376 0.325205 0.209262
O O6 0.423084 0.309017 0.291584
O O7 0.348612 0.239273 0.240573
O O8 0.766470 0.089871 0.736822
O O9 0.636783 0.152225 0.728475
O O10 0.702235 0.123890 0.000000
O O11 0.207331 0.000000 0.756588
O O12 0.171068 0.053307 0.000000
O O13 0.000000 0.190666 0.000000
O O14 0.412501 0.206572 0.500000
O O15 0.500000 0.201457 0.764802
#
# Coordination Sequence:
#
# PCOD9492989 Si02
#       6
#     8  16  16  16   8  16
#     4  12  23  35  56  85 116 152 192 233 275 331
#     4  11  21  37  58  82 114 155 192 227 273 332
#     4  11  23  37  57  86 114 146 189 235 281 333
#     4  10  22  40  59  80 113 153 188 231 287 339
#     4  12  22  33  53  82 118 157 191 231 276 323
#     4  10  22  40  59  81 112 151 189 228 284 341
#
# _framework density 20.152667000000001
#
# number of rings (size 3 to 8) (size 9 to 14) (size 15 to 20)
#    0.000    1.200    3.000    3.900    0.000    6.800 
#    0.000    0.000    0.000    0.600    0.000    4.200 
#    0.000    0.000    0.000    0.000    0.000    0.000 
#
# Total GULP energy -223282.960609 kJ/mol
# GULP energy per Si atom -5582.074015 kJ/mol
# Density = 2.010680 g / cm^3
# Si number density = 20.152667 Si / 1000 Ang^3
#
#
#
# Elastic Constant Matrix: (Units=GPa)
#
#
# Indices 1 2 3 4 5 6 
#
# 1 48.9886 52.4602 -6.7217 0.0000 0.0000 0.0000
# 2 52.4602 144.1168 6.7494 0.0000 0.0000 0.0000
# 3 -6.7217 6.7494 40.1410 0.0000 0.0000 0.0000
# 4 0.0000 0.0000 0.0000 22.2813 0.0000 0.0000
# 5 0.0000 0.0000 0.0000 0.0000 10.4614 0.0000
# 6 0.0000 0.0000 0.0000 0.0000 0.0000 34.7097
#
#
#
# Elastic Compliance Matrix: (Units=1/GPa)
#
#
# Indices 1 2 3 4 5 6 
#
# 1 0.036001 -0.013493 0.008297 0.000000 0.000000 0.000000
# 2 -0.013493 0.012051 -0.004286 0.000000 0.000000 0.000000
# 3 0.008297 -0.004286 0.027022 0.000000 0.000000 0.000000
# 4 0.000000 0.000000 0.000000 0.044881 0.000000 0.000000
# 5 0.000000 0.000000 0.000000 0.000000 0.095589 0.000000
# 6 0.000000 0.000000 0.000000 0.000000 0.000000 0.028810
#
#
# Mechanical properties :
#
#
# Convention : Reuss Voigt Hill
#
# Bulk Modulus (GPa) = 17.82193 37.58023 27.70108
# Shear Modulus (GPa) = 17.72911 25.54106 21.63508
#
# Velocity S-wave (km/s) = 2.96926 3.56389 3.28008
# Velocity P-wave (km/s) = 4.54070 5.96853 5.30289
#
# Compressibility (1/GPa) = 0.05611063
#
# Stress axis : x y z
#
# Youngs Moduli (GPa) = 27.77704 82.97879 37.00657
#
# Poissons Ratio (x) = 1.11966 -0.30705
# Poissons Ratio (y) = 0.37481 0.15860
# Poissons Ratio (z) = -0.23047 0.35563
#
# Static dielectric constant tensor:
#      x y z
#    x 1.748800 0.000000 0.000000 
#    y 0.000000 1.748980 0.000000 
#    z 0.000000 0.000000 1.720160 
# 
# From -- ./inp_files/9745.got.cif
#   From: 2010.05.17/outbox.cif.g08.bks.cpg/sg65_5_cif.got.tgz:9745.got - 2010.06.03 17:01:31.
