data_PCOD9492992
_publ_section_title
;
Structure prediction by ZEFSAII (Michael W. Deem and Ramdas Pophale) SiO2 
 PCOD9492992
Probable space group: C M M M
;
_chemical_formula_sum "Si O2"
_cell_formula_units_Z 112
_cell_length_a 14.371850
_cell_length_b 24.320472
_cell_length_c 15.331877
_cell_angle_alpha 90.000000
_cell_angle_beta 90.000000
_cell_angle_gamma 90.000000
_cell_volume 5358.953659
_symmetry_space_group_name_H-M "C M M M"
_symmetry_group_IT_number 65
_symmetry_cell_setting 'orthorhombic'
loop_
_space_group_symop_operation_xyz
x,y,z
-x,-y,z
x,-y,-z
-x,y,-z
-x,-y,-z
x,y,-z
-x,y,z
x,-y,z
1/2+x,1/2+y,z
1/2-x,1/2-y,z
1/2+x,1/2-y,-z
1/2-x,1/2+y,-z
1/2-x,1/2-y,-z
1/2+x,1/2+y,-z
1/2-x,1/2+y,z
1/2+x,1/2-y,z
loop_
_atom_site_type_symbol
_atom_site_label
_atom_site_fract_x
_atom_site_fract_y
_atom_site_fract_z
Si Si1 0.105576 0.226855 0.270645
Si Si2 0.897591 0.641156 0.714821
Si Si3 0.110722 0.063007 0.855755
Si Si4 0.773023 0.158983 0.597266
Si Si5 0.893841 0.350272 0.903483
Si Si6 0.188132 0.178130 0.094627
Si Si7 0.109838 0.059997 0.353364
O O1 0.103836 0.292652 0.270707
O O2 0.176150 0.204425 0.343232
O O3 0.138915 0.204342 0.177642
O O4 0.000000 0.207126 0.287746
O O5 0.815544 0.633660 0.647278
O O6 0.884635 0.616845 0.812309
O O7 0.000000 0.625618 0.682519
O O8 0.167527 0.112579 0.898281
O O9 0.123695 0.067745 0.751018
O O10 0.000000 0.070529 0.873456
O O11 0.134514 0.000000 0.880892
O O12 0.750226 0.178245 0.500000
O O13 0.844959 0.109174 0.595916
O O14 0.799846 0.313914 0.901934
O O15 0.000000 0.326013 0.898580
O O16 0.890340 0.377273 0.000000
O O17 0.153553 0.197215 0.000000
O O18 0.000000 0.059682 0.367491
O O19 0.147549 0.000000 0.377142
#
# Coordination Sequence:
#
# PCOD9492992 Si02
#       7
#    16  16  16  16  16  16  16
#     4  11  23  38  55  81 116 151 193 241 288 340
#     4  10  22  40  60  80 111 151 191 242 294 337
#     4   9  17  31  52  78 113 155 194 234 283 347
#     4  12  24  38  59  84 112 150 195 240 291 348
#     4   9  18  34  57  82 106 140 188 234 279 335
#     4  11  21  33  55  84 116 155 194 237 291 349
#     4   9  18  35  60  88 118 152 189 232 286 347
#
# _framework density 20.899601000000001
#
# number of rings (size 3 to 8) (size 9 to 14) (size 15 to 20)
#    0.000    1.857    2.857    2.143    0.000    4.857 
#    0.000    5.714    0.000    0.857    0.000    7.000 
#    0.000    0.000    0.000    0.000    0.000    0.143 
#
# Total GULP energy -312501.151789 kJ/mol
# GULP energy per Si atom -5580.377711 kJ/mol
# Density = 2.085203 g / cm^3
# Si number density = 20.899601 Si / 1000 Ang^3
#
#
#
# Elastic Constant Matrix: (Units=GPa)
#
#
# Indices 1 2 3 4 5 6 
#
# 1 85.7251 1.0158 45.3997 0.0000 0.0000 0.0000
# 2 1.0158 62.0490 9.5212 0.0000 0.0000 0.0000
# 3 45.3997 9.5212 125.2718 0.0000 0.0000 0.0000
# 4 0.0000 0.0000 0.0000 7.4688 0.0000 0.0000
# 5 0.0000 0.0000 0.0000 0.0000 2.8694 0.0000
# 6 0.0000 0.0000 0.0000 0.0000 0.0000 19.5203
#
#
#
# Elastic Compliance Matrix: (Units=1/GPa)
#
#
# Indices 1 2 3 4 5 6 
#
# 1 0.014456 0.000574 -0.005283 0.000000 0.000000 0.000000
# 2 0.000574 0.016329 -0.001449 0.000000 0.000000 0.000000
# 3 -0.005283 -0.001449 0.010007 0.000000 0.000000 0.000000
# 4 0.000000 0.000000 0.000000 0.133890 0.000000 0.000000
# 5 0.000000 0.000000 0.000000 0.000000 0.348502 0.000000
# 6 0.000000 0.000000 0.000000 0.000000 0.000000 0.051229
#
#
# Mechanical properties :
#
#
# Convention : Reuss Voigt Hill
#
# Bulk Modulus (GPa) = 35.11607 42.76881 38.94244
# Shear Modulus (GPa) = 8.38616 20.44566 14.41591
#
# Velocity S-wave (km/s) = 2.00532 3.13114 2.62920
# Velocity P-wave (km/s) = 4.71174 5.79486 5.28114
#
# Compressibility (1/GPa) = 0.02847699
#
# Stress axis : x y z
#
# Youngs Moduli (GPa) = 69.17514 61.23975 99.92749
#
# Poissons Ratio (x) = -0.03515 0.52788
# Poissons Ratio (y) = -0.03970 0.14480
# Poissons Ratio (z) = 0.36543 0.08874
#
# Static dielectric constant tensor:
#      x y z
#    x 1.764920 0.000000 0.000000 
#    y 0.000000 1.762430 0.000000 
#    z 0.000000 0.000000 1.797820 
# 
# From -- ./inp_files/40801.got.cif
#   From: 2010.05.17/outbox.cif.g08.bks.cpg/sg65_21_cif.got.tgz:40801.got - 2010.06.03 17:01:31.
