data_PCOD9492917
_publ_section_title
;
Structure prediction by ZEFSAII (Michael W. Deem and Ramdas Pophale) SiO2 
 PCOD9492917
Probable space group: C M M M
;
_chemical_formula_sum "Si O2"
_cell_formula_units_Z 116
_cell_length_a 26.393076
_cell_length_b 15.975420
_cell_length_c 15.310269
_cell_angle_alpha 90.000000
_cell_angle_beta 90.000000
_cell_angle_gamma 90.000000
_cell_volume 6455.429081
_symmetry_space_group_name_H-M "C M M M"
_symmetry_group_IT_number 65
_symmetry_cell_setting 'orthorhombic'
loop_
_space_group_symop_operation_xyz
x,y,z
-x,-y,z
x,-y,-z
-x,y,-z
-x,-y,-z
x,y,-z
-x,y,z
x,-y,z
1/2+x,1/2+y,z
1/2-x,1/2-y,z
1/2+x,1/2-y,-z
1/2-x,1/2+y,-z
1/2-x,1/2-y,-z
1/2+x,1/2+y,-z
1/2-x,1/2+y,z
1/2+x,1/2-y,z
loop_
_atom_site_type_symbol
_atom_site_label
_atom_site_fract_x
_atom_site_fract_y
_atom_site_fract_z
Si Si1 0.708978 0.898162 0.405244
Si Si2 0.150378 0.099980 0.212554
Si Si3 0.250496 0.649839 0.100865
Si Si4 0.065370 0.500000 0.000000
Si Si5 0.442931 0.338312 0.900359
Si Si6 0.827914 0.101947 0.595475
Si Si7 0.443672 0.854117 0.146379
Si Si8 0.840816 0.399523 0.773326
O O1 0.689238 0.869815 0.500000
O O2 0.768270 0.876863 0.400538
O O3 0.681371 0.868126 0.318625
O O4 0.706517 0.000000 0.404148
O O5 0.201066 0.124832 0.159307
O O6 0.101029 0.129065 0.161217
O O7 0.149743 0.132119 0.312661
O O8 0.151072 0.000000 0.216631
O O9 0.250000 0.750000 0.097238
O O10 0.199316 0.620741 0.149717
O O11 0.253298 0.618618 0.000000
O O12 0.063018 0.426839 0.924655
O O13 0.500000 0.364837 0.874994
O O14 0.441962 0.237473 0.896497
O O15 0.433793 0.365373 0.000000
O O16 0.847503 0.130253 0.500000
O O17 0.831249 0.000000 0.595138
O O18 0.500000 0.863847 0.186052
O O19 0.395644 0.861568 0.209020
O O20 0.845374 0.500000 0.770129
#
# Coordination Sequence:
#
# PCOD9492917 Si02
#       8
#    16  16  16   4  16  16  16  16
#     4   8  14  28  49  74 103 134 169 214 265 316
#     4  11  21  36  58  83 111 144 188 228 274 332
#     4  11  24  37  48  69 108 151 181 212 267 326
#     4  12  21  36  60  84 102 140 198 244 271 314
#     4  10  22  39  57  77 107 148 187 227 277 326
#     4   8  14  28  53  81 108 138 178 229 277 321
#     4  11  22  36  55  79 109 141 184 236 282 321
#     4  11  21  31  52  80 104 131 173 220 267 320
#
# _framework density 17.969372
#
# number of rings (size 3 to 8) (size 9 to 14) (size 15 to 20)
#    0.000    1.931    2.759    3.103    0.966    3.310 
#    0.000    0.690    0.000    4.966    0.000    5.793 
#    0.000    0.000    0.000    0.000    0.000    0.000 
#
# Total GULP energy -322956.576861 kJ/mol
# GULP energy per Si atom -5568.216842 kJ/mol
# Density = 1.792847 g / cm^3
# Si number density = 17.969372 Si / 1000 Ang^3
#
#
#
# Elastic Constant Matrix: (Units=GPa)
#
#
# Indices 1 2 3 4 5 6 
#
# 1 111.8658 11.2155 81.2649 0.0000 0.0000 0.0000
# 2 11.2155 25.1479 17.4439 0.0000 0.0000 0.0000
# 3 81.2649 17.4439 156.4077 0.0000 0.0000 0.0000
# 4 0.0000 0.0000 0.0000 1.3315 0.0000 0.0000
# 5 0.0000 0.0000 0.0000 0.0000 401.5862 0.0000
# 6 0.0000 0.0000 0.0000 0.0000 0.0000 36.4751
#
#
#
# Elastic Compliance Matrix: (Units=1/GPa)
#
#
# Indices 1 2 3 4 5 6 
#
# 1 0.014400 -0.001336 -0.007333 0.000000 0.000000 0.000000
# 2 -0.001336 0.043223 -0.004127 0.000000 0.000000 0.000000
# 3 -0.007333 -0.004127 0.010664 0.000000 0.000000 0.000000
# 4 0.000000 0.000000 0.000000 0.751023 0.000000 0.000000
# 5 0.000000 0.000000 0.000000 0.000000 0.002490 0.000000
# 6 0.000000 0.000000 0.000000 0.000000 0.000000 0.027416
#
#
# Mechanical properties :
#
#
# Convention : Reuss Voigt Hill
#
# Bulk Modulus (GPa) = 23.42123 57.03001 40.22562
# Shear Modulus (GPa) = 5.62405 100.11170 52.86788
#
# Velocity S-wave (km/s) = 1.77104 7.47217 5.43001
# Velocity P-wave (km/s) = 4.15264 10.30780 7.85796
#
# Compressibility (1/GPa) = 0.04269631
#
# Stress axis : x y z
#
# Youngs Moduli (GPa) = 69.44322 23.13592 93.77528
#
# Poissons Ratio (x) = 0.03090 0.68765
# Poissons Ratio (y) = 0.09276 0.38697
# Poissons Ratio (z) = 0.50923 0.09547
#
# Static dielectric constant tensor:
#      x y z
#    x 1.612030 0.000000 0.000000 
#    y 0.000000 1.634250 0.000000 
#    z 0.000000 0.000000 1.643950 
# 
# From -- ./inp_files/45998.got.cif
#   From: 2010.05.17/outbox.cif.g08.bks.cpg/sg65_23_cif.got.tgz:45998.got - 2010.06.03 17:01:31.
