data_PCOD9492759
_publ_section_title
;
Structure prediction by ZEFSAII (Michael W. Deem and Ramdas Pophale) SiO2 
 PCOD9492759
Probable space group: C M M M
;
_chemical_formula_sum "Si O2"
_cell_formula_units_Z 40
_cell_length_a 7.380151
_cell_length_b 28.080163
_cell_length_c 10.084039
_cell_angle_alpha 90.000000
_cell_angle_beta 90.000000
_cell_angle_gamma 90.000000
_cell_volume 2089.774323
_symmetry_space_group_name_H-M "C M M M"
_symmetry_group_IT_number 65
_symmetry_cell_setting 'orthorhombic'
loop_
_space_group_symop_operation_xyz
x,y,z
-x,-y,z
x,-y,-z
-x,y,-z
-x,-y,-z
x,y,-z
-x,y,z
x,-y,z
1/2+x,1/2+y,z
1/2-x,1/2-y,z
1/2+x,1/2-y,-z
1/2-x,1/2+y,-z
1/2-x,1/2-y,-z
1/2+x,1/2+y,-z
1/2-x,1/2+y,z
1/2+x,1/2-y,z
loop_
_atom_site_type_symbol
_atom_site_label
_atom_site_fract_x
_atom_site_fract_y
_atom_site_fract_z
Si Si1 0.295903 0.557457 0.000000
Si Si2 0.213642 0.193294 0.149633
Si Si3 0.000000 0.650362 0.651515
Si Si4 0.000000 0.556547 0.220017
O O1 0.174983 0.568162 0.871375
O O2 0.309133 0.500000 0.000000
O O3 0.500000 0.577033 0.000000
O O4 0.250000 0.250000 0.153757
O O5 0.329358 0.169476 0.264783
O O6 0.000000 0.185211 0.165468
O O7 0.266844 0.177151 0.000000
O O8 0.000000 0.593087 0.660236
O O9 0.000000 0.666618 0.500000
O O10 0.000000 0.500000 0.249024
#
# Coordination Sequence:
#
# PCOD9492759 Si02
#       4
#     8  16   8   8
#     4   8  15  31  58  87 111 143 195 258 309 338
#     4  10  21  41  67  90 116 154 202 253 301 356
#     4  12  26  39  58  90 128 166 201 243 301 364
#     4   9  20  37  56  84 120 158 204 247 292 356
#
# _framework density 19.140822
#
# number of rings (size 3 to 8) (size 9 to 14) (size 15 to 20)
#    0.000    2.200    2.000    1.800    5.600    3.600 
#    0.000    0.000    0.000    0.000    0.000    8.400 
#    0.000    0.000    0.000    0.000    0.000    0.000 
#
# Total GULP energy -111677.796889 kJ/mol
# GULP energy per Si atom -5583.889844 kJ/mol
# Density = 1.909726 g / cm^3
# Si number density = 19.140822 Si / 1000 Ang^3
#
#
#
# Elastic Constant Matrix: (Units=GPa)
#
#
# Indices 1 2 3 4 5 6 
#
# 1 150.4527 22.0647 69.7735 0.0000 0.0000 0.0000
# 2 22.0647 85.7949 51.6528 0.0000 0.0000 0.0000
# 3 69.7735 51.6528 155.2794 0.0000 0.0000 0.0000
# 4 0.0000 0.0000 0.0000 19.9600 0.0000 0.0000
# 5 0.0000 0.0000 0.0000 0.0000 10.2971 0.0000
# 6 0.0000 0.0000 0.0000 0.0000 0.0000 14.7931
#
#
#
# Elastic Compliance Matrix: (Units=1/GPa)
#
#
# Indices 1 2 3 4 5 6 
#
# 1 0.008398 0.000140 -0.003820 0.000000 0.000000 0.000000
# 2 0.000140 0.014577 -0.004912 0.000000 0.000000 0.000000
# 3 -0.003820 -0.004912 0.009790 0.000000 0.000000 0.000000
# 4 0.000000 0.000000 0.000000 0.050100 0.000000 0.000000
# 5 0.000000 0.000000 0.000000 0.000000 0.097115 0.000000
# 6 0.000000 0.000000 0.000000 0.000000 0.000000 0.067599
#
#
# Mechanical properties :
#
#
# Convention : Reuss Voigt Hill
#
# Bulk Modulus (GPa) = 64.17921 75.38991 69.78456
# Shear Modulus (GPa) = 18.52149 25.54576 22.03362
#
# Velocity S-wave (km/s) = 3.11407 3.65721 3.39652
# Velocity P-wave (km/s) = 6.82149 7.57008 7.20551
#
# Compressibility (1/GPa) = 0.01558137
#
# Stress axis : x y z
#
# Youngs Moduli (GPa) = 119.08149 68.60188 102.14083
#
# Poissons Ratio (x) = -0.00961 0.39018
# Poissons Ratio (y) = -0.01669 0.50170
# Poissons Ratio (z) = 0.45489 0.33696
#
# Static dielectric constant tensor:
#      x y z
#    x 1.660210 0.000000 0.000000 
#    y 0.000000 1.712020 0.000000 
#    z 0.000000 0.000000 1.616630 
# 
# From -- ./inp_files/2694.got.cif
#   From: 2010.05.17/outbox.cif.g08.bks.cpg/sg65_2_cif.got.tgz:2694.got - 2010.06.03 17:01:31.
