data_PCOD9492332
_publ_section_title
;
Structure prediction by ZEFSAII (Michael W. Deem and Ramdas Pophale) SiO2 
 PCOD9492332
Probable space group: C M M M
;
_chemical_formula_sum "Si O2"
_cell_formula_units_Z 72
_cell_length_a 14.819430
_cell_length_b 30.637232
_cell_length_c 8.650205
_cell_angle_alpha 90.000000
_cell_angle_beta 90.000000
_cell_angle_gamma 90.000000
_cell_volume 3927.420700
_symmetry_space_group_name_H-M "C M M M"
_symmetry_group_IT_number 65
_symmetry_cell_setting 'orthorhombic'
loop_
_space_group_symop_operation_xyz
x,y,z
-x,-y,z
x,-y,-z
-x,y,-z
-x,-y,-z
x,y,-z
-x,y,z
x,-y,z
1/2+x,1/2+y,z
1/2-x,1/2-y,z
1/2+x,1/2-y,-z
1/2-x,1/2+y,-z
1/2-x,1/2-y,-z
1/2+x,1/2+y,-z
1/2-x,1/2+y,z
1/2+x,1/2-y,z
loop_
_atom_site_type_symbol
_atom_site_label
_atom_site_fract_x
_atom_site_fract_y
_atom_site_fract_z
Si Si1 0.302529 0.050893 0.187440
Si Si2 0.000000 0.162979 0.185430
Si Si3 0.000000 0.446865 0.821017
Si Si4 0.186370 0.872990 0.314711
Si Si5 0.000000 0.264726 0.815262
Si Si6 0.189817 0.291691 0.313724
O O1 0.402573 0.065736 0.245472
O O2 0.225783 0.081663 0.253715
O O3 0.290418 0.000000 0.228520
O O4 0.303451 0.053278 0.000000
O O5 0.089492 0.139695 0.247417
O O6 0.000000 0.213845 0.236759
O O7 0.000000 0.162274 0.000000
O O8 0.000000 0.500000 0.822736
O O9 0.000000 0.432418 0.000000
O O10 0.181030 0.873330 0.500000
O O11 0.257085 0.835168 0.267124
O O12 0.090504 0.287251 0.754567
O O13 0.000000 0.265284 0.000000
O O14 0.183436 0.290898 0.500000
O O15 0.250000 0.250000 0.265464
#
# Coordination Sequence:
#
# PCOD9492332 Si02
#       6
#    16   8   8  16   8  16
#     4   9  18  35  59  86 118 154 190 233 286 340
#     4  11  23  39  59  83 111 147 190 238 291 344
#     4   7  12  27  53  80 106 143 184 217 264 331
#     4  11  23  38  59  85 113 150 194 237 282 337
#     4  11  23  36  58  88 116 147 190 245 288 329
#     4  10  21  38  58  80 113 155 190 225 278 345
#
# _framework density 18.332643000000001
#
# number of rings (size 3 to 8) (size 9 to 14) (size 15 to 20)
#    0.000    2.111    2.222    2.667    0.000    4.444 
#    0.000    3.333    0.000    5.333    0.000    0.000 
#    0.000    0.000    0.000    0.000    0.000    0.000 
#
# Total GULP energy -200941.380118 kJ/mol
# GULP energy per Si atom -5581.705003 kJ/mol
# Density = 1.829092 g / cm^3
# Si number density = 18.332643 Si / 1000 Ang^3
#
#
#
# Elastic Constant Matrix: (Units=GPa)
#
#
# Indices 1 2 3 4 5 6 
#
# 1 194.9923 79.9304 43.4994 0.0000 0.0000 0.0000
# 2 79.9304 96.9833 33.9047 0.0000 0.0000 0.0000
# 3 43.4994 33.9047 26.8826 0.0000 0.0000 0.0000
# 4 0.0000 0.0000 0.0000 22.7133 0.0000 0.0000
# 5 0.0000 0.0000 0.0000 0.0000 13.8241 0.0000
# 6 0.0000 0.0000 0.0000 0.0000 0.0000 27.1140
#
#
#
# Elastic Compliance Matrix: (Units=1/GPa)
#
#
# Indices 1 2 3 4 5 6 
#
# 1 0.008848 -0.004091 -0.009158 0.000000 0.000000 0.000000
# 2 -0.004091 0.020334 -0.019026 0.000000 0.000000 0.000000
# 3 -0.009158 -0.019026 0.076014 0.000000 0.000000 0.000000
# 4 0.000000 0.000000 0.000000 0.044027 0.000000 0.000000
# 5 0.000000 0.000000 0.000000 0.000000 0.072337 0.000000
# 6 0.000000 0.000000 0.000000 0.000000 0.000000 0.036881
#
#
# Mechanical properties :
#
#
# Convention : Reuss Voigt Hill
#
# Bulk Modulus (GPa) = 24.60273 70.39194 47.49734
# Shear Modulus (GPa) = 14.85705 23.49854 19.17779
#
# Velocity S-wave (km/s) = 2.84987 3.58409 3.23786
# Velocity P-wave (km/s) = 4.92730 7.45708 6.32006
#
# Compressibility (1/GPa) = 0.04064589
#
# Stress axis : x y z
#
# Youngs Moduli (GPa) = 113.01505 49.17888 13.15550
#
# Poissons Ratio (x) = 0.20118 0.12048
# Poissons Ratio (y) = 0.46233 0.25030
# Poissons Ratio (z) = 1.03503 0.93567
#
# Static dielectric constant tensor:
#      x y z
#    x 1.613940 0.000000 0.000000 
#    y 0.000000 1.623030 0.000000 
#    z 0.000000 0.000000 1.615530 
# 
# From -- ./inp_files/7397.got.cif
#   From: 2010.05.17/outbox.cif.g08.bks.cpg/sg65_4_cif.got.tgz:7397.got - 2010.06.03 17:01:31.
