data_PCOD9492889
_publ_section_title
;
Structure prediction by ZEFSAII (Michael W. Deem and Ramdas Pophale) SiO2 
 PCOD9492889
Probable space group: C M M M
;
_chemical_formula_sum "Si O2"
_cell_formula_units_Z 76
_cell_length_a 14.424577
_cell_length_b 11.199800
_cell_length_c 24.547122
_cell_angle_alpha 90.000000
_cell_angle_beta 90.000000
_cell_angle_gamma 90.000000
_cell_volume 3965.645920
_symmetry_space_group_name_H-M "C M M M"
_symmetry_group_IT_number 65
_symmetry_cell_setting 'orthorhombic'
loop_
_space_group_symop_operation_xyz
x,y,z
-x,-y,z
x,-y,-z
-x,y,-z
-x,-y,-z
x,y,-z
-x,y,z
x,-y,z
1/2+x,1/2+y,z
1/2-x,1/2-y,z
1/2+x,1/2-y,-z
1/2-x,1/2+y,-z
1/2-x,1/2-y,-z
1/2+x,1/2+y,-z
1/2-x,1/2+y,z
1/2+x,1/2-y,z
loop_
_atom_site_type_symbol
_atom_site_label
_atom_site_fract_x
_atom_site_fract_y
_atom_site_fract_z
Si Si1 0.500000 0.858927 0.562958
Si Si2 0.500000 0.359078 0.720255
Si Si3 0.147762 0.220016 0.367593
Si Si4 0.391183 0.500000 0.435909
Si Si5 0.500000 0.751907 0.838198
Si Si6 0.000000 0.000000 0.902590
Si Si7 0.791165 0.000000 0.062409
Si Si8 0.198800 0.634616 0.844316
O O1 0.500000 0.809494 0.500000
O O2 0.411694 0.816603 0.598422
O O3 0.500000 0.000000 0.558896
O O4 0.500000 0.500000 0.732900
O O5 0.587468 0.325770 0.682898
O O6 0.500000 0.281349 0.774522
O O7 0.250000 0.250000 0.349101
O O8 0.156087 0.114125 0.410899
O O9 0.500000 0.500000 0.418532
O O10 0.388684 0.500000 0.500000
O O11 0.500000 0.623205 0.868095
O O12 0.407608 0.827040 0.851119
O O13 0.097444 0.000000 0.934229
O O14 0.750196 0.890185 0.097928
O O15 0.761253 0.000000 0.000000
O O16 0.205439 0.500000 0.818029
O O17 0.250000 0.750000 0.818167
#
# Coordination Sequence:
#
# PCOD9492889 Si02
#       8
#     8   8  16   8   8   4   8  16
#     4  10  22  38  57  87 130 169 203 256 320 385
#     4  11  23  44  69  92 124 170 217 274 332 381
#     4  11  23  41  61  91 128 159 214 267 319 388
#     4  11  20  37  67  88 120 165 204 258 315 385
#     4  12  22  42  67  97 130 173 225 279 336 398
#     4  12  21  40  66 100 132 178 225 272 324 390
#     4  10  23  43  68 102 140 180 221 269 334 394
#     4  10  22  42  66  96 140 172 220 278 325 390
#
# _framework density 19.164594999999998
#
# number of rings (size 3 to 8) (size 9 to 14) (size 15 to 20)
#    0.632    0.632    5.789    1.105    1.474    2.947 
#    0.000    5.263    0.000    0.000    0.000    0.000 
#    0.000    0.000    0.000    0.000    0.000    0.000 
#
# Total GULP energy -211820.057247 kJ/mol
# GULP energy per Si atom -5574.212033 kJ/mol
# Density = 1.912098 g / cm^3
# Si number density = 19.164595 Si / 1000 Ang^3
#
#
#
# Elastic Constant Matrix: (Units=GPa)
#
#
# Indices 1 2 3 4 5 6 
#
# 1 149.0428 35.8818 21.0733 0.0000 0.0000 0.0000
# 2 35.8818 123.2058 11.8584 0.0000 0.0000 0.0000
# 3 21.0733 11.8584 68.6792 0.0000 0.0000 0.0000
# 4 0.0000 0.0000 0.0000 8.1742 0.0000 0.0000
# 5 0.0000 0.0000 0.0000 0.0000 303.0121 0.0000
# 6 0.0000 0.0000 0.0000 0.0000 0.0000 15.1379
#
#
#
# Elastic Compliance Matrix: (Units=1/GPa)
#
#
# Indices 1 2 3 4 5 6 
#
# 1 0.007463 -0.001986 -0.001947 0.000000 0.000000 0.000000
# 2 -0.001986 0.008782 -0.000907 0.000000 0.000000 0.000000
# 3 -0.001947 -0.000907 0.015314 0.000000 0.000000 0.000000
# 4 0.000000 0.000000 0.000000 0.122337 0.000000 0.000000
# 5 0.000000 0.000000 0.000000 0.000000 0.003300 0.000000
# 6 0.000000 0.000000 0.000000 0.000000 0.000000 0.066059
#
#
# Mechanical properties :
#
#
# Convention : Reuss Voigt Hill
#
# Bulk Modulus (GPa) = 45.70476 53.17274 49.43875
# Shear Modulus (GPa) = 20.81346 83.40578 52.10962
#
# Velocity S-wave (km/s) = 3.29908 6.60418 5.22011
# Velocity P-wave (km/s) = 6.19776 9.27142 7.88579
#
# Compressibility (1/GPa) = 0.02187956
#
# Stress axis : x y z
#
# Youngs Moduli (GPa) = 133.99605 113.86658 65.29775
#
# Poissons Ratio (x) = 0.22615 0.12713
# Poissons Ratio (y) = 0.26612 0.05922
# Poissons Ratio (z) = 0.26089 0.10327
#
# Static dielectric constant tensor:
#      x y z
#    x 1.622860 0.000000 0.000000 
#    y 0.000000 1.705750 0.000000 
#    z 0.000000 0.000000 1.631130 
# 
# From -- ./inp_files/69776.got.cif
#   From: 2010.05.17/outbox.cif.g08.bks.cpg/sg65_35_cif.got.tgz:69776.got - 2010.06.03 17:01:31.
