data_PCOD9492068
_publ_section_title
;
Structure prediction by ZEFSAII (Michael W. Deem and Ramdas Pophale) SiO2 
 PCOD9492068
Probable space group: C M M M
;
_chemical_formula_sum "Si O2"
_cell_formula_units_Z 80
_cell_length_a 8.360539
_cell_length_b 18.844890
_cell_length_c 27.014171
_cell_angle_alpha 90.000000
_cell_angle_beta 90.000000
_cell_angle_gamma 90.000000
_cell_volume 4256.175510
_symmetry_space_group_name_H-M "C M M M"
_symmetry_group_IT_number 65
_symmetry_cell_setting 'orthorhombic'
loop_
_space_group_symop_operation_xyz
x,y,z
-x,-y,z
x,-y,-z
-x,y,-z
-x,-y,-z
x,y,-z
-x,y,z
x,-y,z
1/2+x,1/2+y,z
1/2-x,1/2-y,z
1/2+x,1/2-y,-z
1/2-x,1/2+y,-z
1/2-x,1/2-y,-z
1/2+x,1/2+y,-z
1/2-x,1/2+y,z
1/2+x,1/2-y,z
loop_
_atom_site_type_symbol
_atom_site_label
_atom_site_fract_x
_atom_site_fract_y
_atom_site_fract_z
Si Si1 0.810119 0.669473 0.755827
Si Si2 0.193982 0.082841 0.661287
Si Si3 0.193331 0.169889 0.055779
Si Si4 0.809644 0.085873 0.446850
Si Si5 0.193482 0.918963 0.850014
O O1 0.750000 0.750000 0.756735
O O2 0.753913 0.630101 0.706076
O O3 0.745315 0.626846 0.803102
O O4 0.000000 0.669430 0.757675
O O5 0.252237 0.108792 0.606938
O O6 0.000000 0.084171 0.660737
O O7 0.240860 0.000000 0.667918
O O8 0.250000 0.250000 0.065694
O O9 0.248974 0.117918 0.099123
O O10 0.000000 0.169550 0.055991
O O11 0.246124 0.150378 0.000000
O O12 0.742218 0.110903 0.500000
O O13 0.000000 0.101234 0.447485
O O14 0.795829 0.000000 0.446383
O O15 0.000000 0.920023 0.850941
O O16 0.249834 0.000000 0.845954
#
# Coordination Sequence:
#
# PCOD9492068 Si02
#       5
#    16  16  16  16  16
#     4  12  25  39  55  74 100 135 176 220 264 313
#     4   9  17  31  53  80 109 138 169 209 256 306
#     4   9  18  33  54  80 109 142 178 213 251 298
#     4   7  10  19  40  72 105 134 165 201 243 295
#     4  10  21  37  57  81 109 139 172 213 260 309
#
# _framework density 18.796218
#
# number of rings (size 3 to 8) (size 9 to 14) (size 15 to 20)
#    0.000    2.600    0.000    4.800    0.000    6.000 
#    0.000    2.000    0.000    1.200    0.000    7.000 
#    0.000    0.000    0.000    0.000    0.000    0.000 
#
# Total GULP energy -223019.275412 kJ/mol
# GULP energy per Si atom -5575.481885 kJ/mol
# Density = 1.875344 g / cm^3
# Si number density = 18.796218 Si / 1000 Ang^3
#
#
#
# Elastic Constant Matrix: (Units=GPa)
#
#
# Indices 1 2 3 4 5 6 
#
# 1 16.7713 19.5287 24.1160 0.0000 0.0000 0.0000
# 2 19.5287 121.0264 114.5574 0.0000 0.0000 0.0000
# 3 24.1160 114.5574 212.8776 0.0000 0.0000 0.0000
# 4 0.0000 0.0000 0.0000 -21.5714 0.0000 0.0000
# 5 0.0000 0.0000 0.0000 0.0000 -14.0399 0.0000
# 6 0.0000 0.0000 0.0000 0.0000 0.0000 21.0659
#
#
#
# Elastic Compliance Matrix: (Units=1/GPa)
#
#
# Indices 1 2 3 4 5 6 
#
# 1 0.075095 -0.008285 -0.004049 0.000000 0.000000 0.000000
# 2 -0.008285 0.017755 -0.008616 0.000000 0.000000 0.000000
# 3 -0.004049 -0.008616 0.009793 0.000000 0.000000 0.000000
# 4 0.000000 0.000000 0.000000 -0.046358 0.000000 0.000000
# 5 0.000000 0.000000 0.000000 0.000000 -0.071226 0.000000
# 6 0.000000 0.000000 0.000000 0.000000 0.000000 0.047470
#
#
# Mechanical properties :
#
#
# Convention : Reuss Voigt Hill
#
# Bulk Modulus (GPa) = 16.46277 74.11995 45.29136
# Shear Modulus (GPa) = 52.81153 9.92247 31.36700
#
# Velocity S-wave (km/s) = 5.30640 2.30009 4.08952
# Velocity P-wave (km/s) = 6.80598 6.82444 6.81522
#
# Compressibility (1/GPa) = 0.06074313
#
# Stress axis : x y z
#
# Youngs Moduli (GPa) = 13.31653 56.32199 102.11521
#
# Poissons Ratio (x) = 0.46662 0.41344
# Poissons Ratio (y) = 0.11032 0.87984
# Poissons Ratio (z) = 0.05392 0.48528
#
# Static dielectric constant tensor:
#      x y z
#    x 1.652230 0.000000 0.000000 
#    y 0.000000 1.570670 0.000000 
#    z 0.000000 0.000000 1.689130 
# 
# From -- ./inp_files/72754.got.cif
#   From: 2010.05.17/outbox.cif.g08.bks.cpg/sg65_37_cif.got.tgz:72754.got - 2010.06.03 17:01:31.
