data_PCOD9492170
_publ_section_title
;
Structure prediction by ZEFSAII (Michael W. Deem and Ramdas Pophale) SiO2 
 PCOD9492170
Probable space group: C M M M
;
_chemical_formula_sum "Si O2"
_cell_formula_units_Z 88
_cell_length_a 24.126383
_cell_length_b 8.528940
_cell_length_c 23.410207
_cell_angle_alpha 90.000000
_cell_angle_beta 90.000000
_cell_angle_gamma 90.000000
_cell_volume 4817.176188
_symmetry_space_group_name_H-M "C M M M"
_symmetry_group_IT_number 65
_symmetry_cell_setting 'orthorhombic'
loop_
_space_group_symop_operation_xyz
x,y,z
-x,-y,z
x,-y,-z
-x,y,-z
-x,-y,-z
x,y,-z
-x,y,z
x,-y,z
1/2+x,1/2+y,z
1/2-x,1/2-y,z
1/2+x,1/2-y,-z
1/2-x,1/2+y,-z
1/2-x,1/2-y,-z
1/2+x,1/2+y,-z
1/2-x,1/2+y,z
1/2+x,1/2-y,z
loop_
_atom_site_type_symbol
_atom_site_label
_atom_site_fract_x
_atom_site_fract_y
_atom_site_fract_z
Si Si1 0.687642 0.812131 0.715097
Si Si2 0.390358 0.314116 0.381449
Si Si3 0.500000 0.316157 0.799634
Si Si4 0.883759 0.690307 0.827490
Si Si5 0.687755 0.811132 0.063245
Si Si6 0.434515 0.187781 0.500000
Si Si7 0.000000 0.316673 0.323534
O O1 0.750000 0.750000 0.722155
O O2 0.660021 0.752682 0.656288
O O3 0.648911 0.765102 0.769151
O O4 0.688708 0.000000 0.714181
O O5 0.385082 0.500000 0.384912
O O6 0.401818 0.245899 0.444244
O O7 0.445698 0.265177 0.347684
O O8 0.500000 0.500000 0.784135
O O9 0.443294 0.271389 0.830585
O O10 0.500000 0.207159 0.743694
O O11 0.889933 0.500000 0.826786
O O12 0.848581 0.737587 0.882890
O O13 0.750000 0.750000 0.069944
O O14 0.689100 0.000000 0.063774
O O15 0.667655 0.761130 0.000000
O O16 0.500000 0.241471 0.500000
O O17 0.436201 0.000000 0.500000
O O18 0.000000 0.500000 0.339376
#
# Coordination Sequence:
#
# PCOD9492170 Si02
#       7
#    16  16   8  16  16   8   8
#     4  11  23  39  60  85 117 155 196 241 293 348
#     4  12  24  39  61  90 121 153 196 243 289 344
#     4  12  24  36  56  86 116 151 193 240 292 350
#     4  10  21  37  58  83 117 156 192 238 294 350
#     4   9  18  34  57  85 115 152 197 242 289 342
#     4  11  23  39  62  89 121 158 194 237 293 347
#     4  12  22  37  59  85 119 156 190 235 295 350
#
# _framework density 18.267963000000002
#
# number of rings (size 3 to 8) (size 9 to 14) (size 15 to 20)
#    0.000    1.182    2.727    4.636    0.000    1.818 
#    0.000    0.909    0.000    2.727    0.000    0.000 
#    0.000    0.000    0.000    0.000    0.000    0.000 
#
# Total GULP energy -245787.605602 kJ/mol
# GULP energy per Si atom -5586.081946 kJ/mol
# Density = 1.822638 g / cm^3
# Si number density = 18.267963 Si / 1000 Ang^3
#
#
#
# Elastic Constant Matrix: (Units=GPa)
#
#
# Indices 1 2 3 4 5 6 
#
# 1 126.7439 35.2664 70.5892 0.0000 0.0000 0.0000
# 2 35.2664 65.2567 32.8576 0.0000 0.0000 0.0000
# 3 70.5892 32.8576 145.5608 0.0000 0.0000 0.0000
# 4 0.0000 0.0000 0.0000 13.4931 0.0000 0.0000
# 5 0.0000 0.0000 0.0000 0.0000 34.9335 0.0000
# 6 0.0000 0.0000 0.0000 0.0000 0.0000 31.3073
#
#
#
# Elastic Compliance Matrix: (Units=1/GPa)
#
#
# Indices 1 2 3 4 5 6 
#
# 1 0.011621 -0.003884 -0.004759 0.000000 0.000000 0.000000
# 2 -0.003884 0.018587 -0.002312 0.000000 0.000000 0.000000
# 3 -0.004759 -0.002312 0.009700 0.000000 0.000000 0.000000
# 4 0.000000 0.000000 0.000000 0.074112 0.000000 0.000000
# 5 0.000000 0.000000 0.000000 0.000000 0.028626 0.000000
# 6 0.000000 0.000000 0.000000 0.000000 0.000000 0.031941
#
#
# Mechanical properties :
#
#
# Convention : Reuss Voigt Hill
#
# Bulk Modulus (GPa) = 55.56215 68.33199 61.94707
# Shear Modulus (GPa) = 24.69170 29.20332 26.94751
#
# Velocity S-wave (km/s) = 3.68045 4.00260 3.84490
# Velocity P-wave (km/s) = 6.96722 7.67122 7.32768
#
# Compressibility (1/GPa) = 0.01799786
#
# Stress axis : x y z
#
# Youngs Moduli (GPa) = 86.05041 53.79989 103.09626
#
# Poissons Ratio (x) = 0.20897 0.49062
# Poissons Ratio (y) = 0.33424 0.23837
# Poissons Ratio (z) = 0.40950 0.12439
#
# Static dielectric constant tensor:
#      x y z
#    x 1.610260 0.000000 0.000000 
#    y 0.000000 1.614360 0.000000 
#    z 0.000000 0.000000 1.643150 
# 
# From -- ./inp_files/71070.got.cif
#   From: 2010.05.17/outbox.cif.g08.bks.cpg/sg65_36_cif.got.tgz:71070.got - 2010.06.03 17:01:31.
