data_PCOD9492150
_publ_section_title
;
Structure prediction by ZEFSAII (Michael W. Deem and Ramdas Pophale) SiO2 
 PCOD9492150
Probable space group: C M M M
;
_chemical_formula_sum "Si O2"
_cell_formula_units_Z 104
_cell_length_a 8.496669
_cell_length_b 32.279011
_cell_length_c 19.976305
_cell_angle_alpha 90.000000
_cell_angle_beta 90.000000
_cell_angle_gamma 90.000000
_cell_volume 5478.782755
_symmetry_space_group_name_H-M "C M M M"
_symmetry_group_IT_number 65
_symmetry_cell_setting 'orthorhombic'
loop_
_space_group_symop_operation_xyz
x,y,z
-x,-y,z
x,-y,-z
-x,y,-z
-x,-y,-z
x,y,-z
-x,y,z
x,-y,z
1/2+x,1/2+y,z
1/2-x,1/2-y,z
1/2+x,1/2-y,-z
1/2-x,1/2+y,-z
1/2-x,1/2-y,-z
1/2+x,1/2+y,-z
1/2-x,1/2+y,z
1/2+x,1/2-y,z
loop_
_atom_site_type_symbol
_atom_site_label
_atom_site_fract_x
_atom_site_fract_y
_atom_site_fract_z
Si Si1 0.312053 0.205540 0.286316
Si Si2 0.191899 0.045115 0.283220
Si Si3 0.687858 0.372633 0.794687
Si Si4 0.190166 0.924206 0.573702
Si Si5 0.187670 0.410763 0.922673
Si Si6 0.178391 0.000000 0.918734
Si Si7 0.309756 0.829999 0.573866
O O1 0.500000 0.206367 0.287162
O O2 0.250000 0.250000 0.264085
O O3 0.257049 0.167888 0.239888
O O4 0.254573 0.195905 0.362220
O O5 0.245619 0.085746 0.243567
O O6 0.239366 0.050606 0.360907
O O7 0.000000 0.045432 0.280696
O O8 0.243976 0.000000 0.257859
O O9 0.500000 0.371191 0.788825
O O10 0.736465 0.378741 0.871456
O O11 0.241220 0.939388 0.500000
O O12 0.249091 0.877041 0.581037
O O13 0.000000 0.923746 0.573970
O O14 0.238624 0.457127 0.900958
O O15 0.000000 0.407813 0.920125
O O16 0.238232 0.405077 0.000000
O O17 0.000000 0.000000 0.892471
O O18 0.173222 0.000000 0.000000
O O19 0.259442 0.814868 0.500000
O O20 0.500000 0.830893 0.574902
#
# Coordination Sequence:
#
# PCOD9492150 Si02
#       7
#    16  16  16  16  16   8  16
#     4  11  23  39  60  84 113 146 187 235 289 348
#     4   9  18  31  48  76 112 147 187 234 279 325
#     4  11  22  37  59  84 115 151 190 234 285 342
#     4   9  16  28  49  74 102 141 189 237 280 325
#     4  10  21  37  57  83 117 155 193 235 284 337
#     4   9  17  31  53  83 117 153 194 235 276 327
#     4   9  18  33  53  77 107 143 181 228 285 340
#
# _framework density 18.982320000000001
#
# number of rings (size 3 to 8) (size 9 to 14) (size 15 to 20)
#    0.000    2.231    1.538    1.615    1.077    3.077 
#    0.000    1.538    0.000    2.769    0.000    2.154 
#    0.000    0.000    0.000    0.000    0.000    0.000 
#
# Total GULP energy -290249.850358 kJ/mol
# GULP energy per Si atom -5581.727891 kJ/mol
# Density = 1.893912 g / cm^3
# Si number density = 18.982320 Si / 1000 Ang^3
#
#
#
# Elastic Constant Matrix: (Units=GPa)
#
#
# Indices 1 2 3 4 5 6 
#
# 1 26.9979 24.2810 22.7639 0.0000 0.0000 0.0000
# 2 24.2810 133.2396 71.3380 0.0000 0.0000 0.0000
# 3 22.7639 71.3380 109.1900 0.0000 0.0000 0.0000
# 4 0.0000 0.0000 0.0000 2367.3263 0.0000 0.0000
# 5 0.0000 0.0000 0.0000 0.0000 18.4249 0.0000
# 6 0.0000 0.0000 0.0000 0.0000 0.0000 23.7149
#
#
#
# Elastic Compliance Matrix: (Units=1/GPa)
#
#
# Indices 1 2 3 4 5 6 
#
# 1 0.047102 -0.005115 -0.006478 0.000000 0.000000 0.000000
# 2 -0.005115 0.012099 -0.006838 0.000000 0.000000 0.000000
# 3 -0.006478 -0.006838 0.014976 0.000000 0.000000 0.000000
# 4 0.000000 0.000000 0.000000 0.000422 0.000000 0.000000
# 5 0.000000 0.000000 0.000000 0.000000 0.054274 0.000000
# 6 0.000000 0.000000 0.000000 0.000000 0.000000 0.042168
#
#
# Mechanical properties :
#
#
# Convention : Reuss Voigt Hill
#
# Bulk Modulus (GPa) = 26.79893 56.24370 41.52131
# Shear Modulus (GPa) = 22.69193 491.96286 257.32740
#
# Velocity S-wave (km/s) = 3.46124 16.11619 11.65572
# Velocity P-wave (km/s) = 5.48836 19.39079 14.25000
#
# Compressibility (1/GPa) = 0.03731492
#
# Stress axis : x y z
#
# Youngs Moduli (GPa) = 21.23034 82.65375 66.77174
#
# Poissons Ratio (x) = 0.42281 0.43253
# Poissons Ratio (y) = 0.10860 0.45659
# Poissons Ratio (z) = 0.13752 0.56519
#
# Static dielectric constant tensor:
#      x y z
#    x 1.642190 0.000000 0.000000 
#    y 0.000000 1.635220 0.000000 
#    z 0.000000 0.000000 1.702850 
# 
# From -- ./inp_files/60380.got.cif
#   From: 2010.05.17/outbox.cif.g08.bks.cpg/sg65_31_cif.got.tgz:60380.got - 2010.06.03 17:01:31.
