data_PCOD9492301
_publ_section_title
;
Structure prediction by ZEFSAII (Michael W. Deem and Ramdas Pophale) SiO2 
 PCOD9492301
Probable space group: C M M M
;
_chemical_formula_sum "Si O2"
_cell_formula_units_Z 50
_cell_length_a 15.386770
_cell_length_b 7.423932
_cell_length_c 22.138250
_cell_angle_alpha 90.000000
_cell_angle_beta 90.000000
_cell_angle_gamma 90.000000
_cell_volume 2528.859696
_symmetry_space_group_name_H-M "C M M M"
_symmetry_group_IT_number 65
_symmetry_cell_setting 'orthorhombic'
loop_
_space_group_symop_operation_xyz
x,y,z
-x,-y,z
x,-y,-z
-x,y,-z
-x,-y,-z
x,y,-z
-x,y,z
x,-y,z
1/2+x,1/2+y,z
1/2-x,1/2-y,z
1/2+x,1/2-y,-z
1/2-x,1/2+y,-z
1/2-x,1/2-y,-z
1/2+x,1/2+y,-z
1/2-x,1/2+y,z
1/2+x,1/2-y,z
loop_
_atom_site_type_symbol
_atom_site_label
_atom_site_fract_x
_atom_site_fract_y
_atom_site_fract_z
Si Si1 0.893734 0.000000 0.431180
Si Si2 0.500000 0.779132 0.887703
Si Si3 0.605310 0.207336 0.335231
Si Si4 0.500000 0.500000 0.000000
Si Si5 0.152265 0.286627 0.203194
O O1 0.867410 0.827450 0.391704
O O2 0.862921 0.000000 0.500000
O O3 0.000000 0.000000 0.432885
O O4 0.500000 0.659491 0.947229
O O5 0.417038 0.729190 0.846343
O O6 0.500000 0.000000 0.897922
O O7 0.500000 0.209660 0.331746
O O8 0.638078 0.283835 0.271134
O O9 0.633077 0.000000 0.342439
O O10 0.138317 0.500000 0.209374
O O11 0.250000 0.250000 0.183446
#
# Coordination Sequence:
#
# PCOD9492301 Si02
#       5
#     8   8  16   2  16
#     4   9  18  29  47  78 114 154 199 247 297 356
#     4  10  23  45  65  92 131 159 197 246 293 356
#     4   9  17  32  53  80 112 151 192 245 306 359
#     4  12  26  40  76  90 120 174 208 216 296 354
#     4  10  21  37  63  93 122 153 198 256 310 348
#
# _framework density 19.771757999999998
#
# number of rings (size 3 to 8) (size 9 to 14) (size 15 to 20)
#    0.000    2.400    1.600    0.240    4.480    0.640 
#    0.000    4.000    0.000    0.960    0.000    0.000 
#    0.000    0.000    0.000    0.000    0.000    0.000 
#
# Total GULP energy -139280.098806 kJ/mol
# GULP energy per Si atom -5571.203952 kJ/mol
# Density = 1.972676 g / cm^3
# Si number density = 19.771758 Si / 1000 Ang^3
#
#
#
# Elastic Constant Matrix: (Units=GPa)
#
#
# Indices 1 2 3 4 5 6 
#
# 1 83.1037 24.2644 71.7693 0.0000 0.0000 0.0000
# 2 24.2644 113.4929 83.3969 0.0000 0.0000 0.0000
# 3 71.7693 83.3969 226.6251 0.0000 0.0000 0.0000
# 4 0.0000 0.0000 0.0000 70.0895 0.0000 0.0000
# 5 0.0000 0.0000 0.0000 0.0000 -2.7058 0.0000
# 6 0.0000 0.0000 0.0000 0.0000 0.0000 12.5849
#
#
#
# Elastic Compliance Matrix: (Units=1/GPa)
#
#
# Indices 1 2 3 4 5 6 
#
# 1 0.016578 0.000430 -0.005408 0.000000 0.000000 0.000000
# 2 0.000430 0.012088 -0.004584 0.000000 0.000000 0.000000
# 3 -0.005408 -0.004584 0.007812 0.000000 0.000000 0.000000
# 4 0.000000 0.000000 0.000000 0.014267 0.000000 0.000000
# 5 0.000000 0.000000 0.000000 0.000000 -0.369574 0.000000
# 6 0.000000 0.000000 0.000000 0.000000 0.000000 0.079460
#
#
# Mechanical properties :
#
#
# Convention : Reuss Voigt Hill
#
# Bulk Modulus (GPa) = 57.62780 86.89811 72.26295
# Shear Modulus (GPa) = -23.31465 32.24646 4.46590
#
# Velocity S-wave (km/s) = -3.43766 4.04287 1.50454
# Velocity P-wave (km/s) = 3.66785 8.11413 6.29651
#
# Compressibility (1/GPa) = 0.01735274
#
# Stress axis : x y z
#
# Youngs Moduli (GPa) = 60.31962 82.72699 128.00244
#
# Poissons Ratio (x) = -0.03555 0.69228
# Poissons Ratio (y) = -0.02592 0.58681
# Poissons Ratio (z) = 0.32623 0.37925
#
# Static dielectric constant tensor:
#      x y z
#    x 1.692900 0.000000 0.000000 
#    y 0.000000 1.741410 0.000000 
#    z 0.000000 0.000000 1.656000 
# 
# From -- ./inp_files/53830.got.cif
#   From: 2010.05.17/outbox.cif.g08.bks.cpg/sg65_27_cif.got.tgz:53830.got - 2010.06.03 17:01:31.
