data_PCOD9492993
_publ_section_title
;
Structure prediction by ZEFSAII (Michael W. Deem and Ramdas Pophale) SiO2 
 PCOD9492993
Probable space group: C M M M
;
_chemical_formula_sum "Si O2"
_cell_formula_units_Z 96
_cell_length_a 8.230387
_cell_length_b 24.175844
_cell_length_c 26.916627
_cell_angle_alpha 90.000000
_cell_angle_beta 90.000000
_cell_angle_gamma 90.000000
_cell_volume 5355.777637
_symmetry_space_group_name_H-M "C M M M"
_symmetry_group_IT_number 65
_symmetry_cell_setting 'orthorhombic'
loop_
_space_group_symop_operation_xyz
x,y,z
-x,-y,z
x,-y,-z
-x,y,-z
-x,-y,-z
x,y,-z
-x,y,z
x,-y,z
1/2+x,1/2+y,z
1/2-x,1/2-y,z
1/2+x,1/2-y,-z
1/2-x,1/2+y,-z
1/2-x,1/2-y,-z
1/2+x,1/2+y,-z
1/2-x,1/2+y,z
1/2+x,1/2-y,z
loop_
_atom_site_type_symbol
_atom_site_label
_atom_site_fract_x
_atom_site_fract_y
_atom_site_fract_z
Si Si1 0.194101 0.115128 0.756216
Si Si2 0.311292 0.000000 0.795016
Si Si3 0.196626 0.813832 0.337724
Si Si4 0.303786 0.685913 0.553343
Si Si5 0.195650 0.313169 0.149929
Si Si6 0.310441 0.500000 0.906345
Si Si7 0.805128 0.617951 0.055351
O O1 0.270612 0.055146 0.764690
O O2 0.253018 0.147574 0.707229
O O3 0.235667 0.152144 0.804066
O O4 0.000000 0.108666 0.752877
O O5 0.214183 0.000000 0.846904
O O6 0.500000 0.000000 0.809028
O O7 0.250000 0.750000 0.331147
O O8 0.251228 0.834685 0.392482
O O9 0.000000 0.813833 0.337091
O O10 0.247506 0.661819 0.500000
O O11 0.500000 0.683576 0.553289
O O12 0.250000 0.750000 0.553023
O O13 0.250000 0.250000 0.152986
O O14 0.254194 0.341292 0.098631
O O15 0.000000 0.316271 0.151819
O O16 0.500000 0.500000 0.918000
O O17 0.233824 0.555400 0.928742
O O18 0.000000 0.623616 0.053806
O O19 0.740857 0.629276 0.000000
#
# Coordination Sequence:
#
# PCOD9492993 Si02
#       7
#    16   8  16  16  16   8  16
#     4  11  22  37  56  79 106 135 172 217 263 312
#     4  12  24  39  59  80 103 134 170 212 264 317
#     4   9  18  30  47  74 107 141 175 211 254 302
#     4   8  13  23  40  64  97 136 174 210 248 293
#     4  11  23  38  57  79 107 142 178 213 255 308
#     4  12  23  37  60  87 110 133 169 215 262 310
#     4  10  22  40  60  81 108 142 176 213 259 309
#
# _framework density 17.924567
#
# number of rings (size 3 to 8) (size 9 to 14) (size 15 to 20)
#    0.000    1.833    1.667    3.250    0.000    5.000 
#    0.000    0.000    0.000    0.000    0.000    0.583 
#    0.000    4.667    0.000    0.000    0.000    0.000 
#
# Total GULP energy -267818.996340 kJ/mol
# GULP energy per Si atom -5579.562424 kJ/mol
# Density = 1.788377 g / cm^3
# Si number density = 17.924567 Si / 1000 Ang^3
#
#
#
# Elastic Constant Matrix: (Units=GPa)
#
#
# Indices 1 2 3 4 5 6 
#
# 1 10.0552 -4.9132 -2.5649 0.0000 0.0000 0.0000
# 2 -4.9132 103.6125 60.6504 0.0000 0.0000 0.0000
# 3 -2.5649 60.6504 173.4454 0.0000 0.0000 0.0000
# 4 0.0000 0.0000 0.0000 21.5929 0.0000 0.0000
# 5 0.0000 0.0000 0.0000 0.0000 16.6829 0.0000
# 6 0.0000 0.0000 0.0000 0.0000 0.0000 -94.9358
#
#
#
# Elastic Compliance Matrix: (Units=1/GPa)
#
#
# Indices 1 2 3 4 5 6 
#
# 1 0.101817 0.004962 -0.000230 0.000000 0.000000 0.000000
# 2 0.004962 0.012377 -0.004255 0.000000 0.000000 0.000000
# 3 -0.000230 -0.004255 0.007250 0.000000 0.000000 0.000000
# 4 0.000000 0.000000 0.000000 0.046312 0.000000 0.000000
# 5 0.000000 0.000000 0.000000 0.000000 0.059942 0.000000
# 6 0.000000 0.000000 0.000000 0.000000 0.000000 -0.010533
#
#
# Mechanical properties :
#
#
# Convention : Reuss Voigt Hill
#
# Bulk Modulus (GPa) = 8.16990 43.71753 25.94371
# Shear Modulus (GPa) = 19.45468 4.26405 11.85937
#
# Velocity S-wave (km/s) = 3.29806 1.54404 2.57500
# Velocity P-wave (km/s) = 4.36701 5.25561 4.83178
#
# Compressibility (1/GPa) = 0.12240048
#
# Stress axis : x y z
#
# Youngs Moduli (GPa) = 9.82154 80.79401 137.93339
#
# Poissons Ratio (x) = -0.40094 0.03167
# Poissons Ratio (y) = -0.04874 0.58686
# Poissons Ratio (z) = 0.00225 0.34375
#
# Static dielectric constant tensor:
#      x y z
#    x 1.630630 0.000000 0.000000 
#    y 0.000000 1.569280 0.000000 
#    z 0.000000 0.000000 1.665950 
# 
# From -- ./inp_files/73477.got.cif
#   From: 2010.05.17/outbox.cif.g08.bks.cpg/sg65_37_cif.got.tgz:73477.got - 2010.06.03 17:01:31.
