data_PCOD9492036
_publ_section_title
;
Structure prediction by ZEFSAII (Michael W. Deem and Ramdas Pophale) SiO2 
 PCOD9492036
Probable space group: C M M M
;
_chemical_formula_sum "Si O2"
_cell_formula_units_Z 64
_cell_length_a 13.820776
_cell_length_b 12.795615
_cell_length_c 17.892777
_cell_angle_alpha 90.000000
_cell_angle_beta 90.000000
_cell_angle_gamma 90.000000
_cell_volume 3164.254030
_symmetry_space_group_name_H-M "C M M M"
_symmetry_group_IT_number 65
_symmetry_cell_setting 'orthorhombic'
loop_
_space_group_symop_operation_xyz
x,y,z
-x,-y,z
x,-y,-z
-x,y,-z
-x,-y,-z
x,y,-z
-x,y,z
x,-y,z
1/2+x,1/2+y,z
1/2-x,1/2-y,z
1/2+x,1/2-y,-z
1/2-x,1/2+y,-z
1/2-x,1/2-y,-z
1/2+x,1/2+y,-z
1/2-x,1/2+y,z
1/2+x,1/2-y,z
loop_
_atom_site_type_symbol
_atom_site_label
_atom_site_fract_x
_atom_site_fract_y
_atom_site_fract_z
Si Si1 0.881964 0.119604 0.083182
Si Si2 0.889603 0.379560 0.342787
Si Si3 0.881503 0.303227 0.812662
Si Si4 0.382238 0.000000 0.914009
Si Si5 0.780507 0.624072 0.500000
O O1 0.851509 0.196180 0.148488
O O2 0.000000 0.120248 0.082978
O O3 0.851850 0.000000 0.093526
O O4 0.852430 0.155502 0.000000
O O5 0.892046 0.500000 0.316576
O O6 0.848443 0.317193 0.272384
O O7 0.836460 0.377701 0.421445
O O8 0.000000 0.345289 0.356469
O O9 0.853940 0.397632 0.867653
O O10 0.000000 0.305757 0.809153
O O11 0.500000 0.000000 0.916631
O O12 0.349181 0.000000 0.000000
O O13 0.733784 0.500000 0.500000
O O14 0.750000 0.750000 0.500000
#
# Coordination Sequence:
#
# PCOD9492036 Si02
#       5
#    16  16  16   8   8
#     4   8  13  20  29  44  74 120 164 190 215 265
#     4   9  16  29  50  75  99 126 163 204 245 299
#     4   9  14  21  34  56  86 117 151 190 231 274
#     4   9  14  18  28  51  87 123 145 172 226 281
#     4  10  21  37  57  77  99 130 162 206 254 308
#
# _framework density 20.225935
#
# number of rings (size 3 to 8) (size 9 to 14) (size 15 to 20)
#    0.000    3.125    1.250    1.875    0.000    4.500 
#    0.000    1.250    0.000    3.000    0.000    0.000 
#    0.000    4.000    1.500    0.000    0.000    0.000 
#
# Total GULP energy -178248.647981 kJ/mol
# GULP energy per Si atom -5570.270249 kJ/mol
# Density = 2.017990 g / cm^3
# Si number density = 20.225935 Si / 1000 Ang^3
#
#
#
# Elastic Constant Matrix: (Units=GPa)
#
#
# Indices 1 2 3 4 5 6 
#
# 1 47.2328 24.7420 18.7602 0.0000 0.0000 0.0000
# 2 24.7420 109.9547 71.4464 0.0000 0.0000 0.0000
# 3 18.7602 71.4464 177.4303 0.0000 0.0000 0.0000
# 4 0.0000 0.0000 0.0000 21.9473 0.0000 0.0000
# 5 0.0000 0.0000 0.0000 0.0000 -9.7213 0.0000
# 6 0.0000 0.0000 0.0000 0.0000 0.0000 24.9244
#
#
#
# Elastic Compliance Matrix: (Units=1/GPa)
#
#
# Indices 1 2 3 4 5 6 
#
# 1 0.024032 -0.005088 -0.000492 0.000000 0.000000 0.000000
# 2 -0.005088 0.013395 -0.004856 0.000000 0.000000 0.000000
# 3 -0.000492 -0.004856 0.007643 0.000000 0.000000 0.000000
# 4 0.000000 0.000000 0.000000 0.045564 0.000000 0.000000
# 5 0.000000 0.000000 0.000000 0.000000 -0.102866 0.000000
# 6 0.000000 0.000000 0.000000 0.000000 0.000000 0.040121
#
#
# Mechanical properties :
#
#
# Convention : Reuss Voigt Hill
#
# Bulk Modulus (GPa) = 41.32454 62.72390 52.02422
# Shear Modulus (GPa) = 87.98590 22.07466 55.03028
#
# Velocity S-wave (km/s) = 6.60272 3.30722 5.22177
# Velocity P-wave (km/s) = 8.86588 6.75741 7.88246
#
# Compressibility (1/GPa) = 0.02419869
#
# Stress axis : x y z
#
# Youngs Moduli (GPa) = 41.61034 74.65643 130.83301
#
# Poissons Ratio (x) = 0.37985 0.06440
# Poissons Ratio (y) = 0.21171 0.63529
# Poissons Ratio (z) = 0.02048 0.36251
#
# Static dielectric constant tensor:
#      x y z
#    x 1.794990 0.000000 0.000000 
#    y 0.000000 1.752680 0.000000 
#    z 0.000000 0.000000 1.664550 
# 
# From -- ./inp_files/50919.got.cif
#   From: 2010.05.17/outbox.cif.g08.bks.cpg/sg65_26_cif.got.tgz:50919.got - 2010.06.03 17:01:31.
