data_PCOD9492670
_publ_section_title
;
Structure prediction by ZEFSAII (Michael W. Deem and Ramdas Pophale) SiO2 
 PCOD9492670
Probable space group: C M M M
;
_chemical_formula_sum "Si O2"
_cell_formula_units_Z 72
_cell_length_a 15.940423
_cell_length_b 8.105133
_cell_length_c 27.846328
_cell_angle_alpha 90.000000
_cell_angle_beta 90.000000
_cell_angle_gamma 90.000000
_cell_volume 3597.724651
_symmetry_space_group_name_H-M "C M M M"
_symmetry_group_IT_number 65
_symmetry_cell_setting 'orthorhombic'
loop_
_space_group_symop_operation_xyz
x,y,z
-x,-y,z
x,-y,-z
-x,y,-z
-x,-y,-z
x,y,-z
-x,y,z
x,-y,z
1/2+x,1/2+y,z
1/2-x,1/2-y,z
1/2+x,1/2-y,-z
1/2-x,1/2+y,-z
1/2-x,1/2-y,-z
1/2+x,1/2+y,-z
1/2-x,1/2+y,z
1/2+x,1/2-y,z
loop_
_atom_site_type_symbol
_atom_site_label
_atom_site_fract_x
_atom_site_fract_y
_atom_site_fract_z
Si Si1 0.347379 0.300332 0.207929
Si Si2 0.653620 0.300990 0.897814
Si Si3 0.500000 0.806391 0.618815
Si Si4 0.098809 0.812916 0.000000
Si Si5 0.156820 0.802613 0.555086
Si Si6 0.000000 0.196552 0.272381
O O1 0.346775 0.500000 0.208070
O O2 0.250000 0.250000 0.215449
O O3 0.378375 0.246322 0.154553
O O4 0.414794 0.240159 0.246946
O O5 0.641908 0.500000 0.899040
O O6 0.750000 0.250000 0.896513
O O7 0.621486 0.234183 0.948855
O O8 0.417562 0.758748 0.588644
O O9 0.500000 0.725519 0.671078
O O10 0.500000 0.000000 0.626282
O O11 0.000000 0.829020 0.000000
O O12 0.136799 0.000000 0.000000
O O13 0.145530 0.741918 0.500000
O O14 0.250000 0.750000 0.570974
O O15 0.153570 0.000000 0.554276
O O16 0.000000 0.000000 0.264198
#
# Coordination Sequence:
#
# PCOD9492670 Si02
#       6
#    16  16   8   8  16   8
#     4   9  19  35  56  78 102 136 179 227 278 334
#     4   9  17  30  49  72  97 128 165 207 260 320
#     4  12  25  39  58  87 121 159 199 243 292 343
#     4   9  17  26  43  73 102 127 160 206 252 309
#     4  10  21  39  64  93 125 161 199 239 284 337
#     4  10  22  39  57  77 106 145 188 237 288 337
#
# _framework density 20.012649
#
# number of rings (size 3 to 8) (size 9 to 14) (size 15 to 20)
#    0.000    2.333    0.000    2.333    1.556    4.444 
#    0.000    2.222    0.000    1.333    0.000    0.000 
#    0.000    0.000    0.000    0.000    0.000    0.000 
#
# Total GULP energy -200669.532469 kJ/mol
# GULP energy per Si atom -5574.153680 kJ/mol
# Density = 1.996710 g / cm^3
# Si number density = 20.012649 Si / 1000 Ang^3
#
#
#
# Elastic Constant Matrix: (Units=GPa)
#
#
# Indices 1 2 3 4 5 6 
#
# 1 114.8745 -0.3791 86.5921 0.0000 0.0000 0.0000
# 2 -0.3791 15.0465 -7.4238 0.0000 0.0000 0.0000
# 3 86.5921 -7.4238 133.3930 0.0000 0.0000 0.0000
# 4 0.0000 0.0000 0.0000 27.8229 0.0000 0.0000
# 5 0.0000 0.0000 0.0000 0.0000 11.0328 0.0000
# 6 0.0000 0.0000 0.0000 0.0000 0.0000 24.7098
#
#
#
# Elastic Compliance Matrix: (Units=1/GPa)
#
#
# Indices 1 2 3 4 5 6 
#
# 1 0.017447 -0.005294 -0.011620 0.000000 0.000000 0.000000
# 2 -0.005294 0.069943 0.007329 0.000000 0.000000 0.000000
# 3 -0.011620 0.007329 0.015448 0.000000 0.000000 0.000000
# 4 0.000000 0.000000 0.000000 0.035942 0.000000 0.000000
# 5 0.000000 0.000000 0.000000 0.000000 0.090639 0.000000
# 6 0.000000 0.000000 0.000000 0.000000 0.000000 0.040470
#
#
# Mechanical properties :
#
#
# Convention : Reuss Voigt Hill
#
# Bulk Modulus (GPa) = 11.95200 46.76582 29.35891
# Shear Modulus (GPa) = 15.77545 25.01476 20.39510
#
# Velocity S-wave (km/s) = 2.81067 3.53929 3.19581
# Velocity P-wave (km/s) = 4.06427 6.33411 5.32162
#
# Compressibility (1/GPa) = 0.08366803
#
# Stress axis : x y z
#
# Youngs Moduli (GPa) = 57.31595 14.29730 64.73350
#
# Poissons Ratio (x) = 0.07569 0.75223
# Poissons Ratio (y) = 0.30342 -0.47444
# Poissons Ratio (z) = 0.66604 -0.10479
#
# Static dielectric constant tensor:
#      x y z
#    x 1.653860 0.000000 0.000000 
#    y 0.000000 1.735500 0.000000 
#    z 0.000000 0.000000 1.761040 
# 
# From -- ./inp_files/74667.got.cif
#   From: 2010.05.17/outbox.cif.g08.bks.cpg/sg65_38_cif.got.tgz:74667.got - 2010.06.03 17:01:31.
