data_PCOD9492385
_publ_section_title
;
Structure prediction by ZEFSAII (Michael W. Deem and Ramdas Pophale) SiO2 
 PCOD9492385
Probable space group: C M M M
;
_chemical_formula_sum "Si O2"
_cell_formula_units_Z 72
_cell_length_a 24.161491
_cell_length_b 8.665917
_cell_length_c 18.350788
_cell_angle_alpha 90.000000
_cell_angle_beta 90.000000
_cell_angle_gamma 90.000000
_cell_volume 3842.315070
_symmetry_space_group_name_H-M "C M M M"
_symmetry_group_IT_number 65
_symmetry_cell_setting 'orthorhombic'
loop_
_space_group_symop_operation_xyz
x,y,z
-x,-y,z
x,-y,-z
-x,y,-z
-x,-y,-z
x,y,-z
-x,y,z
x,-y,z
1/2+x,1/2+y,z
1/2-x,1/2-y,z
1/2+x,1/2-y,-z
1/2-x,1/2+y,-z
1/2-x,1/2-y,-z
1/2+x,1/2+y,-z
1/2-x,1/2+y,z
1/2+x,1/2-y,z
loop_
_atom_site_type_symbol
_atom_site_label
_atom_site_fract_x
_atom_site_fract_y
_atom_site_fract_z
Si Si1 0.500000 0.677293 0.779058
Si Si2 0.311754 0.813031 0.722162
Si Si3 0.380185 0.814232 0.420472
Si Si4 0.500000 0.676494 0.394544
Si Si5 0.392085 0.816001 0.850051
Si Si6 0.565396 0.315620 0.000000
O O1 0.500000 0.500000 0.807311
O O2 0.500000 0.673809 0.692710
O O3 0.446591 0.766895 0.806178
O O4 0.250000 0.750000 0.718282
O O5 0.346765 0.759982 0.650998
O O6 0.341659 0.765280 0.797737
O O7 0.311163 0.000000 0.721056
O O8 0.357022 0.766076 0.500000
O O9 0.443489 0.758801 0.417150
O O10 0.379796 0.000000 0.418048
O O11 0.500000 0.500000 0.419806
O O12 0.389186 0.000000 0.858221
O O13 0.401941 0.742180 0.928898
O O14 0.563737 0.500000 0.000000
O O15 0.500000 0.262286 0.000000
#
# Coordination Sequence:
#
# PCOD9492385 Si02
#       6
#     8  16  16   8  16   8
#     4  11  21  33  55  87 119 154 190 235 293 346
#     4  10  23  41  61  85 112 151 201 247 290 341
#     4  10  21  38  59  84 117 156 196 239 291 351
#     4  11  22  34  54  87 123 154 191 238 294 353
#     4  11  22  38  61  88 118 154 196 237 283 345
#     4  11  23  37  58  93 129 154 185 231 288 346
#
# _framework density 18.738703000000001
#
# number of rings (size 3 to 8) (size 9 to 14) (size 15 to 20)
#    0.000    1.444    3.333    2.000    0.000    6.222 
#    0.000    0.556    0.000    0.000    0.000    0.000 
#    0.000    0.000    0.000    0.000    0.000    0.000 
#
# Total GULP energy -200964.520741 kJ/mol
# GULP energy per Si atom -5582.347798 kJ/mol
# Density = 1.869605 g / cm^3
# Si number density = 18.738703 Si / 1000 Ang^3
#
#
#
# Elastic Constant Matrix: (Units=GPa)
#
#
# Indices 1 2 3 4 5 6 
#
# 1 132.0592 16.7686 77.3618 0.0000 0.0000 0.0000
# 2 16.7686 22.5195 36.4628 0.0000 0.0000 0.0000
# 3 77.3618 36.4628 190.2757 0.0000 0.0000 0.0000
# 4 0.0000 0.0000 0.0000 17.8159 0.0000 0.0000
# 5 0.0000 0.0000 0.0000 0.0000 1.3576 0.0000
# 6 0.0000 0.0000 0.0000 0.0000 0.0000 30.2185
#
#
#
# Elastic Compliance Matrix: (Units=1/GPa)
#
#
# Indices 1 2 3 4 5 6 
#
# 1 0.009964 -0.001247 -0.003812 0.000000 0.000000 0.000000
# 2 -0.001247 0.064539 -0.011861 0.000000 0.000000 0.000000
# 3 -0.003812 -0.011861 0.009078 0.000000 0.000000 0.000000
# 4 0.000000 0.000000 0.000000 0.056130 0.000000 0.000000
# 5 0.000000 0.000000 0.000000 0.000000 0.736616 0.000000
# 6 0.000000 0.000000 0.000000 0.000000 0.000000 0.033092
#
#
# Mechanical properties :
#
#
# Convention : Reuss Voigt Hill
#
# Bulk Modulus (GPa) = 20.10393 67.33787 43.72090
# Shear Modulus (GPa) = 5.20920 24.16246 14.68583
#
# Velocity S-wave (km/s) = 1.66912 3.59477 2.80253
# Velocity P-wave (km/s) = 3.80348 7.29678 5.81848
#
# Compressibility (1/GPa) = 0.04974153
#
# Stress axis : x y z
#
# Youngs Moduli (GPa) = 100.36236 15.49457 110.15224
#
# Poissons Ratio (x) = 0.01932 0.41992
# Poissons Ratio (y) = 0.12514 1.30648
# Poissons Ratio (z) = 0.38260 0.18378
#
# Static dielectric constant tensor:
#      x y z
#    x 1.588290 0.000000 0.000000 
#    y 0.000000 1.638310 0.000000 
#    z 0.000000 0.000000 1.692070 
# 
# From -- ./inp_files/56486.got.cif
#   From: 2010.05.17/outbox.cif.g08.bks.cpg/sg65_29_cif.got.tgz:56486.got - 2010.06.03 17:01:31.
