data_PCOD9492268
_publ_section_title
;
Structure prediction by ZEFSAII (Michael W. Deem and Ramdas Pophale) SiO2 
 PCOD9492268
Probable space group: C M M M
;
_chemical_formula_sum "Si O2"
_cell_formula_units_Z 116
_cell_length_a 26.162077
_cell_length_b 29.229101
_cell_length_c 8.827308
_cell_angle_alpha 90.000000
_cell_angle_beta 90.000000
_cell_angle_gamma 90.000000
_cell_volume 6750.189384
_symmetry_space_group_name_H-M "C M M M"
_symmetry_group_IT_number 65
_symmetry_cell_setting 'orthorhombic'
loop_
_space_group_symop_operation_xyz
x,y,z
-x,-y,z
x,-y,-z
-x,y,-z
-x,-y,-z
x,y,-z
-x,y,z
x,-y,z
1/2+x,1/2+y,z
1/2-x,1/2-y,z
1/2+x,1/2-y,-z
1/2-x,1/2+y,-z
1/2-x,1/2-y,-z
1/2+x,1/2+y,-z
1/2-x,1/2+y,z
1/2+x,1/2-y,z
loop_
_atom_site_type_symbol
_atom_site_label
_atom_site_fract_x
_atom_site_fract_y
_atom_site_fract_z
Si Si1 0.000000 0.174588 0.500000
Si Si2 0.889226 0.292058 0.817918
Si Si3 0.685391 0.630636 0.181544
Si Si4 0.441359 0.121108 0.681558
Si Si5 0.643238 0.945903 0.180760
Si Si6 0.272718 0.798507 0.183920
Si Si7 0.753310 0.945651 0.678349
Si Si8 0.602606 0.693509 0.667639
O O1 0.045530 0.177344 0.629503
O O2 0.926953 0.328831 0.744630
O O3 0.831217 0.304967 0.770360
O O4 0.898082 0.240533 0.761199
O O5 0.892747 0.294085 0.000000
O O6 0.733711 0.662165 0.228312
O O7 0.700223 0.581413 0.245884
O O8 0.635912 0.655103 0.249887
O O9 0.682109 0.629938 0.000000
O O10 0.437264 0.121431 0.500000
O O11 0.500000 0.109829 0.722464
O O12 0.401165 0.085005 0.748978
O O13 0.698938 0.933127 0.245807
O O14 0.635012 0.000000 0.213419
O O15 0.643985 0.939608 0.000000
O O16 0.250000 0.750000 0.236055
O O17 0.273084 0.797239 0.000000
O O18 0.751069 0.935571 0.500000
O O19 0.759383 0.000000 0.698346
O O20 0.625955 0.703128 0.500000
#
# Coordination Sequence:
#
# PCOD9492268 Si02
#       8
#     4  16  16  16  16  16  16  16
#     4   8  24  40  58  70 113 158 187 240 282 336
#     4  11  21  35  56  80 110 148 193 241 294 347
#     4  11  20  34  59  87 116 151 193 239 282 337
#     4  11  25  40  55  76 107 150 199 251 301 347
#     4  10  21  39  61  84 112 146 188 241 296 345
#     4   9  17  31  49  76 114 145 174 221 282 339
#     4  10  21  37  59  89 124 158 186 219 277 350
#     4  10  21  38  56  77 107 154 191 231 284 339
#
# _framework density 17.184702000000001
#
# number of rings (size 3 to 8) (size 9 to 14) (size 15 to 20)
#    0.414    1.379    1.379    3.310    0.966    4.138 
#    0.000    5.172    0.000    0.000    0.000    0.966 
#    0.000    1.103    0.000    0.000    0.000    0.000 
#
# Total GULP energy -323132.821263 kJ/mol
# GULP energy per Si atom -5571.255539 kJ/mol
# Density = 1.714559 g / cm^3
# Si number density = 17.184702 Si / 1000 Ang^3
#
#
#
# Elastic Constant Matrix: (Units=GPa)
#
#
# Indices 1 2 3 4 5 6 
#
# 1 120.9937 63.9592 53.7504 0.0000 0.0000 0.0000
# 2 63.9592 66.3645 48.0682 0.0000 0.0000 0.0000
# 3 53.7504 48.0682 71.5649 0.0000 0.0000 0.0000
# 4 0.0000 0.0000 0.0000 25.4359 0.0000 0.0000
# 5 0.0000 0.0000 0.0000 0.0000 22.6710 0.0000
# 6 0.0000 0.0000 0.0000 0.0000 0.0000 21.2159
#
#
#
# Elastic Compliance Matrix: (Units=1/GPa)
#
#
# Indices 1 2 3 4 5 6 
#
# 1 0.017285 -0.014129 -0.003492 0.000000 0.000000 0.000000
# 2 -0.014129 0.040894 -0.016855 0.000000 0.000000 0.000000
# 3 -0.003492 -0.016855 0.027917 0.000000 0.000000 0.000000
# 4 0.000000 0.000000 0.000000 0.039315 0.000000 0.000000
# 5 0.000000 0.000000 0.000000 0.000000 0.044109 0.000000
# 6 0.000000 0.000000 0.000000 0.000000 0.000000 0.047134
#
#
# Mechanical properties :
#
#
# Convention : Reuss Voigt Hill
#
# Bulk Modulus (GPa) = 58.33241 65.60874 61.97058
# Shear Modulus (GPa) = 17.16315 20.07427 18.61871
#
# Velocity S-wave (km/s) = 3.16372 3.42153 3.29515
# Velocity P-wave (km/s) = 6.88212 7.33966 7.11457
#
# Compressibility (1/GPa) = 0.01714313
#
# Stress axis : x y z
#
# Youngs Moduli (GPa) = 57.85276 24.45363 35.82018
#
# Poissons Ratio (x) = 0.34551 0.12509
# Poissons Ratio (y) = 0.81742 0.60375
# Poissons Ratio (z) = 0.20203 0.41217
#
# Static dielectric constant tensor:
#      x y z
#    x 1.564410 0.000000 0.000000 
#    y 0.000000 1.591110 0.000000 
#    z 0.000000 0.000000 1.583570 
# 
# From -- ./inp_files/17298.got.cif
#   From: 2010.05.17/outbox.cif.g08.bks.cpg/sg65_9_cif.got.tgz:17298.got - 2010.06.03 17:01:31.
