data_PCOD9492257
_publ_section_title
;
Structure prediction by ZEFSAII (Michael W. Deem and Ramdas Pophale) SiO2 
 PCOD9492257
Probable space group: C M M M
;
_chemical_formula_sum "Si O2"
_cell_formula_units_Z 66
_cell_length_a 15.593304
_cell_length_b 26.188090
_cell_length_c 8.984813
_cell_angle_alpha 90.000000
_cell_angle_beta 90.000000
_cell_angle_gamma 90.000000
_cell_volume 3669.027891
_symmetry_space_group_name_H-M "C M M M"
_symmetry_group_IT_number 65
_symmetry_cell_setting 'orthorhombic'
loop_
_space_group_symop_operation_xyz
x,y,z
-x,-y,z
x,-y,-z
-x,y,-z
-x,-y,-z
x,y,-z
-x,y,z
x,-y,z
1/2+x,1/2+y,z
1/2-x,1/2-y,z
1/2+x,1/2-y,-z
1/2-x,1/2+y,-z
1/2-x,1/2-y,-z
1/2+x,1/2+y,-z
1/2-x,1/2+y,z
1/2+x,1/2-y,z
loop_
_atom_site_type_symbol
_atom_site_label
_atom_site_fract_x
_atom_site_fract_y
_atom_site_fract_z
Si Si1 0.355030 0.137671 0.321171
Si Si2 0.600639 0.245656 0.824381
Si Si3 0.838272 0.153882 0.677328
Si Si4 0.000000 0.000000 0.000000
Si Si5 0.000000 0.105386 0.835960
Si Si6 0.500000 0.058354 0.681064
O O1 0.364176 0.143946 0.500000
O O2 0.383318 0.190032 0.243763
O O3 0.254643 0.130114 0.288750
O O4 0.416516 0.091201 0.274746
O O5 0.500000 0.258343 0.801815
O O6 0.655630 0.289093 0.743555
O O7 0.618737 0.245255 0.000000
O O8 0.848659 0.156372 0.500000
O O9 0.915372 0.122420 0.749766
O O10 0.000000 0.954367 0.873097
O O11 0.000000 0.131622 0.000000
O O12 0.500000 0.056487 0.500000
O O13 0.500000 0.000000 0.734782
#
# Coordination Sequence:
#
# PCOD9492257 Si02
#       6
#    16  16  16   2   8   8
#     4  10  21  37  59  87 120 155 198 245 294 351
#     4  11  22  35  56  86 122 163 197 237 291 357
#     4  11  22  36  60  93 120 152 194 246 301 353
#     4   8  24  44  66  80 108 158 206 228 306 368
#     4  10  21  42  62  81 113 151 196 239 290 360
#     4   9  18  37  61  83 111 152 195 240 289 343
#
# _framework density 17.988415
#
# number of rings (size 3 to 8) (size 9 to 14) (size 15 to 20)
#    0.364    1.333    2.424    2.545    0.000    5.818 
#    2.182    1.212    0.000    1.455    0.000    0.000 
#    0.000    0.000    0.000    0.000    0.000    0.000 
#
# Total GULP energy -183975.073930 kJ/mol
# GULP energy per Si atom -5575.002240 kJ/mol
# Density = 1.794747 g / cm^3
# Si number density = 17.988415 Si / 1000 Ang^3
#
#
#
# Elastic Constant Matrix: (Units=GPa)
#
#
# Indices 1 2 3 4 5 6 
#
# 1 152.0985 84.1711 65.0308 0.0000 0.0000 0.0000
# 2 84.1711 164.2662 41.5151 0.0000 0.0000 0.0000
# 3 65.0308 41.5151 55.7202 0.0000 0.0000 0.0000
# 4 0.0000 0.0000 0.0000 29.9177 0.0000 0.0000
# 5 0.0000 0.0000 0.0000 0.0000 12.3634 0.0000
# 6 0.0000 0.0000 0.0000 0.0000 0.0000 11.1940
#
#
#
# Elastic Compliance Matrix: (Units=1/GPa)
#
#
# Indices 1 2 3 4 5 6 
#
# 1 0.015008 -0.004020 -0.014520 0.000000 0.000000 0.000000
# 2 -0.004020 0.008577 -0.001698 0.000000 0.000000 0.000000
# 3 -0.014520 -0.001698 0.036158 0.000000 0.000000 0.000000
# 4 0.000000 0.000000 0.000000 0.033425 0.000000 0.000000
# 5 0.000000 0.000000 0.000000 0.000000 0.080884 0.000000
# 6 0.000000 0.000000 0.000000 0.000000 0.000000 0.089334
#
#
# Mechanical properties :
#
#
# Convention : Reuss Voigt Hill
#
# Bulk Modulus (GPa) = 51.90540 83.72430 67.81485
# Shear Modulus (GPa) = 16.11423 22.78619 19.45021
#
# Velocity S-wave (km/s) = 2.99626 3.56295 3.29182
# Velocity P-wave (km/s) = 6.39434 7.97312 7.22697
#
# Compressibility (1/GPa) = 0.01926582
#
# Stress axis : x y z
#
# Youngs Moduli (GPa) = 66.63261 116.59164 27.65622
#
# Poissons Ratio (x) = 0.46875 0.40157
# Poissons Ratio (y) = 0.26789 0.04697
# Poissons Ratio (z) = 0.96750 0.19799
#
# Static dielectric constant tensor:
#      x y z
#    x 1.634890 0.000000 0.000000 
#    y 0.000000 1.588010 0.000000 
#    z 0.000000 0.000000 1.600540 
# 
# From -- ./inp_files/7155.got.cif
#   From: 2010.05.17/outbox.cif.g08.bks.cpg/sg65_4_cif.got.tgz:7155.got - 2010.06.03 17:01:31.
