data_PCOD9492277
_publ_section_title
;
Structure prediction by ZEFSAII (Michael W. Deem and Ramdas Pophale) SiO2 
 PCOD9492277
Probable space group: C M M M
;
_chemical_formula_sum "Si O2"
_cell_formula_units_Z 56
_cell_length_a 10.535299
_cell_length_b 17.198475
_cell_length_c 16.136884
_cell_angle_alpha 90.000000
_cell_angle_beta 90.000000
_cell_angle_gamma 90.000000
_cell_volume 2923.859383
_symmetry_space_group_name_H-M "C M M M"
_symmetry_group_IT_number 65
_symmetry_cell_setting 'orthorhombic'
loop_
_space_group_symop_operation_xyz
x,y,z
-x,-y,z
x,-y,-z
-x,y,-z
-x,-y,-z
x,y,-z
-x,y,z
x,-y,z
1/2+x,1/2+y,z
1/2-x,1/2-y,z
1/2+x,1/2-y,-z
1/2-x,1/2+y,-z
1/2-x,1/2-y,-z
1/2+x,1/2+y,-z
1/2-x,1/2+y,z
1/2+x,1/2-y,z
loop_
_atom_site_type_symbol
_atom_site_label
_atom_site_fract_x
_atom_site_fract_y
_atom_site_fract_z
Si Si1 0.361421 0.687087 0.000000
Si Si2 0.145044 0.182927 0.500000
Si Si3 0.500000 0.093701 0.901713
Si Si4 0.225567 0.906971 0.155936
Si Si5 0.853076 0.180422 0.682185
O O1 0.250000 0.750000 0.000000
O O2 0.347693 0.633618 0.080846
O O3 0.500000 0.724021 0.000000
O O4 0.250000 0.250000 0.500000
O O5 0.159516 0.143282 0.410215
O O6 0.000000 0.214359 0.500000
O O7 0.371409 0.120194 0.858023
O O8 0.500000 0.000000 0.895229
O O9 0.500000 0.109307 0.000000
O O10 0.175187 0.878358 0.243770
O O11 0.218765 0.000000 0.148557
O O12 0.750000 0.250000 0.688036
O O13 0.000000 0.207806 0.689935
#
# Coordination Sequence:
#
# PCOD9492277 Si02
#       5
#     8   8   8  16  16
#     4  12  27  41  60  86 116 153 192 241 289 337
#     4   8  16  34  57  83 114 150 192 233 286 343
#     4   9  18  36  60  83 107 151 193 230 279 340
#     4  11  23  39  61  86 118 153 193 238 290 348
#     4  10  21  37  60  88 118 153 193 241 289 341
#
# _framework density 19.152767000000001
#
# number of rings (size 3 to 8) (size 9 to 14) (size 15 to 20)
#    0.000    1.857    1.429    2.143    4.000    2.857 
#    0.000    0.714    0.000    2.571    0.000    3.000 
#    0.000    0.000    0.000    0.000    0.000    0.000 
#
# Total GULP energy -156180.799469 kJ/mol
# GULP energy per Si atom -5577.885695 kJ/mol
# Density = 1.910917 g / cm^3
# Si number density = 19.152767 Si / 1000 Ang^3
#
#
#
# Elastic Constant Matrix: (Units=GPa)
#
#
# Indices 1 2 3 4 5 6 
#
# 1 141.7478 28.0209 51.2024 0.0000 0.0000 0.0000
# 2 28.0209 50.0813 38.6870 0.0000 0.0000 0.0000
# 3 51.2024 38.6870 174.6300 0.0000 0.0000 0.0000
# 4 0.0000 0.0000 0.0000 -1.2020 0.0000 0.0000
# 5 0.0000 0.0000 0.0000 0.0000 -5.9051 0.0000
# 6 0.0000 0.0000 0.0000 0.0000 0.0000 25.9646
#
#
#
# Elastic Compliance Matrix: (Units=1/GPa)
#
#
# Indices 1 2 3 4 5 6 
#
# 1 0.008331 -0.003347 -0.001701 0.000000 0.000000 0.000000
# 2 -0.003347 0.025435 -0.004653 0.000000 0.000000 0.000000
# 3 -0.001701 -0.004653 0.007256 0.000000 0.000000 0.000000
# 4 0.000000 0.000000 0.000000 -0.831951 0.000000 0.000000
# 5 0.000000 0.000000 0.000000 0.000000 -0.169345 0.000000
# 6 0.000000 0.000000 0.000000 0.000000 0.000000 0.038514
#
#
# Mechanical properties :
#
#
# Convention : Reuss Voigt Hill
#
# Bulk Modulus (GPa) = 46.25641 66.91996 56.58818
# Shear Modulus (GPa) = -5.58565 20.34141 7.37788
#
# Velocity S-wave (km/s) = -1.70959 3.26246 1.96481
# Velocity P-wave (km/s) = 4.50631 7.01481 5.89552
#
# Compressibility (1/GPa) = 0.02161863
#
# Stress axis : x y z
#
# Youngs Moduli (GPa) = 120.03444 39.31599 137.81543
#
# Poissons Ratio (x) = 0.13160 0.23445
# Poissons Ratio (y) = 0.40177 0.64131
# Poissons Ratio (z) = 0.20420 0.18295
#
# Static dielectric constant tensor:
#      x y z
#    x 1.708180 0.000000 0.000000 
#    y 0.000000 1.638270 0.000000 
#    z 0.000000 0.000000 1.674800 
# 
# From -- ./inp_files/35568.got.cif
#   From: 2010.05.17/outbox.cif.g08.bks.cpg/sg65_18_cif.got.tgz:35568.got - 2010.06.03 17:01:31.
