data_PCOD9492333
_publ_section_title
;
Structure prediction by ZEFSAII (Michael W. Deem and Ramdas Pophale) SiO2 
 PCOD9492333
Probable space group: C M M M
;
_chemical_formula_sum "Si O2"
_cell_formula_units_Z 72
_cell_length_a 14.721221
_cell_length_b 8.728300
_cell_length_c 28.423561
_cell_angle_alpha 90.000000
_cell_angle_beta 90.000000
_cell_angle_gamma 90.000000
_cell_volume 3652.178406
_symmetry_space_group_name_H-M "C M M M"
_symmetry_group_IT_number 65
_symmetry_cell_setting 'orthorhombic'
loop_
_space_group_symop_operation_xyz
x,y,z
-x,-y,z
x,-y,-z
-x,y,-z
-x,-y,-z
x,y,-z
-x,y,z
x,-y,z
1/2+x,1/2+y,z
1/2-x,1/2-y,z
1/2+x,1/2-y,-z
1/2-x,1/2+y,-z
1/2-x,1/2-y,-z
1/2+x,1/2+y,-z
1/2-x,1/2+y,z
1/2+x,1/2-y,z
loop_
_atom_site_type_symbol
_atom_site_label
_atom_site_fract_x
_atom_site_fract_y
_atom_site_fract_z
Si Si1 0.147651 0.316809 0.353458
Si Si2 0.351547 0.816038 0.750881
Si Si3 0.500000 0.317616 0.180478
Si Si4 0.000000 0.685203 0.076170
Si Si5 0.147219 0.183616 0.448649
Si Si6 0.149077 0.315548 0.000000
O O1 0.150566 0.500000 0.357889
O O2 0.250000 0.250000 0.352166
O O3 0.110529 0.279088 0.301632
O O4 0.104837 0.248959 0.400848
O O5 0.250000 0.750000 0.754043
O O6 0.413621 0.746110 0.791123
O O7 0.349211 0.000000 0.754781
O O8 0.500000 0.500000 0.181229
O O9 0.500000 0.257938 0.127277
O O10 0.088521 0.729182 0.045367
O O11 0.000000 0.500000 0.080124
O O12 0.107128 0.223191 0.500000
O O13 0.250000 0.250000 0.449612
O O14 0.150628 0.000000 0.445241
O O15 0.250000 0.250000 0.000000
O O16 0.154124 0.500000 0.000000
#
# Coordination Sequence:
#
# PCOD9492333 Si02
#       6
#    16  16   8   8  16   8
#     4   9  16  26  43  65  91 127 170 218 274 332
#     4  10  21  38  58  81 111 148 191 241 293 347
#     4  12  25  39  59  88 119 157 200 241 290 342
#     4   9  20  40  60  84 122 161 195 237 286 335
#     4   9  15  21  32  54  86 123 162 208 264 325
#     4   9  19  37  64  92 120 159 199 235 283 334
#
# _framework density 19.714261
#
# number of rings (size 3 to 8) (size 9 to 14) (size 15 to 20)
#    0.000    2.444    0.000    5.000    0.000    5.778 
#    0.000    3.333    0.000    0.000    0.000    0.778 
#    0.000    6.222    0.000    0.000    0.000    0.444 
#
# Total GULP energy -200849.509189 kJ/mol
# GULP energy per Si atom -5579.153033 kJ/mol
# Density = 1.966939 g / cm^3
# Si number density = 19.714261 Si / 1000 Ang^3
#
#
#
# Elastic Constant Matrix: (Units=GPa)
#
#
# Indices 1 2 3 4 5 6 
#
# 1 122.9687 37.6092 83.8158 0.0000 0.0000 0.0000
# 2 37.6092 83.5098 84.3291 0.0000 0.0000 0.0000
# 3 83.8158 84.3291 243.2944 0.0000 0.0000 0.0000
# 4 0.0000 0.0000 0.0000 33.2849 0.0000 0.0000
# 5 0.0000 0.0000 0.0000 0.0000 27.1650 0.0000
# 6 0.0000 0.0000 0.0000 0.0000 0.0000 17.3283
#
#
#
# Elastic Compliance Matrix: (Units=1/GPa)
#
#
# Indices 1 2 3 4 5 6 
#
# 1 0.010782 -0.001700 -0.003125 0.000000 0.000000 0.000000
# 2 -0.001700 0.018691 -0.005893 0.000000 0.000000 0.000000
# 3 -0.003125 -0.005893 0.007229 0.000000 0.000000 0.000000
# 4 0.000000 0.000000 0.000000 0.030044 0.000000 0.000000
# 5 0.000000 0.000000 0.000000 0.000000 0.036812 0.000000
# 6 0.000000 0.000000 0.000000 0.000000 0.000000 0.057709
#
#
# Mechanical properties :
#
#
# Convention : Reuss Voigt Hill
#
# Bulk Modulus (GPa) = 65.50311 95.69790 80.60051
# Shear Modulus (GPa) = 26.62515 31.82357 29.22436
#
# Velocity S-wave (km/s) = 3.67897 4.02212 3.85437
# Velocity P-wave (km/s) = 7.16553 8.37961 7.79624
#
# Compressibility (1/GPa) = 0.01526645
#
# Stress axis : x y z
#
# Youngs Moduli (GPa) = 92.74474 53.50195 138.32222
#
# Poissons Ratio (x) = 0.09095 0.43230
# Poissons Ratio (y) = 0.15765 0.81512
# Poissons Ratio (z) = 0.28986 0.31528
#
# Static dielectric constant tensor:
#      x y z
#    x 1.794550 0.000000 0.000000 
#    y 0.000000 1.652220 0.000000 
#    z 0.000000 0.000000 1.720760 
# 
# From -- ./inp_files/74703.got.cif
#   From: 2010.05.17/outbox.cif.g08.bks.cpg/sg65_38_cif.got.tgz:74703.got - 2010.06.03 17:01:31.
