data_PCOD9492267
_publ_section_title
;
Structure prediction by ZEFSAII (Michael W. Deem and Ramdas Pophale) SiO2 
 PCOD9492267
Probable space group: C M M M
;
_chemical_formula_sum "Si O2"
_cell_formula_units_Z 72
_cell_length_a 8.804931
_cell_length_b 29.413188
_cell_length_c 14.972894
_cell_angle_alpha 90.000000
_cell_angle_beta 90.000000
_cell_angle_gamma 90.000000
_cell_volume 3877.696421
_symmetry_space_group_name_H-M "C M M M"
_symmetry_group_IT_number 65
_symmetry_cell_setting 'orthorhombic'
loop_
_space_group_symop_operation_xyz
x,y,z
-x,-y,z
x,-y,-z
-x,y,-z
-x,-y,-z
x,y,-z
-x,y,z
x,-y,z
1/2+x,1/2+y,z
1/2-x,1/2-y,z
1/2+x,1/2-y,-z
1/2-x,1/2+y,-z
1/2-x,1/2-y,-z
1/2+x,1/2+y,-z
1/2-x,1/2+y,z
1/2+x,1/2-y,z
loop_
_atom_site_type_symbol
_atom_site_label
_atom_site_fract_x
_atom_site_fract_y
_atom_site_fract_z
Si Si1 0.683945 0.800620 0.000000
Si Si2 0.180570 0.700165 0.500000
Si Si3 0.681535 0.630829 0.637528
Si Si4 0.322862 0.862243 0.831137
Si Si5 0.170946 0.949060 0.107072
Si Si6 0.815912 0.052638 0.500000
O O1 0.750000 0.750000 0.000000
O O2 0.729941 0.828270 0.089679
O O3 0.500000 0.799108 0.000000
O O4 0.250000 0.750000 0.500000
O O5 0.240708 0.671379 0.416507
O O6 0.000000 0.702409 0.500000
O O7 0.500000 0.633923 0.629367
O O8 0.731391 0.637336 0.739150
O O9 0.726976 0.583451 0.586940
O O10 0.500000 0.853156 0.814104
O O11 0.295907 0.912979 0.867031
O O12 0.000000 0.935262 0.137383
O O13 0.199466 0.000000 0.140835
O O14 0.165923 0.950892 0.000000
O O15 0.000000 0.050491 0.500000
O O16 0.761382 0.000000 0.500000
#
# Coordination Sequence:
#
# PCOD9492267 Si02
#       6
#     8   8  16  16  16   8
#     4  10  24  42  59  80 109 149 196 245 297 354
#     4  11  22  40  64  88 115 148 186 238 297 355
#     4  10  21  37  59  89 119 153 196 240 290 349
#     4  11  22  38  57  83 118 154 194 243 297 352
#     4   9  18  33  54  80 109 146 193 238 282 337
#     4   8  16  34  59  85 116 152 190 234 282 335
#
# _framework density 18.567723999999998
#
# number of rings (size 3 to 8) (size 9 to 14) (size 15 to 20)
#    0.000    2.111    1.111    3.667    0.000    4.000 
#    0.000    5.556    0.000   11.333    0.000    0.000 
#    0.000    0.000    0.000    0.000    0.000    0.000 
#
# Total GULP energy -200712.306182 kJ/mol
# GULP energy per Si atom -5575.341838 kJ/mol
# Density = 1.852546 g / cm^3
# Si number density = 18.567724 Si / 1000 Ang^3
#
#
#
# Elastic Constant Matrix: (Units=GPa)
#
#
# Indices 1 2 3 4 5 6 
#
# 1 64.9404 45.1245 41.4900 0.0000 0.0000 0.0000
# 2 45.1245 148.6191 69.0517 0.0000 0.0000 0.0000
# 3 41.4900 69.0517 126.1448 0.0000 0.0000 0.0000
# 4 0.0000 0.0000 0.0000 -0.0421 0.0000 0.0000
# 5 0.0000 0.0000 0.0000 0.0000 24.2391 0.0000
# 6 0.0000 0.0000 0.0000 0.0000 0.0000 29.4321
#
#
#
# Elastic Compliance Matrix: (Units=1/GPa)
#
#
# Indices 1 2 3 4 5 6 
#
# 1 0.021385 -0.004325 -0.004666 0.000000 0.000000 0.000000
# 2 -0.004325 0.009898 -0.003996 0.000000 0.000000 0.000000
# 3 -0.004666 -0.003996 0.011649 0.000000 0.000000 0.000000
# 4 0.000000 0.000000 0.000000-23.758365 0.000000 0.000000
# 5 0.000000 0.000000 0.000000 0.000000 0.041256 0.000000
# 6 0.000000 0.000000 0.000000 0.000000 0.000000 0.033977
#
#
# Mechanical properties :
#
#
# Convention : Reuss Voigt Hill
#
# Bulk Modulus (GPa) = 58.96625 72.33740 65.65182
# Shear Modulus (GPa) = -0.21179 22.99503 11.39162
#
# Velocity S-wave (km/s) = -0.33810 3.52297 2.47962
# Velocity P-wave (km/s) = 5.62796 7.45598 6.60551
#
# Compressibility (1/GPa) = 0.01695885
#
# Stress axis : x y z
#
# Youngs Moduli (GPa) = 46.76113 101.02689 85.84077
#
# Poissons Ratio (x) = 0.43695 0.40055
# Poissons Ratio (y) = 0.20225 0.34300
# Poissons Ratio (z) = 0.21820 0.40368
#
# Static dielectric constant tensor:
#      x y z
#    x 1.639680 0.000000 0.000000 
#    y 0.000000 1.637050 0.000000 
#    z 0.000000 0.000000 1.645540 
# 
# From -- ./inp_files/36639.got.cif
#   From: 2010.05.17/outbox.cif.g08.bks.cpg/sg65_19_cif.got.tgz:36639.got - 2010.06.03 17:01:31.
