data_PCOD9492099
_publ_section_title
;
Structure prediction by ZEFSAII (Michael W. Deem and Ramdas Pophale) SiO2 
 PCOD9492099
Probable space group: C M M M
;
_chemical_formula_sum "Si O2"
_cell_formula_units_Z 96
_cell_length_a 14.460019
_cell_length_b 15.820404
_cell_length_c 20.910397
_cell_angle_alpha 90.000000
_cell_angle_beta 90.000000
_cell_angle_gamma 90.000000
_cell_volume 4783.532309
_symmetry_space_group_name_H-M "C M M M"
_symmetry_group_IT_number 65
_symmetry_cell_setting 'orthorhombic'
loop_
_space_group_symop_operation_xyz
x,y,z
-x,-y,z
x,-y,-z
-x,y,-z
-x,-y,-z
x,y,-z
-x,y,z
x,-y,z
1/2+x,1/2+y,z
1/2-x,1/2-y,z
1/2+x,1/2-y,-z
1/2-x,1/2+y,-z
1/2-x,1/2-y,-z
1/2+x,1/2+y,-z
1/2-x,1/2+y,z
1/2+x,1/2-y,z
loop_
_atom_site_type_symbol
_atom_site_label
_atom_site_fract_x
_atom_site_fract_y
_atom_site_fract_z
Si Si1 0.280999 0.343196 0.307679
Si Si2 0.612966 0.724514 0.929483
Si Si3 0.111066 0.097407 0.816887
Si Si4 0.387715 0.903086 0.879958
Si Si5 0.610295 0.600269 0.427054
Si Si6 0.399567 0.900506 0.734755
O O1 0.250000 0.250000 0.288999
O O2 0.339514 0.383642 0.250228
O O3 0.337714 0.348327 0.372716
O O4 0.181798 0.387214 0.314568
O O5 0.500000 0.725180 0.927345
O O6 0.641670 0.662802 0.871903
O O7 0.643036 0.822296 0.920718
O O8 0.640212 0.694122 0.000000
O O9 0.000000 0.106109 0.808629
O O10 0.130059 0.000000 0.835201
O O11 0.500000 0.907613 0.885427
O O12 0.369145 0.875921 0.806431
O O13 0.354552 0.000000 0.892183
O O14 0.637087 0.621167 0.500000
O O15 0.500000 0.611928 0.421505
O O16 0.628316 0.500000 0.416851
O O17 0.500000 0.861353 0.720157
O O18 0.411150 0.000000 0.740720
#
# Coordination Sequence:
#
# PCOD9492099 Si02
#       6
#    16  16  16  16  16  16
#     4  12  23  33  55  86 116 147 181 230 288 342
#     4   9  17  29  47  74 108 143 181 231 293 358
#     4  10  21  37  57  81 111 149 196 247 292 340
#     4   8  14  26  45  69 100 140 185 234 287 343
#     4   9  19  38  63  88 116 152 192 232 273 324
#     4   9  18  33  52  74 103 140 183 230 277 330
#
# _framework density 20.068850999999999
#
# number of rings (size 3 to 8) (size 9 to 14) (size 15 to 20)
#    0.000    2.500    0.000    4.500    0.000    5.000 
#    0.000    3.333    0.000    5.000    0.000    7.000 
#    0.000    0.000    0.000    0.000    0.000    0.000 
#
# Total GULP energy -267743.354359 kJ/mol
# GULP energy per Si atom -5577.986549 kJ/mol
# Density = 2.002317 g / cm^3
# Si number density = 20.068851 Si / 1000 Ang^3
#
#
#
# Elastic Constant Matrix: (Units=GPa)
#
#
# Indices 1 2 3 4 5 6 
#
# 1 56.7847 21.0114 39.0379 0.0000 0.0000 0.0000
# 2 21.0114 84.0657 41.2846 0.0000 0.0000 0.0000
# 3 39.0379 41.2846 73.3593 0.0000 0.0000 0.0000
# 4 0.0000 0.0000 0.0000 37.0834 0.0000 0.0000
# 5 0.0000 0.0000 0.0000 0.0000 15.4180 0.0000
# 6 0.0000 0.0000 0.0000 0.0000 0.0000 17.1816
#
#
#
# Elastic Compliance Matrix: (Units=1/GPa)
#
#
# Indices 1 2 3 4 5 6 
#
# 1 0.027781 0.000438 -0.015030 0.000000 0.000000 0.000000
# 2 0.000438 0.016446 -0.009488 0.000000 0.000000 0.000000
# 3 -0.015030 -0.009488 0.026969 0.000000 0.000000 0.000000
# 4 0.000000 0.000000 0.000000 0.026966 0.000000 0.000000
# 5 0.000000 0.000000 0.000000 0.000000 0.064859 0.000000
# 6 0.000000 0.000000 0.000000 0.000000 0.000000 0.058202
#
#
# Mechanical properties :
#
#
# Convention : Reuss Voigt Hill
#
# Bulk Modulus (GPa) = 43.41156 46.31972 44.86564
# Shear Modulus (GPa) = 18.04649 21.46167 19.75408
#
# Velocity S-wave (km/s) = 3.00197 3.27372 3.14078
# Velocity P-wave (km/s) = 5.80465 6.11720 5.96298
#
# Compressibility (1/GPa) = 0.02303534
#
# Stress axis : x y z
#
# Youngs Moduli (GPa) = 35.99566 60.80639 37.07927
#
# Poissons Ratio (x) = -0.02661 0.55730
# Poissons Ratio (y) = -0.01575 0.35181
# Poissons Ratio (z) = 0.54101 0.57693
#
# Static dielectric constant tensor:
#      x y z
#    x 1.743280 0.000000 0.000000 
#    y 0.000000 1.674090 0.000000 
#    z 0.000000 0.000000 1.690950 
# 
# From -- ./inp_files/62614.got.cif
#   From: 2010.05.17/outbox.cif.g08.bks.cpg/sg65_32_cif.got.tgz:62614.got - 2010.06.03 17:01:31.
