data_PCOD9492108
_publ_section_title
;
Structure prediction by ZEFSAII (Michael W. Deem and Ramdas Pophale) SiO2 
 PCOD9492108
Probable space group: C M M M
;
_chemical_formula_sum "Si O2"
_cell_formula_units_Z 104
_cell_length_a 21.161917
_cell_length_b 8.736607
_cell_length_c 30.781510
_cell_angle_alpha 90.000000
_cell_angle_beta 90.000000
_cell_angle_gamma 90.000000
_cell_volume 5690.988754
_symmetry_space_group_name_H-M "C M M M"
_symmetry_group_IT_number 65
_symmetry_cell_setting 'orthorhombic'
loop_
_space_group_symop_operation_xyz
x,y,z
-x,-y,z
x,-y,-z
-x,y,-z
-x,-y,-z
x,y,-z
-x,y,z
x,-y,z
1/2+x,1/2+y,z
1/2-x,1/2-y,z
1/2+x,1/2-y,-z
1/2-x,1/2+y,-z
1/2-x,1/2-y,-z
1/2+x,1/2+y,-z
1/2-x,1/2+y,z
1/2+x,1/2-y,z
loop_
_atom_site_type_symbol
_atom_site_label
_atom_site_fract_x
_atom_site_fract_y
_atom_site_fract_z
Si Si1 0.000000 0.827442 0.552324
Si Si2 0.928034 0.816295 0.304256
Si Si3 0.314687 0.682867 0.634782
Si Si4 0.072962 0.687091 0.116671
Si Si5 0.681797 0.815162 0.050400
Si Si6 0.423505 0.825145 0.212792
Si Si7 0.634133 0.817332 0.449697
O O1 0.936469 0.737661 0.562711
O O2 0.000000 0.840524 0.500000
O O3 0.000000 0.000000 0.571027
O O4 0.875991 0.762056 0.338507
O O5 0.907727 0.768903 0.255693
O O6 0.000000 0.759382 0.312210
O O7 0.930180 0.000000 0.306763
O O8 0.312909 0.500000 0.635937
O O9 0.250000 0.750000 0.653347
O O10 0.321725 0.738392 0.585331
O O11 0.071898 0.500000 0.117505
O O12 0.123660 0.735067 0.080717
O O13 0.094383 0.735594 0.165147
O O14 0.000000 0.735337 0.108671
O O15 0.750000 0.750000 0.064005
O O16 0.684593 0.000000 0.052139
O O17 0.671443 0.770586 0.000000
O O18 0.500000 0.829951 0.211153
O O19 0.400845 0.000000 0.217618
O O20 0.645833 0.772154 0.500000
O O21 0.638696 0.000000 0.447012
#
# Coordination Sequence:
#
# PCOD9492108 Si02
#       7
#     8  16  16  16  16  16  16
#     4   9  17  31  53  81 111 141 173 211 255 299
#     4   9  19  36  57  80 104 132 168 210 255 306
#     4  11  24  40  58  79 108 142 175 214 262 313
#     4   8  14  26  46  72  98 123 160 210 255 296
#     4   9  17  29  45  65  93 131 170 208 251 298
#     4   8  14  27  49  75 100 127 160 202 252 303
#     4  10  21  37  57  82 111 141 176 218 260 305
#
# _framework density 18.274504
#
# number of rings (size 3 to 8) (size 9 to 14) (size 15 to 20)
#    0.000    2.846    0.000    2.077    1.077    3.692 
#    0.000    3.077    0.000    5.077    0.000    2.154 
#    0.000    0.000    0.000    0.000    0.000    0.000 
#
# Total GULP energy -289791.389554 kJ/mol
# GULP energy per Si atom -5572.911338 kJ/mol
# Density = 1.823291 g / cm^3
# Si number density = 18.274504 Si / 1000 Ang^3
#
#
#
# Elastic Constant Matrix: (Units=GPa)
#
#
# Indices 1 2 3 4 5 6 
#
# 1 115.5425 20.8297 76.0546 0.0000 0.0000 0.0000
# 2 20.8297 18.7951 19.9423 0.0000 0.0000 0.0000
# 3 76.0546 19.9423 111.7265 0.0000 0.0000 0.0000
# 4 0.0000 0.0000 0.0000 20.7207 0.0000 0.0000
# 5 0.0000 0.0000 0.0000 0.0000 7.8948 0.0000
# 6 0.0000 0.0000 0.0000 0.0000 0.0000 24.8212
#
#
#
# Elastic Compliance Matrix: (Units=1/GPa)
#
#
# Indices 1 2 3 4 5 6 
#
# 1 0.016579 -0.007894 -0.009877 0.000000 0.000000 0.000000
# 2 -0.007894 0.069395 -0.007013 0.000000 0.000000 0.000000
# 3 -0.009877 -0.007013 0.016925 0.000000 0.000000 0.000000
# 4 0.000000 0.000000 0.000000 0.048261 0.000000 0.000000
# 5 0.000000 0.000000 0.000000 0.000000 0.126666 0.000000
# 6 0.000000 0.000000 0.000000 0.000000 0.000000 0.040288
#
#
# Mechanical properties :
#
#
# Convention : Reuss Voigt Hill
#
# Bulk Modulus (GPa) = 18.75038 53.30191 36.02614
# Shear Modulus (GPa) = 12.97152 19.30317 16.13735
#
# Velocity S-wave (km/s) = 2.66713 3.25359 2.97484
# Velocity P-wave (km/s) = 4.44606 6.58370 5.61750
#
# Compressibility (1/GPa) = 0.05333226
#
# Stress axis : x y z
#
# Youngs Moduli (GPa) = 60.31624 14.41026 59.08261
#
# Poissons Ratio (x) = 0.11376 0.58355
# Poissons Ratio (y) = 0.47616 0.41432
# Poissons Ratio (z) = 0.59573 0.10105
#
# Static dielectric constant tensor:
#      x y z
#    x 1.550020 0.000000 0.000000 
#    y 0.000000 1.623320 0.000000 
#    z 0.000000 0.000000 1.646390 
# 
# From -- ./inp_files/78236.got.cif
#   From: 2010.05.17/outbox.cif.g08.bks.cpg/sg65_40_cif.got.tgz:78236.got - 2010.06.03 17:01:31.
