data_PCOD9492496
_publ_section_title
;
Structure prediction by ZEFSAII (Michael W. Deem and Ramdas Pophale) SiO2 
 PCOD9492496
Probable space group: C M M M
;
_chemical_formula_sum "Si O2"
_cell_formula_units_Z 72
_cell_length_a 18.668524
_cell_length_b 8.935340
_cell_length_c 23.542591
_cell_angle_alpha 90.000000
_cell_angle_beta 90.000000
_cell_angle_gamma 90.000000
_cell_volume 3927.130405
_symmetry_space_group_name_H-M "C M M M"
_symmetry_group_IT_number 65
_symmetry_cell_setting 'orthorhombic'
loop_
_space_group_symop_operation_xyz
x,y,z
-x,-y,z
x,-y,-z
-x,y,-z
-x,-y,-z
x,y,-z
-x,y,z
x,-y,z
1/2+x,1/2+y,z
1/2-x,1/2-y,z
1/2+x,1/2-y,-z
1/2-x,1/2+y,-z
1/2-x,1/2-y,-z
1/2+x,1/2+y,-z
1/2-x,1/2+y,z
1/2+x,1/2-y,z
loop_
_atom_site_type_symbol
_atom_site_label
_atom_site_fract_x
_atom_site_fract_y
_atom_site_fract_z
Si Si1 0.583336 0.320345 0.382525
Si Si2 0.827644 0.178175 0.933310
Si Si3 0.415322 0.821841 0.834094
Si Si4 0.412926 0.827217 0.500000
Si Si5 0.671269 0.319862 0.270005
O O1 0.500000 0.275039 0.373579
O O2 0.584310 0.500000 0.387753
O O3 0.609972 0.250919 0.441645
O O4 0.630686 0.278320 0.328410
O O5 0.750000 0.250000 0.921123
O O6 0.884886 0.254141 0.892372
O O7 0.824797 0.000000 0.923494
O O8 0.843218 0.203660 0.000000
O O9 0.500000 0.794992 0.829058
O O10 0.373698 0.743351 0.782673
O O11 0.402533 0.000000 0.832628
O O12 0.500000 0.818394 0.500000
O O13 0.391938 0.000000 0.500000
O O14 0.675058 0.500000 0.266531
O O15 0.750000 0.250000 0.269057
#
# Coordination Sequence:
#
# PCOD9492496 Si02
#       5
#    16  16  16   8  16
#     4   9  18  34  56  80 107 142 183 225 271 326
#     4  10  21  38  61  87 116 151 189 229 274 327
#     4  11  24  40  59  84 114 148 186 231 281 331
#     4   9  17  29  50  81 112 141 175 221 274 325
#     4  11  23  39  59  82 111 147 187 231 280 334
#
# _framework density 18.333995999999999
#
# number of rings (size 3 to 8) (size 9 to 14) (size 15 to 20)
#    0.000    1.889    0.000    3.667    0.000    7.556 
#    0.000    5.000    0.000    0.000    0.000    0.000 
#    0.000    0.000    0.000    0.000    0.000    0.000 
#
# Total GULP energy -201131.242676 kJ/mol
# GULP energy per Si atom -5586.978963 kJ/mol
# Density = 1.829227 g / cm^3
# Si number density = 18.333996 Si / 1000 Ang^3
#
#
#
# Elastic Constant Matrix: (Units=GPa)
#
#
# Indices 1 2 3 4 5 6 
#
# 1 112.4790 70.2061 88.6098 0.0000 0.0000 0.0000
# 2 70.2061 79.5552 73.2263 0.0000 0.0000 0.0000
# 3 88.6098 73.2263 127.2930 0.0000 0.0000 0.0000
# 4 0.0000 0.0000 0.0000 -34.0645 0.0000 0.0000
# 5 0.0000 0.0000 0.0000 0.0000 84.8736 0.0000
# 6 0.0000 0.0000 0.0000 0.0000 0.0000 24.2891
#
#
#
# Elastic Compliance Matrix: (Units=1/GPa)
#
#
# Indices 1 2 3 4 5 6 
#
# 1 0.024441 -0.012558 -0.009789 0.000000 0.000000 0.000000
# 2 -0.012558 0.033168 -0.010338 0.000000 0.000000 0.000000
# 3 -0.009789 -0.010338 0.020618 0.000000 0.000000 0.000000
# 4 0.000000 0.000000 0.000000 -0.029356 0.000000 0.000000
# 5 0.000000 0.000000 0.000000 0.000000 0.011782 0.000000
# 6 0.000000 0.000000 0.000000 0.000000 0.000000 0.041171
#
#
# Mechanical properties :
#
#
# Convention : Reuss Voigt Hill
#
# Bulk Modulus (GPa) = 77.79155 87.04574 82.41864
# Shear Modulus (GPa) = 29.15783 20.83864 24.99824
#
# Velocity S-wave (km/s) = 3.99227 3.37503 3.69655
# Velocity P-wave (km/s) = 7.98582 7.92266 7.95430
#
# Compressibility (1/GPa) = 0.01285487
#
# Stress axis : x y z
#
# Youngs Moduli (GPa) = 40.91498 30.14942 48.50200
#
# Poissons Ratio (x) = 0.37862 0.47481
# Poissons Ratio (y) = 0.51381 0.50144
# Poissons Ratio (z) = 0.40054 0.31170
#
# Static dielectric constant tensor:
#      x y z
#    x 1.604570 0.000000 0.000000 
#    y 0.000000 1.614290 0.000000 
#    z 0.000000 0.000000 1.613040 
# 
# From -- ./inp_files/70324.got.cif
#   From: 2010.05.17/outbox.cif.g08.bks.cpg/sg65_36_cif.got.tgz:70324.got - 2010.06.03 17:01:31.
