data_PCOD9492965
_publ_section_title
;
Structure prediction by ZEFSAII (Michael W. Deem and Ramdas Pophale) SiO2 
 PCOD9492965
Probable space group: C M M M
;
_chemical_formula_sum "Si O2"
_cell_formula_units_Z 72
_cell_length_a 14.216331
_cell_length_b 33.183162
_cell_length_c 7.644123
_cell_angle_alpha 90.000000
_cell_angle_beta 90.000000
_cell_angle_gamma 90.000000
_cell_volume 3606.060099
_symmetry_space_group_name_H-M "C M M M"
_symmetry_group_IT_number 65
_symmetry_cell_setting 'orthorhombic'
loop_
_space_group_symop_operation_xyz
x,y,z
-x,-y,z
x,-y,-z
-x,y,-z
-x,-y,-z
x,y,-z
-x,y,z
x,-y,z
1/2+x,1/2+y,z
1/2-x,1/2-y,z
1/2+x,1/2-y,-z
1/2-x,1/2+y,-z
1/2-x,1/2-y,-z
1/2+x,1/2+y,-z
1/2-x,1/2+y,z
1/2+x,1/2-y,z
loop_
_atom_site_type_symbol
_atom_site_label
_atom_site_fract_x
_atom_site_fract_y
_atom_site_fract_z
Si Si1 0.605537 0.639522 0.705585
Si Si2 0.607092 0.185023 0.290663
Si Si3 0.292312 0.101673 0.713327
Si Si4 0.608431 0.727828 0.206989
Si Si5 0.388574 0.952012 0.000000
O O1 0.597206 0.631948 0.500000
O O2 0.500000 0.637922 0.782840
O O3 0.683723 0.608388 0.768277
O O4 0.644125 0.685355 0.721528
O O5 0.602954 0.184366 0.500000
O O6 0.500000 0.184306 0.220235
O O7 0.658439 0.144239 0.238814
O O8 0.651228 0.228324 0.243200
O O9 0.298932 0.096289 0.500000
O O10 0.341720 0.067598 0.827565
O O11 0.500000 0.730375 0.275241
O O12 0.606282 0.723085 0.000000
O O13 0.500000 0.942974 0.000000
O O14 0.376307 0.000000 0.000000
#
# Coordination Sequence:
#
# PCOD9492965 Si02
#       5
#    16  16  16  16   8
#     4   9  18  34  55  80 116 162 206 246 284 325
#     4   9  17  30  48  72 108 153 197 243 291 338
#     4  10  22  39  62  91 119 153 197 241 289 347
#     4   9  17  27  43  72 111 157 202 244 289 331
#     4  11  26  46  69  96 121 145 176 224 293 369
#
# _framework density 19.966388999999999
#
# number of rings (size 3 to 8) (size 9 to 14) (size 15 to 20)
#    0.000    2.556    0.000    1.333    3.111    5.333 
#    0.000    5.556    0.000    1.333    0.000    3.111 
#    0.000    0.000    0.000    0.000    0.000    0.000 
#
# Total GULP energy -200796.094341 kJ/mol
# GULP energy per Si atom -5577.669287 kJ/mol
# Density = 1.992094 g / cm^3
# Si number density = 19.966389 Si / 1000 Ang^3
#
#
#
# Elastic Constant Matrix: (Units=GPa)
#
#
# Indices 1 2 3 4 5 6 
#
# 1 110.5674 70.3187 34.2754 0.0000 0.0000 0.0000
# 2 70.3187 105.5499 34.8259 0.0000 0.0000 0.0000
# 3 34.2754 34.8259 61.6169 0.0000 0.0000 0.0000
# 4 0.0000 0.0000 0.0000 26.0134 0.0000 0.0000
# 5 0.0000 0.0000 0.0000 0.0000 12.5466 0.0000
# 6 0.0000 0.0000 0.0000 0.0000 0.0000 27.5857
#
#
#
# Elastic Compliance Matrix: (Units=1/GPa)
#
#
# Indices 1 2 3 4 5 6 
#
# 1 0.016320 -0.009683 -0.003605 0.000000 0.000000 0.000000
# 2 -0.009683 0.017391 -0.004443 0.000000 0.000000 0.000000
# 3 -0.003605 -0.004443 0.020746 0.000000 0.000000 0.000000
# 4 0.000000 0.000000 0.000000 0.038442 0.000000 0.000000
# 5 0.000000 0.000000 0.000000 0.000000 0.079703 0.000000
# 6 0.000000 0.000000 0.000000 0.000000 0.000000 0.036251
#
#
# Mechanical properties :
#
#
# Convention : Reuss Voigt Hill
#
# Bulk Modulus (GPa) = 52.64782 61.84160 57.24471
# Shear Modulus (GPa) = 19.94830 22.45009 21.19920
#
# Velocity S-wave (km/s) = 3.16427 3.35684 3.26198
# Velocity P-wave (km/s) = 6.30679 6.78709 6.55134
#
# Compressibility (1/GPa) = 0.01899414
#
# Stress axis : x y z
#
# Youngs Moduli (GPa) = 61.27370 57.50032 48.20167
#
# Poissons Ratio (x) = 0.55678 0.17379
# Poissons Ratio (y) = 0.59332 0.21417
# Poissons Ratio (z) = 0.22092 0.25548
#
# Static dielectric constant tensor:
#      x y z
#    x 1.805910 0.000000 0.000000 
#    y 0.000000 1.671660 0.000000 
#    z 0.000000 0.000000 1.703970 
# 
# From -- ./inp_files/7312.got.cif
#   From: 2010.05.17/outbox.cif.g08.bks.cpg/sg65_4_cif.got.tgz:7312.got - 2010.06.03 17:01:31.
