data_PCOD9492568
_publ_section_title
;
Structure prediction by ZEFSAII (Michael W. Deem and Ramdas Pophale) SiO2 
 PCOD9492568
Probable space group: C M M M
;
_chemical_formula_sum "Si O2"
_cell_formula_units_Z 58
_cell_length_a 26.341193
_cell_length_b 13.942352
_cell_length_c 7.668542
_cell_angle_alpha 90.000000
_cell_angle_beta 90.000000
_cell_angle_gamma 90.000000
_cell_volume 2816.334816
_symmetry_space_group_name_H-M "C M M M"
_symmetry_group_IT_number 65
_symmetry_cell_setting 'orthorhombic'
loop_
_space_group_symop_operation_xyz
x,y,z
-x,-y,z
x,-y,-z
-x,y,-z
-x,-y,-z
x,y,-z
-x,y,z
x,-y,z
1/2+x,1/2+y,z
1/2-x,1/2-y,z
1/2+x,1/2-y,-z
1/2-x,1/2+y,-z
1/2-x,1/2-y,-z
1/2+x,1/2+y,-z
1/2-x,1/2+y,z
1/2+x,1/2-y,z
loop_
_atom_site_type_symbol
_atom_site_label
_atom_site_fract_x
_atom_site_fract_y
_atom_site_fract_z
Si Si1 0.864047 0.000000 0.291664
Si Si2 0.745487 0.000000 0.290255
Si Si3 0.500000 0.832280 0.695560
Si Si4 0.500000 0.000000 0.000000
Si Si5 0.902719 0.789834 0.207280
Si Si6 0.799116 0.700394 0.794719
O O1 0.804716 0.000000 0.228527
O O2 0.892894 0.097038 0.236493
O O3 0.861658 0.000000 0.500000
O O4 0.713904 0.090252 0.224590
O O5 0.746615 0.000000 0.500000
O O6 0.500000 0.873908 0.500000
O O7 0.451480 0.761886 0.714472
O O8 0.500000 0.914306 0.845086
O O9 0.852109 0.736981 0.277371
O O10 0.906731 0.774620 0.000000
O O11 0.750000 0.750000 0.712710
O O12 0.800769 0.726357 0.000000
#
# Coordination Sequence:
#
# PCOD9492568 Si02
#       6
#     8   8   8   2  16  16
#     4  11  23  38  63 100 141 184 229 279 346 421
#     4  11  23  36  57  92 135 179 225 281 342 410
#     4  12  27  50  80 107 139 182 231 291 350 409
#     4  12  26  56  80 104 140 176 242 288 348 410
#     4  11  23  44  70 100 138 181 231 290 346 415
#     4  10  21  38  63  91 129 177 229 277 334 411
#
# _framework density 20.594142999999999
#
# number of rings (size 3 to 8) (size 9 to 14) (size 15 to 20)
#    0.000    1.103    4.138    1.862    0.000    5.517 
#    0.000    2.759    0.000    0.000    0.000    0.000 
#    0.000    0.000    0.000    0.000    0.000    0.000 
#
# Total GULP energy -161674.451011 kJ/mol
# GULP energy per Si atom -5574.981069 kJ/mol
# Density = 2.054727 g / cm^3
# Si number density = 20.594143 Si / 1000 Ang^3
#
#
#
# Elastic Constant Matrix: (Units=GPa)
#
#
# Indices 1 2 3 4 5 6 
#
# 1 180.6171 90.2261 31.9508 0.0000 0.0000 0.0000
# 2 90.2261 160.2968 1.3507 0.0000 0.0000 0.0000
# 3 31.9508 1.3507 104.3124 0.0000 0.0000 0.0000
# 4 0.0000 0.0000 0.0000 759.0860 0.0000 0.0000
# 5 0.0000 0.0000 0.0000 0.0000 -25.2817 0.0000
# 6 0.0000 0.0000 0.0000 0.0000 0.0000 14.1551
#
#
#
# Elastic Compliance Matrix: (Units=1/GPa)
#
#
# Indices 1 2 3 4 5 6 
#
# 1 0.008298 -0.004650 -0.002482 0.000000 0.000000 0.000000
# 2 -0.004650 0.008845 0.001310 0.000000 0.000000 0.000000
# 3 -0.002482 0.001310 0.010330 0.000000 0.000000 0.000000
# 4 0.000000 0.000000 0.000000 0.001317 0.000000 0.000000
# 5 0.000000 0.000000 0.000000 0.000000 -0.039554 0.000000
# 6 0.000000 0.000000 0.000000 0.000000 0.000000 0.070646
#
#
# Mechanical properties :
#
#
# Convention : Reuss Voigt Hill
#
# Bulk Modulus (GPa) = 63.17426 76.92017 70.04722
# Shear Modulus (GPa) = 65.10228 171.03845 118.07037
#
# Velocity S-wave (km/s) = 5.62856 9.12317 7.58001
# Velocity P-wave (km/s) = 8.54303 12.18228 10.52120
#
# Compressibility (1/GPa) = 0.01582923
#
# Stress axis : x y z
#
# Youngs Moduli (GPa) = 120.50427 113.06143 96.80784
#
# Poissons Ratio (x) = 0.52574 0.24024
# Poissons Ratio (y) = 0.56035 -0.12680
# Poissons Ratio (z) = 0.29904 -0.14808
#
# Static dielectric constant tensor:
#      x y z
#    x 1.773210 0.000000 0.000000 
#    y 0.000000 1.185380 0.000000 
#    z 0.000000 0.000000 1.759580 
# 
# From -- ./inp_files/4530.got.cif
#   From: 2010.05.17/outbox.cif.g08.bks.cpg/sg65_3_cif.got.tgz:4530.got - 2010.06.03 17:01:31.
