data_PCOD9492390
_publ_section_title
;
Structure prediction by ZEFSAII (Michael W. Deem and Ramdas Pophale) SiO2 
 PCOD9492390
Probable space group: C M M M
;
_chemical_formula_sum "Si O2"
_cell_formula_units_Z 42
_cell_length_a 5.362261
_cell_length_b 13.371092
_cell_length_c 26.604614
_cell_angle_alpha 90.000000
_cell_angle_beta 90.000000
_cell_angle_gamma 90.000000
_cell_volume 1907.531806
_symmetry_space_group_name_H-M "C M M M"
_symmetry_group_IT_number 65
_symmetry_cell_setting 'orthorhombic'
loop_
_space_group_symop_operation_xyz
x,y,z
-x,-y,z
x,-y,-z
-x,y,-z
-x,-y,-z
x,y,-z
-x,y,z
x,-y,z
1/2+x,1/2+y,z
1/2-x,1/2-y,z
1/2+x,1/2-y,-z
1/2-x,1/2+y,-z
1/2-x,1/2-y,-z
1/2+x,1/2+y,-z
1/2-x,1/2+y,z
1/2+x,1/2-y,z
loop_
_atom_site_type_symbol
_atom_site_label
_atom_site_fract_x
_atom_site_fract_y
_atom_site_fract_z
Si Si1 0.000000 0.317824 0.054027
Si Si2 0.500000 0.000000 0.500000
Si Si3 0.000000 0.777190 0.679059
Si Si4 0.000000 0.317572 0.165229
Si Si5 0.500000 0.000000 0.758136
Si Si6 0.000000 0.000000 0.691152
Si Si7 0.500000 0.192937 0.569856
O O1 0.250000 0.250000 0.053756
O O2 0.000000 0.366749 0.109037
O O3 0.000000 0.373373 0.000000
O O4 0.500000 0.086723 0.544015
O O5 0.250000 0.750000 0.707838
O O6 0.000000 0.703523 0.630633
O O7 0.000000 0.893339 0.662673
O O8 0.750000 0.250000 0.169000
O O9 0.000000 0.403072 0.206748
O O10 0.250948 0.000000 0.724162
O O11 0.750000 0.250000 0.554650
#
# Coordination Sequence:
#
# PCOD9492390 Si02
#       7
#     8   2   8   8   4   4   8
#     4   8  14  27  50  78 109 151 194 232 291 361
#     4  12  24  42  70 100 136 170 200 248 300 356
#     4  10  23  43  66  93 122 159 205 250 301 358
#     4  10  21  38  59  85 122 157 193 254 308 358
#     4  12  26  40  62  94 116 155 210 251 312 376
#     4  12  26  42  64  87 119 158 202 260 306 356
#     4  10  24  42  65  98 131 166 206 243 292 359
#
# _framework density 22.017980999999999
#
# number of rings (size 3 to 8) (size 9 to 14) (size 15 to 20)
#    0.000    1.905    0.000    2.857    0.000   12.190 
#    0.000    0.476    0.000    0.000    0.000   14.667 
#    0.000    0.000    0.000    0.000    0.000    0.000 
#
# Total GULP energy -116926.721945 kJ/mol
# GULP energy per Si atom -5567.939140 kJ/mol
# Density = 2.196787 g / cm^3
# Si number density = 22.017981 Si / 1000 Ang^3
#
#
#
# Elastic Constant Matrix: (Units=GPa)
#
#
# Indices 1 2 3 4 5 6 
#
# 1 211.8118 56.6005 23.3868 0.0000 0.0000 0.0000
# 2 56.6005 165.0026 44.5155 0.0000 0.0000 0.0000
# 3 23.3868 44.5155 134.5047 0.0000 0.0000 0.0000
# 4 0.0000 0.0000 0.0000 2.1899 0.0000 0.0000
# 5 0.0000 0.0000 0.0000 0.0000 12.3999 0.0000
# 6 0.0000 0.0000 0.0000 0.0000 0.0000 15.4138
#
#
#
# Elastic Compliance Matrix: (Units=1/GPa)
#
#
# Indices 1 2 3 4 5 6 
#
# 1 0.005212 -0.001695 -0.000345 0.000000 0.000000 0.000000
# 2 -0.001695 0.007206 -0.002090 0.000000 0.000000 0.000000
# 3 -0.000345 -0.002090 0.008186 0.000000 0.000000 0.000000
# 4 0.000000 0.000000 0.000000 0.456632 0.000000 0.000000
# 5 0.000000 0.000000 0.000000 0.000000 0.080646 0.000000
# 6 0.000000 0.000000 0.000000 0.000000 0.000000 0.064877
#
#
# Mechanical properties :
#
#
# Convention : Reuss Voigt Hill
#
# Bulk Modulus (GPa) = 81.01163 84.48054 82.74608
# Shear Modulus (GPa) = 7.87235 31.78848 19.83042
#
# Velocity S-wave (km/s) = 1.89293 3.80379 3.00433
# Velocity P-wave (km/s) = 6.45375 7.59895 7.04964
#
# Compressibility (1/GPa) = 0.01234391
#
# Stress axis : x y z
#
# Youngs Moduli (GPa) = 191.85843 138.77817 122.15259
#
# Poissons Ratio (x) = 0.23519 0.04219
# Poissons Ratio (y) = 0.32515 0.25532
# Poissons Ratio (z) = 0.06626 0.29006
#
# Static dielectric constant tensor:
#      x y z
#    x 1.870100 0.000000 0.000000 
#    y 0.000000 1.780220 0.000000 
#    z 0.000000 0.000000 1.863070 
# 
# From -- ./inp_files/72339.got.cif
#   From: 2010.05.17/outbox.cif.g08.bks.cpg/sg65_37_cif.got.tgz:72339.got - 2010.06.03 17:01:31.
