data_PCOD9492470
_publ_section_title
;
Structure prediction by ZEFSAII (Michael W. Deem and Ramdas Pophale) SiO2 
 PCOD9492470
Probable space group: C M M M
;
_chemical_formula_sum "Si O2"
_cell_formula_units_Z 72
_cell_length_a 22.162997
_cell_length_b 19.244653
_cell_length_c 9.081514
_cell_angle_alpha 90.000000
_cell_angle_beta 90.000000
_cell_angle_gamma 90.000000
_cell_volume 3873.439965
_symmetry_space_group_name_H-M "C M M M"
_symmetry_group_IT_number 65
_symmetry_cell_setting 'orthorhombic'
loop_
_space_group_symop_operation_xyz
x,y,z
-x,-y,z
x,-y,-z
-x,y,-z
-x,-y,-z
x,y,-z
-x,y,z
x,-y,z
1/2+x,1/2+y,z
1/2-x,1/2-y,z
1/2+x,1/2-y,-z
1/2-x,1/2+y,-z
1/2-x,1/2-y,-z
1/2+x,1/2+y,-z
1/2-x,1/2+y,z
1/2+x,1/2-y,z
loop_
_atom_site_type_symbol
_atom_site_label
_atom_site_fract_x
_atom_site_fract_y
_atom_site_fract_z
Si Si1 0.633744 0.311320 0.169347
Si Si2 0.112311 0.335152 0.322903
Si Si3 0.571668 0.422165 0.661845
Si Si4 0.750997 0.665607 0.335028
Si Si5 0.500000 0.916679 0.822673
O O1 0.613830 0.243746 0.262320
O O2 0.587460 0.371457 0.207368
O O3 0.697062 0.344945 0.222329
O O4 0.637164 0.291320 0.000000
O O5 0.104250 0.335153 0.500000
O O6 0.181789 0.358892 0.292954
O O7 0.059581 0.379962 0.246964
O O8 0.592472 0.395429 0.500000
O O9 0.500000 0.426846 0.654255
O O10 0.596062 0.500000 0.680994
O O11 0.737922 0.639461 0.500000
O O12 0.750000 0.750000 0.344282
O O13 0.500000 0.000000 0.792907
O O14 0.500000 0.907008 0.000000
#
# Coordination Sequence:
#
# PCOD9492470 Si02
#       5
#    16  16  16  16   8
#     4  11  21  32  54  86 118 147 181 230 284 334
#     4  10  21  38  61  84 109 146 190 232 273 329
#     4   9  19  36  55  74 103 146 190 229 270 319
#     4   8  16  33  55  80 109 143 185 230 275 325
#     4  11  25  43  61  85 118 149 182 235 297 349
#
# _framework density 18.588128999999999
#
# number of rings (size 3 to 8) (size 9 to 14) (size 15 to 20)
#    0.000    2.333    0.000    5.000    1.556    6.667 
#    0.000    2.222    0.000    1.333    0.000    0.000 
#    0.000    0.000    0.000    0.000    0.000    0.000 
#
# Total GULP energy -200453.645965 kJ/mol
# GULP energy per Si atom -5568.156832 kJ/mol
# Density = 1.854582 g / cm^3
# Si number density = 18.588129 Si / 1000 Ang^3
#
#
#
# Elastic Constant Matrix: (Units=GPa)
#
#
# Indices 1 2 3 4 5 6 
#
# 1 126.9597 51.7453 52.1889 0.0000 0.0000 0.0000
# 2 51.7453 59.2654 38.9222 0.0000 0.0000 0.0000
# 3 52.1889 38.9222 87.9320 0.0000 0.0000 0.0000
# 4 0.0000 0.0000 0.0000 32.4336 0.0000 0.0000
# 5 0.0000 0.0000 0.0000 0.0000 69.3092 0.0000
# 6 0.0000 0.0000 0.0000 0.0000 0.0000 -36.8792
#
#
#
# Elastic Compliance Matrix: (Units=1/GPa)
#
#
# Indices 1 2 3 4 5 6 
#
# 1 0.013078 -0.008911 -0.003817 0.000000 0.000000 0.000000
# 2 -0.008911 0.029861 -0.007929 0.000000 0.000000 0.000000
# 3 -0.003817 -0.007929 0.017148 0.000000 0.000000 0.000000
# 4 0.000000 0.000000 0.000000 0.030832 0.000000 0.000000
# 5 0.000000 0.000000 0.000000 0.000000 0.014428 0.000000
# 6 0.000000 0.000000 0.000000 0.000000 0.000000 -0.027116
#
#
# Mechanical properties :
#
#
# Convention : Reuss Voigt Hill
#
# Bulk Modulus (GPa) = 53.27170 62.20779 57.73974
# Shear Modulus (GPa) = 39.74480 21.72611 30.73545
#
# Velocity S-wave (km/s) = 4.62906 3.42250 4.07074
# Velocity P-wave (km/s) = 7.56916 7.01121 7.29552
#
# Compressibility (1/GPa) = 0.01877169
#
# Stress axis : x y z
#
# Youngs Moduli (GPa) = 76.46618 33.48860 58.31724
#
# Poissons Ratio (x) = 0.29843 0.22261
# Poissons Ratio (y) = 0.68141 0.46238
# Poissons Ratio (z) = 0.29189 0.26552
#
# Static dielectric constant tensor:
#      x y z
#    x 1.695930 0.000000 0.000000 
#    y 0.000000 1.626040 0.000000 
#    z 0.000000 0.000000 1.662050 
# 
# From -- ./inp_files/13578.got.cif
#   From: 2010.05.17/outbox.cif.g08.bks.cpg/sg65_7_cif.got.tgz:13578.got - 2010.06.03 17:01:31.
