data_PCOD9492311
_publ_section_title
;
Structure prediction by ZEFSAII (Michael W. Deem and Ramdas Pophale) SiO2 
 PCOD9492311
Probable space group: C M M M
;
_chemical_formula_sum "Si O2"
_cell_formula_units_Z 68
_cell_length_a 9.742041
_cell_length_b 18.155554
_cell_length_c 20.317497
_cell_angle_alpha 90.000000
_cell_angle_beta 90.000000
_cell_angle_gamma 90.000000
_cell_volume 3593.599406
_symmetry_space_group_name_H-M "C M M M"
_symmetry_group_IT_number 65
_symmetry_cell_setting 'orthorhombic'
loop_
_space_group_symop_operation_xyz
x,y,z
-x,-y,z
x,-y,-z
-x,y,-z
-x,-y,-z
x,y,-z
-x,y,z
x,-y,z
1/2+x,1/2+y,z
1/2-x,1/2-y,z
1/2+x,1/2-y,-z
1/2-x,1/2+y,-z
1/2-x,1/2-y,-z
1/2+x,1/2+y,-z
1/2-x,1/2+y,z
1/2+x,1/2-y,z
loop_
_atom_site_type_symbol
_atom_site_label
_atom_site_fract_x
_atom_site_fract_y
_atom_site_fract_z
Si Si1 0.500000 0.084842 0.420963
Si Si2 0.000000 0.146914 0.500000
Si Si3 0.654255 0.412619 0.245777
Si Si4 0.341690 0.089742 0.124936
Si Si5 0.278962 0.336528 0.381589
Si Si6 0.659256 0.589925 0.000000
O O1 0.500000 0.088876 0.500000
O O2 0.364744 0.123925 0.395357
O O3 0.500000 0.000000 0.400596
O O4 0.881019 0.148213 0.558055
O O5 0.500000 0.404386 0.217741
O O6 0.673228 0.500000 0.259580
O O7 0.767964 0.388955 0.192965
O O8 0.664952 0.368294 0.313261
O O9 0.500000 0.114220 0.119784
O O10 0.343477 0.000000 0.123861
O O11 0.245701 0.113054 0.064181
O O12 0.250000 0.250000 0.377484
O O13 0.656744 0.500000 0.000000
O O14 0.500000 0.613935 0.000000
#
# Coordination Sequence:
#
# PCOD9492311 Si02
#       6
#     8   4  16  16  16   8
#     4  11  25  43  62  91 124 154 193 253 318 376
#     4  12  24  44  63  90 113 150 198 252 308 366
#     4  10  21  38  56  82 117 155 197 248 304 364
#     4   9  17  29  48  76 114 155 198 248 303 358
#     4  12  25  42  66  89 118 157 204 254 314 381
#     4   9  15  25  45  75 110 157 204 245 295 356
#
# _framework density 18.922530999999999
#
# number of rings (size 3 to 8) (size 9 to 14) (size 15 to 20)
#    0.000    1.647    2.353    2.824    3.294    4.235 
#    0.000    2.353    0.000    0.000    0.000    0.824 
#    0.000    0.000    0.000    0.000    0.000    0.000 
#
# Total GULP energy -189312.905889 kJ/mol
# GULP energy per Si atom -5568.026644 kJ/mol
# Density = 1.887946 g / cm^3
# Si number density = 18.922531 Si / 1000 Ang^3
#
#
#
# Elastic Constant Matrix: (Units=GPa)
#
#
# Indices 1 2 3 4 5 6 
#
# 1 196.9033 39.3923 85.7507 0.0000 0.0000 0.0000
# 2 39.3923 48.4262 20.3851 0.0000 0.0000 0.0000
# 3 85.7507 20.3851 156.3390 0.0000 0.0000 0.0000
# 4 0.0000 0.0000 0.0000 0.8548 0.0000 0.0000
# 5 0.0000 0.0000 0.0000 0.0000 42.0718 0.0000
# 6 0.0000 0.0000 0.0000 0.0000 0.0000 7.1196
#
#
#
# Elastic Compliance Matrix: (Units=1/GPa)
#
#
# Indices 1 2 3 4 5 6 
#
# 1 0.007548 -0.004653 -0.003534 0.000000 0.000000 0.000000
# 2 -0.004653 0.024717 -0.000671 0.000000 0.000000 0.000000
# 3 -0.003534 -0.000671 0.008422 0.000000 0.000000 0.000000
# 4 0.000000 0.000000 0.000000 1.169811 0.000000 0.000000
# 5 0.000000 0.000000 0.000000 0.000000 0.023769 0.000000
# 6 0.000000 0.000000 0.000000 0.000000 0.000000 0.140458
#
#
# Mechanical properties :
#
#
# Convention : Reuss Voigt Hill
#
# Bulk Modulus (GPa) = 43.52913 76.96942 60.24928
# Shear Modulus (GPa) = 3.57118 27.08526 15.32822
#
# Velocity S-wave (km/s) = 1.37527 3.78746 2.84923
# Velocity P-wave (km/s) = 5.05723 7.73892 6.53707
#
# Compressibility (1/GPa) = 0.02297312
#
# Stress axis : x y z
#
# Youngs Moduli (GPa) = 132.48051 40.45774 118.73753
#
# Poissons Ratio (x) = 0.18824 0.41956
# Poissons Ratio (y) = 0.61639 0.07966
# Poissons Ratio (z) = 0.46812 0.02714
#
# Static dielectric constant tensor:
#      x y z
#    x 1.647910 0.000000 0.000000 
#    y 0.000000 1.626050 0.000000 
#    z 0.000000 0.000000 1.636450 
# 
# From -- ./inp_files/49244.got.cif
#   From: 2010.05.17/outbox.cif.g08.bks.cpg/sg65_25_cif.got.tgz:49244.got - 2010.06.03 17:01:31.
