data_PCOD9492839
_publ_section_title
;
Structure prediction by ZEFSAII (Michael W. Deem and Ramdas Pophale) SiO2 
 PCOD9492839
Probable space group: C M M M
;
_chemical_formula_sum "Si O2"
_cell_formula_units_Z 88
_cell_length_a 22.065885
_cell_length_b 8.425295
_cell_length_c 26.686980
_cell_angle_alpha 90.000000
_cell_angle_beta 90.000000
_cell_angle_gamma 90.000000
_cell_volume 4961.418899
_symmetry_space_group_name_H-M "C M M M"
_symmetry_group_IT_number 65
_symmetry_cell_setting 'orthorhombic'
loop_
_space_group_symop_operation_xyz
x,y,z
-x,-y,z
x,-y,-z
-x,y,-z
-x,-y,-z
x,y,-z
-x,y,z
x,-y,z
1/2+x,1/2+y,z
1/2-x,1/2-y,z
1/2+x,1/2-y,-z
1/2-x,1/2+y,-z
1/2-x,1/2-y,-z
1/2+x,1/2+y,-z
1/2-x,1/2+y,z
1/2+x,1/2-y,z
loop_
_atom_site_type_symbol
_atom_site_label
_atom_site_fract_x
_atom_site_fract_y
_atom_site_fract_z
Si Si1 0.181909 0.687867 0.204380
Si Si2 0.316700 0.690477 0.000000
Si Si3 0.876185 0.809409 0.102131
Si Si4 0.573714 0.000000 0.558813
Si Si5 0.571991 0.321969 0.388101
Si Si6 0.931278 0.187650 0.731748
Si Si7 0.000000 0.310088 0.940264
O O1 0.185828 0.500000 0.204221
O O2 0.250000 0.750000 0.215992
O O3 0.159537 0.746687 0.149990
O O4 0.126769 0.738202 0.241105
O O5 0.250000 0.750000 0.000000
O O6 0.345648 0.748616 0.949009
O O7 0.321102 0.500000 0.000000
O O8 0.943721 0.750447 0.092403
O O9 0.875643 0.000000 0.104636
O O10 0.595883 0.164550 0.584150
O O11 0.500000 0.000000 0.564256
O O12 0.587556 0.000000 0.500000
O O13 0.500000 0.328818 0.399536
O O14 0.596415 0.500000 0.400291
O O15 0.576453 0.297997 0.328239
O O16 0.000000 0.248064 0.744348
O O17 0.931274 0.000000 0.743807
O O18 0.000000 0.500000 0.942513
O O19 0.000000 0.254180 0.000000
#
# Coordination Sequence:
#
# PCOD9492839 Si02
#       7
#    16   8  16   8  16  16   8
#     4  12  26  42  60  85 117 151 189 240 293 348
#     4  10  22  37  58  81 101 136 178 216 269 340
#     4  11  23  41  61  82 111 146 182 225 281 339
#     4   9  16  24  40  70 110 154 196 237 286 342
#     4   8  15  28  46  70 105 148 193 239 287 341
#     4   9  19  37  60  84 111 151 196 240 292 348
#     4  11  23  39  61  89 115 143 181 229 273 330
#
# _framework density 17.736861999999999
#
# number of rings (size 3 to 8) (size 9 to 14) (size 15 to 20)
#    0.000    2.000    0.909    4.091    2.545    4.000 
#    0.000    1.818    0.000    0.000    0.000    0.000 
#    0.000    0.727    0.364    0.000    0.000    0.000 
#
# Total GULP energy -245156.242160 kJ/mol
# GULP energy per Si atom -5571.732776 kJ/mol
# Density = 1.769649 g / cm^3
# Si number density = 17.736862 Si / 1000 Ang^3
#
#
#
# Elastic Constant Matrix: (Units=GPa)
#
#
# Indices 1 2 3 4 5 6 
#
# 1 122.1392 49.4463 39.3757 0.0000 0.0000 0.0000
# 2 49.4463 120.4805 60.8184 0.0000 0.0000 0.0000
# 3 39.3757 60.8184 59.8805 0.0000 0.0000 0.0000
# 4 0.0000 0.0000 0.0000 32.3421 0.0000 0.0000
# 5 0.0000 0.0000 0.0000 0.0000 -16.8389 0.0000
# 6 0.0000 0.0000 0.0000 0.0000 0.0000 23.1916
#
#
#
# Elastic Compliance Matrix: (Units=1/GPa)
#
#
# Indices 1 2 3 4 5 6 
#
# 1 0.010557 -0.001700 -0.005215 0.000000 0.000000 0.000000
# 2 -0.001700 0.017307 -0.016460 0.000000 0.000000 0.000000
# 3 -0.005215 -0.016460 0.036847 0.000000 0.000000 0.000000
# 4 0.000000 0.000000 0.000000 0.030919 0.000000 0.000000
# 5 0.000000 0.000000 0.000000 0.000000 -0.059386 0.000000
# 6 0.000000 0.000000 0.000000 0.000000 0.000000 0.043119
#
#
# Mechanical properties :
#
#
# Convention : Reuss Voigt Hill
#
# Bulk Modulus (GPa) = 55.67839 66.86456 61.27147
# Shear Modulus (GPa) = 37.85003 17.92961 27.88982
#
# Velocity S-wave (km/s) = 4.62451 3.18286 3.96968
# Velocity P-wave (km/s) = 7.74431 7.16152 7.45861
#
# Compressibility (1/GPa) = 0.01796029
#
# Stress axis : x y z
#
# Youngs Moduli (GPa) = 94.72449 57.78096 27.13912
#
# Poissons Ratio (x) = 0.09823 0.14154
# Poissons Ratio (y) = 0.16103 0.44671
# Poissons Ratio (z) = 0.49402 0.95107
#
# Static dielectric constant tensor:
#      x y z
#    x 1.326000 0.000000 0.000000 
#    y 0.000000 1.628810 0.000000 
#    z 0.000000 0.000000 1.597650 
# 
# From -- ./inp_files/71068.got.cif
#   From: 2010.05.17/outbox.cif.g08.bks.cpg/sg65_36_cif.got.tgz:71068.got - 2010.06.03 17:01:31.
