data_PCOD9492466
_publ_section_title
;
Structure prediction by ZEFSAII (Michael W. Deem and Ramdas Pophale) SiO2 
 PCOD9492466
Probable space group: C M M M
;
_chemical_formula_sum "Si O2"
_cell_formula_units_Z 64
_cell_length_a 28.478491
_cell_length_b 8.733049
_cell_length_c 13.126164
_cell_angle_alpha 90.000000
_cell_angle_beta 90.000000
_cell_angle_gamma 90.000000
_cell_volume 3264.530244
_symmetry_space_group_name_H-M "C M M M"
_symmetry_group_IT_number 65
_symmetry_cell_setting 'orthorhombic'
loop_
_space_group_symop_operation_xyz
x,y,z
-x,-y,z
x,-y,-z
-x,y,-z
-x,-y,-z
x,y,-z
-x,y,z
x,-y,z
1/2+x,1/2+y,z
1/2-x,1/2-y,z
1/2+x,1/2-y,-z
1/2-x,1/2+y,-z
1/2-x,1/2-y,-z
1/2+x,1/2+y,-z
1/2-x,1/2+y,z
1/2+x,1/2-y,z
loop_
_atom_site_type_symbol
_atom_site_label
_atom_site_fract_x
_atom_site_fract_y
_atom_site_fract_z
Si Si1 0.943056 0.825572 0.000000
Si Si2 0.444841 0.182280 0.782455
Si Si3 0.302677 0.816175 0.885093
Si Si4 0.356967 0.318082 0.692916
Si Si5 0.302511 0.182799 0.500000
O O1 0.931168 0.738780 0.104019
O O2 0.000000 0.833011 0.000000
O O3 0.924992 0.000000 0.000000
O O4 0.500000 0.217027 0.767295
O O5 0.410785 0.264465 0.703106
O O6 0.438492 0.000000 0.776936
O O7 0.250000 0.750000 0.878734
O O8 0.332425 0.739253 0.796561
O O9 0.302014 0.000000 0.871914
O O10 0.320221 0.783136 0.000000
O O11 0.353831 0.500000 0.684629
O O12 0.330214 0.241124 0.599080
O O13 0.250000 0.250000 0.500000
O O14 0.300015 0.000000 0.500000
#
# Coordination Sequence:
#
# PCOD9492466 Si02
#       5
#     8  16  16  16   8
#     4   9  17  31  53  83 120 163 208 255 307 363
#     4  10  21  38  60  88 125 168 213 260 312 371
#     4  10  21  38  60  88 124 163 204 252 311 376
#     4  12  25  41  64  93 126 163 210 259 315 375
#     4  12  26  48  73  96 125 160 208 261 317 377
#
# _framework density 19.604659000000002
#
# number of rings (size 3 to 8) (size 9 to 14) (size 15 to 20)
#    0.000    1.375    0.000    6.000    1.750    4.500 
#    0.000    0.625    0.000    3.750    0.000    0.000 
#    0.000    0.000    0.000    0.000    0.000    0.000 
#
# Total GULP energy -179007.202149 kJ/mol
# GULP energy per Si atom -5593.975067 kJ/mol
# Density = 1.956004 g / cm^3
# Si number density = 19.604659 Si / 1000 Ang^3
#
#
#
# Elastic Constant Matrix: (Units=GPa)
#
#
# Indices 1 2 3 4 5 6 
#
# 1 114.7832 74.7109 82.8809 0.0000 0.0000 0.0000
# 2 74.7109 167.4220 81.7359 0.0000 0.0000 0.0000
# 3 82.8809 81.7359 124.8682 0.0000 0.0000 0.0000
# 4 0.0000 0.0000 0.0000 26.9000 0.0000 0.0000
# 5 0.0000 0.0000 0.0000 0.0000 26.7802 0.0000
# 6 0.0000 0.0000 0.0000 0.0000 0.0000 35.1063
#
#
#
# Elastic Compliance Matrix: (Units=1/GPa)
#
#
# Indices 1 2 3 4 5 6 
#
# 1 0.017826 -0.003201 -0.009737 0.000000 0.000000 0.000000
# 2 -0.003201 0.009353 -0.003997 0.000000 0.000000 0.000000
# 3 -0.009737 -0.003997 0.017088 0.000000 0.000000 0.000000
# 4 0.000000 0.000000 0.000000 0.037175 0.000000 0.000000
# 5 0.000000 0.000000 0.000000 0.000000 0.037341 0.000000
# 6 0.000000 0.000000 0.000000 0.000000 0.000000 0.028485
#
#
# Mechanical properties :
#
#
# Convention : Reuss Voigt Hill
#
# Bulk Modulus (GPa) = 96.18828 98.41432 97.30130
# Shear Modulus (GPa) = 27.08505 28.94036 28.01270
#
# Velocity S-wave (km/s) = 3.72097 3.84630 3.78415
# Velocity P-wave (km/s) = 8.22383 8.36862 8.29654
#
# Compressibility (1/GPa) = 0.01039628
#
# Stress axis : x y z
#
# Youngs Moduli (GPa) = 56.09699 106.91668 58.52182
#
# Poissons Ratio (x) = 0.34229 0.56980
# Poissons Ratio (y) = 0.17959 0.23393
# Poissons Ratio (z) = 0.54619 0.42739
#
# Static dielectric constant tensor:
#      x y z
#    x 1.722300 0.000000 0.000000 
#    y 0.000000 1.653880 0.000000 
#    z 0.000000 0.000000 1.655710 
# 
# From -- ./inp_files/21025.got.cif
#   From: 2010.05.17/outbox.cif.g08.bks.cpg/sg65_11_cif.got.tgz:21025.got - 2010.06.03 17:01:31.
