data_PCOD9492648
_publ_section_title
;
Structure prediction by ZEFSAII (Michael W. Deem and Ramdas Pophale) SiO2 
 PCOD9492648
Probable space group: C M M M
;
_chemical_formula_sum "Si O2"
_cell_formula_units_Z 72
_cell_length_a 29.478365
_cell_length_b 8.001061
_cell_length_c 13.807401
_cell_angle_alpha 90.000000
_cell_angle_beta 90.000000
_cell_angle_gamma 90.000000
_cell_volume 3256.588699
_symmetry_space_group_name_H-M "C M M M"
_symmetry_group_IT_number 65
_symmetry_cell_setting 'orthorhombic'
loop_
_space_group_symop_operation_xyz
x,y,z
-x,-y,z
x,-y,-z
-x,y,-z
-x,-y,-z
x,y,-z
-x,y,z
x,-y,z
1/2+x,1/2+y,z
1/2-x,1/2-y,z
1/2+x,1/2-y,-z
1/2-x,1/2+y,-z
1/2-x,1/2-y,-z
1/2+x,1/2+y,-z
1/2-x,1/2+y,z
1/2+x,1/2-y,z
loop_
_atom_site_type_symbol
_atom_site_label
_atom_site_fract_x
_atom_site_fract_y
_atom_site_fract_z
Si Si1 0.548912 0.801828 0.117766
Si Si2 0.392463 0.318366 0.384258
Si Si3 0.699188 0.199631 0.298938
Si Si4 0.051996 0.500000 0.618272
Si Si5 0.351053 0.203937 0.890172
O O1 0.500000 0.731587 0.151380
O O2 0.598934 0.734303 0.142594
O O3 0.548828 0.000000 0.141345
O O4 0.548605 0.792094 0.000000
O O5 0.398428 0.319854 0.500000
O O6 0.406137 0.500000 0.346883
O O7 0.339951 0.283234 0.362407
O O8 0.422234 0.164639 0.346915
O O9 0.750000 0.250000 0.323833
O O10 0.686336 0.249794 0.188728
O O11 0.694408 0.000000 0.307977
O O12 0.053445 0.500000 0.500000
O O13 0.000000 0.500000 0.646800
O O14 0.353300 0.000000 0.891911
O O15 0.341853 0.259164 0.000000
#
# Coordination Sequence:
#
# PCOD9492648 Si02
#       5
#    16  16  16   8  16
#     4   7   9  16  34  60  90 126 168 215 271 335
#     4  10  21  39  63  91 125 161 199 248 301 360
#     4  11  22  36  55  79 113 156 205 259 312 365
#     4   9  18  36  64  96 129 165 203 243 293 358
#     4   8  15  28  46  70 105 149 194 243 299 360
#
# _framework density 22.109024999999999
#
# number of rings (size 3 to 8) (size 9 to 14) (size 15 to 20)
#    0.000    3.000    1.111    2.667    0.000    1.333 
#    0.000    3.333    0.000    2.000    0.000    0.000 
#    0.000    0.000    0.000   24.222    0.000    1.111 
#
# Total GULP energy -200977.741826 kJ/mol
# GULP energy per Si atom -5582.715051 kJ/mol
# Density = 2.205870 g / cm^3
# Si number density = 22.109025 Si / 1000 Ang^3
#
#
#
# Elastic Constant Matrix: (Units=GPa)
#
#
# Indices 1 2 3 4 5 6 
#
# 1 124.2116 57.5412 -13.5177 0.0000 0.0000 0.0000
# 2 57.5412 111.9148 25.3324 0.0000 0.0000 0.0000
# 3 -13.5177 25.3324 41.5634 0.0000 0.0000 0.0000
# 4 0.0000 0.0000 0.0000 -6.3959 0.0000 0.0000
# 5 0.0000 0.0000 0.0000 0.0000 37.5745 0.0000
# 6 0.0000 0.0000 0.0000 0.0000 0.0000 15.3823
#
#
#
# Elastic Compliance Matrix: (Units=1/GPa)
#
#
# Indices 1 2 3 4 5 6 
#
# 1 0.013340 -0.009095 0.009882 0.000000 0.000000 0.000000
# 2 -0.009095 0.016567 -0.013056 0.000000 0.000000 0.000000
# 3 0.009882 -0.013056 0.035231 0.000000 0.000000 0.000000
# 4 0.000000 0.000000 0.000000 -0.156350 0.000000 0.000000
# 5 0.000000 0.000000 0.000000 0.000000 0.026614 0.000000
# 6 0.000000 0.000000 0.000000 0.000000 0.000000 0.065010
#
#
# Mechanical properties :
#
#
# Convention : Reuss Voigt Hill
#
# Bulk Modulus (GPa) = 24.63078 46.26686 35.44882
# Shear Modulus (GPa) = 129.92981 23.20110 76.56545
#
# Velocity S-wave (km/s) = 7.67433 3.24295 5.89118
# Velocity P-wave (km/s) = 9.47058 5.91561 7.89577
#
# Compressibility (1/GPa) = 0.04059961
#
# Stress axis : x y z
#
# Youngs Moduli (GPa) = 74.96407 60.36089 28.38426
#
# Poissons Ratio (x) = 0.54901 -0.28050
# Poissons Ratio (y) = 0.68184 0.37057
# Poissons Ratio (z) = -0.74080 0.78804
#
# Static dielectric constant tensor:
#      x y z
#    x 1.786860 0.000000 0.000000 
#    y 0.000000 1.813680 0.000000 
#    z 0.000000 0.000000 1.858130 
# 
# From -- ./inp_files/46508.got.cif
#   From: 2010.05.17/outbox.cif.g08.bks.cpg/sg65_24_cif.got.tgz:46508.got - 2010.06.03 17:01:31.
