data_PCOD9492482
_publ_section_title
;
Structure prediction by ZEFSAII (Michael W. Deem and Ramdas Pophale) SiO2 
 PCOD9492482
Probable space group: C M M M
;
_chemical_formula_sum "Si O2"
_cell_formula_units_Z 74
_cell_length_a 8.143980
_cell_length_b 15.486646
_cell_length_c 30.645854
_cell_angle_alpha 90.000000
_cell_angle_beta 90.000000
_cell_angle_gamma 90.000000
_cell_volume 3865.145061
_symmetry_space_group_name_H-M "C M M M"
_symmetry_group_IT_number 65
_symmetry_cell_setting 'orthorhombic'
loop_
_space_group_symop_operation_xyz
x,y,z
-x,-y,z
x,-y,-z
-x,y,-z
-x,-y,-z
x,y,-z
-x,y,z
x,-y,z
1/2+x,1/2+y,z
1/2-x,1/2-y,z
1/2+x,1/2-y,-z
1/2-x,1/2+y,-z
1/2-x,1/2-y,-z
1/2+x,1/2+y,-z
1/2-x,1/2+y,z
1/2+x,1/2-y,z
loop_
_atom_site_type_symbol
_atom_site_label
_atom_site_fract_x
_atom_site_fract_y
_atom_site_fract_z
Si Si1 0.305300 0.653427 0.726998
Si Si2 0.697646 0.000000 0.210874
Si Si3 0.805023 0.500000 0.111600
Si Si4 0.811082 0.000000 0.430862
Si Si5 0.692925 0.848616 0.629402
Si Si6 0.000000 0.500000 0.500000
Si Si7 0.196034 0.152816 0.950708
O O1 0.500000 0.653400 0.720151
O O2 0.250000 0.750000 0.739342
O O3 0.257595 0.583926 0.763057
O O4 0.223113 0.631866 0.680465
O O5 0.759713 0.000000 0.161062
O O6 0.500000 0.000000 0.210960
O O7 0.753549 0.416315 0.084250
O O8 0.000000 0.500000 0.114639
O O9 0.789907 0.084497 0.400544
O O10 0.651219 0.000000 0.462643
O O11 0.000000 0.000000 0.448627
O O12 0.500000 0.855676 0.620017
O O13 0.750000 0.750000 0.622230
O O14 0.250000 0.250000 0.940068
O O15 0.000000 0.150098 0.952064
O O16 0.257871 0.132780 0.000000
#
# Coordination Sequence:
#
# PCOD9492482 Si02
#       7
#    16   8   8   8  16   2  16
#     4  11  22  38  61  92 122 158 201 252 306 358
#     4  11  24  41  57  81 120 161 202 241 299 363
#     4  11  24  39  58  83 115 157 197 241 295 364
#     4  12  24  44  69  93 132 170 213 264 311 377
#     4  11  21  39  66  98 128 162 210 260 311 365
#     4  12  26  48  64  98 128 178 214 256 324 374
#     4  10  21  38  61  87 114 146 191 245 299 352
#
# _framework density 19.145465000000002
#
# number of rings (size 3 to 8) (size 9 to 14) (size 15 to 20)
#    0.000    1.081    1.081    7.622    0.000    5.189 
#    0.000    0.541    0.000    0.000    0.000    0.000 
#    0.000    0.000    0.000    0.000    0.000    0.000 
#
# Total GULP energy -206534.193812 kJ/mol
# GULP energy per Si atom -5582.005238 kJ/mol
# Density = 1.910189 g / cm^3
# Si number density = 19.145465 Si / 1000 Ang^3
#
#
#
# Elastic Constant Matrix: (Units=GPa)
#
#
# Indices 1 2 3 4 5 6 
#
# 1 116.1268 25.5281 29.3431 0.0000 0.0000 0.0000
# 2 25.5281 112.3928 103.2397 0.0000 0.0000 0.0000
# 3 29.3431 103.2397 136.4695 0.0000 0.0000 0.0000
# 4 0.0000 0.0000 0.0000 -12.2786 0.0000 0.0000
# 5 0.0000 0.0000 0.0000 0.0000 29.9445 0.0000
# 6 0.0000 0.0000 0.0000 0.0000 0.0000 30.8065
#
#
#
# Elastic Compliance Matrix: (Units=1/GPa)
#
#
# Indices 1 2 3 4 5 6 
#
# 1 0.009133 -0.000887 -0.001293 0.000000 0.000000 0.000000
# 2 -0.000887 0.029248 -0.021935 0.000000 0.000000 0.000000
# 3 -0.001293 -0.021935 0.024200 0.000000 0.000000 0.000000
# 4 0.000000 0.000000 0.000000 -0.081443 0.000000 0.000000
# 5 0.000000 0.000000 0.000000 0.000000 0.033395 0.000000
# 6 0.000000 0.000000 0.000000 0.000000 0.000000 0.032461
#
#
# Mechanical properties :
#
#
# Convention : Reuss Voigt Hill
#
# Bulk Modulus (GPa) = 69.68439 75.69012 72.68726
# Shear Modulus (GPa) = 49.99624 23.48635 36.74130
#
# Velocity S-wave (km/s) = 5.11572 3.50627 4.38546
# Velocity P-wave (km/s) = 8.44810 7.48412 7.98068
#
# Compressibility (1/GPa) = 0.01435042
#
# Stress axis : x y z
#
# Youngs Moduli (GPa) = 109.49420 34.19054 41.32252
#
# Poissons Ratio (x) = 0.03032 0.05342
# Poissons Ratio (y) = 0.09711 0.90643
# Poissons Ratio (z) = 0.14155 0.74998
#
# Static dielectric constant tensor:
#      x y z
#    x 1.670170 0.000000 0.000000 
#    y 0.000000 1.629060 0.000000 
#    z 0.000000 0.000000 1.658580 
# 
# From -- ./inp_files/72646.got.cif
#   From: 2010.05.17/outbox.cif.g08.bks.cpg/sg65_37_cif.got.tgz:72646.got - 2010.06.03 17:01:31.
