data_PCOD9492057
_publ_section_title
;
Structure prediction by ZEFSAII (Michael W. Deem and Ramdas Pophale) SiO2 
 PCOD9492057
Probable space group: C M M M
;
_chemical_formula_sum "Si O2"
_cell_formula_units_Z 72
_cell_length_a 15.513351
_cell_length_b 8.956854
_cell_length_c 27.140037
_cell_angle_alpha 90.000000
_cell_angle_beta 90.000000
_cell_angle_gamma 90.000000
_cell_volume 3771.130395
_symmetry_space_group_name_H-M "C M M M"
_symmetry_group_IT_number 65
_symmetry_cell_setting 'orthorhombic'
loop_
_space_group_symop_operation_xyz
x,y,z
-x,-y,z
x,-y,-z
-x,y,-z
-x,-y,-z
x,y,-z
-x,y,z
x,-y,z
1/2+x,1/2+y,z
1/2-x,1/2-y,z
1/2+x,1/2-y,-z
1/2-x,1/2+y,-z
1/2-x,1/2-y,-z
1/2+x,1/2+y,-z
1/2-x,1/2+y,z
1/2+x,1/2-y,z
loop_
_atom_site_type_symbol
_atom_site_label
_atom_site_fract_x
_atom_site_fract_y
_atom_site_fract_z
Si Si1 0.345138 0.821324 0.054558
Si Si2 0.163159 0.321877 0.251050
Si Si3 0.000000 0.820228 0.425185
Si Si4 0.000000 0.679527 0.317748
Si Si5 0.899778 0.829786 0.846536
Si Si6 0.652693 0.319210 0.500000
O O1 0.250000 0.750000 0.055173
O O2 0.392230 0.749114 0.100756
O O3 0.340397 0.000000 0.060094
O O4 0.382621 0.789875 0.000000
O O5 0.169300 0.500000 0.249029
O O6 0.250000 0.250000 0.271071
O O7 0.148184 0.259240 0.196180
O O8 0.083349 0.279471 0.285577
O O9 0.911473 0.777643 0.454299
O O10 0.000000 0.754049 0.370866
O O11 0.000000 0.000000 0.424019
O O12 0.000000 0.500000 0.323479
O O13 0.000000 0.833443 0.832638
O O14 0.867133 0.000000 0.849809
O O15 0.662235 0.500000 0.500000
O O16 0.750000 0.250000 0.500000
#
# Coordination Sequence:
#
# PCOD9492057 Si02
#       6
#    16  16   8   8  16   8
#     4  10  21  37  57  80 108 143 183 230 287 351
#     4  11  23  41  62  86 117 155 198 247 299 357
#     4   9  20  38  60  86 124 165 203 249 300 351
#     4  10  23  41  61  88 123 159 202 251 300 352
#     4  11  23  38  58  83 111 146 189 238 292 353
#     4   9  19  37  60  90 124 165 209 249 296 350
#
# _framework density 19.092417999999999
#
# number of rings (size 3 to 8) (size 9 to 14) (size 15 to 20)
#    0.000    1.778    1.111    3.333    0.000    6.667 
#    0.000    7.778    0.000    0.000    0.000    0.000 
#    0.000    0.000    0.000    0.000    0.000    0.000 
#
# Total GULP energy -200985.549043 kJ/mol
# GULP energy per Si atom -5582.931918 kJ/mol
# Density = 1.904896 g / cm^3
# Si number density = 19.092418 Si / 1000 Ang^3
#
#
#
# Elastic Constant Matrix: (Units=GPa)
#
#
# Indices 1 2 3 4 5 6 
#
# 1 149.0503 52.0787 70.5879 0.0000 0.0000 0.0000
# 2 52.0787 76.8779 59.8103 0.0000 0.0000 0.0000
# 3 70.5879 59.8103 143.7798 0.0000 0.0000 0.0000
# 4 0.0000 0.0000 0.0000 36.8377 0.0000 0.0000
# 5 0.0000 0.0000 0.0000 0.0000 53.8606 0.0000
# 6 0.0000 0.0000 0.0000 0.0000 0.0000 32.0996
#
#
#
# Elastic Compliance Matrix: (Units=1/GPa)
#
#
# Indices 1 2 3 4 5 6 
#
# 1 0.009572 -0.004181 -0.002960 0.000000 0.000000 0.000000
# 2 -0.004181 0.021058 -0.006707 0.000000 0.000000 0.000000
# 3 -0.002960 -0.006707 0.011198 0.000000 0.000000 0.000000
# 4 0.000000 0.000000 0.000000 0.027146 0.000000 0.000000
# 5 0.000000 0.000000 0.000000 0.000000 0.018566 0.000000
# 6 0.000000 0.000000 0.000000 0.000000 0.000000 0.031153
#
#
# Mechanical properties :
#
#
# Convention : Reuss Voigt Hill
#
# Bulk Modulus (GPa) = 70.76309 81.62909 76.19609
# Shear Modulus (GPa) = 33.09037 37.04166 35.06601
#
# Velocity S-wave (km/s) = 4.16765 4.40946 4.29026
# Velocity P-wave (km/s) = 7.76550 8.29289 8.03352
#
# Compressibility (1/GPa) = 0.01413166
#
# Stress axis : x y z
#
# Youngs Moduli (GPa) = 104.47244 47.48724 89.29978
#
# Poissons Ratio (x) = 0.19857 0.26431
# Poissons Ratio (y) = 0.43685 0.59894
# Poissons Ratio (z) = 0.30922 0.31850
#
# Static dielectric constant tensor:
#      x y z
#    x 1.696850 0.000000 0.000000 
#    y 0.000000 1.646930 0.000000 
#    z 0.000000 0.000000 1.644060 
# 
# From -- ./inp_files/72619.got.cif
#   From: 2010.05.17/outbox.cif.g08.bks.cpg/sg65_37_cif.got.tgz:72619.got - 2010.06.03 17:01:31.
