data_PCOD9492882
_publ_section_title
;
Structure prediction by ZEFSAII (Michael W. Deem and Ramdas Pophale) SiO2 
 PCOD9492882
Probable space group: C M M M
;
_chemical_formula_sum "Si O2"
_cell_formula_units_Z 116
_cell_length_a 30.134088
_cell_length_b 7.433629
_cell_length_c 24.783070
_cell_angle_alpha 90.000000
_cell_angle_beta 90.000000
_cell_angle_gamma 90.000000
_cell_volume 5551.547220
_symmetry_space_group_name_H-M "C M M M"
_symmetry_group_IT_number 65
_symmetry_cell_setting 'orthorhombic'
loop_
_space_group_symop_operation_xyz
x,y,z
-x,-y,z
x,-y,-z
-x,y,-z
-x,-y,-z
x,y,-z
-x,y,z
x,-y,z
1/2+x,1/2+y,z
1/2-x,1/2-y,z
1/2+x,1/2-y,-z
1/2-x,1/2+y,-z
1/2-x,1/2-y,-z
1/2+x,1/2+y,-z
1/2-x,1/2+y,z
1/2+x,1/2-y,z
loop_
_atom_site_type_symbol
_atom_site_label
_atom_site_fract_x
_atom_site_fract_y
_atom_site_fract_z
Si Si1 0.050443 0.782332 0.562105
Si Si2 0.197929 0.215398 0.060081
Si Si3 0.627536 0.705297 0.143738
Si Si4 0.872433 0.704509 0.356664
Si Si5 0.500000 0.500000 0.762154
Si Si6 0.420340 0.792555 0.250248
Si Si7 0.550453 0.217635 0.062046
Si Si8 0.197888 0.715637 0.560254
O O1 0.058530 0.730357 0.500000
O O2 0.086509 0.705269 0.601886
O O3 0.000000 0.731061 0.576410
O O4 0.052705 0.000000 0.564909
O O5 0.250000 0.250000 0.067851
O O6 0.167704 0.285527 0.108544
O O7 0.191226 0.000000 0.058900
O O8 0.185598 0.283899 0.000000
O O9 0.638869 0.500000 0.157985
O O10 0.611096 0.796866 0.197900
O O11 0.585963 0.706532 0.102805
O O12 0.859027 0.500000 0.343417
O O13 0.891857 0.778975 0.301184
O O14 0.832275 0.787833 0.391200
O O15 0.460968 0.341472 0.760614
O O16 0.434727 0.000000 0.261721
O O17 0.500000 0.271191 0.075767
O O18 0.552336 0.000000 0.064532
O O19 0.559198 0.269984 0.000000
O O20 0.185639 0.783585 0.500000
O O21 0.191227 0.500000 0.558961
O O22 0.250000 0.750000 0.568074
#
# Coordination Sequence:
#
# PCOD9492882 Si02
#       8
#    16  16  16  16   4  16  16  16
#     4   9  19  33  51  78 111 147 188 237 295 360
#     4   9  19  36  60  90 123 160 205 256 315 382
#     4  11  22  38  58  85 121 160 205 260 315 373
#     4  10  22  38  57  82 116 155 198 254 308 366
#     4  12  26  48  68  90 122 172 218 272 312 366
#     4  11  26  44  65  93 124 165 219 263 315 374
#     4   9  19  34  52  78 112 151 195 244 301 366
#     4   9  18  35  59  88 120 155 198 248 309 378
#
# _framework density 20.895076
#
# number of rings (size 3 to 8) (size 9 to 14) (size 15 to 20)
#    0.000    2.207    0.690    2.276    2.897    3.862 
#    0.000    4.828    0.000    3.310    0.000    0.000 
#    0.000    0.000    0.000    0.000    0.000    0.000 
#
# Total GULP energy -323351.656526 kJ/mol
# GULP energy per Si atom -5575.028561 kJ/mol
# Density = 2.084752 g / cm^3
# Si number density = 20.895076 Si / 1000 Ang^3
#
#
#
# Elastic Constant Matrix: (Units=GPa)
#
#
# Indices 1 2 3 4 5 6 
#
# 1 98.4163 8.6601 82.6503 0.0000 0.0000 0.0000
# 2 8.6601 93.2794 12.1111 0.0000 0.0000 0.0000
# 3 82.6503 12.1111 104.9670 0.0000 0.0000 0.0000
# 4 0.0000 0.0000 0.0000 13.3180 0.0000 0.0000
# 5 0.0000 0.0000 0.0000 0.0000 20.5577 0.0000
# 6 0.0000 0.0000 0.0000 0.0000 0.0000 21.2403
#
#
#
# Elastic Compliance Matrix: (Units=1/GPa)
#
#
# Indices 1 2 3 4 5 6 
#
# 1 0.030003 0.000286 -0.023657 0.000000 0.000000 0.000000
# 2 0.000286 0.010886 -0.001481 0.000000 0.000000 0.000000
# 3 -0.023657 -0.001481 0.028325 0.000000 0.000000 0.000000
# 4 0.000000 0.000000 0.000000 0.075086 0.000000 0.000000
# 5 0.000000 0.000000 0.000000 0.000000 0.048644 0.000000
# 6 0.000000 0.000000 0.000000 0.000000 0.000000 0.047080
#
#
# Mechanical properties :
#
#
# Convention : Reuss Voigt Hill
#
# Bulk Modulus (GPa) = 51.25664 55.94509 53.60087
# Shear Modulus (GPa) = 16.87856 23.90596 20.39226
#
# Velocity S-wave (km/s) = 2.84523 3.38612 3.12739
# Velocity P-wave (km/s) = 5.94790 6.49000 6.22485
#
# Compressibility (1/GPa) = 0.01950967
#
# Stress axis : x y z
#
# Youngs Moduli (GPa) = 33.32961 91.85903 35.30391
#
# Poissons Ratio (x) = -0.02628 0.83520
# Poissons Ratio (y) = -0.00954 0.05230
# Poissons Ratio (z) = 0.78849 0.13607
#
# Static dielectric constant tensor:
#      x y z
#    x 1.720270 0.000000 0.000000 
#    y 0.000000 1.795810 0.000000 
#    z 0.000000 0.000000 1.772090 
# 
# From -- ./inp_files/72275.got.cif
#   From: 2010.05.17/outbox.cif.g08.bks.cpg/sg65_37_cif.got.tgz:72275.got - 2010.06.03 17:01:31.
