data_PCOD9492322
_publ_section_title
;
Structure prediction by ZEFSAII (Michael W. Deem and Ramdas Pophale) SiO2 
 PCOD9492322
Probable space group: C M M M
;
_chemical_formula_sum "Si O2"
_cell_formula_units_Z 104
_cell_length_a 23.150691
_cell_length_b 17.976033
_cell_length_c 14.942296
_cell_angle_alpha 90.000000
_cell_angle_beta 90.000000
_cell_angle_gamma 90.000000
_cell_volume 6218.349824
_symmetry_space_group_name_H-M "C M M M"
_symmetry_group_IT_number 65
_symmetry_cell_setting 'orthorhombic'
loop_
_space_group_symop_operation_xyz
x,y,z
-x,-y,z
x,-y,-z
-x,y,-z
-x,-y,-z
x,y,-z
-x,y,z
x,-y,z
1/2+x,1/2+y,z
1/2-x,1/2-y,z
1/2+x,1/2-y,-z
1/2-x,1/2+y,-z
1/2-x,1/2-y,-z
1/2+x,1/2+y,-z
1/2-x,1/2+y,z
1/2+x,1/2-y,z
loop_
_atom_site_type_symbol
_atom_site_label
_atom_site_fract_x
_atom_site_fract_y
_atom_site_fract_z
Si Si1 0.164028 0.585603 0.107224
Si Si2 0.735580 0.585967 0.599890
Si Si3 0.398036 0.353975 0.211244
Si Si4 0.760456 0.836598 0.221165
Si Si5 0.595216 0.586616 0.599945
Si Si6 0.066622 0.293409 0.894021
Si Si7 0.568805 0.500000 0.898961
O O1 0.152463 0.500000 0.132549
O O2 0.221685 0.615306 0.154367
O O3 0.111478 0.641335 0.129976
O O4 0.171127 0.588291 0.000000
O O5 0.755372 0.606008 0.500000
O O6 0.751675 0.500000 0.618328
O O7 0.756516 0.639201 0.678205
O O8 0.665479 0.587533 0.598788
O O9 0.328497 0.350703 0.212279
O O10 0.420924 0.366292 0.312696
O O11 0.421330 0.279915 0.164174
O O12 0.413703 0.426520 0.154327
O O13 0.750000 0.750000 0.205374
O O14 0.576003 0.610131 0.500000
O O15 0.577974 0.500000 0.612404
O O16 0.000000 0.316673 0.882678
O O17 0.074897 0.275796 0.000000
O O18 0.500000 0.500000 0.904771
O O19 0.592862 0.500000 0.000000
#
# Coordination Sequence:
#
# PCOD9492322 Si02
#       7
#    16  16  16  16  16  16   8
#     4  10  22  38  55  78 106 137 174 219 268 318
#     4   8  15  28  48  73 103 139 175 210 250 301
#     4  11  20  34  54  79 109 143 179 214 264 315
#     4  11  21  33  51  80 113 142 170 206 262 322
#     4   8  14  27  48  73 102 138 178 215 254 304
#     4  10  21  38  58  76  98 134 179 227 271 309
#     4  11  24  38  53  77 107 143 187 227 258 307
#
# _framework density 16.724694
#
# number of rings (size 3 to 8) (size 9 to 14) (size 15 to 20)
#    0.000    2.231    2.308    2.308    2.154    3.385 
#    0.000    1.538    0.000    2.308    0.000    0.000 
#    0.000    0.000    0.000    4.615    0.000    0.462 
#
# Total GULP energy -289964.404639 kJ/mol
# GULP energy per Si atom -5576.238551 kJ/mol
# Density = 1.668663 g / cm^3
# Si number density = 16.724694 Si / 1000 Ang^3
#
#
#
# Elastic Constant Matrix: (Units=GPa)
#
#
# Indices 1 2 3 4 5 6 
#
# 1 53.8144 19.6858 20.6723 0.0000 0.0000 0.0000
# 2 19.6858 101.1086 46.6923 0.0000 0.0000 0.0000
# 3 20.6723 46.6923 77.7671 0.0000 0.0000 0.0000
# 4 0.0000 0.0000 0.0000 28.6770 0.0000 0.0000
# 5 0.0000 0.0000 0.0000 0.0000 -9.7464 0.0000
# 6 0.0000 0.0000 0.0000 0.0000 0.0000 7.5688
#
#
#
# Elastic Compliance Matrix: (Units=1/GPa)
#
#
# Indices 1 2 3 4 5 6 
#
# 1 0.021011 -0.002091 -0.004329 0.000000 0.000000 0.000000
# 2 -0.002091 0.013893 -0.007786 0.000000 0.000000 0.000000
# 3 -0.004329 -0.007786 0.018684 0.000000 0.000000 0.000000
# 4 0.000000 0.000000 0.000000 0.034871 0.000000 0.000000
# 5 0.000000 0.000000 0.000000 0.000000 -0.102602 0.000000
# 6 0.000000 0.000000 0.000000 0.000000 0.000000 0.132121
#
#
# Mechanical properties :
#
#
# Convention : Reuss Voigt Hill
#
# Bulk Modulus (GPa) = 39.72177 45.19898 42.46037
# Shear Modulus (GPa) = 32.30363 15.00922 23.65642
#
# Velocity S-wave (km/s) = 4.39964 2.99896 3.76501
# Velocity P-wave (km/s) = 7.04351 6.25105 6.65908
#
# Compressibility (1/GPa) = 0.02517511
#
# Stress axis : x y z
#
# Youngs Moduli (GPa) = 47.59515 71.97896 53.52087
#
# Poissons Ratio (x) = 0.15054 0.23171
# Poissons Ratio (y) = 0.09954 0.41669
# Poissons Ratio (z) = 0.20606 0.56040
#
# Static dielectric constant tensor:
#      x y z
#    x 1.558270 0.000000 0.000000 
#    y 0.000000 1.537180 0.000000 
#    z 0.000000 0.000000 1.590070 
# 
# From -- ./inp_files/45926.got.cif
#   From: 2010.05.17/outbox.cif.g08.bks.cpg/sg65_23_cif.got.tgz:45926.got - 2010.06.03 17:01:31.
