data_PCOD9492393
_publ_section_title
;
Structure prediction by ZEFSAII (Michael W. Deem and Ramdas Pophale) SiO2 
 PCOD9492393
Probable space group: C M M M
;
_chemical_formula_sum "Si O2"
_cell_formula_units_Z 98
_cell_length_a 14.462523
_cell_length_b 24.474530
_cell_length_c 15.523568
_cell_angle_alpha 90.000000
_cell_angle_beta 90.000000
_cell_angle_gamma 90.000000
_cell_volume 5494.775733
_symmetry_space_group_name_H-M "C M M M"
_symmetry_group_IT_number 65
_symmetry_cell_setting 'orthorhombic'
loop_
_space_group_symop_operation_xyz
x,y,z
-x,-y,z
x,-y,-z
-x,y,-z
-x,-y,-z
x,y,-z
-x,y,z
x,-y,z
1/2+x,1/2+y,z
1/2-x,1/2-y,z
1/2+x,1/2-y,-z
1/2-x,1/2+y,-z
1/2-x,1/2-y,-z
1/2+x,1/2+y,-z
1/2-x,1/2+y,z
1/2+x,1/2-y,z
loop_
_atom_site_type_symbol
_atom_site_label
_atom_site_fract_x
_atom_site_fract_y
_atom_site_fract_z
Si Si1 0.605628 0.800864 0.777967
Si Si2 0.606645 0.627840 0.334262
Si Si3 0.608676 0.298912 0.903889
Si Si4 0.762242 0.114779 0.828683
Si Si5 0.139192 0.750364 0.401055
Si Si6 0.887620 0.061562 0.500000
Si Si7 0.500000 0.000000 0.000000
Si Si8 0.304615 0.000000 0.095452
O O1 0.500000 0.812754 0.802254
O O2 0.631668 0.745129 0.829582
O O3 0.673573 0.848201 0.807113
O O4 0.610729 0.790535 0.675316
O O5 0.500000 0.614242 0.313499
O O6 0.672353 0.615561 0.254967
O O7 0.608790 0.690320 0.366648
O O8 0.640736 0.592830 0.414887
O O9 0.500000 0.313635 0.892357
O O10 0.675134 0.350884 0.895769
O O11 0.618412 0.274619 0.000000
O O12 0.729225 0.055145 0.857752
O O13 0.107692 0.741020 0.500000
O O14 0.250000 0.750000 0.402812
O O15 0.000000 0.062014 0.500000
O O16 0.854937 0.000000 0.500000
O O17 0.415262 0.000000 0.074194
O O18 0.260491 0.000000 0.000000
#
# Coordination Sequence:
#
# PCOD9492393 Si02
#       8
#    16  16  16  16  16   8   2   8
#     4  11  23  37  58  88 121 160 204 254 311 366
#     4  11  21  35  58  86 123 167 201 248 307 367
#     4  10  21  38  59  88 124 158 188 234 305 381
#     4  12  23  40  61  89 121 156 200 258 307 364
#     4  11  20  35  57  87 124 168 212 250 300 367
#     4   9  20  36  55  82 113 157 214 252 286 346
#     4   8  24  56  72  92 106 150 224 272 300 358
#     4  10  26  46  71  89 112 149 209 258 313 354
#
# _framework density 17.835122999999999
#
# number of rings (size 3 to 8) (size 9 to 14) (size 15 to 20)
#    0.245    1.061    4.082    1.959    2.286    2.939 
#    0.000    1.224    0.000    2.939    0.000    0.000 
#    0.000    2.612    0.000    0.000    0.000    0.000 
#
# Total GULP energy -273121.090685 kJ/mol
# GULP energy per Si atom -5573.899810 kJ/mol
# Density = 1.779453 g / cm^3
# Si number density = 17.835123 Si / 1000 Ang^3
#
#
#
# Elastic Constant Matrix: (Units=GPa)
#
#
# Indices 1 2 3 4 5 6 
#
# 1 108.0937 47.8438 37.8407 0.0000 0.0000 0.0000
# 2 47.8438 115.5520 48.6871 0.0000 0.0000 0.0000
# 3 37.8407 48.6871 121.1823 0.0000 0.0000 0.0000
# 4 0.0000 0.0000 0.0000 20.0437 0.0000 0.0000
# 5 0.0000 0.0000 0.0000 0.0000 -38.4655 0.0000
# 6 0.0000 0.0000 0.0000 0.0000 0.0000 13.6931
#
#
#
# Elastic Compliance Matrix: (Units=1/GPa)
#
#
# Indices 1 2 3 4 5 6 
#
# 1 0.011740 -0.003992 -0.002062 0.000000 0.000000 0.000000
# 2 -0.003992 0.011775 -0.003484 0.000000 0.000000 0.000000
# 3 -0.002062 -0.003484 0.010296 0.000000 0.000000 0.000000
# 4 0.000000 0.000000 0.000000 0.049891 0.000000 0.000000
# 5 0.000000 0.000000 0.000000 0.000000 -0.025997 0.000000
# 6 0.000000 0.000000 0.000000 0.000000 0.000000 0.073029
#
#
# Mechanical properties :
#
#
# Convention : Reuss Voigt Hill
#
# Bulk Modulus (GPa) = 67.86985 68.17458 68.02222
# Shear Modulus (GPa) = 32.31594 13.08468 22.70031
#
# Velocity S-wave (km/s) = 4.26129 2.71153 3.57148
# Velocity P-wave (km/s) = 7.89608 6.93621 7.43166
#
# Compressibility (1/GPa) = 0.01473408
#
# Stress axis : x y z
#
# Youngs Moduli (GPa) = 85.17837 84.92503 97.12681
#
# Poissons Ratio (x) = 0.33903 0.20029
# Poissons Ratio (y) = 0.34004 0.33842
# Poissons Ratio (z) = 0.17565 0.29590
#
# Static dielectric constant tensor:
#      x y z
#    x 1.618100 0.000000 0.000000 
#    y 0.000000 1.590460 0.000000 
#    z 0.000000 0.000000 1.638650 
# 
# From -- ./inp_files/40730.got.cif
#   From: 2010.05.17/outbox.cif.g08.bks.cpg/sg65_21_cif.got.tgz:40730.got - 2010.06.03 17:01:31.
