data_PCOD9492343
_publ_section_title
;
Structure prediction by ZEFSAII (Michael W. Deem and Ramdas Pophale) SiO2 
 PCOD9492343
Probable space group: C M M M
;
_chemical_formula_sum "Si O2"
_cell_formula_units_Z 100
_cell_length_a 29.016439
_cell_length_b 8.921893
_cell_length_c 20.023042
_cell_angle_alpha 90.000000
_cell_angle_beta 90.000000
_cell_angle_gamma 90.000000
_cell_volume 5183.596429
_symmetry_space_group_name_H-M "C M M M"
_symmetry_group_IT_number 65
_symmetry_cell_setting 'orthorhombic'
loop_
_space_group_symop_operation_xyz
x,y,z
-x,-y,z
x,-y,-z
-x,y,-z
-x,-y,-z
x,y,-z
-x,y,z
x,-y,z
1/2+x,1/2+y,z
1/2-x,1/2-y,z
1/2+x,1/2-y,-z
1/2-x,1/2+y,-z
1/2-x,1/2-y,-z
1/2+x,1/2+y,-z
1/2-x,1/2+y,z
1/2+x,1/2-y,z
loop_
_atom_site_type_symbol
_atom_site_label
_atom_site_fract_x
_atom_site_fract_y
_atom_site_fract_z
Si Si1 0.797371 0.172661 0.581421
Si Si2 0.447156 0.817893 0.926104
Si Si3 0.893739 0.323938 0.579749
Si Si4 0.321761 0.500000 0.000000
Si Si5 0.797954 0.835102 0.865678
Si Si6 0.383329 0.819971 0.196227
Si Si7 0.947268 0.820950 0.691902
O O1 0.796224 0.173254 0.500000
O O2 0.750000 0.250000 0.604158
O O3 0.843469 0.261406 0.600497
O O4 0.799906 0.000000 0.603006
O O5 0.500000 0.771398 0.914437
O O6 0.414081 0.770530 0.867476
O O7 0.446916 0.000000 0.927175
O O8 0.433174 0.765153 0.000000
O O9 0.897642 0.305689 0.500000
O O10 0.896841 0.500000 0.595373
O O11 0.932789 0.233557 0.618556
O O12 0.318181 0.371347 0.939669
O O13 0.750000 0.750000 0.873415
O O14 0.833280 0.745010 0.819543
O O15 0.789748 0.000000 0.835498
O O16 0.410203 0.754771 0.259349
O O17 0.382176 0.000000 0.199830
O O18 0.000000 0.775798 0.707910
O O19 0.944235 0.000000 0.696983
#
# Coordination Sequence:
#
# PCOD9492343 Si02
#       7
#    16  16  16   4  16  16  16
#     4   9  16  28  50  82 121 159 193 230 278 339
#     4   8  15  28  47  76 111 144 183 232 281 330
#     4  10  21  38  62  92 123 155 199 255 312 373
#     4   8  22  36  62  88 127 170 205 262 306 360
#     4  10  21  38  58  88 124 165 208 256 302 360
#     4  11  22  37  60  87 118 158 202 248 301 362
#     4  11  25  44  64  87 118 159 203 249 309 377
#
# _framework density 19.291625
#
# number of rings (size 3 to 8) (size 9 to 14) (size 15 to 20)
#    0.480    1.760    0.000    3.600    1.120    5.120 
#    0.000    2.400    0.000    0.000    0.000    4.480 
#    0.000    0.000    0.000    0.000    0.000    0.000 
#
# Total GULP energy -278363.903069 kJ/mol
# GULP energy per Si atom -5567.278061 kJ/mol
# Density = 1.924772 g / cm^3
# Si number density = 19.291625 Si / 1000 Ang^3
#
#
#
# Elastic Constant Matrix: (Units=GPa)
#
#
# Indices 1 2 3 4 5 6 
#
# 1 70.4501 36.4909 34.1454 0.0000 0.0000 0.0000
# 2 36.4909 84.7801 31.4595 0.0000 0.0000 0.0000
# 3 34.1454 31.4595 38.9663 0.0000 0.0000 0.0000
# 4 0.0000 0.0000 0.0000 26.5501 0.0000 0.0000
# 5 0.0000 0.0000 0.0000 0.0000 16.1584 0.0000
# 6 0.0000 0.0000 0.0000 0.0000 0.0000 22.6642
#
#
#
# Elastic Compliance Matrix: (Units=1/GPa)
#
#
# Indices 1 2 3 4 5 6 
#
# 1 0.025518 -0.003835 -0.019265 0.000000 0.000000 0.000000
# 2 -0.003835 0.017417 -0.010701 0.000000 0.000000 0.000000
# 3 -0.019265 -0.010701 0.051184 0.000000 0.000000 0.000000
# 4 0.000000 0.000000 0.000000 0.037665 0.000000 0.000000
# 5 0.000000 0.000000 0.000000 0.000000 0.061887 0.000000
# 6 0.000000 0.000000 0.000000 0.000000 0.000000 0.044122
#
#
# Mechanical properties :
#
#
# Convention : Reuss Voigt Hill
#
# Bulk Modulus (GPa) = 37.71111 44.26536 40.98823
# Shear Modulus (GPa) = 15.91174 19.21459 17.56316
#
# Velocity S-wave (km/s) = 2.87505 3.15938 3.02056
# Velocity P-wave (km/s) = 5.53277 6.02529 5.78427
#
# Compressibility (1/GPa) = 0.02651739
#
# Stress axis : x y z
#
# Youngs Moduli (GPa) = 39.18811 57.41648 19.53730
#
# Poissons Ratio (x) = 0.22018 0.37638
# Poissons Ratio (y) = 0.15028 0.20907
# Poissons Ratio (z) = 0.75495 0.61441
#
# Static dielectric constant tensor:
#      x y z
#    x 1.666270 0.000000 0.000000 
#    y 0.000000 1.659530 0.000000 
#    z 0.000000 0.000000 1.692900 
# 
# From -- ./inp_files/66360.got.cif
#   From: 2010.05.17/outbox.cif.g08.bks.cpg/sg65_34_cif.got.tgz:66360.got - 2010.06.03 17:01:31.
