data_PCOD9492826
_publ_section_title
;
Structure prediction by ZEFSAII (Michael W. Deem and Ramdas Pophale) SiO2 
 PCOD9492826
Probable space group: C M M M
;
_chemical_formula_sum "Si O2"
_cell_formula_units_Z 72
_cell_length_a 21.968314
_cell_length_b 7.840972
_cell_length_c 20.847399
_cell_angle_alpha 90.000000
_cell_angle_beta 90.000000
_cell_angle_gamma 90.000000
_cell_volume 3591.025664
_symmetry_space_group_name_H-M "C M M M"
_symmetry_group_IT_number 65
_symmetry_cell_setting 'orthorhombic'
loop_
_space_group_symop_operation_xyz
x,y,z
-x,-y,z
x,-y,-z
-x,y,-z
-x,-y,-z
x,y,-z
-x,y,z
x,-y,z
1/2+x,1/2+y,z
1/2-x,1/2-y,z
1/2+x,1/2-y,-z
1/2-x,1/2+y,-z
1/2-x,1/2-y,-z
1/2+x,1/2+y,-z
1/2-x,1/2+y,z
1/2+x,1/2-y,z
loop_
_atom_site_type_symbol
_atom_site_label
_atom_site_fract_x
_atom_site_fract_y
_atom_site_fract_z
Si Si1 0.500000 0.705094 0.923667
Si Si2 0.180893 0.704516 0.000000
Si Si3 0.429331 0.710220 0.358182
Si Si4 0.179297 0.197017 0.267410
Si Si5 0.926571 0.193459 0.500000
Si Si6 0.127695 0.298395 0.131454
O O1 0.500000 0.500000 0.925361
O O2 0.442909 0.769160 0.882624
O O3 0.500000 0.762378 0.000000
O O4 0.250000 0.750000 0.000000
O O5 0.154934 0.774875 0.065780
O O6 0.169733 0.500000 0.000000
O O7 0.500000 0.760576 0.343340
O O8 0.430659 0.500000 0.358665
O O9 0.376109 0.772067 0.310506
O O10 0.412367 0.769104 0.430468
O O11 0.250000 0.250000 0.274682
O O12 0.157156 0.218968 0.194260
O O13 0.179508 0.000000 0.284456
O O14 0.000000 0.182484 0.500000
O O15 0.901770 0.000000 0.500000
O O16 0.140366 0.500000 0.135917
#
# Coordination Sequence:
#
# PCOD9492826 Si02
#       6
#     8   8  16  16   8  16
#     4  11  23  39  61  89 115 144 181 228 285 343
#     4  10  22  37  56  77 101 136 182 232 279 332
#     4   8  15  29  52  81 111 144 187 237 285 336
#     4  11  23  38  56  81 116 153 192 239 289 346
#     4   7  10  22  47  78 109 141 180 231 285 333
#     4  11  23  40  59  81 111 148 188 234 285 337
#
# _framework density 20.049983000000001
#
# number of rings (size 3 to 8) (size 9 to 14) (size 15 to 20)
#    0.000    2.222    1.111    3.667    1.556    4.000 
#    0.000    0.556    0.000    0.000    0.000    2.333 
#    0.000   10.667    0.000    0.000    0.000    0.000 
#
# Total GULP energy -200512.566096 kJ/mol
# GULP energy per Si atom -5569.793503 kJ/mol
# Density = 2.000435 g / cm^3
# Si number density = 20.049983 Si / 1000 Ang^3
#
#
#
# Elastic Constant Matrix: (Units=GPa)
#
#
# Indices 1 2 3 4 5 6 
#
# 1 171.4438 -4.3488 92.8681 0.0000 0.0000 0.0000
# 2 -4.3488 16.8014 -3.3268 0.0000 0.0000 0.0000
# 3 92.8681 -3.3268 151.2945 0.0000 0.0000 0.0000
# 4 0.0000 0.0000 0.0000 17.8622 0.0000 0.0000
# 5 0.0000 0.0000 0.0000 0.0000 -31.6311 0.0000
# 6 0.0000 0.0000 0.0000 0.0000 0.0000 10.8334
#
#
#
# Elastic Compliance Matrix: (Units=1/GPa)
#
#
# Indices 1 2 3 4 5 6 
#
# 1 0.008763 0.001208 -0.005352 0.000000 0.000000 0.000000
# 2 0.001208 0.059946 0.000576 0.000000 0.000000 0.000000
# 3 -0.005352 0.000576 0.009908 0.000000 0.000000 0.000000
# 4 0.000000 0.000000 0.000000 0.055984 0.000000 0.000000
# 5 0.000000 0.000000 0.000000 0.000000 -0.031614 0.000000
# 6 0.000000 0.000000 0.000000 0.000000 0.000000 0.092307
#
#
# Mechanical properties :
#
#
# Convention : Reuss Voigt Hill
#
# Bulk Modulus (GPa) = 13.98973 56.65830 35.32401
# Shear Modulus (GPa) = 22.09899 16.36937 19.23418
#
# Velocity S-wave (km/s) = 3.32353 2.86042 3.10064
# Velocity P-wave (km/s) = 4.66052 6.26332 5.52040
#
# Compressibility (1/GPa) = 0.07148102
#
# Stress axis : x y z
#
# Youngs Moduli (GPa) = 114.12109 16.68179 100.93294
#
# Poissons Ratio (x) = -0.02016 0.54021
# Poissons Ratio (y) = -0.13789 -0.05818
# Poissons Ratio (z) = 0.61079 -0.00962
#
# Static dielectric constant tensor:
#      x y z
#    x 1.845060 0.000000 0.000000 
#    y 0.000000 1.765140 0.000000 
#    z 0.000000 0.000000 1.723990 
# 
# From -- ./inp_files/59399.got.cif
#   From: 2010.05.17/outbox.cif.g08.bks.cpg/sg65_30_cif.got.tgz:59399.got - 2010.06.03 17:01:31.
