data_PCOD9492723
_publ_section_title
;
Structure prediction by ZEFSAII (Michael W. Deem and Ramdas Pophale) SiO2 
 PCOD9492723
Probable space group: C M M M
;
_chemical_formula_sum "Si O2"
_cell_formula_units_Z 66
_cell_length_a 9.265764
_cell_length_b 15.402098
_cell_length_c 21.126063
_cell_angle_alpha 90.000000
_cell_angle_beta 90.000000
_cell_angle_gamma 90.000000
_cell_volume 3014.947037
_symmetry_space_group_name_H-M "C M M M"
_symmetry_group_IT_number 65
_symmetry_cell_setting 'orthorhombic'
loop_
_space_group_symop_operation_xyz
x,y,z
-x,-y,z
x,-y,-z
-x,y,-z
-x,-y,-z
x,y,-z
-x,y,z
x,-y,z
1/2+x,1/2+y,z
1/2-x,1/2-y,z
1/2+x,1/2-y,-z
1/2-x,1/2+y,-z
1/2-x,1/2-y,-z
1/2+x,1/2+y,-z
1/2-x,1/2+y,z
1/2+x,1/2-y,z
loop_
_atom_site_type_symbol
_atom_site_label
_atom_site_fract_x
_atom_site_fract_y
_atom_site_fract_z
Si Si1 0.500000 0.500000 0.000000
Si Si2 0.326654 0.342886 0.500000
Si Si3 0.165019 0.659339 0.139119
Si Si4 0.261515 0.142231 0.000000
Si Si5 0.337487 0.896976 0.624101
Si Si6 0.161993 0.101763 0.257344
O O1 0.623547 0.578706 0.000000
O O2 0.500000 0.340235 0.500000
O O3 0.250000 0.250000 0.500000
O O4 0.263956 0.386049 0.436635
O O5 0.250000 0.750000 0.137014
O O6 0.254572 0.607242 0.191146
O O7 0.000000 0.669743 0.159483
O O8 0.166477 0.623342 0.067734
O O9 0.250000 0.250000 0.000000
O O10 0.500000 0.860944 0.614218
O O11 0.258632 0.859668 0.686192
O O12 0.353915 0.000000 0.633800
O O13 0.000000 0.139238 0.253580
O O14 0.146280 0.000000 0.271841
#
# Coordination Sequence:
#
# PCOD9492723 Si02
#       6
#     2   8  16   8  16  16
#     4  12  28  48  82 110 144 216 238 302 412 426
#     4  12  25  40  61  89 123 159 205 258 313 388
#     4  11  24  42  66  95 135 182 227 291 357 414
#     4  10  27  44  75 105 146 186 251 302 364 447
#     4  10  21  40  64  91 124 163 206 262 326 390
#     4  10  22  39  63  92 127 166 216 272 327 403
#
# _framework density 21.890931999999999
#
# number of rings (size 3 to 8) (size 9 to 14) (size 15 to 20)
#    0.000    1.455    0.000    4.000   10.182    5.333 
#    0.000    5.455    0.000    0.000    0.000    0.000 
#    0.000    0.000    0.000    0.000    0.000    0.000 
#
# Total GULP energy -183845.242909 kJ/mol
# GULP energy per Si atom -5571.067967 kJ/mol
# Density = 2.184111 g / cm^3
# Si number density = 21.890932 Si / 1000 Ang^3
#
#
#
# Elastic Constant Matrix: (Units=GPa)
#
#
# Indices 1 2 3 4 5 6 
#
# 1 242.1311 31.3615 79.6612 0.0000 0.0000 0.0000
# 2 31.3615 56.7876 2.0027 0.0000 0.0000 0.0000
# 3 79.6612 2.0027 157.4372 0.0000 0.0000 0.0000
# 4 0.0000 0.0000 0.0000 -20.2276 0.0000 0.0000
# 5 0.0000 0.0000 0.0000 0.0000 20.6946 0.0000
# 6 0.0000 0.0000 0.0000 0.0000 0.0000 30.7638
#
#
#
# Elastic Compliance Matrix: (Units=1/GPa)
#
#
# Indices 1 2 3 4 5 6 
#
# 1 0.005388 -0.002881 -0.002690 0.000000 0.000000 0.000000
# 2 -0.002881 0.019158 0.001214 0.000000 0.000000 0.000000
# 3 -0.002690 0.001214 0.007697 0.000000 0.000000 0.000000
# 4 0.000000 0.000000 0.000000 -0.049437 0.000000 0.000000
# 5 0.000000 0.000000 0.000000 0.000000 0.048322 0.000000
# 6 0.000000 0.000000 0.000000 0.000000 0.000000 0.032506
#
#
# Mechanical properties :
#
#
# Convention : Reuss Voigt Hill
#
# Bulk Modulus (GPa) = 42.49905 75.82298 59.16102
# Shear Modulus (GPa) = 62.35255 29.13485 45.74370
#
# Velocity S-wave (km/s) = 5.34276 3.65212 4.57619
# Velocity P-wave (km/s) = 7.58395 7.24540 7.41661
#
# Compressibility (1/GPa) = 0.02352994
#
# Stress axis : x y z
#
# Youngs Moduli (GPa) = 185.59771 52.19866 129.91729
#
# Poissons Ratio (x) = 0.15037 0.34943
# Poissons Ratio (y) = 0.53466 -0.15771
# Poissons Ratio (z) = 0.49919 -0.06336
#
# Static dielectric constant tensor:
#      x y z
#    x 1.796830 0.000000 0.000000 
#    y 0.000000 1.808870 0.000000 
#    z 0.000000 0.000000 1.834160 
# 
# From -- ./inp_files/59036.got.cif
#   From: 2010.05.17/outbox.cif.g08.bks.cpg/sg65_30_cif.got.tgz:59036.got - 2010.06.03 17:01:31.
