data_PCOD9492304
_publ_section_title
;
Structure prediction by ZEFSAII (Michael W. Deem and Ramdas Pophale) SiO2 
 PCOD9492304
Probable space group: C M M M
;
_chemical_formula_sum "Si O2"
_cell_formula_units_Z 92
_cell_length_a 9.579891
_cell_length_b 26.099076
_cell_length_c 17.855910
_cell_angle_alpha 90.000000
_cell_angle_beta 90.000000
_cell_angle_gamma 90.000000
_cell_volume 4464.447169
_symmetry_space_group_name_H-M "C M M M"
_symmetry_group_IT_number 65
_symmetry_cell_setting 'orthorhombic'
loop_
_space_group_symop_operation_xyz
x,y,z
-x,-y,z
x,-y,-z
-x,y,-z
-x,-y,-z
x,y,-z
-x,y,z
x,-y,z
1/2+x,1/2+y,z
1/2-x,1/2-y,z
1/2+x,1/2-y,-z
1/2-x,1/2+y,-z
1/2-x,1/2-y,-z
1/2+x,1/2+y,-z
1/2-x,1/2+y,z
1/2+x,1/2-y,z
loop_
_atom_site_type_symbol
_atom_site_label
_atom_site_fract_x
_atom_site_fract_y
_atom_site_fract_z
Si Si1 0.839370 0.889170 0.649258
Si Si2 0.157852 0.109322 0.090408
Si Si3 0.845349 0.294899 0.120798
Si Si4 0.669521 0.500000 0.914637
Si Si5 0.330629 0.500000 0.587781
Si Si6 0.795052 0.174652 0.500000
Si Si7 0.157433 0.702545 0.701770
Si Si8 0.000000 0.273203 0.500000
O O1 0.837768 0.859146 0.571011
O O2 0.735740 0.851894 0.695280
O O3 0.000000 0.889480 0.678775
O O4 0.792884 0.947487 0.631565
O O5 0.266353 0.152525 0.108590
O O6 0.000000 0.121717 0.116047
O O7 0.204276 0.054070 0.121658
O O8 0.150643 0.104190 0.000000
O O9 0.750000 0.250000 0.089276
O O10 0.856912 0.286992 0.210090
O O11 0.000000 0.294637 0.089146
O O12 0.500000 0.500000 0.919542
O O13 0.725108 0.500000 0.000000
O O14 0.500000 0.500000 0.584913
O O15 0.283361 0.500000 0.500000
O O16 0.628655 0.184445 0.500000
O O17 0.881365 0.226851 0.500000
O O18 0.250000 0.750000 0.670213
O O19 0.000000 0.703182 0.667651
#
# Coordination Sequence:
#
# PCOD9492304 Si02
#       8
#    16  16  16   8   8   8  16   4
#     4  11  21  36  59  82 107 141 179 221 268 318
#     4   9  17  31  55  83 111 143 181 226 273 322
#     4  10  21  38  55  76 107 144 183 225 270 325
#     4   7  12  26  48  77 108 138 173 214 261 310
#     4   9  18  36  58  81 108 142 184 221 262 315
#     4  11  22  35  51  80 111 142 169 217 268 316
#     4  10  23  39  58  80 107 141 181 225 275 328
#     4  10  24  34  48  78 120 138 166 214 268 318
#
# _framework density 20.607254999999999
#
# number of rings (size 3 to 8) (size 9 to 14) (size 15 to 20)
#    0.000    2.261    1.739    2.087    3.652    2.783 
#    0.000    1.739    0.000    7.826    0.000    0.000 
#    0.000    0.000    0.000    0.000    0.000    0.000 
#
# Total GULP energy -256082.398874 kJ/mol
# GULP energy per Si atom -5567.008671 kJ/mol
# Density = 2.056035 g / cm^3
# Si number density = 20.607255 Si / 1000 Ang^3
#
#
#
# Elastic Constant Matrix: (Units=GPa)
#
#
# Indices 1 2 3 4 5 6 
#
# 1 171.6286 97.7328 9.6187 0.0000 0.0000 0.0000
# 2 97.7328 189.9772 -3.3235 0.0000 0.0000 0.0000
# 3 9.6187 -3.3235 28.8055 0.0000 0.0000 0.0000
# 4 0.0000 0.0000 0.0000 248.4513 0.0000 0.0000
# 5 0.0000 0.0000 0.0000 0.0000 23.5330 0.0000
# 6 0.0000 0.0000 0.0000 0.0000 0.0000 25.9727
#
#
#
# Elastic Compliance Matrix: (Units=1/GPa)
#
#
# Indices 1 2 3 4 5 6 
#
# 1 0.008555 -0.004460 -0.003371 0.000000 0.000000 0.000000
# 2 -0.004460 0.007600 0.002366 0.000000 0.000000 0.000000
# 3 -0.003371 0.002366 0.036114 0.000000 0.000000 0.000000
# 4 0.000000 0.000000 0.000000 0.004025 0.000000 0.000000
# 5 0.000000 0.000000 0.000000 0.000000 0.042494 0.000000
# 6 0.000000 0.000000 0.000000 0.000000 0.000000 0.038502
#
#
# Mechanical properties :
#
#
# Convention : Reuss Voigt Hill
#
# Bulk Modulus (GPa) = 24.19048 66.49635 45.34342
# Shear Modulus (GPa) = 30.86415 78.68361 54.77388
#
# Velocity S-wave (km/s) = 3.87425 6.18590 5.16116
# Velocity P-wave (km/s) = 5.63715 9.13011 7.58737
#
# Compressibility (1/GPa) = 0.04133857
#
# Stress axis : x y z
#
# Youngs Moduli (GPa) = 116.88626 131.58366 27.68982
#
# Poissons Ratio (x) = 0.58689 0.09335
# Poissons Ratio (y) = 0.52134 -0.06552
# Poissons Ratio (z) = 0.39407 -0.31135
#
# Static dielectric constant tensor:
#      x y z
#    x 1.750310 0.000000 0.000000 
#    y 0.000000 1.743340 0.000000 
#    z 0.000000 0.000000 1.896810 
# 
# From -- ./inp_files/60357.got.cif
#   From: 2010.05.17/outbox.cif.g08.bks.cpg/sg65_31_cif.got.tgz:60357.got - 2010.06.03 17:01:31.
