data_PCOD9492579
_publ_section_title
;
Structure prediction by ZEFSAII (Michael W. Deem and Ramdas Pophale) SiO2 
 PCOD9492579
Probable space group: C M M M
;
_chemical_formula_sum "Si O2"
_cell_formula_units_Z 64
_cell_length_a 35.375229
_cell_length_b 12.164374
_cell_length_c 7.717019
_cell_angle_alpha 90.000000
_cell_angle_beta 90.000000
_cell_angle_gamma 90.000000
_cell_volume 3320.768446
_symmetry_space_group_name_H-M "C M M M"
_symmetry_group_IT_number 65
_symmetry_cell_setting 'orthorhombic'
loop_
_space_group_symop_operation_xyz
x,y,z
-x,-y,z
x,-y,-z
-x,y,-z
-x,-y,-z
x,y,-z
-x,y,z
x,-y,z
1/2+x,1/2+y,z
1/2-x,1/2-y,z
1/2+x,1/2-y,-z
1/2-x,1/2+y,-z
1/2-x,1/2-y,-z
1/2+x,1/2+y,-z
1/2-x,1/2+y,z
1/2+x,1/2-y,z
loop_
_atom_site_type_symbol
_atom_site_label
_atom_site_fract_x
_atom_site_fract_y
_atom_site_fract_z
Si Si1 0.679121 0.500000 0.699804
Si Si2 0.294457 0.739161 0.197942
Si Si3 0.955458 0.784363 0.796311
Si Si4 0.926553 0.371123 0.500000
Si Si5 0.336087 0.869943 0.500000
Si Si6 0.592498 0.500000 0.208492
O O1 0.691385 0.500000 0.500000
O O2 0.693934 0.611722 0.784779
O O3 0.633733 0.500000 0.709628
O O4 0.250000 0.750000 0.237341
O O5 0.318322 0.810381 0.333020
O O6 0.300858 0.775419 0.000000
O O7 0.943589 0.687110 0.669320
O O8 0.931193 0.891540 0.747120
O O9 0.000000 0.807902 0.777769
O O10 0.948372 0.759921 0.000000
O O11 0.934932 0.500000 0.500000
O O12 0.881257 0.356003 0.500000
O O13 0.327483 0.000000 0.500000
O O14 0.597480 0.500000 0.000000
#
# Coordination Sequence:
#
# PCOD9492579 Si02
#       6
#     8  16  16   8   8   8
#     4  12  24  39  65  96 130 169 207 258 319 373
#     4  11  25  43  66  94 126 164 210 261 317 379
#     4  10  22  40  64  93 126 164 205 256 315 370
#     4  11  25  42  60  89 123 166 215 259 299 365
#     4  11  25  43  66  92 125 166 214 260 318 374
#     4  10  21  38  63  95 130 160 204 256 312 382
#
# _framework density 19.272648
#
# number of rings (size 3 to 8) (size 9 to 14) (size 15 to 20)
#    0.000    1.250    1.250    3.750    3.500    6.500 
#    0.000    5.000    0.000    0.000    0.000    0.000 
#    0.000    0.000    0.000    0.000    0.000    0.000 
#
# Total GULP energy -179001.505536 kJ/mol
# GULP energy per Si atom -5593.797048 kJ/mol
# Density = 1.922878 g / cm^3
# Si number density = 19.272648 Si / 1000 Ang^3
#
#
#
# Elastic Constant Matrix: (Units=GPa)
#
#
# Indices 1 2 3 4 5 6 
#
# 1 108.0098 68.4432 43.1723 0.0000 0.0000 0.0000
# 2 68.4432 130.1685 44.2870 0.0000 0.0000 0.0000
# 3 43.1723 44.2870 68.5211 0.0000 0.0000 0.0000
# 4 0.0000 0.0000 0.0000 18.4721 0.0000 0.0000
# 5 0.0000 0.0000 0.0000 0.0000 33.9858 0.0000
# 6 0.0000 0.0000 0.0000 0.0000 0.0000 196.8586
#
#
#
# Elastic Compliance Matrix: (Units=1/GPa)
#
#
# Indices 1 2 3 4 5 6 
#
# 1 0.015474 -0.006178 -0.005757 0.000000 0.000000 0.000000
# 2 -0.006178 0.012314 -0.004067 0.000000 0.000000 0.000000
# 3 -0.005757 -0.004067 0.020850 0.000000 0.000000 0.000000
# 4 0.000000 0.000000 0.000000 0.054136 0.000000 0.000000
# 5 0.000000 0.000000 0.000000 0.000000 0.029424 0.000000
# 6 0.000000 0.000000 0.000000 0.000000 0.000000 0.005080
#
#
# Mechanical properties :
#
#
# Convention : Reuss Voigt Hill
#
# Bulk Modulus (GPa) = 60.11226 68.72269 64.41748
# Shear Modulus (GPa) = 28.60004 59.91643 44.25823
#
# Velocity S-wave (km/s) = 3.85641 5.58179 4.79730
# Velocity P-wave (km/s) = 7.14754 8.79075 8.01139
#
# Compressibility (1/GPa) = 0.01663554
#
# Stress axis : x y z
#
# Youngs Moduli (GPa) = 64.62396 81.20681 47.96269
#
# Poissons Ratio (x) = 0.50168 0.27611
# Poissons Ratio (y) = 0.39923 0.19505
# Poissons Ratio (z) = 0.37202 0.33024
#
# Static dielectric constant tensor:
#      x y z
#    x 1.647530 0.000000 0.000000 
#    y 0.000000 1.659750 0.000000 
#    z 0.000000 0.000000 1.670070 
# 
# From -- ./inp_files/17851.got.cif
#   From: 2010.05.17/outbox.cif.g08.bks.cpg/sg65_9_cif.got.tgz:17851.got - 2010.06.03 17:01:31.
