data_PCOD9492056
_publ_section_title
;
Structure prediction by ZEFSAII (Michael W. Deem and Ramdas Pophale) SiO2 
 PCOD9492056
Probable space group: C M M M
;
_chemical_formula_sum "Si O2"
_cell_formula_units_Z 80
_cell_length_a 8.864838
_cell_length_b 31.197298
_cell_length_c 14.737014
_cell_angle_alpha 90.000000
_cell_angle_beta 90.000000
_cell_angle_gamma 90.000000
_cell_volume 4075.653749
_symmetry_space_group_name_H-M "C M M M"
_symmetry_group_IT_number 65
_symmetry_cell_setting 'orthorhombic'
loop_
_space_group_symop_operation_xyz
x,y,z
-x,-y,z
x,-y,-z
-x,y,-z
-x,-y,-z
x,y,-z
-x,y,z
x,-y,z
1/2+x,1/2+y,z
1/2-x,1/2-y,z
1/2+x,1/2-y,-z
1/2-x,1/2+y,-z
1/2-x,1/2-y,-z
1/2+x,1/2+y,-z
1/2-x,1/2+y,z
1/2+x,1/2-y,z
loop_
_atom_site_type_symbol
_atom_site_label
_atom_site_fract_x
_atom_site_fract_y
_atom_site_fract_z
Si Si1 0.822712 0.953940 0.110291
Si Si2 0.824292 0.364339 0.391096
Si Si3 0.319978 0.703144 0.738876
Si Si4 0.184305 0.139593 0.895468
Si Si5 0.824804 0.952698 0.389749
O O1 0.761312 0.907461 0.137590
O O2 0.000000 0.954690 0.135713
O O3 0.756412 0.000000 0.139104
O O4 0.818687 0.953191 0.000000
O O5 0.806230 0.362194 0.500000
O O6 0.730135 0.327247 0.343443
O O7 0.767604 0.411320 0.360817
O O8 0.000000 0.359047 0.369623
O O9 0.500000 0.706650 0.740602
O O10 0.250000 0.750000 0.732937
O O11 0.269068 0.677493 0.829132
O O12 0.000000 0.137854 0.894599
O O13 0.229967 0.146137 0.000000
O O14 0.821357 0.953156 0.500000
O O15 0.000000 0.947797 0.362970
O O16 0.772512 0.000000 0.359881
#
# Coordination Sequence:
#
# PCOD9492056 Si02
#       5
#    16  16  16  16  16
#     4   7   9  16  35  64  97 131 163 195 235 287
#     4  10  21  37  57  80 107 141 180 221 266 318
#     4  11  23  38  56  77 103 136 175 225 279 327
#     4   8  15  29  49  74 104 137 172 210 256 312
#     4   8  14  27  50  80 112 144 177 214 257 306
#
# _framework density 19.628753
#
# number of rings (size 3 to 8) (size 9 to 14) (size 15 to 20)
#    0.000    3.200    0.000    3.600    0.000    2.400 
#    0.000    3.000    0.000    5.400    0.000    0.000 
#    0.000    0.000    0.000   21.800    0.000   18.800 
#
# Total GULP energy -222965.461334 kJ/mol
# GULP energy per Si atom -5574.136533 kJ/mol
# Density = 1.958408 g / cm^3
# Si number density = 19.628753 Si / 1000 Ang^3
#
#
#
# Elastic Constant Matrix: (Units=GPa)
#
#
# Indices 1 2 3 4 5 6 
#
# 1 35.4830 53.6927 24.5224 0.0000 0.0000 0.0000
# 2 53.6927 186.3860 32.8281 0.0000 0.0000 0.0000
# 3 24.5224 32.8281 55.1212 0.0000 0.0000 0.0000
# 4 0.0000 0.0000 0.0000 31.5591 0.0000 0.0000
# 5 0.0000 0.0000 0.0000 0.0000 6.5952 0.0000
# 6 0.0000 0.0000 0.0000 0.0000 0.0000 26.9454
#
#
#
# Elastic Compliance Matrix: (Units=1/GPa)
#
#
# Indices 1 2 3 4 5 6 
#
# 1 0.064870 -0.015199 -0.019808 0.000000 0.000000 0.000000
# 2 -0.015199 0.009555 0.001071 0.000000 0.000000 0.000000
# 3 -0.019808 0.001071 0.026316 0.000000 0.000000 0.000000
# 4 0.000000 0.000000 0.000000 0.031687 0.000000 0.000000
# 5 0.000000 0.000000 0.000000 0.000000 0.151625 0.000000
# 6 0.000000 0.000000 0.000000 0.000000 0.000000 0.037112
#
#
# Mechanical properties :
#
#
# Convention : Reuss Voigt Hill
#
# Bulk Modulus (GPa) = 30.42247 55.45294 42.93771
# Shear Modulus (GPa) = 12.50026 24.08309 18.29167
#
# Velocity S-wave (km/s) = 2.52629 3.50655 3.05599
# Velocity P-wave (km/s) = 4.90328 6.68631 5.86297
#
# Compressibility (1/GPa) = 0.03287044
#
# Stress axis : x y z
#
# Youngs Moduli (GPa) = 15.41544 104.65886 37.99963
#
# Poissons Ratio (x) = 1.59066 0.75269
# Poissons Ratio (y) = 0.23429 -0.04070
# Poissons Ratio (z) = 0.30534 -0.11209
#
# Static dielectric constant tensor:
#      x y z
#    x 1.677350 0.000000 0.000000 
#    y 0.000000 1.697300 0.000000 
#    z 0.000000 0.000000 1.732970 
# 
# From -- ./inp_files/50141.got.cif
#   From: 2010.05.17/outbox.cif.g08.bks.cpg/sg65_26_cif.got.tgz:50141.got - 2010.06.03 17:01:31.
