data_PCOD9492022
_publ_section_title
;
Structure prediction by ZEFSAII (Michael W. Deem and Ramdas Pophale) SiO2 
 PCOD9492022
Probable space group: C M M M
;
_chemical_formula_sum "Si O2"
_cell_formula_units_Z 88
_cell_length_a 21.083552
_cell_length_b 7.909189
_cell_length_c 24.559622
_cell_angle_alpha 90.000000
_cell_angle_beta 90.000000
_cell_angle_gamma 90.000000
_cell_volume 4095.410235
_symmetry_space_group_name_H-M "C M M M"
_symmetry_group_IT_number 65
_symmetry_cell_setting 'orthorhombic'
loop_
_space_group_symop_operation_xyz
x,y,z
-x,-y,z
x,-y,-z
-x,y,-z
-x,-y,-z
x,y,-z
-x,y,z
x,-y,z
1/2+x,1/2+y,z
1/2-x,1/2-y,z
1/2+x,1/2-y,-z
1/2-x,1/2+y,-z
1/2-x,1/2-y,-z
1/2+x,1/2+y,-z
1/2-x,1/2+y,z
1/2+x,1/2-y,z
loop_
_atom_site_type_symbol
_atom_site_label
_atom_site_fract_x
_atom_site_fract_y
_atom_site_fract_z
Si Si1 0.822247 0.798163 0.941047
Si Si2 0.401320 0.196290 0.149047
Si Si3 0.071184 0.293468 0.436508
Si Si4 0.571642 0.696527 0.730728
Si Si5 0.500000 0.793229 0.060324
Si Si6 0.323869 0.803135 0.353326
O O1 0.750000 0.750000 0.948148
O O2 0.835893 0.716360 0.881799
O O3 0.830983 0.000000 0.937820
O O4 0.853078 0.739120 0.000000
O O5 0.415209 0.288633 0.204856
O O6 0.442304 0.260803 0.097979
O O7 0.416368 0.000000 0.159320
O O8 0.077793 0.248320 0.500000
O O9 0.070891 0.500000 0.433557
O O10 0.130559 0.228667 0.401116
O O11 0.000000 0.239190 0.418055
O O12 0.500000 0.766146 0.719998
O O13 0.571054 0.500000 0.715311
O O14 0.630804 0.778702 0.699292
O O15 0.500000 0.000000 0.057801
O O16 0.500000 0.725446 0.000000
O O17 0.250000 0.750000 0.348001
O O18 0.319288 0.000000 0.365153
#
# Coordination Sequence:
#
# PCOD9492022 Si02
#       6
#    16  16  16  16   8  16
#     4  10  21  37  56  80 111 147 186 229 282 346
#     4  11  21  36  59  85 113 145 186 233 286 350
#     4   8  15  31  58  92 127 164 208 256 304 359
#     4  11  24  42  63  86 118 156 200 254 310 368
#     4   9  18  32  53  83 115 143 174 219 276 339
#     4  11  23  39  61  90 125 165 211 258 309 366
#
# _framework density 21.487468
#
# number of rings (size 3 to 8) (size 9 to 14) (size 15 to 20)
#    0.000    1.909    0.909    3.818    0.000    4.727 
#    0.000    3.636    0.000    3.818    0.000    6.364 
#    0.000    0.000    0.000    0.000    0.000    0.000 
#
# Total GULP energy -244992.380608 kJ/mol
# GULP energy per Si atom -5568.008650 kJ/mol
# Density = 2.143856 g / cm^3
# Si number density = 21.487468 Si / 1000 Ang^3
#
#
#
# Elastic Constant Matrix: (Units=GPa)
#
#
# Indices 1 2 3 4 5 6 
#
# 1 168.0589 6.1838 70.6593 0.0000 0.0000 0.0000
# 2 6.1838 37.4264 -6.1467 0.0000 0.0000 0.0000
# 3 70.6593 -6.1467 123.1682 0.0000 0.0000 0.0000
# 4 0.0000 0.0000 0.0000 8.5380 0.0000 0.0000
# 5 0.0000 0.0000 0.0000 0.0000 34.9867 0.0000
# 6 0.0000 0.0000 0.0000 0.0000 0.0000 1.8499
#
#
#
# Elastic Compliance Matrix: (Units=1/GPa)
#
#
# Indices 1 2 3 4 5 6 
#
# 1 0.008001 -0.002093 -0.004695 0.000000 0.000000 0.000000
# 2 -0.002093 0.027487 0.002572 0.000000 0.000000 0.000000
# 3 -0.004695 0.002572 0.010941 0.000000 0.000000 0.000000
# 4 0.000000 0.000000 0.000000 0.117123 0.000000 0.000000
# 5 0.000000 0.000000 0.000000 0.000000 0.028582 0.000000
# 6 0.000000 0.000000 0.000000 0.000000 0.000000 0.540556
#
#
# Mechanical properties :
#
#
# Convention : Reuss Voigt Hill
#
# Bulk Modulus (GPa) = 26.31654 52.22737 39.27196
# Shear Modulus (GPa) = 6.63318 26.27207 16.45262
#
# Velocity S-wave (km/s) = 1.75889 3.50046 2.77010
# Velocity P-wave (km/s) = 4.04956 6.37937 5.34300
#
# Compressibility (1/GPa) = 0.03799891
#
# Stress axis : x y z
#
# Youngs Moduli (GPa) = 124.98290 36.38030 91.40333
#
# Poissons Ratio (x) = 0.07614 0.42910
# Poissons Ratio (y) = 0.26159 -0.23513
# Poissons Ratio (z) = 0.58674 -0.09359
#
# Static dielectric constant tensor:
#      x y z
#    x 1.319740 0.000000 0.000000 
#    y 0.000000 1.814370 0.000000 
#    z 0.000000 0.000000 1.776150 
# 
# From -- ./inp_files/70961.got.cif
#   From: 2010.05.17/outbox.cif.g08.bks.cpg/sg65_36_cif.got.tgz:70961.got - 2010.06.03 17:01:31.
