data_PCOD9492180
_publ_section_title
;
Structure prediction by ZEFSAII (Michael W. Deem and Ramdas Pophale) SiO2 
 PCOD9492180
Probable space group: C M M M
;
_chemical_formula_sum "Si O2"
_cell_formula_units_Z 104
_cell_length_a 8.721561
_cell_length_b 19.564427
_cell_length_c 30.969341
_cell_angle_alpha 90.000000
_cell_angle_beta 90.000000
_cell_angle_gamma 90.000000
_cell_volume 5284.371232
_symmetry_space_group_name_H-M "C M M M"
_symmetry_group_IT_number 65
_symmetry_cell_setting 'orthorhombic'
loop_
_space_group_symop_operation_xyz
x,y,z
-x,-y,z
x,-y,-z
-x,y,-z
-x,-y,-z
x,y,-z
-x,y,z
x,-y,z
1/2+x,1/2+y,z
1/2-x,1/2-y,z
1/2+x,1/2-y,-z
1/2-x,1/2+y,-z
1/2-x,1/2-y,-z
1/2+x,1/2+y,-z
1/2-x,1/2+y,z
1/2+x,1/2-y,z
loop_
_atom_site_type_symbol
_atom_site_label
_atom_site_fract_x
_atom_site_fract_y
_atom_site_fract_z
Si Si1 0.319150 0.145168 0.550508
Si Si2 0.315182 0.921461 0.298665
Si Si3 0.678931 0.680842 0.636718
Si Si4 0.174155 0.000000 0.551376
Si Si5 0.685777 0.173330 0.782055
Si Si6 0.184316 0.420794 0.861958
Si Si7 0.819718 0.917276 0.952913
O O1 0.285625 0.160273 0.500000
O O2 0.500000 0.157278 0.557882
O O3 0.215142 0.181572 0.585814
O O4 0.274576 0.066594 0.559534
O O5 0.500000 0.922252 0.299415
O O6 0.255286 0.884826 0.341528
O O7 0.267321 0.873069 0.258882
O O8 0.263060 0.000000 0.294361
O O9 0.500000 0.679768 0.644349
O O10 0.750000 0.750000 0.656015
O O11 0.152204 0.000000 0.500000
O O12 0.000000 0.000000 0.570592
O O13 0.500000 0.177087 0.782039
O O14 0.750000 0.250000 0.780628
O O15 0.735248 0.130892 0.824584
O O16 0.237689 0.500000 0.855256
O O17 0.236097 0.396059 0.909260
O O18 0.000000 0.422995 0.860721
O O19 0.000000 0.900726 0.949908
O O20 0.807585 0.000000 0.953627
O O21 0.762308 0.892875 0.000000
#
# Coordination Sequence:
#
# PCOD9492180 Si02
#       7
#    16  16  16   8  16  16  16
#     4  10  21  38  61  88 119 157 199 240 285 339
#     4  10  22  42  67  91 117 150 188 232 286 346
#     4  12  26  43  63  88 122 158 196 239 288 344
#     4   9  17  31  53  83 117 151 189 235 283 327
#     4  10  21  37  58  84 114 149 186 228 281 340
#     4   9  17  30  50  77 108 142 185 234 281 333
#     4   8  14  25  42  68 104 143 182 227 281 336
#
# _framework density 19.680678
#
# number of rings (size 3 to 8) (size 9 to 14) (size 15 to 20)
#    0.000    2.231    0.000    3.462    1.077    7.077 
#    0.000    1.538    0.000    3.231    0.000    0.000 
#    0.000    0.000    0.000    0.000    0.000    0.000 
#
# Total GULP energy -290061.017705 kJ/mol
# GULP energy per Si atom -5578.096494 kJ/mol
# Density = 1.963588 g / cm^3
# Si number density = 19.680678 Si / 1000 Ang^3
#
#
#
# Elastic Constant Matrix: (Units=GPa)
#
#
# Indices 1 2 3 4 5 6 
#
# 1 19.7299 14.3170 16.2188 0.0000 0.0000 0.0000
# 2 14.3170 116.9277 46.8431 0.0000 0.0000 0.0000
# 3 16.2188 46.8431 117.0670 0.0000 0.0000 0.0000
# 4 0.0000 0.0000 0.0000 9.9101 0.0000 0.0000
# 5 0.0000 0.0000 0.0000 0.0000 18.6112 0.0000
# 6 0.0000 0.0000 0.0000 0.0000 0.0000 30.7513
#
#
#
# Elastic Compliance Matrix: (Units=1/GPa)
#
#
# Indices 1 2 3 4 5 6 
#
# 1 0.059316 -0.004729 -0.006326 0.000000 0.000000 0.000000
# 2 -0.004729 0.010562 -0.003571 0.000000 0.000000 0.000000
# 3 -0.006326 -0.003571 0.010847 0.000000 0.000000 0.000000
# 4 0.000000 0.000000 0.000000 0.100908 0.000000 0.000000
# 5 0.000000 0.000000 0.000000 0.000000 0.053731 0.000000
# 6 0.000000 0.000000 0.000000 0.000000 0.000000 0.032519
#
#
# Mechanical properties :
#
#
# Convention : Reuss Voigt Hill
#
# Bulk Modulus (GPa) = 19.42713 45.38691 32.40702
# Shear Modulus (GPa) = 15.90877 23.61088 19.75982
#
# Velocity S-wave (km/s) = 2.84622 3.46742 3.17207
# Velocity P-wave (km/s) = 4.54906 6.25639 5.46975
#
# Compressibility (1/GPa) = 0.05147441
#
# Stress axis : x y z
#
# Youngs Moduli (GPa) = 16.85887 94.67964 92.18768
#
# Poissons Ratio (x) = 0.44771 0.58315
# Poissons Ratio (y) = 0.07972 0.32921
# Poissons Ratio (z) = 0.10664 0.33811
#
# Static dielectric constant tensor:
#      x y z
#    x 1.672150 0.000000 0.000000 
#    y 0.000000 1.648410 0.000000 
#    z 0.000000 0.000000 1.727860 
# 
# From -- ./inp_files/73306.got.cif
#   From: 2010.05.17/outbox.cif.g08.bks.cpg/sg65_37_cif.got.tgz:73306.got - 2010.06.03 17:01:31.
