data_PCOD9492148
_publ_section_title
;
Structure prediction by ZEFSAII (Michael W. Deem and Ramdas Pophale) SiO2 
 PCOD9492148
Probable space group: C M M M
;
_chemical_formula_sum "Si O2"
_cell_formula_units_Z 64
_cell_length_a 11.372608
_cell_length_b 15.449749
_cell_length_c 16.938304
_cell_angle_alpha 90.000000
_cell_angle_beta 90.000000
_cell_angle_gamma 90.000000
_cell_volume 2976.126734
_symmetry_space_group_name_H-M "C M M M"
_symmetry_group_IT_number 65
_symmetry_cell_setting 'orthorhombic'
loop_
_space_group_symop_operation_xyz
x,y,z
-x,-y,z
x,-y,-z
-x,y,-z
-x,-y,-z
x,y,-z
-x,y,z
x,-y,z
1/2+x,1/2+y,z
1/2-x,1/2-y,z
1/2+x,1/2-y,-z
1/2-x,1/2+y,-z
1/2-x,1/2-y,-z
1/2+x,1/2+y,-z
1/2-x,1/2+y,z
1/2+x,1/2-y,z
loop_
_atom_site_type_symbol
_atom_site_label
_atom_site_fract_x
_atom_site_fract_y
_atom_site_fract_z
Si Si1 0.368385 0.192567 0.500000
Si Si2 0.125177 0.894914 0.747154
Si Si3 0.799468 0.846165 0.089287
Si Si4 0.625849 0.000000 0.905793
Si Si5 0.370301 0.895648 0.330684
O O1 0.500000 0.236005 0.500000
O O2 0.250000 0.250000 0.500000
O O3 0.364982 0.134882 0.578864
O O4 0.119436 0.858869 0.835876
O O5 0.248683 0.864523 0.709720
O O6 0.000000 0.871884 0.706564
O O7 0.129844 0.000000 0.750513
O O8 0.750000 0.750000 0.086765
O O9 0.696639 0.913803 0.110347
O O10 0.843369 0.867107 0.000000
O O11 0.500000 0.000000 0.866110
O O12 0.613129 0.000000 0.000000
O O13 0.500000 0.866900 0.299172
O O14 0.368604 0.000000 0.326257
#
# Coordination Sequence:
#
# PCOD9492148 Si02
#       5
#     8  16  16   8  16
#     4  10  21  37  59  89 123 156 194 238 290 350
#     4  10  21  37  57  85 119 153 193 246 305 363
#     4  10  21  37  57  83 116 158 205 254 312 373
#     4   9  18  34  55  79 109 146 195 254 305 359
#     4   9  19  38  63  87 113 153 200 242 286 345
#
# _framework density 21.504460999999999
#
# number of rings (size 3 to 8) (size 9 to 14) (size 15 to 20)
#    0.000    2.375    1.250    0.375    0.000    6.000 
#    0.000    6.250    0.000    3.750    0.000    0.000 
#    0.000    0.000    0.000    0.000    0.000    0.000 
#
# Total GULP energy -178318.790167 kJ/mol
# GULP energy per Si atom -5572.462193 kJ/mol
# Density = 2.145552 g / cm^3
# Si number density = 21.504461 Si / 1000 Ang^3
#
#
#
# Elastic Constant Matrix: (Units=GPa)
#
#
# Indices 1 2 3 4 5 6 
#
# 1 228.6277 37.2754 72.5464 0.0000 0.0000 0.0000
# 2 37.2754 68.6145 -2.3496 0.0000 0.0000 0.0000
# 3 72.5464 -2.3496 94.1228 0.0000 0.0000 0.0000
# 4 0.0000 0.0000 0.0000 21.1192 0.0000 0.0000
# 5 0.0000 0.0000 0.0000 0.0000 -13.3094 0.0000
# 6 0.0000 0.0000 0.0000 0.0000 0.0000 -3.1876
#
#
#
# Elastic Compliance Matrix: (Units=1/GPa)
#
#
# Indices 1 2 3 4 5 6 
#
# 1 0.006648 -0.003790 -0.005218 0.000000 0.000000 0.000000
# 2 -0.003790 0.016748 0.003339 0.000000 0.000000 0.000000
# 3 -0.005218 0.003339 0.014730 0.000000 0.000000 0.000000
# 4 0.000000 0.000000 0.000000 0.047350 0.000000 0.000000
# 5 0.000000 0.000000 0.000000 0.000000 -0.075135 0.000000
# 6 0.000000 0.000000 0.000000 0.000000 0.000000 -0.313711
#
#
# Mechanical properties :
#
#
# Convention : Reuss Voigt Hill
#
# Bulk Modulus (GPa) = 37.33178 67.36773 52.34976
# Shear Modulus (GPa) = -17.66141 19.85062 1.09461
#
# Velocity S-wave (km/s) = -2.86893 3.04154 0.71423
# Velocity P-wave (km/s) = 2.53444 6.61286 5.00766
#
# Compressibility (1/GPa) = 0.02678683
#
# Stress axis : x y z
#
# Youngs Moduli (GPa) = 150.42689 59.71019 67.88878
#
# Poissons Ratio (x) = 0.22631 0.35427
# Poissons Ratio (y) = 0.57014 -0.22671
# Poissons Ratio (z) = 0.78500 -0.19939
#
# Static dielectric constant tensor:
#      x y z
#    x 1.873490 0.000000 0.000000 
#    y 0.000000 1.718760 0.000000 
#    z 0.000000 0.000000 1.779420 
# 
# From -- ./inp_files/50892.got.cif
#   From: 2010.05.17/outbox.cif.g08.bks.cpg/sg65_26_cif.got.tgz:50892.got - 2010.06.03 17:01:31.
