data_PCOD9492016
_publ_section_title
;
Structure prediction by ZEFSAII (Michael W. Deem and Ramdas Pophale) SiO2 
 PCOD9492016
Probable space group: C M M M
;
_chemical_formula_sum "Si O2"
_cell_formula_units_Z 64
_cell_length_a 7.826752
_cell_length_b 15.230313
_cell_length_c 25.905097
_cell_angle_alpha 90.000000
_cell_angle_beta 90.000000
_cell_angle_gamma 90.000000
_cell_volume 3087.988145
_symmetry_space_group_name_H-M "C M M M"
_symmetry_group_IT_number 65
_symmetry_cell_setting 'orthorhombic'
loop_
_space_group_symop_operation_xyz
x,y,z
-x,-y,z
x,-y,-z
-x,y,-z
-x,-y,-z
x,y,-z
-x,y,z
x,-y,z
1/2+x,1/2+y,z
1/2-x,1/2-y,z
1/2+x,1/2-y,-z
1/2-x,1/2+y,-z
1/2-x,1/2-y,-z
1/2+x,1/2+y,-z
1/2-x,1/2+y,z
1/2+x,1/2-y,z
loop_
_atom_site_type_symbol
_atom_site_label
_atom_site_fract_x
_atom_site_fract_y
_atom_site_fract_z
Si Si1 0.701502 0.000000 0.697117
Si Si2 0.209557 0.500000 0.419429
Si Si3 0.192050 0.896856 0.000000
Si Si4 0.796985 0.147797 0.777246
Si Si5 0.294451 0.351750 0.888570
Si Si6 0.294873 0.146818 0.500000
O O1 0.746900 0.914673 0.730620
O O2 0.500000 0.000000 0.690999
O O3 0.773899 0.000000 0.639194
O O4 0.262345 0.412286 0.450878
O O5 0.000000 0.500000 0.419622
O O6 0.275969 0.876553 0.944893
O O7 0.000000 0.854427 0.000000
O O8 0.170979 0.000000 0.000000
O O9 0.750000 0.250000 0.769530
O O10 0.730705 0.112865 0.833244
O O11 0.000000 0.145073 0.781512
O O12 0.500000 0.368605 0.891143
O O13 0.250000 0.250000 0.883853
O O14 0.500000 0.144005 0.500000
O O15 0.250000 0.250000 0.500000
#
# Coordination Sequence:
#
# PCOD9492016 Si02
#       6
#     8   8   8  16  16   8
#     4  11  22  37  58  83 113 150 188 231 274 318
#     4   8  18  36  56  80 113 149 183 217 266 323
#     4   9  17  28  47  73  96 123 162 208 261 324
#     4  10  21  37  56  80 109 145 187 230 278 333
#     4   9  18  32  52  72  95 128 167 213 265 324
#     4   9  17  35  60  84 112 147 181 219 266 316
#
# _framework density 20.725466999999998
#
# number of rings (size 3 to 8) (size 9 to 14) (size 15 to 20)
#    0.000    2.625    0.000    2.250    1.750    2.000 
#    0.000    6.250    0.000    0.750    0.000    0.000 
#    0.000    0.000    0.000    0.000    0.000    0.000 
#
# Total GULP energy -178205.217895 kJ/mol
# GULP energy per Si atom -5568.913059 kJ/mol
# Density = 2.067830 g / cm^3
# Si number density = 20.725467 Si / 1000 Ang^3
#
#
#
# Elastic Constant Matrix: (Units=GPa)
#
#
# Indices 1 2 3 4 5 6 
#
# 1 30.0854 1.8459 15.0215 0.0000 0.0000 0.0000
# 2 1.8459 130.0738 101.6195 0.0000 0.0000 0.0000
# 3 15.0215 101.6195 254.0456 0.0000 0.0000 0.0000
# 4 0.0000 0.0000 0.0000 24.8322 0.0000 0.0000
# 5 0.0000 0.0000 0.0000 0.0000 15.4087 0.0000
# 6 0.0000 0.0000 0.0000 0.0000 0.0000 25.9788
#
#
#
# Elastic Compliance Matrix: (Units=1/GPa)
#
#
# Indices 1 2 3 4 5 6 
#
# 1 0.034479 0.001605 -0.002681 0.000000 0.000000 0.000000
# 2 0.001605 0.011257 -0.004598 0.000000 0.000000 0.000000
# 3 -0.002681 -0.004598 0.005934 0.000000 0.000000 0.000000
# 4 0.000000 0.000000 0.000000 0.040270 0.000000 0.000000
# 5 0.000000 0.000000 0.000000 0.000000 0.064899 0.000000
# 6 0.000000 0.000000 0.000000 0.000000 0.000000 0.038493
#
#
# Mechanical properties :
#
#
# Convention : Reuss Voigt Hill
#
# Bulk Modulus (GPa) = 24.79986 72.35315 48.57651
# Shear Modulus (GPa) = 22.71491 32.95846 27.83669
#
# Velocity S-wave (km/s) = 3.31417 3.99211 3.66883
# Velocity P-wave (km/s) = 5.16108 7.49902 6.43708
#
# Compressibility (1/GPa) = 0.04032280
#
# Stress axis : x y z
#
# Youngs Moduli (GPa) = 29.00340 88.83197 168.52133
#
# Poissons Ratio (x) = -0.14257 0.45175
# Poissons Ratio (y) = -0.04655 0.77483
# Poissons Ratio (z) = 0.07775 0.40844
#
# Static dielectric constant tensor:
#      x y z
#    x 1.841250 0.000000 0.000000 
#    y 0.000000 1.700660 0.000000 
#    z 0.000000 0.000000 1.844080 
# 
# From -- ./inp_files/66889.got.cif
#   From: 2010.05.17/outbox.cif.g08.bks.cpg/sg65_34_cif.got.tgz:66889.got - 2010.06.03 17:01:31.
