data_PCOD9492131
_publ_section_title
;
Structure prediction by ZEFSAII (Michael W. Deem and Ramdas Pophale) SiO2 
 PCOD9492131
Probable space group: C M M M
;
_chemical_formula_sum "Si O2"
_cell_formula_units_Z 82
_cell_length_a 7.391609
_cell_length_b 23.988075
_cell_length_c 21.053007
_cell_angle_alpha 90.000000
_cell_angle_beta 90.000000
_cell_angle_gamma 90.000000
_cell_volume 3732.918588
_symmetry_space_group_name_H-M "C M M M"
_symmetry_group_IT_number 65
_symmetry_cell_setting 'orthorhombic'
loop_
_space_group_symop_operation_xyz
x,y,z
-x,-y,z
x,-y,-z
-x,y,-z
-x,-y,-z
x,y,-z
-x,y,z
x,-y,z
1/2+x,1/2+y,z
1/2-x,1/2-y,z
1/2+x,1/2-y,-z
1/2-x,1/2+y,-z
1/2-x,1/2-y,-z
1/2+x,1/2+y,-z
1/2-x,1/2+y,z
1/2+x,1/2-y,z
loop_
_atom_site_type_symbol
_atom_site_label
_atom_site_fract_x
_atom_site_fract_y
_atom_site_fract_z
Si Si1 0.220616 0.500000 0.621715
Si Si2 0.284497 0.500000 0.927254
Si Si3 0.500000 0.500000 0.500000
Si Si4 0.284160 0.815637 0.568100
Si Si5 0.212460 0.623179 0.071966
Si Si6 0.780034 0.384239 0.687445
Si Si7 0.283274 0.185118 0.192430
O O1 0.339674 0.500000 0.557324
O O2 0.263317 0.553635 0.665380
O O3 0.000000 0.500000 0.608253
O O4 0.500000 0.500000 0.928452
O O5 0.228072 0.440032 0.900991
O O6 0.214193 0.500000 0.000000
O O7 0.213008 0.836513 0.500000
O O8 0.500000 0.824031 0.567343
O O9 0.250000 0.750000 0.571590
O O10 0.213350 0.845887 0.629587
O O11 0.287899 0.666000 0.123544
O O12 0.000000 0.634707 0.065706
O O13 0.289364 0.624633 0.000000
O O14 0.715900 0.356835 0.752957
O O15 0.000000 0.381490 0.689609
O O16 0.500000 0.178684 0.190382
O O17 0.250000 0.250000 0.206661
#
# Coordination Sequence:
#
# PCOD9492131 Si02
#       7
#     8   8   2  16  16  16  16
#     4  10  23  44  66  91 129 167 198 254 313 364
#     4   9  17  30  51  80 110 140 179 231 293 351
#     4  12  26  44  64 106 128 156 216 244 300 396
#     4   9  17  30  48  75 101 131 173 216 267 331
#     4   9  18  33  54  81 115 155 201 251 306 373
#     4   9  19  37  60  80 108 152 195 233 295 363
#     4  10  21  37  57  83 113 155 205 251 307 372
#
# _framework density 21.966726000000001
#
# number of rings (size 3 to 8) (size 9 to 14) (size 15 to 20)
#    0.000    2.634    0.000    1.024    1.366    3.122 
#    3.512    2.927    2.146    0.000    0.000    0.000 
#    0.000    0.000    0.000    0.000    0.000    0.000 
#
# Total GULP energy -228416.213690 kJ/mol
# GULP energy per Si atom -5571.127163 kJ/mol
# Density = 2.191673 g / cm^3
# Si number density = 21.966726 Si / 1000 Ang^3
#
#
#
# Elastic Constant Matrix: (Units=GPa)
#
#
# Indices 1 2 3 4 5 6 
#
# 1 96.7959 4.3991 23.9914 0.0000 0.0000 0.0000
# 2 4.3991 118.6301 93.8009 0.0000 0.0000 0.0000
# 3 23.9914 93.8009 166.9371 0.0000 0.0000 0.0000
# 4 0.0000 0.0000 0.0000 25.6564 0.0000 0.0000
# 5 0.0000 0.0000 0.0000 0.0000 -4.9605 0.0000
# 6 0.0000 0.0000 0.0000 0.0000 0.0000 6900.1669
#
#
#
# Elastic Compliance Matrix: (Units=1/GPa)
#
#
# Indices 1 2 3 4 5 6 
#
# 1 0.010858 0.001496 -0.002401 0.000000 0.000000 0.000000
# 2 0.001496 0.015375 -0.008854 0.000000 0.000000 0.000000
# 3 -0.002401 -0.008854 0.011310 0.000000 0.000000 0.000000
# 4 0.000000 0.000000 0.000000 0.038977 0.000000 0.000000
# 5 0.000000 0.000000 0.000000 0.000000 -0.201593 0.000000
# 6 0.000000 0.000000 0.000000 0.000000 0.000000 0.000145
#
#
# Mechanical properties :
#
#
# Convention : Reuss Voigt Hill
#
# Bulk Modulus (GPa) = 55.47841 69.63845 62.55843
# Shear Modulus (GPa) = -50.30152 1401.51732 675.60790
#
# Velocity S-wave (km/s) = -4.79048 25.28643 17.55640
# Velocity P-wave (km/s) = 2.29951 29.73732 20.96450
#
# Compressibility (1/GPa) = 0.01802503
#
# Stress axis : x y z
#
# Youngs Moduli (GPa) = 92.09688 65.04045 88.41418
#
# Poissons Ratio (x) = -0.09729 0.21228
# Poissons Ratio (y) = -0.13776 0.78283
# Poissons Ratio (z) = 0.22112 0.57588
#
# Static dielectric constant tensor:
#      x y z
#    x 1.829780 0.000000 0.000000 
#    y 0.000000 1.790600 0.000000 
#    z 0.000000 0.000000 1.823150 
# 
# From -- ./inp_files/59732.got.cif
#   From: 2010.05.17/outbox.cif.g08.bks.cpg/sg65_30_cif.got.tgz:59732.got - 2010.06.03 17:01:31.
