data_PCOD9492133
_publ_section_title
;
Structure prediction by ZEFSAII (Michael W. Deem and Ramdas Pophale) SiO2 
 PCOD9492133
Probable space group: C M M M
;
_chemical_formula_sum "Si O2"
_cell_formula_units_Z 88
_cell_length_a 21.565917
_cell_length_b 8.707936
_cell_length_c 24.502651
_cell_angle_alpha 90.000000
_cell_angle_beta 90.000000
_cell_angle_gamma 90.000000
_cell_volume 4601.466156
_symmetry_space_group_name_H-M "C M M M"
_symmetry_group_IT_number 65
_symmetry_cell_setting 'orthorhombic'
loop_
_space_group_symop_operation_xyz
x,y,z
-x,-y,z
x,-y,-z
-x,y,-z
-x,-y,-z
x,y,-z
-x,y,z
x,-y,z
1/2+x,1/2+y,z
1/2-x,1/2-y,z
1/2+x,1/2-y,-z
1/2-x,1/2+y,-z
1/2-x,1/2-y,-z
1/2+x,1/2+y,-z
1/2-x,1/2+y,z
1/2+x,1/2-y,z
loop_
_atom_site_type_symbol
_atom_site_label
_atom_site_fract_x
_atom_site_fract_y
_atom_site_fract_z
Si Si1 0.930948 0.185452 0.761129
Si Si2 0.569755 0.185479 0.639368
Si Si3 0.683523 0.814617 0.436612
Si Si4 0.686118 0.316645 0.832061
Si Si5 0.631977 0.183311 0.936797
Si Si6 0.000000 0.826432 0.065998
O O1 0.922923 0.246385 0.699779
O O2 0.874120 0.237695 0.798515
O O3 0.000000 0.233122 0.780436
O O4 0.929949 0.000000 0.760326
O O5 0.500000 0.226723 0.619916
O O6 0.625379 0.236047 0.599960
O O7 0.572141 0.000000 0.642845
O O8 0.674944 0.768644 0.500000
O O9 0.750000 0.750000 0.417972
O O10 0.686067 0.000000 0.434845
O O11 0.688037 0.500000 0.830807
O O12 0.750000 0.250000 0.809322
O O13 0.677496 0.260354 0.893960
O O14 0.562975 0.239147 0.920492
O O15 0.635724 0.000000 0.933506
O O16 0.642686 0.228781 0.000000
O O17 0.000000 0.000000 0.088715
O O18 0.000000 0.836839 0.000000
#
# Coordination Sequence:
#
# PCOD9492133 Si02
#       6
#    16  16  16  16  16   8
#     4   9  20  39  60  81 106 140 181 226 276 328
#     4   9  18  33  54  80 107 138 179 225 273 323
#     4   9  18  32  50  75 109 147 185 224 266 316
#     4  11  24  40  59  82 111 145 183 227 277 336
#     4  10  21  37  57  83 114 145 181 226 275 328
#     4   9  17  31  53  81 111 143 179 217 260 315
#
# _framework density 19.124338000000002
#
# number of rings (size 3 to 8) (size 9 to 14) (size 15 to 20)
#    0.000    2.455    0.000    1.364    1.273    5.818 
#    0.000    5.455    0.000    0.000    0.000    5.091 
#    0.000    0.000    0.000    0.000    0.000    0.000 
#
# Total GULP energy -245567.116843 kJ/mol
# GULP energy per Si atom -5581.070837 kJ/mol
# Density = 1.908081 g / cm^3
# Si number density = 19.124338 Si / 1000 Ang^3
#
#
#
# Elastic Constant Matrix: (Units=GPa)
#
#
# Indices 1 2 3 4 5 6 
#
# 1 185.9959 32.9475 88.2410 0.0000 0.0000 0.0000
# 2 32.9475 23.2907 18.3684 0.0000 0.0000 0.0000
# 3 88.2410 18.3684 75.8201 0.0000 0.0000 0.0000
# 4 0.0000 0.0000 0.0000 25.1840 0.0000 0.0000
# 5 0.0000 0.0000 0.0000 0.0000 45.0441 0.0000
# 6 0.0000 0.0000 0.0000 0.0000 0.0000 32.1606
#
#
#
# Elastic Compliance Matrix: (Units=1/GPa)
#
#
# Indices 1 2 3 4 5 6 
#
# 1 0.013124 -0.008060 -0.013322 0.000000 0.000000 0.000000
# 2 -0.008060 0.058026 -0.004678 0.000000 0.000000 0.000000
# 3 -0.013322 -0.004678 0.029827 0.000000 0.000000 0.000000
# 4 0.000000 0.000000 0.000000 0.039708 0.000000 0.000000
# 5 0.000000 0.000000 0.000000 0.000000 0.022200 0.000000
# 6 0.000000 0.000000 0.000000 0.000000 0.000000 0.031094
#
#
# Mechanical properties :
#
#
# Convention : Reuss Voigt Hill
#
# Bulk Modulus (GPa) = 20.46722 62.69115 41.57918
# Shear Modulus (GPa) = 19.05610 30.18106 24.61858
#
# Velocity S-wave (km/s) = 3.16006 3.97690 3.59178
# Velocity P-wave (km/s) = 4.90306 7.34436 6.24418
#
# Compressibility (1/GPa) = 0.04885862
#
# Stress axis : x y z
#
# Youngs Moduli (GPa) = 76.19424 17.23372 33.52714
#
# Poissons Ratio (x) = 0.13890 0.44664
# Poissons Ratio (y) = 0.61409 0.15683
# Poissons Ratio (z) = 1.01505 0.08061
#
# Static dielectric constant tensor:
#      x y z
#    x 1.896240 0.000000 0.000000 
#    y 0.000000 1.645960 0.000000 
#    z 0.000000 0.000000 1.654240 
# 
# From -- ./inp_files/67514.got.cif
#   From: 2010.05.17/outbox.cif.g08.bks.cpg/sg65_34_cif.got.tgz:67514.got - 2010.06.03 17:01:31.
