data_PCOD9492846
_publ_section_title
;
Structure prediction by ZEFSAII (Michael W. Deem and Ramdas Pophale) SiO2 
 PCOD9492846
Probable space group: C M M M
;
_chemical_formula_sum "Si O2"
_cell_formula_units_Z 74
_cell_length_a 10.242231
_cell_length_b 28.389865
_cell_length_c 14.439125
_cell_angle_alpha 90.000000
_cell_angle_beta 90.000000
_cell_angle_gamma 90.000000
_cell_volume 4198.544591
_symmetry_space_group_name_H-M "C M M M"
_symmetry_group_IT_number 65
_symmetry_cell_setting 'orthorhombic'
loop_
_space_group_symop_operation_xyz
x,y,z
-x,-y,z
x,-y,-z
-x,y,-z
-x,-y,-z
x,y,-z
-x,y,z
x,-y,z
1/2+x,1/2+y,z
1/2-x,1/2-y,z
1/2+x,1/2-y,-z
1/2-x,1/2+y,-z
1/2-x,1/2-y,-z
1/2+x,1/2+y,-z
1/2-x,1/2+y,z
1/2+x,1/2-y,z
loop_
_atom_site_type_symbol
_atom_site_label
_atom_site_fract_x
_atom_site_fract_y
_atom_site_fract_z
Si Si1 0.000000 0.000000 0.000000
Si Si2 0.750000 0.250000 0.319283
Si Si3 0.500000 0.345505 0.889274
Si Si4 0.000000 0.260357 0.189568
Si Si5 0.343586 0.652497 0.605479
Si Si6 0.145007 0.000000 0.190774
Si Si7 0.242004 0.103554 0.211695
Si Si8 0.000000 0.361347 0.891314
O O1 0.111013 0.000000 0.081923
O O2 0.871547 0.263372 0.253529
O O3 0.703468 0.294034 0.379532
O O4 0.500000 0.290722 0.859464
O O5 0.625024 0.371549 0.845922
O O6 0.500000 0.350116 0.000000
O O7 0.000000 0.304659 0.121217
O O8 0.319098 0.637565 0.500000
O O9 0.500000 0.650328 0.622579
O O10 0.271060 0.622887 0.684168
O O11 0.218895 0.047869 0.213049
O O12 0.000000 0.000000 0.237138
O O13 0.373958 0.118342 0.160954
O O14 0.000000 0.373068 0.000000
#
# Coordination Sequence:
#
# PCOD9492846 Si02
#       8
#     2   8   8   8  16   8  16   8
#     4   8  20  36  64  98 106 148 212 270 296 356
#     4  12  19  38  59  86 122 164 199 256 305 358
#     4  12  22  37  66  84 118 169 216 247 301 359
#     4  12  21  39  59  85 128 165 205 245 300 362
#     4  11  22  39  64  91 120 157 205 260 312 362
#     4  10  22  37  67  90 120 151 213 267 298 349
#     4  12  23  43  60  93 123 161 206 261 306 362
#     4  12  27  39  59  89 136 168 199 242 311 371
#
# _framework density 17.625154999999999
#
# number of rings (size 3 to 8) (size 9 to 14) (size 15 to 20)
#    0.324    0.216    7.568    1.297    4.541    0.432 
#    0.000    5.946    0.000    1.946    0.000    1.514 
#    0.000    0.000    0.000    0.000    0.000    0.000 
#
# Total GULP energy -206450.166758 kJ/mol
# GULP energy per Si atom -5579.734237 kJ/mol
# Density = 1.758504 g / cm^3
# Si number density = 17.625155 Si / 1000 Ang^3
#
#
#
# Elastic Constant Matrix: (Units=GPa)
#
#
# Indices 1 2 3 4 5 6 
#
# 1 141.2395 44.4591 61.9618 0.0000 0.0000 0.0000
# 2 44.4591 148.2884 51.2088 0.0000 0.0000 0.0000
# 3 61.9618 51.2088 154.7046 0.0000 0.0000 0.0000
# 4 0.0000 0.0000 0.0000 -1.8502 0.0000 0.0000
# 5 0.0000 0.0000 0.0000 0.0000 17.5899 0.0000
# 6 0.0000 0.0000 0.0000 0.0000 0.0000 10.6209
#
#
#
# Elastic Compliance Matrix: (Units=1/GPa)
#
#
# Indices 1 2 3 4 5 6 
#
# 1 0.008924 -0.001627 -0.003036 0.000000 0.000000 0.000000
# 2 -0.001627 0.007911 -0.001967 0.000000 0.000000 0.000000
# 3 -0.003036 -0.001967 0.008331 0.000000 0.000000 0.000000
# 4 0.000000 0.000000 0.000000 -0.540469 0.000000 0.000000
# 5 0.000000 0.000000 0.000000 0.000000 0.056851 0.000000
# 6 0.000000 0.000000 0.000000 0.000000 0.000000 0.094154
#
#
# Mechanical properties :
#
#
# Convention : Reuss Voigt Hill
#
# Bulk Modulus (GPa) = 83.98952 84.38800 84.18876
# Shear Modulus (GPa) = -14.40628 24.37896 4.98634
#
# Velocity S-wave (km/s) = -2.86207 3.72316 1.68382
# Velocity P-wave (km/s) = 6.06916 8.15266 7.18681
#
# Compressibility (1/GPa) = 0.01190625
#
# Stress axis : x y z
#
# Youngs Moduli (GPa) = 112.05570 126.41127 120.03695
#
# Poissons Ratio (x) = 0.20571 0.36439
# Poissons Ratio (y) = 0.18235 0.23608
# Poissons Ratio (z) = 0.34016 0.24862
#
# Static dielectric constant tensor:
#      x y z
#    x 1.596600 0.000000 0.000000 
#    y 0.000000 1.597130 0.000000 
#    z 0.000000 0.000000 1.586240 
# 
# From -- ./inp_files/37109.got.cif
#   From: 2010.05.17/outbox.cif.g08.bks.cpg/sg65_19_cif.got.tgz:37109.got - 2010.06.03 17:01:31.
