data_PCOD9492464
_publ_section_title
;
Structure prediction by ZEFSAII (Michael W. Deem and Ramdas Pophale) SiO2 
 PCOD9492464
Probable space group: C M M M
;
_chemical_formula_sum "Si O2"
_cell_formula_units_Z 48
_cell_length_a 11.047991
_cell_length_b 15.223895
_cell_length_c 13.348877
_cell_angle_alpha 90.000000
_cell_angle_beta 90.000000
_cell_angle_gamma 90.000000
_cell_volume 2245.193742
_symmetry_space_group_name_H-M "C M M M"
_symmetry_group_IT_number 65
_symmetry_cell_setting 'orthorhombic'
loop_
_space_group_symop_operation_xyz
x,y,z
-x,-y,z
x,-y,-z
-x,y,-z
-x,-y,-z
x,y,-z
-x,y,z
x,-y,z
1/2+x,1/2+y,z
1/2-x,1/2-y,z
1/2+x,1/2-y,-z
1/2-x,1/2+y,-z
1/2-x,1/2-y,-z
1/2+x,1/2+y,-z
1/2-x,1/2+y,z
1/2+x,1/2-y,z
loop_
_atom_site_type_symbol
_atom_site_label
_atom_site_fract_x
_atom_site_fract_y
_atom_site_fract_z
Si Si1 0.745513 0.000000 0.108505
Si Si2 0.865152 0.317418 0.167535
Si Si3 0.640396 0.500000 0.325123
Si Si4 0.192684 0.345309 0.392129
O O1 0.667540 0.910491 0.116983
O O2 0.830777 0.000000 0.206199
O O3 0.807385 0.000000 0.000000
O O4 0.750000 0.250000 0.153549
O O5 0.873879 0.340532 0.285982
O O6 0.000000 0.284954 0.136330
O O7 0.500000 0.500000 0.342781
O O8 0.703017 0.583956 0.373709
O O9 0.133598 0.365314 0.500000
O O10 0.250000 0.250000 0.400245
#
# Coordination Sequence:
#
# PCOD9492464 Si02
#       4
#     8  16   8  16
#     4  10  23  42  62  84 115 158 203 247 306 374
#     4  10  22  40  62  89 122 159 201 250 301 356
#     4  10  21  38  60  88 122 157 201 256 305 353
#     4   9  19  34  54  84 121 159 196 236 289 352
#
# _framework density 21.379000999999999
#
# number of rings (size 3 to 8) (size 9 to 14) (size 15 to 20)
#    0.000    2.333    0.000    1.000    0.000   16.333 
#    0.000    6.667    0.000    6.000    0.000    0.000 
#    0.000    0.000    0.000    0.000    0.000    0.000 
#
# Total GULP energy -133685.090647 kJ/mol
# GULP energy per Si atom -5570.212110 kJ/mol
# Density = 2.133034 g / cm^3
# Si number density = 21.379001 Si / 1000 Ang^3
#
#
#
# Elastic Constant Matrix: (Units=GPa)
#
#
# Indices 1 2 3 4 5 6 
#
# 1 173.1190 89.7009 0.5929 0.0000 0.0000 0.0000
# 2 89.7009 154.9987 42.9487 0.0000 0.0000 0.0000
# 3 0.5929 42.9487 118.1721 0.0000 0.0000 0.0000
# 4 0.0000 0.0000 0.0000 -8.4317 0.0000 0.0000
# 5 0.0000 0.0000 0.0000 0.0000 -32.5902 0.0000
# 6 0.0000 0.0000 0.0000 0.0000 0.0000 1.6631
#
#
#
# Elastic Compliance Matrix: (Units=1/GPa)
#
#
# Indices 1 2 3 4 5 6 
#
# 1 0.008645 -0.005550 0.001974 0.000000 0.000000 0.000000
# 2 -0.005550 0.010737 -0.003875 0.000000 0.000000 0.000000
# 3 0.001974 -0.003875 0.009861 0.000000 0.000000 0.000000
# 4 0.000000 0.000000 0.000000 -0.118601 0.000000 0.000000
# 5 0.000000 0.000000 0.000000 0.000000 -0.030684 0.000000
# 6 0.000000 0.000000 0.000000 0.000000 0.000000 0.601296
#
#
# Mechanical properties :
#
#
# Convention : Reuss Voigt Hill
#
# Bulk Modulus (GPa) = 69.72850 79.19720 74.46285
# Shear Modulus (GPa) = 9.98130 12.99806 11.48968
#
# Velocity S-wave (km/s) = 2.16307 2.46841 2.32076
# Velocity P-wave (km/s) = 6.23897 6.72673 6.48743
#
# Compressibility (1/GPa) = 0.01434134
#
# Stress axis : x y z
#
# Youngs Moduli (GPa) = 115.66802 93.13343 101.41472
#
# Poissons Ratio (x) = 0.51691 -0.20017
# Poissons Ratio (y) = 0.64198 0.39293
# Poissons Ratio (z) = -0.22831 0.36085
#
# Static dielectric constant tensor:
#      x y z
#    x 1.706870 0.000000 0.000000 
#    y 0.000000 1.723730 0.000000 
#    z 0.000000 0.000000 1.840910 
# 
# From -- ./inp_files/37332.got.cif
#   From: 2010.05.17/outbox.cif.g08.bks.cpg/sg65_19_cif.got.tgz:37332.got - 2010.06.03 17:01:31.
