data_PCOD9492517
_publ_section_title
;
Structure prediction by ZEFSAII (Michael W. Deem and Ramdas Pophale) SiO2 
 PCOD9492517
Probable space group: C M M M
;
_chemical_formula_sum "Si O2"
_cell_formula_units_Z 96
_cell_length_a 14.776121
_cell_length_b 22.347993
_cell_length_c 14.291955
_cell_angle_alpha 90.000000
_cell_angle_beta 90.000000
_cell_angle_gamma 90.000000
_cell_volume 4719.441483
_symmetry_space_group_name_H-M "C M M M"
_symmetry_group_IT_number 65
_symmetry_cell_setting 'orthorhombic'
loop_
_space_group_symop_operation_xyz
x,y,z
-x,-y,z
x,-y,-z
-x,y,-z
-x,-y,-z
x,y,-z
-x,y,z
x,-y,z
1/2+x,1/2+y,z
1/2-x,1/2-y,z
1/2+x,1/2-y,-z
1/2-x,1/2+y,-z
1/2-x,1/2-y,-z
1/2+x,1/2+y,-z
1/2-x,1/2+y,z
1/2+x,1/2-y,z
loop_
_atom_site_type_symbol
_atom_site_label
_atom_site_fract_x
_atom_site_fract_y
_atom_site_fract_z
Si Si1 0.814981 0.568525 0.894568
Si Si2 0.691554 0.688793 0.894576
Si Si3 0.716260 0.433050 0.606135
Si Si4 0.603677 0.904458 0.699908
Si Si5 0.609336 0.783619 0.604567
Si Si6 0.605716 0.665838 0.704157
O O1 0.776161 0.500000 0.885082
O O2 0.748684 0.626330 0.888851
O O3 0.881544 0.577220 0.807123
O O4 0.854569 0.571015 0.000000
O O5 0.750000 0.750000 0.882483
O O6 0.620695 0.685024 0.810865
O O7 0.653637 0.691475 0.000000
O O8 0.706685 0.410788 0.500000
O O9 0.679572 0.500000 0.610178
O O10 0.821072 0.435006 0.635897
O O11 0.663462 0.391650 0.677849
O O12 0.500000 0.915420 0.671916
O O13 0.626216 0.834652 0.680848
O O14 0.641530 0.799050 0.500000
O O15 0.500000 0.779338 0.599873
O O16 0.642008 0.719732 0.639455
O O17 0.500000 0.655883 0.685152
#
# Coordination Sequence:
#
# PCOD9492517 Si02
#       6
#    16  16  16  16  16  16
#     4  10  21  38  61  88 121 163 209 255 306 374
#     4  10  21  39  64  93 128 167 207 256 318 381
#     4  11  25  42  60  87 124 167 214 261 315 379
#     4  11  22  38  62  91 125 162 202 258 322 380
#     4   9  19  36  58  87 120 155 201 251 301 365
#     4  11  23  39  64  94 123 163 212 262 315 369
#
# _framework density 20.341388999999999
#
# number of rings (size 3 to 8) (size 9 to 14) (size 15 to 20)
#    0.000    1.667    1.667    2.500    0.000    4.333 
#    0.000    4.167    0.000    6.000    0.000    3.500 
#    0.000    0.000    0.000    0.000    0.000    0.000 
#
# Total GULP energy -267782.793226 kJ/mol
# GULP energy per Si atom -5578.808192 kJ/mol
# Density = 2.029509 g / cm^3
# Si number density = 20.341389 Si / 1000 Ang^3
#
#
#
# Elastic Constant Matrix: (Units=GPa)
#
#
# Indices 1 2 3 4 5 6 
#
# 1 45.8843 20.4044 15.1519 0.0000 0.0000 0.0000
# 2 20.4044 123.2079 24.6653 0.0000 0.0000 0.0000
# 3 15.1519 24.6653 112.7705 0.0000 0.0000 0.0000
# 4 0.0000 0.0000 0.0000 51.4528 0.0000 0.0000
# 5 0.0000 0.0000 0.0000 0.0000 15.8651 0.0000
# 6 0.0000 0.0000 0.0000 0.0000 0.0000 12.9381
#
#
#
# Elastic Compliance Matrix: (Units=1/GPa)
#
#
# Indices 1 2 3 4 5 6 
#
# 1 0.024173 -0.003507 -0.002481 0.000000 0.000000 0.000000
# 2 -0.003507 0.008997 -0.001497 0.000000 0.000000 0.000000
# 3 -0.002481 -0.001497 0.009528 0.000000 0.000000 0.000000
# 4 0.000000 0.000000 0.000000 0.019435 0.000000 0.000000
# 5 0.000000 0.000000 0.000000 0.000000 0.063031 0.000000
# 6 0.000000 0.000000 0.000000 0.000000 0.000000 0.077291
#
#
# Mechanical properties :
#
#
# Convention : Reuss Voigt Hill
#
# Bulk Modulus (GPa) = 36.06283 44.70063 40.38173
# Shear Modulus (GPa) = 22.05885 30.82727 26.44306
#
# Velocity S-wave (km/s) = 3.29664 3.89716 3.60941
# Velocity P-wave (km/s) = 5.67959 6.50180 6.10455
#
# Compressibility (1/GPa) = 0.02772938
#
# Stress axis : x y z
#
# Youngs Moduli (GPa) = 41.36927 111.15193 104.95113
#
# Poissons Ratio (x) = 0.38976 0.26037
# Poissons Ratio (y) = 0.14506 0.15707
# Poissons Ratio (z) = 0.10263 0.16635
#
# Static dielectric constant tensor:
#      x y z
#    x 1.709190 0.000000 0.000000 
#    y 0.000000 1.768480 0.000000 
#    z 0.000000 0.000000 1.711930 
# 
# From -- ./inp_files/40319.got.cif
#   From: 2010.05.17/outbox.cif.g08.bks.cpg/sg65_21_cif.got.tgz:40319.got - 2010.06.03 17:01:31.
