data_PCOD9492709
_publ_section_title
;
Structure prediction by ZEFSAII (Michael W. Deem and Ramdas Pophale) SiO2 
 PCOD9492709
Probable space group: C M M M
;
_chemical_formula_sum "Si O2"
_cell_formula_units_Z 100
_cell_length_a 8.986814
_cell_length_b 22.311654
_cell_length_c 25.309949
_cell_angle_alpha 90.000000
_cell_angle_beta 90.000000
_cell_angle_gamma 90.000000
_cell_volume 5074.915199
_symmetry_space_group_name_H-M "C M M M"
_symmetry_group_IT_number 65
_symmetry_cell_setting 'orthorhombic'
loop_
_space_group_symop_operation_xyz
x,y,z
-x,-y,z
x,-y,-z
-x,y,-z
-x,-y,-z
x,y,-z
-x,y,z
x,-y,z
1/2+x,1/2+y,z
1/2-x,1/2-y,z
1/2+x,1/2-y,-z
1/2-x,1/2+y,-z
1/2-x,1/2-y,-z
1/2+x,1/2+y,-z
1/2-x,1/2+y,z
1/2+x,1/2-y,z
loop_
_atom_site_type_symbol
_atom_site_label
_atom_site_fract_x
_atom_site_fract_y
_atom_site_fract_z
Si Si1 0.177493 0.500000 0.655202
Si Si2 0.835181 0.883287 0.609222
Si Si3 0.176445 0.311910 0.310476
Si Si4 0.175303 0.813537 0.109795
Si Si5 0.326673 0.932655 0.063767
Si Si6 0.824343 0.878228 0.216499
Si Si7 0.676688 0.000000 0.782188
Si Si8 0.500000 0.619067 0.500000
O O1 0.252394 0.442882 0.627777
O O2 0.202877 0.500000 0.718338
O O3 0.000000 0.500000 0.647243
O O4 0.737988 0.829393 0.631963
O O5 0.872443 0.882070 0.547354
O O6 0.000000 0.880552 0.635187
O O7 0.250000 0.250000 0.294186
O O8 0.236393 0.360486 0.269115
O O9 0.000000 0.309374 0.309744
O O10 0.250000 0.750000 0.095659
O O11 0.241539 0.873368 0.082854
O O12 0.195130 0.827306 0.172243
O O13 0.000000 0.810009 0.098545
O O14 0.500000 0.927970 0.080395
O O15 0.273160 0.000000 0.079753
O O16 0.323222 0.932089 0.000000
O O17 0.753385 0.940143 0.196549
O O18 0.000000 0.885689 0.226272
O O19 0.500000 0.000000 0.791265
#
# Coordination Sequence:
#
# PCOD9492709 Si02
#       8
#     8  16  16  16  16  16   8   4
#     4  11  21  35  60  95 125 153 195 242 294 367
#     4  10  21  40  63  85 117 153 193 241 296 357
#     4  12  24  40  64  91 118 157 205 249 306 374
#     4  11  25  42  63  94 133 174 222 273 332 389
#     4   9  20  41  68  97 130 174 226 277 333 393
#     4  11  24  41  62  93 129 168 208 261 316 379
#     4  11  23  37  59  94 127 167 207 253 311 382
#     4   8  24  41  66  88 122 148 206 237 312 356
#
# _framework density 19.704761999999999
#
# number of rings (size 3 to 8) (size 9 to 14) (size 15 to 20)
#    0.480    0.960    1.600    4.320    1.120    6.080 
#    0.000    3.200    0.000    0.000    0.000    0.000 
#    0.000    0.000    0.000    0.000    0.000    0.000 
#
# Total GULP energy -278630.050267 kJ/mol
# GULP energy per Si atom -5572.601005 kJ/mol
# Density = 1.965991 g / cm^3
# Si number density = 19.704762 Si / 1000 Ang^3
#
#
#
# Elastic Constant Matrix: (Units=GPa)
#
#
# Indices 1 2 3 4 5 6 
#
# 1 137.7541 67.4116 37.6505 0.0000 0.0000 0.0000
# 2 67.4116 153.2184 31.1687 0.0000 0.0000 0.0000
# 3 37.6505 31.1687 64.2791 0.0000 0.0000 0.0000
# 4 0.0000 0.0000 0.0000 6.9285 0.0000 0.0000
# 5 0.0000 0.0000 0.0000 0.0000 27.0606 0.0000
# 6 0.0000 0.0000 0.0000 0.0000 0.0000 33.0793
#
#
#
# Elastic Compliance Matrix: (Units=1/GPa)
#
#
# Indices 1 2 3 4 5 6 
#
# 1 0.010183 -0.003624 -0.004207 0.000000 0.000000 0.000000
# 2 -0.003624 0.008531 -0.002014 0.000000 0.000000 0.000000
# 3 -0.004207 -0.002014 0.018998 0.000000 0.000000 0.000000
# 4 0.000000 0.000000 0.000000 0.144331 0.000000 0.000000
# 5 0.000000 0.000000 0.000000 0.000000 0.036954 0.000000
# 6 0.000000 0.000000 0.000000 0.000000 0.000000 0.030230
#
#
# Mechanical properties :
#
#
# Convention : Reuss Voigt Hill
#
# Bulk Modulus (GPa) = 55.48957 69.74592 62.61775
# Shear Modulus (GPa) = 18.18686 28.01507 23.10096
#
# Velocity S-wave (km/s) = 3.04133 3.77469 3.42768
# Velocity P-wave (km/s) = 6.36825 7.38038 6.89292
#
# Compressibility (1/GPa) = 0.01802140
#
# Stress axis : x y z
#
# Youngs Moduli (GPa) = 98.20544 117.22155 52.63778
#
# Poissons Ratio (x) = 0.42485 0.22145
# Poissons Ratio (y) = 0.35593 0.10600
# Poissons Ratio (z) = 0.41315 0.23605
#
# Static dielectric constant tensor:
#      x y z
#    x 1.659090 0.000000 0.000000 
#    y 0.000000 1.717210 0.000000 
#    z 0.000000 0.000000 1.702000 
# 
# From -- ./inp_files/73382.got.cif
#   From: 2010.05.17/outbox.cif.g08.bks.cpg/sg65_37_cif.got.tgz:73382.got - 2010.06.03 17:01:31.
