data_PCOD9492072
_publ_section_title
;
Structure prediction by ZEFSAII (Michael W. Deem and Ramdas Pophale) SiO2 
 PCOD9492072
Probable space group: C M M M
;
_chemical_formula_sum "Si O2"
_cell_formula_units_Z 64
_cell_length_a 18.591212
_cell_length_b 7.770008
_cell_length_c 21.612385
_cell_angle_alpha 90.000000
_cell_angle_beta 90.000000
_cell_angle_gamma 90.000000
_cell_volume 3121.992566
_symmetry_space_group_name_H-M "C M M M"
_symmetry_group_IT_number 65
_symmetry_cell_setting 'orthorhombic'
loop_
_space_group_symop_operation_xyz
x,y,z
-x,-y,z
x,-y,-z
-x,y,-z
-x,-y,-z
x,y,-z
-x,y,z
x,-y,z
1/2+x,1/2+y,z
1/2-x,1/2-y,z
1/2+x,1/2-y,-z
1/2-x,1/2+y,-z
1/2-x,1/2-y,-z
1/2+x,1/2+y,-z
1/2-x,1/2+y,z
1/2+x,1/2-y,z
loop_
_atom_site_type_symbol
_atom_site_label
_atom_site_fract_x
_atom_site_fract_y
_atom_site_fract_z
Si Si1 0.587530 0.700558 0.500000
Si Si2 0.418545 0.794224 0.879498
Si Si3 0.833496 0.204728 0.244286
Si Si4 0.833903 0.292402 0.000000
Si Si5 0.916244 0.788929 0.634774
O O1 0.609519 0.500000 0.500000
O O2 0.500000 0.703361 0.500000
O O3 0.608885 0.773496 0.566832
O O4 0.500000 0.725566 0.877693
O O5 0.377200 0.763212 0.815730
O O6 0.423369 0.000000 0.887250
O O7 0.373632 0.727365 0.938225
O O8 0.750000 0.250000 0.239348
O O9 0.868798 0.271900 0.307859
O O10 0.839638 0.000000 0.246419
O O11 0.750000 0.250000 0.000000
O O12 0.839102 0.500000 0.000000
O O13 0.000000 0.741290 0.643809
O O14 0.914702 0.000000 0.632935
#
# Coordination Sequence:
#
# PCOD9492072 Si02
#       5
#     8  16  16   8  16
#     4   7  10  20  41  68  95 123 160 207 256 303
#     4  10  21  38  59  81 105 135 172 213 257 305
#     4  11  22  35  51  74 106 140 175 215 259 307
#     4  10  21  37  57  81 109 140 171 206 250 300
#     4   8  14  26  46  71  97 127 166 212 258 304
#
# _framework density 20.499727
#
# number of rings (size 3 to 8) (size 9 to 14) (size 15 to 20)
#    0.000    2.625    0.000    4.125    0.000    6.000 
#    0.000    0.625    0.000    2.250    0.000    2.625 
#    0.000   14.000    0.000    0.000    0.000    0.000 
#
# Total GULP energy -178564.161349 kJ/mol
# GULP energy per Si atom -5580.130042 kJ/mol
# Density = 2.045307 g / cm^3
# Si number density = 20.499727 Si / 1000 Ang^3
#
#
#
# Elastic Constant Matrix: (Units=GPa)
#
#
# Indices 1 2 3 4 5 6 
#
# 1 166.4735 2.9711 128.2238 0.0000 0.0000 0.0000
# 2 2.9711 29.7975 7.0435 0.0000 0.0000 0.0000
# 3 128.2238 7.0435 244.6058 0.0000 0.0000 0.0000
# 4 0.0000 0.0000 0.0000 29.9618 0.0000 0.0000
# 5 0.0000 0.0000 0.0000 0.0000 3.8278 0.0000
# 6 0.0000 0.0000 0.0000 0.0000 0.0000 6.1347
#
#
#
# Elastic Compliance Matrix: (Units=1/GPa)
#
#
# Indices 1 2 3 4 5 6 
#
# 1 0.010077 0.000246 -0.005289 0.000000 0.000000 0.000000
# 2 0.000246 0.033796 -0.001102 0.000000 0.000000 0.000000
# 3 -0.005289 -0.001102 0.006893 0.000000 0.000000 0.000000
# 4 0.000000 0.000000 0.000000 0.033376 0.000000 0.000000
# 5 0.000000 0.000000 0.000000 0.000000 0.261247 0.000000
# 6 0.000000 0.000000 0.000000 0.000000 0.000000 0.163008
#
#
# Mechanical properties :
#
#
# Convention : Reuss Voigt Hill
#
# Bulk Modulus (GPa) = 25.99170 79.70593 52.84882
# Shear Modulus (GPa) = 9.37187 28.16075 18.76631
#
# Velocity S-wave (km/s) = 2.14047 3.71038 3.02891
# Velocity P-wave (km/s) = 4.33767 7.57112 6.16998
#
# Compressibility (1/GPa) = 0.03847381
#
# Stress axis : x y z
#
# Youngs Moduli (GPa) = 99.24033 29.58944 145.08319
#
# Poissons Ratio (x) = -0.00727 0.76738
# Poissons Ratio (y) = -0.02437 0.15986
# Poissons Ratio (z) = 0.52491 0.03260
#
# Static dielectric constant tensor:
#      x y z
#    x 1.678060 0.000000 0.000000 
#    y 0.000000 1.779800 0.000000 
#    z 0.000000 0.000000 1.750280 
# 
# From -- ./inp_files/58864.got.cif
#   From: 2010.05.17/outbox.cif.g08.bks.cpg/sg65_30_cif.got.tgz:58864.got - 2010.06.03 17:01:31.
