data_PCOD9492061
_publ_section_title
;
Structure prediction by ZEFSAII (Michael W. Deem and Ramdas Pophale) SiO2 
 PCOD9492061
Probable space group: C M M M
;
_chemical_formula_sum "Si O2"
_cell_formula_units_Z 104
_cell_length_a 8.660710
_cell_length_b 29.388106
_cell_length_c 23.448571
_cell_angle_alpha 90.000000
_cell_angle_beta 90.000000
_cell_angle_gamma 90.000000
_cell_volume 5968.173988
_symmetry_space_group_name_H-M "C M M M"
_symmetry_group_IT_number 65
_symmetry_cell_setting 'orthorhombic'
loop_
_space_group_symop_operation_xyz
x,y,z
-x,-y,z
x,-y,-z
-x,y,-z
-x,-y,-z
x,y,-z
-x,y,z
x,-y,z
1/2+x,1/2+y,z
1/2-x,1/2-y,z
1/2+x,1/2-y,-z
1/2-x,1/2+y,-z
1/2-x,1/2-y,-z
1/2+x,1/2+y,-z
1/2-x,1/2+y,z
1/2+x,1/2-y,z
loop_
_atom_site_type_symbol
_atom_site_label
_atom_site_fract_x
_atom_site_fract_y
_atom_site_fract_z
Si Si1 0.685989 0.448410 0.716570
Si Si2 0.813789 0.852398 0.889820
Si Si3 0.684040 0.858369 0.666072
Si Si4 0.313999 0.198926 0.778749
Si Si5 0.184372 0.698907 0.000000
Si Si6 0.687631 0.550559 0.150454
Si Si7 0.815381 0.799564 0.434380
O O1 0.500000 0.444500 0.714353
O O2 0.727384 0.500000 0.699825
O O3 0.759925 0.409192 0.679123
O O4 0.731864 0.442608 0.783162
O O5 0.756932 0.827182 0.832779
O O6 0.764225 0.905378 0.885057
O O7 0.000000 0.850539 0.892349
O O8 0.744193 0.827386 0.944276
O O9 0.500000 0.857232 0.661638
O O10 0.729124 0.827674 0.720884
O O11 0.755693 0.836767 0.609615
O O12 0.500000 0.199581 0.783562
O O13 0.250000 0.250000 0.777016
O O14 0.250000 0.750000 0.000000
O O15 0.000000 0.700754 0.000000
O O16 0.500000 0.549826 0.149491
O O17 0.740262 0.500000 0.132378
O O18 0.767445 0.808486 0.500000
O O19 0.750000 0.750000 0.418099
O O20 0.000000 0.797687 0.432454
#
# Coordination Sequence:
#
# PCOD9492061 Si02
#       7
#    16  16  16  16   8  16  16
#     4   9  17  32  55  82 112 147 185 225 273 328
#     4  11  21  37  61  84 108 141 182 226 272 321
#     4  11  22  34  53  82 115 148 184 226 276 332
#     4  11  23  36  51  77 111 144 179 221 274 325
#     4  12  26  44  61  78 107 143 186 229 271 330
#     4   8  15  30  55  85 112 140 177 220 266 319
#     4  10  21  37  57  80 109 147 190 233 278 329
#
# _framework density 17.425764999999998
#
# number of rings (size 3 to 8) (size 9 to 14) (size 15 to 20)
#    0.000    1.846    1.538    4.385    0.000    4.308 
#    0.000    0.385    0.000    4.615    0.000    3.231 
#    0.000    0.000    0.000    0.000    0.000    0.000 
#
# Total GULP energy -290376.008362 kJ/mol
# GULP energy per Si atom -5584.154007 kJ/mol
# Density = 1.738610 g / cm^3
# Si number density = 17.425765 Si / 1000 Ang^3
#
#
#
# Elastic Constant Matrix: (Units=GPa)
#
#
# Indices 1 2 3 4 5 6 
#
# 1 52.2289 44.2185 35.9596 0.0000 0.0000 0.0000
# 2 44.2185 177.4486 80.5133 0.0000 0.0000 0.0000
# 3 35.9596 80.5133 94.1888 0.0000 0.0000 0.0000
# 4 0.0000 0.0000 0.0000 28.3071 0.0000 0.0000
# 5 0.0000 0.0000 0.0000 0.0000 -585.3353 0.0000
# 6 0.0000 0.0000 0.0000 0.0000 0.0000 25.2467
#
#
#
# Elastic Compliance Matrix: (Units=1/GPa)
#
#
# Indices 1 2 3 4 5 6 
#
# 1 0.027154 -0.003370 -0.007486 0.000000 0.000000 0.000000
# 2 -0.003370 0.009624 -0.006940 0.000000 0.000000 0.000000
# 3 -0.007486 -0.006940 0.019408 0.000000 0.000000 0.000000
# 4 0.000000 0.000000 0.000000 0.035327 0.000000 0.000000
# 5 0.000000 0.000000 0.000000 0.000000 -0.001708 0.000000
# 6 0.000000 0.000000 0.000000 0.000000 0.000000 0.039609
#
#
# Mechanical properties :
#
#
# Convention : Reuss Voigt Hill
#
# Bulk Modulus (GPa) = 48.56043 71.69434 60.12739
# Shear Modulus (GPa) = 29.09175 -95.47796 -33.19311
#
# Velocity S-wave (km/s) = 4.09034 -7.41014 -4.36917
# Velocity P-wave (km/s) = 7.08769 5.65523 3.02108
#
# Compressibility (1/GPa) = 0.02059290
#
# Stress axis : x y z
#
# Youngs Moduli (GPa) = 36.82738 103.90548 51.52578
#
# Poissons Ratio (x) = 0.35013 0.38574
# Poissons Ratio (y) = 0.12410 0.35760
# Poissons Ratio (z) = 0.27570 0.72113
#
# Static dielectric constant tensor:
#      x y z
#    x 1.588290 0.000000 0.000000 
#    y 0.000000 1.589460 0.000000 
#    z 0.000000 0.000000 1.568680 
# 
# From -- ./inp_files/60377.got.cif
#   From: 2010.05.17/outbox.cif.g08.bks.cpg/sg65_31_cif.got.tgz:60377.got - 2010.06.03 17:01:31.
