data_PCOD9492608
_publ_section_title
;
Structure prediction by ZEFSAII (Michael W. Deem and Ramdas Pophale) SiO2 
 PCOD9492608
Probable space group: C M M M
;
_chemical_formula_sum "Si O2"
_cell_formula_units_Z 52
_cell_length_a 30.224478
_cell_length_b 10.924031
_cell_length_c 7.163057
_cell_angle_alpha 90.000000
_cell_angle_beta 90.000000
_cell_angle_gamma 90.000000
_cell_volume 2365.048983
_symmetry_space_group_name_H-M "C M M M"
_symmetry_group_IT_number 65
_symmetry_cell_setting 'orthorhombic'
loop_
_space_group_symop_operation_xyz
x,y,z
-x,-y,z
x,-y,-z
-x,y,-z
-x,-y,-z
x,y,-z
-x,y,z
x,-y,z
1/2+x,1/2+y,z
1/2-x,1/2-y,z
1/2+x,1/2-y,-z
1/2-x,1/2+y,-z
1/2-x,1/2-y,-z
1/2+x,1/2+y,-z
1/2-x,1/2+y,z
1/2+x,1/2-y,z
loop_
_atom_site_type_symbol
_atom_site_label
_atom_site_fract_x
_atom_site_fract_y
_atom_site_fract_z
Si Si1 0.549850 0.140544 0.773726
Si Si2 0.222661 0.633630 0.775792
Si Si3 0.137432 0.223810 0.776382
Si Si4 0.843416 0.000000 0.500000
O O1 0.500000 0.174462 0.716141
O O2 0.588571 0.232317 0.719038
O O3 0.558236 0.000000 0.715794
O O4 0.550263 0.139486 0.000000
O O5 0.235912 0.500000 0.704218
O O6 0.250000 0.750000 0.706557
O O7 0.171547 0.664823 0.742000
O O8 0.228840 0.630284 0.000000
O O9 0.153399 0.107607 0.662149
O O10 0.138289 0.199967 0.000000
#
# Coordination Sequence:
#
# PCOD9492608 Si02
#       4
#    16  16  16   4
#     4   8  14  29  58  91 117 147 191 242 300 361
#     4   9  18  33  60  93 119 152 197 242 294 356
#     4  10  21  39  61  83 118 157 195 245 300 347
#     4  12  26  40  57  86 114 160 210 244 287 360
#
# _framework density 21.986858999999999
#
# number of rings (size 3 to 8) (size 9 to 14) (size 15 to 20)
#    0.000    2.769    0.000    2.308    2.154    3.692 
#    0.000    6.154    0.000    5.538    0.000    0.000 
#    0.000    0.000    0.000    0.000    0.000    0.000 
#
# Total GULP energy -144750.312670 kJ/mol
# GULP energy per Si atom -5567.319718 kJ/mol
# Density = 2.193682 g / cm^3
# Si number density = 21.986859 Si / 1000 Ang^3
#
#
#
# Elastic Constant Matrix: (Units=GPa)
#
#
# Indices 1 2 3 4 5 6 
#
# 1 78.4782 43.5284 9.1165 0.0000 0.0000 0.0000
# 2 43.5284 163.3908 24.6365 0.0000 0.0000 0.0000
# 3 9.1165 24.6365 128.1187 0.0000 0.0000 0.0000
# 4 0.0000 0.0000 0.0000 166.1114 0.0000 0.0000
# 5 0.0000 0.0000 0.0000 0.0000 -30.5905 0.0000
# 6 0.0000 0.0000 0.0000 0.0000 0.0000 10.4748
#
#
#
# Elastic Compliance Matrix: (Units=1/GPa)
#
#
# Indices 1 2 3 4 5 6 
#
# 1 0.014963 -0.003940 -0.000307 0.000000 0.000000 0.000000
# 2 -0.003940 0.007341 -0.001131 0.000000 0.000000 0.000000
# 3 -0.000307 -0.001131 0.008045 0.000000 0.000000 0.000000
# 4 0.000000 0.000000 0.000000 0.006020 0.000000 0.000000
# 5 0.000000 0.000000 0.000000 0.000000 -0.032690 0.000000
# 6 0.000000 0.000000 0.000000 0.000000 0.000000 0.095468
#
#
# Mechanical properties :
#
#
# Convention : Reuss Voigt Hill
#
# Bulk Modulus (GPa) = 51.04141 58.28337 54.66239
# Shear Modulus (GPa) = 42.94287 48.71287 45.82787
#
# Velocity S-wave (km/s) = 4.42420 4.71206 4.57040
# Velocity P-wave (km/s) = 7.02588 7.49470 7.26407
#
# Compressibility (1/GPa) = 0.01959194
#
# Stress axis : x y z
#
# Youngs Moduli (GPa) = 66.82951 136.23019 124.30643
#
# Poissons Ratio (x) = 0.53675 0.03817
# Poissons Ratio (y) = 0.26331 0.14061
# Poissons Ratio (z) = 0.02052 0.15410
#
# Static dielectric constant tensor:
#      x y z
#    x 1.822590 0.000000 0.000000 
#    y 0.000000 1.742420 0.000000 
#    z 0.000000 0.000000 1.844440 
# 
# From -- ./inp_files/4251.got.cif
#   From: 2010.05.17/outbox.cif.g08.bks.cpg/sg65_3_cif.got.tgz:4251.got - 2010.06.03 17:01:31.
