data_PCOD9492996
_publ_section_title
;
Structure prediction by ZEFSAII (Michael W. Deem and Ramdas Pophale) SiO2 
 PCOD9492996
Probable space group: C M M M
;
_chemical_formula_sum "Si O2"
_cell_formula_units_Z 104
_cell_length_a 18.183367
_cell_length_b 8.668019
_cell_length_c 35.194249
_cell_angle_alpha 90.000000
_cell_angle_beta 90.000000
_cell_angle_gamma 90.000000
_cell_volume 5547.098290
_symmetry_space_group_name_H-M "C M M M"
_symmetry_group_IT_number 65
_symmetry_cell_setting 'orthorhombic'
loop_
_space_group_symop_operation_xyz
x,y,z
-x,-y,z
x,-y,-z
-x,y,-z
-x,-y,-z
x,y,-z
-x,y,z
x,-y,z
1/2+x,1/2+y,z
1/2-x,1/2-y,z
1/2+x,1/2-y,-z
1/2-x,1/2+y,-z
1/2-x,1/2-y,-z
1/2+x,1/2+y,-z
1/2-x,1/2+y,z
1/2+x,1/2-y,z
loop_
_atom_site_type_symbol
_atom_site_label
_atom_site_fract_x
_atom_site_fract_y
_atom_site_fract_z
Si Si1 0.832762 0.683314 0.798440
Si Si2 0.333459 0.686320 0.040885
Si Si3 0.333603 0.685503 0.876863
Si Si4 0.167746 0.815917 0.500000
Si Si5 0.167745 0.814574 0.352336
Si Si6 0.914151 0.185590 0.274498
Si Si7 0.413486 0.815274 0.573873
O O1 0.828062 0.500000 0.800441
O O2 0.750000 0.750000 0.794600
O O3 0.865902 0.746884 0.838096
O O4 0.879002 0.736593 0.762299
O O5 0.330151 0.500000 0.041045
O O6 0.250000 0.750000 0.040784
O O7 0.366777 0.730549 0.081907
O O8 0.366968 0.733910 0.000000
O O9 0.331955 0.500000 0.874120
O O10 0.250000 0.750000 0.877588
O O11 0.329813 0.500000 0.500000
O O12 0.250000 0.750000 0.500000
O O13 0.125961 0.756530 0.537346
O O14 0.250000 0.750000 0.353229
O O15 0.128833 0.769912 0.312772
O O16 0.122956 0.749144 0.387938
O O17 0.169116 0.000000 0.354576
O O18 0.000000 0.224328 0.278163
O O19 0.907869 0.000000 0.270351
O O20 0.500000 0.778438 0.573211
O O21 0.405014 0.000000 0.572685
#
# Coordination Sequence:
#
# PCOD9492996 Si02
#       7
#    16  16  16   8  16  16  16
#     4  11  21  33  51  74 102 136 176 219 263 315
#     4   8  13  20  31  50  78 114 155 198 246 301
#     4   9  15  24  39  59  87 123 163 207 255 307
#     4  12  25  42  65  91 123 161 203 248 291 338
#     4  11  23  40  63  90 119 151 188 228 273 327
#     4  10  22  40  60  82 109 140 176 221 272 325
#     4  11  24  42  64  91 124 159 196 240 288 336
#
# _framework density 18.748542
#
# number of rings (size 3 to 8) (size 9 to 14) (size 15 to 20)
#    0.000    1.846    0.000    6.000    0.000    6.154 
#    0.000    0.000    0.000    0.000    0.000    0.000 
#    0.000    0.615    0.000    7.077    0.000    4.615 
#
# Total GULP energy -290232.594565 kJ/mol
# GULP energy per Si atom -5581.396049 kJ/mol
# Density = 1.870587 g / cm^3
# Si number density = 18.748542 Si / 1000 Ang^3
#
#
#
# Elastic Constant Matrix: (Units=GPa)
#
#
# Indices 1 2 3 4 5 6 
#
# 1 99.9277 56.1041 87.4352 0.0000 0.0000 0.0000
# 2 56.1041 75.2543 77.5396 0.0000 0.0000 0.0000
# 3 87.4352 77.5396 239.7576 0.0000 0.0000 0.0000
# 4 0.0000 0.0000 0.0000 32.1577 0.0000 0.0000
# 5 0.0000 0.0000 0.0000 0.0000 -5.4649 0.0000
# 6 0.0000 0.0000 0.0000 0.0000 0.0000 18.3306
#
#
#
# Elastic Compliance Matrix: (Units=1/GPa)
#
#
# Indices 1 2 3 4 5 6 
#
# 1 0.019008 -0.010541 -0.003523 0.000000 0.000000 0.000000
# 2 -0.010541 0.025775 -0.004492 0.000000 0.000000 0.000000
# 3 -0.003523 -0.004492 0.006908 0.000000 0.000000 0.000000
# 4 0.000000 0.000000 0.000000 0.031097 0.000000 0.000000
# 5 0.000000 0.000000 0.000000 0.000000 -0.182986 0.000000
# 6 0.000000 0.000000 0.000000 0.000000 0.000000 0.054554
#
#
# Mechanical properties :
#
#
# Convention : Reuss Voigt Hill
#
# Bulk Modulus (GPa) = 68.58721 95.23305 81.91013
# Shear Modulus (GPa) = -1361.09006 21.92872 -669.58067
#
# Velocity S-wave (km/s) = -26.97308 3.42368 -18.91858
# Velocity P-wave (km/s) = 30.55161 8.15684 20.81906
#
# Compressibility (1/GPa) = 0.01457998
#
# Stress axis : x y z
#
# Youngs Moduli (GPa) = 52.60976 38.79708 144.75532
#
# Poissons Ratio (x) = 0.40897 0.50993
# Poissons Ratio (y) = 0.55457 0.65020
# Poissons Ratio (z) = 0.18533 0.17427
#
# Static dielectric constant tensor:
#      x y z
#    x 1.609400 0.000000 0.000000 
#    y 0.000000 1.628670 0.000000 
#    z 0.000000 0.000000 1.681930 
# 
# From -- ./inp_files/78170.got.cif
#   From: 2010.05.17/outbox.cif.g08.bks.cpg/sg65_40_cif.got.tgz:78170.got - 2010.06.03 17:01:31.
