data_PCOD9492033
_publ_section_title
;
Structure prediction by ZEFSAII (Michael W. Deem and Ramdas Pophale) SiO2 
 PCOD9492033
Probable space group: C M M M
;
_chemical_formula_sum "Si O2"
_cell_formula_units_Z 68
_cell_length_a 24.675547
_cell_length_b 15.686076
_cell_length_c 7.746107
_cell_angle_alpha 90.000000
_cell_angle_beta 90.000000
_cell_angle_gamma 90.000000
_cell_volume 2998.227584
_symmetry_space_group_name_H-M "C M M M"
_symmetry_group_IT_number 65
_symmetry_cell_setting 'orthorhombic'
loop_
_space_group_symop_operation_xyz
x,y,z
-x,-y,z
x,-y,-z
-x,y,-z
-x,-y,-z
x,y,-z
-x,y,z
x,-y,z
1/2+x,1/2+y,z
1/2-x,1/2-y,z
1/2+x,1/2-y,-z
1/2-x,1/2+y,-z
1/2-x,1/2-y,-z
1/2+x,1/2+y,-z
1/2-x,1/2+y,z
1/2+x,1/2-y,z
loop_
_atom_site_type_symbol
_atom_site_label
_atom_site_fract_x
_atom_site_fract_y
_atom_site_fract_z
Si Si1 0.795920 0.183791 0.699989
Si Si2 0.000000 0.118009 0.500000
Si Si3 0.420366 0.327187 0.197704
Si Si4 0.853899 0.500000 0.313109
Si Si5 0.758871 0.000000 0.807906
Si Si6 0.558649 0.128402 0.204254
O O1 0.804199 0.207710 0.500000
O O2 0.750000 0.250000 0.769828
O O3 0.855302 0.180112 0.784006
O O4 0.774557 0.087568 0.716267
O O5 0.952177 0.121443 0.653911
O O6 0.439150 0.229453 0.223769
O O7 0.432999 0.353467 0.000000
O O8 0.827554 0.500000 0.500000
O O9 0.805811 0.500000 0.180449
O O10 0.892294 0.418801 0.293222
O O11 0.783371 0.000000 0.000000
O O12 0.500000 0.099010 0.268396
O O13 0.562077 0.109187 0.000000
#
# Coordination Sequence:
#
# PCOD9492033 Si02
#       6
#    16   4  16   8   8  16
#     4  11  24  44  72 104 138 181 233 291 352 417
#     4  12  22  40  66  96 132 172 216 292 338 407
#     4  11  23  40  66  97 131 174 225 276 342 413
#     4  12  25  35  54  83 122 167 215 270 332 406
#     4  12  26  45  67  94 135 178 224 283 344 415
#     4  10  21  37  56  83 122 167 215 269 325 400
#
# _framework density 22.680066
#
# number of rings (size 3 to 8) (size 9 to 14) (size 15 to 20)
#    0.000    0.941    2.353    4.941    1.647    7.529 
#    0.000    0.000    0.000    1.412    0.000    2.471 
#    0.000    0.000    0.000    0.000    0.000    0.000 
#
# Total GULP energy -189508.601866 kJ/mol
# GULP energy per Si atom -5573.782408 kJ/mol
# Density = 2.262845 g / cm^3
# Si number density = 22.680066 Si / 1000 Ang^3
#
#
#
# Elastic Constant Matrix: (Units=GPa)
#
#
# Indices 1 2 3 4 5 6 
#
# 1 172.8993 32.7003 30.7296 0.0000 0.0000 0.0000
# 2 32.7003 67.2794 1.2625 0.0000 0.0000 0.0000
# 3 30.7296 1.2625 122.4822 0.0000 0.0000 0.0000
# 4 0.0000 0.0000 0.0000 26.2387 0.0000 0.0000
# 5 0.0000 0.0000 0.0000 0.0000 57.7363 0.0000
# 6 0.0000 0.0000 0.0000 0.0000 0.0000 33.0868
#
#
#
# Elastic Compliance Matrix: (Units=1/GPa)
#
#
# Indices 1 2 3 4 5 6 
#
# 1 0.006685 -0.003218 -0.001644 0.000000 0.000000 0.000000
# 2 -0.003218 0.016416 0.000638 0.000000 0.000000 0.000000
# 3 -0.001644 0.000638 0.008570 0.000000 0.000000 0.000000
# 4 0.000000 0.000000 0.000000 0.038112 0.000000 0.000000
# 5 0.000000 0.000000 0.000000 0.000000 0.017320 0.000000
# 6 0.000000 0.000000 0.000000 0.000000 0.000000 0.030224
#
#
# Mechanical properties :
#
#
# Convention : Reuss Voigt Hill
#
# Bulk Modulus (GPa) = 43.06125 54.67174 48.86649
# Shear Modulus (GPa) = 37.44922 43.27694 40.36308
#
# Velocity S-wave (km/s) = 4.06790 4.37298 4.22319
# Velocity P-wave (km/s) = 6.41025 7.04664 6.73597
#
# Compressibility (1/GPa) = 0.02322273
#
# Stress axis : x y z
#
# Youngs Moduli (GPa) = 149.59934 60.91799 116.68187
#
# Poissons Ratio (x) = 0.19604 0.19181
# Poissons Ratio (y) = 0.48142 -0.07446
# Poissons Ratio (z) = 0.24593 -0.03888
#
# Static dielectric constant tensor:
#      x y z
#    x 1.885800 0.000000 0.000000 
#    y 0.000000 1.873440 0.000000 
#    z 0.000000 0.000000 1.853970 
# 
# From -- ./inp_files/10960.got.cif
#   From: 2010.05.17/outbox.cif.g08.bks.cpg/sg65_6_cif.got.tgz:10960.got - 2010.06.03 17:01:31.
