data_PCOD9492306
_publ_section_title
;
Structure prediction by ZEFSAII (Michael W. Deem and Ramdas Pophale) SiO2 
 PCOD9492306
Probable space group: C M M M
;
_chemical_formula_sum "Si O2"
_cell_formula_units_Z 116
_cell_length_a 30.243914
_cell_length_b 26.187518
_cell_length_c 7.769594
_cell_angle_alpha 90.000000
_cell_angle_beta 90.000000
_cell_angle_gamma 90.000000
_cell_volume 6153.619781
_symmetry_space_group_name_H-M "C M M M"
_symmetry_group_IT_number 65
_symmetry_cell_setting 'orthorhombic'
loop_
_space_group_symop_operation_xyz
x,y,z
-x,-y,z
x,-y,-z
-x,y,-z
-x,-y,-z
x,y,-z
-x,y,z
x,-y,z
1/2+x,1/2+y,z
1/2-x,1/2-y,z
1/2+x,1/2-y,-z
1/2-x,1/2+y,-z
1/2-x,1/2-y,-z
1/2+x,1/2+y,-z
1/2-x,1/2+y,z
1/2+x,1/2-y,z
loop_
_atom_site_type_symbol
_atom_site_label
_atom_site_fract_x
_atom_site_fract_y
_atom_site_fract_z
Si Si1 0.635141 0.311618 0.800079
Si Si2 0.311956 0.586555 0.213428
Si Si3 0.203998 0.273472 0.705388
Si Si4 0.710185 0.891516 0.794491
Si Si5 0.549262 0.742772 0.295271
Si Si6 0.949429 0.357289 0.707449
Si Si7 0.621746 0.943252 0.793417
Si Si8 0.168812 0.000000 0.500000
O O1 0.662705 0.360746 0.740307
O O2 0.664261 0.261165 0.770333
O O3 0.586500 0.299249 0.732635
O O4 0.629665 0.319869 0.000000
O O5 0.259703 0.592887 0.256052
O O6 0.329645 0.544003 0.344143
O O7 0.315549 0.577905 0.000000
O O8 0.203985 0.269135 0.500000
O O9 0.250000 0.250000 0.772999
O O10 0.201297 0.332624 0.751001
O O11 0.669717 0.925326 0.725347
O O12 0.709569 0.896107 0.000000
O O13 0.545711 0.748225 0.500000
O O14 0.500000 0.730573 0.228388
O O15 0.562177 0.799749 0.230604
O O16 0.949553 0.356484 0.500000
O O17 0.914750 0.400336 0.758178
O O18 0.000000 0.367995 0.763881
O O19 0.610214 0.000000 0.729071
O O20 0.625283 0.946249 0.000000
#
# Coordination Sequence:
#
# PCOD9492306 Si02
#       8
#    16  16  16  16  16  16  16   4
#     4  11  22  36  58  87 123 159 194 239 294 359
#     4  10  24  42  61  89 120 158 204 252 299 353
#     4  11  22  33  53  81 117 153 194 241 291 359
#     4  10  21  38  56  76 113 153 195 246 302 356
#     4   9  19  36  60  88 120 153 185 232 294 357
#     4   9  19  37  56  77 107 143 184 236 297 351
#     4  10  22  37  53  74 101 144 194 245 298 339
#     4  12  26  40  68  84 117 162 207 248 294 358
#
# _framework density 18.850693
#
# number of rings (size 3 to 8) (size 9 to 14) (size 15 to 20)
#    0.000    1.931    1.379    2.690    3.862    4.966 
#    0.000    2.759    0.000    0.000    0.000    0.966 
#    0.000    2.207    0.000    0.000    0.000    0.000 
#
# Total GULP energy -322951.054994 kJ/mol
# GULP energy per Si atom -5568.121638 kJ/mol
# Density = 1.880779 g / cm^3
# Si number density = 18.850693 Si / 1000 Ang^3
#
#
#
# Elastic Constant Matrix: (Units=GPa)
#
#
# Indices 1 2 3 4 5 6 
#
# 1 107.4113 35.0925 17.4569 0.0000 0.0000 0.0000
# 2 35.0925 50.4190 17.8108 0.0000 0.0000 0.0000
# 3 17.4569 17.8108 35.9848 0.0000 0.0000 0.0000
# 4 0.0000 0.0000 0.0000 20.8042 0.0000 0.0000
# 5 0.0000 0.0000 0.0000 0.0000 22.4759 0.0000
# 6 0.0000 0.0000 0.0000 0.0000 0.0000 -10.0619
#
#
#
# Elastic Compliance Matrix: (Units=1/GPa)
#
#
# Indices 1 2 3 4 5 6 
#
# 1 0.012177 -0.007742 -0.002075 0.000000 0.000000 0.000000
# 2 -0.007742 0.028959 -0.010577 0.000000 0.000000 0.000000
# 3 -0.002075 -0.010577 0.034032 0.000000 0.000000 0.000000
# 4 0.000000 0.000000 0.000000 0.048067 0.000000 0.000000
# 5 0.000000 0.000000 0.000000 0.000000 0.044492 0.000000
# 6 0.000000 0.000000 0.000000 0.000000 0.000000 -0.099385
#
#
# Mechanical properties :
#
#
# Convention : Reuss Voigt Hill
#
# Bulk Modulus (GPa) = 29.08860 37.17060 33.12960
# Shear Modulus (GPa) = 41.46263 14.87397 28.16830
#
# Velocity S-wave (km/s) = 4.69500 2.81203 3.86979
# Velocity P-wave (km/s) = 6.69741 5.50496 6.13025
#
# Compressibility (1/GPa) = 0.03437773
#
# Stress axis : x y z
#
# Youngs Moduli (GPa) = 82.12391 34.53157 29.38449
#
# Poissons Ratio (x) = 0.26735 0.06098
# Poissons Ratio (y) = 0.63582 0.31081
# Poissons Ratio (z) = 0.17042 0.36526
#
# Static dielectric constant tensor:
#      x y z
#    x 1.673100 0.000000 0.000000 
#    y 0.000000 1.673950 0.000000 
#    z 0.000000 0.000000 1.690940 
# 
# From -- ./inp_files/18984.got.cif
#   From: 2010.05.17/outbox.cif.g08.bks.cpg/sg65_10_cif.got.tgz:18984.got - 2010.06.03 17:01:31.
