data_PCOD9492107
_publ_section_title
;
Structure prediction by ZEFSAII (Michael W. Deem and Ramdas Pophale) SiO2 
 PCOD9492107
Probable space group: C M M M
;
_chemical_formula_sum "Si O2"
_cell_formula_units_Z 104
_cell_length_a 9.247896
_cell_length_b 21.121095
_cell_length_c 30.923458
_cell_angle_alpha 90.000000
_cell_angle_beta 90.000000
_cell_angle_gamma 90.000000
_cell_volume 6040.145770
_symmetry_space_group_name_H-M "C M M M"
_symmetry_group_IT_number 65
_symmetry_cell_setting 'orthorhombic'
loop_
_space_group_symop_operation_xyz
x,y,z
-x,-y,z
x,-y,-z
-x,y,-z
-x,-y,-z
x,y,-z
-x,y,z
x,-y,z
1/2+x,1/2+y,z
1/2-x,1/2-y,z
1/2+x,1/2-y,-z
1/2-x,1/2+y,-z
1/2-x,1/2-y,-z
1/2+x,1/2+y,-z
1/2-x,1/2+y,z
1/2+x,1/2-y,z
loop_
_atom_site_type_symbol
_atom_site_label
_atom_site_fract_x
_atom_site_fract_y
_atom_site_fract_z
Si Si1 0.172801 0.427270 0.807983
Si Si2 0.335690 0.000000 0.947913
Si Si3 0.672898 0.188513 0.128471
Si Si4 0.333507 0.077328 0.366275
Si Si5 0.335186 0.576789 0.280729
Si Si6 0.671859 0.370264 0.051301
Si Si7 0.168662 0.923046 0.451974
O O1 0.214447 0.500000 0.819786
O O2 0.204424 0.374719 0.843918
O O3 0.250672 0.409115 0.763329
O O4 0.000000 0.427427 0.801124
O O5 0.244864 0.937742 0.937567
O O6 0.500000 0.000000 0.929535
O O7 0.349599 0.000000 0.000000
O O8 0.500000 0.196427 0.125622
O O9 0.750000 0.250000 0.148282
O O10 0.744336 0.178245 0.081600
O O11 0.500000 0.096450 0.363629
O O12 0.245961 0.098569 0.323993
O O13 0.261042 0.098649 0.411112
O O14 0.330039 0.000000 0.366360
O O15 0.500000 0.599455 0.279308
O O16 0.338717 0.500000 0.283089
O O17 0.500000 0.370622 0.059730
O O18 0.692524 0.359005 0.000000
O O19 0.217216 0.902522 0.500000
O O20 0.000000 0.906037 0.446638
O O21 0.174202 0.000000 0.451939
#
# Coordination Sequence:
#
# PCOD9492107 Si02
#       7
#    16   8  16  16  16  16  16
#     4   9  19  36  56  77 100 128 164 207 254 303
#     4   9  17  31  53  81 111 141 173 209 251 297
#     4  11  24  40  59  81 109 142 174 211 256 309
#     4   9  15  21  31  48  72 103 139 184 235 285
#     4   9  16  26  42  64  87 112 146 191 242 293
#     4  10  21  37  57  82 111 141 175 215 255 297
#     4   8  13  20  28  39  60  94 137 184 232 282
#
# _framework density 17.218126999999999
#
# number of rings (size 3 to 8) (size 9 to 14) (size 15 to 20)
#    0.000    2.692    0.000    2.538    1.077    7.385 
#    0.000    1.538    0.000    0.000    0.000    0.000 
#    0.000    0.000    0.000    0.000    0.000    0.769 
#
# Total GULP energy -289792.080310 kJ/mol
# GULP energy per Si atom -5572.924621 kJ/mol
# Density = 1.717894 g / cm^3
# Si number density = 17.218127 Si / 1000 Ang^3
#
#
#
# Elastic Constant Matrix: (Units=GPa)
#
#
# Indices 1 2 3 4 5 6 
#
# 1 96.5478 39.6060 76.5659 0.0000 0.0000 0.0000
# 2 39.6060 55.4439 43.1008 0.0000 0.0000 0.0000
# 3 76.5659 43.1008 116.8685 0.0000 0.0000 0.0000
# 4 0.0000 0.0000 0.0000 1.6008 0.0000 0.0000
# 5 0.0000 0.0000 0.0000 0.0000 30.5863 0.0000
# 6 0.0000 0.0000 0.0000 0.0000 0.0000 16.1820
#
#
#
# Elastic Compliance Matrix: (Units=1/GPa)
#
#
# Indices 1 2 3 4 5 6 
#
# 1 0.023192 -0.006667 -0.012736 0.000000 0.000000 0.000000
# 2 -0.006667 0.027202 -0.005664 0.000000 0.000000 0.000000
# 3 -0.012736 -0.005664 0.018989 0.000000 0.000000 0.000000
# 4 0.000000 0.000000 0.000000 0.624701 0.000000 0.000000
# 5 0.000000 0.000000 0.000000 0.000000 0.032694 0.000000
# 6 0.000000 0.000000 0.000000 0.000000 0.000000 0.061797
#
#
# Mechanical properties :
#
#
# Convention : Reuss Voigt Hill
#
# Bulk Modulus (GPa) = 51.94790 65.26728 58.60759
# Shear Modulus (GPa) = 5.91628 16.97964 11.44796
#
# Velocity S-wave (km/s) = 1.85568 3.14371 2.58132
# Velocity P-wave (km/s) = 5.90147 7.15302 6.55717
#
# Compressibility (1/GPa) = 0.01925005
#
# Stress axis : x y z
#
# Youngs Moduli (GPa) = 43.11801 36.76209 52.66150
#
# Poissons Ratio (x) = 0.24509 0.67067
# Poissons Ratio (y) = 0.28746 0.29829
# Poissons Ratio (z) = 0.54913 0.20823
#
# Static dielectric constant tensor:
#      x y z
#    x 1.576150 0.000000 0.000000 
#    y 0.000000 1.585500 0.000000 
#    z 0.000000 0.000000 1.595420 
# 
# From -- ./inp_files/76910.got.cif
#   From: 2010.05.17/outbox.cif.g08.bks.cpg/sg65_39_cif.got.tgz:76910.got - 2010.06.03 17:01:31.
