data_PCOD9492498
_publ_section_title
;
Structure prediction by ZEFSAII (Michael W. Deem and Ramdas Pophale) SiO2 
 PCOD9492498
Probable space group: C M M M
;
_chemical_formula_sum "Si O2"
_cell_formula_units_Z 64
_cell_length_a 8.605820
_cell_length_b 14.799684
_cell_length_c 24.185185
_cell_angle_alpha 90.000000
_cell_angle_beta 90.000000
_cell_angle_gamma 90.000000
_cell_volume 3080.307792
_symmetry_space_group_name_H-M "C M M M"
_symmetry_group_IT_number 65
_symmetry_cell_setting 'orthorhombic'
loop_
_space_group_symop_operation_xyz
x,y,z
-x,-y,z
x,-y,-z
-x,y,-z
-x,-y,-z
x,y,-z
-x,y,z
x,-y,z
1/2+x,1/2+y,z
1/2-x,1/2-y,z
1/2+x,1/2-y,-z
1/2-x,1/2+y,-z
1/2-x,1/2-y,-z
1/2+x,1/2+y,-z
1/2-x,1/2+y,z
1/2+x,1/2-y,z
loop_
_atom_site_type_symbol
_atom_site_label
_atom_site_fract_x
_atom_site_fract_y
_atom_site_fract_z
Si Si1 0.813896 0.000000 0.936378
Si Si2 0.313476 0.646772 0.380395
Si Si3 0.687848 0.352834 0.500000
Si Si4 0.813520 0.351670 0.145052
Si Si5 0.185897 0.647367 0.267134
O O1 0.753076 0.913674 0.902906
O O2 0.000000 0.000000 0.935804
O O3 0.760903 0.000000 0.000000
O O4 0.500000 0.648101 0.377594
O O5 0.250000 0.750000 0.381179
O O6 0.265912 0.607282 0.440331
O O7 0.251063 0.605293 0.323497
O O8 0.500000 0.351043 0.500000
O O9 0.750000 0.250000 0.500000
O O10 0.750000 0.250000 0.140624
O O11 0.771066 0.388997 0.206475
O O12 0.000000 0.350187 0.142168
O O13 0.250000 0.750000 0.266142
O O14 0.000000 0.648722 0.271073
#
# Coordination Sequence:
#
# PCOD9492498 Si02
#       5
#     8  16   8  16  16
#     4  11  25  43  63  89 119 150 187 230 275 329
#     4   9  14  20  31  49  78 118 163 211 262 314
#     4   8  14  20  26  42  72 113 160 207 257 312
#     4  10  21  38  61  87 117 153 191 233 281 333
#     4   9  16  26  42  66  94 127 170 217 265 317
#
# _framework density 20.777144
#
# number of rings (size 3 to 8) (size 9 to 14) (size 15 to 20)
#    0.000    2.625    0.000    4.125    0.000    5.500 
#    0.000    0.000    0.000    0.000    0.000    0.000 
#    0.000    1.000    0.000   11.375    0.000   16.000 
#
# Total GULP energy -178425.700898 kJ/mol
# GULP energy per Si atom -5575.803153 kJ/mol
# Density = 2.072985 g / cm^3
# Si number density = 20.777144 Si / 1000 Ang^3
#
#
#
# Elastic Constant Matrix: (Units=GPa)
#
#
# Indices 1 2 3 4 5 6 
#
# 1 57.9568 16.2491 68.4165 0.0000 0.0000 0.0000
# 2 16.2491 86.9499 66.1786 0.0000 0.0000 0.0000
# 3 68.4165 66.1786 280.4331 0.0000 0.0000 0.0000
# 4 0.0000 0.0000 0.0000 108.0193 0.0000 0.0000
# 5 0.0000 0.0000 0.0000 0.0000 35.3096 0.0000
# 6 0.0000 0.0000 0.0000 0.0000 0.0000 7.3437
#
#
#
# Elastic Compliance Matrix: (Units=1/GPa)
#
#
# Indices 1 2 3 4 5 6 
#
# 1 0.024233 -0.000035 -0.005904 0.000000 0.000000 0.000000
# 2 -0.000035 0.014019 -0.003300 0.000000 0.000000 0.000000
# 3 -0.005904 -0.003300 0.005785 0.000000 0.000000 0.000000
# 4 0.000000 0.000000 0.000000 0.009258 0.000000 0.000000
# 5 0.000000 0.000000 0.000000 0.000000 0.028321 0.000000
# 6 0.000000 0.000000 0.000000 0.000000 0.000000 0.136172
#
#
# Mechanical properties :
#
#
# Convention : Reuss Voigt Hill
#
# Bulk Modulus (GPa) = 39.12401 80.78091 59.95246
# Shear Modulus (GPa) = 20.42607 48.43422 34.43014
#
# Velocity S-wave (km/s) = 3.13885 4.83342 4.07519
# Velocity P-wave (km/s) = 5.65753 8.37337 7.14566
#
# Compressibility (1/GPa) = 0.02555975
#
# Stress axis : x y z
#
# Youngs Moduli (GPa) = 41.26528 71.33239 172.86251
#
# Poissons Ratio (x) = 0.00251 1.02056
# Poissons Ratio (y) = 0.00145 0.57039
# Poissons Ratio (z) = 0.24362 0.23537
#
# Static dielectric constant tensor:
#      x y z
#    x 1.693480 0.000000 0.000000 
#    y 0.000000 1.791170 0.000000 
#    z 0.000000 0.000000 1.812840 
# 
# From -- ./inp_files/66818.got.cif
#   From: 2010.05.17/outbox.cif.g08.bks.cpg/sg65_34_cif.got.tgz:66818.got - 2010.06.03 17:01:31.
