data_PCOD9492966
_publ_section_title
;
Structure prediction by ZEFSAII (Michael W. Deem and Ramdas Pophale) SiO2 
 PCOD9492966
Probable space group: C M M M
;
_chemical_formula_sum "Si O2"
_cell_formula_units_Z 48
_cell_length_a 10.669259
_cell_length_b 18.336393
_cell_length_c 10.989518
_cell_angle_alpha 90.000000
_cell_angle_beta 90.000000
_cell_angle_gamma 90.000000
_cell_volume 2149.942333
_symmetry_space_group_name_H-M "C M M M"
_symmetry_group_IT_number 65
_symmetry_cell_setting 'orthorhombic'
loop_
_space_group_symop_operation_xyz
x,y,z
-x,-y,z
x,-y,-z
-x,y,-z
-x,-y,-z
x,y,-z
-x,y,z
x,-y,z
1/2+x,1/2+y,z
1/2-x,1/2-y,z
1/2+x,1/2-y,-z
1/2-x,1/2+y,-z
1/2-x,1/2-y,-z
1/2+x,1/2+y,-z
1/2-x,1/2+y,z
1/2+x,1/2-y,z
loop_
_atom_site_type_symbol
_atom_site_label
_atom_site_fract_x
_atom_site_fract_y
_atom_site_fract_z
Si Si1 0.653563 0.180602 0.000000
Si Si2 0.500000 0.412542 0.640757
Si Si3 0.264927 0.913407 0.765402
Si Si4 0.131332 0.291566 0.357478
O O1 0.750000 0.250000 0.000000
O O2 0.690635 0.130504 0.884055
O O3 0.500000 0.195218 0.000000
O O4 0.500000 0.500000 0.628145
O O5 0.500000 0.383548 0.500000
O O6 0.624361 0.395993 0.717832
O O7 0.350219 0.877258 0.661389
O O8 0.276968 0.000000 0.780412
O O9 0.128563 0.275773 0.500000
O O10 0.250000 0.250000 0.304077
O O11 0.000000 0.267312 0.302231
#
# Coordination Sequence:
#
# PCOD9492966 Si02
#       4
#     8   8  16  16
#     4  12  29  49  74 102 136 191 242 297 359 427
#     4   9  20  39  67 107 147 184 223 278 356 429
#     4  11  24  42  69 101 139 180 232 292 351 418
#     4  10  22  39  62  93 131 178 226 280 346 414
#
# _framework density 22.326180000000001
#
# number of rings (size 3 to 8) (size 9 to 14) (size 15 to 20)
#    0.000    1.500    0.000    3.500    4.667    5.333 
#    0.000    4.167    0.000    0.000    0.000    0.000 
#    0.000    0.000    0.000    0.000    0.000    0.000 
#
# Total GULP energy -133910.348817 kJ/mol
# GULP energy per Si atom -5579.597867 kJ/mol
# Density = 2.227536 g / cm^3
# Si number density = 22.326180 Si / 1000 Ang^3
#
#
#
# Elastic Constant Matrix: (Units=GPa)
#
#
# Indices 1 2 3 4 5 6 
#
# 1 236.1874 88.2217 57.7403 0.0000 0.0000 0.0000
# 2 88.2217 164.8290 32.7755 0.0000 0.0000 0.0000
# 3 57.7403 32.7755 80.4935 0.0000 0.0000 0.0000
# 4 0.0000 0.0000 0.0000 24.0203 0.0000 0.0000
# 5 0.0000 0.0000 0.0000 0.0000 25.1188 0.0000
# 6 0.0000 0.0000 0.0000 0.0000 0.0000 35.0156
#
#
#
# Elastic Compliance Matrix: (Units=1/GPa)
#
#
# Indices 1 2 3 4 5 6 
#
# 1 0.005984 -0.002556 -0.003251 0.000000 0.000000 0.000000
# 2 -0.002556 0.007693 -0.001299 0.000000 0.000000 0.000000
# 3 -0.003251 -0.001299 0.015285 0.000000 0.000000 0.000000
# 4 0.000000 0.000000 0.000000 0.041631 0.000000 0.000000
# 5 0.000000 0.000000 0.000000 0.000000 0.039811 0.000000
# 6 0.000000 0.000000 0.000000 0.000000 0.000000 0.028559
#
#
# Mechanical properties :
#
#
# Convention : Reuss Voigt Hill
#
# Bulk Modulus (GPa) = 67.80353 93.22055 80.51204
# Shear Modulus (GPa) = 31.62726 37.01578 34.32152
#
# Velocity S-wave (km/s) = 3.76786 4.07622 3.92507
# Velocity P-wave (km/s) = 7.02598 7.99991 7.52871
#
# Compressibility (1/GPa) = 0.01474849
#
# Stress axis : x y z
#
# Youngs Moduli (GPa) = 167.12530 129.98354 65.42525
#
# Poissons Ratio (x) = 0.33225 0.21272
# Poissons Ratio (y) = 0.42718 0.08499
# Poissons Ratio (z) = 0.54339 0.16885
#
# Static dielectric constant tensor:
#      x y z
#    x 0.714770 0.000000 0.000000 
#    y 0.000000 1.847630 0.000000 
#    z 0.000000 0.000000 1.848770 
# 
# From -- ./inp_files/21599.got.cif
#   From: 2010.05.17/outbox.cif.g08.bks.cpg/sg65_11_cif.got.tgz:21599.got - 2010.06.03 17:01:31.
