data_PCOD9492147
_publ_section_title
;
Structure prediction by ZEFSAII (Michael W. Deem and Ramdas Pophale) SiO2 
 PCOD9492147
Probable space group: C M M M
;
_chemical_formula_sum "Si O2"
_cell_formula_units_Z 68
_cell_length_a 17.874101
_cell_length_b 7.809353
_cell_length_c 23.389886
_cell_angle_alpha 90.000000
_cell_angle_beta 90.000000
_cell_angle_gamma 90.000000
_cell_volume 3264.881079
_symmetry_space_group_name_H-M "C M M M"
_symmetry_group_IT_number 65
_symmetry_cell_setting 'orthorhombic'
loop_
_space_group_symop_operation_xyz
x,y,z
-x,-y,z
x,-y,-z
-x,y,-z
-x,-y,-z
x,y,-z
-x,y,z
x,-y,z
1/2+x,1/2+y,z
1/2-x,1/2-y,z
1/2+x,1/2-y,-z
1/2-x,1/2+y,-z
1/2-x,1/2-y,-z
1/2+x,1/2+y,-z
1/2-x,1/2+y,z
1/2+x,1/2-y,z
loop_
_atom_site_type_symbol
_atom_site_label
_atom_site_fract_x
_atom_site_fract_y
_atom_site_fract_z
Si Si1 0.662638 0.301673 0.415488
Si Si2 0.384102 0.000000 0.500000
Si Si3 0.837280 0.295923 0.938081
Si Si4 0.912958 0.299308 0.301799
Si Si5 0.415833 0.298246 0.821214
O O1 0.653835 0.500000 0.434629
O O2 0.750000 0.250000 0.421062
O O3 0.635180 0.291523 0.350195
O O4 0.619559 0.154390 0.450852
O O5 0.845141 0.500000 0.937865
O O6 0.750000 0.250000 0.936182
O O7 0.874775 0.230102 0.880697
O O8 0.866703 0.231712 0.000000
O O9 0.913213 0.500000 0.314976
O O10 0.883074 0.277367 0.237247
O O11 0.000000 0.238447 0.302553
O O12 0.500000 0.227220 0.826950
O O13 0.419549 0.500000 0.811330
#
# Coordination Sequence:
#
# PCOD9492147 Si02
#       5
#    16   4  16  16  16
#     4  12  24  40  66  94 123 162 204 249 301 362
#     4  12  24  44  63  96 125 162 202 246 308 354
#     4  10  21  37  57  83 116 155 197 245 300 355
#     4  10  21  41  64  89 123 158 199 251 305 357
#     4  10  21  37  59  86 117 156 198 244 298 355
#
# _framework density 20.827711999999998
#
# number of rings (size 3 to 8) (size 9 to 14) (size 15 to 20)
#    0.000    1.412    2.353    2.824    0.000    5.647 
#    0.000    8.235    0.000    1.412    0.000    0.000 
#    0.000    0.000    0.000    0.000    0.000    0.000 
#
# Total GULP energy -189270.717827 kJ/mol
# GULP energy per Si atom -5566.785818 kJ/mol
# Density = 2.078031 g / cm^3
# Si number density = 20.827712 Si / 1000 Ang^3
#
#
#
# Elastic Constant Matrix: (Units=GPa)
#
#
# Indices 1 2 3 4 5 6 
#
# 1 8.7458 6.4542 29.1971 0.0000 0.0000 0.0000
# 2 6.4542 135.7887 37.5775 0.0000 0.0000 0.0000
# 3 29.1971 37.5775 182.2227 0.0000 0.0000 0.0000
# 4 0.0000 0.0000 0.0000 33.9509 0.0000 0.0000
# 5 0.0000 0.0000 0.0000 0.0000 135.1575 0.0000
# 6 0.0000 0.0000 0.0000 0.0000 0.0000 13.5366
#
#
#
# Elastic Compliance Matrix: (Units=1/GPa)
#
#
# Indices 1 2 3 4 5 6 
#
# 1 0.245934 -0.000832 -0.039234 0.000000 0.000000 0.000000
# 2 -0.000832 0.007813 -0.001478 0.000000 0.000000 0.000000
# 3 -0.039234 -0.001478 0.012079 0.000000 0.000000 0.000000
# 4 0.000000 0.000000 0.000000 0.029454 0.000000 0.000000
# 5 0.000000 0.000000 0.000000 0.000000 0.007399 0.000000
# 6 0.000000 0.000000 0.000000 0.000000 0.000000 0.073874
#
#
# Mechanical properties :
#
#
# Convention : Reuss Voigt Hill
#
# Bulk Modulus (GPa) = 5.47232 52.57941 29.02586
# Shear Modulus (GPa) = 9.60518 53.43089 31.51803
#
# Velocity S-wave (km/s) = 2.14982 5.07045 3.89430
# Velocity P-wave (km/s) = 2.96571 7.71874 5.84698
#
# Compressibility (1/GPa) = 0.18273801
#
# Stress axis : x y z
#
# Youngs Moduli (GPa) = 4.06614 127.99347 82.78929
#
# Poissons Ratio (x) = 0.10652 3.24813
# Poissons Ratio (y) = 0.00338 0.12235
# Poissons Ratio (z) = 0.15953 0.18915
#
# Static dielectric constant tensor:
#      x y z
#    x 1.750090 0.000000 0.000000 
#    y 0.000000 1.744090 0.000000 
#    z 0.000000 0.000000 1.767400 
# 
# From -- ./inp_files/49213.got.cif
#   From: 2010.05.17/outbox.cif.g08.bks.cpg/sg65_25_cif.got.tgz:49213.got - 2010.06.03 17:01:31.
