data_PCOD9492502
_publ_section_title
;
Structure prediction by ZEFSAII (Michael W. Deem and Ramdas Pophale) SiO2 
 PCOD9492502
Probable space group: C M M M
;
_chemical_formula_sum "Si O2"
_cell_formula_units_Z 96
_cell_length_a 23.719441
_cell_length_b 18.419831
_cell_length_c 12.208268
_cell_angle_alpha 90.000000
_cell_angle_beta 90.000000
_cell_angle_gamma 90.000000
_cell_volume 5333.891111
_symmetry_space_group_name_H-M "C M M M"
_symmetry_group_IT_number 65
_symmetry_cell_setting 'orthorhombic'
loop_
_space_group_symop_operation_xyz
x,y,z
-x,-y,z
x,-y,-z
-x,y,-z
-x,-y,-z
x,y,-z
-x,y,z
x,-y,z
1/2+x,1/2+y,z
1/2-x,1/2-y,z
1/2+x,1/2-y,-z
1/2-x,1/2+y,-z
1/2-x,1/2-y,-z
1/2+x,1/2+y,-z
1/2-x,1/2+y,z
1/2+x,1/2-y,z
loop_
_atom_site_type_symbol
_atom_site_label
_atom_site_fract_x
_atom_site_fract_y
_atom_site_fract_z
Si Si1 0.067069 0.417544 0.626042
Si Si2 0.352647 0.678533 0.129697
Si Si3 0.066126 0.084147 0.275948
Si Si4 0.316031 0.775087 0.500000
Si Si5 0.653396 0.827839 0.736336
Si Si6 0.932712 0.824412 0.500000
Si Si7 0.259151 0.083168 0.128505
O O1 0.082638 0.399805 0.500000
O O2 0.086841 0.500000 0.647684
O O3 0.092620 0.361029 0.709906
O O4 0.000000 0.417349 0.630969
O O5 0.399549 0.627803 0.184862
O O6 0.349386 0.754094 0.194734
O O7 0.293946 0.635821 0.144190
O O8 0.361811 0.689755 0.000000
O O9 0.071923 0.126136 0.391503
O O10 0.000000 0.084272 0.248547
O O11 0.084529 0.000000 0.285122
O O12 0.250000 0.750000 0.500000
O O13 0.320567 0.815033 0.383600
O O14 0.375276 0.725727 0.500000
O O15 0.690150 0.886139 0.800742
O O16 0.000000 0.794872 0.500000
O O17 0.244954 0.000000 0.156361
O O18 0.274023 0.085662 0.000000
#
# Coordination Sequence:
#
# PCOD9492502 Si02
#       7
#    16  16  16   8  16   8  16
#     4   9  19  37  60  87 118 152 194 244 295 354
#     4  11  23  39  59  85 118 157 200 248 297 353
#     4  10  21  38  61  87 117 156 202 252 299 351
#     4  12  24  37  56  90 132 158 187 248 318 370
#     4  12  22  37  60  89 120 154 195 239 303 364
#     4  10  21  40  64  88 119 163 211 245 295 375
#     4  10  22  41  63  84 111 153 202 246 293 356
#
# _framework density 17.998118000000002
#
# number of rings (size 3 to 8) (size 9 to 14) (size 15 to 20)
#    0.000    1.500    2.500    3.750    0.000    5.000 
#    0.000    0.833    0.000    1.500    0.000    5.833 
#    0.000    0.000    0.000    0.000    0.000    0.000 
#
# Total GULP energy -267670.459381 kJ/mol
# GULP energy per Si atom -5576.467904 kJ/mol
# Density = 1.795715 g / cm^3
# Si number density = 17.998118 Si / 1000 Ang^3
#
#
#
# Elastic Constant Matrix: (Units=GPa)
#
#
# Indices 1 2 3 4 5 6 
#
# 1 71.3266 38.4525 39.6663 0.0000 0.0000 0.0000
# 2 38.4525 102.6692 56.0272 0.0000 0.0000 0.0000
# 3 39.6663 56.0272 78.0638 0.0000 0.0000 0.0000
# 4 0.0000 0.0000 0.0000 34.7483 0.0000 0.0000
# 5 0.0000 0.0000 0.0000 0.0000 34.5419 0.0000
# 6 0.0000 0.0000 0.0000 0.0000 0.0000 28.8240
#
#
#
# Elastic Compliance Matrix: (Units=1/GPa)
#
#
# Indices 1 2 3 4 5 6 
#
# 1 0.020171 -0.003224 -0.007936 0.000000 0.000000 0.000000
# 2 -0.003224 0.016526 -0.010223 0.000000 0.000000 0.000000
# 3 -0.007936 -0.010223 0.024179 0.000000 0.000000 0.000000
# 4 0.000000 0.000000 0.000000 0.028778 0.000000 0.000000
# 5 0.000000 0.000000 0.000000 0.000000 0.028950 0.000000
# 6 0.000000 0.000000 0.000000 0.000000 0.000000 0.034693
#
#
# Mechanical properties :
#
#
# Convention : Reuss Voigt Hill
#
# Bulk Modulus (GPa) = 55.21258 57.81683 56.51471
# Shear Modulus (GPa) = 24.74013 27.48376 26.11195
#
# Velocity S-wave (km/s) = 3.71158 3.91197 3.81309
# Velocity P-wave (km/s) = 7.00794 7.25246 7.13125
#
# Compressibility (1/GPa) = 0.01811181
#
# Stress axis : x y z
#
# Youngs Moduli (GPa) = 49.57529 60.51010 41.35791
#
# Poissons Ratio (x) = 0.19510 0.32820
# Poissons Ratio (y) = 0.15984 0.42279
# Poissons Ratio (z) = 0.39340 0.61857
#
# Static dielectric constant tensor:
#      x y z
#    x 1.625370 0.000000 0.000000 
#    y 0.000000 1.637520 0.000000 
#    z 0.000000 0.000000 1.584380 
# 
# From -- ./inp_files/30820.got.cif
#   From: 2010.05.17/outbox.cif.g08.bks.cpg/sg65_16_cif.got.tgz:30820.got - 2010.06.03 17:01:31.
