data_PCOD9492750
_publ_section_title
;
Structure prediction by ZEFSAII (Michael W. Deem and Ramdas Pophale) SiO2 
 PCOD9492750
Probable space group: C M M M
;
_chemical_formula_sum "Si O2"
_cell_formula_units_Z 50
_cell_length_a 14.376265
_cell_length_b 10.058199
_cell_length_c 18.192536
_cell_angle_alpha 90.000000
_cell_angle_beta 90.000000
_cell_angle_gamma 90.000000
_cell_volume 2630.628594
_symmetry_space_group_name_H-M "C M M M"
_symmetry_group_IT_number 65
_symmetry_cell_setting 'orthorhombic'
loop_
_space_group_symop_operation_xyz
x,y,z
-x,-y,z
x,-y,-z
-x,y,-z
-x,-y,-z
x,y,-z
-x,y,z
x,-y,z
1/2+x,1/2+y,z
1/2-x,1/2-y,z
1/2+x,1/2-y,-z
1/2-x,1/2+y,-z
1/2-x,1/2-y,-z
1/2+x,1/2+y,-z
1/2-x,1/2+y,z
1/2+x,1/2-y,z
loop_
_atom_site_type_symbol
_atom_site_label
_atom_site_fract_x
_atom_site_fract_y
_atom_site_fract_z
Si Si1 0.396705 0.500000 0.372728
Si Si2 0.392937 0.210758 0.696227
Si Si3 0.190993 0.000000 0.918772
Si Si4 0.188724 0.500000 0.416398
Si Si5 0.250000 0.750000 0.822370
Si Si6 0.000000 0.000000 0.000000
O O1 0.500000 0.500000 0.409041
O O2 0.392109 0.633699 0.324737
O O3 0.301023 0.500000 0.417758
O O4 0.500000 0.169597 0.706181
O O5 0.330938 0.196430 0.768567
O O6 0.347730 0.126308 0.629988
O O7 0.216293 0.129963 0.872991
O O8 0.082202 0.000000 0.937359
O O9 0.238220 0.000000 0.000000
O O10 0.153694 0.500000 0.500000
#
# Coordination Sequence:
#
# PCOD9492750 Si02
#       6
#     8  16   8   8   8   2
#     4  10  21  41  62  91 122 158 215 273 317 378
#     4  11  24  40  65  95 124 166 220 266 322 379
#     4  10  24  41  67  98 134 163 208 250 314 376
#     4  12  24  43  61  87 130 172 214 272 331 381
#     4  12  21  42  71  96 130 170 208 266 311 378
#     4   8  24  44  64 106 130 168 218 238 316 384
#
# _framework density 19.006862999999999
#
# number of rings (size 3 to 8) (size 9 to 14) (size 15 to 20)
#    0.480    0.640    3.200    2.880    2.240    4.160 
#    0.000    3.200    0.000    1.920    0.000    0.000 
#    0.000    0.000    0.000    0.000    0.000    0.000 
#
# Total GULP energy -139306.631556 kJ/mol
# GULP energy per Si atom -5572.265262 kJ/mol
# Density = 1.896360 g / cm^3
# Si number density = 19.006863 Si / 1000 Ang^3
#
#
#
# Elastic Constant Matrix: (Units=GPa)
#
#
# Indices 1 2 3 4 5 6 
#
# 1 173.1615 51.0660 83.7221 0.0000 0.0000 0.0000
# 2 51.0660 134.4109 72.7396 0.0000 0.0000 0.0000
# 3 83.7221 72.7396 173.3840 0.0000 0.0000 0.0000
# 4 0.0000 0.0000 0.0000 34.1753 0.0000 0.0000
# 5 0.0000 0.0000 0.0000 0.0000 -12.2830 0.0000
# 6 0.0000 0.0000 0.0000 0.0000 0.0000 21.1856
#
#
#
# Elastic Compliance Matrix: (Units=1/GPa)
#
#
# Indices 1 2 3 4 5 6 
#
# 1 0.007675 -0.001178 -0.003212 0.000000 0.000000 0.000000
# 2 -0.001178 0.009806 -0.003545 0.000000 0.000000 0.000000
# 3 -0.003212 -0.003545 0.008806 0.000000 0.000000 0.000000
# 4 0.000000 0.000000 0.000000 0.029261 0.000000 0.000000
# 5 0.000000 0.000000 0.000000 0.000000 -0.081413 0.000000
# 6 0.000000 0.000000 0.000000 0.000000 0.000000 0.047202
#
#
# Mechanical properties :
#
#
# Convention : Reuss Voigt Hill
#
# Bulk Modulus (GPa) = 95.99619 99.55685 97.77652
# Shear Modulus (GPa) = 122.91430 26.84416 74.87923
#
# Velocity S-wave (km/s) = 8.05039 3.76219 6.28342
# Velocity P-wave (km/s) = 11.70587 8.44779 10.20766
#
# Compressibility (1/GPa) = 0.01041708
#
# Stress axis : x y z
#
# Youngs Moduli (GPa) = 130.28826 101.97980 113.56089
#
# Poissons Ratio (x) = 0.12011 0.36477
# Poissons Ratio (y) = 0.15345 0.40259
# Poissons Ratio (z) = 0.41850 0.36153
#
# Static dielectric constant tensor:
#      x y z
#    x 1.674930 0.000000 0.000000 
#    y 0.000000 1.713620 0.000000 
#    z 0.000000 0.000000 1.642690 
# 
# From -- ./inp_files/52357.got.cif
#   From: 2010.05.17/outbox.cif.g08.bks.cpg/sg65_27_cif.got.tgz:52357.got - 2010.06.03 17:01:31.
