data_PCOD9492672
_publ_section_title
;
Structure prediction by ZEFSAII (Michael W. Deem and Ramdas Pophale) SiO2 
 PCOD9492672
Probable space group: C M M M
;
_chemical_formula_sum "Si O2"
_cell_formula_units_Z 68
_cell_length_a 8.286272
_cell_length_b 24.004213
_cell_length_c 16.944235
_cell_angle_alpha 90.000000
_cell_angle_beta 90.000000
_cell_angle_gamma 90.000000
_cell_volume 3370.300485
_symmetry_space_group_name_H-M "C M M M"
_symmetry_group_IT_number 65
_symmetry_cell_setting 'orthorhombic'
loop_
_space_group_symop_operation_xyz
x,y,z
-x,-y,z
x,-y,-z
-x,y,-z
-x,-y,-z
x,y,-z
-x,y,z
x,-y,z
1/2+x,1/2+y,z
1/2-x,1/2-y,z
1/2+x,1/2-y,-z
1/2-x,1/2+y,-z
1/2-x,1/2-y,-z
1/2+x,1/2+y,-z
1/2-x,1/2+y,z
1/2+x,1/2-y,z
loop_
_atom_site_type_symbol
_atom_site_label
_atom_site_fract_x
_atom_site_fract_y
_atom_site_fract_z
Si Si1 0.691583 0.689842 0.589801
Si Si2 0.313282 0.311153 0.845685
Si Si3 0.682151 0.386229 0.000000
Si Si4 0.800376 0.500000 0.183475
Si Si5 0.762456 0.500000 0.000000
Si Si6 0.185266 0.609263 0.281449
O O1 0.756220 0.685390 0.500000
O O2 0.500000 0.693215 0.586832
O O3 0.750000 0.750000 0.622747
O O4 0.735857 0.635771 0.640943
O O5 0.500000 0.309721 0.818547
O O6 0.250000 0.250000 0.862563
O O7 0.205199 0.341014 0.781003
O O8 0.305982 0.348111 0.923987
O O9 0.812064 0.435297 0.000000
O O10 0.500000 0.413226 0.000000
O O11 0.753572 0.445683 0.235152
O O12 0.000000 0.500000 0.171603
O O13 0.718995 0.500000 0.096376
O O14 0.000000 0.597664 0.299932
#
# Coordination Sequence:
#
# PCOD9492672 Si02
#       6
#    16  16   8   8   4  16
#     4  10  21  39  64  94 124 156 194 238 293 356
#     4  11  22  38  56  82 115 153 195 243 299 355
#     4  10  22  36  56  82 112 148 195 246 300 356
#     4  10  23  39  60  87 117 157 204 250 298 351
#     4  12  18  42  62  84 114 152 210 256 302 344
#     4  11  22  39  60  87 119 155 198 244 295 353
#
# _framework density 20.176242999999999
#
# number of rings (size 3 to 8) (size 9 to 14) (size 15 to 20)
#    0.000    1.412    2.353    3.529    0.000    1.412 
#    0.000    4.706    0.000    3.529    0.000    0.000 
#    0.000    0.000    0.000    0.000    0.000    0.000 
#
# Total GULP energy -189434.145320 kJ/mol
# GULP energy per Si atom -5571.592509 kJ/mol
# Density = 2.013032 g / cm^3
# Si number density = 20.176243 Si / 1000 Ang^3
#
#
#
# Elastic Constant Matrix: (Units=GPa)
#
#
# Indices 1 2 3 4 5 6 
#
# 1 30.1489 19.2369 11.0194 0.0000 0.0000 0.0000
# 2 19.2369 150.7247 52.1101 0.0000 0.0000 0.0000
# 3 11.0194 52.1101 99.4290 0.0000 0.0000 0.0000
# 4 0.0000 0.0000 0.0000 62.2614 0.0000 0.0000
# 5 0.0000 0.0000 0.0000 0.0000 18.5247 0.0000
# 6 0.0000 0.0000 0.0000 0.0000 0.0000 -34.1189
#
#
#
# Elastic Compliance Matrix: (Units=1/GPa)
#
#
# Indices 1 2 3 4 5 6 
#
# 1 0.036418 -0.003972 -0.001954 0.000000 0.000000 0.000000
# 2 -0.003972 0.008536 -0.004033 0.000000 0.000000 0.000000
# 3 -0.001954 -0.004033 0.012388 0.000000 0.000000 0.000000
# 4 0.000000 0.000000 0.000000 0.016061 0.000000 0.000000
# 5 0.000000 0.000000 0.000000 0.000000 0.053982 0.000000
# 6 0.000000 0.000000 0.000000 0.000000 0.000000 -0.029309
#
#
# Mechanical properties :
#
#
# Convention : Reuss Voigt Hill
#
# Bulk Modulus (GPa) = 26.72249 49.44838 38.08543
# Shear Modulus (GPa) = 38.32309 22.52917 30.42613
#
# Velocity S-wave (km/s) = 4.36296 3.34521 3.88753
# Velocity P-wave (km/s) = 6.21722 6.28347 6.25043
#
# Compressibility (1/GPa) = 0.03742167
#
# Stress axis : x y z
#
# Youngs Moduli (GPa) = 27.45924 117.14960 80.72380
#
# Poissons Ratio (x) = 0.46536 0.15775
# Poissons Ratio (y) = 0.10908 0.32560
# Poissons Ratio (z) = 0.05366 0.47252
#
# Static dielectric constant tensor:
#      x y z
#    x 1.860650 0.000000 0.000000 
#    y 0.000000 1.688670 0.000000 
#    z 0.000000 0.000000 1.732800 
# 
# From -- ./inp_files/49239.got.cif
#   From: 2010.05.17/outbox.cif.g08.bks.cpg/sg65_25_cif.got.tgz:49239.got - 2010.06.03 17:01:31.
