data_PCOD9492168
_publ_section_title
;
Structure prediction by ZEFSAII (Michael W. Deem and Ramdas Pophale) SiO2 
 PCOD9492168
Probable space group: C M M M
;
_chemical_formula_sum "Si O2"
_cell_formula_units_Z 120
_cell_length_a 29.263915
_cell_length_b 24.740934
_cell_length_c 8.853008
_cell_angle_alpha 90.000000
_cell_angle_beta 90.000000
_cell_angle_gamma 90.000000
_cell_volume 6409.724660
_symmetry_space_group_name_H-M "C M M M"
_symmetry_group_IT_number 65
_symmetry_cell_setting 'orthorhombic'
loop_
_space_group_symop_operation_xyz
x,y,z
-x,-y,z
x,-y,-z
-x,y,-z
-x,-y,-z
x,y,-z
-x,y,z
x,-y,z
1/2+x,1/2+y,z
1/2-x,1/2-y,z
1/2+x,1/2-y,-z
1/2-x,1/2+y,-z
1/2-x,1/2-y,-z
1/2+x,1/2+y,-z
1/2-x,1/2+y,z
1/2+x,1/2-y,z
loop_
_atom_site_type_symbol
_atom_site_label
_atom_site_fract_x
_atom_site_fract_y
_atom_site_fract_z
Si Si1 0.000000 0.936477 0.818729
Si Si2 0.104488 0.248084 0.318461
Si Si3 0.699523 0.262149 0.825907
Si Si4 0.412978 0.375702 0.319012
Si Si5 0.948305 0.646036 0.315473
Si Si6 0.871186 0.562627 0.318161
Si Si7 0.723205 0.064862 0.826346
Si Si8 0.181949 0.109426 0.174885
O O1 0.044775 0.906807 0.754103
O O2 0.000000 0.000000 0.776747
O O3 0.000000 0.932827 0.000000
O O4 0.105839 0.247713 0.500000
O O5 0.155500 0.260323 0.260043
O O6 0.088895 0.187826 0.271290
O O7 0.070330 0.295223 0.269069
O O8 0.750000 0.250000 0.763247
O O9 0.692026 0.326592 0.825239
O O10 0.698828 0.242958 0.000000
O O11 0.416629 0.377707 0.500000
O O12 0.364502 0.400014 0.265415
O O13 0.948564 0.645343 0.500000
O O14 0.912494 0.600445 0.266099
O O15 0.000000 0.636594 0.264668
O O16 0.870214 0.563437 0.500000
O O17 0.877390 0.500000 0.270691
O O18 0.822245 0.582944 0.258975
O O19 0.772017 0.082667 0.762260
O O20 0.722375 0.000000 0.827111
O O21 0.721391 0.084453 0.000000
O O22 0.175646 0.091854 0.000000
#
# Coordination Sequence:
#
# PCOD9492168 Si02
#       8
#     8  16  16  16  16  16  16  16
#     4  11  25  43  63  85 109 143 182 217 262 320
#     4   9  19  34  53  78 106 140 177 215 265 320
#     4   9  18  31  48  72 103 140 175 212 261 310
#     4  10  21  37  58  83 111 142 177 222 270 315
#     4   9  18  32  52  77 104 137 178 222 268 322
#     4   9  18  32  50  75 105 136 175 224 272 315
#     4   9  18  32  51  74 100 136 176 212 259 318
#     4   9  18  33  51  73 105 142 179 217 263 322
#
# _framework density 18.721553
#
# number of rings (size 3 to 8) (size 9 to 14) (size 15 to 20)
#    0.000    2.733    0.000    0.600    2.800    2.667 
#    0.000    2.667    0.000    1.200    0.000    1.867 
#    0.000    0.000    0.000    0.000    0.000    0.000 
#
# Total GULP energy -334560.501640 kJ/mol
# GULP energy per Si atom -5576.008361 kJ/mol
# Density = 1.867894 g / cm^3
# Si number density = 18.721553 Si / 1000 Ang^3
#
#
#
# Elastic Constant Matrix: (Units=GPa)
#
#
# Indices 1 2 3 4 5 6 
#
# 1 209.2174 82.4758 39.5434 0.0000 0.0000 0.0000
# 2 82.4758 68.6218 26.7316 0.0000 0.0000 0.0000
# 3 39.5434 26.7316 20.0858 0.0000 0.0000 0.0000
# 4 0.0000 0.0000 0.0000 14.1667 0.0000 0.0000
# 5 0.0000 0.0000 0.0000 0.0000 -22.8117 0.0000
# 6 0.0000 0.0000 0.0000 0.0000 0.0000 35.7808
#
#
#
# Elastic Compliance Matrix: (Units=1/GPa)
#
#
# Indices 1 2 3 4 5 6 
#
# 1 0.009578 -0.008651 -0.007342 0.000000 0.000000 0.000000
# 2 -0.008651 0.038076 -0.033642 0.000000 0.000000 0.000000
# 3 -0.007342 -0.033642 0.109015 0.000000 0.000000 0.000000
# 4 0.000000 0.000000 0.000000 0.070588 0.000000 0.000000
# 5 0.000000 0.000000 0.000000 0.000000 -0.043837 0.000000
# 6 0.000000 0.000000 0.000000 0.000000 0.000000 0.027948
#
#
# Mechanical properties :
#
#
# Convention : Reuss Voigt Hill
#
# Bulk Modulus (GPa) = 17.42248 66.15851 41.79049
# Shear Modulus (GPa) = 15.16202 15.37210 15.26706
#
# Velocity S-wave (km/s) = 2.84891 2.86858 2.85876
# Velocity P-wave (km/s) = 4.48865 6.81076 5.76778
#
# Compressibility (1/GPa) = 0.05739712
#
# Stress axis : x y z
#
# Youngs Moduli (GPa) = 104.40638 26.26339 9.17306
#
# Poissons Ratio (x) = 0.22721 0.06735
# Poissons Ratio (y) = 0.90326 0.30860
# Poissons Ratio (z) = 0.76660 0.88355
#
# Static dielectric constant tensor:
#      x y z
#    x 1.633750 0.000000 0.000000 
#    y 0.000000 1.659430 0.000000 
#    z 0.000000 0.000000 1.646200 
# 
# From -- ./inp_files/17059.got.cif
#   From: 2010.05.17/outbox.cif.g08.bks.cpg/sg65_9_cif.got.tgz:17059.got - 2010.06.03 17:01:31.
