data_PCOD9492977
_publ_section_title
;
Structure prediction by ZEFSAII (Michael W. Deem and Ramdas Pophale) SiO2 
 PCOD9492977
Probable space group: C M M M
;
_chemical_formula_sum "Si O2"
_cell_formula_units_Z 60
_cell_length_a 11.613743
_cell_length_b 21.289602
_cell_length_c 11.515395
_cell_angle_alpha 90.000000
_cell_angle_beta 90.000000
_cell_angle_gamma 90.000000
_cell_volume 2847.204055
_symmetry_space_group_name_H-M "C M M M"
_symmetry_group_IT_number 65
_symmetry_cell_setting 'orthorhombic'
loop_
_space_group_symop_operation_xyz
x,y,z
-x,-y,z
x,-y,-z
-x,y,-z
-x,-y,-z
x,y,-z
-x,y,z
x,-y,z
1/2+x,1/2+y,z
1/2-x,1/2-y,z
1/2+x,1/2-y,-z
1/2-x,1/2+y,-z
1/2-x,1/2-y,-z
1/2+x,1/2+y,-z
1/2-x,1/2+y,z
1/2+x,1/2-y,z
loop_
_atom_site_type_symbol
_atom_site_label
_atom_site_fract_x
_atom_site_fract_y
_atom_site_fract_z
Si Si1 0.726181 0.616654 0.743720
Si Si2 0.000000 0.261809 0.837795
Si Si3 0.250000 0.250000 0.813936
Si Si4 0.864344 0.500000 0.360649
Si Si5 0.500000 0.665115 0.634904
Si Si6 0.000000 0.621401 0.000000
Si Si7 0.255413 0.427235 0.000000
O O1 0.777308 0.687118 0.741760
O O2 0.805604 0.561793 0.693941
O O3 0.609979 0.624233 0.671599
O O4 0.702733 0.602204 0.879369
O O5 0.872029 0.238957 0.877594
O O6 0.000000 0.229832 0.709695
O O7 0.000000 0.332990 0.886826
O O8 0.849492 0.500000 0.500000
O O9 0.000000 0.500000 0.334225
O O10 0.500000 0.679126 0.500000
O O11 0.116922 0.582486 0.000000
O O12 0.284685 0.500000 0.000000
#
# Coordination Sequence:
#
# PCOD9492977 Si02
#       7
#    16   8   8   8   8   4   8
#     4  11  24  44  74 104 144 187 247 299 364 443
#     4  10  22  39  67 103 141 185 246 290 360 436
#     4  10  22  41  67 102 144 186 235 305 356 432
#     4  11  26  46  70 103 146 196 251 308 360 426
#     4  10  24  47  70 100 144 192 239 298 362 440
#     4  12  23  40  74  98 150 199 228 290 380 445
#     4  12  25  41  70 109 145 186 235 310 373 440
#
# _framework density 21.073304
#
# number of rings (size 3 to 8) (size 9 to 14) (size 15 to 20)
#    0.000    1.200    4.000    1.000    3.733    6.400 
#    0.000   18.667    0.000    0.000    0.000    0.000 
#    0.000    0.000    0.000    0.000    0.000    0.000 
#
# Total GULP energy -167191.406911 kJ/mol
# GULP energy per Si atom -5573.046897 kJ/mol
# Density = 2.102534 g / cm^3
# Si number density = 21.073304 Si / 1000 Ang^3
#
#
#
# Elastic Constant Matrix: (Units=GPa)
#
#
# Indices 1 2 3 4 5 6 
#
# 1 135.3731 44.4535 56.1828 0.0000 0.0000 0.0000
# 2 44.4535 177.4275 53.9327 0.0000 0.0000 0.0000
# 3 56.1828 53.9327 161.2464 0.0000 0.0000 0.0000
# 4 0.0000 0.0000 0.0000 1.7925 0.0000 0.0000
# 5 0.0000 0.0000 0.0000 0.0000 26.3778 0.0000
# 6 0.0000 0.0000 0.0000 0.0000 0.0000 13.9615
#
#
#
# Elastic Compliance Matrix: (Units=1/GPa)
#
#
# Indices 1 2 3 4 5 6 
#
# 1 0.008955 -0.001442 -0.002638 0.000000 0.000000 0.000000
# 2 -0.001442 0.006506 -0.001674 0.000000 0.000000 0.000000
# 3 -0.002638 -0.001674 0.007681 0.000000 0.000000 0.000000
# 4 0.000000 0.000000 0.000000 0.557873 0.000000 0.000000
# 5 0.000000 0.000000 0.000000 0.000000 0.037911 0.000000
# 6 0.000000 0.000000 0.000000 0.000000 0.000000 0.071626
#
#
# Mechanical properties :
#
#
# Convention : Reuss Voigt Hill
#
# Bulk Modulus (GPa) = 85.94839 87.02054 86.48447
# Shear Modulus (GPa) = 7.08279 29.72489 18.40384
#
# Velocity S-wave (km/s) = 1.83530 3.75980 2.95841
# Velocity P-wave (km/s) = 6.73536 7.76093 7.26626
#
# Compressibility (1/GPa) = 0.01163489
#
# Stress axis : x y z
#
# Youngs Moduli (GPa) = 111.66580 153.70146 130.19681
#
# Poissons Ratio (x) = 0.22161 0.34346
# Poissons Ratio (y) = 0.16100 0.21792
# Poissons Ratio (z) = 0.29458 0.25726
#
# Static dielectric constant tensor:
#      x y z
#    x 1.831260 0.000000 0.000000 
#    y 0.000000 1.760800 0.000000 
#    z 0.000000 0.000000 1.744950 
# 
# From -- ./inp_files/22009.got.cif
#   From: 2010.05.17/outbox.cif.g08.bks.cpg/sg65_12_cif.got.tgz:22009.got - 2010.06.03 17:01:31.
