data_PCOD9492643
_publ_section_title
;
Structure prediction by ZEFSAII (Michael W. Deem and Ramdas Pophale) SiO2 
 PCOD9492643
Probable space group: C M M M
;
_chemical_formula_sum "Si O2"
_cell_formula_units_Z 96
_cell_length_a 24.871012
_cell_length_b 22.709772
_cell_length_c 8.379310
_cell_angle_alpha 90.000000
_cell_angle_beta 90.000000
_cell_angle_gamma 90.000000
_cell_volume 4732.760078
_symmetry_space_group_name_H-M "C M M M"
_symmetry_group_IT_number 65
_symmetry_cell_setting 'orthorhombic'
loop_
_space_group_symop_operation_xyz
x,y,z
-x,-y,z
x,-y,-z
-x,y,-z
-x,-y,-z
x,y,-z
-x,y,z
x,-y,z
1/2+x,1/2+y,z
1/2-x,1/2-y,z
1/2+x,1/2-y,-z
1/2-x,1/2+y,-z
1/2-x,1/2-y,-z
1/2+x,1/2+y,-z
1/2-x,1/2+y,z
1/2+x,1/2-y,z
loop_
_atom_site_type_symbol
_atom_site_label
_atom_site_fract_x
_atom_site_fract_y
_atom_site_fract_z
Si Si1 0.500000 0.314447 0.181326
Si Si2 0.685042 0.700809 0.814884
Si Si3 0.270249 0.500000 0.189903
Si Si4 0.500000 0.174846 0.179940
Si Si5 0.880582 0.316428 0.190984
Si Si6 0.720989 0.123222 0.311264
Si Si7 0.398491 0.500000 0.188937
Si Si8 0.900633 0.122703 0.317141
O O1 0.500000 0.245149 0.165016
O O2 0.551210 0.333970 0.279640
O O3 0.500000 0.339527 0.000000
O O4 0.648733 0.755451 0.750763
O O5 0.739753 0.678231 0.734231
O O6 0.647161 0.643656 0.796699
O O7 0.696280 0.712824 0.000000
O O8 0.245765 0.560472 0.259544
O O9 0.334239 0.500000 0.219788
O O10 0.261862 0.500000 0.000000
O O11 0.559892 0.165489 0.253654
O O12 0.500000 0.148097 0.000000
O O13 0.835888 0.365227 0.226658
O O14 0.887726 0.308056 0.000000
O O15 0.713881 0.123509 0.500000
O O16 0.420170 0.558360 0.270249
O O17 0.408091 0.500000 0.000000
O O18 0.882524 0.125190 0.500000
#
# Coordination Sequence:
#
# PCOD9492643 Si02
#       8
#     8  16   8   8  16  16   8  16
#     4  11  21  40  62  83 114 160 210 249 290 350
#     4  11  21  37  61  88 120 162 205 244 290 352
#     4  11  23  41  66  87 113 156 204 242 289 359
#     4   9  18  37  64  89 114 155 203 245 283 342
#     4  10  21  39  63  90 121 159 204 245 288 349
#     4  12  25  39  59  91 128 158 193 245 305 356
#     4  11  23  40  62  83 109 157 209 248 292 356
#     4  12  24  37  57  87 120 154 197 255 308 350
#
# _framework density 20.284147000000001
#
# number of rings (size 3 to 8) (size 9 to 14) (size 15 to 20)
#    0.000    1.000    3.333    4.750    0.000    4.333 
#    0.000    2.083    0.000    0.500    0.000    3.500 
#    0.000    0.000    0.000    0.000    0.000    0.000 
#
# Total GULP energy -267943.249071 kJ/mol
# GULP energy per Si atom -5582.151022 kJ/mol
# Density = 2.023798 g / cm^3
# Si number density = 20.284147 Si / 1000 Ang^3
#
#
#
# Elastic Constant Matrix: (Units=GPa)
#
#
# Indices 1 2 3 4 5 6 
#
# 1 112.9347 -0.0605 6.7708 0.0000 0.0000 0.0000
# 2 -0.0605 36.9775 3.7261 0.0000 0.0000 0.0000
# 3 6.7708 3.7261 38.1355 0.0000 0.0000 0.0000
# 4 0.0000 0.0000 0.0000 693.8159 0.0000 0.0000
# 5 0.0000 0.0000 0.0000 0.0000 -5.6325 0.0000
# 6 0.0000 0.0000 0.0000 0.0000 0.0000 -23.6441
#
#
#
# Elastic Compliance Matrix: (Units=1/GPa)
#
#
# Indices 1 2 3 4 5 6 
#
# 1 0.008951 0.000177 -0.001606 0.000000 0.000000 0.000000
# 2 0.000177 0.027316 -0.002700 0.000000 0.000000 0.000000
# 3 -0.001606 -0.002700 0.026771 0.000000 0.000000 0.000000
# 4 0.000000 0.000000 0.000000 0.001441 0.000000 0.000000
# 5 0.000000 0.000000 0.000000 0.000000 -0.177540 0.000000
# 6 0.000000 0.000000 0.000000 0.000000 0.000000 -0.042294
#
#
# Mechanical properties :
#
#
# Convention : Reuss Voigt Hill
#
# Bulk Modulus (GPa) = 18.25556 23.21339 20.73448
# Shear Modulus (GPa) = -38.80928 144.74862 52.96967
#
# Velocity S-wave (km/s) = -4.37885 8.45668 5.11571
# Velocity P-wave (km/s) = 4.06772 10.33551 6.71850
#
# Compressibility (1/GPa) = 0.05477782
#
# Stress axis : x y z
#
# Youngs Moduli (GPa) = 111.71832 36.60881 37.35341
#
# Poissons Ratio (x) = -0.00646 0.06001
# Poissons Ratio (y) = -0.01972 0.10086
# Poissons Ratio (z) = 0.17947 0.09885
#
# Static dielectric constant tensor:
#      x y z
#    x 1.997420 0.000000 0.000000 
#    y 0.000000 1.741070 0.000000 
#    z 0.000000 0.000000 1.703240 
# 
# From -- ./inp_files/14452.got.cif
#   From: 2010.05.17/outbox.cif.g08.bks.cpg/sg65_8_cif.got.tgz:14452.got - 2010.06.03 17:01:31.
