data_PCOD9492339
_publ_section_title
;
Structure prediction by ZEFSAII (Michael W. Deem and Ramdas Pophale) SiO2 
 PCOD9492339
Probable space group: C M M M
;
_chemical_formula_sum "Si O2"
_cell_formula_units_Z 56
_cell_length_a 7.291112
_cell_length_b 28.614574
_cell_length_c 13.462024
_cell_angle_alpha 90.000000
_cell_angle_beta 90.000000
_cell_angle_gamma 90.000000
_cell_volume 2808.609851
_symmetry_space_group_name_H-M "C M M M"
_symmetry_group_IT_number 65
_symmetry_cell_setting 'orthorhombic'
loop_
_space_group_symop_operation_xyz
x,y,z
-x,-y,z
x,-y,-z
-x,y,-z
-x,-y,-z
x,y,-z
-x,y,z
x,-y,z
1/2+x,1/2+y,z
1/2-x,1/2-y,z
1/2+x,1/2-y,-z
1/2-x,1/2+y,-z
1/2-x,1/2-y,-z
1/2+x,1/2+y,-z
1/2-x,1/2+y,z
1/2+x,1/2-y,z
loop_
_atom_site_type_symbol
_atom_site_label
_atom_site_fract_x
_atom_site_fract_y
_atom_site_fract_z
Si Si1 0.279186 0.870173 0.820839
Si Si2 0.782618 0.695029 0.000000
Si Si3 0.206391 0.500000 0.380079
Si Si4 0.000000 0.947530 0.118634
Si Si5 0.777035 0.396280 0.612018
O O1 0.500000 0.874988 0.826592
O O2 0.177495 0.917504 0.851977
O O3 0.230636 0.863146 0.704526
O O4 0.217859 0.830942 0.899758
O O5 0.750000 0.750000 0.000000
O O6 0.000000 0.688513 0.000000
O O7 0.191248 0.500000 0.500000
O O8 0.288026 0.448960 0.360639
O O9 0.000000 0.500000 0.336482
O O10 0.000000 0.000000 0.160196
O O11 0.000000 0.950534 0.000000
O O12 0.716388 0.384340 0.500000
O O13 0.000000 0.398866 0.607969
#
# Coordination Sequence:
#
# PCOD9492339 Si02
#       5
#    16   8   8   8  16
#     4  10  21  38  58  84 114 145 196 236 275 342
#     4  10  22  38  62  87 105 138 186 242 301 342
#     4   7  10  18  36  66  97 134 179 210 245 298
#     4  11  24  38  55  81 121 163 190 227 289 337
#     4   8  14  26  48  76 108 145 183 225 271 320
#
# _framework density 19.938690000000001
#
# number of rings (size 3 to 8) (size 9 to 14) (size 15 to 20)
#    0.000    2.857    1.429    1.714    4.000    0.571 
#    0.000    2.143    0.000    1.714    0.000    0.000 
#    0.000    0.000    0.000    0.000    0.000    0.000 
#
# Total GULP energy -155969.775643 kJ/mol
# GULP energy per Si atom -5570.349130 kJ/mol
# Density = 1.989331 g / cm^3
# Si number density = 19.938690 Si / 1000 Ang^3
#
#
#
# Elastic Constant Matrix: (Units=GPa)
#
#
# Indices 1 2 3 4 5 6 
#
# 1 84.2848 15.1820 15.8692 0.0000 0.0000 0.0000
# 2 15.1820 115.1605 84.2447 0.0000 0.0000 0.0000
# 3 15.8692 84.2447 199.4390 0.0000 0.0000 0.0000
# 4 0.0000 0.0000 0.0000 15.2416 0.0000 0.0000
# 5 0.0000 0.0000 0.0000 0.0000 -6.6816 0.0000
# 6 0.0000 0.0000 0.0000 0.0000 0.0000 8.3337
#
#
#
# Elastic Compliance Matrix: (Units=1/GPa)
#
#
# Indices 1 2 3 4 5 6 
#
# 1 0.012177 -0.001298 -0.000421 0.000000 0.000000 0.000000
# 2 -0.001298 0.012705 -0.005263 0.000000 0.000000 0.000000
# 3 -0.000421 -0.005263 0.007271 0.000000 0.000000 0.000000
# 4 0.000000 0.000000 0.000000 0.065610 0.000000 0.000000
# 5 0.000000 0.000000 0.000000 0.000000 -0.149665 0.000000
# 6 0.000000 0.000000 0.000000 0.000000 0.000000 0.119995
#
#
# Mechanical properties :
#
#
# Convention : Reuss Voigt Hill
#
# Bulk Modulus (GPa) = 54.97616 69.94180 62.45898
# Shear Modulus (GPa) = 56.74053 22.28462 39.51258
#
# Velocity S-wave (km/s) = 5.34034 3.34676 4.45646
# Velocity P-wave (km/s) = 8.10297 7.07736 7.60747
#
# Compressibility (1/GPa) = 0.01818970
#
# Stress axis : x y z
#
# Youngs Moduli (GPa) = 82.11867 78.70890 137.53475
#
# Poissons Ratio (x) = 0.10213 0.05789
# Poissons Ratio (y) = 0.10655 0.72391
# Poissons Ratio (z) = 0.03456 0.41428
#
# Static dielectric constant tensor:
#      x y z
#    x 1.947940 0.000000 0.000000 
#    y 0.000000 1.682940 0.000000 
#    z 0.000000 0.000000 1.763180 
# 
# From -- ./inp_files/36248.got.cif
#   From: 2010.05.17/outbox.cif.g08.bks.cpg/sg65_19_cif.got.tgz:36248.got - 2010.06.03 17:01:31.
