data_PCOD9492436
_publ_section_title
;
Structure prediction by ZEFSAII (Michael W. Deem and Ramdas Pophale) SiO2 
 PCOD9492436
Probable space group: C M M M
;
_chemical_formula_sum "Si O2"
_cell_formula_units_Z 80
_cell_length_a 17.788016
_cell_length_b 23.570148
_cell_length_c 10.332150
_cell_angle_alpha 90.000000
_cell_angle_beta 90.000000
_cell_angle_gamma 90.000000
_cell_volume 4331.920956
_symmetry_space_group_name_H-M "C M M M"
_symmetry_group_IT_number 65
_symmetry_cell_setting 'orthorhombic'
loop_
_space_group_symop_operation_xyz
x,y,z
-x,-y,z
x,-y,-z
-x,y,-z
-x,-y,-z
x,y,-z
-x,y,z
x,-y,z
1/2+x,1/2+y,z
1/2-x,1/2-y,z
1/2+x,1/2-y,-z
1/2-x,1/2+y,-z
1/2-x,1/2-y,-z
1/2+x,1/2+y,-z
1/2-x,1/2+y,z
1/2+x,1/2-y,z
loop_
_atom_site_type_symbol
_atom_site_label
_atom_site_fract_x
_atom_site_fract_y
_atom_site_fract_z
Si Si1 0.589605 0.140050 0.255523
Si Si2 0.909549 0.563160 0.500000
Si Si3 0.708500 0.064352 0.851433
Si Si4 0.000000 0.063527 0.844553
Si Si5 0.159958 0.758176 0.652236
Si Si6 0.148238 0.135654 0.841753
O O1 0.500000 0.141102 0.234485
O O2 0.609652 0.100057 0.376954
O O3 0.636242 0.105472 0.149702
O O4 0.619937 0.202023 0.290972
O O5 0.878032 0.500000 0.500000
O O6 0.000000 0.558564 0.500000
O O7 0.778393 0.100115 0.796668
O O8 0.696311 0.000000 0.799267
O O9 0.730533 0.056772 0.000000
O O10 0.924966 0.097990 0.814100
O O11 0.000000 0.000000 0.789656
O O12 0.000000 0.058661 0.000000
O O13 0.137663 0.767074 0.500000
O O14 0.250000 0.750000 0.652647
O O15 0.143299 0.808651 0.752912
O O16 0.151800 0.147164 0.000000
#
# Coordination Sequence:
#
# PCOD9492436 Si02
#       6
#    16   8  16   8  16  16
#     4  11  22  37  56  83 116 154 195 236 285 349
#     4   9  18  34  55  78 108 147 194 243 282 331
#     4  10  21  38  60  86 117 152 192 243 302 355
#     4   9  18  36  63  93 121 151 195 250 300 353
#     4  11  23  40  60  83 119 158 198 244 294 352
#     4  10  21  38  62  90 117 154 200 245 296 355
#
# _framework density 18.467559000000001
#
# number of rings (size 3 to 8) (size 9 to 14) (size 15 to 20)
#    0.000    1.800    3.000    1.200    1.400    5.200 
#    0.000    1.000    0.000    2.400    0.000    0.000 
#    0.000    0.000    0.000    0.000    0.000    0.000 
#
# Total GULP energy -222724.388787 kJ/mol
# GULP energy per Si atom -5568.109720 kJ/mol
# Density = 1.842553 g / cm^3
# Si number density = 18.467559 Si / 1000 Ang^3
#
#
#
# Elastic Constant Matrix: (Units=GPa)
#
#
# Indices 1 2 3 4 5 6 
#
# 1 110.0010 77.4015 13.3415 0.0000 0.0000 0.0000
# 2 77.4015 206.5603 61.9323 0.0000 0.0000 0.0000
# 3 13.3415 61.9323 55.2006 0.0000 0.0000 0.0000
# 4 0.0000 0.0000 0.0000 -5.8719 0.0000 0.0000
# 5 0.0000 0.0000 0.0000 0.0000 23.2015 0.0000
# 6 0.0000 0.0000 0.0000 0.0000 0.0000 24.2327
#
#
#
# Elastic Compliance Matrix: (Units=1/GPa)
#
#
# Indices 1 2 3 4 5 6 
#
# 1 0.012765 -0.005814 0.003438 0.000000 0.000000 0.000000
# 2 -0.005814 0.009943 -0.009751 0.000000 0.000000 0.000000
# 3 0.003438 -0.009751 0.028225 0.000000 0.000000 0.000000
# 4 0.000000 0.000000 0.000000 -0.170303 0.000000 0.000000
# 5 0.000000 0.000000 0.000000 0.000000 0.043101 0.000000
# 6 0.000000 0.000000 0.000000 0.000000 0.000000 0.041266
#
#
# Mechanical properties :
#
#
# Convention : Reuss Voigt Hill
#
# Bulk Modulus (GPa) = 37.48253 75.23474 56.35863
# Shear Modulus (GPa) = -2693.80322 22.91824 -1335.44249
#
# Velocity S-wave (km/s) = -38.23394 3.52660 -26.92023
# Velocity P-wave (km/s) = 43.91779 7.57693 30.58890
#
# Compressibility (1/GPa) = 0.02667909
#
# Stress axis : x y z
#
# Youngs Moduli (GPa) = 78.34038 100.57020 35.42997
#
# Poissons Ratio (x) = 0.58471 -0.12180
# Poissons Ratio (y) = 0.45547 0.34547
# Poissons Ratio (z) = -0.26932 0.98063
#
# Static dielectric constant tensor:
#      x y z
#    x 1.628920 0.000000 0.000000 
#    y 0.000000 1.657770 0.000000 
#    z 0.000000 0.000000 1.808000 
# 
# From -- ./inp_files/26703.got.cif
#   From: 2010.05.17/outbox.cif.g08.bks.cpg/sg65_14_cif.got.tgz:26703.got - 2010.06.03 17:01:31.
