data_PCOD9492728
_publ_section_title
;
Structure prediction by ZEFSAII (Michael W. Deem and Ramdas Pophale) SiO2 
 PCOD9492728
Probable space group: C M M M
;
_chemical_formula_sum "Si O2"
_cell_formula_units_Z 112
_cell_length_a 15.685076
_cell_length_b 23.076025
_cell_length_c 15.672702
_cell_angle_alpha 90.000000
_cell_angle_beta 90.000000
_cell_angle_gamma 90.000000
_cell_volume 5672.722043
_symmetry_space_group_name_H-M "C M M M"
_symmetry_group_IT_number 65
_symmetry_cell_setting 'orthorhombic'
loop_
_space_group_symop_operation_xyz
x,y,z
-x,-y,z
x,-y,-z
-x,y,-z
-x,-y,-z
x,y,-z
-x,y,z
x,-y,z
1/2+x,1/2+y,z
1/2-x,1/2-y,z
1/2+x,1/2-y,-z
1/2-x,1/2+y,-z
1/2-x,1/2-y,-z
1/2+x,1/2+y,-z
1/2-x,1/2+y,z
1/2+x,1/2-y,z
loop_
_atom_site_type_symbol
_atom_site_label
_atom_site_fract_x
_atom_site_fract_y
_atom_site_fract_z
Si Si1 0.650897 0.754911 0.268699
Si Si2 0.828043 0.435339 0.863184
Si Si3 0.267930 0.933204 0.667303
Si Si4 0.369349 0.432102 0.093731
Si Si5 0.600619 0.187376 0.905049
Si Si6 0.094154 0.123471 0.726303
Si Si7 0.904628 0.650957 0.596041
O O1 0.750000 0.750000 0.292133
O O2 0.644805 0.779555 0.172707
O O3 0.608930 0.692133 0.275024
O O4 0.607778 0.800042 0.332855
O O5 0.861136 0.500000 0.882687
O O6 0.810811 0.431151 0.761712
O O7 0.733566 0.429813 0.902805
O O8 0.883190 0.381240 0.892729
O O9 0.173486 0.906723 0.678660
O O10 0.330080 0.895540 0.609218
O O11 0.262421 0.000000 0.641190
O O12 0.392561 0.500000 0.103645
O O13 0.401175 0.397252 0.175111
O O14 0.397550 0.412196 0.000000
O O15 0.500000 0.198957 0.899241
O O16 0.630695 0.203990 0.000000
O O17 0.000000 0.108838 0.692802
O O18 0.899012 0.675023 0.500000
O O19 0.000000 0.625485 0.606280
#
# Coordination Sequence:
#
# PCOD9492728 Si02
#       7
#    16  16  16  16  16  16  16
#     4  12  23  43  66  89 126 169 215 266 316 374
#     4   9  17  32  55  79 112 163 213 254 307 375
#     4  10  21  40  64  94 128 164 205 254 316 381
#     4   9  18  33  53  81 119 161 213 275 324 367
#     4  11  23  36  53  83 124 166 210 261 311 364
#     4  11  22  37  60  89 124 172 220 261 312 374
#     4  11  24  44  72 102 130 160 200 259 324 384
#
# _framework density 19.743608999999999
#
# number of rings (size 3 to 8) (size 9 to 14) (size 15 to 20)
#    0.000    1.571    2.857    3.857    0.000    4.286 
#    0.000    3.571    0.000    0.429    0.000    1.000 
#    0.000    0.000    0.000    0.000    0.000    0.000 
#
# Total GULP energy -312827.967668 kJ/mol
# GULP energy per Si atom -5586.213708 kJ/mol
# Density = 1.969867 g / cm^3
# Si number density = 19.743609 Si / 1000 Ang^3
#
#
#
# Elastic Constant Matrix: (Units=GPa)
#
#
# Indices 1 2 3 4 5 6 
#
# 1 91.9462 27.7100 31.5391 0.0000 0.0000 0.0000
# 2 27.7100 92.6010 25.5375 0.0000 0.0000 0.0000
# 3 31.5391 25.5375 75.2162 0.0000 0.0000 0.0000
# 4 0.0000 0.0000 0.0000 2.3052 0.0000 0.0000
# 5 0.0000 0.0000 0.0000 0.0000 13.9836 0.0000
# 6 0.0000 0.0000 0.0000 0.0000 0.0000 -37.5979
#
#
#
# Elastic Compliance Matrix: (Units=1/GPa)
#
#
# Indices 1 2 3 4 5 6 
#
# 1 0.013284 -0.002691 -0.004657 0.000000 0.000000 0.000000
# 2 -0.002691 0.012460 -0.003102 0.000000 0.000000 0.000000
# 3 -0.004657 -0.003102 0.016301 0.000000 0.000000 0.000000
# 4 0.000000 0.000000 0.000000 0.433798 0.000000 0.000000
# 5 0.000000 0.000000 0.000000 0.000000 0.071513 0.000000
# 6 0.000000 0.000000 0.000000 0.000000 0.000000 -0.026597
#
#
# Mechanical properties :
#
#
# Convention : Reuss Voigt Hill
#
# Bulk Modulus (GPa) = 47.29118 47.70408 47.49763
# Shear Modulus (GPa) = 9.11236 7.40330 8.25783
#
# Velocity S-wave (km/s) = 2.15067 1.93852 2.04734
# Velocity P-wave (km/s) = 5.49289 5.40599 5.44961
#
# Compressibility (1/GPa) = 0.02114559
#
# Stress axis : x y z
#
# Youngs Moduli (GPa) = 75.27736 80.25856 61.34683
#
# Poissons Ratio (x) = 0.21597 0.28567
# Poissons Ratio (y) = 0.20257 0.19030
# Poissons Ratio (z) = 0.35054 0.24896
#
# Static dielectric constant tensor:
#      x y z
#    x 1.699470 0.000000 0.000000 
#    y 0.000000 1.675670 0.000000 
#    z 0.000000 0.000000 1.691690 
# 
# From -- ./inp_files/40863.got.cif
#   From: 2010.05.17/outbox.cif.g08.bks.cpg/sg65_21_cif.got.tgz:40863.got - 2010.06.03 17:01:31.
