data_PCOD9492792
_publ_section_title
;
Structure prediction by ZEFSAII (Michael W. Deem and Ramdas Pophale) SiO2 
 PCOD9492792
Probable space group: C M M M
;
_chemical_formula_sum "Si O2"
_cell_formula_units_Z 58
_cell_length_a 25.833533
_cell_length_b 10.004244
_cell_length_c 12.803097
_cell_angle_alpha 90.000000
_cell_angle_beta 90.000000
_cell_angle_gamma 90.000000
_cell_volume 3308.895988
_symmetry_space_group_name_H-M "C M M M"
_symmetry_group_IT_number 65
_symmetry_cell_setting 'orthorhombic'
loop_
_space_group_symop_operation_xyz
x,y,z
-x,-y,z
x,-y,-z
-x,y,-z
-x,-y,-z
x,y,-z
-x,y,z
x,-y,z
1/2+x,1/2+y,z
1/2-x,1/2-y,z
1/2+x,1/2-y,-z
1/2-x,1/2+y,-z
1/2-x,1/2-y,-z
1/2+x,1/2+y,-z
1/2-x,1/2+y,z
1/2+x,1/2-y,z
loop_
_atom_site_type_symbol
_atom_site_label
_atom_site_fract_x
_atom_site_fract_y
_atom_site_fract_z
Si Si1 0.442820 0.000000 0.783413
Si Si2 0.126969 0.749995 0.197513
Si Si3 0.500000 0.000000 0.000000
Si Si4 0.559075 0.500000 0.124819
Si Si5 0.700543 0.655022 0.381790
Si Si6 0.197307 0.339266 0.000000
O O1 0.409005 0.129934 0.762970
O O2 0.500000 0.000000 0.732609
O O3 0.455893 0.000000 0.907478
O O4 0.161162 0.804889 0.291973
O O5 0.163569 0.699443 0.102534
O O6 0.089979 0.868657 0.158417
O O7 0.500000 0.500000 0.164892
O O8 0.556659 0.500000 0.000000
O O9 0.679366 0.669996 0.500000
O O10 0.715747 0.500000 0.368759
O O11 0.750000 0.750000 0.373083
O O12 0.250000 0.250000 0.000000
O O13 0.207795 0.500000 0.000000
#
# Coordination Sequence:
#
# PCOD9492792 Si02
#       6
#     8  16   2   8  16   8
#     4  10  22  36  63  85 119 158 203 247 291 353
#     4  12  22  40  61  90 124 159 199 250 308 361
#     4   8  20  36  56  86 122 156 204 242 288 350
#     4  11  24  36  59  91 126 158 204 251 294 360
#     4  10  23  42  65  91 121 160 206 253 303 365
#     4  12  27  39  57  87 127 163 196 242 310 370
#
# _framework density 17.528504999999999
#
# number of rings (size 3 to 8) (size 9 to 14) (size 15 to 20)
#    0.414    0.690    4.138    2.483    3.862    2.207 
#    0.000    0.000    0.000    4.966    0.000    0.000 
#    0.000    0.000    0.000    0.000    0.000    0.000 
#
# Total GULP energy -161624.054582 kJ/mol
# GULP energy per Si atom -5573.243261 kJ/mol
# Density = 1.748861 g / cm^3
# Si number density = 17.528505 Si / 1000 Ang^3
#
#
#
# Elastic Constant Matrix: (Units=GPa)
#
#
# Indices 1 2 3 4 5 6 
#
# 1 127.3263 84.4336 55.7430 0.0000 0.0000 0.0000
# 2 84.4336 173.1322 51.2770 0.0000 0.0000 0.0000
# 3 55.7430 51.2770 91.9799 0.0000 0.0000 0.0000
# 4 0.0000 0.0000 0.0000 -17.5025 0.0000 0.0000
# 5 0.0000 0.0000 0.0000 0.0000 12.7028 0.0000
# 6 0.0000 0.0000 0.0000 0.0000 0.0000 34.1147
#
#
#
# Elastic Compliance Matrix: (Units=1/GPa)
#
#
# Indices 1 2 3 4 5 6 
#
# 1 0.013541 -0.004999 -0.005420 0.000000 0.000000 0.000000
# 2 -0.004999 0.008763 -0.001856 0.000000 0.000000 0.000000
# 3 -0.005420 -0.001856 0.015191 0.000000 0.000000 0.000000
# 4 0.000000 0.000000 0.000000 -0.057135 0.000000 0.000000
# 5 0.000000 0.000000 0.000000 0.000000 0.078723 0.000000
# 6 0.000000 0.000000 0.000000 0.000000 0.000000 0.029313
#
#
# Mechanical properties :
#
#
# Convention : Reuss Voigt Hill
#
# Bulk Modulus (GPa) = 77.23883 86.14951 81.69417
# Shear Modulus (GPa) = 42.63940 19.26197 30.95069
#
# Velocity S-wave (km/s) = 4.93746 3.31855 4.20662
# Velocity P-wave (km/s) = 8.75586 7.99617 8.38462
#
# Compressibility (1/GPa) = 0.01294686
#
# Stress axis : x y z
#
# Youngs Moduli (GPa) = 73.84747 114.11064 65.82717
#
# Poissons Ratio (x) = 0.57040 0.35678
# Poissons Ratio (y) = 0.36914 0.12218
# Poissons Ratio (z) = 0.40025 0.21180
#
# Static dielectric constant tensor:
#      x y z
#    x 1.597090 0.000000 0.000000 
#    y 0.000000 1.597100 0.000000 
#    z 0.000000 0.000000 1.576950 
# 
# From -- ./inp_files/31830.got.cif
#   From: 2010.05.17/outbox.cif.g08.bks.cpg/sg65_16_cif.got.tgz:31830.got - 2010.06.03 17:01:31.
