data_PCOD9492167
_publ_section_title
;
Structure prediction by ZEFSAII (Michael W. Deem and Ramdas Pophale) SiO2 
 PCOD9492167
Probable space group: C M M M
;
_chemical_formula_sum "Si O2"
_cell_formula_units_Z 72
_cell_length_a 13.969823
_cell_length_b 27.639996
_cell_length_c 8.675358
_cell_angle_alpha 90.000000
_cell_angle_beta 90.000000
_cell_angle_gamma 90.000000
_cell_volume 3349.779998
_symmetry_space_group_name_H-M "C M M M"
_symmetry_group_IT_number 65
_symmetry_cell_setting 'orthorhombic'
loop_
_space_group_symop_operation_xyz
x,y,z
-x,-y,z
x,-y,-z
-x,y,-z
-x,-y,-z
x,y,-z
-x,y,z
x,-y,z
1/2+x,1/2+y,z
1/2-x,1/2-y,z
1/2+x,1/2-y,-z
1/2-x,1/2+y,-z
1/2-x,1/2-y,-z
1/2+x,1/2+y,-z
1/2-x,1/2+y,z
1/2+x,1/2-y,z
loop_
_atom_site_type_symbol
_atom_site_label
_atom_site_fract_x
_atom_site_fract_y
_atom_site_fract_z
Si Si1 0.265524 0.803419 0.824080
Si Si2 0.113576 0.147421 0.332425
Si Si3 0.116706 0.053888 0.825616
Si Si4 0.117025 0.500000 0.319405
Si Si5 0.612862 0.107760 0.686005
O O1 0.250000 0.750000 0.753548
O O2 0.159153 0.824496 0.807835
O O3 0.330480 0.845146 0.746824
O O4 0.297376 0.797807 0.000000
O O5 0.148526 0.164140 0.500000
O O6 0.142720 0.092123 0.303322
O O7 0.000000 0.150872 0.330822
O O8 0.000000 0.052878 0.828527
O O9 0.150446 0.000000 0.792201
O O10 0.146667 0.067370 0.000000
O O11 0.144967 0.500000 0.500000
O O12 0.144256 0.446359 0.255748
O O13 0.000000 0.500000 0.315633
O O14 0.620367 0.106935 0.500000
O O15 0.500000 0.113098 0.724508
#
# Coordination Sequence:
#
# PCOD9492167 Si02
#       5
#    16  16  16   8  16
#     4  11  25  42  58  80 114 156 201 246 293 352
#     4  10  21  37  58  83 110 144 190 241 289 339
#     4   8  14  27  49  76 107 143 179 217 266 324
#     4   7  12  28  57  91 122 149 180 225 289 360
#     4   9  18  36  64  94 122 153 190 238 298 360
#
# _framework density 21.493950000000002
#
# number of rings (size 3 to 8) (size 9 to 14) (size 15 to 20)
#    0.000    2.778    0.000    3.333    0.000    4.889 
#    2.000    7.222    0.000    2.000    0.000    0.000 
#    0.000    0.000    0.000    0.000    0.000    0.000 
#
# Total GULP energy -200509.406749 kJ/mol
# GULP energy per Si atom -5569.705743 kJ/mol
# Density = 2.144503 g / cm^3
# Si number density = 21.493950 Si / 1000 Ang^3
#
#
#
# Elastic Constant Matrix: (Units=GPa)
#
#
# Indices 1 2 3 4 5 6 
#
# 1 65.2313 46.8485 10.0675 0.0000 0.0000 0.0000
# 2 46.8485 172.0590 33.2827 0.0000 0.0000 0.0000
# 3 10.0675 33.2827 24.8737 0.0000 0.0000 0.0000
# 4 0.0000 0.0000 0.0000 29.0309 0.0000 0.0000
# 5 0.0000 0.0000 0.0000 0.0000 15.7667 0.0000
# 6 0.0000 0.0000 0.0000 0.0000 0.0000 26.0506
#
#
#
# Elastic Compliance Matrix: (Units=1/GPa)
#
#
# Indices 1 2 3 4 5 6 
#
# 1 0.019077 -0.004993 -0.001040 0.000000 0.000000 0.000000
# 2 -0.004993 0.009148 -0.010220 0.000000 0.000000 0.000000
# 3 -0.001040 -0.010220 0.054300 0.000000 0.000000 0.000000
# 4 0.000000 0.000000 0.000000 0.034446 0.000000 0.000000
# 5 0.000000 0.000000 0.000000 0.000000 0.063425 0.000000
# 6 0.000000 0.000000 0.000000 0.000000 0.000000 0.038387
#
#
# Mechanical properties :
#
#
# Convention : Reuss Voigt Hill
#
# Bulk Modulus (GPa) = 19.99298 49.17350 34.58324
# Shear Modulus (GPa) = 18.65936 25.63399 22.14667
#
# Velocity S-wave (km/s) = 2.94959 3.45717 3.21342
# Velocity P-wave (km/s) = 4.57405 6.23406 5.46743
#
# Compressibility (1/GPa) = 0.05001755
#
# Stress axis : x y z
#
# Youngs Moduli (GPa) = 52.42050 109.30797 18.41630
#
# Poissons Ratio (x) = 0.54577 0.01916
# Poissons Ratio (y) = 0.26173 0.18822
# Poissons Ratio (z) = 0.05453 1.11717
#
# Static dielectric constant tensor:
#      x y z
#    x 1.824320 0.000000 0.000000 
#    y 0.000000 1.855100 0.000000 
#    z 0.000000 0.000000 1.797740 
# 
# From -- ./inp_files/7284.got.cif
#   From: 2010.05.17/outbox.cif.g08.bks.cpg/sg65_4_cif.got.tgz:7284.got - 2010.06.03 17:01:31.
