data_PCOD9492971
_publ_section_title
;
Structure prediction by ZEFSAII (Michael W. Deem and Ramdas Pophale) SiO2 
 PCOD9492971
Probable space group: C M M M
;
_chemical_formula_sum "Si O2"
_cell_formula_units_Z 56
_cell_length_a 21.511201
_cell_length_b 8.541653
_cell_length_c 15.256003
_cell_angle_alpha 90.000000
_cell_angle_beta 90.000000
_cell_angle_gamma 90.000000
_cell_volume 2803.156520
_symmetry_space_group_name_H-M "C M M M"
_symmetry_group_IT_number 65
_symmetry_cell_setting 'orthorhombic'
loop_
_space_group_symop_operation_xyz
x,y,z
-x,-y,z
x,-y,-z
-x,y,-z
-x,-y,-z
x,y,-z
-x,y,z
x,-y,z
1/2+x,1/2+y,z
1/2-x,1/2-y,z
1/2+x,1/2-y,-z
1/2-x,1/2+y,-z
1/2-x,1/2-y,-z
1/2+x,1/2+y,-z
1/2-x,1/2+y,z
1/2+x,1/2-y,z
loop_
_atom_site_type_symbol
_atom_site_label
_atom_site_fract_x
_atom_site_fract_y
_atom_site_fract_z
Si Si1 0.374998 0.312869 0.177267
Si Si2 0.819241 0.189136 0.638792
Si Si3 0.000000 0.313395 0.104587
Si Si4 0.926043 0.190192 0.500000
Si Si5 0.182044 0.313625 0.000000
O O1 0.378578 0.500000 0.181719
O O2 0.336282 0.260656 0.262161
O O3 0.442795 0.243639 0.162987
O O4 0.345182 0.256753 0.087749
O O5 0.750000 0.250000 0.613687
O O6 0.880078 0.235549 0.580989
O O7 0.815819 0.000000 0.633921
O O8 0.000000 0.500000 0.098064
O O9 0.000000 0.257475 0.000000
O O10 0.000000 0.242312 0.500000
O O11 0.929593 0.000000 0.500000
O O12 0.250000 0.250000 0.000000
O O13 0.175273 0.500000 0.000000
#
# Coordination Sequence:
#
# PCOD9492971 Si02
#       5
#    16  16   8   8   8
#     4  11  23  38  60  89 119 157 207 253 302 363
#     4  10  22  39  64  94 122 161 203 251 308 365
#     4  11  23  39  59  86 120 163 205 250 312 364
#     4   9  19  38  65  93 124 159 202 250 301 364
#     4  12  24  39  58  83 118 160 204 250 306 362
#
# _framework density 19.977478999999999
#
# number of rings (size 3 to 8) (size 9 to 14) (size 15 to 20)
#    0.000    1.429    1.429    3.857    2.000    5.143 
#    0.000    0.000    0.000    0.857    0.000    0.000 
#    0.000    0.000    0.000    0.000    0.000    0.000 
#
# Total GULP energy -156012.616170 kJ/mol
# GULP energy per Si atom -5571.879149 kJ/mol
# Density = 1.993201 g / cm^3
# Si number density = 19.977479 Si / 1000 Ang^3
#
#
#
# Elastic Constant Matrix: (Units=GPa)
#
#
# Indices 1 2 3 4 5 6 
#
# 1 206.6029 17.8111 66.4341 0.0000 0.0000 0.0000
# 2 17.8111 32.6834 13.3999 0.0000 0.0000 0.0000
# 3 66.4341 13.3999 122.6725 0.0000 0.0000 0.0000
# 4 0.0000 0.0000 0.0000 -112.0867 0.0000 0.0000
# 5 0.0000 0.0000 0.0000 0.0000 42.7487 0.0000
# 6 0.0000 0.0000 0.0000 0.0000 0.0000 36.1622
#
#
#
# Elastic Compliance Matrix: (Units=1/GPa)
#
#
# Indices 1 2 3 4 5 6 
#
# 1 0.005986 -0.002024 -0.003021 0.000000 0.000000 0.000000
# 2 -0.002024 0.032715 -0.002478 0.000000 0.000000 0.000000
# 3 -0.003021 -0.002478 0.010058 0.000000 0.000000 0.000000
# 4 0.000000 0.000000 0.000000 -0.008922 0.000000 0.000000
# 5 0.000000 0.000000 0.000000 0.000000 0.023393 0.000000
# 6 0.000000 0.000000 0.000000 0.000000 0.000000 0.027653
#
#
# Mechanical properties :
#
#
# Convention : Reuss Voigt Hill
#
# Bulk Modulus (GPa) = 29.66000 61.91658 45.78829
# Shear Modulus (GPa) = 42.67448 10.98575 26.83011
#
# Velocity S-wave (km/s) = 4.62684 2.34755 3.66870
# Velocity P-wave (km/s) = 6.58958 6.19746 6.39652
#
# Compressibility (1/GPa) = 0.03371544
#
# Stress axis : x y z
#
# Youngs Moduli (GPa) = 167.05700 30.56685 99.42026
#
# Poissons Ratio (x) = 0.06186 0.30032
# Poissons Ratio (y) = 0.33807 0.24633
# Poissons Ratio (z) = 0.50463 0.07573
#
# Static dielectric constant tensor:
#      x y z
#    x 1.642470 0.000000 0.000000 
#    y 0.000000 1.678910 0.000000 
#    z 0.000000 0.000000 1.699350 
# 
# From -- ./inp_files/35539.got.cif
#   From: 2010.05.17/outbox.cif.g08.bks.cpg/sg65_18_cif.got.tgz:35539.got - 2010.06.03 17:01:31.
