data_PCOD9492567
_publ_section_title
;
Structure prediction by ZEFSAII (Michael W. Deem and Ramdas Pophale) SiO2 
 PCOD9492567
Probable space group: C M M M
;
_chemical_formula_sum "Si O2"
_cell_formula_units_Z 96
_cell_length_a 15.318563
_cell_length_b 14.534463
_cell_length_c 22.951941
_cell_angle_alpha 90.000000
_cell_angle_beta 90.000000
_cell_angle_gamma 90.000000
_cell_volume 5110.182808
_symmetry_space_group_name_H-M "C M M M"
_symmetry_group_IT_number 65
_symmetry_cell_setting 'orthorhombic'
loop_
_space_group_symop_operation_xyz
x,y,z
-x,-y,z
x,-y,-z
-x,y,-z
-x,-y,-z
x,y,-z
-x,y,z
x,-y,z
1/2+x,1/2+y,z
1/2-x,1/2-y,z
1/2+x,1/2-y,-z
1/2-x,1/2+y,-z
1/2-x,1/2-y,-z
1/2+x,1/2+y,-z
1/2-x,1/2+y,z
1/2+x,1/2-y,z
loop_
_atom_site_type_symbol
_atom_site_label
_atom_site_fract_x
_atom_site_fract_y
_atom_site_fract_z
Si Si1 0.859133 0.899565 0.650171
Si Si2 0.103636 0.252919 0.070047
Si Si3 0.295833 0.107833 0.566088
Si Si4 0.905381 0.300517 0.331699
Si Si5 0.247298 0.890141 0.886352
Si Si6 0.214872 0.602645 0.751932
O O1 0.801896 0.887870 0.591571
O O2 0.911500 0.807914 0.659807
O O3 0.791263 0.900063 0.704166
O O4 0.901163 0.000000 0.648669
O O5 0.161553 0.164626 0.090853
O O6 0.164656 0.339391 0.090074
O O7 0.000000 0.254408 0.088855
O O8 0.102937 0.252332 0.000000
O O9 0.302731 0.141286 0.500000
O O10 0.353772 0.160739 0.612799
O O11 0.320528 0.000000 0.567417
O O12 0.852619 0.324231 0.273341
O O13 0.000000 0.344062 0.328916
O O14 0.251170 0.879187 0.816355
O O15 0.245503 0.000000 0.899802
O O16 0.174409 0.500000 0.751838
#
# Coordination Sequence:
#
# PCOD9492567 Si02
#       6
#    16  16  16  16  16  16
#     4   9  19  35  53  74 102 138 181 223 265 319
#     4  10  23  40  59  90 127 158 195 246 298 349
#     4   9  18  34  56  77  98 133 182 230 274 328
#     4  11  22  32  50  79 110 144 175 218 284 342
#     4  10  21  38  63  89 116 158 205 245 293 353
#     4   9  19  36  56  78 105 137 180 230 275 327
#
# _framework density 18.786020000000001
#
# number of rings (size 3 to 8) (size 9 to 14) (size 15 to 20)
#    0.000    2.333    0.000    4.500    4.667    6.000 
#    0.000    4.167    0.000    3.000    0.000    3.500 
#    0.000    0.000    0.000    0.000    0.000    0.000 
#
# Total GULP energy -267414.109306 kJ/mol
# GULP energy per Si atom -5571.127277 kJ/mol
# Density = 1.874326 g / cm^3
# Si number density = 18.786020 Si / 1000 Ang^3
#
#
#
# Elastic Constant Matrix: (Units=GPa)
#
#
# Indices 1 2 3 4 5 6 
#
# 1 114.8461 49.7960 28.7185 0.0000 0.0000 0.0000
# 2 49.7960 108.4464 21.2989 0.0000 0.0000 0.0000
# 3 28.7185 21.2989 86.0007 0.0000 0.0000 0.0000
# 4 0.0000 0.0000 0.0000 23.4193 0.0000 0.0000
# 5 0.0000 0.0000 0.0000 0.0000 -6.7371 0.0000
# 6 0.0000 0.0000 0.0000 0.0000 0.0000 51.2744
#
#
#
# Elastic Compliance Matrix: (Units=1/GPa)
#
#
# Indices 1 2 3 4 5 6 
#
# 1 0.011416 -0.004723 -0.002642 0.000000 0.000000 0.000000
# 2 -0.004723 0.011647 -0.001307 0.000000 0.000000 0.000000
# 3 -0.002642 -0.001307 0.012834 0.000000 0.000000 0.000000
# 4 0.000000 0.000000 0.000000 0.042700 0.000000 0.000000
# 5 0.000000 0.000000 0.000000 0.000000 -0.148432 0.000000
# 6 0.000000 0.000000 0.000000 0.000000 0.000000 0.019503
#
#
# Mechanical properties :
#
#
# Convention : Reuss Voigt Hill
#
# Bulk Modulus (GPa) = 53.90504 56.54666 55.22585
# Shear Modulus (GPa) = -186.54260 27.55663 -79.49298
#
# Velocity S-wave (km/s) = -9.97568 3.83413 -6.51205
# Velocity P-wave (km/s) = 10.19456 7.05453 5.20397
#
# Compressibility (1/GPa) = 0.01855114
#
# Stress axis : x y z
#
# Youngs Moduli (GPa) = 87.59721 85.86235 77.91825
#
# Poissons Ratio (x) = 0.40552 0.20590
# Poissons Ratio (y) = 0.41372 0.10186
# Poissons Ratio (z) = 0.23147 0.11224
#
# Static dielectric constant tensor:
#      x y z
#    x 1.618370 0.000000 0.000000 
#    y 0.000000 1.692300 0.000000 
#    z 0.000000 0.000000 1.619460 
# 
# From -- ./inp_files/62601.got.cif
#   From: 2010.05.17/outbox.cif.g08.bks.cpg/sg65_32_cif.got.tgz:62601.got - 2010.06.03 17:01:31.
