data_PCOD9492775
_publ_section_title
;
Structure prediction by ZEFSAII (Michael W. Deem and Ramdas Pophale) SiO2 
 PCOD9492775
Probable space group: C M M M
;
_chemical_formula_sum "Si O2"
_cell_formula_units_Z 72
_cell_length_a 8.695180
_cell_length_b 29.070951
_cell_length_c 18.818826
_cell_angle_alpha 90.000000
_cell_angle_beta 90.000000
_cell_angle_gamma 90.000000
_cell_volume 4756.969235
_symmetry_space_group_name_H-M "C M M M"
_symmetry_group_IT_number 65
_symmetry_cell_setting 'orthorhombic'
loop_
_space_group_symop_operation_xyz
x,y,z
-x,-y,z
x,-y,-z
-x,y,-z
-x,-y,-z
x,y,-z
-x,y,z
x,-y,z
1/2+x,1/2+y,z
1/2-x,1/2-y,z
1/2+x,1/2-y,-z
1/2-x,1/2+y,-z
1/2-x,1/2-y,-z
1/2+x,1/2+y,-z
1/2-x,1/2+y,z
1/2+x,1/2-y,z
loop_
_atom_site_type_symbol
_atom_site_label
_atom_site_fract_x
_atom_site_fract_y
_atom_site_fract_z
Si Si1 0.684432 0.301947 0.077682
Si Si2 0.184147 0.143895 0.358042
Si Si3 0.314692 0.698765 0.500000
Si Si4 0.316729 0.801849 0.775219
Si Si5 0.314899 0.947409 0.416712
O O1 0.500000 0.300236 0.084437
O O2 0.750000 0.250000 0.075675
O O3 0.756161 0.321764 0.149536
O O4 0.721680 0.322833 0.000000
O O5 0.233224 0.171669 0.429059
O O6 0.259756 0.167479 0.289959
O O7 0.235681 0.091538 0.370205
O O8 0.000000 0.146760 0.352121
O O9 0.500000 0.700669 0.500000
O O10 0.250000 0.750000 0.500000
O O11 0.500000 0.798852 0.776630
O O12 0.250000 0.750000 0.767155
O O13 0.273667 0.940468 0.500000
O O14 0.500000 0.943194 0.411598
O O15 0.273912 0.000000 0.398016
#
# Coordination Sequence:
#
# PCOD9492775 Si02
#       5
#    16  16   8  16  16
#     4   9  16  27  44  65  89 119 154 191 230 272
#     4  11  21  34  48  67  92 121 159 196 236 279
#     4  10  22  34  45  62  85 119 158 195 229 268
#     4  11  21  32  46  66  93 127 161 195 235 275
#     4   9  18  33  52  72  92 116 149 190 238 287
#
# _framework density 15.135688
#
# number of rings (size 3 to 8) (size 9 to 14) (size 15 to 20)
#    0.000    2.000    1.111    6.000    0.000    5.333 
#    0.000    1.111    0.000    0.000    0.000    0.000 
#    0.000    0.889    0.000    9.333    0.000    4.000 
#
# Total GULP energy -200778.877852 kJ/mol
# GULP energy per Si atom -5577.191051 kJ/mol
# Density = 1.510124 g / cm^3
# Si number density = 15.135688 Si / 1000 Ang^3
#
#
#
# Elastic Constant Matrix: (Units=GPa)
#
#
# Indices 1 2 3 4 5 6 
#
# 1 76.3580 34.3139 57.9524 0.0000 0.0000 0.0000
# 2 34.3139 78.8128 57.1021 0.0000 0.0000 0.0000
# 3 57.9524 57.1021 152.8426 0.0000 0.0000 0.0000
# 4 0.0000 0.0000 0.0000 3.8070 0.0000 0.0000
# 5 0.0000 0.0000 0.0000 0.0000 -3.6201 0.0000
# 6 0.0000 0.0000 0.0000 0.0000 0.0000 23.1368
#
#
#
# Elastic Compliance Matrix: (Units=1/GPa)
#
#
# Indices 1 2 3 4 5 6 
#
# 1 0.019382 -0.004270 -0.005754 0.000000 0.000000 0.000000
# 2 -0.004270 0.018338 -0.005232 0.000000 0.000000 0.000000
# 3 -0.005754 -0.005232 0.010679 0.000000 0.000000 0.000000
# 4 0.000000 0.000000 0.000000 0.262675 0.000000 0.000000
# 5 0.000000 0.000000 0.000000 0.000000 -0.276235 0.000000
# 6 0.000000 0.000000 0.000000 0.000000 0.000000 0.043221
#
#
# Mechanical properties :
#
#
# Convention : Reuss Voigt Hill
#
# Bulk Modulus (GPa) = 55.90466 67.41669 61.66067
# Shear Modulus (GPa) = 43.65528 15.24106 29.44817
#
# Velocity S-wave (km/s) = 5.37636 3.17671 4.41569
# Velocity P-wave (km/s) = 8.69230 7.62191 8.17465
#
# Compressibility (1/GPa) = 0.01788760
#
# Stress axis : x y z
#
# Youngs Moduli (GPa) = 51.59485 54.53094 93.64160
#
# Poissons Ratio (x) = 0.23284 0.53878
# Poissons Ratio (y) = 0.22030 0.48995
# Poissons Ratio (z) = 0.29686 0.28532
#
# Static dielectric constant tensor:
#      x y z
#    x 1.505790 0.000000 0.000000 
#    y 0.000000 1.474410 0.000000 
#    z 0.000000 0.000000 1.530090 
# 
# From -- ./inp_files/49476.got.cif
#   From: 2010.05.17/outbox.cif.g08.bks.cpg/sg65_25_cif.got.tgz:49476.got - 2010.06.03 17:01:31.
