data_PCOD9492278
_publ_section_title
;
Structure prediction by ZEFSAII (Michael W. Deem and Ramdas Pophale) SiO2 
 PCOD9492278
Probable space group: C M M M
;
_chemical_formula_sum "Si O2"
_cell_formula_units_Z 42
_cell_length_a 14.387723
_cell_length_b 19.368585
_cell_length_c 7.913219
_cell_angle_alpha 90.000000
_cell_angle_beta 90.000000
_cell_angle_gamma 90.000000
_cell_volume 2205.175440
_symmetry_space_group_name_H-M "C M M M"
_symmetry_group_IT_number 65
_symmetry_cell_setting 'orthorhombic'
loop_
_space_group_symop_operation_xyz
x,y,z
-x,-y,z
x,-y,-z
-x,y,-z
-x,-y,-z
x,y,-z
-x,y,z
x,-y,z
1/2+x,1/2+y,z
1/2-x,1/2-y,z
1/2+x,1/2-y,-z
1/2-x,1/2+y,-z
1/2-x,1/2-y,-z
1/2+x,1/2+y,-z
1/2-x,1/2+y,z
1/2+x,1/2-y,z
loop_
_atom_site_type_symbol
_atom_site_label
_atom_site_fract_x
_atom_site_fract_y
_atom_site_fract_z
Si Si1 0.500000 0.500000 0.000000
Si Si2 0.744484 0.363893 0.195449
Si Si3 0.348780 0.500000 0.688928
Si Si4 0.393122 0.754897 0.700961
O O1 0.419517 0.500000 0.152251
O O2 0.713962 0.431754 0.293202
O O3 0.661141 0.308012 0.212129
O O4 0.835072 0.323971 0.262032
O O5 0.757996 0.381118 0.000000
O O6 0.391172 0.500000 0.500000
O O7 0.390076 0.742123 0.500000
O O8 0.500000 0.759097 0.755025
#
# Coordination Sequence:
#
# PCOD9492278 Si02
#       4
#     2  16   8  16
#     4  12  26  44  60  98 122 160 214 230 316 374
#     4  11  22  39  59  88 123 159 204 253 301 363
#     4  12  25  43  64  89 128 161 199 256 302 360
#     4  10  21  37  60  88 118 159 207 250 307 364
#
# _framework density 19.046104
#
# number of rings (size 3 to 8) (size 9 to 14) (size 15 to 20)
#    0.000    1.143    1.905    7.143    2.667    3.048 
#    0.000    0.952    0.000    5.714    0.000    0.000 
#    0.000    0.000    0.000    0.000    0.000    0.000 
#
# Total GULP energy -117068.385799 kJ/mol
# GULP energy per Si atom -5574.685038 kJ/mol
# Density = 1.900275 g / cm^3
# Si number density = 19.046104 Si / 1000 Ang^3
#
#
#
# Elastic Constant Matrix: (Units=GPa)
#
#
# Indices 1 2 3 4 5 6 
#
# 1 120.5311 31.9392 0.4899 0.0000 0.0000 0.0000
# 2 31.9392 102.8190 -0.9222 0.0000 0.0000 0.0000
# 3 0.4899 -0.9222 110.0185 0.0000 0.0000 0.0000
# 4 0.0000 0.0000 0.0000 28.3952 0.0000 0.0000
# 5 0.0000 0.0000 0.0000 0.0000 19.1485 0.0000
# 6 0.0000 0.0000 0.0000 0.0000 0.0000 -10.3521
#
#
#
# Elastic Compliance Matrix: (Units=1/GPa)
#
#
# Indices 1 2 3 4 5 6 
#
# 1 0.009041 -0.002809 -0.000064 0.000000 0.000000 0.000000
# 2 -0.002809 0.010599 0.000101 0.000000 0.000000 0.000000
# 3 -0.000064 0.000101 0.009091 0.000000 0.000000 0.000000
# 4 0.000000 0.000000 0.000000 0.035217 0.000000 0.000000
# 5 0.000000 0.000000 0.000000 0.000000 0.052223 0.000000
# 6 0.000000 0.000000 0.000000 0.000000 0.000000 -0.096598
#
#
# Mechanical properties :
#
#
# Convention : Reuss Voigt Hill
#
# Bulk Modulus (GPa) = 43.12575 44.04248 43.58412
# Shear Modulus (GPa) = 152.22685 27.56243 89.89464
#
# Velocity S-wave (km/s) = 8.94980 3.80826 6.87757
# Velocity P-wave (km/s) = 11.37939 6.52008 9.27367
#
# Compressibility (1/GPa) = 0.02318800
#
# Stress axis : x y z
#
# Youngs Moduli (GPa) = 110.60415 94.34542 110.00479
#
# Poissons Ratio (x) = 0.26503 0.00702
# Poissons Ratio (y) = 0.31070 -0.01115
# Poissons Ratio (z) = 0.00706 -0.00956
#
# Static dielectric constant tensor:
#      x y z
#    x 1.645350 0.000000 0.000000 
#    y 0.000000 1.642010 0.000000 
#    z 0.000000 0.000000 1.678680 
# 
# From -- ./inp_files/5684.got.cif
#   From: 2010.05.17/outbox.cif.g08.bks.cpg/sg65_3_cif.got.tgz:5684.got - 2010.06.03 17:01:31.
