data_PCOD9492873
_publ_section_title
;
Structure prediction by ZEFSAII (Michael W. Deem and Ramdas Pophale) SiO2 
 PCOD9492873
Probable space group: C M M M
;
_chemical_formula_sum "Si O2"
_cell_formula_units_Z 88
_cell_length_a 25.250464
_cell_length_b 10.783664
_cell_length_c 17.521084
_cell_angle_alpha 90.000000
_cell_angle_beta 90.000000
_cell_angle_gamma 90.000000
_cell_volume 4770.860109
_symmetry_space_group_name_H-M "C M M M"
_symmetry_group_IT_number 65
_symmetry_cell_setting 'orthorhombic'
loop_
_space_group_symop_operation_xyz
x,y,z
-x,-y,z
x,-y,-z
-x,y,-z
-x,-y,-z
x,y,-z
-x,y,z
x,-y,z
1/2+x,1/2+y,z
1/2-x,1/2-y,z
1/2+x,1/2-y,-z
1/2-x,1/2+y,-z
1/2-x,1/2-y,-z
1/2+x,1/2+y,-z
1/2-x,1/2+y,z
1/2+x,1/2-y,z
loop_
_atom_site_type_symbol
_atom_site_label
_atom_site_fract_x
_atom_site_fract_y
_atom_site_fract_z
Si Si1 0.937677 0.500000 0.406860
Si Si2 0.000000 0.854602 0.371510
Si Si3 0.090257 0.149771 0.915509
Si Si4 0.791267 0.141569 0.321099
Si Si5 0.611291 0.744247 0.413002
Si Si6 0.208550 0.143422 0.136908
Si Si7 0.000000 0.848045 0.801214
O O1 0.939667 0.500000 0.500000
O O2 0.903900 0.619259 0.383598
O O3 0.000000 0.500000 0.382810
O O4 0.053630 0.817780 0.412770
O O5 0.000000 0.801931 0.285276
O O6 0.000000 0.000000 0.364025
O O7 0.151361 0.174255 0.897720
O O8 0.051341 0.192821 0.848853
O O9 0.085048 0.000000 0.916796
O O10 0.075444 0.195221 0.000000
O O11 0.750000 0.250000 0.343463
O O12 0.847103 0.173540 0.360369
O O13 0.796348 0.145512 0.229198
O O14 0.775191 0.000000 0.341585
O O15 0.631534 0.750029 0.500000
O O16 0.250000 0.250000 0.114585
O O17 0.222443 0.000000 0.115748
O O18 0.000000 0.000000 0.799209
#
# Coordination Sequence:
#
# PCOD9492873 Si02
#       7
#     8   8  16  16  16  16   8
#     4   9  18  36  56  76 102 134 168 213 277 327
#     4  11  21  32  51  77 105 139 172 216 276 322
#     4   9  16  27  47  75 105 136 169 208 255 306
#     4  10  22  38  56  78 106 144 182 222 271 320
#     4  11  22  36  55  77 105 135 175 226 271 322
#     4   9  18  34  53  75 106 137 172 216 259 307
#     4   9  17  29  46  71 105 137 169 208 255 313
#
# _framework density 18.445311
#
# number of rings (size 3 to 8) (size 9 to 14) (size 15 to 20)
#    0.000    2.273    0.909    2.182    1.273    6.545 
#    0.000    0.000    0.000    0.000    0.000    0.000 
#    0.000    1.455    0.000    0.000    0.000    0.000 
#
# Total GULP energy -245284.308798 kJ/mol
# GULP energy per Si atom -5574.643382 kJ/mol
# Density = 1.840333 g / cm^3
# Si number density = 18.445311 Si / 1000 Ang^3
#
#
#
# Elastic Constant Matrix: (Units=GPa)
#
#
# Indices 1 2 3 4 5 6 
#
# 1 64.0026 28.3657 15.4425 0.0000 0.0000 0.0000
# 2 28.3657 83.1975 15.1494 0.0000 0.0000 0.0000
# 3 15.4425 15.1494 47.5690 0.0000 0.0000 0.0000
# 4 0.0000 0.0000 0.0000 11.1274 0.0000 0.0000
# 5 0.0000 0.0000 0.0000 0.0000 106.7036 0.0000
# 6 0.0000 0.0000 0.0000 0.0000 0.0000 28.2959
#
#
#
# Elastic Compliance Matrix: (Units=1/GPa)
#
#
# Indices 1 2 3 4 5 6 
#
# 1 0.019240 -0.005756 -0.004413 0.000000 0.000000 0.000000
# 2 -0.005756 0.014482 -0.002743 0.000000 0.000000 0.000000
# 3 -0.004413 -0.002743 0.023328 0.000000 0.000000 0.000000
# 4 0.000000 0.000000 0.000000 0.089869 0.000000 0.000000
# 5 0.000000 0.000000 0.000000 0.000000 0.009372 0.000000
# 6 0.000000 0.000000 0.000000 0.000000 0.000000 0.035341
#
#
# Mechanical properties :
#
#
# Convention : Reuss Voigt Hill
#
# Bulk Modulus (GPa) = 32.02524 34.74269 33.38397
# Shear Modulus (GPa) = 21.94284 38.27948 30.11116
#
# Velocity S-wave (km/s) = 3.45282 4.56048 4.04475
# Velocity P-wave (km/s) = 5.77026 6.82694 6.32072
#
# Compressibility (1/GPa) = 0.03122537
#
# Stress axis : x y z
#
# Youngs Moduli (GPa) = 51.97435 69.05258 42.86643
#
# Poissons Ratio (x) = 0.39749 0.18916
# Poissons Ratio (y) = 0.29918 0.11760
# Poissons Ratio (z) = 0.22935 0.18943
#
# Static dielectric constant tensor:
#      x y z
#    x 1.590380 0.000000 0.000000 
#    y 0.000000 1.682080 0.000000 
#    z 0.000000 0.000000 1.654040 
# 
# From -- ./inp_files/55685.got.cif
#   From: 2010.05.17/outbox.cif.g08.bks.cpg/sg65_28_cif.got.tgz:55685.got - 2010.06.03 17:01:31.
