data_PCOD9492196
_publ_section_title
;
Structure prediction by ZEFSAII (Michael W. Deem and Ramdas Pophale) SiO2 
 PCOD9492196
Probable space group: C M M M
;
_chemical_formula_sum "Si O2"
_cell_formula_units_Z 88
_cell_length_a 22.639778
_cell_length_b 8.879376
_cell_length_c 24.221669
_cell_angle_alpha 90.000000
_cell_angle_beta 90.000000
_cell_angle_gamma 90.000000
_cell_volume 4869.211911
_symmetry_space_group_name_H-M "C M M M"
_symmetry_group_IT_number 65
_symmetry_cell_setting 'orthorhombic'
loop_
_space_group_symop_operation_xyz
x,y,z
-x,-y,z
x,-y,-z
-x,y,-z
-x,-y,-z
x,y,-z
-x,y,z
x,-y,z
1/2+x,1/2+y,z
1/2-x,1/2-y,z
1/2+x,1/2-y,-z
1/2-x,1/2+y,-z
1/2-x,1/2-y,-z
1/2+x,1/2+y,-z
1/2-x,1/2+y,z
1/2+x,1/2-y,z
loop_
_atom_site_type_symbol
_atom_site_label
_atom_site_fract_x
_atom_site_fract_y
_atom_site_fract_z
Si Si1 0.070371 0.672228 0.749914
Si Si2 0.600720 0.676640 0.860889
Si Si3 0.686507 0.677981 0.433635
Si Si4 0.686136 0.820379 0.060041
Si Si5 0.931133 0.317765 0.378467
Si Si6 0.500000 0.819740 0.936239
O O1 0.091712 0.500000 0.755832
O O2 0.096931 0.774065 0.797522
O O3 0.078099 0.719260 0.686410
O O4 0.000000 0.671059 0.759596
O O5 0.590894 0.500000 0.865595
O O6 0.660189 0.731549 0.888720
O O7 0.554332 0.762679 0.899836
O O8 0.684382 0.696052 0.500000
O O9 0.687468 0.500000 0.420741
O O10 0.750000 0.750000 0.415379
O O11 0.625384 0.749157 0.410196
O O12 0.750000 0.750000 0.053916
O O13 0.686583 0.000000 0.068921
O O14 0.654896 0.795801 0.000000
O O15 0.929601 0.500000 0.383835
O O16 0.000000 0.272937 0.393205
O O17 0.500000 0.000000 0.937467
O O18 0.500000 0.766139 0.000000
#
# Coordination Sequence:
#
# PCOD9492196 Si02
#       6
#    16  16  16  16  16   8
#     4   9  18  35  57  78 107 147 186 225 274 331
#     4  12  23  34  53  81 109 138 175 221 272 328
#     4  10  21  37  58  85 119 159 198 240 292 346
#     4  10  21  38  58  77 100 134 174 218 271 329
#     4   9  19  36  59  87 116 152 196 240 287 341
#     4  11  23  37  53  75 105 141 178 219 270 325
#
# _framework density 18.07274
#
# number of rings (size 3 to 8) (size 9 to 14) (size 15 to 20)
#    0.000    1.909    0.909    4.636    0.000    6.545 
#    0.000    4.545    0.000    4.364    0.000    0.000 
#    0.000    0.000    0.000    0.000    0.000    0.000 
#
# Total GULP energy -245136.221101 kJ/mol
# GULP energy per Si atom -5571.277752 kJ/mol
# Density = 1.803161 g / cm^3
# Si number density = 18.072740 Si / 1000 Ang^3
#
#
#
# Elastic Constant Matrix: (Units=GPa)
#
#
# Indices 1 2 3 4 5 6 
#
# 1 114.6818 40.5776 53.6548 0.0000 0.0000 0.0000
# 2 40.5776 74.8492 47.0944 0.0000 0.0000 0.0000
# 3 53.6548 47.0944 68.7258 0.0000 0.0000 0.0000
# 4 0.0000 0.0000 0.0000 15.8856 0.0000 0.0000
# 5 0.0000 0.0000 0.0000 0.0000 63.5789 0.0000
# 6 0.0000 0.0000 0.0000 0.0000 0.0000 29.4215
#
#
#
# Elastic Compliance Matrix: (Units=1/GPa)
#
#
# Indices 1 2 3 4 5 6 
#
# 1 0.013802 -0.001235 -0.009929 0.000000 0.000000 0.000000
# 2 -0.001235 0.023597 -0.015206 0.000000 0.000000 0.000000
# 3 -0.009929 -0.015206 0.032722 0.000000 0.000000 0.000000
# 4 0.000000 0.000000 0.000000 0.062950 0.000000 0.000000
# 5 0.000000 0.000000 0.000000 0.000000 0.015728 0.000000
# 6 0.000000 0.000000 0.000000 0.000000 0.000000 0.033989
#
#
# Mechanical properties :
#
#
# Convention : Reuss Voigt Hill
#
# Bulk Modulus (GPa) = 57.53249 60.10114 58.81682
# Shear Modulus (GPa) = 20.71919 29.57251 25.14585
#
# Velocity S-wave (km/s) = 3.38958 4.04951 3.73415
# Velocity P-wave (km/s) = 6.87182 7.42914 7.15591
#
# Compressibility (1/GPa) = 0.01738148
#
# Stress axis : x y z
#
# Youngs Moduli (GPa) = 72.45206 42.37819 30.56061
#
# Poissons Ratio (x) = 0.05235 0.30344
# Poissons Ratio (y) = 0.08950 0.46469
# Poissons Ratio (z) = 0.71938 0.64438
#
# Static dielectric constant tensor:
#      x y z
#    x 1.689200 0.000000 0.000000 
#    y 0.000000 1.609220 0.000000 
#    z 0.000000 0.000000 1.617280 
# 
# From -- ./inp_files/65192.got.cif
#   From: 2010.05.17/outbox.cif.g08.bks.cpg/sg65_33_cif.got.tgz:65192.got - 2010.06.03 17:01:31.
