data_PCOD9492773
_publ_section_title
;
Structure prediction by ZEFSAII (Michael W. Deem and Ramdas Pophale) SiO2 
 PCOD9492773
Probable space group: C M M M
;
_chemical_formula_sum "Si O2"
_cell_formula_units_Z 88
_cell_length_a 20.768973
_cell_length_b 18.370057
_cell_length_c 13.314304
_cell_angle_alpha 90.000000
_cell_angle_beta 90.000000
_cell_angle_gamma 90.000000
_cell_volume 5079.769363
_symmetry_space_group_name_H-M "C M M M"
_symmetry_group_IT_number 65
_symmetry_cell_setting 'orthorhombic'
loop_
_space_group_symop_operation_xyz
x,y,z
-x,-y,z
x,-y,-z
-x,y,-z
-x,-y,-z
x,y,-z
-x,y,z
x,-y,z
1/2+x,1/2+y,z
1/2-x,1/2-y,z
1/2+x,1/2-y,-z
1/2-x,1/2+y,-z
1/2-x,1/2-y,-z
1/2+x,1/2+y,-z
1/2-x,1/2+y,z
1/2+x,1/2-y,z
loop_
_atom_site_type_symbol
_atom_site_label
_atom_site_fract_x
_atom_site_fract_y
_atom_site_fract_z
Si Si1 0.924203 0.730857 0.887393
Si Si2 0.823905 0.779021 0.500000
Si Si3 0.877360 0.820519 0.302143
Si Si4 0.748452 0.914027 0.717848
Si Si5 0.143506 0.583424 0.116003
Si Si6 0.750616 0.916062 0.500000
Si Si7 0.500000 0.587100 0.621244
O O1 0.893026 0.775637 0.797548
O O2 0.910195 0.645067 0.874070
O O3 0.000000 0.744151 0.884671
O O4 0.900304 0.750571 0.000000
O O5 0.750000 0.750000 0.500000
O O6 0.860774 0.766815 0.396186
O O7 0.813895 0.866728 0.500000
O O8 0.813204 0.867422 0.280811
O O9 0.936939 0.872312 0.333984
O O10 0.700156 0.896741 0.807184
O O11 0.717301 0.901527 0.606726
O O12 0.763580 0.000000 0.725004
O O13 0.122919 0.500000 0.137071
O O14 0.165959 0.585165 0.000000
O O15 0.769008 0.000000 0.500000
O O16 0.500000 0.500000 0.643009
O O17 0.500000 0.595550 0.500000
#
# Coordination Sequence:
#
# PCOD9492773 Si02
#       7
#    16   8  16  16  16   8   8
#     4  10  22  38  56  77 107 147 186 228 275 327
#     4  10  22  33  52  82 115 144 177 224 281 329
#     4  11  21  36  55  80 114 147 185 226 278 329
#     4   9  18  32  52  78 107 138 174 222 273 327
#     4   9  19  36  57  81 104 132 179 232 280 328
#     4   8  16  30  47  70 102 138 172 205 255 317
#     4  11  22  38  59  85 112 147 193 238 273 316
#
# _framework density 17.323619999999998
#
# number of rings (size 3 to 8) (size 9 to 14) (size 15 to 20)
#    0.000    2.273    1.818    0.545    5.091    1.818 
#    0.000    3.636    0.000    2.182    0.000    0.000 
#    0.000    5.818    0.000    0.000    0.000    0.000 
#
# Total GULP energy -245015.465351 kJ/mol
# GULP energy per Si atom -5568.533303 kJ/mol
# Density = 1.728419 g / cm^3
# Si number density = 17.323620 Si / 1000 Ang^3
#
#
#
# Elastic Constant Matrix: (Units=GPa)
#
#
# Indices 1 2 3 4 5 6 
#
# 1 40.2567 25.1216 37.5757 0.0000 0.0000 0.0000
# 2 25.1216 62.2100 49.0289 0.0000 0.0000 0.0000
# 3 37.5757 49.0289 129.9571 0.0000 0.0000 0.0000
# 4 0.0000 0.0000 0.0000 24.3717 0.0000 0.0000
# 5 0.0000 0.0000 0.0000 0.0000 27.5722 0.0000
# 6 0.0000 0.0000 0.0000 0.0000 0.0000 30.4454
#
#
#
# Elastic Compliance Matrix: (Units=1/GPa)
#
#
# Indices 1 2 3 4 5 6 
#
# 1 0.037522 -0.009395 -0.007304 0.000000 0.000000 0.000000
# 2 -0.009395 0.025229 -0.006802 0.000000 0.000000 0.000000
# 3 -0.007304 -0.006802 0.012373 0.000000 0.000000 0.000000
# 4 0.000000 0.000000 0.000000 0.041031 0.000000 0.000000
# 5 0.000000 0.000000 0.000000 0.000000 0.036268 0.000000
# 6 0.000000 0.000000 0.000000 0.000000 0.000000 0.032846
#
#
# Mechanical properties :
#
#
# Convention : Reuss Voigt Hill
#
# Bulk Modulus (GPa) = 35.56066 50.65293 43.10679
# Shear Modulus (GPa) = 20.69152 24.52437 22.60794
#
# Velocity S-wave (km/s) = 3.45977 3.76661 3.61645
# Velocity P-wave (km/s) = 6.04416 6.94400 6.50965
#
# Compressibility (1/GPa) = 0.02812096
#
# Stress axis : x y z
#
# Youngs Moduli (GPa) = 26.65137 39.63686 80.82176
#
# Poissons Ratio (x) = 0.37239 0.59036
# Poissons Ratio (y) = 0.25039 0.54972
# Poissons Ratio (z) = 0.19467 0.26960
#
# Static dielectric constant tensor:
#      x y z
#    x 1.556200 0.000000 0.000000 
#    y 0.000000 1.613190 0.000000 
#    z 0.000000 0.000000 1.640700 
# 
# From -- ./inp_files/26875.got.cif
#   From: 2010.05.17/outbox.cif.g08.bks.cpg/sg65_14_cif.got.tgz:26875.got - 2010.06.03 17:01:31.
