data_PCOD9492294
_publ_section_title
;
Structure prediction by ZEFSAII (Michael W. Deem and Ramdas Pophale) SiO2 
 PCOD9492294
Probable space group: C M M M
;
_chemical_formula_sum "Si O2"
_cell_formula_units_Z 72
_cell_length_a 14.425062
_cell_length_b 22.884836
_cell_length_c 9.140913
_cell_angle_alpha 90.000000
_cell_angle_beta 90.000000
_cell_angle_gamma 90.000000
_cell_volume 3017.554124
_symmetry_space_group_name_H-M "C M M M"
_symmetry_group_IT_number 65
_symmetry_cell_setting 'orthorhombic'
loop_
_space_group_symop_operation_xyz
x,y,z
-x,-y,z
x,-y,-z
-x,y,-z
-x,-y,-z
x,y,-z
-x,y,z
x,-y,z
1/2+x,1/2+y,z
1/2-x,1/2-y,z
1/2+x,1/2-y,-z
1/2-x,1/2+y,-z
1/2-x,1/2-y,-z
1/2+x,1/2+y,-z
1/2-x,1/2+y,z
1/2+x,1/2-y,z
loop_
_atom_site_type_symbol
_atom_site_label
_atom_site_fract_x
_atom_site_fract_y
_atom_site_fract_z
Si Si1 0.696948 0.889150 0.662608
Si Si2 0.156405 0.783793 0.000000
Si Si3 0.609978 0.000000 0.825430
Si Si4 0.391316 0.236335 0.673154
Si Si5 0.900558 0.099295 0.000000
Si Si6 0.896951 0.066274 0.685472
O O1 0.659206 0.901232 0.500000
O O2 0.666544 0.823335 0.698708
O O3 0.808404 0.894856 0.652440
O O4 0.658518 0.941320 0.763343
O O5 0.250000 0.750000 0.000000
O O6 0.116841 0.771021 0.831854
O O7 0.176680 0.852361 0.000000
O O8 0.500000 0.000000 0.788379
O O9 0.618724 0.000000 0.000000
O O10 0.367585 0.256873 0.500000
O O11 0.500000 0.222460 0.664176
O O12 0.897296 0.062635 0.858087
O O13 0.000000 0.133072 0.000000
O O14 0.000000 0.088647 0.646429
O O15 0.885538 0.000000 0.636028
#
# Coordination Sequence:
#
# PCOD9492294 Si02
#       6
#    16   8   8  16   8  16
#     4  11  23  40  63  93 129 172 217 265 327 392
#     4  12  24  41  69 100 133 174 220 277 334 400
#     4  11  25  39  58  91 126 162 212 270 320 383
#     4  10  23  43  68  98 135 180 228 279 337 400
#     4  10  21  38  60  90 123 165 216 263 319 385
#     4  10  21  37  61  93 131 172 217 269 328 394
#
# _framework density 23.860382999999999
#
# number of rings (size 3 to 8) (size 9 to 14) (size 15 to 20)
#    0.000    1.444    1.111    3.667    3.111    4.000 
#    0.000    2.222    0.000    1.333    0.000    0.000 
#    0.000    0.000    0.000    0.000    0.000    0.000 
#
# Total GULP energy -200550.970543 kJ/mol
# GULP energy per Si atom -5570.860293 kJ/mol
# Density = 2.380608 g / cm^3
# Si number density = 23.860383 Si / 1000 Ang^3
#
#
#
# Elastic Constant Matrix: (Units=GPa)
#
#
# Indices 1 2 3 4 5 6 
#
# 1 109.5288 22.4762 26.0251 0.0000 0.0000 0.0000
# 2 22.4762 89.5236 61.4503 0.0000 0.0000 0.0000
# 3 26.0251 61.4503 235.6238 0.0000 0.0000 0.0000
# 4 0.0000 0.0000 0.0000 89.4555 0.0000 0.0000
# 5 0.0000 0.0000 0.0000 0.0000 56.5531 0.0000
# 6 0.0000 0.0000 0.0000 0.0000 0.0000 17.9131
#
#
#
# Elastic Compliance Matrix: (Units=1/GPa)
#
#
# Indices 1 2 3 4 5 6 
#
# 1 0.009680 -0.002066 -0.000530 0.000000 0.000000 0.000000
# 2 -0.002066 0.014047 -0.003435 0.000000 0.000000 0.000000
# 3 -0.000530 -0.003435 0.005199 0.000000 0.000000 0.000000
# 4 0.000000 0.000000 0.000000 0.011179 0.000000 0.000000
# 5 0.000000 0.000000 0.000000 0.000000 0.017682 0.000000
# 6 0.000000 0.000000 0.000000 0.000000 0.000000 0.055825
#
#
# Mechanical properties :
#
#
# Convention : Reuss Voigt Hill
#
# Bulk Modulus (GPa) = 59.30515 72.73103 66.01809
# Shear Modulus (GPa) = 38.08182 54.43264 46.25723
#
# Velocity S-wave (km/s) = 3.99936 4.78148 4.40780
# Velocity P-wave (km/s) = 6.79968 7.81226 7.32349
#
# Compressibility (1/GPa) = 0.01686194
#
# Stress axis : x y z
#
# Youngs Moduli (GPa) = 103.30532 71.18965 192.36249
#
# Poissons Ratio (x) = 0.14710 0.10201
# Poissons Ratio (y) = 0.21346 0.66080
# Poissons Ratio (z) = 0.05478 0.24455
#
# Static dielectric constant tensor:
#      x y z
#    x 1.934390 0.000000 0.000000 
#    y 0.000000 1.842460 0.000000 
#    z 0.000000 0.000000 1.993070 
# 
# From -- ./inp_files/7335.got.cif
#   From: 2010.05.17/outbox.cif.g08.bks.cpg/sg65_4_cif.got.tgz:7335.got - 2010.06.03 17:01:31.
