data_PCOD9492013
_publ_section_title
;
Structure prediction by ZEFSAII (Michael W. Deem and Ramdas Pophale) SiO2 
 PCOD9492013
Probable space group: C M M M
;
_chemical_formula_sum "Si O2"
_cell_formula_units_Z 112
_cell_length_a 14.360130
_cell_length_b 14.253377
_cell_length_c 24.260940
_cell_angle_alpha 90.000000
_cell_angle_beta 90.000000
_cell_angle_gamma 90.000000
_cell_volume 4965.737609
_symmetry_space_group_name_H-M "C M M M"
_symmetry_group_IT_number 65
_symmetry_cell_setting 'orthorhombic'
loop_
_space_group_symop_operation_xyz
x,y,z
-x,-y,z
x,-y,-z
-x,y,-z
-x,-y,-z
x,y,-z
-x,y,z
x,-y,z
1/2+x,1/2+y,z
1/2-x,1/2-y,z
1/2+x,1/2-y,-z
1/2-x,1/2+y,-z
1/2-x,1/2-y,-z
1/2+x,1/2+y,-z
1/2-x,1/2+y,z
1/2+x,1/2-y,z
loop_
_atom_site_type_symbol
_atom_site_label
_atom_site_fract_x
_atom_site_fract_y
_atom_site_fract_z
Si Si1 0.780790 0.151305 0.217460
Si Si2 0.794144 0.104226 0.099185
Si Si3 0.392580 0.795044 0.934509
Si Si4 0.102928 0.614761 0.409156
Si Si5 0.610381 0.611168 0.675724
Si Si6 0.305126 0.614766 0.440984
Si Si7 0.901122 0.389778 0.283431
O O1 0.750000 0.250000 0.193438
O O2 0.816851 0.098487 0.164464
O O3 0.848579 0.159866 0.269899
O O4 0.685261 0.116857 0.243838
O O5 0.686047 0.137013 0.091701
O O6 0.856839 0.188183 0.074964
O O7 0.807105 0.000000 0.075212
O O8 0.500000 0.806694 0.914950
O O9 0.391158 0.812755 0.000000
O O10 0.102731 0.500000 0.411636
O O11 0.196825 0.643824 0.439152
O O12 0.113888 0.646505 0.345431
O O13 0.000000 0.644824 0.428299
O O14 0.500000 0.618177 0.675047
O O15 0.636560 0.500000 0.681635
O O16 0.648717 0.644055 0.616560
O O17 0.346937 0.643562 0.500000
O O18 0.308682 0.500000 0.439940
O O19 0.910980 0.500000 0.292559
O O20 0.000000 0.352239 0.261921
#
# Coordination Sequence:
#
# PCOD9492013 Si02
#       7
#    16  16  16  16  16  16  16
#     4  12  23  38  58  84 123 161 200 258 323 375
#     4  11  23  42  68  99 137 183 231 278 331 395
#     4  10  23  45  70 102 145 184 224 280 335 383
#     4   8  13  23  42  69 101 134 172 226 292 362
#     4  10  21  37  56  79 110 150 200 252 308 383
#     4   9  16  27  47  75 107 140 182 247 316 377
#     4   9  17  31  53  78 105 142 187 235 294 368
#
# _framework density 22.554554
#
# number of rings (size 3 to 8) (size 9 to 14) (size 15 to 20)
#    0.000    2.143    2.857    3.000    0.000    4.000 
#    0.000    4.286    0.000    0.429    0.000    0.000 
#    0.000    0.000    0.000    0.000    0.000    0.000 
#
# Total GULP energy -312537.217249 kJ/mol
# GULP energy per Si atom -5581.021737 kJ/mol
# Density = 2.250322 g / cm^3
# Si number density = 22.554554 Si / 1000 Ang^3
#
#
#
# Elastic Constant Matrix: (Units=GPa)
#
#
# Indices 1 2 3 4 5 6 
#
# 1 62.1315 -17.4912 21.2570 0.0000 0.0000 0.0000
# 2 -17.4912 59.7913 -5.7557 0.0000 0.0000 0.0000
# 3 21.2570 -5.7557 101.1972 0.0000 0.0000 0.0000
# 4 0.0000 0.0000 0.0000 24.0142 0.0000 0.0000
# 5 0.0000 0.0000 0.0000 0.0000 -7.8252 0.0000
# 6 0.0000 0.0000 0.0000 0.0000 0.0000 -15.2464
#
#
#
# Elastic Compliance Matrix: (Units=1/GPa)
#
#
# Indices 1 2 3 4 5 6 
#
# 1 0.018794 0.005146 -0.003655 0.000000 0.000000 0.000000
# 2 0.005146 0.018226 -0.000044 0.000000 0.000000 0.000000
# 3 -0.003655 -0.000044 0.010647 0.000000 0.000000 0.000000
# 4 0.000000 0.000000 0.000000 0.041642 0.000000 0.000000
# 5 0.000000 0.000000 0.000000 0.000000 -0.127792 0.000000
# 6 0.000000 0.000000 0.000000 0.000000 0.000000 -0.065589
#
#
# Mechanical properties :
#
#
# Convention : Reuss Voigt Hill
#
# Bulk Modulus (GPa) = 19.77827 24.34888 22.06358
# Shear Modulus (GPa) = -55.48676 15.19584 -20.14546
#
# Velocity S-wave (km/s) = -4.96533 2.59846 -2.99187
# Velocity P-wave (km/s) = 4.90761 4.45215 1.45996
#
# Compressibility (1/GPa) = 0.05056053
#
# Stress axis : x y z
#
# Youngs Moduli (GPa) = 53.20799 54.86660 93.92361
#
# Poissons Ratio (x) = -0.28235 0.34330
# Poissons Ratio (y) = -0.27382 0.00416
# Poissons Ratio (z) = 0.19448 0.00243
#
# Static dielectric constant tensor:
#      x y z
#    x 1.797570 0.000000 0.000000 
#    y 0.000000 1.855590 0.000000 
#    z 0.000000 0.000000 1.824040 
# 
# From -- ./inp_files/70064.got.cif
#   From: 2010.05.17/outbox.cif.g08.bks.cpg/sg65_36_cif.got.tgz:70064.got - 2010.06.03 17:01:31.
