data_PCOD9492772
_publ_section_title
;
Structure prediction by ZEFSAII (Michael W. Deem and Ramdas Pophale) SiO2 
 PCOD9492772
Probable space group: C M M M
;
_chemical_formula_sum "Si O2"
_cell_formula_units_Z 66
_cell_length_a 16.705260
_cell_length_b 8.202921
_cell_length_c 24.759947
_cell_angle_alpha 90.000000
_cell_angle_beta 90.000000
_cell_angle_gamma 90.000000
_cell_volume 3392.903276
_symmetry_space_group_name_H-M "C M M M"
_symmetry_group_IT_number 65
_symmetry_cell_setting 'orthorhombic'
loop_
_space_group_symop_operation_xyz
x,y,z
-x,-y,z
x,-y,-z
-x,y,-z
-x,-y,-z
x,y,-z
-x,y,z
x,-y,z
1/2+x,1/2+y,z
1/2-x,1/2-y,z
1/2+x,1/2-y,-z
1/2-x,1/2+y,-z
1/2-x,1/2-y,-z
1/2+x,1/2+y,-z
1/2-x,1/2+y,z
1/2+x,1/2-y,z
loop_
_atom_site_type_symbol
_atom_site_label
_atom_site_fract_x
_atom_site_fract_y
_atom_site_fract_z
Si Si1 0.340506 0.189053 0.276971
Si Si2 0.095349 0.813619 0.614460
Si Si3 0.650802 0.740606 0.000000
Si Si4 0.000000 0.500000 0.000000
Si Si5 0.658261 0.805733 0.500000
Si Si6 0.597588 0.500000 0.909527
Si Si7 0.094026 0.000000 0.786749
O O1 0.250000 0.250000 0.273571
O O2 0.367051 0.202295 0.339365
O O3 0.385318 0.332279 0.244291
O O4 0.349950 0.000000 0.258949
O O5 0.118177 0.761493 0.554303
O O6 0.000000 0.809100 0.620265
O O7 0.123007 0.000000 0.623599
O O8 0.750000 0.750000 0.000000
O O9 0.632035 0.648583 0.944027
O O10 0.574438 0.864382 0.000000
O O11 0.750000 0.750000 0.500000
O O12 0.653143 0.000000 0.500000
O O13 0.500000 0.500000 0.911626
O O14 0.626740 0.500000 0.847793
O O15 0.000000 0.000000 0.792231
#
# Coordination Sequence:
#
# PCOD9492772 Si02
#       7
#    16  16   8   2   8   8   8
#     4  12  24  44  69  97 133 179 229 285 350 416
#     4  11  23  41  65  91 127 166 214 275 342 415
#     4  11  22  41  70 106 142 193 238 296 363 428
#     4  12  20  38  72 110 152 182 264 300 348 454
#     4  12  25  40  59  89 123 163 215 271 338 412
#     4  10  21  46  66  90 147 190 219 287 361 405
#     4  11  25  45  70 101 139 184 233 291 350 411
#
# _framework density 19.452366999999999
#
# number of rings (size 3 to 8) (size 9 to 14) (size 15 to 20)
#    0.000    0.727    3.636    4.727    0.000    5.818 
#    2.182    0.000    0.000    0.000    0.000    0.000 
#    0.000    0.000    0.000    0.000    0.000    0.000 
#
# Total GULP energy -183708.429304 kJ/mol
# GULP energy per Si atom -5566.922100 kJ/mol
# Density = 1.940809 g / cm^3
# Si number density = 19.452367 Si / 1000 Ang^3
#
#
#
# Elastic Constant Matrix: (Units=GPa)
#
#
# Indices 1 2 3 4 5 6 
#
# 1 83.8135 33.5443 10.4097 0.0000 0.0000 0.0000
# 2 33.5443 155.7586 46.2099 0.0000 0.0000 0.0000
# 3 10.4097 46.2099 118.2979 0.0000 0.0000 0.0000
# 4 0.0000 0.0000 0.0000 -314.9828 0.0000 0.0000
# 5 0.0000 0.0000 0.0000 0.0000 364.2831 0.0000
# 6 0.0000 0.0000 0.0000 0.0000 0.0000 23.2297
#
#
#
# Elastic Compliance Matrix: (Units=1/GPa)
#
#
# Indices 1 2 3 4 5 6 
#
# 1 0.013057 -0.002795 -0.000057 0.000000 0.000000 0.000000
# 2 -0.002795 0.007860 -0.002824 0.000000 0.000000 0.000000
# 3 -0.000057 -0.002824 0.009562 0.000000 0.000000 0.000000
# 4 0.000000 0.000000 0.000000 -0.003175 0.000000 0.000000
# 5 0.000000 0.000000 0.000000 0.000000 0.002745 0.000000
# 6 0.000000 0.000000 0.000000 0.000000 0.000000 0.043048
#
#
# Mechanical properties :
#
#
# Convention : Reuss Voigt Hill
#
# Bulk Modulus (GPa) = 52.28624 59.79975 56.04300
# Shear Modulus (GPa) = 55.05062 32.35306 43.70184
#
# Velocity S-wave (km/s) = 5.32557 4.08265 4.74498
# Velocity P-wave (km/s) = 8.04692 7.28234 7.67416
#
# Compressibility (1/GPa) = 0.01912549
#
# Stress axis : x y z
#
# Youngs Moduli (GPa) = 76.58742 127.22562 104.58572
#
# Poissons Ratio (x) = 0.35560 0.00598
# Poissons Ratio (y) = 0.21406 0.29539
# Poissons Ratio (z) = 0.00438 0.35933
#
# Static dielectric constant tensor:
#      x y z
#    x 1.681100 0.000000 0.000000 
#    y 0.000000 1.677050 0.000000 
#    z 0.000000 0.000000 1.429580 
# 
# From -- ./inp_files/69626.got.cif
#   From: 2010.05.17/outbox.cif.g08.bks.cpg/sg65_35_cif.got.tgz:69626.got - 2010.06.03 17:01:31.
