data_PCOD9492399
_publ_section_title
;
Structure prediction by ZEFSAII (Michael W. Deem and Ramdas Pophale) SiO2 
 PCOD9492399
Probable space group: C M M M
;
_chemical_formula_sum "Si O2"
_cell_formula_units_Z 88
_cell_length_a 28.142542
_cell_length_b 17.765872
_cell_length_c 9.099219
_cell_angle_alpha 90.000000
_cell_angle_beta 90.000000
_cell_angle_gamma 90.000000
_cell_volume 4549.398388
_symmetry_space_group_name_H-M "C M M M"
_symmetry_group_IT_number 65
_symmetry_cell_setting 'orthorhombic'
loop_
_space_group_symop_operation_xyz
x,y,z
-x,-y,z
x,-y,-z
-x,y,-z
-x,-y,-z
x,y,-z
-x,y,z
x,-y,z
1/2+x,1/2+y,z
1/2-x,1/2-y,z
1/2+x,1/2-y,-z
1/2-x,1/2+y,-z
1/2-x,1/2-y,-z
1/2+x,1/2+y,-z
1/2-x,1/2+y,z
1/2+x,1/2-y,z
loop_
_atom_site_type_symbol
_atom_site_label
_atom_site_fract_x
_atom_site_fract_y
_atom_site_fract_z
Si Si1 0.250091 0.584790 0.325829
Si Si2 0.823857 0.308911 0.827838
Si Si3 0.921443 0.322846 0.325389
Si Si4 0.500000 0.088433 0.164610
Si Si5 0.553295 0.665327 0.824163
Si Si6 0.658195 0.370811 0.170715
O O1 0.246266 0.598024 0.500000
O O2 0.231799 0.500000 0.293891
O O3 0.221765 0.649400 0.238350
O O4 0.304772 0.588222 0.274860
O O5 0.868694 0.335585 0.733826
O O6 0.827579 0.218029 0.818665
O O7 0.828268 0.327762 0.000000
O O8 0.923223 0.322476 0.500000
O O9 0.940441 0.243241 0.262604
O O10 0.954804 0.384629 0.254291
O O11 0.500000 0.000000 0.152196
O O12 0.500000 0.122418 0.000000
O O13 0.500000 0.634261 0.794657
O O14 0.602184 0.620528 0.791382
O O15 0.555786 0.680564 0.000000
O O16 0.664637 0.393236 0.000000
#
# Coordination Sequence:
#
# PCOD9492399 Si02
#       6
#    16  16  16   8  16  16
#     4  11  24  39  55  79 112 148 185 229 282 336
#     4  10  21  38  60  83 108 142 184 230 277 330
#     4  11  21  33  52  79 108 137 175 224 272 322
#     4  11  23  37  51  67  97 145 190 225 268 321
#     4   9  17  32  56  82 112 143 174 219 271 323
#     4   9  19  35  57  86 112 142 185 228 273 330
#
# _framework density 19.343216999999999
#
# number of rings (size 3 to 8) (size 9 to 14) (size 15 to 20)
#    0.000    1.909    0.909    4.636    0.000    8.727 
#    0.000    0.000    0.000    0.545    0.000    3.818 
#    0.000    0.000    0.000    0.000    0.000    0.000 
#
# Total GULP energy -245511.198694 kJ/mol
# GULP energy per Si atom -5579.799970 kJ/mol
# Density = 1.929919 g / cm^3
# Si number density = 19.343217 Si / 1000 Ang^3
#
#
#
# Elastic Constant Matrix: (Units=GPa)
#
#
# Indices 1 2 3 4 5 6 
#
# 1 118.2434 5.2636 32.2715 0.0000 0.0000 0.0000
# 2 5.2636 13.2487 12.8742 0.0000 0.0000 0.0000
# 3 32.2715 12.8742 79.9040 0.0000 0.0000 0.0000
# 4 0.0000 0.0000 0.0000 1.9080 0.0000 0.0000
# 5 0.0000 0.0000 0.0000 0.0000 77.2191 0.0000
# 6 0.0000 0.0000 0.0000 0.0000 0.0000 4.3313
#
#
#
# Elastic Compliance Matrix: (Units=1/GPa)
#
#
# Indices 1 2 3 4 5 6 
#
# 1 0.009505 -0.000054 -0.003830 0.000000 0.000000 0.000000
# 2 -0.000054 0.089491 -0.014397 0.000000 0.000000 0.000000
# 3 -0.003830 -0.014397 0.016382 0.000000 0.000000 0.000000
# 4 0.000000 0.000000 0.000000 0.524118 0.000000 0.000000
# 5 0.000000 0.000000 0.000000 0.000000 0.012950 0.000000
# 6 0.000000 0.000000 0.000000 0.000000 0.000000 0.230879
#
#
# Mechanical properties :
#
#
# Convention : Reuss Voigt Hill
#
# Bulk Modulus (GPa) = 12.68802 34.69053 23.68927
# Shear Modulus (GPa) = 5.28453 27.42412 16.35432
#
# Velocity S-wave (km/s) = 1.65466 3.76941 2.91087
# Velocity P-wave (km/s) = 3.19753 6.07599 4.85499
#
# Compressibility (1/GPa) = 0.07881453
#
# Stress axis : x y z
#
# Youngs Moduli (GPa) = 105.20932 11.17432 61.04428
#
# Poissons Ratio (x) = 0.00061 0.23380
# Poissons Ratio (y) = 0.00573 0.87885
# Poissons Ratio (z) = 0.40296 0.16088
#
# Static dielectric constant tensor:
#      x y z
#    x 1.667090 0.000000 0.000000 
#    y 0.000000 1.672500 0.000000 
#    z 0.000000 0.000000 1.636460 
# 
# From -- ./inp_files/18349.got.cif
#   From: 2010.05.17/outbox.cif.g08.bks.cpg/sg65_10_cif.got.tgz:18349.got - 2010.06.03 17:01:31.
