data_PCOD9492269
_publ_section_title
;
Structure prediction by ZEFSAII (Michael W. Deem and Ramdas Pophale) SiO2 
 PCOD9492269
Probable space group: C M M M
;
_chemical_formula_sum "Si O2"
_cell_formula_units_Z 64
_cell_length_a 24.482771
_cell_length_b 15.818928
_cell_length_c 8.836528
_cell_angle_alpha 90.000000
_cell_angle_beta 90.000000
_cell_angle_gamma 90.000000
_cell_volume 3422.309460
_symmetry_space_group_name_H-M "C M M M"
_symmetry_group_IT_number 65
_symmetry_cell_setting 'orthorhombic'
loop_
_space_group_symop_operation_xyz
x,y,z
-x,-y,z
x,-y,-z
-x,y,-z
-x,-y,-z
x,y,-z
-x,y,z
x,-y,z
1/2+x,1/2+y,z
1/2-x,1/2-y,z
1/2+x,1/2-y,-z
1/2-x,1/2+y,-z
1/2-x,1/2-y,-z
1/2+x,1/2+y,-z
1/2-x,1/2+y,z
1/2+x,1/2-y,z
loop_
_atom_site_type_symbol
_atom_site_label
_atom_site_fract_x
_atom_site_fract_y
_atom_site_fract_z
Si Si1 0.000000 0.139100 0.182659
Si Si2 0.109934 0.599022 0.819219
Si Si3 0.779896 0.662989 0.682623
Si Si4 0.000000 0.325233 0.319563
Si Si5 0.911081 0.000000 0.818320
Si Si6 0.291025 0.500000 0.682106
O O1 0.000000 0.228467 0.263556
O O2 0.052730 0.082096 0.222665
O O3 0.000000 0.150613 0.000000
O O4 0.119008 0.500000 0.782939
O O5 0.161072 0.651579 0.756677
O O6 0.053883 0.629990 0.745394
O O7 0.106215 0.607746 0.000000
O O8 0.786049 0.661175 0.500000
O O9 0.750000 0.750000 0.723883
O O10 0.742407 0.583406 0.728381
O O11 0.000000 0.329235 0.500000
O O12 0.851808 0.000000 0.746368
O O13 0.906284 0.000000 0.000000
O O14 0.294058 0.500000 0.500000
#
# Coordination Sequence:
#
# PCOD9492269 Si02
#       6
#     8  16  16   8   8   8
#     4   9  20  41  61  87 122 160 201 250 301 352
#     4  11  24  43  65  90 120 155 200 252 303 359
#     4  10  22  40  62  90 125 163 203 247 300 361
#     4  12  26  40  63  92 120 157 200 247 304 363
#     4   9  20  38  62  86 121 163 201 246 301 357
#     4  10  21  37  59  89 127 162 199 252 300 352
#
# _framework density 18.700821999999999
#
# number of rings (size 3 to 8) (size 9 to 14) (size 15 to 20)
#    0.000    1.750    1.250    3.000    3.500    5.500 
#    0.000    1.250    0.000    0.000    0.000    0.000 
#    0.000    0.000    0.000    0.000    0.000    0.000 
#
# Total GULP energy -178862.420812 kJ/mol
# GULP energy per Si atom -5589.450650 kJ/mol
# Density = 1.865826 g / cm^3
# Si number density = 18.700822 Si / 1000 Ang^3
#
#
#
# Elastic Constant Matrix: (Units=GPa)
#
#
# Indices 1 2 3 4 5 6 
#
# 1 190.4499 79.0522 56.2978 0.0000 0.0000 0.0000
# 2 79.0522 140.2573 53.0920 0.0000 0.0000 0.0000
# 3 56.2978 53.0920 43.3118 0.0000 0.0000 0.0000
# 4 0.0000 0.0000 0.0000 11.7009 0.0000 0.0000
# 5 0.0000 0.0000 0.0000 0.0000 44.0607 0.0000
# 6 0.0000 0.0000 0.0000 0.0000 0.0000 -3.4236
#
#
#
# Elastic Compliance Matrix: (Units=1/GPa)
#
#
# Indices 1 2 3 4 5 6 
#
# 1 0.008626 -0.001152 -0.009800 0.000000 0.000000 0.000000
# 2 -0.001152 0.013456 -0.014997 0.000000 0.000000 0.000000
# 3 -0.009800 -0.014997 0.054209 0.000000 0.000000 0.000000
# 4 0.000000 0.000000 0.000000 0.085463 0.000000 0.000000
# 5 0.000000 0.000000 0.000000 0.000000 0.022696 0.000000
# 6 0.000000 0.000000 0.000000 0.000000 0.000000 -0.292089
#
#
# Mechanical properties :
#
#
# Convention : Reuss Voigt Hill
#
# Bulk Modulus (GPa) = 40.99387 83.43368 62.21377
# Shear Modulus (GPa) = -105.01874 22.83941 -41.08966
#
# Velocity S-wave (km/s) = -7.50195 3.49851 -4.69253
# Velocity P-wave (km/s) = 7.28495 7.81225 1.99509
#
# Compressibility (1/GPa) = 0.02439389
#
# Stress axis : x y z
#
# Youngs Moduli (GPa) = 115.93132 74.31674 18.44701
#
# Poissons Ratio (x) = 0.08563 0.18077
# Poissons Ratio (y) = 0.13358 0.27664
# Poissons Ratio (z) = 1.13609 1.11451
#
# Static dielectric constant tensor:
#      x y z
#    x 1.605570 0.000000 0.000000 
#    y 0.000000 1.636450 0.000000 
#    z 0.000000 0.000000 1.625020 
# 
# From -- ./inp_files/13414.got.cif
#   From: 2010.05.17/outbox.cif.g08.bks.cpg/sg65_7_cif.got.tgz:13414.got - 2010.06.03 17:01:31.
