data_PCOD9492510
_publ_section_title
;
Structure prediction by ZEFSAII (Michael W. Deem and Ramdas Pophale) SiO2 
 PCOD9492510
Probable space group: C M M M
;
_chemical_formula_sum "Si O2"
_cell_formula_units_Z 64
_cell_length_a 21.498165
_cell_length_b 8.505207
_cell_length_c 17.800628
_cell_angle_alpha 90.000000
_cell_angle_beta 90.000000
_cell_angle_gamma 90.000000
_cell_volume 3254.779741
_symmetry_space_group_name_H-M "C M M M"
_symmetry_group_IT_number 65
_symmetry_cell_setting 'orthorhombic'
loop_
_space_group_symop_operation_xyz
x,y,z
-x,-y,z
x,-y,-z
-x,y,-z
-x,-y,-z
x,y,-z
-x,y,z
x,-y,z
1/2+x,1/2+y,z
1/2-x,1/2-y,z
1/2+x,1/2-y,-z
1/2-x,1/2+y,-z
1/2-x,1/2-y,-z
1/2+x,1/2+y,-z
1/2-x,1/2+y,z
1/2+x,1/2-y,z
loop_
_atom_site_type_symbol
_atom_site_label
_atom_site_fract_x
_atom_site_fract_y
_atom_site_fract_z
Si Si1 0.000000 0.676813 0.909302
Si Si2 0.071761 0.812431 0.337701
Si Si3 0.075001 0.678398 0.500000
Si Si4 0.814743 0.312510 0.759745
Si Si5 0.363830 0.807206 0.085146
O O1 0.933457 0.750712 0.893063
O O2 0.000000 0.500000 0.876561
O O3 0.000000 0.662268 0.000000
O O4 0.090484 0.764929 0.422631
O O5 0.123504 0.742547 0.282976
O O6 0.000000 0.757083 0.323811
O O7 0.071533 0.000000 0.331068
O O8 0.099317 0.500000 0.500000
O O9 0.000000 0.671001 0.500000
O O10 0.813442 0.500000 0.758692
O O11 0.750000 0.250000 0.727168
O O12 0.820472 0.258506 0.846739
O O13 0.366739 0.000000 0.083440
O O14 0.348267 0.757072 0.000000
#
# Coordination Sequence:
#
# PCOD9492510 Si02
#       5
#     8  16   8  16  16
#     4   7  10  20  40  68  99 126 163 222 281 329
#     4  10  21  38  61  88 119 153 188 230 283 339
#     4   9  17  33  60  93 122 147 184 229 273 331
#     4  11  23  37  55  80 115 154 196 242 289 342
#     4   8  15  28  48  75 106 142 186 237 290 341
#
# _framework density 19.66339
#
# number of rings (size 3 to 8) (size 9 to 14) (size 15 to 20)
#    0.000    2.750    0.000    3.375    1.750    3.500 
#    0.000    0.625    0.000    2.250    0.000    1.750 
#    0.000    0.000    0.000    0.000    0.000    0.000 
#
# Total GULP energy -178303.919402 kJ/mol
# GULP energy per Si atom -5571.997481 kJ/mol
# Density = 1.961864 g / cm^3
# Si number density = 19.663390 Si / 1000 Ang^3
#
#
#
# Elastic Constant Matrix: (Units=GPa)
#
#
# Indices 1 2 3 4 5 6 
#
# 1 122.2822 28.1678 64.5845 0.0000 0.0000 0.0000
# 2 28.1678 39.4565 21.3465 0.0000 0.0000 0.0000
# 3 64.5845 21.3465 109.3657 0.0000 0.0000 0.0000
# 4 0.0000 0.0000 0.0000 1.2791 0.0000 0.0000
# 5 0.0000 0.0000 0.0000 0.0000 -15.2027 0.0000
# 6 0.0000 0.0000 0.0000 0.0000 0.0000 19.6838
#
#
#
# Elastic Compliance Matrix: (Units=1/GPa)
#
#
# Indices 1 2 3 4 5 6 
#
# 1 0.012940 -0.005706 -0.006528 0.000000 0.000000 0.000000
# 2 -0.005706 0.030853 -0.002652 0.000000 0.000000 0.000000
# 3 -0.006528 -0.002652 0.013516 0.000000 0.000000 0.000000
# 4 0.000000 0.000000 0.000000 0.781775 0.000000 0.000000
# 5 0.000000 0.000000 0.000000 0.000000 -0.065778 0.000000
# 6 0.000000 0.000000 0.000000 0.000000 0.000000 0.050803
#
#
# Mechanical properties :
#
#
# Convention : Reuss Voigt Hill
#
# Bulk Modulus (GPa) = 36.31534 55.47800 45.89667
# Shear Modulus (GPa) = 5.79333 11.61909 8.70621
#
# Velocity S-wave (km/s) = 1.71833 2.43348 2.10648
# Velocity P-wave (km/s) = 4.73766 6.01422 5.41370
#
# Compressibility (1/GPa) = 0.02753657
#
# Stress axis : x y z
#
# Youngs Moduli (GPa) = 77.28031 32.41192 73.98523
#
# Poissons Ratio (x) = 0.18495 0.48296
# Poissons Ratio (y) = 0.44097 0.19623
# Poissons Ratio (z) = 0.50447 0.08597
#
# Static dielectric constant tensor:
#      x y z
#    x 1.705240 0.000000 0.000000 
#    y 0.000000 1.677040 0.000000 
#    z 0.000000 0.000000 1.699150 
# 
# From -- ./inp_files/55284.got.cif
#   From: 2010.05.17/outbox.cif.g08.bks.cpg/sg65_28_cif.got.tgz:55284.got - 2010.06.03 17:01:31.
