data_PCOD9492603
_publ_section_title
;
Structure prediction by ZEFSAII (Michael W. Deem and Ramdas Pophale) SiO2 
 PCOD9492603
Probable space group: C M M M
;
_chemical_formula_sum "Si O2"
_cell_formula_units_Z 72
_cell_length_a 15.917254
_cell_length_b 8.810869
_cell_length_c 25.440350
_cell_angle_alpha 90.000000
_cell_angle_beta 90.000000
_cell_angle_gamma 90.000000
_cell_volume 3567.877811
_symmetry_space_group_name_H-M "C M M M"
_symmetry_group_IT_number 65
_symmetry_cell_setting 'orthorhombic'
loop_
_space_group_symop_operation_xyz
x,y,z
-x,-y,z
x,-y,-z
-x,y,-z
-x,-y,-z
x,y,-z
-x,y,z
x,-y,z
1/2+x,1/2+y,z
1/2-x,1/2-y,z
1/2+x,1/2-y,-z
1/2-x,1/2+y,-z
1/2-x,1/2-y,-z
1/2+x,1/2+y,-z
1/2-x,1/2+y,z
1/2+x,1/2-y,z
loop_
_atom_site_type_symbol
_atom_site_label
_atom_site_fract_x
_atom_site_fract_y
_atom_site_fract_z
Si Si1 0.000000 0.679782 0.062605
Si Si2 0.161991 0.182358 0.119168
Si Si3 0.155313 0.181890 0.557470
Si Si4 0.343425 0.820334 0.663105
Si Si5 0.902180 0.175436 0.231633
O O1 0.917011 0.753922 0.087394
O O2 0.000000 0.500000 0.073915
O O3 0.000000 0.701334 0.000000
O O4 0.250000 0.250000 0.100152
O O5 0.149058 0.225906 0.180566
O O6 0.162399 0.000000 0.116511
O O7 0.117259 0.217479 0.500000
O O8 0.250000 0.250000 0.556288
O O9 0.116052 0.250743 0.610166
O O10 0.159798 0.000000 0.562325
O O11 0.250000 0.750000 0.667330
O O12 0.388639 0.773615 0.716622
O O13 0.337967 0.000000 0.657607
O O14 0.000000 0.178194 0.216451
O O15 0.879589 0.000000 0.244008
#
# Coordination Sequence:
#
# PCOD9492603 Si02
#       5
#     8  16  16  16  16
#     4  11  25  45  69  99 135 175 218 265 314 367
#     4  11  23  42  68  99 131 171 216 263 319 375
#     4   9  16  27  45  69  99 137 181 233 293 354
#     4  11  21  32  50  78 110 146 188 237 294 357
#     4  10  21  39  60  84 116 153 196 247 305 366
#
# _framework density 20.180063000000001
#
# number of rings (size 3 to 8) (size 9 to 14) (size 15 to 20)
#    0.000    1.667    1.111    5.667    0.000    6.667 
#    0.000    0.000    0.000    0.667    0.000    4.667 
#    0.000    0.000    0.000    0.000    0.000    0.000 
#
# Total GULP energy -201107.260725 kJ/mol
# GULP energy per Si atom -5586.312798 kJ/mol
# Density = 2.013413 g / cm^3
# Si number density = 20.180063 Si / 1000 Ang^3
#
#
#
# Elastic Constant Matrix: (Units=GPa)
#
#
# Indices 1 2 3 4 5 6 
#
# 1 97.5105 34.8092 49.5417 0.0000 0.0000 0.0000
# 2 34.8092 105.6811 65.1704 0.0000 0.0000 0.0000
# 3 49.5417 65.1704 109.7836 0.0000 0.0000 0.0000
# 4 0.0000 0.0000 0.0000 -15.4632 0.0000 0.0000
# 5 0.0000 0.0000 0.0000 0.0000 16.8872 0.0000
# 6 0.0000 0.0000 0.0000 0.0000 0.0000 24.2771
#
#
#
# Elastic Compliance Matrix: (Units=1/GPa)
#
#
# Indices 1 2 3 4 5 6 
#
# 1 0.013384 -0.001079 -0.005399 0.000000 0.000000 0.000000
# 2 -0.001079 0.015014 -0.008426 0.000000 0.000000 0.000000
# 3 -0.005399 -0.008426 0.016547 0.000000 0.000000 0.000000
# 4 0.000000 0.000000 0.000000 -0.064669 0.000000 0.000000
# 5 0.000000 0.000000 0.000000 0.000000 0.059216 0.000000
# 6 0.000000 0.000000 0.000000 0.000000 0.000000 0.041191
#
#
# Mechanical properties :
#
#
# Convention : Reuss Voigt Hill
#
# Bulk Modulus (GPa) = 66.06350 68.00200 67.03275
# Shear Modulus (GPa) = 43.27699 16.03715 29.65707
#
# Velocity S-wave (km/s) = 4.63594 2.82211 3.83772
# Velocity P-wave (km/s) = 7.83990 6.66257 7.27509
#
# Compressibility (1/GPa) = 0.01513695
#
# Stress axis : x y z
#
# Youngs Moduli (GPa) = 74.71872 66.60624 60.43397
#
# Poissons Ratio (x) = 0.07185 0.32629
# Poissons Ratio (y) = 0.08060 0.50920
# Poissons Ratio (z) = 0.40342 0.56120
#
# Static dielectric constant tensor:
#      x y z
#    x 1.721440 0.000000 0.000000 
#    y 0.000000 1.678000 0.000000 
#    z 0.000000 0.000000 1.744770 
# 
# From -- ./inp_files/74592.got.cif
#   From: 2010.05.17/outbox.cif.g08.bks.cpg/sg65_38_cif.got.tgz:74592.got - 2010.06.03 17:01:31.
