data_PCOD9492658
_publ_section_title
;
Structure prediction by ZEFSAII (Michael W. Deem and Ramdas Pophale) SiO2 
 PCOD9492658
Probable space group: C M M M
;
_chemical_formula_sum "Si O2"
_cell_formula_units_Z 64
_cell_length_a 9.131926
_cell_length_b 15.233342
_cell_length_c 23.475941
_cell_angle_alpha 90.000000
_cell_angle_beta 90.000000
_cell_angle_gamma 90.000000
_cell_volume 3265.732328
_symmetry_space_group_name_H-M "C M M M"
_symmetry_group_IT_number 65
_symmetry_cell_setting 'orthorhombic'
loop_
_space_group_symop_operation_xyz
x,y,z
-x,-y,z
x,-y,-z
-x,y,-z
-x,-y,-z
x,y,-z
-x,y,z
x,-y,z
1/2+x,1/2+y,z
1/2-x,1/2-y,z
1/2+x,1/2-y,-z
1/2-x,1/2+y,-z
1/2-x,1/2-y,-z
1/2+x,1/2+y,-z
1/2-x,1/2+y,z
1/2+x,1/2-y,z
loop_
_atom_site_type_symbol
_atom_site_label
_atom_site_fract_x
_atom_site_fract_y
_atom_site_fract_z
Si Si1 0.826617 0.000000 0.431877
Si Si2 0.177091 0.346886 0.638312
Si Si3 0.664281 0.104035 0.110788
Si Si4 0.334077 0.607984 0.000000
Si Si5 0.823815 0.344289 0.765042
O O1 0.748055 0.085524 0.405627
O O2 0.812826 0.000000 0.500000
O O3 0.000000 0.000000 0.417616
O O4 0.250000 0.250000 0.633229
O O5 0.209073 0.382837 0.702633
O O6 0.000000 0.340773 0.631884
O O7 0.500000 0.141679 0.108565
O O8 0.723937 0.114701 0.174901
O O9 0.652906 0.000000 0.101827
O O10 0.757045 0.138232 0.058013
O O11 0.333085 0.500000 0.000000
O O12 0.500000 0.637109 0.000000
O O13 0.750000 0.250000 0.764163
O O14 0.000000 0.339149 0.767148
#
# Coordination Sequence:
#
# PCOD9492658 Si02
#       5
#     8  16  16   8  16
#     4  11  25  43  63  91 125 160 203 248 289 345
#     4  10  21  39  64  91 124 161 199 245 299 354
#     4   9  17  30  50  72  97 133 176 218 267 327
#     4   9  17  29  44  67 100 131 169 221 274 323
#     4   9  19  34  54  79 108 140 177 224 275 334
#
# _framework density 19.597442000000001
#
# number of rings (size 3 to 8) (size 9 to 14) (size 15 to 20)
#    0.000    2.500    0.000    1.500    1.750    5.000 
#    0.000    0.625    0.000    0.000    0.000    0.000 
#    0.000    0.000    0.000    0.000    0.000    0.000 
#
# Total GULP energy -178308.379411 kJ/mol
# GULP energy per Si atom -5572.136857 kJ/mol
# Density = 1.955284 g / cm^3
# Si number density = 19.597442 Si / 1000 Ang^3
#
#
#
# Elastic Constant Matrix: (Units=GPa)
#
#
# Indices 1 2 3 4 5 6 
#
# 1 82.5763 36.0227 85.3081 0.0000 0.0000 0.0000
# 2 36.0227 60.9868 48.7755 0.0000 0.0000 0.0000
# 3 85.3081 48.7755 166.2697 0.0000 0.0000 0.0000
# 4 0.0000 0.0000 0.0000 74.2722 0.0000 0.0000
# 5 0.0000 0.0000 0.0000 0.0000 -12.0413 0.0000
# 6 0.0000 0.0000 0.0000 0.0000 0.0000 21.6055
#
#
#
# Elastic Compliance Matrix: (Units=1/GPa)
#
#
# Indices 1 2 3 4 5 6 
#
# 1 0.027612 -0.006505 -0.012259 0.000000 0.000000 0.000000
# 2 -0.006505 0.022956 -0.003396 0.000000 0.000000 0.000000
# 3 -0.012259 -0.003396 0.013300 0.000000 0.000000 0.000000
# 4 0.000000 0.000000 0.000000 0.013464 0.000000 0.000000
# 5 0.000000 0.000000 0.000000 0.000000 -0.083047 0.000000
# 6 0.000000 0.000000 0.000000 0.000000 0.000000 0.046285
#
#
# Mechanical properties :
#
#
# Convention : Reuss Voigt Hill
#
# Bulk Modulus (GPa) = 51.15791 72.22727 61.69259
# Shear Modulus (GPa) = 54.70121 26.08237 40.39179
#
# Velocity S-wave (km/s) = 5.28895 3.65212 4.54483
# Velocity P-wave (km/s) = 7.96608 7.39726 7.68693
#
# Compressibility (1/GPa) = 0.01954732
#
# Stress axis : x y z
#
# Youngs Moduli (GPa) = 36.21624 43.56185 75.18714
#
# Poissons Ratio (x) = 0.28339 0.92168
# Poissons Ratio (y) = 0.23560 0.25537
# Poissons Ratio (z) = 0.44396 0.14795
#
# Static dielectric constant tensor:
#      x y z
#    x 1.674210 0.000000 0.000000 
#    y 0.000000 1.683200 0.000000 
#    z 0.000000 0.000000 1.725170 
# 
# From -- ./inp_files/66819.got.cif
#   From: 2010.05.17/outbox.cif.g08.bks.cpg/sg65_34_cif.got.tgz:66819.got - 2010.06.03 17:01:31.
