data_PCOD9492228
_publ_section_title
;
Structure prediction by ZEFSAII (Michael W. Deem and Ramdas Pophale) SiO2 
 PCOD9492228
Probable space group: C M M M
;
_chemical_formula_sum "Si O2"
_cell_formula_units_Z 112
_cell_length_a 14.683119
_cell_length_b 15.881858
_cell_length_c 24.856624
_cell_angle_alpha 90.000000
_cell_angle_beta 90.000000
_cell_angle_gamma 90.000000
_cell_volume 5796.445677
_symmetry_space_group_name_H-M "C M M M"
_symmetry_group_IT_number 65
_symmetry_cell_setting 'orthorhombic'
loop_
_space_group_symop_operation_xyz
x,y,z
-x,-y,z
x,-y,-z
-x,y,-z
-x,-y,-z
x,y,-z
-x,y,z
x,-y,z
1/2+x,1/2+y,z
1/2-x,1/2-y,z
1/2+x,1/2-y,-z
1/2-x,1/2+y,-z
1/2-x,1/2-y,-z
1/2+x,1/2+y,-z
1/2-x,1/2+y,z
1/2+x,1/2-y,z
loop_
_atom_site_type_symbol
_atom_site_label
_atom_site_fract_x
_atom_site_fract_y
_atom_site_fract_z
Si Si1 0.107599 0.721166 0.146890
Si Si2 0.396983 0.405170 0.898195
Si Si3 0.797860 0.592796 0.359301
Si Si4 0.600822 0.354391 0.347652
Si Si5 0.396101 0.788058 0.437968
Si Si6 0.892936 0.299044 0.268665
Si Si7 0.300487 0.902471 0.939024
O O1 0.114439 0.822074 0.138305
O O2 0.138679 0.700394 0.207275
O O3 0.160277 0.665448 0.102818
O O4 0.000000 0.700973 0.142345
O O5 0.500000 0.399158 0.921552
O O6 0.391954 0.500000 0.873162
O O7 0.309725 0.400225 0.936730
O O8 0.836428 0.500000 0.364012
O O9 0.689676 0.590380 0.352595
O O10 0.826854 0.647461 0.410764
O O11 0.838435 0.639529 0.307456
O O12 0.500000 0.392907 0.344875
O O13 0.603706 0.293429 0.399847
O O14 0.612785 0.292821 0.296211
O O15 0.375672 0.769837 0.500000
O O16 0.500000 0.822178 0.434824
O O17 0.000000 0.321718 0.269913
O O18 0.326507 0.000000 0.925804
O O19 0.330647 0.884152 0.000000
#
# Coordination Sequence:
#
# PCOD9492228 Si02
#       7
#    16  16  16  16  16  16  16
#     4  10  21  37  59  84 109 142 181 222 274 332
#     4   9  19  36  57  82 110 138 174 223 276 329
#     4  11  22  33  51  81 113 143 174 216 270 321
#     4   9  19  36  55  75 103 140 181 221 259 308
#     4   9  18  34  57  81 104 137 182 227 269 315
#     4   9  19  37  58  78 102 135 177 221 263 313
#     4  10  22  38  55  79 111 146 185 226 267 318
#
# _framework density 19.322187
#
# number of rings (size 3 to 8) (size 9 to 14) (size 15 to 20)
#    0.000    2.429    0.000    3.429    0.000    7.714 
#    0.000    7.857    0.000    2.571    0.000    3.000 
#    0.000    0.000    0.000    0.000    0.000    0.000 
#
# Total GULP energy -312124.004023 kJ/mol
# GULP energy per Si atom -5573.642929 kJ/mol
# Density = 1.927821 g / cm^3
# Si number density = 19.322187 Si / 1000 Ang^3
#
#
#
# Elastic Constant Matrix: (Units=GPa)
#
#
# Indices 1 2 3 4 5 6 
#
# 1 74.2810 30.0601 29.5238 0.0000 0.0000 0.0000
# 2 30.0601 79.5978 43.4045 0.0000 0.0000 0.0000
# 3 29.5238 43.4045 127.8849 0.0000 0.0000 0.0000
# 4 0.0000 0.0000 0.0000 -2.6868 0.0000 0.0000
# 5 0.0000 0.0000 0.0000 0.0000 21.0039 0.0000
# 6 0.0000 0.0000 0.0000 0.0000 0.0000 -20.8239
#
#
#
# Elastic Compliance Matrix: (Units=1/GPa)
#
#
# Indices 1 2 3 4 5 6 
#
# 1 0.016320 -0.005042 -0.002056 0.000000 0.000000 0.000000
# 2 -0.005042 0.016974 -0.004597 0.000000 0.000000 0.000000
# 3 -0.002056 -0.004597 0.009855 0.000000 0.000000 0.000000
# 4 0.000000 0.000000 0.000000 -0.372183 0.000000 0.000000
# 5 0.000000 0.000000 0.000000 0.000000 0.047610 0.000000
# 6 0.000000 0.000000 0.000000 0.000000 0.000000 -0.048022
#
#
# Mechanical properties :
#
#
# Convention : Reuss Voigt Hill
#
# Bulk Modulus (GPa) = 50.61282 54.19338 52.40310
# Shear Modulus (GPa) = -16.69619 11.41698 -2.63960
#
# Velocity S-wave (km/s) = -2.94274 2.43343 -1.17007
# Velocity P-wave (km/s) = 3.83468 6.00030 5.03529
#
# Compressibility (1/GPa) = 0.01975784
#
# Stress axis : x y z
#
# Youngs Moduli (GPa) = 61.27403 58.91360 101.47613
#
# Poissons Ratio (x) = 0.29704 0.20868
# Poissons Ratio (y) = 0.30894 0.46649
# Poissons Ratio (z) = 0.12601 0.27083
#
# Static dielectric constant tensor:
#      x y z
#    x 1.713430 0.000000 0.000000 
#    y 0.000000 1.668450 0.000000 
#    z 0.000000 0.000000 1.640570 
# 
# From -- ./inp_files/69991.got.cif
#   From: 2010.05.17/outbox.cif.g08.bks.cpg/sg65_35_cif.got.tgz:69991.got - 2010.06.03 17:01:31.
