data_PCOD9492483
_publ_section_title
;
Structure prediction by ZEFSAII (Michael W. Deem and Ramdas Pophale) SiO2 
 PCOD9492483
Probable space group: C M M M
;
_chemical_formula_sum "Si O2"
_cell_formula_units_Z 48
_cell_length_a 8.848563
_cell_length_b 39.095538
_cell_length_c 7.498514
_cell_angle_alpha 90.000000
_cell_angle_beta 90.000000
_cell_angle_gamma 90.000000
_cell_volume 2594.030917
_symmetry_space_group_name_H-M "C M M M"
_symmetry_group_IT_number 65
_symmetry_cell_setting 'orthorhombic'
loop_
_space_group_symop_operation_xyz
x,y,z
-x,-y,z
x,-y,-z
-x,y,-z
-x,-y,-z
x,y,-z
-x,y,z
x,-y,z
1/2+x,1/2+y,z
1/2-x,1/2-y,z
1/2+x,1/2-y,-z
1/2-x,1/2+y,-z
1/2-x,1/2-y,-z
1/2+x,1/2+y,-z
1/2-x,1/2+y,z
1/2+x,1/2-y,z
loop_
_atom_site_type_symbol
_atom_site_label
_atom_site_fract_x
_atom_site_fract_y
_atom_site_fract_z
Si Si1 0.318870 0.539958 0.000000
Si Si2 0.180361 0.712288 0.000000
Si Si3 0.320581 0.088982 0.289155
Si Si4 0.179455 0.162786 0.711433
O O1 0.251997 0.559459 0.170841
O O2 0.278163 0.500000 0.000000
O O3 0.500000 0.542872 0.000000
O O4 0.250000 0.750000 0.000000
O O5 0.239101 0.691186 0.170805
O O6 0.000000 0.713996 0.000000
O O7 0.296123 0.083071 0.500000
O O8 0.500000 0.090929 0.256723
O O9 0.245387 0.125410 0.243326
O O10 0.204089 0.168238 0.500000
O O11 0.000000 0.163333 0.745609
#
# Coordination Sequence:
#
# PCOD9492483 Si02
#       4
#     8   8  16  16
#     4  11  24  39  56  81 115 154 192 233 284 341
#     4  12  25  40  59  84 118 155 191 234 283 338
#     4  10  21  38  61  87 114 147 189 236 284 335
#     4  10  21  39  63  88 115 149 190 235 282 335
#
# _framework density 18.504021000000002
#
# number of rings (size 3 to 8) (size 9 to 14) (size 15 to 20)
#    0.000    1.500    0.000    5.000    0.000    6.667 
#    0.000    3.333    0.000    0.000    0.000    0.000 
#    0.000    0.000    0.000    0.000    0.000    0.000 
#
# Total GULP energy -134232.539480 kJ/mol
# GULP energy per Si atom -5593.022478 kJ/mol
# Density = 1.846191 g / cm^3
# Si number density = 18.504021 Si / 1000 Ang^3
#
#
#
# Elastic Constant Matrix: (Units=GPa)
#
#
# Indices 1 2 3 4 5 6 
#
# 1 148.0379 112.0689 81.7063 0.0000 0.0000 0.0000
# 2 112.0689 204.8969 102.1987 0.0000 0.0000 0.0000
# 3 81.7063 102.1987 95.3364 0.0000 0.0000 0.0000
# 4 0.0000 0.0000 0.0000-1002.0450 0.0000 0.0000
# 5 0.0000 0.0000 0.0000 0.0000 23.8149 0.0000
# 6 0.0000 0.0000 0.0000 0.0000 0.0000 35.4399
#
#
#
# Elastic Compliance Matrix: (Units=1/GPa)
#
#
# Indices 1 2 3 4 5 6 
#
# 1 0.013942 -0.003580 -0.008111 0.000000 0.000000 0.000000
# 2 -0.003580 0.011408 -0.009161 0.000000 0.000000 0.000000
# 3 -0.008111 -0.009161 0.027261 0.000000 0.000000 0.000000
# 4 0.000000 0.000000 0.000000 -0.000998 0.000000 0.000000
# 5 0.000000 0.000000 0.000000 0.000000 0.041991 0.000000
# 6 0.000000 0.000000 0.000000 0.000000 0.000000 0.028217
#
#
# Mechanical properties :
#
#
# Convention : Reuss Voigt Hill
#
# Bulk Modulus (GPa) = 91.68482 115.57990 103.63236
# Shear Modulus (GPa) = 29.91165 -178.40490 -74.24663
#
# Velocity S-wave (km/s) = 4.02493 -9.82972 -6.34127
# Velocity P-wave (km/s) = 8.44134 8.13840 1.58471
#
# Compressibility (1/GPa) = 0.01090693
#
# Stress axis : x y z
#
# Youngs Moduli (GPa) = 71.72680 87.65928 36.68271
#
# Poissons Ratio (x) = 0.31381 0.29753
# Poissons Ratio (y) = 0.25677 0.33605
# Poissons Ratio (z) = 0.58177 0.80303
#
# Static dielectric constant tensor:
#      x y z
#    x 1.613810 0.000000 0.000000 
#    y 0.000000 1.588790 0.000000 
#    z 0.000000 0.000000 1.640690 
# 
# From -- ./inp_files/3030.got.cif
#   From: 2010.05.17/outbox.cif.g08.bks.cpg/sg65_2_cif.got.tgz:3030.got - 2010.06.03 17:01:31.
