data_PCOD9492923
_publ_section_title
;
Structure prediction by ZEFSAII (Michael W. Deem and Ramdas Pophale) SiO2 
 PCOD9492923
Probable space group: C M M M
;
_chemical_formula_sum "Si O2"
_cell_formula_units_Z 80
_cell_length_a 7.762307
_cell_length_b 20.004471
_cell_length_c 23.622626
_cell_angle_alpha 90.000000
_cell_angle_beta 90.000000
_cell_angle_gamma 90.000000
_cell_volume 3668.141333
_symmetry_space_group_name_H-M "C M M M"
_symmetry_group_IT_number 65
_symmetry_cell_setting 'orthorhombic'
loop_
_space_group_symop_operation_xyz
x,y,z
-x,-y,z
x,-y,-z
-x,y,-z
-x,-y,-z
x,y,-z
-x,y,z
x,-y,z
1/2+x,1/2+y,z
1/2-x,1/2-y,z
1/2+x,1/2-y,-z
1/2-x,1/2+y,-z
1/2-x,1/2-y,-z
1/2+x,1/2+y,-z
1/2-x,1/2+y,z
1/2+x,1/2-y,z
loop_
_atom_site_type_symbol
_atom_site_label
_atom_site_fract_x
_atom_site_fract_y
_atom_site_fract_z
Si Si1 0.205119 0.820809 0.182515
Si Si2 0.794501 0.424242 0.723852
Si Si3 0.293413 0.171453 0.500000
Si Si4 0.192776 0.500000 0.067713
Si Si5 0.708163 0.828564 0.624042
Si Si6 0.799657 0.852351 0.936691
O O1 0.250000 0.750000 0.210745
O O2 0.265905 0.883619 0.218479
O O3 0.282169 0.820044 0.118848
O O4 0.000000 0.825555 0.178197
O O5 0.725734 0.500000 0.724826
O O6 0.725781 0.376965 0.673393
O O7 0.000000 0.428993 0.715792
O O8 0.500000 0.162718 0.500000
O O9 0.250000 0.250000 0.500000
O O10 0.229818 0.148091 0.561531
O O11 0.289024 0.568891 0.078521
O O12 0.000000 0.500000 0.093026
O O13 0.174141 0.500000 0.000000
O O14 0.500000 0.832140 0.623955
O O15 0.750000 0.750000 0.632340
O O16 0.000000 0.833063 0.940487
O O17 0.724256 0.841435 0.000000
#
# Coordination Sequence:
#
# PCOD9492923 Si02
#       6
#    16  16   8   8  16  16
#     4  11  24  40  59  82 108 141 182 225 275 333
#     4  10  22  39  57  79 110 147 185 229 277 324
#     4   8  14  26  47  77 109 141 179 222 263 314
#     4   9  17  29  49  79 109 137 171 210 255 310
#     4   9  17  31  53  80 110 144 183 224 270 318
#     4   9  19  36  56  78 107 141 175 216 269 328
#
# _framework density 21.80941
#
# number of rings (size 3 to 8) (size 9 to 14) (size 15 to 20)
#    0.000    2.500    0.000    1.500    1.400    6.000 
#    0.000    0.500    0.000    3.000    0.000    0.000 
#    0.000    9.600    0.000    0.000    0.000    0.000 
#
# Total GULP energy -223012.511933 kJ/mol
# GULP energy per Si atom -5575.312798 kJ/mol
# Density = 2.175977 g / cm^3
# Si number density = 21.809410 Si / 1000 Ang^3
#
#
#
# Elastic Constant Matrix: (Units=GPa)
#
#
# Indices 1 2 3 4 5 6 
#
# 1 41.3162 -1.5634 6.0849 0.0000 0.0000 0.0000
# 2 -1.5634 138.4930 75.4661 0.0000 0.0000 0.0000
# 3 6.0849 75.4661 166.1111 0.0000 0.0000 0.0000
# 4 0.0000 0.0000 0.0000 29.5494 0.0000 0.0000
# 5 0.0000 0.0000 0.0000 0.0000 18.0657 0.0000
# 6 0.0000 0.0000 0.0000 0.0000 0.0000 12.4151
#
#
#
# Elastic Compliance Matrix: (Units=1/GPa)
#
#
# Indices 1 2 3 4 5 6 
#
# 1 0.024442 0.001015 -0.001357 0.000000 0.000000 0.000000
# 2 0.001015 0.009638 -0.004416 0.000000 0.000000 0.000000
# 3 -0.001357 -0.004416 0.008076 0.000000 0.000000 0.000000
# 4 0.000000 0.000000 0.000000 0.033842 0.000000 0.000000
# 5 0.000000 0.000000 0.000000 0.000000 0.055353 0.000000
# 6 0.000000 0.000000 0.000000 0.000000 0.000000 0.080547
#
#
# Mechanical properties :
#
#
# Convention : Reuss Voigt Hill
#
# Bulk Modulus (GPa) = 30.63601 56.21059 43.42330
# Shear Modulus (GPa) = 21.52449 29.73489 25.62969
#
# Velocity S-wave (km/s) = 3.14496 3.69643 3.43179
# Velocity P-wave (km/s) = 5.22162 6.63684 5.97130
#
# Compressibility (1/GPa) = 0.03264133
#
# Stress axis : x y z
#
# Youngs Moduli (GPa) = 40.91353 103.75205 123.82369
#
# Poissons Ratio (x) = -0.10532 0.16797
# Poissons Ratio (y) = -0.04153 0.54681
# Poissons Ratio (z) = 0.05550 0.45817
#
# Static dielectric constant tensor:
#      x y z
#    x 1.777680 0.000000 0.000000 
#    y 0.000000 1.793800 0.000000 
#    z 0.000000 0.000000 1.867260 
# 
# From -- ./inp_files/67285.got.cif
#   From: 2010.05.17/outbox.cif.g08.bks.cpg/sg65_34_cif.got.tgz:67285.got - 2010.06.03 17:01:31.
