data_PCOD9492210
_publ_section_title
;
Structure prediction by ZEFSAII (Michael W. Deem and Ramdas Pophale) SiO2 
 PCOD9492210
Probable space group: C M M M
;
_chemical_formula_sum "Si O2"
_cell_formula_units_Z 88
_cell_length_a 21.365431
_cell_length_b 8.819044
_cell_length_c 24.258745
_cell_angle_alpha 90.000000
_cell_angle_beta 90.000000
_cell_angle_gamma 90.000000
_cell_volume 4570.897651
_symmetry_space_group_name_H-M "C M M M"
_symmetry_group_IT_number 65
_symmetry_cell_setting 'orthorhombic'
loop_
_space_group_symop_operation_xyz
x,y,z
-x,-y,z
x,-y,-z
-x,y,-z
-x,-y,-z
x,y,-z
-x,y,z
x,-y,z
1/2+x,1/2+y,z
1/2-x,1/2-y,z
1/2+x,1/2-y,-z
1/2-x,1/2+y,-z
1/2-x,1/2-y,-z
1/2+x,1/2+y,-z
1/2-x,1/2+y,z
1/2+x,1/2-y,z
loop_
_atom_site_type_symbol
_atom_site_label
_atom_site_fract_x
_atom_site_fract_y
_atom_site_fract_z
Si Si1 0.929034 0.681267 0.636192
Si Si2 0.000000 0.829574 0.066705
Si Si3 0.368294 0.182307 0.062367
Si Si4 0.314164 0.818593 0.824988
Si Si5 0.429413 0.318337 0.241431
Si Si6 0.183016 0.180339 0.434357
O O1 0.922577 0.500000 0.642116
O O2 0.924083 0.758840 0.696014
O O3 0.874814 0.744900 0.597337
O O4 0.000000 0.712195 0.615374
O O5 0.936466 0.742881 0.079823
O O6 0.000000 0.000000 0.089630
O O7 0.000000 0.839282 0.000000
O O8 0.321799 0.228165 0.110801
O O9 0.370610 0.000000 0.060727
O O10 0.354021 0.236463 0.000000
O O11 0.250000 0.750000 0.802400
O O12 0.374740 0.756948 0.793643
O O13 0.312513 0.000000 0.821641
O O14 0.500000 0.279205 0.221728
O O15 0.423286 0.500000 0.240205
O O16 0.176477 0.207299 0.500000
O O17 0.250000 0.250000 0.417137
O O18 0.183525 0.000000 0.424854
#
# Coordination Sequence:
#
# PCOD9492210 Si02
#       6
#    16   8  16  16  16  16
#     4  10  21  38  61  89 120 154 195 243 293 347
#     4   9  17  29  49  79 109 137 175 223 268 317
#     4   9  19  36  56  79 110 148 186 226 279 342
#     4  11  24  40  59  84 115 150 190 236 286 345
#     4  10  22  41  64  88 115 149 190 240 293 347
#     4  10  21  37  58  86 122 163 205 247 291 342
#
# _framework density 19.252236
#
# number of rings (size 3 to 8) (size 9 to 14) (size 15 to 20)
#    0.000    2.091    0.000    2.455    1.273    7.273 
#    0.000    5.455    0.000    0.000    0.000    0.000 
#    0.000    0.000    0.000    0.000    0.000    0.000 
#
# Total GULP energy -245705.377492 kJ/mol
# GULP energy per Si atom -5584.213125 kJ/mol
# Density = 1.920842 g / cm^3
# Si number density = 19.252236 Si / 1000 Ang^3
#
#
#
# Elastic Constant Matrix: (Units=GPa)
#
#
# Indices 1 2 3 4 5 6 
#
# 1 177.6055 63.2577 73.9157 0.0000 0.0000 0.0000
# 2 63.2577 54.0010 40.0677 0.0000 0.0000 0.0000
# 3 73.9157 40.0677 59.9932 0.0000 0.0000 0.0000
# 4 0.0000 0.0000 0.0000 23.6088 0.0000 0.0000
# 5 0.0000 0.0000 0.0000 0.0000 7.5815 0.0000
# 6 0.0000 0.0000 0.0000 0.0000 0.0000 29.7117
#
#
#
# Elastic Compliance Matrix: (Units=1/GPa)
#
#
# Indices 1 2 3 4 5 6 
#
# 1 0.012586 -0.006418 -0.011220 0.000000 0.000000 0.000000
# 2 -0.006418 0.039983 -0.018795 0.000000 0.000000 0.000000
# 3 -0.011220 -0.018795 0.043046 0.000000 0.000000 0.000000
# 4 0.000000 0.000000 0.000000 0.042357 0.000000 0.000000
# 5 0.000000 0.000000 0.000000 0.000000 0.131900 0.000000
# 6 0.000000 0.000000 0.000000 0.000000 0.000000 0.033657
#
#
# Mechanical properties :
#
#
# Convention : Reuss Voigt Hill
#
# Bulk Modulus (GPa) = 43.96326 71.78688 57.87507
# Shear Modulus (GPa) = 13.02156 19.80429 16.41293
#
# Velocity S-wave (km/s) = 2.60353 3.21078 2.92296
# Velocity P-wave (km/s) = 5.65002 7.14940 6.44347
#
# Compressibility (1/GPa) = 0.02274627
#
# Stress axis : x y z
#
# Youngs Moduli (GPa) = 79.45222 25.01093 23.23114
#
# Poissons Ratio (x) = 0.16053 0.26066
# Poissons Ratio (y) = 0.50995 0.43664
# Poissons Ratio (z) = 0.89149 0.47009
#
# Static dielectric constant tensor:
#      x y z
#    x 1.652580 0.000000 0.000000 
#    y 0.000000 1.641970 0.000000 
#    z 0.000000 0.000000 1.677290 
# 
# From -- ./inp_files/70943.got.cif
#   From: 2010.05.17/outbox.cif.g08.bks.cpg/sg65_36_cif.got.tgz:70943.got - 2010.06.03 17:01:31.
