data_PCOD9492395
_publ_section_title
;
Structure prediction by ZEFSAII (Michael W. Deem and Ramdas Pophale) SiO2 
 PCOD9492395
Probable space group: C M M M
;
_chemical_formula_sum "Si O2"
_cell_formula_units_Z 72
_cell_length_a 8.949195
_cell_length_b 16.680089
_cell_length_c 25.087952
_cell_angle_alpha 90.000000
_cell_angle_beta 90.000000
_cell_angle_gamma 90.000000
_cell_volume 3744.963118
_symmetry_space_group_name_H-M "C M M M"
_symmetry_group_IT_number 65
_symmetry_cell_setting 'orthorhombic'
loop_
_space_group_symop_operation_xyz
x,y,z
-x,-y,z
x,-y,-z
-x,y,-z
-x,-y,-z
x,y,-z
-x,y,z
x,-y,z
1/2+x,1/2+y,z
1/2-x,1/2-y,z
1/2+x,1/2-y,-z
1/2-x,1/2+y,-z
1/2-x,1/2-y,-z
1/2+x,1/2+y,-z
1/2-x,1/2+y,z
1/2+x,1/2-y,z
loop_
_atom_site_type_symbol
_atom_site_label
_atom_site_fract_x
_atom_site_fract_y
_atom_site_fract_z
Si Si1 0.324333 0.500000 0.436076
Si Si2 0.177237 0.336016 0.260961
Si Si3 0.665845 0.593728 0.161476
Si Si4 0.679319 0.161041 0.386245
Si Si5 0.678348 0.162338 0.057855
O O1 0.500000 0.500000 0.420469
O O2 0.315140 0.500000 0.500000
O O3 0.248487 0.583145 0.415613
O O4 0.250000 0.250000 0.250940
O O5 0.252228 0.391773 0.217300
O O6 0.205401 0.354648 0.323102
O O7 0.000000 0.333779 0.253268
O O8 0.500000 0.631757 0.162467
O O9 0.650348 0.500000 0.154765
O O10 0.757585 0.623309 0.110798
O O11 0.500000 0.165208 0.395440
O O12 0.750000 0.250000 0.398638
O O13 0.500000 0.167433 0.061454
O O14 0.750000 0.250000 0.056426
O O15 0.714957 0.123293 0.000000
#
# Coordination Sequence:
#
# PCOD9492395 Si02
#       5
#     8  16  16  16  16
#     4  11  25  43  65  95 131 173 216 261 314 371
#     4  10  21  38  61  87 117 152 194 242 294 352
#     4  11  24  38  54  81 115 152 190 233 290 349
#     4  10  22  41  66  96 128 168 214 263 319 375
#     4  10  21  38  60  82 106 142 187 236 289 346
#
# _framework density 19.225823999999999
#
# number of rings (size 3 to 8) (size 9 to 14) (size 15 to 20)
#    0.000    1.667    0.000    3.667    1.556    7.556 
#    0.000    2.222    0.000    0.000    0.000    0.000 
#    0.000    0.000    0.000    0.000    0.000    0.000 
#
# Total GULP energy -200840.360759 kJ/mol
# GULP energy per Si atom -5578.898910 kJ/mol
# Density = 1.918207 g / cm^3
# Si number density = 19.225824 Si / 1000 Ang^3
#
#
#
# Elastic Constant Matrix: (Units=GPa)
#
#
# Indices 1 2 3 4 5 6 
#
# 1 124.9009 62.6781 66.8651 0.0000 0.0000 0.0000
# 2 62.6781 108.7587 67.9697 0.0000 0.0000 0.0000
# 3 66.8651 67.9697 79.4730 0.0000 0.0000 0.0000
# 4 0.0000 0.0000 0.0000 42.8392 0.0000 0.0000
# 5 0.0000 0.0000 0.0000 0.0000 29.0498 0.0000
# 6 0.0000 0.0000 0.0000 0.0000 0.0000 27.3853
#
#
#
# Elastic Compliance Matrix: (Units=1/GPa)
#
#
# Indices 1 2 3 4 5 6 
#
# 1 0.014696 -0.001594 -0.011001 0.000000 0.000000 0.000000
# 2 -0.001594 0.019925 -0.015700 0.000000 0.000000 0.000000
# 3 -0.011001 -0.015700 0.035266 0.000000 0.000000 0.000000
# 4 0.000000 0.000000 0.000000 0.023343 0.000000 0.000000
# 5 0.000000 0.000000 0.000000 0.000000 0.034424 0.000000
# 6 0.000000 0.000000 0.000000 0.000000 0.000000 0.036516
#
#
# Mechanical properties :
#
#
# Convention : Reuss Voigt Hill
#
# Bulk Modulus (GPa) = 75.20498 78.68427 76.94463
# Shear Modulus (GPa) = 22.20332 27.56284 24.88308
#
# Velocity S-wave (km/s) = 3.40202 3.79045 3.60148
# Velocity P-wave (km/s) = 7.39143 7.75705 7.57645
#
# Compressibility (1/GPa) = 0.01329699
#
# Stress axis : x y z
#
# Youngs Moduli (GPa) = 68.04788 50.18792 28.35585
#
# Poissons Ratio (x) = 0.08000 0.31194
# Poissons Ratio (y) = 0.10847 0.44519
# Poissons Ratio (z) = 0.74859 0.78795
#
# Static dielectric constant tensor:
#      x y z
#    x 1.688390 0.000000 0.000000 
#    y 0.000000 1.658070 0.000000 
#    z 0.000000 0.000000 1.684060 
# 
# From -- ./inp_files/67137.got.cif
#   From: 2010.05.17/outbox.cif.g08.bks.cpg/sg65_34_cif.got.tgz:67137.got - 2010.06.03 17:01:31.
