data_PCOD9492919
_publ_section_title
;
Structure prediction by ZEFSAII (Michael W. Deem and Ramdas Pophale) SiO2 
 PCOD9492919
Probable space group: C M M M
;
_chemical_formula_sum "Si O2"
_cell_formula_units_Z 58
_cell_length_a 24.738823
_cell_length_b 7.862346
_cell_length_c 15.902118
_cell_angle_alpha 90.000000
_cell_angle_beta 90.000000
_cell_angle_gamma 90.000000
_cell_volume 3093.044420
_symmetry_space_group_name_H-M "C M M M"
_symmetry_group_IT_number 65
_symmetry_cell_setting 'orthorhombic'
loop_
_space_group_symop_operation_xyz
x,y,z
-x,-y,z
x,-y,-z
-x,y,-z
-x,-y,-z
x,y,-z
-x,y,z
x,-y,z
1/2+x,1/2+y,z
1/2-x,1/2-y,z
1/2+x,1/2-y,-z
1/2-x,1/2+y,-z
1/2-x,1/2-y,-z
1/2+x,1/2+y,-z
1/2-x,1/2+y,z
1/2+x,1/2-y,z
loop_
_atom_site_type_symbol
_atom_site_label
_atom_site_fract_x
_atom_site_fract_y
_atom_site_fract_z
Si Si1 0.813035 0.703231 0.593340
Si Si2 0.000000 0.686428 0.369142
Si Si3 0.602004 0.298990 0.268660
Si Si4 0.562797 0.706701 0.093850
Si Si5 0.500000 0.500000 0.500000
O O1 0.832552 0.764299 0.500000
O O2 0.818313 0.500000 0.593908
O O3 0.750000 0.750000 0.599237
O O4 0.846161 0.772755 0.672242
O O5 0.053206 0.702463 0.312921
O O6 0.000000 0.500000 0.409268
O O7 0.000000 0.848990 0.428672
O O8 0.589580 0.500000 0.269103
O O9 0.601309 0.243161 0.171069
O O10 0.500000 0.755037 0.111156
O O11 0.563327 0.500000 0.090606
O O12 0.577061 0.767847 0.000000
#
# Coordination Sequence:
#
# PCOD9492919 Si02
#       5
#    16   8  16  16   2
#     4  10  22  39  57  79 105 144 193 242 292 343
#     4  12  25  39  56  83 118 156 196 240 290 350
#     4  11  20  35  57  84 118 152 190 237 289 348
#     4   8  14  27  51  81 113 151 193 232 278 340
#     4  12  26  44  52  78 118 160 202 236 288 360
#
# _framework density 18.751752
#
# number of rings (size 3 to 8) (size 9 to 14) (size 15 to 20)
#    0.000    1.931    2.759    2.690    1.931    1.655 
#    0.000    0.000    0.000    4.966    0.000    0.000 
#    0.000    0.000    0.000    0.000    0.000    0.000 
#
# Total GULP energy -161461.622858 kJ/mol
# GULP energy per Si atom -5567.642168 kJ/mol
# Density = 1.870907 g / cm^3
# Si number density = 18.751752 Si / 1000 Ang^3
#
#
#
# Elastic Constant Matrix: (Units=GPa)
#
#
# Indices 1 2 3 4 5 6 
#
# 1 57.5830 2.3355 62.6605 0.0000 0.0000 0.0000
# 2 2.3355 88.0794 32.5779 0.0000 0.0000 0.0000
# 3 62.6605 32.5779 202.8537 0.0000 0.0000 0.0000
# 4 0.0000 0.0000 0.0000 504.5911 0.0000 0.0000
# 5 0.0000 0.0000 0.0000 0.0000 16.8968 0.0000
# 6 0.0000 0.0000 0.0000 0.0000 0.0000 14.8060
#
#
#
# Elastic Compliance Matrix: (Units=1/GPa)
#
#
# Indices 1 2 3 4 5 6 
#
# 1 0.026662 0.002487 -0.008635 0.000000 0.000000 0.000000
# 2 0.002487 0.012302 -0.002744 0.000000 0.000000 0.000000
# 3 -0.008635 -0.002744 0.008038 0.000000 0.000000 0.000000
# 4 0.000000 0.000000 0.000000 0.001982 0.000000 0.000000
# 5 0.000000 0.000000 0.000000 0.000000 0.059183 0.000000
# 6 0.000000 0.000000 0.000000 0.000000 0.000000 0.067540
#
#
# Mechanical properties :
#
#
# Convention : Reuss Voigt Hill
#
# Bulk Modulus (GPa) = 34.22592 60.40710 47.31651
# Shear Modulus (GPa) = 24.60265 123.98827 74.29546
#
# Velocity S-wave (km/s) = 3.62611 8.14030 6.30131
# Velocity P-wave (km/s) = 5.98526 10.98347 8.84477
#
# Compressibility (1/GPa) = 0.02921762
#
# Stress axis : x y z
#
# Youngs Moduli (GPa) = 37.50671 81.28535 124.41419
#
# Poissons Ratio (x) = -0.20215 1.07433
# Poissons Ratio (y) = -0.09327 0.34138
# Poissons Ratio (z) = 0.32387 0.22304
#
# Static dielectric constant tensor:
#      x y z
#    x 1.617120 0.000000 0.000000 
#    y 0.000000 1.675260 0.000000 
#    z 0.000000 0.000000 1.696400 
# 
# From -- ./inp_files/44990.got.cif
#   From: 2010.05.17/outbox.cif.g08.bks.cpg/sg65_23_cif.got.tgz:44990.got - 2010.06.03 17:01:31.
