data_PCOD9492137
_publ_section_title
;
Structure prediction by ZEFSAII (Michael W. Deem and Ramdas Pophale) SiO2 
 PCOD9492137
Probable space group: C M M M
;
_chemical_formula_sum "Si O2"
_cell_formula_units_Z 104
_cell_length_a 26.837066
_cell_length_b 8.580812
_cell_length_c 22.753168
_cell_angle_alpha 90.000000
_cell_angle_beta 90.000000
_cell_angle_gamma 90.000000
_cell_volume 5239.686398
_symmetry_space_group_name_H-M "C M M M"
_symmetry_group_IT_number 65
_symmetry_cell_setting 'orthorhombic'
loop_
_space_group_symop_operation_xyz
x,y,z
-x,-y,z
x,-y,-z
-x,y,-z
-x,-y,-z
x,y,-z
-x,y,z
x,-y,z
1/2+x,1/2+y,z
1/2-x,1/2-y,z
1/2+x,1/2-y,-z
1/2-x,1/2+y,-z
1/2-x,1/2-y,-z
1/2+x,1/2+y,-z
1/2-x,1/2+y,z
1/2+x,1/2-y,z
loop_
_atom_site_type_symbol
_atom_site_label
_atom_site_fract_x
_atom_site_fract_y
_atom_site_fract_z
Si Si1 0.695518 0.311892 0.568661
Si Si2 0.161628 0.688212 0.933711
Si Si3 0.500000 0.815758 0.569178
Si Si4 0.802468 0.184148 0.186133
Si Si5 0.445830 0.189309 0.887751
Si Si6 0.903687 0.685099 0.763780
Si Si7 0.595786 0.314097 0.634878
O O1 0.687398 0.266476 0.500000
O O2 0.697010 0.500000 0.570748
O O3 0.750000 0.250000 0.586684
O O4 0.649027 0.257805 0.608514
O O5 0.165673 0.500000 0.924848
O O6 0.191400 0.774973 0.882861
O O7 0.103353 0.732417 0.924038
O O8 0.177071 0.724309 0.000000
O O9 0.500000 0.787266 0.500000
O O10 0.450132 0.745177 0.596563
O O11 0.500000 0.000000 0.580402
O O12 0.750000 0.250000 0.207056
O O13 0.847624 0.271359 0.217787
O O14 0.806184 0.000000 0.195329
O O15 0.500000 0.244230 0.908495
O O16 0.436590 0.236706 0.819868
O O17 0.446541 0.000000 0.888748
O O18 0.909356 0.500000 0.758504
O O19 0.913647 0.761406 0.701465
O O20 0.597150 0.500000 0.632798
#
# Coordination Sequence:
#
# PCOD9492137 Si02
#       7
#    16  16   8  16  16  16  16
#     4   9  19  36  58  83 112 147 187 232 285 344
#     4   9  18  33  53  80 113 146 186 234 284 344
#     4  11  25  43  63  89 121 161 208 255 304 359
#     4  11  22  38  59  81 110 148 191 238 293 350
#     4   8  15  29  51  78 107 142 181 225 275 326
#     4  10  21  37  57  83 115 148 188 235 282 339
#     4  11  23  39  60  88 121 158 198 243 298 360
#
# _framework density 19.848516
#
# number of rings (size 3 to 8) (size 9 to 14) (size 15 to 20)
#    0.000    2.231    0.000    3.923    1.077    4.000 
#    0.000    4.615    0.000    4.154    0.000    4.308 
#    0.000    0.000    0.000    0.000    0.000    0.000 
#
# Total GULP energy -290338.275133 kJ/mol
# GULP energy per Si atom -5583.428368 kJ/mol
# Density = 1.980334 g / cm^3
# Si number density = 19.848516 Si / 1000 Ang^3
#
#
#
# Elastic Constant Matrix: (Units=GPa)
#
#
# Indices 1 2 3 4 5 6 
#
# 1 63.3553 -4.4563 -5.0206 0.0000 0.0000 0.0000
# 2 -4.4563 45.0177 -9.3159 0.0000 0.0000 0.0000
# 3 -5.0206 -9.3159 84.5517 0.0000 0.0000 0.0000
# 4 0.0000 0.0000 0.0000 6.3308 0.0000 0.0000
# 5 0.0000 0.0000 0.0000 0.0000 -6.3429 0.0000
# 6 0.0000 0.0000 0.0000 0.0000 0.0000 25.4614
#
#
#
# Elastic Compliance Matrix: (Units=1/GPa)
#
#
# Indices 1 2 3 4 5 6 
#
# 1 0.016003 0.001822 0.001151 0.000000 0.000000 0.000000
# 2 0.001822 0.022939 0.002636 0.000000 0.000000 0.000000
# 3 0.001151 0.002636 0.012186 0.000000 0.000000 0.000000
# 4 0.000000 0.000000 0.000000 0.157958 0.000000 0.000000
# 5 0.000000 0.000000 0.000000 0.000000 -0.157657 0.000000
# 6 0.000000 0.000000 0.000000 0.000000 0.000000 0.039275
#
#
# Mechanical properties :
#
#
# Convention : Reuss Voigt Hill
#
# Bulk Modulus (GPa) = 16.03934 17.25989 16.64962
# Shear Modulus (GPa) = 49.86607 19.20438 34.53523
#
# Velocity S-wave (km/s) = 5.01776 3.11392 4.17578
# Velocity P-wave (km/s) = 6.45515 4.65224 5.62638
#
# Compressibility (1/GPa) = 0.06234671
#
# Stress axis : x y z
#
# Youngs Moduli (GPa) = 62.48675 43.59334 82.06252
#
# Poissons Ratio (x) = -0.07944 -0.09446
# Poissons Ratio (y) = -0.11387 -0.21629
# Poissons Ratio (z) = -0.07193 -0.11490
#
# Static dielectric constant tensor:
#      x y z
#    x 1.703990 0.000000 0.000000 
#    y 0.000000 1.676570 0.000000 
#    z 0.000000 0.000000 1.695350 
# 
# From -- ./inp_files/65932.got.cif
#   From: 2010.05.17/outbox.cif.g08.bks.cpg/sg65_33_cif.got.tgz:65932.got - 2010.06.03 17:01:31.
