data_PCOD9492349
_publ_section_title
;
Structure prediction by ZEFSAII (Michael W. Deem and Ramdas Pophale) SiO2 
 PCOD9492349
Probable space group: C M M M
;
_chemical_formula_sum "Si O2"
_cell_formula_units_Z 72
_cell_length_a 8.447740
_cell_length_b 19.222827
_cell_length_c 24.476039
_cell_angle_alpha 90.000000
_cell_angle_beta 90.000000
_cell_angle_gamma 90.000000
_cell_volume 3974.650378
_symmetry_space_group_name_H-M "C M M M"
_symmetry_group_IT_number 65
_symmetry_cell_setting 'orthorhombic'
loop_
_space_group_symop_operation_xyz
x,y,z
-x,-y,z
x,-y,-z
-x,y,-z
-x,-y,-z
x,y,-z
-x,y,z
x,-y,z
1/2+x,1/2+y,z
1/2-x,1/2-y,z
1/2+x,1/2-y,-z
1/2-x,1/2+y,-z
1/2-x,1/2-y,-z
1/2+x,1/2+y,-z
1/2-x,1/2+y,z
1/2+x,1/2-y,z
loop_
_atom_site_type_symbol
_atom_site_label
_atom_site_fract_x
_atom_site_fract_y
_atom_site_fract_z
Si Si1 0.191698 0.670793 0.822131
Si Si2 0.189369 0.919517 0.399674
Si Si3 0.312285 0.828612 0.500000
Si Si4 0.808785 0.580644 0.719321
Si Si5 0.691352 0.829880 0.941279
O O1 0.250000 0.750000 0.817627
O O2 0.246626 0.626139 0.770525
O O3 0.242057 0.641826 0.881985
O O4 0.000000 0.671038 0.821362
O O5 0.254235 0.870396 0.446822
O O6 0.243359 0.896536 0.339374
O O7 0.000000 0.919292 0.402210
O O8 0.243734 0.000000 0.407317
O O9 0.500000 0.826934 0.500000
O O10 0.250000 0.750000 0.500000
O O11 0.762965 0.500000 0.726998
O O12 0.000000 0.583800 0.717220
O O13 0.500000 0.830272 0.941435
O O14 0.750000 0.750000 0.941318
O O15 0.743745 0.860775 0.000000
#
# Coordination Sequence:
#
# PCOD9492349 Si02
#       5
#    16  16   8  16  16
#     4   9  17  28  44  67  93 122 157 200 247 292
#     4  10  21  38  59  81 105 134 170 209 247 292
#     4  12  25  40  59  83 111 139 167 202 247 294
#     4   9  18  33  51  70  95 130 169 203 239 289
#     4   8  13  22  37  58  85 116 151 192 238 288
#
# _framework density 18.114802000000001
#
# number of rings (size 3 to 8) (size 9 to 14) (size 15 to 20)
#    0.000    2.667    0.000    2.000    0.000    4.444 
#    0.000    2.222    0.000    0.667    0.000    4.667 
#    0.000    0.000    0.000   41.556    0.000   22.667 
#
# Total GULP energy -200569.473799 kJ/mol
# GULP energy per Si atom -5571.374272 kJ/mol
# Density = 1.807357 g / cm^3
# Si number density = 18.114802 Si / 1000 Ang^3
#
#
#
# Elastic Constant Matrix: (Units=GPa)
#
#
# Indices 1 2 3 4 5 6 
#
# 1 22.2473 15.9973 37.6941 0.0000 0.0000 0.0000
# 2 15.9973 60.4498 94.7393 0.0000 0.0000 0.0000
# 3 37.6941 94.7393 241.5530 0.0000 0.0000 0.0000
# 4 0.0000 0.0000 0.0000 185.2288 0.0000 0.0000
# 5 0.0000 0.0000 0.0000 0.0000 17.8576 0.0000
# 6 0.0000 0.0000 0.0000 0.0000 0.0000 19.6458
#
#
#
# Elastic Compliance Matrix: (Units=1/GPa)
#
#
# Indices 1 2 3 4 5 6 
#
# 1 0.061342 -0.003195 -0.008319 0.000000 0.000000 0.000000
# 2 -0.003195 0.043099 -0.016405 0.000000 0.000000 0.000000
# 3 -0.008319 -0.016405 0.011872 0.000000 0.000000 0.000000
# 4 0.000000 0.000000 0.000000 0.005399 0.000000 0.000000
# 5 0.000000 0.000000 0.000000 0.000000 0.055998 0.000000
# 6 0.000000 0.000000 0.000000 0.000000 0.000000 0.050902
#
#
# Mechanical properties :
#
#
# Convention : Reuss Voigt Hill
#
# Bulk Modulus (GPa) = 16.53590 69.01238 42.77414
# Shear Modulus (GPa) = 16.41438 56.26773 36.34106
#
# Velocity S-wave (km/s) = 3.01347 5.57935 4.48387
# Velocity P-wave (km/s) = 4.61044 8.92667 7.10428
#
# Compressibility (1/GPa) = 0.06047449
#
# Stress axis : x y z
#
# Youngs Moduli (GPa) = 16.30192 23.20218 84.22894
#
# Poissons Ratio (x) = 0.07414 0.70072
# Poissons Ratio (y) = 0.05209 1.38180
# Poissons Ratio (z) = 0.13562 0.38064
#
# Static dielectric constant tensor:
#      x y z
#    x 1.616760 0.000000 0.000000 
#    y 0.000000 1.779590 0.000000 
#    z 0.000000 0.000000 1.664150 
# 
# From -- ./inp_files/67079.got.cif
#   From: 2010.05.17/outbox.cif.g08.bks.cpg/sg65_34_cif.got.tgz:67079.got - 2010.06.03 17:01:31.
