data_PCOD9492982
_publ_section_title
;
Structure prediction by ZEFSAII (Michael W. Deem and Ramdas Pophale) SiO2 
 PCOD9492982
Probable space group: C M M M
;
_chemical_formula_sum "Si O2"
_cell_formula_units_Z 80
_cell_length_a 17.130052
_cell_length_b 16.462338
_cell_length_c 15.188853
_cell_angle_alpha 90.000000
_cell_angle_beta 90.000000
_cell_angle_gamma 90.000000
_cell_volume 4283.267269
_symmetry_space_group_name_H-M "C M M M"
_symmetry_group_IT_number 65
_symmetry_cell_setting 'orthorhombic'
loop_
_space_group_symop_operation_xyz
x,y,z
-x,-y,z
x,-y,-z
-x,y,-z
-x,-y,-z
x,y,-z
-x,y,z
x,-y,z
1/2+x,1/2+y,z
1/2-x,1/2-y,z
1/2+x,1/2-y,-z
1/2-x,1/2+y,-z
1/2-x,1/2-y,-z
1/2+x,1/2+y,-z
1/2-x,1/2+y,z
1/2+x,1/2-y,z
loop_
_atom_site_type_symbol
_atom_site_label
_atom_site_fract_x
_atom_site_fract_y
_atom_site_fract_z
Si Si1 0.688923 0.845202 0.904514
Si Si2 0.594526 0.820624 0.597765
Si Si3 0.410339 0.737490 0.777300
Si Si4 0.867363 0.096614 0.898491
Si Si5 0.092288 0.500000 0.345239
Si Si6 0.590361 0.000000 0.865835
O O1 0.654538 0.786376 0.831654
O O2 0.775927 0.878885 0.892833
O O3 0.632489 0.921749 0.902153
O O4 0.682719 0.804744 0.000000
O O5 0.621917 0.797774 0.500000
O O6 0.500000 0.825592 0.595133
O O7 0.610293 0.756093 0.675564
O O8 0.622928 0.912732 0.620540
O O9 0.500000 0.768991 0.789972
O O10 0.407790 0.648664 0.821551
O O11 0.876001 0.000000 0.886597
O O12 0.893128 0.115319 0.000000
O O13 0.099362 0.500000 0.240015
O O14 0.000000 0.500000 0.367492
O O15 0.500000 0.000000 0.887037
#
# Coordination Sequence:
#
# PCOD9492982 Si02
#       6
#    16  16  16  16   8   8
#     4  11  21  35  53  77 111 149 183 215 266 329
#     4   9  17  30  50  77 109 142 176 218 269 325
#     4  11  22  35  55  84 111 137 178 231 278 316
#     4  10  22  40  58  76 103 147 195 225 260 323
#     4   9  15  27  47  76 111 144 176 210 257 317
#     4  11  19  29  49  82 118 145 174 217 265 318
#
# _framework density 18.677330999999999
#
# number of rings (size 3 to 8) (size 9 to 14) (size 15 to 20)
#    0.000    1.800    3.000    2.400    0.000    6.400 
#    0.000    1.000    0.000    3.000    0.000    2.800 
#    0.000    0.000    0.000    0.000    0.000    0.000 
#
# Total GULP energy -223014.272118 kJ/mol
# GULP energy per Si atom -5575.356803 kJ/mol
# Density = 1.863482 g / cm^3
# Si number density = 18.677331 Si / 1000 Ang^3
#
#
#
# Elastic Constant Matrix: (Units=GPa)
#
#
# Indices 1 2 3 4 5 6 
#
# 1 41.0599 9.4274 28.2631 0.0000 0.0000 0.0000
# 2 9.4274 110.3750 70.1424 0.0000 0.0000 0.0000
# 3 28.2631 70.1424 153.9600 0.0000 0.0000 0.0000
# 4 0.0000 0.0000 0.0000 6.4559 0.0000 0.0000
# 5 0.0000 0.0000 0.0000 0.0000 48.8664 0.0000
# 6 0.0000 0.0000 0.0000 0.0000 0.0000 30.0555
#
#
#
# Elastic Compliance Matrix: (Units=1/GPa)
#
#
# Indices 1 2 3 4 5 6 
#
# 1 0.027996 0.001231 -0.005700 0.000000 0.000000 0.000000
# 2 0.001231 0.012806 -0.006060 0.000000 0.000000 0.000000
# 3 -0.005700 -0.006060 0.010303 0.000000 0.000000 0.000000
# 4 0.000000 0.000000 0.000000 0.154897 0.000000 0.000000
# 5 0.000000 0.000000 0.000000 0.000000 0.020464 0.000000
# 6 0.000000 0.000000 0.000000 0.000000 0.000000 0.033272
#
#
# Mechanical properties :
#
#
# Convention : Reuss Voigt Hill
#
# Bulk Modulus (GPa) = 33.28253 57.89565 45.58909
# Shear Modulus (GPa) = 17.19329 30.24637 23.71983
#
# Velocity S-wave (km/s) = 3.03734 4.02856 3.56754
# Velocity P-wave (km/s) = 5.49172 7.25977 6.43674
#
# Compressibility (1/GPa) = 0.03004580
#
# Stress axis : x y z
#
# Youngs Moduli (GPa) = 35.71979 78.08738 97.06243
#
# Poissons Ratio (x) = -0.09615 0.55328
# Poissons Ratio (y) = -0.04398 0.58823
# Poissons Ratio (z) = 0.20361 0.47324
#
# Static dielectric constant tensor:
#      x y z
#    x 1.644800 0.000000 0.000000 
#    y 0.000000 1.690990 0.000000 
#    z 0.000000 0.000000 2.088120 
# 
# From -- ./inp_files/42382.got.cif
#   From: 2010.05.17/outbox.cif.g08.bks.cpg/sg65_22_cif.got.tgz:42382.got - 2010.06.03 17:01:31.
