data_PCOD9492044
_publ_section_title
;
Structure prediction by ZEFSAII (Michael W. Deem and Ramdas Pophale) SiO2 
 PCOD9492044
Probable space group: C M M M
;
_chemical_formula_sum "Si O2"
_cell_formula_units_Z 88
_cell_length_a 20.978038
_cell_length_b 9.184046
_cell_length_c 25.589178
_cell_angle_alpha 90.000000
_cell_angle_beta 90.000000
_cell_angle_gamma 90.000000
_cell_volume 4930.094607
_symmetry_space_group_name_H-M "C M M M"
_symmetry_group_IT_number 65
_symmetry_cell_setting 'orthorhombic'
loop_
_space_group_symop_operation_xyz
x,y,z
-x,-y,z
x,-y,-z
-x,y,-z
-x,-y,-z
x,y,-z
-x,y,z
x,-y,z
1/2+x,1/2+y,z
1/2-x,1/2-y,z
1/2+x,1/2-y,-z
1/2-x,1/2+y,-z
1/2-x,1/2-y,-z
1/2+x,1/2+y,-z
1/2-x,1/2+y,z
1/2+x,1/2-y,z
loop_
_atom_site_type_symbol
_atom_site_label
_atom_site_fract_x
_atom_site_fract_y
_atom_site_fract_z
Si Si1 0.077155 0.165359 0.161165
Si Si2 0.922435 0.330377 0.058398
Si Si3 0.425043 0.174002 0.268758
Si Si4 0.685797 0.326687 0.667193
Si Si5 0.500000 0.162495 0.436828
Si Si6 0.870931 0.172876 0.559315
O O1 0.100323 0.232969 0.106524
O O2 0.090309 0.268499 0.210406
O O3 0.000000 0.159460 0.157775
O O4 0.099899 0.000000 0.169560
O O5 0.905137 0.500000 0.065916
O O6 0.000000 0.325604 0.058731
O O7 0.902215 0.284381 0.000000
O O8 0.500000 0.207786 0.279512
O O9 0.376336 0.256421 0.306435
O O10 0.417422 0.000000 0.272198
O O11 0.687308 0.500000 0.676212
O O12 0.750000 0.250000 0.686592
O O13 0.679252 0.300464 0.604854
O O14 0.500000 0.152808 0.500000
O O15 0.435866 0.247330 0.424204
O O16 0.500000 0.000000 0.414411
O O17 0.853423 0.218413 0.500000
O O18 0.883316 0.000000 0.557993
#
# Coordination Sequence:
#
# PCOD9492044 Si02
#       6
#    16  16  16  16   8  16
#     4   9  16  26  42  66  96 130 171 218 264 313
#     4   8  13  21  34  55  88 131 173 211 256 311
#     4  10  21  37  57  79 104 138 179 224 270 319
#     4  11  24  40  58  80 108 140 175 218 266 319
#     4   9  17  29  49  79 109 135 167 209 250 293
#     4   9  19  36  56  78 106 140 173 207 256 316
#
# _framework density 17.849554999999999
#
# number of rings (size 3 to 8) (size 9 to 14) (size 15 to 20)
#    0.000    2.636    0.000    2.455    1.273    6.545 
#    0.000    1.818    0.000    0.000    0.000    0.000 
#    0.000    0.727    0.000    2.727    0.000    6.364 
#
# Total GULP energy -245220.929983 kJ/mol
# GULP energy per Si atom -5573.202954 kJ/mol
# Density = 1.780893 g / cm^3
# Si number density = 17.849555 Si / 1000 Ang^3
#
#
#
# Elastic Constant Matrix: (Units=GPa)
#
#
# Indices 1 2 3 4 5 6 
#
# 1 65.7181 51.6230 41.1770 0.0000 0.0000 0.0000
# 2 51.6230 76.2912 56.8671 0.0000 0.0000 0.0000
# 3 41.1770 56.8671 100.5230 0.0000 0.0000 0.0000
# 4 0.0000 0.0000 0.0000 28.0018 0.0000 0.0000
# 5 0.0000 0.0000 0.0000 0.0000 0.9662 0.0000
# 6 0.0000 0.0000 0.0000 0.0000 0.0000 16.8935
#
#
#
# Elastic Compliance Matrix: (Units=1/GPa)
#
#
# Indices 1 2 3 4 5 6 
#
# 1 0.032614 -0.020940 -0.001513 0.000000 0.000000 0.000000
# 2 -0.020940 0.036110 -0.011850 0.000000 0.000000 0.000000
# 3 -0.001513 -0.011850 0.017272 0.000000 0.000000 0.000000
# 4 0.000000 0.000000 0.000000 0.035712 0.000000 0.000000
# 5 0.000000 0.000000 0.000000 0.000000 1.034932 0.000000
# 6 0.000000 0.000000 0.000000 0.000000 0.000000 0.059194
#
#
# Mechanical properties :
#
#
# Convention : Reuss Voigt Hill
#
# Bulk Modulus (GPa) = 57.51124 60.20741 58.85933
# Shear Modulus (GPa) = 3.87525 15.36332 9.61929
#
# Velocity S-wave (km/s) = 1.47505 2.93697 2.32396
# Velocity P-wave (km/s) = 5.93220 6.73088 6.34412
#
# Compressibility (1/GPa) = 0.01738790
#
# Stress axis : x y z
#
# Youngs Moduli (GPa) = 30.66182 27.69292 57.89815
#
# Poissons Ratio (x) = 0.57990 0.08762
# Poissons Ratio (y) = 0.64207 0.68611
# Poissons Ratio (z) = 0.04640 0.32817
#
# Static dielectric constant tensor:
#      x y z
#    x 1.580050 0.000000 0.000000 
#    y 0.000000 1.603580 0.000000 
#    z 0.000000 0.000000 1.643420 
# 
# From -- ./inp_files/70996.got.cif
#   From: 2010.05.17/outbox.cif.g08.bks.cpg/sg65_36_cif.got.tgz:70996.got - 2010.06.03 17:01:31.
