data_PCOD9492592
_publ_section_title
;
Structure prediction by ZEFSAII (Michael W. Deem and Ramdas Pophale) SiO2 
 PCOD9492592
Probable space group: C M M M
;
_chemical_formula_sum "Si O2"
_cell_formula_units_Z 96
_cell_length_a 30.034520
_cell_length_b 19.498000
_cell_length_c 8.929056
_cell_angle_alpha 90.000000
_cell_angle_beta 90.000000
_cell_angle_gamma 90.000000
_cell_volume 5228.971905
_symmetry_space_group_name_H-M "C M M M"
_symmetry_group_IT_number 65
_symmetry_cell_setting 'orthorhombic'
loop_
_space_group_symop_operation_xyz
x,y,z
-x,-y,z
x,-y,-z
-x,y,-z
-x,-y,-z
x,y,-z
-x,y,z
x,-y,z
1/2+x,1/2+y,z
1/2-x,1/2-y,z
1/2+x,1/2-y,-z
1/2-x,1/2+y,-z
1/2-x,1/2-y,-z
1/2+x,1/2+y,-z
1/2-x,1/2+y,z
1/2+x,1/2-y,z
loop_
_atom_site_type_symbol
_atom_site_label
_atom_site_fract_x
_atom_site_fract_y
_atom_site_fract_z
Si Si1 0.446731 0.078162 0.829349
Si Si2 0.449169 0.419392 0.319605
Si Si3 0.616538 0.825086 0.675720
Si Si4 0.699754 0.079140 0.319251
Si Si5 0.771475 0.176298 0.819326
Si Si6 0.125016 0.178820 0.821094
O O1 0.500000 0.079617 0.826184
O O2 0.426319 0.129621 0.711641
O O3 0.432408 0.000000 0.798732
O O4 0.432702 0.095690 0.000000
O O5 0.446990 0.413392 0.500000
O O6 0.500000 0.399660 0.274542
O O7 0.443344 0.500000 0.282256
O O8 0.410501 0.373561 0.248763
O O9 0.620776 0.809778 0.500000
O O10 0.658066 0.872839 0.723223
O O11 0.614214 0.755400 0.767379
O O12 0.702541 0.079784 0.500000
O O13 0.742740 0.115368 0.250239
O O14 0.694430 0.000000 0.271685
O O15 0.750000 0.250000 0.772817
O O16 0.823201 0.168738 0.775648
O O17 0.768857 0.173869 0.000000
O O18 0.122739 0.173903 0.000000
#
# Coordination Sequence:
#
# PCOD9492592 Si02
#       6
#    16  16  16  16  16  16
#     4   9  19  36  56  78 107 145 188 233 282 336
#     4   9  20  41  66  90 119 155 194 239 295 358
#     4  11  22  36  56  82 114 150 190 236 285 338
#     4  10  22  38  57  84 115 148 190 237 285 341
#     4  10  21  39  59  81 114 153 194 239 288 343
#     4  11  23  38  60  88 118 152 194 239 288 345
#
# _framework density 18.359249999999999
#
# number of rings (size 3 to 8) (size 9 to 14) (size 15 to 20)
#    0.000    2.000    1.667    2.500    0.000    6.000 
#    0.000    5.000    0.000    0.000    0.000    0.000 
#    0.000    0.000    0.000    0.000    0.000    0.000 
#
# Total GULP energy -267910.643927 kJ/mol
# GULP energy per Si atom -5581.471748 kJ/mol
# Density = 1.831746 g / cm^3
# Si number density = 18.359250 Si / 1000 Ang^3
#
#
#
# Elastic Constant Matrix: (Units=GPa)
#
#
# Indices 1 2 3 4 5 6 
#
# 1 121.8951 75.8556 37.0834 0.0000 0.0000 0.0000
# 2 75.8556 116.3021 33.8066 0.0000 0.0000 0.0000
# 3 37.0834 33.8066 18.3906 0.0000 0.0000 0.0000
# 4 0.0000 0.0000 0.0000 29.7172 0.0000 0.0000
# 5 0.0000 0.0000 0.0000 0.0000 29.1978 0.0000
# 6 0.0000 0.0000 0.0000 0.0000 0.0000 38.9336
#
#
#
# Elastic Compliance Matrix: (Units=1/GPa)
#
#
# Indices 1 2 3 4 5 6 
#
# 1 0.021726 -0.003084 -0.038141 0.000000 0.000000 0.000000
# 2 -0.003084 0.018903 -0.028530 0.000000 0.000000 0.000000
# 3 -0.038141 -0.028530 0.183729 0.000000 0.000000 0.000000
# 4 0.000000 0.000000 0.000000 0.033651 0.000000 0.000000
# 5 0.000000 0.000000 0.000000 0.000000 0.034249 0.000000
# 6 0.000000 0.000000 0.000000 0.000000 0.000000 0.025685
#
#
# Mechanical properties :
#
#
# Convention : Reuss Voigt Hill
#
# Bulk Modulus (GPa) = 11.78556 61.11989 36.45273
# Shear Modulus (GPa) = 10.29369 26.89252 18.59311
#
# Velocity S-wave (km/s) = 2.37044 3.83141 3.18581
# Velocity P-wave (km/s) = 3.73167 7.27573 5.78194
#
# Compressibility (1/GPa) = 0.08484962
#
# Stress axis : x y z
#
# Youngs Moduli (GPa) = 46.02770 52.90282 5.44278
#
# Poissons Ratio (x) = 0.16313 0.20759
# Poissons Ratio (y) = 0.14193 0.15528
# Poissons Ratio (z) = 1.75553 1.50931
#
# Static dielectric constant tensor:
#      x y z
#    x 1.638840 0.000000 0.000000 
#    y 0.000000 1.606450 0.000000 
#    z 0.000000 0.000000 1.627630 
# 
# From -- ./inp_files/16309.got.cif
#   From: 2010.05.17/outbox.cif.g08.bks.cpg/sg65_9_cif.got.tgz:16309.got - 2010.06.03 17:01:31.
