data_PCOD9492024
_publ_section_title
;
Structure prediction by ZEFSAII (Michael W. Deem and Ramdas Pophale) SiO2 
 PCOD9492024
Probable space group: C M M M
;
_chemical_formula_sum "Si O2"
_cell_formula_units_Z 96
_cell_length_a 28.806519
_cell_length_b 9.152450
_cell_length_c 18.950018
_cell_angle_alpha 90.000000
_cell_angle_beta 90.000000
_cell_angle_gamma 90.000000
_cell_volume 4996.176506
_symmetry_space_group_name_H-M "C M M M"
_symmetry_group_IT_number 65
_symmetry_cell_setting 'orthorhombic'
loop_
_space_group_symop_operation_xyz
x,y,z
-x,-y,z
x,-y,-z
-x,y,-z
-x,-y,-z
x,y,-z
-x,y,z
x,-y,z
1/2+x,1/2+y,z
1/2-x,1/2-y,z
1/2+x,1/2-y,-z
1/2-x,1/2+y,-z
1/2-x,1/2-y,-z
1/2+x,1/2+y,-z
1/2-x,1/2+y,z
1/2+x,1/2-y,z
loop_
_atom_site_type_symbol
_atom_site_label
_atom_site_fract_x
_atom_site_fract_y
_atom_site_fract_z
Si Si1 0.639694 0.325120 0.308067
Si Si2 0.948382 0.747287 0.921581
Si Si3 0.298352 0.828650 0.191030
Si Si4 0.553466 0.834375 0.239824
Si Si5 0.153063 0.844075 0.919640
Si Si6 0.298597 0.171293 0.415120
O O1 0.641589 0.500000 0.310320
O O2 0.676670 0.255888 0.254071
O O3 0.590228 0.271442 0.277152
O O4 0.657528 0.254100 0.381017
O O5 0.944441 0.667044 0.846076
O O6 0.902629 0.844613 0.920505
O O7 0.000000 0.815873 0.919708
O O8 0.946287 0.672678 0.000000
O O9 0.250000 0.750000 0.177728
O O10 0.329926 0.793915 0.123404
O O11 0.294104 0.000000 0.204562
O O12 0.500000 0.798777 0.257826
O O13 0.564038 0.000000 0.262584
O O14 0.169164 0.000000 0.888432
O O15 0.169352 0.835914 0.000000
O O16 0.301072 0.177951 0.500000
O O17 0.250000 0.250000 0.393847
O O18 0.297666 0.000000 0.394164
#
# Coordination Sequence:
#
# PCOD9492024 Si02
#       6
#    16  16  16  16  16  16
#     4  12  24  39  61  89 123 160 197 239 291 349
#     4   9  18  32  54  85 119 154 195 247 305 361
#     4  12  25  41  60  81 109 147 194 244 295 352
#     4  10  21  37  58  86 121 160 203 252 303 358
#     4  10  21  37  56  80 112 148 190 241 297 357
#     4  10  21  39  65  97 131 163 196 237 287 345
#
# _framework density 19.214693
#
# number of rings (size 3 to 8) (size 9 to 14) (size 15 to 20)
#    0.000    1.500    1.667    4.000    0.000    2.667 
#    0.000    6.667    0.000    0.500    0.000    3.500 
#    0.000    0.000    0.000    0.000    0.000    0.000 
#
# Total GULP energy -267583.093238 kJ/mol
# GULP energy per Si atom -5574.647776 kJ/mol
# Density = 1.917096 g / cm^3
# Si number density = 19.214693 Si / 1000 Ang^3
#
#
#
# Elastic Constant Matrix: (Units=GPa)
#
#
# Indices 1 2 3 4 5 6 
#
# 1 100.0237 63.6191 32.7643 0.0000 0.0000 0.0000
# 2 63.6191 158.7276 46.3821 0.0000 0.0000 0.0000
# 3 32.7643 46.3821 61.2002 0.0000 0.0000 0.0000
# 4 0.0000 0.0000 0.0000 2.5804 0.0000 0.0000
# 5 0.0000 0.0000 0.0000 0.0000 17.2747 0.0000
# 6 0.0000 0.0000 0.0000 0.0000 0.0000 23.3146
#
#
#
# Elastic Compliance Matrix: (Units=1/GPa)
#
#
# Indices 1 2 3 4 5 6 
#
# 1 0.014223 -0.004464 -0.004231 0.000000 0.000000 0.000000
# 2 -0.004464 0.009493 -0.004805 0.000000 0.000000 0.000000
# 3 -0.004231 -0.004805 0.022246 0.000000 0.000000 0.000000
# 4 0.000000 0.000000 0.000000 0.387543 0.000000 0.000000
# 5 0.000000 0.000000 0.000000 0.000000 0.057888 0.000000
# 6 0.000000 0.000000 0.000000 0.000000 0.000000 0.042892
#
#
# Mechanical properties :
#
#
# Convention : Reuss Voigt Hill
#
# Bulk Modulus (GPa) = 52.73575 67.27584 60.00580
# Shear Modulus (GPa) = 8.80891 20.44633 14.62762
#
# Velocity S-wave (km/s) = 2.14346 3.26559 2.76211
# Velocity P-wave (km/s) = 5.79922 7.02193 6.43966
#
# Compressibility (1/GPa) = 0.01896247
#
# Stress axis : x y z
#
# Youngs Moduli (GPa) = 70.30818 105.33560 44.95104
#
# Poissons Ratio (x) = 0.47025 0.19019
# Poissons Ratio (y) = 0.31388 0.21598
# Poissons Ratio (z) = 0.29748 0.50612
#
# Static dielectric constant tensor:
#      x y z
#    x 1.689600 0.000000 0.000000 
#    y 0.000000 1.682030 0.000000 
#    z 0.000000 0.000000 1.709370 
# 
# From -- ./inp_files/65739.got.cif
#   From: 2010.05.17/outbox.cif.g08.bks.cpg/sg65_33_cif.got.tgz:65739.got - 2010.06.03 17:01:31.
