data_PCOD9492674
_publ_section_title
;
Structure prediction by ZEFSAII (Michael W. Deem and Ramdas Pophale) SiO2 
 PCOD9492674
Probable space group: C M M M
;
_chemical_formula_sum "Si O2"
_cell_formula_units_Z 72
_cell_length_a 8.050983
_cell_length_b 29.432865
_cell_length_c 14.115691
_cell_angle_alpha 90.000000
_cell_angle_beta 90.000000
_cell_angle_gamma 90.000000
_cell_volume 3344.903484
_symmetry_space_group_name_H-M "C M M M"
_symmetry_group_IT_number 65
_symmetry_cell_setting 'orthorhombic'
loop_
_space_group_symop_operation_xyz
x,y,z
-x,-y,z
x,-y,-z
-x,y,-z
-x,-y,-z
x,y,-z
-x,y,z
x,-y,z
1/2+x,1/2+y,z
1/2-x,1/2-y,z
1/2+x,1/2-y,-z
1/2-x,1/2+y,-z
1/2-x,1/2-y,-z
1/2+x,1/2+y,-z
1/2-x,1/2+y,z
1/2+x,1/2-y,z
loop_
_atom_site_type_symbol
_atom_site_label
_atom_site_fract_x
_atom_site_fract_y
_atom_site_fract_z
Si Si1 0.000000 0.948097 0.115623
Si Si2 0.682752 0.890575 0.113857
Si Si3 0.801608 0.148627 0.393240
Si Si4 0.800549 0.801008 0.789931
Si Si5 0.699156 0.049047 0.612804
O O1 0.834111 0.922092 0.146580
O O2 0.000000 0.000000 0.145775
O O3 0.000000 0.947496 0.000000
O O4 0.500000 0.904622 0.149188
O O5 0.720370 0.839118 0.143745
O O6 0.680318 0.893214 0.000000
O O7 0.732330 0.153583 0.500000
O O8 0.744298 0.185240 0.316536
O O9 0.764195 0.097919 0.355274
O O10 0.000000 0.152641 0.399540
O O11 0.750000 0.750000 0.813125
O O12 0.000000 0.805390 0.795757
O O13 0.738725 0.048509 0.500000
O O14 0.500000 0.049740 0.621715
O O15 0.758718 0.000000 0.651464
#
# Coordination Sequence:
#
# PCOD9492674 Si02
#       5
#     8  16  16  16  16
#     4   9  18  36  64  96 131 169 205 247 301 362
#     4  10  21  39  64  94 128 163 202 251 304 364
#     4   9  19  35  54  78 110 149 193 244 302 361
#     4  11  23  39  59  83 115 157 204 259 314 368
#     4   8  14  26  46  72 101 135 177 226 281 340
#
# _framework density 21.525283999999999
#
# number of rings (size 3 to 8) (size 9 to 14) (size 15 to 20)
#    0.000    2.556    1.111    1.333    0.000    3.556 
#    0.000    5.556    0.000    0.000    0.000    0.000 
#    0.000    0.000    0.000    0.000    0.000    0.000 
#
# Total GULP energy -200994.066201 kJ/mol
# GULP energy per Si atom -5583.168506 kJ/mol
# Density = 2.147629 g / cm^3
# Si number density = 21.525284 Si / 1000 Ang^3
#
#
#
# Elastic Constant Matrix: (Units=GPa)
#
#
# Indices 1 2 3 4 5 6 
#
# 1 109.0676 56.2449 24.4843 0.0000 0.0000 0.0000
# 2 56.2449 135.5118 4.8155 0.0000 0.0000 0.0000
# 3 24.4843 4.8155 44.1360 0.0000 0.0000 0.0000
# 4 0.0000 0.0000 0.0000 41.5016 0.0000 0.0000
# 5 0.0000 0.0000 0.0000 0.0000 -1.7598 0.0000
# 6 0.0000 0.0000 0.0000 0.0000 0.0000 27.1029
#
#
#
# Elastic Compliance Matrix: (Units=1/GPa)
#
#
# Indices 1 2 3 4 5 6 
#
# 1 0.013473 -0.005347 -0.006891 0.000000 0.000000 0.000000
# 2 -0.005347 0.009530 0.001927 0.000000 0.000000 0.000000
# 3 -0.006891 0.001927 0.026270 0.000000 0.000000 0.000000
# 4 0.000000 0.000000 0.000000 0.024095 0.000000 0.000000
# 5 0.000000 0.000000 0.000000 0.000000 -0.568237 0.000000
# 6 0.000000 0.000000 0.000000 0.000000 0.000000 0.036896
#
#
# Mechanical properties :
#
#
# Convention : Reuss Voigt Hill
#
# Bulk Modulus (GPa) = 34.90371 51.08942 42.99657
# Shear Modulus (GPa) = -11.68772 26.91364 7.61296
#
# Velocity S-wave (km/s) = -2.33271 3.53983 1.88267
# Velocity P-wave (km/s) = 2.99917 6.36344 4.97435
#
# Compressibility (1/GPa) = 0.02865025
#
# Stress axis : x y z
#
# Youngs Moduli (GPa) = 74.22278 104.92808 38.06683
#
# Poissons Ratio (x) = 0.56107 0.26231
# Poissons Ratio (y) = 0.39688 -0.07334
# Poissons Ratio (z) = 0.51144 -0.20214
#
# Static dielectric constant tensor:
#      x y z
#    x 1.770340 0.000000 0.000000 
#    y 0.000000 1.736240 0.000000 
#    z 0.000000 0.000000 1.827630 
# 
# From -- ./inp_files/36598.got.cif
#   From: 2010.05.17/outbox.cif.g08.bks.cpg/sg65_19_cif.got.tgz:36598.got - 2010.06.03 17:01:31.
