data_PCOD9492545
_publ_section_title
;
Structure prediction by ZEFSAII (Michael W. Deem and Ramdas Pophale) SiO2 
 PCOD9492545
Probable space group: C M M M
;
_chemical_formula_sum "Si O2"
_cell_formula_units_Z 64
_cell_length_a 7.753852
_cell_length_b 33.549123
_cell_length_c 11.334044
_cell_angle_alpha 90.000000
_cell_angle_beta 90.000000
_cell_angle_gamma 90.000000
_cell_volume 2948.380793
_symmetry_space_group_name_H-M "C M M M"
_symmetry_group_IT_number 65
_symmetry_cell_setting 'orthorhombic'
loop_
_space_group_symop_operation_xyz
x,y,z
-x,-y,z
x,-y,-z
-x,y,-z
-x,-y,-z
x,y,-z
-x,y,z
x,-y,z
1/2+x,1/2+y,z
1/2-x,1/2-y,z
1/2+x,1/2-y,-z
1/2-x,1/2+y,-z
1/2-x,1/2-y,-z
1/2+x,1/2+y,-z
1/2-x,1/2+y,z
1/2+x,1/2-y,z
loop_
_atom_site_type_symbol
_atom_site_label
_atom_site_fract_x
_atom_site_fract_y
_atom_site_fract_z
Si Si1 0.803518 0.500000 0.639854
Si Si2 0.292212 0.202702 0.000000
Si Si3 0.699285 0.830324 0.254213
Si Si4 0.288917 0.454352 0.000000
Si Si5 0.707921 0.796056 0.500000
Si Si6 0.797989 0.918489 0.242320
O O1 0.803453 0.500000 0.500000
O O2 0.720657 0.458657 0.681771
O O3 0.000000 0.500000 0.684238
O O4 0.250000 0.250000 0.000000
O O5 0.228910 0.182680 0.875538
O O6 0.500000 0.197919 0.000000
O O7 0.500000 0.816949 0.250602
O O8 0.777325 0.812663 0.374906
O O9 0.706006 0.877792 0.274570
O O10 0.231565 0.431656 0.114956
O O11 0.232076 0.500000 0.000000
O O12 0.500000 0.455199 0.000000
O O13 0.500000 0.803352 0.500000
O O14 0.750000 0.750000 0.500000
O O15 0.000000 0.908735 0.235685
#
# Coordination Sequence:
#
# PCOD9492545 Si02
#       6
#     8   8  16   8   8  16
#     4  11  25  42  59  80 116 163 200 241 298 351
#     4  10  21  38  62  88 119 156 200 247 297 359
#     4  10  22  39  58  86 122 158 192 240 301 357
#     4   9  17  34  56  81 116 149 181 237 299 335
#     4  10  22  40  62  85 116 153 190 236 295 354
#     4  11  22  38  62  89 117 153 199 246 289 347
#
# _framework density 21.70683
#
# number of rings (size 3 to 8) (size 9 to 14) (size 15 to 20)
#    0.000    1.750    1.250    2.625    1.750    3.000 
#    0.000    2.500    0.000    0.000    0.000    0.000 
#    0.000    0.000    0.000    0.000    0.000    0.000 
#
# Total GULP energy -178541.759488 kJ/mol
# GULP energy per Si atom -5579.429984 kJ/mol
# Density = 2.165742 g / cm^3
# Si number density = 21.706830 Si / 1000 Ang^3
#
#
#
# Elastic Constant Matrix: (Units=GPa)
#
#
# Indices 1 2 3 4 5 6 
#
# 1 36.0475 -16.1012 10.6084 0.0000 0.0000 0.0000
# 2 -16.1012 142.1041 79.2533 0.0000 0.0000 0.0000
# 3 10.6084 79.2533 175.6264 0.0000 0.0000 0.0000
# 4 0.0000 0.0000 0.0000 29.1359 0.0000 0.0000
# 5 0.0000 0.0000 0.0000 0.0000 3.0785 0.0000
# 6 0.0000 0.0000 0.0000 0.0000 0.0000 22.3746
#
#
#
# Elastic Compliance Matrix: (Units=1/GPa)
#
#
# Indices 1 2 3 4 5 6 
#
# 1 0.031945 0.006275 -0.004761 0.000000 0.000000 0.000000
# 2 0.006275 0.010636 -0.005179 0.000000 0.000000 0.000000
# 3 -0.004761 -0.005179 0.008318 0.000000 0.000000 0.000000
# 4 0.000000 0.000000 0.000000 0.034322 0.000000 0.000000
# 5 0.000000 0.000000 0.000000 0.000000 0.324834 0.000000
# 6 0.000000 0.000000 0.000000 0.000000 0.000000 0.044694
#
#
# Mechanical properties :
#
#
# Convention : Reuss Voigt Hill
#
# Bulk Modulus (GPa) = 22.95164 55.69989 39.32576
# Shear Modulus (GPa) = 10.49092 29.58563 20.03827
#
# Velocity S-wave (km/s) = 2.20079 3.69584 3.04161
# Velocity P-wave (km/s) = 4.12970 6.62783 5.52189
#
# Compressibility (1/GPa) = 0.04356988
#
# Stress axis : x y z
#
# Youngs Moduli (GPa) = 31.30366 94.01692 120.21402
#
# Poissons Ratio (x) = -0.58995 0.57237
# Poissons Ratio (y) = -0.19643 0.62257
# Poissons Ratio (z) = 0.14904 0.48690
#
# Static dielectric constant tensor:
#      x y z
#    x 1.824860 0.000000 0.000000 
#    y 0.000000 1.768180 0.000000 
#    z 0.000000 0.000000 1.809780 
# 
# From -- ./inp_files/21104.got.cif
#   From: 2010.05.17/outbox.cif.g08.bks.cpg/sg65_11_cif.got.tgz:21104.got - 2010.06.03 17:01:31.
