data_PCOD9492396
_publ_section_title
;
Structure prediction by ZEFSAII (Michael W. Deem and Ramdas Pophale) SiO2 
 PCOD9492396
Probable space group: C M M M
;
_chemical_formula_sum "Si O2"
_cell_formula_units_Z 80
_cell_length_a 16.094740
_cell_length_b 30.034528
_cell_length_c 7.620636
_cell_angle_alpha 90.000000
_cell_angle_beta 90.000000
_cell_angle_gamma 90.000000
_cell_volume 3683.799585
_symmetry_space_group_name_H-M "C M M M"
_symmetry_group_IT_number 65
_symmetry_cell_setting 'orthorhombic'
loop_
_space_group_symop_operation_xyz
x,y,z
-x,-y,z
x,-y,-z
-x,y,-z
-x,-y,-z
x,y,-z
-x,y,z
x,-y,z
1/2+x,1/2+y,z
1/2-x,1/2-y,z
1/2+x,1/2-y,-z
1/2-x,1/2+y,-z
1/2-x,1/2-y,-z
1/2+x,1/2+y,-z
1/2-x,1/2+y,z
1/2+x,1/2-y,z
loop_
_atom_site_type_symbol
_atom_site_label
_atom_site_fract_x
_atom_site_fract_y
_atom_site_fract_z
Si Si1 0.152313 0.297504 0.213403
Si Si2 0.254181 0.049935 0.207008
Si Si3 0.908731 0.607581 0.214979
Si Si4 0.152538 0.199660 0.212111
Si Si5 0.090475 0.896467 0.704314
O O1 0.104381 0.341271 0.271803
O O2 0.122979 0.248589 0.271230
O O3 0.249672 0.303068 0.259569
O O4 0.149150 0.296692 0.000000
O O5 0.332031 0.077891 0.279069
O O6 0.169247 0.077492 0.221930
O O7 0.246897 0.000000 0.279999
O O8 0.270550 0.045886 0.000000
O O9 0.000000 0.591413 0.266750
O O10 0.906208 0.608053 0.000000
O O11 0.105906 0.156374 0.278765
O O12 0.147912 0.198196 0.000000
O O13 0.088533 0.907794 0.500000
O O14 0.000000 0.907455 0.781957
#
# Coordination Sequence:
#
# PCOD9492396 Si02
#       5
#    16  16  16  16  16
#     4   8  14  26  49  82 114 143 176 217 262 306
#     4  10  21  38  60  83 106 136 178 227 277 327
#     4   9  16  28  51  84 117 142 170 214 266 320
#     4   9  16  30  54  81 109 143 184 224 261 309
#     4  11  24  39  55  78 109 145 183 223 274 330
#
# _framework density 21.716709000000002
#
# number of rings (size 3 to 8) (size 9 to 14) (size 15 to 20)
#    0.000    2.600    2.000    1.800    0.000    3.600 
#    0.000    8.000    0.000    0.600    0.000    1.400 
#    0.000    0.000    0.000    0.000    0.000    0.000 
#
# Total GULP energy -223251.503837 kJ/mol
# GULP energy per Si atom -5581.287596 kJ/mol
# Density = 2.166728 g / cm^3
# Si number density = 21.716709 Si / 1000 Ang^3
#
#
#
# Elastic Constant Matrix: (Units=GPa)
#
#
# Indices 1 2 3 4 5 6 
#
# 1 154.6746 90.5897 -0.4713 0.0000 0.0000 0.0000
# 2 90.5897 152.3696 -0.9947 0.0000 0.0000 0.0000
# 3 -0.4713 -0.9947 39.4651 0.0000 0.0000 0.0000
# 4 0.0000 0.0000 0.0000 -133.9680 0.0000 0.0000
# 5 0.0000 0.0000 0.0000 0.0000 24.9733 0.0000
# 6 0.0000 0.0000 0.0000 0.0000 0.0000 -4.0121
#
#
#
# Elastic Compliance Matrix: (Units=1/GPa)
#
#
# Indices 1 2 3 4 5 6 
#
# 1 0.009919 -0.005898 -0.000030 0.000000 0.000000 0.000000
# 2 -0.005898 0.010070 0.000183 0.000000 0.000000 0.000000
# 3 -0.000030 0.000183 0.025343 0.000000 0.000000 0.000000
# 4 0.000000 0.000000 0.000000 -0.007464 0.000000 0.000000
# 5 0.000000 0.000000 0.000000 0.000000 0.040043 0.000000
# 6 0.000000 0.000000 0.000000 0.000000 0.000000 -0.249247
#
#
# Mechanical properties :
#
#
# Convention : Reuss Voigt Hill
#
# Bulk Modulus (GPa) = 29.54723 58.30629 43.92676
# Shear Modulus (GPa) = -33.65504 -5.44229 -19.54867
#
# Velocity S-wave (km/s) = -3.94093 -1.58476 -3.00353
# Velocity P-wave (km/s) = 2.65944 4.85368 2.87103
#
# Compressibility (1/GPa) = 0.03384412
#
# Stress axis : x y z
#
# Youngs Moduli (GPa) = 100.81517 99.30006 39.45848
#
# Poissons Ratio (x) = 0.58562 0.00119
# Poissons Ratio (y) = 0.59456 -0.00724
# Poissons Ratio (z) = 0.00304 -0.01821
#
# Static dielectric constant tensor:
#      x y z
#    x 1.790590 0.000000 0.000000 
#    y 0.000000 1.778870 0.000000 
#    z 0.000000 0.000000 1.814300 
# 
# From -- ./inp_files/9897.got.cif
#   From: 2010.05.17/outbox.cif.g08.bks.cpg/sg65_5_cif.got.tgz:9897.got - 2010.06.03 17:01:31.
