data_PCOD9492066
_publ_section_title
;
Structure prediction by ZEFSAII (Michael W. Deem and Ramdas Pophale) SiO2 
 PCOD9492066
Probable space group: C M M M
;
_chemical_formula_sum "Si O2"
_cell_formula_units_Z 80
_cell_length_a 19.211877
_cell_length_b 8.788339
_cell_length_c 26.673414
_cell_angle_alpha 90.000000
_cell_angle_beta 90.000000
_cell_angle_gamma 90.000000
_cell_volume 4503.552234
_symmetry_space_group_name_H-M "C M M M"
_symmetry_group_IT_number 65
_symmetry_cell_setting 'orthorhombic'
loop_
_space_group_symop_operation_xyz
x,y,z
-x,-y,z
x,-y,-z
-x,y,-z
-x,-y,-z
x,y,-z
-x,y,z
x,-y,z
1/2+x,1/2+y,z
1/2-x,1/2-y,z
1/2+x,1/2-y,-z
1/2-x,1/2+y,-z
1/2-x,1/2-y,-z
1/2+x,1/2+y,-z
1/2-x,1/2+y,z
1/2+x,1/2-y,z
loop_
_atom_site_type_symbol
_atom_site_label
_atom_site_fract_x
_atom_site_fract_y
_atom_site_fract_z
Si Si1 0.171757 0.182487 0.445092
Si Si2 0.417326 0.180240 0.145830
Si Si3 0.327118 0.317867 0.057034
Si Si4 0.827919 0.681479 0.342481
Si Si5 0.417358 0.681057 0.746889
O O1 0.139922 0.216648 0.500000
O O2 0.250000 0.250000 0.446682
O O3 0.140810 0.255034 0.394914
O O4 0.175112 0.000000 0.439752
O O5 0.500000 0.204773 0.139349
O O6 0.376696 0.248927 0.099006
O O7 0.396688 0.259350 0.198077
O O8 0.404682 0.000000 0.149476
O O9 0.324409 0.500000 0.061780
O O10 0.250000 0.250000 0.063288
O O11 0.350128 0.281046 0.000000
O O12 0.823297 0.500000 0.344646
O O13 0.750000 0.750000 0.337388
O O14 0.873969 0.736163 0.296084
O O15 0.500000 0.711664 0.740925
O O16 0.406552 0.500000 0.743739
#
# Coordination Sequence:
#
# PCOD9492066 Si02
#       5
#    16  16  16  16  16
#     4   9  16  27  45  70 101 135 171 212 259 309
#     4  10  21  37  57  81 108 138 175 217 260 309
#     4  10  21  37  57  81 110 143 178 216 260 310
#     4  11  21  33  52  78 108 138 174 218 261 310
#     4  10  21  38  58  78 104 138 175 216 264 316
#
# _framework density 17.763755
#
# number of rings (size 3 to 8) (size 9 to 14) (size 15 to 20)
#    0.000    2.000    0.000    5.400    0.000    6.000 
#    0.000    6.000    0.000    0.600    0.000    4.200 
#    0.000    0.000    0.000    0.000    0.000    0.000 
#
# Total GULP energy -223231.608454 kJ/mol
# GULP energy per Si atom -5580.790211 kJ/mol
# Density = 1.772332 g / cm^3
# Si number density = 17.763755 Si / 1000 Ang^3
#
#
#
# Elastic Constant Matrix: (Units=GPa)
#
#
# Indices 1 2 3 4 5 6 
#
# 1 34.1258 47.0613 65.4939 0.0000 0.0000 0.0000
# 2 47.0613 115.6564 92.4465 0.0000 0.0000 0.0000
# 3 65.4939 92.4465 193.5211 0.0000 0.0000 0.0000
# 4 0.0000 0.0000 0.0000 36.6778 0.0000 0.0000
# 5 0.0000 0.0000 0.0000 0.0000 15.4640 0.0000
# 6 0.0000 0.0000 0.0000 0.0000 0.0000 25.1376
#
#
#
# Elastic Compliance Matrix: (Units=1/GPa)
#
#
# Indices 1 2 3 4 5 6 
#
# 1 0.117923 -0.026018 -0.027480 0.000000 0.000000 0.000000
# 2 -0.026018 0.019728 -0.000619 0.000000 0.000000 0.000000
# 3 -0.027480 -0.000619 0.014763 0.000000 0.000000 0.000000
# 4 0.000000 0.000000 0.000000 0.027264 0.000000 0.000000
# 5 0.000000 0.000000 0.000000 0.000000 0.064666 0.000000
# 6 0.000000 0.000000 0.000000 0.000000 0.000000 0.039781
#
#
# Mechanical properties :
#
#
# Convention : Reuss Voigt Hill
#
# Bulk Modulus (GPa) = 22.63464 83.70073 53.16769
# Shear Modulus (GPa) = 12.28241 24.67599 18.47920
#
# Velocity S-wave (km/s) = 2.63236 3.73113 3.22883
# Velocity P-wave (km/s) = 4.69135 8.11067 6.62540
#
# Compressibility (1/GPa) = 0.04418007
#
# Stress axis : x y z
#
# Youngs Moduli (GPa) = 8.48011 50.68967 67.73689
#
# Poissons Ratio (x) = 1.31887 1.86140
# Poissons Ratio (y) = 0.22064 0.04191
# Poissons Ratio (z) = 0.23303 0.03136
#
# Static dielectric constant tensor:
#      x y z
#    x 1.577650 0.000000 0.000000 
#    y 0.000000 1.590410 0.000000 
#    z 0.000000 0.000000 1.622450 
# 
# From -- ./inp_files/72851.got.cif
#   From: 2010.05.17/outbox.cif.g08.bks.cpg/sg65_37_cif.got.tgz:72851.got - 2010.06.03 17:01:31.
