data_PCOD9492524
_publ_section_title
;
Structure prediction by ZEFSAII (Michael W. Deem and Ramdas Pophale) SiO2 
 PCOD9492524
Probable space group: C M M M
;
_chemical_formula_sum "Si O2"
_cell_formula_units_Z 64
_cell_length_a 15.316297
_cell_length_b 20.189934
_cell_length_c 9.509858
_cell_angle_alpha 90.000000
_cell_angle_beta 90.000000
_cell_angle_gamma 90.000000
_cell_volume 2940.781182
_symmetry_space_group_name_H-M "C M M M"
_symmetry_group_IT_number 65
_symmetry_cell_setting 'orthorhombic'
loop_
_space_group_symop_operation_xyz
x,y,z
-x,-y,z
x,-y,-z
-x,y,-z
-x,-y,-z
x,y,-z
-x,y,z
x,-y,z
1/2+x,1/2+y,z
1/2-x,1/2-y,z
1/2+x,1/2-y,-z
1/2-x,1/2+y,-z
1/2-x,1/2-y,-z
1/2+x,1/2+y,-z
1/2-x,1/2+y,z
1/2+x,1/2-y,z
loop_
_atom_site_type_symbol
_atom_site_label
_atom_site_fract_x
_atom_site_fract_y
_atom_site_fract_z
Si Si1 0.353292 0.744625 0.344129
Si Si2 0.399366 0.000000 0.743020
Si Si3 0.100983 0.355568 0.146302
Si Si4 0.798217 0.000000 0.337550
Si Si5 0.103028 0.884877 0.832373
O O1 0.389389 0.731801 0.500000
O O2 0.250000 0.750000 0.352899
O O3 0.374170 0.816604 0.284180
O O4 0.382145 0.687495 0.236210
O O5 0.392845 0.066430 0.833563
O O6 0.307779 0.000000 0.658996
O O7 0.500000 0.000000 0.681094
O O8 0.000000 0.338903 0.132955
O O9 0.146773 0.335207 0.000000
O O10 0.836420 0.063421 0.252887
O O11 0.828845 0.000000 0.500000
O O12 0.000000 0.902238 0.816407
O O13 0.122306 0.885345 0.000000
#
# Coordination Sequence:
#
# PCOD9492524 Si02
#       5
#    16   8  16   8  16
#     4  11  24  40  60  91 129 167 210 262 321 383
#     4  10  23  42  65  95 132 172 216 268 325 389
#     4  10  21  38  61  89 120 158 207 258 309 371
#     4  12  26  43  67  99 132 169 215 268 329 394
#     4  11  25  45  69  97 130 172 222 273 326 386
#
# _framework density 21.762924999999999
#
# number of rings (size 3 to 8) (size 9 to 14) (size 15 to 20)
#    0.000    1.250    0.000    4.875    0.000   17.750 
#    0.000    2.500    0.000    0.000    0.000    0.000 
#    0.000    0.000    0.000    0.000    0.000    0.000 
#
# Total GULP energy -178538.169394 kJ/mol
# GULP energy per Si atom -5579.317794 kJ/mol
# Density = 2.171339 g / cm^3
# Si number density = 21.762925 Si / 1000 Ang^3
#
#
#
# Elastic Constant Matrix: (Units=GPa)
#
#
# Indices 1 2 3 4 5 6 
#
# 1 107.9022 22.1420 49.7994 0.0000 0.0000 0.0000
# 2 22.1420 93.6105 50.4908 0.0000 0.0000 0.0000
# 3 49.7994 50.4908 172.4101 0.0000 0.0000 0.0000
# 4 0.0000 0.0000 0.0000 24.3357 0.0000 0.0000
# 5 0.0000 0.0000 0.0000 0.0000 16.9188 0.0000
# 6 0.0000 0.0000 0.0000 0.0000 0.0000 40.0996
#
#
#
# Elastic Compliance Matrix: (Units=1/GPa)
#
#
# Indices 1 2 3 4 5 6 
#
# 1 0.010777 -0.001033 -0.002810 0.000000 0.000000 0.000000
# 2 -0.001033 0.012786 -0.003446 0.000000 0.000000 0.000000
# 3 -0.002810 -0.003446 0.007621 0.000000 0.000000 0.000000
# 4 0.000000 0.000000 0.000000 0.041092 0.000000 0.000000
# 5 0.000000 0.000000 0.000000 0.000000 0.059106 0.000000
# 6 0.000000 0.000000 0.000000 0.000000 0.000000 0.024938
#
#
# Mechanical properties :
#
#
# Convention : Reuss Voigt Hill
#
# Bulk Modulus (GPa) = 60.22445 68.75414 64.48930
# Shear Modulus (GPa) = 28.33948 33.03685 30.68816
#
# Velocity S-wave (km/s) = 3.61250 3.90042 3.75922
# Velocity P-wave (km/s) = 6.71813 7.20731 6.96701
#
# Compressibility (1/GPa) = 0.01660455
#
# Stress axis : x y z
#
# Youngs Moduli (GPa) = 92.79329 78.21329 131.21755
#
# Poissons Ratio (x) = 0.08082 0.36874
# Poissons Ratio (y) = 0.09589 0.45215
# Poissons Ratio (z) = 0.26076 0.26951
#
# Static dielectric constant tensor:
#      x y z
#    x 1.412200 0.000000 0.000000 
#    y 0.000000 1.776110 0.000000 
#    z 0.000000 0.000000 1.701300 
# 
# From -- ./inp_files/6779.got.cif
#   From: 2010.05.17/outbox.cif.g08.bks.cpg/sg65_4_cif.got.tgz:6779.got - 2010.06.03 17:01:31.
