data_PCOD9492234
_publ_section_title
;
Structure prediction by ZEFSAII (Michael W. Deem and Ramdas Pophale) SiO2 
 PCOD9492234
Probable space group: C M M M
;
_chemical_formula_sum "Si O2"
_cell_formula_units_Z 36
_cell_length_a 15.078377
_cell_length_b 7.264210
_cell_length_c 13.015053
_cell_angle_alpha 90.000000
_cell_angle_beta 90.000000
_cell_angle_gamma 90.000000
_cell_volume 1425.571254
_symmetry_space_group_name_H-M "C M M M"
_symmetry_group_IT_number 65
_symmetry_cell_setting 'orthorhombic'
loop_
_space_group_symop_operation_xyz
x,y,z
-x,-y,z
x,-y,-z
-x,y,-z
-x,-y,-z
x,y,-z
-x,y,z
x,-y,z
1/2+x,1/2+y,z
1/2-x,1/2-y,z
1/2+x,1/2-y,-z
1/2-x,1/2+y,-z
1/2-x,1/2-y,-z
1/2+x,1/2+y,-z
1/2-x,1/2+y,z
1/2+x,1/2-y,z
loop_
_atom_site_type_symbol
_atom_site_label
_atom_site_fract_x
_atom_site_fract_y
_atom_site_fract_z
Si Si1 0.827260 0.500000 0.000000
Si Si2 0.102012 0.218081 0.161433
Si Si3 0.355704 0.281692 0.389108
O O1 0.838344 0.659472 0.089305
O O2 0.107392 0.280437 0.280133
O O3 0.000000 0.239926 0.126888
O O4 0.124388 0.000000 0.154934
O O5 0.387180 0.208761 0.500000
O O6 0.372986 0.500000 0.390780
O O7 0.250000 0.250000 0.385683
#
# Coordination Sequence:
#
# PCOD9492234 Si02
#       3
#     4  16  16
#     4  12  23  38  60  84 114 156 193 232 287 330
#     4  10  21  37  59  85 114 149 191 236 280 335
#     4   9  19  36  59  84 113 149 184 230 291 344
#
# _framework density 25.253032000000001
#
# number of rings (size 3 to 8) (size 9 to 14) (size 15 to 20)
#    0.000    2.222    0.000    2.667    3.111    2.667 
#    0.000    5.556    0.000    2.667    0.000    0.000 
#    0.000    0.000    0.000    0.000    0.000    0.000 
#
# Total GULP energy -100219.221373 kJ/mol
# GULP energy per Si atom -5567.734521 kJ/mol
# Density = 2.519556 g / cm^3
# Si number density = 25.253032 Si / 1000 Ang^3
#
#
#
# Elastic Constant Matrix: (Units=GPa)
#
#
# Indices 1 2 3 4 5 6 
#
# 1 79.0687 26.1783 30.8713 0.0000 0.0000 0.0000
# 2 26.1783 149.6787 62.8824 0.0000 0.0000 0.0000
# 3 30.8713 62.8824 245.5795 0.0000 0.0000 0.0000
# 4 0.0000 0.0000 0.0000 18.7299 0.0000 0.0000
# 5 0.0000 0.0000 0.0000 0.0000 -50.8615 0.0000
# 6 0.0000 0.0000 0.0000 0.0000 0.0000 1.6348
#
#
#
# Elastic Compliance Matrix: (Units=1/GPa)
#
#
# Indices 1 2 3 4 5 6 
#
# 1 0.013757 -0.001882 -0.001248 0.000000 0.000000 0.000000
# 2 -0.001882 0.007744 -0.001746 0.000000 0.000000 0.000000
# 3 -0.001248 -0.001746 0.004676 0.000000 0.000000 0.000000
# 4 0.000000 0.000000 0.000000 0.053391 0.000000 0.000000
# 5 0.000000 0.000000 0.000000 0.000000 -0.019661 0.000000
# 6 0.000000 0.000000 0.000000 0.000000 0.000000 0.611699
#
#
# Mechanical properties :
#
#
# Convention : Reuss Voigt Hill
#
# Bulk Modulus (GPa) = 60.88075 79.35454 70.11764
# Shear Modulus (GPa) = 7.27980 17.52696 12.40338
#
# Velocity S-wave (km/s) = 1.69971 2.63735 2.21863
# Velocity P-wave (km/s) = 5.29270 6.38484 5.86425
#
# Compressibility (1/GPa) = 0.01642555
#
# Stress axis : x y z
#
# Youngs Moduli (GPa) = 72.68806 129.13607 213.85953
#
# Poissons Ratio (x) = 0.24304 0.26679
# Poissons Ratio (y) = 0.13680 0.37345
# Poissons Ratio (z) = 0.09068 0.22551
#
# Static dielectric constant tensor:
#      x y z
#    x 1.986750 0.000000 0.000000 
#    y 0.000000 2.015810 0.000000 
#    z 0.000000 0.000000 1.971940 
# 
# From -- ./inp_files/2468.got.cif
#   From: 2010.05.17/outbox.cif.g08.bks.cpg/sg65_2_cif.got.tgz:2468.got - 2010.06.03 17:01:31.
