data_PCOD9492164
_publ_section_title
;
Structure prediction by ZEFSAII (Michael W. Deem and Ramdas Pophale) SiO2 
 PCOD9492164
Probable space group: C M M M
;
_chemical_formula_sum "Si O2"
_cell_formula_units_Z 88
_cell_length_a 32.452677
_cell_length_b 9.233397
_cell_length_c 16.727548
_cell_angle_alpha 90.000000
_cell_angle_beta 90.000000
_cell_angle_gamma 90.000000
_cell_volume 5012.383838
_symmetry_space_group_name_H-M "C M M M"
_symmetry_group_IT_number 65
_symmetry_cell_setting 'orthorhombic'
loop_
_space_group_symop_operation_xyz
x,y,z
-x,-y,z
x,-y,-z
-x,y,-z
-x,-y,-z
x,y,-z
-x,y,z
x,-y,z
1/2+x,1/2+y,z
1/2-x,1/2-y,z
1/2+x,1/2-y,-z
1/2-x,1/2+y,-z
1/2-x,1/2-y,-z
1/2+x,1/2+y,-z
1/2-x,1/2+y,z
1/2+x,1/2-y,z
loop_
_atom_site_type_symbol
_atom_site_label
_atom_site_fract_x
_atom_site_fract_y
_atom_site_fract_z
Si Si1 0.559724 0.830361 0.913717
Si Si2 0.545021 0.176721 0.265042
Si Si3 0.792909 0.830396 0.000000
Si Si4 0.207738 0.169469 0.403775
Si Si5 0.155522 0.336292 0.875032
Si Si6 0.135676 0.328596 0.311043
O O1 0.545897 0.771411 0.827679
O O2 0.609131 0.828286 0.908231
O O3 0.547455 0.000000 0.914560
O O4 0.547304 0.767137 0.000000
O O5 0.500000 0.215290 0.299411
O O6 0.587532 0.220796 0.308456
O O7 0.547295 0.000000 0.261959
O O8 0.750000 0.750000 0.000000
O O9 0.817568 0.777789 0.078002
O O10 0.787676 0.000000 0.000000
O O11 0.205371 0.180821 0.500000
O O12 0.250000 0.250000 0.378290
O O13 0.167200 0.241863 0.366108
O O14 0.210100 0.000000 0.382419
O O15 0.170975 0.500000 0.890327
O O16 0.151664 0.315306 0.780247
O O17 0.136436 0.500000 0.331684
#
# Coordination Sequence:
#
# PCOD9492164 Si02
#       6
#    16  16   8  16  16  16
#     4   8  12  20  39  62  88 125 163 204 253 296
#     4   8  14  24  40  69 106 138 172 213 255 300
#     4  12  24  34  46  64  87 122 167 213 260 303
#     4  10  21  37  58  83 109 134 162 203 255 312
#     4   9  17  32  49  65  92 128 166 207 251 298
#     4   9  18  32  54  80 106 140 173 208 257 306
#
# _framework density 17.556516999999999
#
# number of rings (size 3 to 8) (size 9 to 14) (size 15 to 20)
#    0.000    2.909    0.909    3.545    0.000    2.909 
#    0.000    1.818    0.000    1.091    0.000    3.818 
#    0.000    3.636    0.000    0.000    0.000    0.000 
#
# Total GULP energy -245001.935353 kJ/mol
# GULP energy per Si atom -5568.225803 kJ/mol
# Density = 1.751656 g / cm^3
# Si number density = 17.556517 Si / 1000 Ang^3
#
#
#
# Elastic Constant Matrix: (Units=GPa)
#
#
# Indices 1 2 3 4 5 6 
#
# 1 156.9787 64.3067 39.1360 0.0000 0.0000 0.0000
# 2 64.3067 78.3349 28.9828 0.0000 0.0000 0.0000
# 3 39.1360 28.9828 32.2709 0.0000 0.0000 0.0000
# 4 0.0000 0.0000 0.0000 21.0387 0.0000 0.0000
# 5 0.0000 0.0000 0.0000 0.0000 8.7678 0.0000
# 6 0.0000 0.0000 0.0000 0.0000 0.0000 6.9612
#
#
#
# Elastic Compliance Matrix: (Units=1/GPa)
#
#
# Indices 1 2 3 4 5 6 
#
# 1 0.010722 -0.005977 -0.007635 0.000000 0.000000 0.000000
# 2 -0.005977 0.022451 -0.012914 0.000000 0.000000 0.000000
# 3 -0.007635 -0.012914 0.051846 0.000000 0.000000 0.000000
# 4 0.000000 0.000000 0.000000 0.047531 0.000000 0.000000
# 5 0.000000 0.000000 0.000000 0.000000 0.114053 0.000000
# 6 0.000000 0.000000 0.000000 0.000000 0.000000 0.143654
#
#
# Mechanical properties :
#
#
# Convention : Reuss Voigt Hill
#
# Bulk Modulus (GPa) = 31.28408 59.15949 45.22178
# Shear Modulus (GPa) = 11.01403 16.36414 13.68909
#
# Velocity S-wave (km/s) = 2.50741 3.05632 2.79537
# Velocity P-wave (km/s) = 5.12255 6.79886 6.01935
#
# Compressibility (1/GPa) = 0.03196514
#
# Stress axis : x y z
#
# Youngs Moduli (GPa) = 93.26242 44.54189 19.28806
#
# Poissons Ratio (x) = 0.26624 0.14727
# Poissons Ratio (y) = 0.55746 0.24909
# Poissons Ratio (z) = 0.71207 0.57523
#
# Static dielectric constant tensor:
#      x y z
#    x 1.630790 0.000000 0.000000 
#    y 0.000000 1.585420 0.000000 
#    z 0.000000 0.000000 1.605080 
# 
# From -- ./inp_files/58037.got.cif
#   From: 2010.05.17/outbox.cif.g08.bks.cpg/sg65_30_cif.got.tgz:58037.got - 2010.06.03 17:01:31.
