data_PCOD9492518
_publ_section_title
;
Structure prediction by ZEFSAII (Michael W. Deem and Ramdas Pophale) SiO2 
 PCOD9492518
Probable space group: C M M M
;
_chemical_formula_sum "Si O2"
_cell_formula_units_Z 64
_cell_length_a 7.397266
_cell_length_b 31.357708
_cell_length_c 14.310579
_cell_angle_alpha 90.000000
_cell_angle_beta 90.000000
_cell_angle_gamma 90.000000
_cell_volume 3319.500612
_symmetry_space_group_name_H-M "C M M M"
_symmetry_group_IT_number 65
_symmetry_cell_setting 'orthorhombic'
loop_
_space_group_symop_operation_xyz
x,y,z
-x,-y,z
x,-y,-z
-x,y,-z
-x,-y,-z
x,y,-z
-x,y,z
x,-y,z
1/2+x,1/2+y,z
1/2-x,1/2-y,z
1/2+x,1/2-y,-z
1/2-x,1/2+y,-z
1/2-x,1/2-y,-z
1/2+x,1/2+y,-z
1/2-x,1/2+y,z
1/2+x,1/2-y,z
loop_
_atom_site_type_symbol
_atom_site_label
_atom_site_fract_x
_atom_site_fract_y
_atom_site_fract_z
Si Si1 0.284894 0.048752 0.742077
Si Si2 0.780404 0.374913 0.606446
Si Si3 0.000000 0.177884 0.107865
Si Si4 0.713376 0.797979 0.741143
Si Si5 0.500000 0.424944 0.892177
O O1 0.500000 0.053801 0.757886
O O2 0.227792 0.083004 0.664082
O O3 0.173182 0.058397 0.835408
O O4 0.251729 0.000000 0.712675
O O5 0.716017 0.374521 0.500000
O O6 0.727637 0.333326 0.665729
O O7 0.000000 0.374853 0.603396
O O8 0.172796 0.194496 0.165058
O O9 0.000000 0.126474 0.111331
O O10 0.000000 0.191245 0.000000
O O11 0.500000 0.803246 0.758121
O O12 0.750000 0.750000 0.707468
O O13 0.500000 0.438302 0.000000
#
# Coordination Sequence:
#
# PCOD9492518 Si02
#       5
#    16  16   8  16   8
#     4  10  21  38  61  88 122 160 198 245 299 351
#     4   9  19  37  61  88 120 157 198 243 295 354
#     4  11  24  41  62  90 119 157 202 245 302 356
#     4  11  22  40  63  88 122 156 194 246 296 353
#     4  11  23  40  63  88 120 158 202 249 299 355
#
# _framework density 19.280007000000001
#
# number of rings (size 3 to 8) (size 9 to 14) (size 15 to 20)
#    0.000    1.750    3.750    0.375    0.000    3.500 
#    0.000    8.750    0.000    1.500    0.000    0.000 
#    0.000    0.000    0.000    0.000    0.000    0.000 
#
# Total GULP energy -178770.598342 kJ/mol
# GULP energy per Si atom -5586.581198 kJ/mol
# Density = 1.923613 g / cm^3
# Si number density = 19.280007 Si / 1000 Ang^3
#
#
#
# Elastic Constant Matrix: (Units=GPa)
#
#
# Indices 1 2 3 4 5 6 
#
# 1 96.9379 36.9254 54.9387 0.0000 0.0000 0.0000
# 2 36.9254 168.6125 96.8590 0.0000 0.0000 0.0000
# 3 54.9387 96.8590 190.8396 0.0000 0.0000 0.0000
# 4 0.0000 0.0000 0.0000 2.1718 0.0000 0.0000
# 5 0.0000 0.0000 0.0000 0.0000 32.0505 0.0000
# 6 0.0000 0.0000 0.0000 0.0000 0.0000 -11.7113
#
#
#
# Elastic Compliance Matrix: (Units=1/GPa)
#
#
# Indices 1 2 3 4 5 6 
#
# 1 0.012432 -0.000941 -0.003101 0.000000 0.000000 0.000000
# 2 -0.000941 0.008443 -0.004014 0.000000 0.000000 0.000000
# 3 -0.003101 -0.004014 0.008170 0.000000 0.000000 0.000000
# 4 0.000000 0.000000 0.000000 0.460453 0.000000 0.000000
# 5 0.000000 0.000000 0.000000 0.000000 0.031201 0.000000
# 6 0.000000 0.000000 0.000000 0.000000 0.000000 -0.085388
#
#
# Mechanical properties :
#
#
# Convention : Reuss Voigt Hill
#
# Bulk Modulus (GPa) = 77.32790 92.64848 84.98819
# Shear Modulus (GPa) = 10.97130 22.34665 16.65897
#
# Velocity S-wave (km/s) = 2.38807 3.40819 2.94267
# Velocity P-wave (km/s) = 6.91366 7.97785 7.46475
#
# Compressibility (1/GPa) = 0.01293194
#
# Stress axis : x y z
#
# Youngs Moduli (GPa) = 80.43783 118.44469 122.39672
#
# Poissons Ratio (x) = 0.11146 0.37959
# Poissons Ratio (y) = 0.07569 0.49132
# Poissons Ratio (z) = 0.24946 0.47546
#
# Static dielectric constant tensor:
#      x y z
#    x 1.695050 0.000000 0.000000 
#    y 0.000000 1.674130 0.000000 
#    z 0.000000 0.000000 1.626840 
# 
# From -- ./inp_files/20983.got.cif
#   From: 2010.05.17/outbox.cif.g08.bks.cpg/sg65_11_cif.got.tgz:20983.got - 2010.06.03 17:01:31.
