data_PCOD9492243
_publ_section_title
;
Structure prediction by ZEFSAII (Michael W. Deem and Ramdas Pophale) SiO2 
 PCOD9492243
Probable space group: C M M M
;
_chemical_formula_sum "Si O2"
_cell_formula_units_Z 96
_cell_length_a 20.490018
_cell_length_b 16.906253
_cell_length_c 14.006103
_cell_angle_alpha 90.000000
_cell_angle_beta 90.000000
_cell_angle_gamma 90.000000
_cell_volume 4851.846133
_symmetry_space_group_name_H-M "C M M M"
_symmetry_group_IT_number 65
_symmetry_cell_setting 'orthorhombic'
loop_
_space_group_symop_operation_xyz
x,y,z
-x,-y,z
x,-y,-z
-x,y,-z
-x,-y,-z
x,y,-z
-x,y,z
x,-y,z
1/2+x,1/2+y,z
1/2-x,1/2-y,z
1/2+x,1/2-y,-z
1/2-x,1/2+y,-z
1/2-x,1/2-y,-z
1/2+x,1/2+y,-z
1/2-x,1/2+y,z
1/2+x,1/2-y,z
loop_
_atom_site_type_symbol
_atom_site_label
_atom_site_fract_x
_atom_site_fract_y
_atom_site_fract_z
Si Si1 0.180357 0.293879 0.611025
Si Si2 0.000000 0.906828 0.887572
Si Si3 0.626995 0.589423 0.207823
Si Si4 0.135055 0.594425 0.784204
Si Si5 0.423721 0.347372 0.392252
Si Si6 0.500000 0.903761 0.112352
Si Si7 0.245021 0.155875 0.894305
O O1 0.184197 0.322794 0.500000
O O2 0.250000 0.250000 0.630859
O O3 0.160352 0.359072 0.689860
O O4 0.122005 0.229639 0.614770
O O5 0.933650 0.871631 0.847511
O O6 0.000000 0.000000 0.856241
O O7 0.000000 0.904737 0.000000
O O8 0.636366 0.500000 0.173837
O O9 0.605567 0.592346 0.316685
O O10 0.692396 0.634170 0.184809
O O11 0.134020 0.500000 0.766712
O O12 0.187495 0.615635 0.865723
O O13 0.064570 0.619205 0.827247
O O14 0.419805 0.377378 0.500000
O O15 0.500000 0.330925 0.371476
O O16 0.500000 0.000000 0.108402
O O17 0.500000 0.877005 0.000000
O O18 0.250000 0.250000 0.895791
O O19 0.223431 0.129125 0.000000
#
# Coordination Sequence:
#
# PCOD9492243 Si02
#       7
#    16   8  16  16  16   8  16
#     4  10  22  41  63  88 122 162 203 251 307 366
#     4   9  18  32  50  77 114 150 185 231 292 353
#     4  11  21  36  59  87 117 153 196 249 302 350
#     4  11  22  38  63  92 121 159 203 253 309 360
#     4  10  21  37  59  86 119 163 204 241 296 364
#     4   9  20  38  58  85 122 158 197 247 304 363
#     4  11  24  41  60  86 121 159 202 248 297 361
#
# _framework density 19.786283000000001
#
# number of rings (size 3 to 8) (size 9 to 14) (size 15 to 20)
#    0.000    1.667    0.833    4.000    1.167    3.333 
#    0.000    0.833    0.000   10.500    0.000    0.000 
#    0.000    0.000    0.000    0.000    0.000    0.000 
#
# Total GULP energy -267855.239954 kJ/mol
# GULP energy per Si atom -5580.317499 kJ/mol
# Density = 1.974125 g / cm^3
# Si number density = 19.786283 Si / 1000 Ang^3
#
#
#
# Elastic Constant Matrix: (Units=GPa)
#
#
# Indices 1 2 3 4 5 6 
#
# 1 161.3267 33.7621 57.9406 0.0000 0.0000 0.0000
# 2 33.7621 44.2909 35.8723 0.0000 0.0000 0.0000
# 3 57.9406 35.8723 113.1160 0.0000 0.0000 0.0000
# 4 0.0000 0.0000 0.0000 -41.0446 0.0000 0.0000
# 5 0.0000 0.0000 0.0000 0.0000 4.1102 0.0000
# 6 0.0000 0.0000 0.0000 0.0000 0.0000 13.6163
#
#
#
# Elastic Compliance Matrix: (Units=1/GPa)
#
#
# Indices 1 2 3 4 5 6 
#
# 1 0.008035 -0.003756 -0.002924 0.000000 0.000000 0.000000
# 2 -0.003756 0.032138 -0.008268 0.000000 0.000000 0.000000
# 3 -0.002924 -0.008268 0.012960 0.000000 0.000000 0.000000
# 4 0.000000 0.000000 0.000000 -0.024364 0.000000 0.000000
# 5 0.000000 0.000000 0.000000 0.000000 0.243300 0.000000
# 6 0.000000 0.000000 0.000000 0.000000 0.000000 0.073441
#
#
# Mechanical properties :
#
#
# Convention : Reuss Voigt Hill
#
# Bulk Modulus (GPa) = 43.03662 63.76485 53.40074
# Shear Modulus (GPa) = 13.04961 8.08026 10.56494
#
# Velocity S-wave (km/s) = 2.57091 2.02303 2.31325
# Velocity P-wave (km/s) = 5.53270 6.14440 5.84655
#
# Compressibility (1/GPa) = 0.02323602
#
# Stress axis : x y z
#
# Youngs Moduli (GPa) = 124.45449 31.11622 77.15822
#
# Poissons Ratio (x) = 0.11688 0.22565
# Poissons Ratio (y) = 0.46750 0.63792
# Poissons Ratio (z) = 0.36397 0.25726
#
# Static dielectric constant tensor:
#      x y z
#    x 1.714550 0.000000 0.000000 
#    y 0.000000 1.686380 0.000000 
#    z 0.000000 0.000000 1.709280 
# 
# From -- ./inp_files/44195.got.cif
#   From: 2010.05.17/outbox.cif.g08.bks.cpg/sg65_23_cif.got.tgz:44195.got - 2010.06.03 17:01:31.
