data_PCOD9492628
_publ_section_title
;
Structure prediction by ZEFSAII (Michael W. Deem and Ramdas Pophale) SiO2 
 PCOD9492628
Probable space group: C M M M
;
_chemical_formula_sum "Si O2"
_cell_formula_units_Z 64
_cell_length_a 26.868527
_cell_length_b 8.030441
_cell_length_c 14.476439
_cell_angle_alpha 90.000000
_cell_angle_beta 90.000000
_cell_angle_gamma 90.000000
_cell_volume 3123.525086
_symmetry_space_group_name_H-M "C M M M"
_symmetry_group_IT_number 65
_symmetry_cell_setting 'orthorhombic'
loop_
_space_group_symop_operation_xyz
x,y,z
-x,-y,z
x,-y,-z
-x,y,-z
-x,-y,-z
x,y,-z
-x,y,z
x,-y,z
1/2+x,1/2+y,z
1/2-x,1/2-y,z
1/2+x,1/2-y,-z
1/2-x,1/2+y,-z
1/2-x,1/2-y,-z
1/2+x,1/2+y,-z
1/2-x,1/2+y,z
1/2+x,1/2-y,z
loop_
_atom_site_type_symbol
_atom_site_label
_atom_site_fract_x
_atom_site_fract_y
_atom_site_fract_z
Si Si1 0.106919 0.800213 0.394387
Si Si2 0.556578 0.500000 0.112580
Si Si3 0.124061 0.686974 0.889698
Si Si4 0.194156 0.199771 0.258434
Si Si5 0.500000 0.198323 0.393487
O O1 0.109737 0.735681 0.500000
O O2 0.153330 0.742592 0.333583
O O3 0.052814 0.755019 0.353965
O O4 0.109471 0.000000 0.398002
O O5 0.500000 0.500000 0.146563
O O6 0.586709 0.665527 0.139708
O O7 0.554876 0.500000 0.000000
O O8 0.105878 0.500000 0.868401
O O9 0.175462 0.720322 0.837027
O O10 0.130205 0.698702 0.000000
O O11 0.250000 0.250000 0.282211
O O12 0.191516 0.000000 0.251023
O O13 0.500000 0.263714 0.500000
O O14 0.500000 0.000000 0.395400
#
# Coordination Sequence:
#
# PCOD9492628 Si02
#       5
#    16   8  16  16   8
#     4   9  19  37  59  83 114 153 193 234 289 353
#     4   9  18  36  62  90 123 159 197 244 294 351
#     4  10  21  39  62  88 121 159 201 246 296 352
#     4  11  23  39  59  84 117 154 197 250 301 353
#     4   9  17  31  55  85 114 145 186 239 289 340
#
# _framework density 20.48967
#
# number of rings (size 3 to 8) (size 9 to 14) (size 15 to 20)
#    0.000    2.250    1.250    1.125    0.000    5.000 
#    2.250    2.500    0.000    0.000    0.000    0.000 
#    0.000    0.000    0.000    0.000    0.000    0.000 
#
# Total GULP energy -178678.986044 kJ/mol
# GULP energy per Si atom -5583.718314 kJ/mol
# Density = 2.044304 g / cm^3
# Si number density = 20.489670 Si / 1000 Ang^3
#
#
#
# Elastic Constant Matrix: (Units=GPa)
#
#
# Indices 1 2 3 4 5 6 
#
# 1 192.6694 49.2860 52.2753 0.0000 0.0000 0.0000
# 2 49.2860 89.8281 32.6489 0.0000 0.0000 0.0000
# 3 52.2753 32.6489 59.1535 0.0000 0.0000 0.0000
# 4 0.0000 0.0000 0.0000 9.3092 0.0000 0.0000
# 5 0.0000 0.0000 0.0000 0.0000 28.5742 0.0000
# 6 0.0000 0.0000 0.0000 0.0000 0.0000 27.1032
#
#
#
# Elastic Compliance Matrix: (Units=1/GPa)
#
#
# Indices 1 2 3 4 5 6 
#
# 1 0.007109 -0.002023 -0.005166 0.000000 0.000000 0.000000
# 2 -0.002023 0.014502 -0.006216 0.000000 0.000000 0.000000
# 3 -0.005166 -0.006216 0.024902 0.000000 0.000000 0.000000
# 4 0.000000 0.000000 0.000000 0.107420 0.000000 0.000000
# 5 0.000000 0.000000 0.000000 0.000000 0.034997 0.000000
# 6 0.000000 0.000000 0.000000 0.000000 0.000000 0.036896
#
#
# Mechanical properties :
#
#
# Convention : Reuss Voigt Hill
#
# Bulk Modulus (GPa) = 50.75659 67.78570 59.27115
# Shear Modulus (GPa) = 19.28986 26.82671 23.05828
#
# Velocity S-wave (km/s) = 3.07162 3.62232 3.35828
# Velocity P-wave (km/s) = 6.11600 7.11686 6.63532
#
# Compressibility (1/GPa) = 0.01970187
#
# Stress axis : x y z
#
# Youngs Moduli (GPa) = 140.65815 68.95751 40.15812
#
# Poissons Ratio (x) = 0.13950 0.20746
# Poissons Ratio (y) = 0.28456 0.24963
# Poissons Ratio (z) = 0.72667 0.42865
#
# Static dielectric constant tensor:
#      x y z
#    x 1.706580 0.000000 0.000000 
#    y 0.000000 1.721400 0.000000 
#    z 0.000000 0.000000 1.767170 
# 
# From -- ./inp_files/45098.got.cif
#   From: 2010.05.17/outbox.cif.g08.bks.cpg/sg65_23_cif.got.tgz:45098.got - 2010.06.03 17:01:31.
