data_PCOD9492220
_publ_section_title
;
Structure prediction by ZEFSAII (Michael W. Deem and Ramdas Pophale) SiO2 
 PCOD9492220
Probable space group: C M M M
;
_chemical_formula_sum "Si O2"
_cell_formula_units_Z 100
_cell_length_a 30.120651
_cell_length_b 21.031870
_cell_length_c 7.371856
_cell_angle_alpha 90.000000
_cell_angle_beta 90.000000
_cell_angle_gamma 90.000000
_cell_volume 4670.023715
_symmetry_space_group_name_H-M "C M M M"
_symmetry_group_IT_number 65
_symmetry_cell_setting 'orthorhombic'
loop_
_space_group_symop_operation_xyz
x,y,z
-x,-y,z
x,-y,-z
-x,y,-z
-x,-y,-z
x,y,-z
-x,y,z
x,-y,z
1/2+x,1/2+y,z
1/2-x,1/2-y,z
1/2+x,1/2-y,-z
1/2-x,1/2+y,-z
1/2-x,1/2-y,-z
1/2+x,1/2+y,-z
1/2-x,1/2+y,z
1/2+x,1/2-y,z
loop_
_atom_site_type_symbol
_atom_site_label
_atom_site_fract_x
_atom_site_fract_y
_atom_site_fract_z
Si Si1 0.696532 0.808032 0.717920
Si Si2 0.357328 0.931424 0.278071
Si Si3 0.255148 0.500000 0.500000
Si Si4 0.723337 0.610108 0.212702
Si Si5 0.640484 0.683100 0.208954
Si Si6 0.049713 0.239389 0.219442
Si Si7 0.951582 0.610448 0.713206
O O1 0.695932 0.803332 0.500000
O O2 0.669802 0.870596 0.780263
O O3 0.746428 0.826031 0.772943
O O4 0.669229 0.747870 0.786259
O O5 0.356468 0.930500 0.500000
O O6 0.407983 0.923440 0.215748
O O7 0.339673 0.000000 0.222664
O O8 0.257115 0.443790 0.341939
O O9 0.673875 0.629355 0.280227
O O10 0.721927 0.592238 0.000000
O O11 0.592003 0.699476 0.287446
O O12 0.632835 0.665682 0.000000
O O13 0.055079 0.313494 0.271218
O O14 0.000000 0.219551 0.277974
O O15 0.050455 0.237682 0.000000
O O16 0.953207 0.594888 0.500000
O O17 0.000000 0.595070 0.791054
#
# Coordination Sequence:
#
# PCOD9492220 Si02
#       7
#    16  16   4  16  16  16  16
#     4  11  21  34  58  85 119 162 209 257 302 353
#     4   9  18  29  44  70 105 149 198 246 292 344
#     4  12  26  48  66  94 121 158 201 250 300 372
#     4  11  25  43  65  91 123 162 202 248 303 367
#     4  10  21  37  58  89 122 154 201 254 306 362
#     4   9  17  31  53  80 114 152 190 240 302 362
#     4   9  16  28  45  68  97 137 190 244 295 344
#
# _framework density 21.413169
#
# number of rings (size 3 to 8) (size 9 to 14) (size 15 to 20)
#    0.000    2.080    2.400    1.200    2.240    2.240 
#    0.000    1.600    0.000    2.400    0.000    3.360 
#    0.000    3.840    0.000    0.000    0.000    0.000 
#
# Total GULP energy -278704.664419 kJ/mol
# GULP energy per Si atom -5574.093288 kJ/mol
# Density = 2.136443 g / cm^3
# Si number density = 21.413169 Si / 1000 Ang^3
#
#
#
# Elastic Constant Matrix: (Units=GPa)
#
#
# Indices 1 2 3 4 5 6 
#
# 1 131.0670 17.9061 -0.6943 0.0000 0.0000 0.0000
# 2 17.9061 32.1011 3.9740 0.0000 0.0000 0.0000
# 3 -0.6943 3.9740 99.8580 0.0000 0.0000 0.0000
# 4 0.0000 0.0000 0.0000 47.2441 0.0000 0.0000
# 5 0.0000 0.0000 0.0000 0.0000 2.9229 0.0000
# 6 0.0000 0.0000 0.0000 0.0000 0.0000 18.0257
#
#
#
# Elastic Compliance Matrix: (Units=1/GPa)
#
#
# Indices 1 2 3 4 5 6 
#
# 1 0.008265 -0.004640 0.000242 0.000000 0.000000 0.000000
# 2 -0.004640 0.033911 -0.001382 0.000000 0.000000 0.000000
# 3 0.000242 -0.001382 0.010071 0.000000 0.000000 0.000000
# 4 0.000000 0.000000 0.000000 0.021167 0.000000 0.000000
# 5 0.000000 0.000000 0.000000 0.000000 0.342128 0.000000
# 6 0.000000 0.000000 0.000000 0.000000 0.000000 0.055476
#
#
# Mechanical properties :
#
#
# Convention : Reuss Voigt Hill
#
# Bulk Modulus (GPa) = 24.57784 33.93308 29.25546
# Shear Modulus (GPa) = 10.07780 29.76122 19.91951
#
# Velocity S-wave (km/s) = 2.17177 3.73212 3.05330
# Velocity P-wave (km/s) = 4.21801 5.86966 5.11099
#
# Compressibility (1/GPa) = 0.04068705
#
# Stress axis : x y z
#
# Youngs Moduli (GPa) = 120.99367 29.48900 99.29601
#
# Poissons Ratio (x) = 0.13683 -0.02404
# Poissons Ratio (y) = 0.56143 0.13721
# Poissons Ratio (z) = -0.02930 0.04075
#
# Static dielectric constant tensor:
#      x y z
#    x 1.850320 0.000000 0.000000 
#    y 0.000000 1.740690 0.000000 
#    z 0.000000 0.000000 1.803930 
# 
# From -- ./inp_files/12841.got.cif
#   From: 2010.05.17/outbox.cif.g08.bks.cpg/sg65_7_cif.got.tgz:12841.got - 2010.06.03 17:01:31.
