data_PCOD9492172
_publ_section_title
;
Structure prediction by ZEFSAII (Michael W. Deem and Ramdas Pophale) SiO2 
 PCOD9492172
Probable space group: C M M M
;
_chemical_formula_sum "Si O2"
_cell_formula_units_Z 88
_cell_length_a 8.985372
_cell_length_b 26.899608
_cell_length_c 19.287469
_cell_angle_alpha 90.000000
_cell_angle_beta 90.000000
_cell_angle_gamma 90.000000
_cell_volume 4661.838821
_symmetry_space_group_name_H-M "C M M M"
_symmetry_group_IT_number 65
_symmetry_cell_setting 'orthorhombic'
loop_
_space_group_symop_operation_xyz
x,y,z
-x,-y,z
x,-y,-z
-x,y,-z
-x,-y,-z
x,y,-z
-x,y,z
x,-y,z
1/2+x,1/2+y,z
1/2-x,1/2-y,z
1/2+x,1/2-y,-z
1/2-x,1/2+y,-z
1/2-x,1/2-y,-z
1/2+x,1/2+y,-z
1/2-x,1/2+y,z
1/2+x,1/2-y,z
loop_
_atom_site_type_symbol
_atom_site_label
_atom_site_fract_x
_atom_site_fract_y
_atom_site_fract_z
Si Si1 0.678671 0.904185 0.344655
Si Si2 0.678778 0.198189 0.418757
Si Si3 0.177511 0.404159 0.919595
Si Si4 0.673382 0.557203 0.787866
Si Si5 0.675352 0.500000 0.416870
Si Si6 0.169819 0.200290 0.916031
O O1 0.500000 0.908090 0.347201
O O2 0.723405 0.851246 0.377354
O O3 0.736142 0.909673 0.266264
O O4 0.749152 0.950309 0.386607
O O5 0.719168 0.191714 0.500000
O O6 0.500000 0.202375 0.414700
O O7 0.750000 0.250000 0.394386
O O8 0.258970 0.438329 0.864286
O O9 0.233653 0.348536 0.902454
O O10 0.000000 0.407621 0.913032
O O11 0.216576 0.414580 0.000000
O O12 0.500000 0.570947 0.788571
O O13 0.685667 0.500000 0.764500
O O14 0.500000 0.500000 0.398651
O O15 0.689395 0.500000 0.500000
O O16 0.250000 0.250000 0.890010
O O17 0.000000 0.195498 0.890944
O O18 0.162471 0.204295 0.000000
#
# Coordination Sequence:
#
# PCOD9492172 Si02
#       6
#    16  16  16  16   8  16
#     4  11  22  38  61  87 119 158 201 248 296 354
#     4   9  19  36  59  89 123 160 201 243 291 346
#     4  10  21  37  58  84 112 145 192 245 296 357
#     4  11  24  41  60  82 113 151 193 243 302 365
#     4  11  23  37  57  89 124 157 196 241 291 347
#     4   9  16  28  49  77 109 142 176 220 279 341
#
# _framework density 18.876671000000002
#
# number of rings (size 3 to 8) (size 9 to 14) (size 15 to 20)
#    0.000    1.909    0.909    3.000    0.000    7.636 
#    0.000    4.545    0.000    2.182    0.000    0.000 
#    0.000    0.000    0.000    0.000    0.000    0.000 
#
# Total GULP energy -245678.081879 kJ/mol
# GULP energy per Si atom -5583.592770 kJ/mol
# Density = 1.883371 g / cm^3
# Si number density = 18.876671 Si / 1000 Ang^3
#
#
#
# Elastic Constant Matrix: (Units=GPa)
#
#
# Indices 1 2 3 4 5 6 
#
# 1 85.2730 50.2633 43.9732 0.0000 0.0000 0.0000
# 2 50.2633 123.5043 56.2415 0.0000 0.0000 0.0000
# 3 43.9732 56.2415 82.0957 0.0000 0.0000 0.0000
# 4 0.0000 0.0000 0.0000 24.1876 0.0000 0.0000
# 5 0.0000 0.0000 0.0000 0.0000 27.8476 0.0000
# 6 0.0000 0.0000 0.0000 0.0000 0.0000 33.1895
#
#
#
# Elastic Compliance Matrix: (Units=1/GPa)
#
#
# Indices 1 2 3 4 5 6 
#
# 1 0.017560 -0.004162 -0.006555 0.000000 0.000000 0.000000
# 2 -0.004162 0.012754 -0.006509 0.000000 0.000000 0.000000
# 3 -0.006555 -0.006509 0.020151 0.000000 0.000000 0.000000
# 4 0.000000 0.000000 0.000000 0.041343 0.000000 0.000000
# 5 0.000000 0.000000 0.000000 0.000000 0.035910 0.000000
# 6 0.000000 0.000000 0.000000 0.000000 0.000000 0.030130
#
#
# Mechanical properties :
#
#
# Convention : Reuss Voigt Hill
#
# Bulk Modulus (GPa) = 62.44029 65.75878 64.09954
# Shear Modulus (GPa) = 25.29885 26.40459 25.85172
#
# Velocity S-wave (km/s) = 3.66487 3.74410 3.70470
# Velocity P-wave (km/s) = 7.14550 7.32139 7.23398
#
# Compressibility (1/GPa) = 0.01601530
#
# Stress axis : x y z
#
# Youngs Moduli (GPa) = 56.94679 78.40374 49.62596
#
# Poissons Ratio (x) = 0.32629 0.32529
# Poissons Ratio (y) = 0.23699 0.32300
# Poissons Ratio (z) = 0.37327 0.51030
#
# Static dielectric constant tensor:
#      x y z
#    x 1.631520 0.000000 0.000000 
#    y 0.000000 1.651760 0.000000 
#    z 0.000000 0.000000 1.656880 
# 
# From -- ./inp_files/59817.got.cif
#   From: 2010.05.17/outbox.cif.g08.bks.cpg/sg65_30_cif.got.tgz:59817.got - 2010.06.03 17:01:31.
