data_PCOD9492175
_publ_section_title
;
Structure prediction by ZEFSAII (Michael W. Deem and Ramdas Pophale) SiO2 
 PCOD9492175
Probable space group: C M M M
;
_chemical_formula_sum "Si O2"
_cell_formula_units_Z 72
_cell_length_a 18.957622
_cell_length_b 8.541387
_cell_length_c 23.888123
_cell_angle_alpha 90.000000
_cell_angle_beta 90.000000
_cell_angle_gamma 90.000000
_cell_volume 3868.069652
_symmetry_space_group_name_H-M "C M M M"
_symmetry_group_IT_number 65
_symmetry_cell_setting 'orthorhombic'
loop_
_space_group_symop_operation_xyz
x,y,z
-x,-y,z
x,-y,-z
-x,y,-z
-x,-y,-z
x,y,-z
-x,y,z
x,-y,z
1/2+x,1/2+y,z
1/2-x,1/2-y,z
1/2+x,1/2-y,-z
1/2-x,1/2+y,-z
1/2-x,1/2-y,-z
1/2+x,1/2+y,-z
1/2-x,1/2+y,z
1/2+x,1/2-y,z
loop_
_atom_site_type_symbol
_atom_site_label
_atom_site_fract_x
_atom_site_fract_y
_atom_site_fract_z
Si Si1 0.671947 0.687526 0.564213
Si Si2 0.417728 0.690059 0.122480
Si Si3 0.914274 0.818824 0.000000
Si Si4 0.419078 0.810901 0.665204
Si Si5 0.329356 0.187881 0.226850
O O1 0.656550 0.735965 0.500000
O O2 0.673005 0.500000 0.566340
O O3 0.750000 0.750000 0.578404
O O4 0.616331 0.751383 0.608437
O O5 0.500000 0.734363 0.131212
O O6 0.415381 0.500000 0.121702
O O7 0.369472 0.753044 0.171731
O O8 0.394357 0.748383 0.060534
O O9 0.000000 0.820910 0.000000
O O10 0.890730 0.000000 0.000000
O O11 0.500000 0.758533 0.670503
O O12 0.372863 0.758898 0.718381
O O13 0.418528 0.000000 0.664625
O O14 0.250000 0.250000 0.228867
O O15 0.328240 0.000000 0.226560
#
# Coordination Sequence:
#
# PCOD9492175 Si02
#       5
#    16  16   8  16  16
#     4  10  21  37  58  84 113 145 181 220 262 311
#     4   9  17  32  56  83 109 139 176 217 264 318
#     4   7  12  26  50  79 108 137 171 213 260 313
#     4  10  22  39  58  81 109 141 177 220 270 320
#     4  11  23  38  55  77 107 141 180 224 269 318
#
# _framework density 18.613935999999999
#
# number of rings (size 3 to 8) (size 9 to 14) (size 15 to 20)
#    0.000    2.333    0.000    4.000    0.000    7.111 
#    0.000    3.333    0.000    2.000    0.000    0.000 
#    0.000    0.000    0.000    0.000    0.000    0.000 
#
# Total GULP energy -200906.723340 kJ/mol
# GULP energy per Si atom -5580.742315 kJ/mol
# Density = 1.857157 g / cm^3
# Si number density = 18.613936 Si / 1000 Ang^3
#
#
#
# Elastic Constant Matrix: (Units=GPa)
#
#
# Indices 1 2 3 4 5 6 
#
# 1 154.1761 31.9046 114.4667 0.0000 0.0000 0.0000
# 2 31.9046 18.7761 28.7628 0.0000 0.0000 0.0000
# 3 114.4667 28.7628 157.9284 0.0000 0.0000 0.0000
# 4 0.0000 0.0000 0.0000 203.2010 0.0000 0.0000
# 5 0.0000 0.0000 0.0000 0.0000 175.4585 0.0000
# 6 0.0000 0.0000 0.0000 0.0000 0.0000 15.1547
#
#
#
# Elastic Compliance Matrix: (Units=1/GPa)
#
#
# Indices 1 2 3 4 5 6 
#
# 1 0.016083 -0.013136 -0.009264 0.000000 0.000000 0.000000
# 2 -0.013136 0.084597 -0.005886 0.000000 0.000000 0.000000
# 3 -0.009264 -0.005886 0.014119 0.000000 0.000000 0.000000
# 4 0.000000 0.000000 0.000000 0.004921 0.000000 0.000000
# 5 0.000000 0.000000 0.000000 0.000000 0.005699 0.000000
# 6 0.000000 0.000000 0.000000 0.000000 0.000000 0.065986
#
#
# Mechanical properties :
#
#
# Convention : Reuss Voigt Hill
#
# Bulk Modulus (GPa) = 17.17469 75.68321 46.42895
# Shear Modulus (GPa) = 18.69953 89.14594 53.92273
#
# Velocity S-wave (km/s) = 3.17298 6.92792 5.38813
# Velocity P-wave (km/s) = 4.76136 10.23437 7.98163
#
# Compressibility (1/GPa) = 0.05822523
#
# Stress axis : x y z
#
# Youngs Moduli (GPa) = 62.17920 11.82077 70.82745
#
# Poissons Ratio (x) = 0.15528 0.65617
# Poissons Ratio (y) = 0.81677 0.41692
# Poissons Ratio (z) = 0.57605 0.06958
#
# Static dielectric constant tensor:
#      x y z
#    x 1.607900 0.000000 0.000000 
#    y 0.000000 1.643050 0.000000 
#    z 0.000000 0.000000 1.652420 
# 
# From -- ./inp_files/64321.got.cif
#   From: 2010.05.17/outbox.cif.g08.bks.cpg/sg65_33_cif.got.tgz:64321.got - 2010.06.03 17:01:31.
