data_PCOD9492652
_publ_section_title
;
Structure prediction by ZEFSAII (Michael W. Deem and Ramdas Pophale) SiO2 
 PCOD9492652
Probable space group: C M M M
;
_chemical_formula_sum "Si O2"
_cell_formula_units_Z 58
_cell_length_a 28.480834
_cell_length_b 10.170923
_cell_length_c 11.488748
_cell_angle_alpha 90.000000
_cell_angle_beta 90.000000
_cell_angle_gamma 90.000000
_cell_volume 3328.018812
_symmetry_space_group_name_H-M "C M M M"
_symmetry_group_IT_number 65
_symmetry_cell_setting 'orthorhombic'
loop_
_space_group_symop_operation_xyz
x,y,z
-x,-y,z
x,-y,-z
-x,y,-z
-x,-y,-z
x,y,-z
-x,y,z
x,-y,z
1/2+x,1/2+y,z
1/2-x,1/2-y,z
1/2+x,1/2-y,-z
1/2-x,1/2+y,-z
1/2-x,1/2-y,-z
1/2+x,1/2+y,-z
1/2-x,1/2+y,z
1/2+x,1/2-y,z
loop_
_atom_site_type_symbol
_atom_site_label
_atom_site_fract_x
_atom_site_fract_y
_atom_site_fract_z
Si Si1 0.553789 0.500000 0.861334
Si Si2 0.892294 0.230635 0.265789
Si Si3 0.208162 0.848374 0.638971
Si Si4 0.443714 0.657641 0.500000
Si Si5 0.902951 0.500000 0.129993
Si Si6 0.000000 0.500000 0.000000
O O1 0.500000 0.500000 0.816020
O O2 0.581075 0.627253 0.816679
O O3 0.551992 0.500000 0.000000
O O4 0.839812 0.183803 0.295014
O O5 0.921242 0.223525 0.386270
O O6 0.891376 0.370881 0.203631
O O7 0.199372 0.832992 0.500000
O O8 0.250000 0.750000 0.671094
O O9 0.221538 0.000000 0.659078
O O10 0.431917 0.500000 0.500000
O O11 0.500000 0.668451 0.500000
O O12 0.958297 0.500000 0.099417
O O13 0.880086 0.500000 0.000000
#
# Coordination Sequence:
#
# PCOD9492652 Si02
#       6
#     8  16  16   8   8   2
#     4  11  24  37  64  93 121 167 223 257 302 377
#     4  12  22  41  62  91 129 165 207 263 319 375
#     4  10  21  39  63  93 127 163 206 257 316 385
#     4  11  22  35  58  93 131 164 192 253 328 387
#     4  10  26  41  63  85 125 169 218 258 299 358
#     4   8  24  48  60  84 128 176 224 262 302 348
#
# _framework density 17.427785
#
# number of rings (size 3 to 8) (size 9 to 14) (size 15 to 20)
#    0.414    0.828    4.138    1.655    5.793    0.552 
#    0.000    0.690    0.000    4.966    0.000    0.000 
#    0.000    0.000    0.000    0.000    0.000    0.000 
#
# Total GULP energy -161644.718901 kJ/mol
# GULP energy per Si atom -5573.955824 kJ/mol
# Density = 1.738812 g / cm^3
# Si number density = 17.427785 Si / 1000 Ang^3
#
#
#
# Elastic Constant Matrix: (Units=GPa)
#
#
# Indices 1 2 3 4 5 6 
#
# 1 132.7025 67.1890 38.6301 0.0000 0.0000 0.0000
# 2 67.1890 167.0715 66.9154 0.0000 0.0000 0.0000
# 3 38.6301 66.9154 101.9077 0.0000 0.0000 0.0000
# 4 0.0000 0.0000 0.0000 13.8834 0.0000 0.0000
# 5 0.0000 0.0000 0.0000 0.0000 -8.7592 0.0000
# 6 0.0000 0.0000 0.0000 0.0000 0.0000 10.9692
#
#
#
# Elastic Compliance Matrix: (Units=1/GPa)
#
#
# Indices 1 2 3 4 5 6 
#
# 1 0.009629 -0.003271 -0.001503 0.000000 0.000000 0.000000
# 2 -0.003271 0.009232 -0.004822 0.000000 0.000000 0.000000
# 3 -0.001503 -0.004822 0.013549 0.000000 0.000000 0.000000
# 4 0.000000 0.000000 0.000000 0.072028 0.000000 0.000000
# 5 0.000000 0.000000 0.000000 0.000000 -0.114165 0.000000
# 6 0.000000 0.000000 0.000000 0.000000 0.000000 0.091164
#
#
# Mechanical properties :
#
#
# Convention : Reuss Voigt Hill
#
# Bulk Modulus (GPa) = 75.64772 83.01674 79.33223
# Shear Modulus (GPa) = 47.60342 18.48183 33.04262
#
# Velocity S-wave (km/s) = 5.23201 3.26004 4.35900
# Velocity P-wave (km/s) = 8.94423 7.86820 8.42341
#
# Compressibility (1/GPa) = 0.01321917
#
# Stress axis : x y z
#
# Youngs Moduli (GPa) = 103.85329 108.31679 73.80713
#
# Poissons Ratio (x) = 0.35426 0.11090
# Poissons Ratio (y) = 0.33966 0.35592
# Poissons Ratio (z) = 0.15604 0.52234
#
# Static dielectric constant tensor:
#      x y z
#    x 1.563570 0.000000 0.000000 
#    y 0.000000 1.570900 0.000000 
#    z 0.000000 0.000000 1.595600 
# 
# From -- ./inp_files/33181.got.cif
#   From: 2010.05.17/outbox.cif.g08.bks.cpg/sg65_17_cif.got.tgz:33181.got - 2010.06.03 17:01:31.
