data_PCOD9492737
_publ_section_title
;
Structure prediction by ZEFSAII (Michael W. Deem and Ramdas Pophale) SiO2 
 PCOD9492737
Probable space group: C M M M
;
_chemical_formula_sum "Si O2"
_cell_formula_units_Z 72
_cell_length_a 17.147393
_cell_length_b 11.528769
_cell_length_c 18.354880
_cell_angle_alpha 90.000000
_cell_angle_beta 90.000000
_cell_angle_gamma 90.000000
_cell_volume 3628.545627
_symmetry_space_group_name_H-M "C M M M"
_symmetry_group_IT_number 65
_symmetry_cell_setting 'orthorhombic'
loop_
_space_group_symop_operation_xyz
x,y,z
-x,-y,z
x,-y,-z
-x,y,-z
-x,-y,-z
x,y,-z
-x,y,z
x,-y,z
1/2+x,1/2+y,z
1/2-x,1/2-y,z
1/2+x,1/2-y,-z
1/2-x,1/2+y,-z
1/2-x,1/2-y,-z
1/2+x,1/2+y,-z
1/2-x,1/2+y,z
1/2+x,1/2-y,z
loop_
_atom_site_type_symbol
_atom_site_label
_atom_site_fract_x
_atom_site_fract_y
_atom_site_fract_z
Si Si1 0.595142 0.754196 0.870285
Si Si2 0.157302 0.754239 0.417074
Si Si3 0.906550 0.630586 0.720483
Si Si4 0.189750 0.361870 0.000000
Si Si5 0.911922 0.000000 0.588226
Si Si6 0.091791 0.000000 0.912975
O O1 0.500000 0.760233 0.879226
O O2 0.615796 0.789094 0.788189
O O3 0.622742 0.622337 0.884768
O O4 0.636241 0.837441 0.928848
O O5 0.127731 0.733770 0.500000
O O6 0.250000 0.750000 0.419835
O O7 0.127095 0.666315 0.357107
O O8 0.130511 0.881797 0.391909
O O9 0.883351 0.500000 0.738830
O O10 0.000000 0.635962 0.714747
O O11 0.250000 0.250000 0.000000
O O12 0.215852 0.500000 0.000000
O O13 0.914479 0.000000 0.500000
O O14 0.000000 0.000000 0.616583
O O15 0.000000 0.000000 0.893403
O O16 0.097136 0.000000 0.000000
#
# Coordination Sequence:
#
# PCOD9492737 Si02
#       6
#    16  16  16   8   8   8
#     4  10  21  40  66  92 123 164 211 258 312 375
#     4  10  22  38  61  89 121 163 206 255 317 381
#     4  10  22  39  60  89 124 160 205 260 310 371
#     4  12  27  41  62  92 126 169 208 257 319 379
#     4   9  18  35  59  87 118 152 200 258 307 367
#     4   9  16  31  63  99 122 151 197 257 307 356
#
# _framework density 19.842659999999999
#
# number of rings (size 3 to 8) (size 9 to 14) (size 15 to 20)
#    0.000    2.000    1.111    1.667    3.111    5.333 
#    0.000    3.333    0.000    0.000    0.000    0.000 
#    0.000    0.000    0.000    0.000    0.000    0.000 
#
# Total GULP energy -200861.362504 kJ/mol
# GULP energy per Si atom -5579.482292 kJ/mol
# Density = 1.979750 g / cm^3
# Si number density = 19.842660 Si / 1000 Ang^3
#
#
#
# Elastic Constant Matrix: (Units=GPa)
#
#
# Indices 1 2 3 4 5 6 
#
# 1 38.5704 29.6862 4.7160 0.0000 0.0000 0.0000
# 2 29.6862 117.1362 32.1863 0.0000 0.0000 0.0000
# 3 4.7160 32.1863 86.2042 0.0000 0.0000 0.0000
# 4 0.0000 0.0000 0.0000 41.7456 0.0000 0.0000
# 5 0.0000 0.0000 0.0000 0.0000 17.8966 0.0000
# 6 0.0000 0.0000 0.0000 0.0000 0.0000 696.1127
#
#
#
# Elastic Compliance Matrix: (Units=1/GPa)
#
#
# Indices 1 2 3 4 5 6 
#
# 1 0.032369 -0.008599 0.001440 0.000000 0.000000 0.000000
# 2 -0.008599 0.011797 -0.003934 0.000000 0.000000 0.000000
# 3 0.001440 -0.003934 0.012991 0.000000 0.000000 0.000000
# 4 0.000000 0.000000 0.000000 0.023955 0.000000 0.000000
# 5 0.000000 0.000000 0.000000 0.000000 0.055877 0.000000
# 6 0.000000 0.000000 0.000000 0.000000 0.000000 0.001437
#
#
# Mechanical properties :
#
#
# Convention : Reuss Voigt Hill
#
# Bulk Modulus (GPa) = 28.59617 41.67642 35.13630
# Shear Modulus (GPa) = 29.02450 162.83914 95.93182
#
# Velocity S-wave (km/s) = 3.82872 9.06881 6.96069
# Velocity P-wave (km/s) = 5.82994 11.43271 9.07455
#
# Compressibility (1/GPa) = 0.03496971
#
# Stress axis : x y z
#
# Youngs Moduli (GPa) = 30.89388 84.76433 76.97884
#
# Poissons Ratio (x) = 0.72889 -0.11083
# Poissons Ratio (y) = 0.26566 0.30287
# Poissons Ratio (z) = -0.04448 0.33350
#
# Static dielectric constant tensor:
#      x y z
#    x 1.705410 0.000000 0.000000 
#    y 0.000000 1.497570 0.000000 
#    z 0.000000 0.000000 1.673300 
# 
# From -- ./inp_files/54132.got.cif
#   From: 2010.05.17/outbox.cif.g08.bks.cpg/sg65_28_cif.got.tgz:54132.got - 2010.06.03 17:01:31.
