data_PCOD9492717
_publ_section_title
;
Structure prediction by ZEFSAII (Michael W. Deem and Ramdas Pophale) SiO2 
 PCOD9492717
Probable space group: C M M M
;
_chemical_formula_sum "Si O2"
_cell_formula_units_Z 64
_cell_length_a 15.893061
_cell_length_b 24.526684
_cell_length_c 8.738599
_cell_angle_alpha 90.000000
_cell_angle_beta 90.000000
_cell_angle_gamma 90.000000
_cell_volume 3406.341587
_symmetry_space_group_name_H-M "C M M M"
_symmetry_group_IT_number 65
_symmetry_cell_setting 'orthorhombic'
loop_
_space_group_symop_operation_xyz
x,y,z
-x,-y,z
x,-y,-z
-x,y,-z
-x,-y,-z
x,y,-z
-x,y,z
x,-y,z
1/2+x,1/2+y,z
1/2-x,1/2-y,z
1/2+x,1/2-y,-z
1/2-x,1/2+y,-z
1/2-x,1/2-y,-z
1/2+x,1/2+y,-z
1/2-x,1/2+y,z
1/2+x,1/2-y,z
loop_
_atom_site_type_symbol
_atom_site_label
_atom_site_fract_x
_atom_site_fract_y
_atom_site_fract_z
Si Si1 0.000000 0.210956 0.817689
Si Si2 0.636231 0.500000 0.683919
Si Si3 0.901780 0.385547 0.815176
Si Si4 0.500000 0.590273 0.315428
Si Si5 0.822162 0.500000 0.815668
Si Si6 0.840075 0.725099 0.683432
O O1 0.082844 0.240710 0.753094
O O2 0.000000 0.148288 0.764646
O O3 0.000000 0.215198 0.000000
O O4 0.644721 0.500000 0.500000
O O5 0.580862 0.446844 0.724654
O O6 0.726729 0.500000 0.759400
O O7 0.868670 0.444755 0.765852
O O8 0.849929 0.336660 0.740957
O O9 0.000000 0.379139 0.775163
O O10 0.895244 0.381941 0.000000
O O11 0.500000 0.597623 0.500000
O O12 0.823645 0.500000 0.000000
O O13 0.846308 0.726809 0.500000
O O14 0.750000 0.750000 0.728664
#
# Coordination Sequence:
#
# PCOD9492717 Si02
#       6
#     8   8  16   8   8  16
#     4  12  25  41  65  95 125 162 205 254 312 374
#     4   9  20  39  61  86 118 160 204 247 299 355
#     4  10  21  40  63  88 121 161 201 247 305 363
#     4   9  20  40  62  84 119 163 203 246 299 359
#     4  10  22  37  59  91 124 156 198 249 305 364
#     4  11  25  43  64  91 125 164 207 255 308 367
#
# _framework density 18.788485000000001
#
# number of rings (size 3 to 8) (size 9 to 14) (size 15 to 20)
#    0.000    1.750    1.250    3.000    3.500    5.500 
#    0.000    1.250    0.000    2.250    0.000    0.000 
#    0.000    0.000    0.000    0.000    0.000    0.000 
#
# Total GULP energy -178842.373639 kJ/mol
# GULP energy per Si atom -5588.824176 kJ/mol
# Density = 1.874572 g / cm^3
# Si number density = 18.788485 Si / 1000 Ang^3
#
#
#
# Elastic Constant Matrix: (Units=GPa)
#
#
# Indices 1 2 3 4 5 6 
#
# 1 152.6057 91.1608 48.4791 0.0000 0.0000 0.0000
# 2 91.1608 189.3855 50.1142 0.0000 0.0000 0.0000
# 3 48.4791 50.1142 38.6782 0.0000 0.0000 0.0000
# 4 0.0000 0.0000 0.0000 38.2759 0.0000 0.0000
# 5 0.0000 0.0000 0.0000 0.0000 50.4425 0.0000
# 6 0.0000 0.0000 0.0000 0.0000 0.0000 -9.1479
#
#
#
# Elastic Compliance Matrix: (Units=1/GPa)
#
#
# Indices 1 2 3 4 5 6 
#
# 1 0.011712 -0.002668 -0.011223 0.000000 0.000000 0.000000
# 2 -0.002668 0.008643 -0.007855 0.000000 0.000000 0.000000
# 3 -0.011223 -0.007855 0.050098 0.000000 0.000000 0.000000
# 4 0.000000 0.000000 0.000000 0.026126 0.000000 0.000000
# 5 0.000000 0.000000 0.000000 0.000000 0.019825 0.000000
# 6 0.000000 0.000000 0.000000 0.000000 0.000000 -0.109315
#
#
# Mechanical properties :
#
#
# Convention : Reuss Voigt Hill
#
# Bulk Modulus (GPa) = 37.08899 84.46417 60.77658
# Shear Modulus (GPa) = 83.94061 28.64178 56.29120
#
# Velocity S-wave (km/s) = 6.69131 3.90863 5.47955
# Velocity P-wave (km/s) = 8.91523 8.08843 8.51188
#
# Compressibility (1/GPa) = 0.02696218
#
# Stress axis : x y z
#
# Youngs Moduli (GPa) = 85.38519 115.70417 19.96090
#
# Poissons Ratio (x) = 0.30866 0.22402
# Poissons Ratio (y) = 0.22778 0.15678
# Poissons Ratio (z) = 0.95827 0.90880
#
# Static dielectric constant tensor:
#      x y z
#    x 1.620590 0.000000 0.000000 
#    y 0.000000 1.634970 0.000000 
#    z 0.000000 0.000000 1.632860 
# 
# From -- ./inp_files/6816.got.cif
#   From: 2010.05.17/outbox.cif.g08.bks.cpg/sg65_4_cif.got.tgz:6816.got - 2010.06.03 17:01:31.
