data_PCOD9492724
_publ_section_title
;
Structure prediction by ZEFSAII (Michael W. Deem and Ramdas Pophale) SiO2 
 PCOD9492724
Probable space group: C M M M
;
_chemical_formula_sum "Si O2"
_cell_formula_units_Z 52
_cell_length_a 14.878558
_cell_length_b 11.174237
_cell_length_c 14.846993
_cell_angle_alpha 90.000000
_cell_angle_beta 90.000000
_cell_angle_gamma 90.000000
_cell_volume 2468.409586
_symmetry_space_group_name_H-M "C M M M"
_symmetry_group_IT_number 65
_symmetry_cell_setting 'orthorhombic'
loop_
_space_group_symop_operation_xyz
x,y,z
-x,-y,z
x,-y,-z
-x,y,-z
-x,-y,-z
x,y,-z
-x,y,z
x,-y,z
1/2+x,1/2+y,z
1/2-x,1/2-y,z
1/2+x,1/2-y,-z
1/2-x,1/2+y,-z
1/2-x,1/2-y,-z
1/2+x,1/2+y,-z
1/2-x,1/2+y,z
1/2+x,1/2-y,z
loop_
_atom_site_type_symbol
_atom_site_label
_atom_site_fract_x
_atom_site_fract_y
_atom_site_fract_z
Si Si1 0.842309 0.803459 0.352740
Si Si2 0.386251 0.500000 0.500000
Si Si3 0.309167 0.633176 0.853039
Si Si4 0.000000 0.640033 0.713428
Si Si5 0.000000 0.769397 0.098824
O O1 0.750000 0.750000 0.390326
O O2 0.883636 0.896849 0.421278
O O3 0.817513 0.860762 0.255729
O O4 0.912816 0.699644 0.330765
O O5 0.275217 0.500000 0.878269
O O6 0.250000 0.750000 0.879640
O O7 0.409630 0.652992 0.889938
O O8 0.000000 0.500000 0.702336
O O9 0.000000 0.676852 0.818569
O O10 0.000000 0.713383 0.000000
#
# Coordination Sequence:
#
# PCOD9492724 Si02
#       5
#    16   4  16   8   8
#     4  10  23  39  64  94 127 170 215 261 323 371
#     4  12  22  41  64  93 130 166 222 277 292 379
#     4  10  21  40  64  92 131 175 212 259 324 389
#     4  10  24  45  67  90 130 172 206 256 333 394
#     4  10  23  41  66  97 124 162 218 265 311 378
#
# _framework density 21.066195
#
# number of rings (size 3 to 8) (size 9 to 14) (size 15 to 20)
#    0.000    1.846    1.538    0.923    2.154   11.385 
#    0.000    0.769    0.000    0.000    0.000    0.000 
#    0.000    0.000    0.000    0.000    0.000    0.000 
#
# Total GULP energy -144738.730810 kJ/mol
# GULP energy per Si atom -5566.874262 kJ/mol
# Density = 2.101825 g / cm^3
# Si number density = 21.066195 Si / 1000 Ang^3
#
#
#
# Elastic Constant Matrix: (Units=GPa)
#
#
# Indices 1 2 3 4 5 6 
#
# 1 109.6715 74.8688 27.1213 0.0000 0.0000 0.0000
# 2 74.8688 229.4707 50.1231 0.0000 0.0000 0.0000
# 3 27.1213 50.1231 111.7578 0.0000 0.0000 0.0000
# 4 0.0000 0.0000 0.0000 -20.4025 0.0000 0.0000
# 5 0.0000 0.0000 0.0000 0.0000 -36.3323 0.0000
# 6 0.0000 0.0000 0.0000 0.0000 0.0000 -2.3482
#
#
#
# Elastic Compliance Matrix: (Units=1/GPa)
#
#
# Indices 1 2 3 4 5 6 
#
# 1 0.011891 -0.003602 -0.001270 0.000000 0.000000 0.000000
# 2 -0.003602 0.005922 -0.001782 0.000000 0.000000 0.000000
# 3 -0.001270 -0.001782 0.010055 0.000000 0.000000 0.000000
# 4 0.000000 0.000000 0.000000 -0.049014 0.000000 0.000000
# 5 0.000000 0.000000 0.000000 0.000000 -0.027524 0.000000
# 6 0.000000 0.000000 0.000000 0.000000 0.000000 -0.425854
#
#
# Mechanical properties :
#
#
# Convention : Reuss Voigt Hill
#
# Bulk Modulus (GPa) = 68.68011 83.90295 76.29153
# Shear Modulus (GPa) = -10.95627 8.10250 -1.42688
#
# Velocity S-wave (km/s) = -2.28302 1.96330 -0.82390
# Velocity P-wave (km/s) = 5.07181 6.71224 5.94884
#
# Compressibility (1/GPa) = 0.01456026
#
# Stress axis : x y z
#
# Youngs Moduli (GPa) = 84.09411 168.84989 99.44929
#
# Poissons Ratio (x) = 0.60826 0.12632
# Poissons Ratio (y) = 0.30294 0.17722
# Poissons Ratio (z) = 0.10681 0.30089
#
# Static dielectric constant tensor:
#      x y z
#    x 1.788490 0.000000 0.000000 
#    y 0.000000 1.721350 0.000000 
#    z 0.000000 0.000000 1.741220 
# 
# From -- ./inp_files/39292.got.cif
#   From: 2010.05.17/outbox.cif.g08.bks.cpg/sg65_20_cif.got.tgz:39292.got - 2010.06.03 17:01:31.
