data_PCOD9492580
_publ_section_title
;
Structure prediction by ZEFSAII (Michael W. Deem and Ramdas Pophale) SiO2 
 PCOD9492580
Probable space group: C M M M
;
_chemical_formula_sum "Si O2"
_cell_formula_units_Z 52
_cell_length_a 13.467256
_cell_length_b 13.521537
_cell_length_c 11.851167
_cell_angle_alpha 90.000000
_cell_angle_beta 90.000000
_cell_angle_gamma 90.000000
_cell_volume 2158.073812
_symmetry_space_group_name_H-M "C M M M"
_symmetry_group_IT_number 65
_symmetry_cell_setting 'orthorhombic'
loop_
_space_group_symop_operation_xyz
x,y,z
-x,-y,z
x,-y,-z
-x,y,-z
-x,-y,-z
x,y,-z
-x,y,z
x,-y,z
1/2+x,1/2+y,z
1/2-x,1/2-y,z
1/2+x,1/2-y,-z
1/2-x,1/2+y,-z
1/2-x,1/2-y,-z
1/2+x,1/2+y,-z
1/2-x,1/2+y,z
1/2+x,1/2-y,z
loop_
_atom_site_type_symbol
_atom_site_label
_atom_site_fract_x
_atom_site_fract_y
_atom_site_fract_z
Si Si1 0.117297 0.891272 0.303738
Si Si2 0.810975 0.500000 0.500000
Si Si3 0.115259 0.322836 0.345323
Si Si4 0.291491 0.113131 0.871490
O O1 0.138457 0.791420 0.373497
O O2 0.185468 0.887680 0.192591
O O3 0.000000 0.886241 0.276876
O O4 0.132490 0.000000 0.360388
O O5 0.825100 0.588802 0.403359
O O6 0.136565 0.328636 0.211911
O O7 0.000000 0.341642 0.370344
O O8 0.326648 0.000000 0.872709
O O9 0.286441 0.146961 0.000000
#
# Coordination Sequence:
#
# PCOD9492580 Si02
#       4
#    16   4  16  16
#     4   9  20  39  62  89 126 166 205 249 302 371
#     4  12  25  44  66  92 123 164 215 264 316 370
#     4  11  22  39  65  91 123 165 209 259 312 371
#     4  10  21  38  63  95 131 165 202 256 315 376
#
# _framework density 24.095561
#
# number of rings (size 3 to 8) (size 9 to 14) (size 15 to 20)
#    0.000    1.846    1.538    2.308    0.000    3.692 
#    0.000   11.538    0.000    3.692    0.000    0.000 
#    0.000    0.000    0.000    0.000    0.000    0.000 
#
# Total GULP energy -144807.884404 kJ/mol
# GULP energy per Si atom -5569.534016 kJ/mol
# Density = 2.404072 g / cm^3
# Si number density = 24.095561 Si / 1000 Ang^3
#
#
#
# Elastic Constant Matrix: (Units=GPa)
#
#
# Indices 1 2 3 4 5 6 
#
# 1 98.0948 28.5000 11.1362 0.0000 0.0000 0.0000
# 2 28.5000 210.7711 56.2249 0.0000 0.0000 0.0000
# 3 11.1362 56.2249 161.1866 0.0000 0.0000 0.0000
# 4 0.0000 0.0000 0.0000 -25.4781 0.0000 0.0000
# 5 0.0000 0.0000 0.0000 0.0000 13.4032 0.0000
# 6 0.0000 0.0000 0.0000 0.0000 0.0000 36.9553
#
#
#
# Elastic Compliance Matrix: (Units=1/GPa)
#
#
# Indices 1 2 3 4 5 6 
#
# 1 0.010621 -0.001368 -0.000257 0.000000 0.000000 0.000000
# 2 -0.001368 0.005407 -0.001792 0.000000 0.000000 0.000000
# 3 -0.000257 -0.001792 0.006847 0.000000 0.000000 0.000000
# 4 0.000000 0.000000 0.000000 -0.039249 0.000000 0.000000
# 5 0.000000 0.000000 0.000000 0.000000 0.074609 0.000000
# 6 0.000000 0.000000 0.000000 0.000000 0.000000 0.027060
#
#
# Mechanical properties :
#
#
# Convention : Reuss Voigt Hill
#
# Bulk Modulus (GPa) = 62.33370 73.53051 67.93210
# Shear Modulus (GPa) = 51.29591 29.92217 40.60904
#
# Velocity S-wave (km/s) = 4.61896 3.52776 4.10973
# Velocity P-wave (km/s) = 7.37373 6.86847 7.12558
#
# Compressibility (1/GPa) = 0.01604269
#
# Stress axis : x y z
#
# Youngs Moduli (GPa) = 94.15564 184.93313 146.05571
#
# Poissons Ratio (x) = 0.25292 0.03750
# Poissons Ratio (y) = 0.12877 0.26169
# Poissons Ratio (z) = 0.02417 0.33134
#
# Static dielectric constant tensor:
#      x y z
#    x 1.959880 0.000000 0.000000 
#    y 0.000000 1.963310 0.000000 
#    z 0.000000 0.000000 1.910530 
# 
# From -- ./inp_files/23507.got.cif
#   From: 2010.05.17/outbox.cif.g08.bks.cpg/sg65_12_cif.got.tgz:23507.got - 2010.06.03 17:01:31.
