data_PCOD9492380
_publ_section_title
;
Structure prediction by ZEFSAII (Michael W. Deem and Ramdas Pophale) SiO2 
 PCOD9492380
Probable space group: C M M M
;
_chemical_formula_sum "Si O2"
_cell_formula_units_Z 104
_cell_length_a 11.092073
_cell_length_b 18.084566
_cell_length_c 28.165432
_cell_angle_alpha 90.000000
_cell_angle_beta 90.000000
_cell_angle_gamma 90.000000
_cell_volume 5649.854021
_symmetry_space_group_name_H-M "C M M M"
_symmetry_group_IT_number 65
_symmetry_cell_setting 'orthorhombic'
loop_
_space_group_symop_operation_xyz
x,y,z
-x,-y,z
x,-y,-z
-x,y,-z
-x,-y,-z
x,y,-z
-x,y,z
x,-y,z
1/2+x,1/2+y,z
1/2-x,1/2-y,z
1/2+x,1/2-y,-z
1/2-x,1/2+y,-z
1/2-x,1/2-y,-z
1/2+x,1/2+y,-z
1/2-x,1/2+y,z
1/2+x,1/2-y,z
loop_
_atom_site_type_symbol
_atom_site_label
_atom_site_fract_x
_atom_site_fract_y
_atom_site_fract_z
Si Si1 0.852671 0.684788 0.500000
Si Si2 0.357553 0.690280 0.944546
Si Si3 0.249554 0.662035 0.229131
Si Si4 0.500000 0.914449 0.346806
Si Si5 0.143039 0.917611 0.860031
Si Si6 0.277881 0.162297 0.396747
Si Si7 0.000000 0.415366 0.766856
Si Si8 0.641964 0.584308 0.321475
O O1 0.750000 0.750000 0.500000
O O2 0.819435 0.645270 0.450563
O O3 0.000000 0.702614 0.500000
O O4 0.500000 0.713221 0.935154
O O5 0.250000 0.750000 0.937929
O O6 0.325972 0.624618 0.908416
O O7 0.354568 0.668400 0.000000
O O8 0.250000 0.750000 0.231053
O O9 0.327085 0.631146 0.185749
O O10 0.296738 0.630028 0.279224
O O11 0.117863 0.629401 0.219297
O O12 0.613629 0.867707 0.364619
O O13 0.500000 0.917962 0.290357
O O14 0.500000 0.000000 0.364511
O O15 0.000000 0.925162 0.861005
O O16 0.196848 0.000000 0.856000
O O17 0.250000 0.250000 0.393234
O O18 0.166481 0.119646 0.373074
O O19 0.000000 0.500000 0.784164
O O20 0.500000 0.583232 0.312387
O O21 0.689012 0.500000 0.320471
#
# Coordination Sequence:
#
# PCOD9492380 Si02
#       8
#     8  16  16   8  16  16   8  16
#     4  10  22  40  62  93 124 160 201 252 309 357
#     4   9  18  35  60  89 120 155 201 254 307 362
#     4  12  25  38  61  88 121 158 205 252 298 365
#     4  11  22  39  62  87 122 155 192 247 300 352
#     4  10  21  38  59  83 119 160 200 249 306 361
#     4  11  23  38  64  88 120 152 201 243 297 357
#     4  11  24  40  61  88 124 162 200 246 309 367
#     4  11  24  41  62  87 120 157 196 244 305 367
#
# _framework density 18.407556
#
# number of rings (size 3 to 8) (size 9 to 14) (size 15 to 20)
#    0.000    1.385    2.308    3.231    3.231    2.154 
#    1.385    3.462    0.000    0.923    0.000    2.154 
#    0.000    0.000    0.000    0.000    0.000    0.000 
#
# Total GULP energy -289855.963502 kJ/mol
# GULP energy per Si atom -5574.153144 kJ/mol
# Density = 1.836566 g / cm^3
# Si number density = 18.407556 Si / 1000 Ang^3
#
#
#
# Elastic Constant Matrix: (Units=GPa)
#
#
# Indices 1 2 3 4 5 6 
#
# 1 59.8208 29.7821 18.5839 0.0000 0.0000 0.0000
# 2 29.7821 147.8756 61.0117 0.0000 0.0000 0.0000
# 3 18.5839 61.0117 93.4015 0.0000 0.0000 0.0000
# 4 0.0000 0.0000 0.0000 80.4456 0.0000 0.0000
# 5 0.0000 0.0000 0.0000 0.0000 30.4515 0.0000
# 6 0.0000 0.0000 0.0000 0.0000 0.0000 28.5858
#
#
#
# Elastic Compliance Matrix: (Units=1/GPa)
#
#
# Indices 1 2 3 4 5 6 
#
# 1 0.018782 -0.003068 -0.001733 0.000000 0.000000 0.000000
# 2 -0.003068 0.009758 -0.005764 0.000000 0.000000 0.000000
# 3 -0.001733 -0.005764 0.014817 0.000000 0.000000 0.000000
# 4 0.000000 0.000000 0.000000 0.012431 0.000000 0.000000
# 5 0.000000 0.000000 0.000000 0.000000 0.032839 0.000000
# 6 0.000000 0.000000 0.000000 0.000000 0.000000 0.034982
#
#
# Mechanical properties :
#
#
# Convention : Reuss Voigt Hill
#
# Bulk Modulus (GPa) = 44.98948 57.76145 51.37546
# Shear Modulus (GPa) = 32.86265 40.67793 36.77029
#
# Velocity S-wave (km/s) = 4.22984 4.70600 4.47426
# Velocity P-wave (km/s) = 6.95336 7.80871 7.39342
#
# Compressibility (1/GPa) = 0.02222742
#
# Stress axis : x y z
#
# Youngs Moduli (GPa) = 53.24169 102.47551 67.49230
#
# Poissons Ratio (x) = 0.31436 0.11698
# Poissons Ratio (y) = 0.16333 0.38903
# Poissons Ratio (z) = 0.09228 0.59067
#
# Static dielectric constant tensor:
#      x y z
#    x 1.638120 0.000000 0.000000 
#    y 0.000000 1.662810 0.000000 
#    z 0.000000 0.000000 1.618570 
# 
# From -- ./inp_files/74414.got.cif
#   From: 2010.05.17/outbox.cif.g08.bks.cpg/sg65_38_cif.got.tgz:74414.got - 2010.06.03 17:01:31.
