data_PCOD9492922
_publ_section_title
;
Structure prediction by ZEFSAII (Michael W. Deem and Ramdas Pophale) SiO2 
 PCOD9492922
Probable space group: C M M M
;
_chemical_formula_sum "Si O2"
_cell_formula_units_Z 116
_cell_length_a 28.931356
_cell_length_b 28.305131
_cell_length_c 7.742701
_cell_angle_alpha 90.000000
_cell_angle_beta 90.000000
_cell_angle_gamma 90.000000
_cell_volume 6340.542924
_symmetry_space_group_name_H-M "C M M M"
_symmetry_group_IT_number 65
_symmetry_cell_setting 'orthorhombic'
loop_
_space_group_symop_operation_xyz
x,y,z
-x,-y,z
x,-y,-z
-x,y,-z
-x,-y,-z
x,y,-z
-x,y,z
x,-y,z
1/2+x,1/2+y,z
1/2-x,1/2-y,z
1/2+x,1/2-y,-z
1/2-x,1/2+y,-z
1/2-x,1/2-y,-z
1/2+x,1/2+y,-z
1/2-x,1/2+y,z
1/2+x,1/2-y,z
loop_
_atom_site_type_symbol
_atom_site_label
_atom_site_fract_x
_atom_site_fract_y
_atom_site_fract_z
Si Si1 0.551597 0.686278 0.707357
Si Si2 0.698022 0.737682 0.211318
Si Si3 0.146981 0.668416 0.201658
Si Si4 0.147751 0.143924 0.796204
Si Si5 0.947641 0.705519 0.291169
Si Si6 0.840763 0.500000 0.000000
Si Si7 0.794917 0.052755 0.293958
Si Si8 0.188593 0.429042 0.299153
O O1 0.549637 0.688515 0.500000
O O2 0.500000 0.672384 0.768347
O O3 0.594283 0.653008 0.752229
O O4 0.560758 0.740182 0.768261
O O5 0.750000 0.750000 0.264777
O O6 0.666096 0.781309 0.266653
O O7 0.678029 0.687808 0.276342
O O8 0.697709 0.736239 0.000000
O O9 0.091956 0.671530 0.222764
O O10 0.170431 0.624333 0.292617
O O11 0.159054 0.664830 0.000000
O O12 0.168875 0.093514 0.748953
O O13 0.151545 0.147539 0.000000
O O14 0.945516 0.705217 0.500000
O O15 0.000000 0.693028 0.240837
O O16 0.837930 0.540716 0.154947
O O17 0.794665 0.049438 0.500000
O O18 0.742667 0.067287 0.244887
O O19 0.804558 0.000000 0.223577
O O20 0.184936 0.445292 0.500000
#
# Coordination Sequence:
#
# PCOD9492922 Si02
#       8
#    16  16  16  16  16   4  16  16
#     4   9  18  34  54  75 106 149 191 232 282 344
#     4   9  18  31  45  71 113 153 185 219 270 340
#     4  11  20  33  54  82 117 153 189 233 287 342
#     4  11  21  32  53  81 109 147 186 232 288 338
#     4   9  18  33  53  77 110 151 191 235 285 339
#     4  12  22  40  64  86 115 154 195 252 286 346
#     4  10  22  39  57  79 110 145 191 241 283 336
#     4  11  23  39  60  87 117 153 196 244 292 342
#
# _framework density 18.294962999999999
#
# number of rings (size 3 to 8) (size 9 to 14) (size 15 to 20)
#    0.000    1.931    2.759    2.690    0.966    1.931 
#    0.000    1.379    0.000    3.724    0.000    3.862 
#    0.000    2.207    0.000    0.000    0.000    0.000 
#
# Total GULP energy -323067.419703 kJ/mol
# GULP energy per Si atom -5570.127926 kJ/mol
# Density = 1.825332 g / cm^3
# Si number density = 18.294963 Si / 1000 Ang^3
#
#
#
# Elastic Constant Matrix: (Units=GPa)
#
#
# Indices 1 2 3 4 5 6 
#
# 1 100.3627 74.0791 3.6338 0.0000 0.0000 0.0000
# 2 74.0791 138.0198 18.0337 0.0000 0.0000 0.0000
# 3 3.6338 18.0337 54.8157 0.0000 0.0000 0.0000
# 4 0.0000 0.0000 0.0000 19.1552 0.0000 0.0000
# 5 0.0000 0.0000 0.0000 0.0000 11.1785 0.0000
# 6 0.0000 0.0000 0.0000 0.0000 0.0000 8.8714
#
#
#
# Elastic Compliance Matrix: (Units=1/GPa)
#
#
# Indices 1 2 3 4 5 6 
#
# 1 0.016693 -0.009211 0.001924 0.000000 0.000000 0.000000
# 2 -0.009211 0.012653 -0.003552 0.000000 0.000000 0.000000
# 3 0.001924 -0.003552 0.019284 0.000000 0.000000 0.000000
# 4 0.000000 0.000000 0.000000 0.052205 0.000000 0.000000
# 5 0.000000 0.000000 0.000000 0.000000 0.089457 0.000000
# 6 0.000000 0.000000 0.000000 0.000000 0.000000 0.112722
#
#
# Mechanical properties :
#
#
# Convention : Reuss Voigt Hill
#
# Bulk Modulus (GPa) = 37.10376 53.85459 45.47917
# Shear Modulus (GPa) = 14.98455 21.00446 17.99450
#
# Velocity S-wave (km/s) = 2.86502 3.39204 3.13961
# Velocity P-wave (km/s) = 5.59190 6.69642 6.16893
#
# Compressibility (1/GPa) = 0.02695145
#
# Stress axis : x y z
#
# Youngs Moduli (GPa) = 59.90566 79.03128 51.85629
#
# Poissons Ratio (x) = 0.72795 -0.09976
# Poissons Ratio (y) = 0.55179 0.18420
# Poissons Ratio (z) = -0.11524 0.28073
#
# Static dielectric constant tensor:
#      x y z
#    x 1.662040 0.000000 0.000000 
#    y 0.000000 1.684120 0.000000 
#    z 0.000000 0.000000 1.675960 
# 
# From -- ./inp_files/16905.got.cif
#   From: 2010.05.17/outbox.cif.g08.bks.cpg/sg65_9_cif.got.tgz:16905.got - 2010.06.03 17:01:31.
