data_PCOD9492340
_publ_section_title
;
Structure prediction by ZEFSAII (Michael W. Deem and Ramdas Pophale) SiO2 
 PCOD9492340
Probable space group: C M M M
;
_chemical_formula_sum "Si O2"
_cell_formula_units_Z 72
_cell_length_a 9.788595
_cell_length_b 14.635567
_cell_length_c 23.295477
_cell_angle_alpha 90.000000
_cell_angle_beta 90.000000
_cell_angle_gamma 90.000000
_cell_volume 3337.348192
_symmetry_space_group_name_H-M "C M M M"
_symmetry_group_IT_number 65
_symmetry_cell_setting 'orthorhombic'
loop_
_space_group_symop_operation_xyz
x,y,z
-x,-y,z
x,-y,-z
-x,y,-z
-x,-y,-z
x,y,-z
-x,y,z
x,-y,z
1/2+x,1/2+y,z
1/2-x,1/2-y,z
1/2+x,1/2-y,-z
1/2-x,1/2+y,-z
1/2-x,1/2-y,-z
1/2+x,1/2+y,-z
1/2-x,1/2+y,z
1/2+x,1/2-y,z
loop_
_atom_site_type_symbol
_atom_site_label
_atom_site_fract_x
_atom_site_fract_y
_atom_site_fract_z
Si Si1 0.500000 0.282274 0.230694
Si Si2 0.250000 0.250000 0.306533
Si Si3 0.000000 0.609437 0.840348
Si Si4 0.500000 0.389486 0.888891
Si Si5 0.788444 0.389246 0.062629
Si Si6 0.834184 0.844825 0.500000
Si Si7 0.346402 0.898416 0.395808
O O1 0.364005 0.298045 0.267417
O O2 0.500000 0.174588 0.214013
O O3 0.500000 0.340246 0.172409
O O4 0.321974 0.177196 0.347952
O O5 0.126181 0.635620 0.881450
O O6 0.000000 0.500000 0.829045
O O7 0.500000 0.500000 0.880884
O O8 0.366725 0.364471 0.924920
O O9 0.799080 0.500000 0.060427
O O10 0.833844 0.355623 0.000000
O O11 0.750000 0.750000 0.500000
O O12 0.772327 0.891831 0.556667
O O13 0.000000 0.838171 0.500000
O O14 0.500000 0.885123 0.421165
O O15 0.342979 0.000000 0.370689
#
# Coordination Sequence:
#
# PCOD9492340 Si02
#       7
#     8   8   8   8  16   8  16
#     4  12  26  42  63  87 124 166 228 276 332 380
#     4  12  26  45  66  94 127 178 228 290 330 382
#     4  10  21  38  60  86 119 160 209 263 327 396
#     4  10  21  38  58  84 119 160 203 259 329 398
#     4   9  17  33  59  88 119 155 197 253 325 403
#     4  12  25  42  75 112 152 186 219 267 334 403
#     4  11  25  47  73 105 141 182 227 275 338 401
#
# _framework density 21.574014999999999
#
# number of rings (size 3 to 8) (size 9 to 14) (size 15 to 20)
#    0.000    1.333    2.222    3.333    1.556    6.222 
#    0.000    3.333    0.000    0.000    0.000    0.000 
#    0.000    0.000    0.000    0.000    0.000    0.000 
#
# Total GULP energy -201204.421215 kJ/mol
# GULP energy per Si atom -5589.011700 kJ/mol
# Density = 2.152491 g / cm^3
# Si number density = 21.574015 Si / 1000 Ang^3
#
#
#
# Elastic Constant Matrix: (Units=GPa)
#
#
# Indices 1 2 3 4 5 6 
#
# 1 144.0886 6.0165 17.5661 0.0000 0.0000 0.0000
# 2 6.0165 79.8283 11.5356 0.0000 0.0000 0.0000
# 3 17.5661 11.5356 72.1022 0.0000 0.0000 0.0000
# 4 0.0000 0.0000 0.0000 -96.4393 0.0000 0.0000
# 5 0.0000 0.0000 0.0000 0.0000 7.9057 0.0000
# 6 0.0000 0.0000 0.0000 0.0000 0.0000 14.1825
#
#
#
# Elastic Compliance Matrix: (Units=1/GPa)
#
#
# Indices 1 2 3 4 5 6 
#
# 1 0.007159 -0.000294 -0.001697 0.000000 0.000000 0.000000
# 2 -0.000294 0.012835 -0.001982 0.000000 0.000000 0.000000
# 3 -0.001697 -0.001982 0.014600 0.000000 0.000000 0.000000
# 4 0.000000 0.000000 0.000000 -0.010369 0.000000 0.000000
# 5 0.000000 0.000000 0.000000 0.000000 0.126492 0.000000
# 6 0.000000 0.000000 0.000000 0.000000 0.000000 0.070509
#
#
# Mechanical properties :
#
#
# Convention : Reuss Voigt Hill
#
# Bulk Modulus (GPa) = 37.52632 40.69505 39.11069
# Shear Modulus (GPa) = 21.00350 2.52317 11.76334
#
# Velocity S-wave (km/s) = 3.12357 1.08263 2.33760
# Velocity P-wave (km/s) = 5.51733 4.52402 5.04518
#
# Compressibility (1/GPa) = 0.02664796
#
# Stress axis : x y z
#
# Youngs Moduli (GPa) = 139.67718 77.90924 68.49442
#
# Poissons Ratio (x) = 0.02293 0.11624
# Poissons Ratio (y) = 0.04111 0.13574
# Poissons Ratio (z) = 0.23705 0.15440
#
# Static dielectric constant tensor:
#      x y z
#    x 1.830320 0.000000 0.000000 
#    y 0.000000 1.810300 0.000000 
#    z 0.000000 0.000000 1.740130 
# 
# From -- ./inp_files/72675.got.cif
#   From: 2010.05.17/outbox.cif.g08.bks.cpg/sg65_37_cif.got.tgz:72675.got - 2010.06.03 17:01:31.
