data_PCOD9492959
_publ_section_title
;
Structure prediction by ZEFSAII (Michael W. Deem and Ramdas Pophale) SiO2 
 PCOD9492959
Probable space group: C M M M
;
_chemical_formula_sum "Si O2"
_cell_formula_units_Z 72
_cell_length_a 10.161726
_cell_length_b 27.068555
_cell_length_c 14.536795
_cell_angle_alpha 90.000000
_cell_angle_beta 90.000000
_cell_angle_gamma 90.000000
_cell_volume 3998.537919
_symmetry_space_group_name_H-M "C M M M"
_symmetry_group_IT_number 65
_symmetry_cell_setting 'orthorhombic'
loop_
_space_group_symop_operation_xyz
x,y,z
-x,-y,z
x,-y,-z
-x,y,-z
-x,-y,-z
x,y,-z
-x,y,z
x,-y,z
1/2+x,1/2+y,z
1/2-x,1/2-y,z
1/2+x,1/2-y,-z
1/2-x,1/2+y,-z
1/2-x,1/2-y,-z
1/2+x,1/2+y,-z
1/2-x,1/2+y,z
1/2+x,1/2-y,z
loop_
_atom_site_type_symbol
_atom_site_label
_atom_site_fract_x
_atom_site_fract_y
_atom_site_fract_z
Si Si1 0.500000 0.441094 0.110746
Si Si2 0.150274 0.295108 0.500000
Si Si3 0.342456 0.798663 0.705885
Si Si4 0.253159 0.102548 0.789093
Si Si5 0.500000 0.058996 0.105476
Si Si6 0.153996 0.940476 0.397437
O O1 0.500000 0.500000 0.136373
O O2 0.625260 0.413486 0.153616
O O3 0.500000 0.438720 0.000000
O O4 0.250000 0.250000 0.500000
O O5 0.167927 0.319203 0.399793
O O6 0.000000 0.276229 0.500000
O O7 0.500000 0.789514 0.721894
O O8 0.250000 0.750000 0.711123
O O9 0.285005 0.839828 0.774159
O O10 0.373986 0.078205 0.841188
O O11 0.234197 0.080352 0.687288
O O12 0.500000 0.000000 0.104825
O O13 0.500000 0.076399 0.000000
O O14 0.196673 0.924869 0.500000
O O15 0.000000 0.926073 0.386620
O O16 0.158525 0.000000 0.394655
#
# Coordination Sequence:
#
# PCOD9492959 Si02
#       6
#     8   8  16  16   8  16
#     4  11  24  42  66  94 121 156 210 266 307 357
#     4   8  16  34  56  82 117 156 202 250 293 344
#     4  10  22  39  61  88 122 162 206 254 300 357
#     4  12  22  38  63  93 122 162 205 252 308 371
#     4  11  24  42  64  90 123 160 200 256 319 371
#     4   9  18  33  54  84 124 165 204 243 291 362
#
# _framework density 18.006581000000001
#
# number of rings (size 3 to 8) (size 9 to 14) (size 15 to 20)
#    0.000    1.778    2.222    3.333    3.111    1.778 
#    0.000    0.556    0.000    6.000    0.000    0.000 
#    0.000    0.000    0.000    0.000    0.000    0.000 
#
# Total GULP energy -200729.691242 kJ/mol
# GULP energy per Si atom -5575.824757 kJ/mol
# Density = 1.796560 g / cm^3
# Si number density = 18.006581 Si / 1000 Ang^3
#
#
#
# Elastic Constant Matrix: (Units=GPa)
#
#
# Indices 1 2 3 4 5 6 
#
# 1 149.4822 62.8795 79.9548 0.0000 0.0000 0.0000
# 2 62.8795 88.2739 57.5817 0.0000 0.0000 0.0000
# 3 79.9548 57.5817 132.9816 0.0000 0.0000 0.0000
# 4 0.0000 0.0000 0.0000 19.1674 0.0000 0.0000
# 5 0.0000 0.0000 0.0000 0.0000 60.6077 0.0000
# 6 0.0000 0.0000 0.0000 0.0000 0.0000 54.1676
#
#
#
# Elastic Compliance Matrix: (Units=1/GPa)
#
#
# Indices 1 2 3 4 5 6 
#
# 1 0.011261 -0.005024 -0.004595 0.000000 0.000000 0.000000
# 2 -0.005024 0.018029 -0.004786 0.000000 0.000000 0.000000
# 3 -0.004595 -0.004786 0.012355 0.000000 0.000000 0.000000
# 4 0.000000 0.000000 0.000000 0.052172 0.000000 0.000000
# 5 0.000000 0.000000 0.000000 0.000000 0.016500 0.000000
# 6 0.000000 0.000000 0.000000 0.000000 0.000000 0.018461
#
#
# Mechanical properties :
#
#
# Convention : Reuss Voigt Hill
#
# Bulk Modulus (GPa) = 77.91399 85.72996 81.82197
# Shear Modulus (GPa) = 30.88966 38.14331 34.51649
#
# Velocity S-wave (km/s) = 4.14631 4.60749 4.38297
# Velocity P-wave (km/s) = 8.14163 8.71889 8.43520
#
# Compressibility (1/GPa) = 0.01283466
#
# Stress axis : x y z
#
# Youngs Moduli (GPa) = 88.80229 55.46616 80.93846
#
# Poissons Ratio (x) = 0.27866 0.37193
# Poissons Ratio (y) = 0.44614 0.38737
# Poissons Ratio (z) = 0.40807 0.26546
#
# Static dielectric constant tensor:
#      x y z
#    x 1.434680 0.000000 0.000000 
#    y 0.000000 1.610760 0.000000 
#    z 0.000000 0.000000 1.628830 
# 
# From -- ./inp_files/36647.got.cif
#   From: 2010.05.17/outbox.cif.g08.bks.cpg/sg65_19_cif.got.tgz:36647.got - 2010.06.03 17:01:31.
