data_PCOD9492365
_publ_section_title
;
Structure prediction by ZEFSAII (Michael W. Deem and Ramdas Pophale) SiO2 
 PCOD9492365
Probable space group: C M M M
;
_chemical_formula_sum "Si O2"
_cell_formula_units_Z 80
_cell_length_a 29.941841
_cell_length_b 15.803542
_cell_length_c 8.167192
_cell_angle_alpha 90.000000
_cell_angle_beta 90.000000
_cell_angle_gamma 90.000000
_cell_volume 3864.610239
_symmetry_space_group_name_H-M "C M M M"
_symmetry_group_IT_number 65
_symmetry_cell_setting 'orthorhombic'
loop_
_space_group_symop_operation_xyz
x,y,z
-x,-y,z
x,-y,-z
-x,y,-z
-x,-y,-z
x,y,-z
-x,y,z
x,-y,z
1/2+x,1/2+y,z
1/2-x,1/2-y,z
1/2+x,1/2-y,-z
1/2-x,1/2+y,-z
1/2-x,1/2-y,-z
1/2+x,1/2+y,-z
1/2-x,1/2+y,z
1/2+x,1/2-y,z
loop_
_atom_site_type_symbol
_atom_site_label
_atom_site_fract_x
_atom_site_fract_y
_atom_site_fract_z
Si Si1 0.051063 0.788127 0.808629
Si Si2 0.730536 0.344390 0.311935
Si Si3 0.950436 0.661691 0.500000
Si Si4 0.683775 0.098095 0.173191
Si Si5 0.356132 0.096887 0.500000
Si Si6 0.863729 0.097217 0.196059
O O1 0.053777 0.717793 0.665858
O O2 0.089537 0.856000 0.771471
O O3 0.000000 0.821954 0.800298
O O4 0.057285 0.759118 0.000000
O O5 0.737218 0.370746 0.500000
O O6 0.750000 0.250000 0.293261
O O7 0.763159 0.399068 0.198649
O O8 0.679035 0.354840 0.268605
O O9 0.909056 0.599139 0.500000
O O10 0.000000 0.623781 0.500000
O O11 0.662066 0.138193 0.334161
O O12 0.669290 0.000000 0.167228
O O13 0.671733 0.139155 0.000000
O O14 0.339329 0.000000 0.500000
O O15 0.863986 0.000000 0.254789
O O16 0.858273 0.096190 0.000000
#
# Coordination Sequence:
#
# PCOD9492365 Si02
#       6
#    16  16   8  16   8  16
#     4   9  20  39  62  88 118 154 195 242 296 349
#     4  11  24  37  54  82 117 156 197 241 289 346
#     4  10  22  39  62  89 120 153 191 239 291 355
#     4  10  21  38  59  82 112 151 192 235 285 342
#     4  10  22  39  60  87 118 151 193 242 292 344
#     4  10  22  38  57  84 117 154 197 245 297 352
#
# _framework density 20.700662999999999
#
# number of rings (size 3 to 8) (size 9 to 14) (size 15 to 20)
#    0.000    2.000    1.000    1.200    4.200    5.800 
#    0.000    2.000    0.000    1.800    0.000    5.600 
#    0.000    0.000    0.000    0.000    0.000    0.000 
#
# Total GULP energy -223180.802359 kJ/mol
# GULP energy per Si atom -5579.520059 kJ/mol
# Density = 2.065355 g / cm^3
# Si number density = 20.700663 Si / 1000 Ang^3
#
#
#
# Elastic Constant Matrix: (Units=GPa)
#
#
# Indices 1 2 3 4 5 6 
#
# 1 123.4337 17.3356 45.4693 0.0000 0.0000 0.0000
# 2 17.3356 28.9345 20.1025 0.0000 0.0000 0.0000
# 3 45.4693 20.1025 131.5368 0.0000 0.0000 0.0000
# 4 0.0000 0.0000 0.0000 2.0976 0.0000 0.0000
# 5 0.0000 0.0000 0.0000 0.0000 17.5096 0.0000
# 6 0.0000 0.0000 0.0000 0.0000 0.0000 28.5105
#
#
#
# Elastic Compliance Matrix: (Units=1/GPa)
#
#
# Indices 1 2 3 4 5 6 
#
# 1 0.009658 -0.003879 -0.002746 0.000000 0.000000 0.000000
# 2 -0.003879 0.040224 -0.004807 0.000000 0.000000 0.000000
# 3 -0.002746 -0.004807 0.009286 0.000000 0.000000 0.000000
# 4 0.000000 0.000000 0.000000 0.476731 0.000000 0.000000
# 5 0.000000 0.000000 0.000000 0.000000 0.057112 0.000000
# 6 0.000000 0.000000 0.000000 0.000000 0.000000 0.035075
#
#
# Mechanical properties :
#
#
# Convention : Reuss Voigt Hill
#
# Bulk Modulus (GPa) = 27.54363 49.96887 38.75625
# Shear Modulus (GPa) = 7.54092 23.02338 15.28215
#
# Velocity S-wave (km/s) = 1.91069 3.33859 2.72001
# Velocity P-wave (km/s) = 4.26641 6.24922 5.35047
#
# Compressibility (1/GPa) = 0.03630603
#
# Stress axis : x y z
#
# Youngs Moduli (GPa) = 103.54463 24.86075 107.68736
#
# Poissons Ratio (x) = 0.09643 0.29567
# Poissons Ratio (y) = 0.40161 0.51761
# Poissons Ratio (z) = 0.28430 0.11950
#
# Static dielectric constant tensor:
#      x y z
#    x 1.724960 0.000000 0.000000 
#    y 0.000000 1.741350 0.000000 
#    z 0.000000 0.000000 1.792760 
# 
# From -- ./inp_files/16100.got.cif
#   From: 2010.05.17/outbox.cif.g08.bks.cpg/sg65_9_cif.got.tgz:16100.got - 2010.06.03 17:01:31.
