data_PCOD9492351
_publ_section_title
;
Structure prediction by ZEFSAII (Michael W. Deem and Ramdas Pophale) SiO2 
 PCOD9492351
Probable space group: C M M M
;
_chemical_formula_sum "Si O2"
_cell_formula_units_Z 72
_cell_length_a 15.896336
_cell_length_b 8.231481
_cell_length_c 28.997837
_cell_angle_alpha 90.000000
_cell_angle_beta 90.000000
_cell_angle_gamma 90.000000
_cell_volume 3794.378215
_symmetry_space_group_name_H-M "C M M M"
_symmetry_group_IT_number 65
_symmetry_cell_setting 'orthorhombic'
loop_
_space_group_symop_operation_xyz
x,y,z
-x,-y,z
x,-y,-z
-x,y,-z
-x,-y,-z
x,y,-z
-x,y,z
x,-y,z
1/2+x,1/2+y,z
1/2-x,1/2-y,z
1/2+x,1/2-y,-z
1/2-x,1/2+y,-z
1/2-x,1/2-y,-z
1/2+x,1/2+y,-z
1/2-x,1/2+y,z
1/2+x,1/2-y,z
loop_
_atom_site_type_symbol
_atom_site_label
_atom_site_fract_x
_atom_site_fract_y
_atom_site_fract_z
Si Si1 0.000000 0.800806 0.281692
Si Si2 0.657235 0.194145 0.447181
Si Si3 0.843152 0.804036 0.220243
Si Si4 0.156839 0.803992 0.885610
Si Si5 0.500000 0.698983 0.946980
Si Si6 0.500000 0.306226 0.387104
O O1 0.083016 0.748064 0.253953
O O2 0.000000 0.744991 0.334479
O O3 0.000000 0.000000 0.281720
O O4 0.644475 0.254192 0.500000
O O5 0.750000 0.250000 0.432127
O O6 0.582794 0.252065 0.414526
O O7 0.655997 0.000000 0.448258
O O8 0.750000 0.750000 0.234534
O O9 0.857104 0.748300 0.167319
O O10 0.844995 0.000000 0.219711
O O11 0.250000 0.750000 0.899876
O O12 0.083010 0.747892 0.919315
O O13 0.154950 0.000000 0.885113
O O14 0.500000 0.500000 0.946861
O O15 0.500000 0.751646 0.000000
O O16 0.500000 0.500000 0.385350
#
# Coordination Sequence:
#
# PCOD9492351 Si02
#       6
#     8  16  16  16   8   8
#     4   9  19  34  51  72 100 134 167 200 242 295
#     4  10  21  38  59  81 105 136 175 216 256 300
#     4   9  17  32  52  72  95 125 164 205 244 288
#     4   9  17  30  50  72  93 123 162 203 244 287
#     4   9  17  29  46  69  96 127 162 196 236 293
#     4  11  22  35  53  79 110 141 171 207 256 309
#
# _framework density 18.975439999999999
#
# number of rings (size 3 to 8) (size 9 to 14) (size 15 to 20)
#    0.000    2.556    0.000    2.000    0.000    6.667 
#    0.000    5.556    0.000    6.000    0.000    0.000 
#    0.000    0.000    0.000    0.000    0.000    0.000 
#
# Total GULP energy -200915.032572 kJ/mol
# GULP energy per Si atom -5580.973127 kJ/mol
# Density = 1.893225 g / cm^3
# Si number density = 18.975440 Si / 1000 Ang^3
#
#
#
# Elastic Constant Matrix: (Units=GPa)
#
#
# Indices 1 2 3 4 5 6 
#
# 1 222.0425 19.2554 147.2037 0.0000 0.0000 0.0000
# 2 19.2554 14.2662 17.0500 0.0000 0.0000 0.0000
# 3 147.2037 17.0500 140.0810 0.0000 0.0000 0.0000
# 4 0.0000 0.0000 0.0000 13.7410 0.0000 0.0000
# 5 0.0000 0.0000 0.0000 0.0000 -10.3219 0.0000
# 6 0.0000 0.0000 0.0000 0.0000 0.0000 33.9183
#
#
#
# Elastic Compliance Matrix: (Units=1/GPa)
#
#
# Indices 1 2 3 4 5 6 
#
# 1 0.014879 -0.001634 -0.015437 0.000000 0.000000 0.000000
# 2 -0.001634 0.082208 -0.008289 0.000000 0.000000 0.000000
# 3 -0.015437 -0.008289 0.024370 0.000000 0.000000 0.000000
# 4 0.000000 0.000000 0.000000 0.072775 0.000000 0.000000
# 5 0.000000 0.000000 0.000000 0.000000 -0.096881 0.000000
# 6 0.000000 0.000000 0.000000 0.000000 0.000000 0.029483
#
#
# Mechanical properties :
#
#
# Convention : Reuss Voigt Hill
#
# Bulk Modulus (GPa) = 14.13695 82.60088 48.36892
# Shear Modulus (GPa) = 24.85933 20.32618 22.59275
#
# Velocity S-wave (km/s) = 3.62343 3.27644 3.45430
# Velocity P-wave (km/s) = 4.99719 7.61173 6.43857
#
# Compressibility (1/GPa) = 0.07073663
#
# Stress axis : x y z
#
# Youngs Moduli (GPa) = 67.20714 12.16434 41.03459
#
# Poissons Ratio (x) = 0.01987 0.63346
# Poissons Ratio (y) = 0.10979 0.34015
# Poissons Ratio (z) = 1.03748 0.10083
#
# Static dielectric constant tensor:
#      x y z
#    x 1.619070 0.000000 0.000000 
#    y 0.000000 1.667950 0.000000 
#    z 0.000000 0.000000 1.655210 
# 
# From -- ./inp_files/72577.got.cif
#   From: 2010.05.17/outbox.cif.g08.bks.cpg/sg65_37_cif.got.tgz:72577.got - 2010.06.03 17:01:31.
