data_PCOD9492386
_publ_section_title
;
Structure prediction by ZEFSAII (Michael W. Deem and Ramdas Pophale) SiO2 
 PCOD9492386
Probable space group: C M M M
;
_chemical_formula_sum "Si O2"
_cell_formula_units_Z 104
_cell_length_a 22.285739
_cell_length_b 8.976079
_cell_length_c 26.745980
_cell_angle_alpha 90.000000
_cell_angle_beta 90.000000
_cell_angle_gamma 90.000000
_cell_volume 5350.227160
_symmetry_space_group_name_H-M "C M M M"
_symmetry_group_IT_number 65
_symmetry_cell_setting 'orthorhombic'
loop_
_space_group_symop_operation_xyz
x,y,z
-x,-y,z
x,-y,-z
-x,y,-z
-x,-y,-z
x,y,-z
-x,y,z
x,-y,z
1/2+x,1/2+y,z
1/2-x,1/2-y,z
1/2+x,1/2-y,-z
1/2-x,1/2+y,-z
1/2-x,1/2-y,-z
1/2+x,1/2+y,-z
1/2-x,1/2+y,z
1/2+x,1/2-y,z
loop_
_atom_site_type_symbol
_atom_site_label
_atom_site_fract_x
_atom_site_fract_y
_atom_site_fract_z
Si Si1 0.371266 0.321188 0.290725
Si Si2 0.186292 0.820610 0.392790
Si Si3 0.500000 0.322310 0.848352
Si Si4 0.112057 0.328603 0.099035
Si Si5 0.316543 0.819232 0.000000
Si Si6 0.932313 0.325040 0.560318
Si Si7 0.000000 0.181179 0.268887
Si Si8 0.812747 0.330224 0.801388
O O1 0.369870 0.500000 0.288930
O O2 0.326934 0.275919 0.335020
O O3 0.440048 0.271938 0.297586
O O4 0.353424 0.257105 0.237513
O O5 0.250000 0.750000 0.409143
O O6 0.125814 0.763790 0.420247
O O7 0.189906 0.000000 0.396631
O O8 0.500000 0.500000 0.846466
O O9 0.557262 0.264908 0.879052
O O10 0.500000 0.269425 0.789832
O O11 0.091971 0.500000 0.090717
O O12 0.160109 0.329254 0.143558
O O13 0.145019 0.275700 0.048896
O O14 0.250000 0.750000 0.000000
O O15 0.310683 0.000000 0.000000
O O16 0.931468 0.317578 0.500000
O O17 0.926382 0.500000 0.574321
O O18 0.000000 0.274211 0.575981
O O19 0.000000 0.000000 0.267337
O O20 0.806845 0.500000 0.784254
O O21 0.750000 0.250000 0.801876
#
# Coordination Sequence:
#
# PCOD9492386 Si02
#       8
#    16  16   8  16   8  16   8  16
#     4  10  21  38  59  84 118 156 194 240 294 351
#     4  11  24  39  61  90 126 166 206 255 304 359
#     4  11  21  36  62  87 112 147 185 230 282 336
#     4  10  22  39  58  82 113 146 184 231 284 342
#     4  10  22  41  62  83 111 148 184 230 285 336
#     4   9  20  41  67  93 124 162 204 254 310 366
#     4   9  18  35  58  84 114 151 192 237 290 344
#     4  11  22  35  55  81 110 146 190 236 284 343
#
# _framework density 19.438427999999998
#
# number of rings (size 3 to 8) (size 9 to 14) (size 15 to 20)
#    0.000    1.846    1.538    2.538    1.077    4.923 
#    0.000    2.692    0.000    0.000    0.000    0.000 
#    0.000    0.000    0.000    0.000    0.000    0.000 
#
# Total GULP energy -290141.305326 kJ/mol
# GULP energy per Si atom -5579.640487 kJ/mol
# Density = 1.939419 g / cm^3
# Si number density = 19.438428 Si / 1000 Ang^3
#
#
#
# Elastic Constant Matrix: (Units=GPa)
#
#
# Indices 1 2 3 4 5 6 
#
# 1 138.0041 30.5500 16.0124 0.0000 0.0000 0.0000
# 2 30.5500 16.9376 7.1296 0.0000 0.0000 0.0000
# 3 16.0124 7.1296 45.8708 0.0000 0.0000 0.0000
# 4 0.0000 0.0000 0.0000 22.2643 0.0000 0.0000
# 5 0.0000 0.0000 0.0000 0.0000 23.0009 0.0000
# 6 0.0000 0.0000 0.0000 0.0000 0.0000 70.7170
#
#
#
# Elastic Compliance Matrix: (Units=1/GPa)
#
#
# Indices 1 2 3 4 5 6 
#
# 1 0.012096 -0.021443 -0.000890 0.000000 0.000000 0.000000
# 2 -0.021443 0.101186 -0.008242 0.000000 0.000000 0.000000
# 3 -0.000890 -0.008242 0.023392 0.000000 0.000000 0.000000
# 4 0.000000 0.000000 0.000000 0.044915 0.000000 0.000000
# 5 0.000000 0.000000 0.000000 0.000000 0.043476 0.000000
# 6 0.000000 0.000000 0.000000 0.000000 0.000000 0.014141
#
#
# Mechanical properties :
#
#
# Convention : Reuss Voigt Hill
#
# Bulk Modulus (GPa) = 13.24068 34.24406 23.74237
# Shear Modulus (GPa) = 15.35953 33.00447 24.18200
#
# Velocity S-wave (km/s) = 2.81403 4.12503 3.53091
# Velocity P-wave (km/s) = 4.16950 6.35159 5.37250
#
# Compressibility (1/GPa) = 0.07552480
#
# Stress axis : x y z
#
# Youngs Moduli (GPa) = 82.67000 9.88280 42.74978
#
# Poissons Ratio (x) = 0.21192 0.03803
# Poissons Ratio (y) = 1.77271 0.35233
# Poissons Ratio (z) = 0.07355 0.08145
#
# Static dielectric constant tensor:
#      x y z
#    x 1.692880 0.000000 0.000000 
#    y 0.000000 1.667000 0.000000 
#    z 0.000000 0.000000 1.670720 
# 
# From -- ./inp_files/75568.got.cif
#   From: 2010.05.17/outbox.cif.g08.bks.cpg/sg65_38_cif.got.tgz:75568.got - 2010.06.03 17:01:31.
