data_PCOD9492829
_publ_section_title
;
Structure prediction by ZEFSAII (Michael W. Deem and Ramdas Pophale) SiO2 
 PCOD9492829
Probable space group: C M M M
;
_chemical_formula_sum "Si O2"
_cell_formula_units_Z 72
_cell_length_a 8.495304
_cell_length_b 21.945828
_cell_length_c 20.591957
_cell_angle_alpha 90.000000
_cell_angle_beta 90.000000
_cell_angle_gamma 90.000000
_cell_volume 3839.091987
_symmetry_space_group_name_H-M "C M M M"
_symmetry_group_IT_number 65
_symmetry_cell_setting 'orthorhombic'
loop_
_space_group_symop_operation_xyz
x,y,z
-x,-y,z
x,-y,-z
-x,y,-z
-x,-y,-z
x,y,-z
-x,y,z
x,-y,z
1/2+x,1/2+y,z
1/2-x,1/2-y,z
1/2+x,1/2-y,-z
1/2-x,1/2+y,-z
1/2-x,1/2-y,-z
1/2+x,1/2+y,-z
1/2-x,1/2+y,z
1/2+x,1/2-y,z
loop_
_atom_site_type_symbol
_atom_site_label
_atom_site_fract_x
_atom_site_fract_y
_atom_site_fract_z
Si Si1 0.811183 0.681277 0.734262
Si Si2 0.189521 0.875908 0.133213
Si Si3 0.811458 0.816658 0.000000
Si Si4 0.678122 0.426607 0.500000
Si Si5 0.811105 0.500000 0.922259
Si Si6 0.689033 0.070624 0.640581
O O1 0.750000 0.750000 0.720350
O O2 0.759290 0.659598 0.805761
O O3 0.755508 0.625511 0.687370
O O4 0.000000 0.683560 0.730588
O O5 0.244510 0.845684 0.066296
O O6 0.000000 0.874586 0.138067
O O7 0.248653 0.943681 0.119957
O O8 0.750000 0.750000 0.000000
O O9 0.000000 0.820526 0.000000
O O10 0.670376 0.500000 0.500000
O O11 0.500000 0.402501 0.500000
O O12 0.764226 0.411728 0.567114
O O13 0.000000 0.500000 0.924062
O O14 0.758231 0.500000 0.000000
O O15 0.500000 0.068218 0.645569
O O16 0.745368 0.000000 0.653686
#
# Coordination Sequence:
#
# PCOD9492829 Si02
#       6
#    16  16   8   8   8  16
#     4  11  24  41  61  87 121 160 203 249 300 360
#     4  11  23  40  60  84 116 154 195 245 301 356
#     4  10  22  37  56  79 107 144 192 240 291 354
#     4   9  17  31  56  91 124 151 189 241 292 347
#     4  11  23  39  61  89 117 150 191 242 301 361
#     4   9  19  37  61  87 118 157 198 241 292 352
#
# _framework density 18.754434
#
# number of rings (size 3 to 8) (size 9 to 14) (size 15 to 20)
#    0.000    1.778    1.111    2.667    1.556    7.111 
#    0.000    0.556    0.000    0.000    0.000    0.000 
#    0.000    0.000    0.000    0.000    0.000    0.000 
#
# Total GULP energy -200651.498909 kJ/mol
# GULP energy per Si atom -5573.652747 kJ/mol
# Density = 1.871175 g / cm^3
# Si number density = 18.754434 Si / 1000 Ang^3
#
#
#
# Elastic Constant Matrix: (Units=GPa)
#
#
# Indices 1 2 3 4 5 6 
#
# 1 21.0055 24.0000 18.9422 0.0000 0.0000 0.0000
# 2 24.0000 165.8171 80.5936 0.0000 0.0000 0.0000
# 3 18.9422 80.5936 137.0513 0.0000 0.0000 0.0000
# 4 0.0000 0.0000 0.0000 -36.5370 0.0000 0.0000
# 5 0.0000 0.0000 0.0000 0.0000 30.1135 0.0000
# 6 0.0000 0.0000 0.0000 0.0000 0.0000 31.4192
#
#
#
# Elastic Compliance Matrix: (Units=1/GPa)
#
#
# Indices 1 2 3 4 5 6 
#
# 1 0.058856 -0.006392 -0.004376 0.000000 0.000000 0.000000
# 2 -0.006392 0.009138 -0.004490 0.000000 0.000000 0.000000
# 3 -0.004376 -0.004490 0.010542 0.000000 0.000000 0.000000
# 4 0.000000 0.000000 0.000000 -0.027370 0.000000 0.000000
# 5 0.000000 0.000000 0.000000 0.000000 0.033208 0.000000
# 6 0.000000 0.000000 0.000000 0.000000 0.000000 0.031828
#
#
# Mechanical properties :
#
#
# Convention : Reuss Voigt Hill
#
# Bulk Modulus (GPa) = 20.82477 63.43840 42.13159
# Shear Modulus (GPa) = 30.72675 18.35501 24.54088
#
# Velocity S-wave (km/s) = 4.05207 3.13182 3.62130
# Velocity P-wave (km/s) = 5.74634 6.85397 6.32445
#
# Compressibility (1/GPa) = 0.04801973
#
# Stress axis : x y z
#
# Youngs Moduli (GPa) = 16.99074 109.42821 94.85893
#
# Poissons Ratio (x) = 0.69944 0.41509
# Poissons Ratio (y) = 0.10860 0.42596
# Poissons Ratio (z) = 0.07435 0.49138
#
# Static dielectric constant tensor:
#      x y z
#    x 1.659660 0.000000 0.000000 
#    y 0.000000 1.570690 0.000000 
#    z 0.000000 0.000000 1.634120 
# 
# From -- ./inp_files/59394.got.cif
#   From: 2010.05.17/outbox.cif.g08.bks.cpg/sg65_30_cif.got.tgz:59394.got - 2010.06.03 17:01:31.
