data_PCOD9492048
_publ_section_title
;
Structure prediction by ZEFSAII (Michael W. Deem and Ramdas Pophale) SiO2 
 PCOD9492048
Probable space group: C M M M
;
_chemical_formula_sum "Si O2"
_cell_formula_units_Z 104
_cell_length_a 9.117203
_cell_length_b 26.460357
_cell_length_c 22.356450
_cell_angle_alpha 90.000000
_cell_angle_beta 90.000000
_cell_angle_gamma 90.000000
_cell_volume 5393.369400
_symmetry_space_group_name_H-M "C M M M"
_symmetry_group_IT_number 65
_symmetry_cell_setting 'orthorhombic'
loop_
_space_group_symop_operation_xyz
x,y,z
-x,-y,z
x,-y,-z
-x,y,-z
-x,-y,-z
x,y,-z
-x,y,z
x,-y,z
1/2+x,1/2+y,z
1/2-x,1/2-y,z
1/2+x,1/2-y,-z
1/2-x,1/2+y,-z
1/2-x,1/2-y,-z
1/2+x,1/2+y,-z
1/2-x,1/2+y,z
1/2+x,1/2-y,z
loop_
_atom_site_type_symbol
_atom_site_label
_atom_site_fract_x
_atom_site_fract_y
_atom_site_fract_z
Si Si1 0.831105 0.500000 0.571290
Si Si2 0.170046 0.702475 0.184005
Si Si3 0.674439 0.555627 0.120655
Si Si4 0.675930 0.697172 0.570293
Si Si5 0.324117 0.662618 0.933275
Si Si6 0.171432 0.407825 0.760820
Si Si7 0.823747 0.907176 0.365458
O O1 0.832255 0.500000 0.500000
O O2 0.747632 0.450485 0.594229
O O3 0.000000 0.500000 0.592941
O O4 0.250000 0.750000 0.213037
O O5 0.245281 0.691637 0.120116
O O6 0.183085 0.651381 0.221795
O O7 0.000000 0.713930 0.175218
O O8 0.500000 0.558429 0.133498
O O9 0.705382 0.500000 0.095315
O O10 0.707719 0.603074 0.078179
O O11 0.761505 0.563188 0.182367
O O12 0.712870 0.688182 0.500000
O O13 0.500000 0.702634 0.574168
O O14 0.750000 0.750000 0.588569
O O15 0.718289 0.648337 0.609298
O O16 0.500000 0.669296 0.928562
O O17 0.277739 0.677356 0.000000
O O18 0.262650 0.415904 0.700973
O O19 0.000000 0.420400 0.752751
O O20 0.000000 0.910702 0.366568
#
# Coordination Sequence:
#
# PCOD9492048 Si02
#       7
#     8  16  16  16  16  16  16
#     4  11  25  43  63  89 121 157 196 241 292 343
#     4  10  21  37  57  79 107 146 187 231 284 337
#     4   9  18  33  54  78 106 141 180 223 274 331
#     4   9  19  36  58  84 113 146 184 227 277 333
#     4   9  18  33  53  79 110 142 180 227 277 334
#     4  10  22  38  55  79 110 143 183 230 278 330
#     4  11  23  39  61  87 117 154 195 238 286 344
#
# _framework density 19.282937
#
# number of rings (size 3 to 8) (size 9 to 14) (size 15 to 20)
#    0.000    2.231    0.000    2.077    1.077    6.154 
#    0.000    6.154    0.000    0.000    0.000    4.308 
#    0.000    0.000    0.000    0.000    0.000    0.000 
#
# Total GULP energy -290373.886868 kJ/mol
# GULP energy per Si atom -5584.113209 kJ/mol
# Density = 1.923905 g / cm^3
# Si number density = 19.282937 Si / 1000 Ang^3
#
#
#
# Elastic Constant Matrix: (Units=GPa)
#
#
# Indices 1 2 3 4 5 6 
#
# 1 55.8375 23.8341 20.0098 0.0000 0.0000 0.0000
# 2 23.8341 69.5073 -7.2138 0.0000 0.0000 0.0000
# 3 20.0098 -7.2138 53.8867 0.0000 0.0000 0.0000
# 4 0.0000 0.0000 0.0000 -9.3126 0.0000 0.0000
# 5 0.0000 0.0000 0.0000 0.0000 21.6072 0.0000
# 6 0.0000 0.0000 0.0000 0.0000 0.0000 30.0221
#
#
#
# Elastic Compliance Matrix: (Units=1/GPa)
#
#
# Indices 1 2 3 4 5 6 
#
# 1 0.026211 -0.010139 -0.011090 0.000000 0.000000 0.000000
# 2 -0.010139 0.018512 0.006243 0.000000 0.000000 0.000000
# 3 -0.011090 0.006243 0.023511 0.000000 0.000000 0.000000
# 4 0.000000 0.000000 0.000000 -0.107381 0.000000 0.000000
# 5 0.000000 0.000000 0.000000 0.000000 0.046281 0.000000
# 6 0.000000 0.000000 0.000000 0.000000 0.000000 0.033309
#
#
# Mechanical properties :
#
#
# Convention : Reuss Voigt Hill
#
# Bulk Modulus (GPa) = 26.13575 28.05464 27.09519
# Shear Modulus (GPa) = 60.11853 17.97008 39.04431
#
# Velocity S-wave (km/s) = 5.58970 3.05604 4.50467
# Velocity P-wave (km/s) = 7.43256 5.19933 6.41389
#
# Compressibility (1/GPa) = 0.03826177
#
# Stress axis : x y z
#
# Youngs Moduli (GPa) = 38.15170 54.02043 42.53259
#
# Poissons Ratio (x) = 0.54770 0.47170
# Poissons Ratio (y) = 0.38681 -0.26553
# Poissons Ratio (z) = 0.42311 -0.33725
#
# Static dielectric constant tensor:
#      x y z
#    x 1.646660 0.000000 0.000000 
#    y 0.000000 1.686210 0.000000 
#    z 0.000000 0.000000 1.641420 
# 
# From -- ./inp_files/60443.got.cif
#   From: 2010.05.17/outbox.cif.g08.bks.cpg/sg65_31_cif.got.tgz:60443.got - 2010.06.03 17:01:31.
