data_PCOD9492193
_publ_section_title
;
Structure prediction by ZEFSAII (Michael W. Deem and Ramdas Pophale) SiO2 
 PCOD9492193
Probable space group: C M M M
;
_chemical_formula_sum "Si O2"
_cell_formula_units_Z 104
_cell_length_a 19.679042
_cell_length_b 8.274381
_cell_length_c 30.582329
_cell_angle_alpha 90.000000
_cell_angle_beta 90.000000
_cell_angle_gamma 90.000000
_cell_volume 4979.778469
_symmetry_space_group_name_H-M "C M M M"
_symmetry_group_IT_number 65
_symmetry_cell_setting 'orthorhombic'
loop_
_space_group_symop_operation_xyz
x,y,z
-x,-y,z
x,-y,-z
-x,y,-z
-x,-y,-z
x,y,-z
-x,y,z
x,-y,z
1/2+x,1/2+y,z
1/2-x,1/2-y,z
1/2+x,1/2-y,-z
1/2-x,1/2+y,-z
1/2-x,1/2-y,-z
1/2+x,1/2+y,-z
1/2-x,1/2+y,z
1/2+x,1/2-y,z
loop_
_atom_site_type_symbol
_atom_site_label
_atom_site_fract_x
_atom_site_fract_y
_atom_site_fract_z
Si Si1 0.422081 0.304482 0.213089
Si Si2 0.578302 0.194694 0.625668
Si Si3 0.824734 0.806470 0.550428
Si Si4 0.854420 0.695168 0.951083
Si Si5 0.671591 0.193809 0.706650
Si Si6 0.500000 0.819620 0.052275
Si Si7 0.319104 0.307259 0.141547
O O1 0.500000 0.246637 0.217440
O O2 0.423780 0.500000 0.213120
O O3 0.372339 0.249741 0.251736
O O4 0.385327 0.252005 0.168161
O O5 0.500000 0.253101 0.629293
O O6 0.615189 0.242598 0.580805
O O7 0.628187 0.252261 0.664529
O O8 0.575945 0.000000 0.628205
O O9 0.831980 0.751112 0.500000
O O10 0.750000 0.750000 0.566089
O O11 0.825685 0.000000 0.551100
O O12 0.858930 0.500000 0.953849
O O13 0.816727 0.738160 0.907245
O O14 0.929234 0.764755 0.940164
O O15 0.832873 0.750699 0.000000
O O16 0.750000 0.250000 0.706795
O O17 0.672658 0.000000 0.705987
O O18 0.500000 0.000000 0.072628
O O19 0.500000 0.842071 0.000000
O O20 0.319152 0.500000 0.139402
O O21 0.250000 0.250000 0.164909
#
# Coordination Sequence:
#
# PCOD9492193 Si02
#       7
#    16  16  16  16  16   8  16
#     4  10  23  43  65  90 120 152 189 238 294 350
#     4  10  22  39  59  87 123 160 201 250 302 358
#     4  10  21  37  58  85 118 159 209 260 308 362
#     4   9  18  34  57  84 114 148 188 233 280 334
#     4  11  23  40  64  93 123 156 197 243 293 352
#     4   7  12  26  49  77 107 137 171 215 265 319
#     4  11  24  40  59  83 116 153 191 234 282 340
#
# _framework density 20.884463
#
# number of rings (size 3 to 8) (size 9 to 14) (size 15 to 20)
#    0.000    2.077    0.000    3.692    1.077    8.000 
#    0.000    1.538    0.000    1.385    0.000    0.000 
#    0.000    0.000    0.000    0.000    0.000    0.000 
#
# Total GULP energy -290045.350387 kJ/mol
# GULP energy per Si atom -5577.795200 kJ/mol
# Density = 2.083693 g / cm^3
# Si number density = 20.884463 Si / 1000 Ang^3
#
#
#
# Elastic Constant Matrix: (Units=GPa)
#
#
# Indices 1 2 3 4 5 6 
#
# 1 214.2617 19.9172 85.6831 0.0000 0.0000 0.0000
# 2 19.9172 19.8373 14.5152 0.0000 0.0000 0.0000
# 3 85.6831 14.5152 121.8781 0.0000 0.0000 0.0000
# 4 0.0000 0.0000 0.0000 18.7973 0.0000 0.0000
# 5 0.0000 0.0000 0.0000 0.0000 20.7737 0.0000
# 6 0.0000 0.0000 0.0000 0.0000 0.0000 77.3403
#
#
#
# Elastic Compliance Matrix: (Units=1/GPa)
#
#
# Indices 1 2 3 4 5 6 
#
# 1 0.006720 -0.003604 -0.004295 0.000000 0.000000 0.000000
# 2 -0.003604 0.057155 -0.004273 0.000000 0.000000 0.000000
# 3 -0.004295 -0.004273 0.011733 0.000000 0.000000 0.000000
# 4 0.000000 0.000000 0.000000 0.053199 0.000000 0.000000
# 5 0.000000 0.000000 0.000000 0.000000 0.048138 0.000000
# 6 0.000000 0.000000 0.000000 0.000000 0.000000 0.012930
#
#
# Mechanical properties :
#
#
# Convention : Reuss Voigt Hill
#
# Bulk Modulus (GPa) = 19.50689 66.24535 42.87612
# Shear Modulus (GPa) = 21.61625 39.10639 30.36132
#
# Velocity S-wave (km/s) = 3.22069 4.33195 3.81698
# Velocity P-wave (km/s) = 4.81572 7.53723 6.32459
#
# Compressibility (1/GPa) = 0.05126393
#
# Stress axis : x y z
#
# Youngs Moduli (GPa) = 148.81511 17.49616 85.22800
#
# Poissons Ratio (x) = 0.06306 0.36604
# Poissons Ratio (y) = 0.53636 0.36419
# Poissons Ratio (z) = 0.63914 0.07476
#
# Static dielectric constant tensor:
#      x y z
#    x 1.874540 0.000000 0.000000 
#    y 0.000000 1.748970 0.000000 
#    z 0.000000 0.000000 1.752470 
# 
# From -- ./inp_files/75469.got.cif
#   From: 2010.05.17/outbox.cif.g08.bks.cpg/sg65_38_cif.got.tgz:75469.got - 2010.06.03 17:01:31.
