data_PCOD9492182
_publ_section_title
;
Structure prediction by ZEFSAII (Michael W. Deem and Ramdas Pophale) SiO2 
 PCOD9492182
Probable space group: C M M M
;
_chemical_formula_sum "Si O2"
_cell_formula_units_Z 56
_cell_length_a 18.574360
_cell_length_b 8.757377
_cell_length_c 18.287395
_cell_angle_alpha 90.000000
_cell_angle_beta 90.000000
_cell_angle_gamma 90.000000
_cell_volume 2974.676554
_symmetry_space_group_name_H-M "C M M M"
_symmetry_group_IT_number 65
_symmetry_cell_setting 'orthorhombic'
loop_
_space_group_symop_operation_xyz
x,y,z
-x,-y,z
x,-y,-z
-x,y,-z
-x,-y,-z
x,y,-z
-x,y,z
x,-y,z
1/2+x,1/2+y,z
1/2-x,1/2-y,z
1/2+x,1/2-y,-z
1/2-x,1/2+y,-z
1/2-x,1/2-y,-z
1/2+x,1/2+y,-z
1/2-x,1/2+y,z
1/2+x,1/2-y,z
loop_
_atom_site_type_symbol
_atom_site_label
_atom_site_fract_x
_atom_site_fract_y
_atom_site_fract_z
Si Si1 0.330265 0.816171 0.638172
Si Si2 0.915170 0.816785 0.500000
Si Si3 0.417066 0.816063 0.216152
Si Si4 0.670882 0.682693 0.916140
O O1 0.250000 0.750000 0.635286
O O2 0.376582 0.751787 0.571119
O O3 0.368822 0.771898 0.714172
O O4 0.327785 0.000000 0.633870
O O5 0.000000 0.779279 0.500000
O O6 0.907494 0.000000 0.500000
O O7 0.500000 0.770353 0.227184
O O8 0.384591 0.745994 0.142707
O O9 0.414597 0.000000 0.210594
O O10 0.674250 0.500000 0.911560
O O11 0.750000 0.750000 0.900514
O O12 0.652258 0.724943 0.000000
#
# Coordination Sequence:
#
# PCOD9492182 Si02
#       4
#    16   8  16  16
#     4  11  23  40  62  87 117 152 192 236 283 337
#     4  11  24  41  62  89 119 151 190 235 284 337
#     4  10  22  39  59  85 116 151 191 235 286 341
#     4  10  21  37  58  84 114 150 192 237 286 340
#
# _framework density 18.825576999999999
#
# number of rings (size 3 to 8) (size 9 to 14) (size 15 to 20)
#    0.000    1.571    0.000    4.286    0.000    9.714 
#    0.000    2.857    0.000    0.000    0.000    0.000 
#    0.000    0.000    0.000    0.000    0.000    0.000 
#
# Total GULP energy -156561.732022 kJ/mol
# GULP energy per Si atom -5591.490429 kJ/mol
# Density = 1.878273 g / cm^3
# Si number density = 18.825577 Si / 1000 Ang^3
#
#
#
# Elastic Constant Matrix: (Units=GPa)
#
#
# Indices 1 2 3 4 5 6 
#
# 1 182.4735 59.1806 105.4546 0.0000 0.0000 0.0000
# 2 59.1806 44.0315 47.5823 0.0000 0.0000 0.0000
# 3 105.4546 47.5823 132.9941 0.0000 0.0000 0.0000
# 4 0.0000 0.0000 0.0000 -14.8820 0.0000 0.0000
# 5 0.0000 0.0000 0.0000 0.0000 85.8628 0.0000
# 6 0.0000 0.0000 0.0000 0.0000 0.0000 25.8527
#
#
#
# Elastic Compliance Matrix: (Units=1/GPa)
#
#
# Indices 1 2 3 4 5 6 
#
# 1 0.012222 -0.009708 -0.006218 0.000000 0.000000 0.000000
# 2 -0.009708 0.044737 -0.008308 0.000000 0.000000 0.000000
# 3 -0.006218 -0.008308 0.015422 0.000000 0.000000 0.000000
# 4 0.000000 0.000000 0.000000 -0.067195 0.000000 0.000000
# 5 0.000000 0.000000 0.000000 0.000000 0.011646 0.000000
# 6 0.000000 0.000000 0.000000 0.000000 0.000000 0.038681
#
#
# Mechanical properties :
#
#
# Convention : Reuss Voigt Hill
#
# Bulk Modulus (GPa) = 41.81819 87.10380 64.46100
# Shear Modulus (GPa) = 44.66144 29.18548 36.92346
#
# Velocity S-wave (km/s) = 4.87599 3.94167 4.43351
# Velocity P-wave (km/s) = 7.34589 8.19054 7.77969
#
# Compressibility (1/GPa) = 0.02391304
#
# Stress axis : x y z
#
# Youngs Moduli (GPa) = 81.81760 22.35273 64.84144
#
# Poissons Ratio (x) = 0.21700 0.40319
# Poissons Ratio (y) = 0.79427 0.53873
# Poissons Ratio (z) = 0.50875 0.18572
#
# Static dielectric constant tensor:
#      x y z
#    x 1.617840 0.000000 0.000000 
#    y 0.000000 1.634870 0.000000 
#    z 0.000000 0.000000 1.626950 
# 
# From -- ./inp_files/35437.got.cif
#   From: 2010.05.17/outbox.cif.g08.bks.cpg/sg65_18_cif.got.tgz:35437.got - 2010.06.03 17:01:31.
