data_PCOD9492569
_publ_section_title
;
Structure prediction by ZEFSAII (Michael W. Deem and Ramdas Pophale) SiO2 
 PCOD9492569
Probable space group: C M M M
;
_chemical_formula_sum "Si O2"
_cell_formula_units_Z 48
_cell_length_a 7.867832
_cell_length_b 39.057043
_cell_length_c 7.922732
_cell_angle_alpha 90.000000
_cell_angle_beta 90.000000
_cell_angle_gamma 90.000000
_cell_volume 2434.610010
_symmetry_space_group_name_H-M "C M M M"
_symmetry_group_IT_number 65
_symmetry_cell_setting 'orthorhombic'
loop_
_space_group_symop_operation_xyz
x,y,z
-x,-y,z
x,-y,-z
-x,y,-z
-x,-y,-z
x,y,-z
-x,y,z
x,-y,z
1/2+x,1/2+y,z
1/2-x,1/2-y,z
1/2+x,1/2-y,-z
1/2-x,1/2+y,-z
1/2-x,1/2-y,-z
1/2+x,1/2+y,-z
1/2-x,1/2+y,z
1/2+x,1/2-y,z
loop_
_atom_site_type_symbol
_atom_site_label
_atom_site_fract_x
_atom_site_fract_y
_atom_site_fract_z
Si Si1 0.000000 0.038436 0.700212
Si Si2 0.688032 0.086284 0.797064
Si Si3 0.706065 0.662759 0.805065
Si Si4 0.295494 0.710311 0.500000
O O1 0.166141 0.059968 0.748231
O O2 0.000000 0.035698 0.500000
O O3 0.000000 0.000000 0.773348
O O4 0.500000 0.077088 0.733975
O O5 0.733745 0.125166 0.747542
O O6 0.684195 0.086809 0.000000
O O7 0.500000 0.662222 0.806769
O O8 0.764376 0.690778 0.669276
O O9 0.761407 0.668788 0.000000
O O10 0.500000 0.707639 0.500000
O O11 0.250000 0.750000 0.500000
#
# Coordination Sequence:
#
# PCOD9492569 Si02
#       4
#     8  16  16   8
#     4  11  25  41  59  87 127 167 201 251 313 367
#     4  10  21  38  63  92 117 153 208 257 304 364
#     4   9  18  35  58  83 114 154 200 250 301 360
#     4  10  22  36  54  82 116 155 198 241 301 369
#
# _framework density 19.715684
#
# number of rings (size 3 to 8) (size 9 to 14) (size 15 to 20)
#    0.000    2.167    1.667    0.500    2.333    4.667 
#    0.000    3.333    0.000    0.000    0.000    0.000 
#    0.000    0.000    0.000    0.000    0.000    0.000 
#
# Total GULP energy -133987.688909 kJ/mol
# GULP energy per Si atom -5582.820371 kJ/mol
# Density = 1.967081 g / cm^3
# Si number density = 19.715684 Si / 1000 Ang^3
#
#
#
# Elastic Constant Matrix: (Units=GPa)
#
#
# Indices 1 2 3 4 5 6 
#
# 1 97.2041 72.7876 36.8456 0.0000 0.0000 0.0000
# 2 72.7876 197.4369 74.7643 0.0000 0.0000 0.0000
# 3 36.8456 74.7643 76.2211 0.0000 0.0000 0.0000
# 4 0.0000 0.0000 0.0000 53.3201 0.0000 0.0000
# 5 0.0000 0.0000 0.0000 0.0000 -0.8909 0.0000
# 6 0.0000 0.0000 0.0000 0.0000 0.0000 21.6828
#
#
#
# Elastic Compliance Matrix: (Units=1/GPa)
#
#
# Indices 1 2 3 4 5 6 
#
# 1 0.014583 -0.004306 -0.002826 0.000000 0.000000 0.000000
# 2 -0.004306 0.009330 -0.007070 0.000000 0.000000 0.000000
# 3 -0.002826 -0.007070 0.021420 0.000000 0.000000 0.000000
# 4 0.000000 0.000000 0.000000 0.018755 0.000000 0.000000
# 5 0.000000 0.000000 0.000000 0.000000 -1.122413 0.000000
# 6 0.000000 0.000000 0.000000 0.000000 0.000000 0.046120
#
#
# Mechanical properties :
#
#
# Convention : Reuss Voigt Hill
#
# Bulk Modulus (GPa) = 59.06685 82.18415 70.62550
# Shear Modulus (GPa) = -5.11164 27.25336 11.07086
#
# Velocity S-wave (km/s) = -1.61193 3.72199 2.37222
# Velocity P-wave (km/s) = 5.15364 7.76183 6.58810
#
# Compressibility (1/GPa) = 0.01692997
#
# Stress axis : x y z
#
# Youngs Moduli (GPa) = 68.57141 107.18632 46.68519
#
# Poissons Ratio (x) = 0.46158 0.13191
# Poissons Ratio (y) = 0.29529 0.33004
# Poissons Ratio (z) = 0.19376 0.75776
#
# Static dielectric constant tensor:
#      x y z
#    x 1.711550 0.000000 0.000000 
#    y 0.000000 1.667630 0.000000 
#    z 0.000000 0.000000 1.706300 
# 
# From -- ./inp_files/3098.got.cif
#   From: 2010.05.17/outbox.cif.g08.bks.cpg/sg65_2_cif.got.tgz:3098.got - 2010.06.03 17:01:31.
