data_PCOD9492896
_publ_section_title
;
Structure prediction by ZEFSAII (Michael W. Deem and Ramdas Pophale) SiO2 
 PCOD9492896
Probable space group: C M M M
;
_chemical_formula_sum "Si O2"
_cell_formula_units_Z 116
_cell_length_a 24.568960
_cell_length_b 30.151315
_cell_length_c 7.380283
_cell_angle_alpha 90.000000
_cell_angle_beta 90.000000
_cell_angle_gamma 90.000000
_cell_volume 5467.213660
_symmetry_space_group_name_H-M "C M M M"
_symmetry_group_IT_number 65
_symmetry_cell_setting 'orthorhombic'
loop_
_space_group_symop_operation_xyz
x,y,z
-x,-y,z
x,-y,-z
-x,y,-z
-x,-y,-z
x,y,-z
-x,y,z
x,-y,z
1/2+x,1/2+y,z
1/2-x,1/2-y,z
1/2+x,1/2-y,-z
1/2-x,1/2+y,-z
1/2-x,1/2-y,-z
1/2+x,1/2+y,-z
1/2-x,1/2+y,z
1/2+x,1/2-y,z
loop_
_atom_site_type_symbol
_atom_site_label
_atom_site_fract_x
_atom_site_fract_y
_atom_site_fract_z
Si Si1 0.230697 0.115173 0.219625
Si Si2 0.648021 0.125614 0.210968
Si Si3 0.500000 0.767701 0.500000
Si Si4 0.938833 0.550442 0.718439
Si Si5 0.100416 0.719613 0.776837
Si Si6 0.340255 0.695863 0.206755
Si Si7 0.634180 0.549799 0.713384
Si Si8 0.562505 0.368586 0.279573
O O1 0.292560 0.113672 0.285578
O O2 0.201470 0.160236 0.287909
O O3 0.192606 0.073645 0.268746
O O4 0.229422 0.115856 0.000000
O O5 0.606422 0.085117 0.226057
O O6 0.619965 0.170458 0.277800
O O7 0.657682 0.134686 0.000000
O O8 0.452469 0.768839 0.660118
O O9 0.939595 0.549999 0.500000
O O10 0.928061 0.500000 0.778780
O O11 0.000000 0.563030 0.778397
O O12 0.147206 0.755189 0.725540
O O13 0.092243 0.721684 0.000000
O O14 0.398300 0.670414 0.213407
O O15 0.322412 0.701672 0.000000
O O16 0.622900 0.546308 0.500000
O O17 0.632826 0.500000 0.788810
O O18 0.589918 0.585256 0.783034
O O19 0.563903 0.367094 0.500000
O O20 0.500000 0.364184 0.224202
#
# Coordination Sequence:
#
# PCOD9492896 Si02
#       8
#    16  16   4  16  16  16  16  16
#     4   9  19  37  58  79 106 149 192 234 290 341
#     4  10  22  38  58  85 115 146 190 238 285 347
#     4  12  26  40  64  88 125 166 191 244 290 344
#     4   9  20  38  59  82 111 148 188 231 286 353
#     4  10  24  41  60  92 122 157 200 238 288 347
#     4   9  19  36  56  78 111 149 190 237 284 339
#     4   9  18  33  51  75 107 142 182 235 294 342
#     4   9  18  30  49  75 105 143 187 233 281 345
#
# _framework density 21.217390000000002
#
# number of rings (size 3 to 8) (size 9 to 14) (size 15 to 20)
#    0.000    2.621    0.000    0.621    3.862    3.034 
#    0.000    7.586    0.000    0.828    0.000    3.862 
#    0.000    0.000    0.000    0.000    0.000    0.000 
#
# Total GULP energy -323014.517687 kJ/mol
# GULP energy per Si atom -5569.215822 kJ/mol
# Density = 2.116910 g / cm^3
# Si number density = 21.217390 Si / 1000 Ang^3
#
#
#
# Elastic Constant Matrix: (Units=GPa)
#
#
# Indices 1 2 3 4 5 6 
#
# 1 85.0453 26.3568 -15.8190 0.0000 0.0000 0.0000
# 2 26.3568 81.4803 -14.6886 0.0000 0.0000 0.0000
# 3 -15.8190 -14.6886 82.3435 0.0000 0.0000 0.0000
# 4 0.0000 0.0000 0.0000 13.4334 0.0000 0.0000
# 5 0.0000 0.0000 0.0000 0.0000 14.5264 0.0000
# 6 0.0000 0.0000 0.0000 0.0000 0.0000 -0.1685
#
#
#
# Elastic Compliance Matrix: (Units=1/GPa)
#
#
# Indices 1 2 3 4 5 6 
#
# 1 0.013336 -0.003980 0.001852 0.000000 0.000000 0.000000
# 2 -0.003980 0.013869 0.001709 0.000000 0.000000 0.000000
# 3 0.001852 0.001709 0.012805 0.000000 0.000000 0.000000
# 4 0.000000 0.000000 0.000000 0.074441 0.000000 0.000000
# 5 0.000000 0.000000 0.000000 0.000000 0.068840 0.000000
# 6 0.000000 0.000000 0.000000 0.000000 0.000000 -5.934931
#
#
# Mechanical properties :
#
#
# Convention : Reuss Voigt Hill
#
# Bulk Modulus (GPa) = 25.52822 26.72973 26.12898
# Shear Modulus (GPa) = -0.87142 22.42625 10.77741
#
# Velocity S-wave (km/s) = -0.64156 3.25464 2.25622
# Velocity P-wave (km/s) = 3.39250 5.17194 4.37367
#
# Compressibility (1/GPa) = 0.03917234
#
# Stress axis : x y z
#
# Youngs Moduli (GPa) = 74.98249 72.10579 78.09480
#
# Poissons Ratio (x) = 0.28699 -0.14464
# Poissons Ratio (y) = 0.29844 -0.13348
# Poissons Ratio (z) = -0.13887 -0.12325
#
# Static dielectric constant tensor:
#      x y z
#    x 1.733420 0.000000 0.000000 
#    y 0.000000 1.761670 0.000000 
#    z 0.000000 0.000000 1.886090 
# 
# From -- ./inp_files/14888.got.cif
#   From: 2010.05.17/outbox.cif.g08.bks.cpg/sg65_8_cif.got.tgz:14888.got - 2010.06.03 17:01:31.
