data_PCOD9492039
_publ_section_title
;
Structure prediction by ZEFSAII (Michael W. Deem and Ramdas Pophale) SiO2 
 PCOD9492039
Probable space group: C M M M
;
_chemical_formula_sum "Si O2"
_cell_formula_units_Z 104
_cell_length_a 8.573361
_cell_length_b 28.241133
_cell_length_c 21.838105
_cell_angle_alpha 90.000000
_cell_angle_beta 90.000000
_cell_angle_gamma 90.000000
_cell_volume 5287.473173
_symmetry_space_group_name_H-M "C M M M"
_symmetry_group_IT_number 65
_symmetry_cell_setting 'orthorhombic'
loop_
_space_group_symop_operation_xyz
x,y,z
-x,-y,z
x,-y,-z
-x,y,-z
-x,-y,-z
x,y,-z
-x,y,z
x,-y,z
1/2+x,1/2+y,z
1/2-x,1/2-y,z
1/2+x,1/2-y,-z
1/2-x,1/2+y,-z
1/2-x,1/2-y,-z
1/2+x,1/2+y,-z
1/2-x,1/2+y,z
1/2+x,1/2-y,z
loop_
_atom_site_type_symbol
_atom_site_label
_atom_site_fract_x
_atom_site_fract_y
_atom_site_fract_z
Si Si1 0.313955 0.802650 0.000000
Si Si2 0.811205 0.053803 0.693322
Si Si3 0.686872 0.801989 0.377670
Si Si4 0.186178 0.649495 0.251354
Si Si5 0.311865 0.397562 0.432363
Si Si6 0.689706 0.447708 0.070786
Si Si7 0.186993 0.850922 0.122550
O O1 0.250000 0.750000 0.000000
O O2 0.249982 0.826342 0.061735
O O3 0.500000 0.804213 0.000000
O O4 0.748638 0.096464 0.735088
O O5 0.763939 0.068821 0.624019
O O6 0.000000 0.054691 0.696866
O O7 0.760997 0.000000 0.707609
O O8 0.500000 0.801503 0.380905
O O9 0.750000 0.750000 0.392612
O O10 0.734854 0.817655 0.308610
O O11 0.750227 0.844688 0.419349
O O12 0.249679 0.667525 0.186695
O O13 0.000000 0.648214 0.249981
O O14 0.262146 0.413491 0.500000
O O15 0.500000 0.396060 0.431177
O O16 0.500000 0.448177 0.070693
O O17 0.743512 0.500000 0.088461
O O18 0.738487 0.405645 0.114493
O O19 0.736303 0.438689 0.000000
O O20 0.000000 0.848460 0.122472
#
# Coordination Sequence:
#
# PCOD9492039 Si02
#       7
#     8  16  16  16  16  16  16
#     4  12  26  44  63  84 113 147 186 233 285 341
#     4   9  18  34  56  82 113 151 194 235 277 327
#     4  10  21  37  57  78 105 141 183 230 280 335
#     4  10  22  38  55  80 112 147 187 232 282 334
#     4   9  18  33  54  82 115 148 184 228 277 330
#     4   8  14  27  50  79 108 137 171 210 253 309
#     4  11  21  37  61  87 114 146 186 231 282 336
#
# _framework density 19.669129999999999
#
# number of rings (size 3 to 8) (size 9 to 14) (size 15 to 20)
#    0.000    2.308    0.769    2.538    0.000    4.308 
#    0.000    4.615    0.000    1.846    0.000    4.308 
#    0.000    0.000    0.000    0.000    0.000    0.000 
#
# Total GULP energy -290194.396125 kJ/mol
# GULP energy per Si atom -5580.661464 kJ/mol
# Density = 1.962436 g / cm^3
# Si number density = 19.669130 Si / 1000 Ang^3
#
#
#
# Elastic Constant Matrix: (Units=GPa)
#
#
# Indices 1 2 3 4 5 6 
#
# 1 26.5308 4.5662 13.7256 0.0000 0.0000 0.0000
# 2 4.5662 46.2081 -9.6884 0.0000 0.0000 0.0000
# 3 13.7256 -9.6884 84.9752 0.0000 0.0000 0.0000
# 4 0.0000 0.0000 0.0000 4.4317 0.0000 0.0000
# 5 0.0000 0.0000 0.0000 0.0000 23.4443 0.0000
# 6 0.0000 0.0000 0.0000 0.0000 0.0000 23.6854
#
#
#
# Elastic Compliance Matrix: (Units=1/GPa)
#
#
# Indices 1 2 3 4 5 6 
#
# 1 0.042589 -0.005789 -0.007539 0.000000 0.000000 0.000000
# 2 -0.005789 0.022958 0.003553 0.000000 0.000000 0.000000
# 3 -0.007539 0.003553 0.013391 0.000000 0.000000 0.000000
# 4 0.000000 0.000000 0.000000 0.225647 0.000000 0.000000
# 5 0.000000 0.000000 0.000000 0.000000 0.042654 0.000000
# 6 0.000000 0.000000 0.000000 0.000000 0.000000 0.042220
#
#
# Mechanical properties :
#
#
# Convention : Reuss Voigt Hill
#
# Bulk Modulus (GPa) = 16.83890 19.43566 18.13728
# Shear Modulus (GPa) = 11.66028 20.25300 15.95664
#
# Velocity S-wave (km/s) = 2.43743 3.21235 2.85134
# Velocity P-wave (km/s) = 4.06216 4.86433 4.48123
#
# Compressibility (1/GPa) = 0.05938631
#
# Stress axis : x y z
#
# Youngs Moduli (GPa) = 23.48033 43.55745 74.67724
#
# Poissons Ratio (x) = 0.25217 0.56301
# Poissons Ratio (y) = 0.13594 -0.26530
# Poissons Ratio (z) = 0.17702 -0.15475
#
# Static dielectric constant tensor:
#      x y z
#    x 1.670770 0.000000 0.000000 
#    y 0.000000 1.678330 0.000000 
#    z 0.000000 0.000000 1.722050 
# 
# From -- ./inp_files/60422.got.cif
#   From: 2010.05.17/outbox.cif.g08.bks.cpg/sg65_31_cif.got.tgz:60422.got - 2010.06.03 17:01:31.
