data_PCOD9492484
_publ_section_title
;
Structure prediction by ZEFSAII (Michael W. Deem and Ramdas Pophale) SiO2 
 PCOD9492484
Probable space group: C M M M
;
_chemical_formula_sum "Si O2"
_cell_formula_units_Z 64
_cell_length_a 17.816216
_cell_length_b 21.481090
_cell_length_c 8.642096
_cell_angle_alpha 90.000000
_cell_angle_beta 90.000000
_cell_angle_gamma 90.000000
_cell_volume 3307.431592
_symmetry_space_group_name_H-M "C M M M"
_symmetry_group_IT_number 65
_symmetry_cell_setting 'orthorhombic'
loop_
_space_group_symop_operation_xyz
x,y,z
-x,-y,z
x,-y,-z
-x,y,-z
-x,-y,-z
x,y,-z
-x,y,z
x,-y,z
1/2+x,1/2+y,z
1/2-x,1/2-y,z
1/2+x,1/2-y,-z
1/2-x,1/2+y,-z
1/2-x,1/2-y,-z
1/2+x,1/2+y,-z
1/2-x,1/2+y,z
1/2+x,1/2-y,z
loop_
_atom_site_type_symbol
_atom_site_label
_atom_site_fract_x
_atom_site_fract_y
_atom_site_fract_z
Si Si1 0.666707 0.927780 0.187717
Si Si2 0.500000 0.075282 0.176463
Si Si3 0.729560 0.681674 0.317455
Si Si4 0.909305 0.000000 0.323961
Si Si5 0.088247 0.868629 0.818125
O O1 0.582029 0.909727 0.244218
O O2 0.725013 0.875644 0.242172
O O3 0.683070 0.000000 0.235452
O O4 0.664931 0.928266 0.000000
O O5 0.500000 0.000000 0.167984
O O6 0.500000 0.099798 0.000000
O O7 0.744218 0.679447 0.500000
O O8 0.750000 0.750000 0.256428
O O9 0.641810 0.673610 0.282665
O O10 0.889748 0.938697 0.229841
O O11 0.879629 0.000000 0.500000
O O12 0.000000 0.000000 0.334874
O O13 0.000000 0.860342 0.786970
O O14 0.101143 0.859235 0.000000
#
# Coordination Sequence:
#
# PCOD9492484 Si02
#       5
#    16   8  16   8  16
#     4   9  18  35  62  91 117 148 188 239 295 348
#     4   7  12  28  55  87 117 143 178 227 288 351
#     4  11  25  42  57  80 118 161 199 238 292 352
#     4   9  17  31  55  87 119 150 183 226 283 343
#     4  10  21  38  61  87 114 148 194 244 291 343
#
# _framework density 19.350360999999999
#
# number of rings (size 3 to 8) (size 9 to 14) (size 15 to 20)
#    0.000    2.500    0.000    3.375    1.750    5.500 
#    2.250    0.625    0.000    2.250    0.000    0.000 
#    0.000    0.000    0.000    0.000    0.000    0.000 
#
# Total GULP energy -178372.234363 kJ/mol
# GULP energy per Si atom -5574.132324 kJ/mol
# Density = 1.930632 g / cm^3
# Si number density = 19.350361 Si / 1000 Ang^3
#
#
#
# Elastic Constant Matrix: (Units=GPa)
#
#
# Indices 1 2 3 4 5 6 
#
# 1 69.7080 43.0702 15.3364 0.0000 0.0000 0.0000
# 2 43.0702 97.6484 15.8641 0.0000 0.0000 0.0000
# 3 15.3364 15.8641 15.6413 0.0000 0.0000 0.0000
# 4 0.0000 0.0000 0.0000 21.5692 0.0000 0.0000
# 5 0.0000 0.0000 0.0000 0.0000 15.6162 0.0000
# 6 0.0000 0.0000 0.0000 0.0000 0.0000 -6.0368
#
#
#
# Elastic Compliance Matrix: (Units=1/GPa)
#
#
# Indices 1 2 3 4 5 6 
#
# 1 0.022032 -0.007433 -0.014064 0.000000 0.000000 0.000000
# 2 -0.007433 0.014769 -0.007691 0.000000 0.000000 0.000000
# 3 -0.014064 -0.007691 0.085524 0.000000 0.000000 0.000000
# 4 0.000000 0.000000 0.000000 0.046362 0.000000 0.000000
# 5 0.000000 0.000000 0.000000 0.000000 0.064036 0.000000
# 6 0.000000 0.000000 0.000000 0.000000 0.000000 -0.165652
#
#
# Mechanical properties :
#
#
# Convention : Reuss Voigt Hill
#
# Bulk Modulus (GPa) = 15.63750 36.83766 26.23758
# Shear Modulus (GPa) = 34.06825 13.47820 23.77322
#
# Velocity S-wave (km/s) = 4.20050 2.64206 3.50890
# Velocity P-wave (km/s) = 5.62356 5.32783 5.47769
#
# Compressibility (1/GPa) = 0.06394886
#
# Stress axis : x y z
#
# Youngs Moduli (GPa) = 45.38764 67.71012 11.69265
#
# Poissons Ratio (x) = 0.50329 0.16445
# Poissons Ratio (y) = 0.33737 0.08993
# Poissons Ratio (z) = 0.63833 0.52076
#
# Static dielectric constant tensor:
#      x y z
#    x 1.722480 0.000000 0.000000 
#    y 0.000000 1.705530 0.000000 
#    z 0.000000 0.000000 1.668350 
# 
# From -- ./inp_files/9157.got.cif
#   From: 2010.05.17/outbox.cif.g08.bks.cpg/sg65_5_cif.got.tgz:9157.got - 2010.06.03 17:01:31.
