data_PCOD9492623
_publ_section_title
;
Structure prediction by ZEFSAII (Michael W. Deem and Ramdas Pophale) SiO2 
 PCOD9492623
Probable space group: C M M M
;
_chemical_formula_sum "Si O2"
_cell_formula_units_Z 72
_cell_length_a 16.896542
_cell_length_b 24.802843
_cell_length_c 9.080313
_cell_angle_alpha 90.000000
_cell_angle_beta 90.000000
_cell_angle_gamma 90.000000
_cell_volume 3805.398261
_symmetry_space_group_name_H-M "C M M M"
_symmetry_group_IT_number 65
_symmetry_cell_setting 'orthorhombic'
loop_
_space_group_symop_operation_xyz
x,y,z
-x,-y,z
x,-y,-z
-x,y,-z
-x,-y,-z
x,y,-z
-x,y,z
x,-y,z
1/2+x,1/2+y,z
1/2-x,1/2-y,z
1/2+x,1/2-y,-z
1/2-x,1/2+y,-z
1/2-x,1/2-y,-z
1/2+x,1/2+y,-z
1/2-x,1/2+y,z
1/2+x,1/2-y,z
loop_
_atom_site_type_symbol
_atom_site_label
_atom_site_fract_x
_atom_site_fract_y
_atom_site_fract_z
Si Si1 0.866525 0.138438 0.322983
Si Si2 0.154393 0.258958 0.333532
Si Si3 0.802788 0.638953 0.829735
Si Si4 0.091356 0.564415 0.662991
Si Si5 0.000000 0.064380 0.177598
O O1 0.869349 0.132122 0.500000
O O2 0.884779 0.201917 0.291548
O O3 0.777535 0.132122 0.263308
O O4 0.924829 0.096206 0.245604
O O5 0.129391 0.272834 0.500000
O O6 0.250000 0.250000 0.337948
O O7 0.147770 0.308960 0.225013
O O8 0.856797 0.588447 0.791570
O O9 0.782652 0.644516 0.000000
O O10 0.120192 0.582525 0.500000
O O11 0.094004 0.500000 0.664503
O O12 0.000000 0.580824 0.676425
O O13 0.000000 0.000000 0.213304
O O14 0.000000 0.069037 0.000000
#
# Coordination Sequence:
#
# PCOD9492623 Si02
#       5
#    16  16  16  16   8
#     4  10  21  39  62  84 110 150 196 237 281 336
#     4   8  16  33  56  81 109 142 182 228 275 329
#     4  11  21  33  56  88 119 150 185 231 290 346
#     4   9  19  37  58  78 105 145 190 234 278 328
#     4  11  25  43  61  85 119 153 190 245 304 349
#
# _framework density 18.920490000000001
#
# number of rings (size 3 to 8) (size 9 to 14) (size 15 to 20)
#    0.000    2.333    0.000    5.000    0.000    7.556 
#    2.000    1.111    0.000    0.000    0.000    0.000 
#    0.000    0.000    0.000    0.000    0.000    0.000 
#
# Total GULP energy -200712.707530 kJ/mol
# GULP energy per Si atom -5575.352987 kJ/mol
# Density = 1.887743 g / cm^3
# Si number density = 18.920490 Si / 1000 Ang^3
#
#
#
# Elastic Constant Matrix: (Units=GPa)
#
#
# Indices 1 2 3 4 5 6 
#
# 1 50.6591 54.8684 34.8851 0.0000 0.0000 0.0000
# 2 54.8684 104.8350 51.2755 0.0000 0.0000 0.0000
# 3 34.8851 51.2755 78.9212 0.0000 0.0000 0.0000
# 4 0.0000 0.0000 0.0000-1049.2822 0.0000 0.0000
# 5 0.0000 0.0000 0.0000 0.0000 22.8647 0.0000
# 6 0.0000 0.0000 0.0000 0.0000 0.0000 19.8000
#
#
#
# Elastic Compliance Matrix: (Units=1/GPa)
#
#
# Indices 1 2 3 4 5 6 
#
# 1 0.048218 -0.021711 -0.007208 0.000000 0.000000 0.000000
# 2 -0.021711 0.023758 -0.005839 0.000000 0.000000 0.000000
# 3 -0.007208 -0.005839 0.019650 0.000000 0.000000 0.000000
# 4 0.000000 0.000000 0.000000 -0.000953 0.000000 0.000000
# 5 0.000000 0.000000 0.000000 0.000000 0.043736 0.000000
# 6 0.000000 0.000000 0.000000 0.000000 0.000000 0.050505
#
#
# Mechanical properties :
#
#
# Convention : Reuss Voigt Hill
#
# Bulk Modulus (GPa) = 45.22609 57.38594 51.30601
# Shear Modulus (GPa) = 19.09858 -195.09776 -87.99959
#
# Velocity S-wave (km/s) = 3.18057 -10.16555 -6.82724
# Velocity P-wave (km/s) = 6.11908 10.36285 5.91377
#
# Compressibility (1/GPa) = 0.02211113
#
# Stress axis : x y z
#
# Youngs Moduli (GPa) = 20.73896 42.09179 50.88971
#
# Poissons Ratio (x) = 0.91386 0.36681
# Poissons Ratio (y) = 0.45026 0.29713
# Poissons Ratio (z) = 0.14949 0.24576
#
# Static dielectric constant tensor:
#      x y z
#    x 1.649240 0.000000 0.000000 
#    y 0.000000 1.684670 0.000000 
#    z 0.000000 0.000000 1.656350 
# 
# From -- ./inp_files/9264.got.cif
#   From: 2010.05.17/outbox.cif.g08.bks.cpg/sg65_5_cif.got.tgz:9264.got - 2010.06.03 17:01:31.
