data_PCOD9492909
_publ_section_title
;
Structure prediction by ZEFSAII (Michael W. Deem and Ramdas Pophale) SiO2 
 PCOD9492909
Probable space group: C M M M
;
_chemical_formula_sum "Si O2"
_cell_formula_units_Z 64
_cell_length_a 18.647548
_cell_length_b 12.151019
_cell_length_c 14.436725
_cell_angle_alpha 90.000000
_cell_angle_beta 90.000000
_cell_angle_gamma 90.000000
_cell_volume 3271.170022
_symmetry_space_group_name_H-M "C M M M"
_symmetry_group_IT_number 65
_symmetry_cell_setting 'orthorhombic'
loop_
_space_group_symop_operation_xyz
x,y,z
-x,-y,z
x,-y,-z
-x,y,-z
-x,-y,-z
x,y,-z
-x,y,z
x,-y,z
1/2+x,1/2+y,z
1/2-x,1/2-y,z
1/2+x,1/2-y,-z
1/2-x,1/2+y,-z
1/2-x,1/2-y,-z
1/2+x,1/2+y,-z
1/2-x,1/2+y,z
1/2+x,1/2-y,z
loop_
_atom_site_type_symbol
_atom_site_label
_atom_site_fract_x
_atom_site_fract_y
_atom_site_fract_z
Si Si1 0.914645 0.871892 0.739703
Si Si2 0.891110 0.500000 0.102626
Si Si3 0.583221 0.000000 0.315705
Si Si4 0.169331 0.258353 0.894317
Si Si5 0.332786 0.216873 0.389514
O O1 0.883552 0.806161 0.827424
O O2 0.880221 0.816454 0.649725
O O3 0.000000 0.860850 0.737346
O O4 0.895596 0.000000 0.746477
O O5 0.925739 0.500000 0.204279
O O6 0.847825 0.386946 0.103286
O O7 0.927053 0.500000 0.000000
O O8 0.630674 0.893270 0.345664
O O9 0.500000 0.000000 0.353250
O O10 0.250000 0.250000 0.859238
O O11 0.165717 0.215605 0.000000
O O12 0.336620 0.205117 0.500000
O O13 0.250000 0.250000 0.366280
#
# Coordination Sequence:
#
# PCOD9492909 Si02
#       5
#    16   8   8  16  16
#     4  11  25  42  64  94 127 169 215 263 327 398
#     4  10  22  38  63 100 132 169 218 263 325 394
#     4  12  25  43  72 105 137 176 221 280 343 398
#     4  10  22  39  63  93 128 170 217 269 324 389
#     4  11  26  45  69  98 129 170 221 275 335 399
#
# _framework density 19.564865000000001
#
# number of rings (size 3 to 8) (size 9 to 14) (size 15 to 20)
#    0.000    1.250    2.500    1.875    3.500    4.250 
#    0.000    5.000    0.000    0.000    0.000    0.000 
#    0.000    0.000    0.000    0.000    0.000    0.000 
#
# Total GULP energy -178487.229242 kJ/mol
# GULP energy per Si atom -5577.725914 kJ/mol
# Density = 1.952033 g / cm^3
# Si number density = 19.564865 Si / 1000 Ang^3
#
#
#
# Elastic Constant Matrix: (Units=GPa)
#
#
# Indices 1 2 3 4 5 6 
#
# 1 114.6326 92.9773 45.4639 0.0000 0.0000 0.0000
# 2 92.9773 155.1652 44.1836 0.0000 0.0000 0.0000
# 3 45.4639 44.1836 127.8754 0.0000 0.0000 0.0000
# 4 0.0000 0.0000 0.0000 35.0132 0.0000 0.0000
# 5 0.0000 0.0000 0.0000 0.0000 14.3841 0.0000
# 6 0.0000 0.0000 0.0000 0.0000 0.0000 -27.4188
#
#
#
# Elastic Compliance Matrix: (Units=1/GPa)
#
#
# Indices 1 2 3 4 5 6 
#
# 1 0.017924 -0.009900 -0.002952 0.000000 0.000000 0.000000
# 2 -0.009900 0.012616 -0.000839 0.000000 0.000000 0.000000
# 3 -0.002952 -0.000839 0.009160 0.000000 0.000000 0.000000
# 4 0.000000 0.000000 0.000000 0.028561 0.000000 0.000000
# 5 0.000000 0.000000 0.000000 0.000000 0.069521 0.000000
# 6 0.000000 0.000000 0.000000 0.000000 0.000000 -0.036471
#
#
# Mechanical properties :
#
#
# Convention : Reuss Voigt Hill
#
# Bulk Modulus (GPa) = 81.18678 84.76922 82.97800
# Shear Modulus (GPa) = 37.65138 18.73225 28.19182
#
# Velocity S-wave (km/s) = 4.39160 3.09762 3.80009
# Velocity P-wave (km/s) = 8.20373 7.49766 7.85863
#
# Compressibility (1/GPa) = 0.01231728
#
# Stress axis : x y z
#
# Youngs Moduli (GPa) = 55.79183 79.26591 109.17447
#
# Poissons Ratio (x) = 0.78470 0.32228
# Poissons Ratio (y) = 0.55232 0.09164
# Poissons Ratio (z) = 0.16470 0.06653
#
# Static dielectric constant tensor:
#      x y z
#    x 1.678840 0.000000 0.000000 
#    y 0.000000 1.646250 0.000000 
#    z 0.000000 0.000000 1.704530 
# 
# From -- ./inp_files/41914.got.cif
#   From: 2010.05.17/outbox.cif.g08.bks.cpg/sg65_21_cif.got.tgz:41914.got - 2010.06.03 17:01:31.
