data_PCOD9492183
_publ_section_title
;
Structure prediction by ZEFSAII (Michael W. Deem and Ramdas Pophale) SiO2 
 PCOD9492183
Probable space group: C M M M
;
_chemical_formula_sum "Si O2"
_cell_formula_units_Z 72
_cell_length_a 13.939200
_cell_length_b 27.171249
_cell_length_c 8.890458
_cell_angle_alpha 90.000000
_cell_angle_beta 90.000000
_cell_angle_gamma 90.000000
_cell_volume 3367.220730
_symmetry_space_group_name_H-M "C M M M"
_symmetry_group_IT_number 65
_symmetry_cell_setting 'orthorhombic'
loop_
_space_group_symop_operation_xyz
x,y,z
-x,-y,z
x,-y,-z
-x,y,-z
-x,-y,-z
x,y,-z
-x,y,z
x,-y,z
1/2+x,1/2+y,z
1/2-x,1/2-y,z
1/2+x,1/2-y,-z
1/2-x,1/2+y,-z
1/2-x,1/2-y,-z
1/2+x,1/2+y,-z
1/2-x,1/2+y,z
1/2+x,1/2-y,z
loop_
_atom_site_type_symbol
_atom_site_label
_atom_site_fract_x
_atom_site_fract_y
_atom_site_fract_z
Si Si1 0.385303 0.894471 0.679507
Si Si2 0.383207 0.444659 0.167023
Si Si3 0.113713 0.146547 0.663255
Si Si4 0.383300 0.000000 0.824347
Si Si5 0.764849 0.305161 0.826372
O O1 0.371641 0.896493 0.500000
O O2 0.500000 0.889113 0.708833
O O3 0.331221 0.846180 0.745402
O O4 0.354487 0.947325 0.751014
O O5 0.500000 0.445538 0.162839
O O6 0.349448 0.500000 0.187711
O O7 0.358220 0.409582 0.303675
O O8 0.351851 0.427687 0.000000
O O9 0.150012 0.163057 0.500000
O O10 0.158207 0.174260 0.802911
O O11 0.000000 0.150757 0.662713
O O12 0.500000 0.000000 0.813753
O O13 0.356826 0.000000 0.000000
O O14 0.750000 0.250000 0.763514
O O15 0.794133 0.301821 0.000000
#
# Coordination Sequence:
#
# PCOD9492183 Si02
#       5
#    16  16  16   8  16
#     4  10  21  39  65  96 129 164 203 254 317 379
#     4   8  14  27  49  76 107 144 184 226 273 328
#     4  10  21  37  58  84 115 152 194 242 296 353
#     4   9  17  33  61  95 130 165 202 249 307 375
#     4  11  25  43  62  86 118 158 207 260 309 365
#
# _framework density 21.382618999999998
#
# number of rings (size 3 to 8) (size 9 to 14) (size 15 to 20)
#    0.000    2.333    0.000    3.000    0.000    7.111 
#    2.000    6.667    0.000    0.000    0.000    0.000 
#    0.000    0.000    0.000    0.000    0.000    0.000 
#
# Total GULP energy -200691.858459 kJ/mol
# GULP energy per Si atom -5574.773846 kJ/mol
# Density = 2.133395 g / cm^3
# Si number density = 21.382619 Si / 1000 Ang^3
#
#
#
# Elastic Constant Matrix: (Units=GPa)
#
#
# Indices 1 2 3 4 5 6 
#
# 1 73.8140 43.7087 25.2502 0.0000 0.0000 0.0000
# 2 43.7087 165.0778 62.1407 0.0000 0.0000 0.0000
# 3 25.2502 62.1407 72.9666 0.0000 0.0000 0.0000
# 4 0.0000 0.0000 0.0000 21.0505 0.0000 0.0000
# 5 0.0000 0.0000 0.0000 0.0000 25.2921 0.0000
# 6 0.0000 0.0000 0.0000 0.0000 0.0000 24.9814
#
#
#
# Elastic Compliance Matrix: (Units=1/GPa)
#
#
# Indices 1 2 3 4 5 6 
#
# 1 0.016480 -0.003263 -0.002924 0.000000 0.000000 0.000000
# 2 -0.003263 0.009562 -0.007014 0.000000 0.000000 0.000000
# 3 -0.002924 -0.007014 0.020690 0.000000 0.000000 0.000000
# 4 0.000000 0.000000 0.000000 0.047505 0.000000 0.000000
# 5 0.000000 0.000000 0.000000 0.000000 0.039538 0.000000
# 6 0.000000 0.000000 0.000000 0.000000 0.000000 0.040030
#
#
# Mechanical properties :
#
#
# Convention : Reuss Voigt Hill
#
# Bulk Modulus (GPa) = 49.18873 63.78418 56.48645
# Shear Modulus (GPa) = 24.15644 26.31538 25.23591
#
# Velocity S-wave (km/s) = 3.36478 3.51193 3.43914
# Velocity P-wave (km/s) = 6.17654 6.80731 6.49958
#
# Compressibility (1/GPa) = 0.02032986
#
# Stress axis : x y z
#
# Youngs Moduli (GPa) = 60.67996 104.58026 48.33153
#
# Poissons Ratio (x) = 0.34121 0.14134
# Poissons Ratio (y) = 0.19798 0.33901
# Poissons Ratio (z) = 0.17745 0.73355
#
# Static dielectric constant tensor:
#      x y z
#    x 1.840430 0.000000 0.000000 
#    y 0.000000 1.845680 0.000000 
#    z 0.000000 0.000000 1.774260 
# 
# From -- ./inp_files/7319.got.cif
#   From: 2010.05.17/outbox.cif.g08.bks.cpg/sg65_4_cif.got.tgz:7319.got - 2010.06.03 17:01:31.
