data_PCOD9492815
_publ_section_title
;
Structure prediction by ZEFSAII (Michael W. Deem and Ramdas Pophale) SiO2 
 PCOD9492815
Probable space group: C M M M
;
_chemical_formula_sum "Si O2"
_cell_formula_units_Z 64
_cell_length_a 9.241856
_cell_length_b 21.340988
_cell_length_c 17.727055
_cell_angle_alpha 90.000000
_cell_angle_beta 90.000000
_cell_angle_gamma 90.000000
_cell_volume 3496.313049
_symmetry_space_group_name_H-M "C M M M"
_symmetry_group_IT_number 65
_symmetry_cell_setting 'orthorhombic'
loop_
_space_group_symop_operation_xyz
x,y,z
-x,-y,z
x,-y,-z
-x,y,-z
-x,-y,-z
x,y,-z
-x,y,z
x,-y,z
1/2+x,1/2+y,z
1/2-x,1/2-y,z
1/2+x,1/2-y,-z
1/2-x,1/2+y,-z
1/2-x,1/2-y,-z
1/2+x,1/2+y,-z
1/2-x,1/2+y,z
1/2+x,1/2-y,z
loop_
_atom_site_type_symbol
_atom_site_label
_atom_site_fract_x
_atom_site_fract_y
_atom_site_fract_z
Si Si1 0.835341 0.424304 0.000000
Si Si2 0.326433 0.627257 0.586459
Si Si3 0.836611 0.500000 0.408778
Si Si4 0.325908 0.572586 0.845598
Si Si5 0.827034 0.187770 0.261650
O O1 0.749784 0.408346 0.076103
O O2 0.841707 0.500000 0.000000
O O3 0.000000 0.400370 0.000000
O O4 0.285192 0.642944 0.500000
O O5 0.500000 0.618235 0.587840
O O6 0.250813 0.562441 0.609784
O O7 0.288815 0.677009 0.650456
O O8 0.845157 0.500000 0.500000
O O9 0.000000 0.500000 0.378681
O O10 0.500000 0.573221 0.854871
O O11 0.285589 0.500000 0.826944
O O12 0.287987 0.624326 0.783174
O O13 0.750000 0.250000 0.232554
O O14 0.000000 0.195174 0.256060
#
# Coordination Sequence:
#
# PCOD9492815 Si02
#       5
#     8  16   8  16  16
#     4   9  17  31  54  85 114 135 165 215 268 317
#     4   9  18  33  53  75 102 141 185 225 268 319
#     4   9  17  29  47  75 105 130 165 220 277 319
#     4   9  18  34  57  81 106 140 179 217 259 316
#     4  10  22  37  54  77 109 145 183 226 270 319
#
# _framework density 18.304997
#
# number of rings (size 3 to 8) (size 9 to 14) (size 15 to 20)
#    0.000    2.750    0.000    0.750    1.750    5.500 
#    0.000    0.625    0.000    0.000    0.000    0.000 
#    0.000    0.000    0.000    0.000    0.000    0.000 
#
# Total GULP energy -178327.282286 kJ/mol
# GULP energy per Si atom -5572.727571 kJ/mol
# Density = 1.826333 g / cm^3
# Si number density = 18.304997 Si / 1000 Ang^3
#
#
#
# Elastic Constant Matrix: (Units=GPa)
#
#
# Indices 1 2 3 4 5 6 
#
# 1 15.5564 35.2109 35.3707 0.0000 0.0000 0.0000
# 2 35.2109 108.8109 61.3116 0.0000 0.0000 0.0000
# 3 35.3707 61.3116 106.3223 0.0000 0.0000 0.0000
# 4 0.0000 0.0000 0.0000 9.2449 0.0000 0.0000
# 5 0.0000 0.0000 0.0000 0.0000 12.0075 0.0000
# 6 0.0000 0.0000 0.0000 0.0000 0.0000 23.1716
#
#
#
# Elastic Compliance Matrix: (Units=1/GPa)
#
#
# Indices 1 2 3 4 5 6 
#
# 1 1.247161 -0.251523 -0.269855 0.000000 0.000000 0.000000
# 2 -0.251523 0.064340 0.046573 0.000000 0.000000 0.000000
# 3 -0.269855 0.046573 0.072322 0.000000 0.000000 0.000000
# 4 0.000000 0.000000 0.000000 0.108167 0.000000 0.000000
# 5 0.000000 0.000000 0.000000 0.000000 0.083281 0.000000
# 6 0.000000 0.000000 0.000000 0.000000 0.000000 0.043156
#
#
# Mechanical properties :
#
#
# Convention : Reuss Voigt Hill
#
# Bulk Modulus (GPa) = 2.30302 54.94179 28.62240
# Shear Modulus (GPa) = 1.84313 15.47124 8.65719
#
# Velocity S-wave (km/s) = 1.00453 2.91037 2.17708
# Velocity P-wave (km/s) = 1.61441 6.43222 4.68934
#
# Compressibility (1/GPa) = 0.43421336
#
# Stress axis : x y z
#
# Youngs Moduli (GPa) = 0.80182 15.54243 13.82698
#
# Poissons Ratio (x) = 3.90928 3.73128
# Poissons Ratio (y) = 0.20168 -0.64396
# Poissons Ratio (z) = 0.21638 -0.72386
#
# Static dielectric constant tensor:
#      x y z
#    x 1.624570 0.000000 0.000000 
#    y 0.000000 1.606960 0.000000 
#    z 0.000000 0.000000 1.642060 
# 
# From -- ./inp_files/49127.got.cif
#   From: 2010.05.17/outbox.cif.g08.bks.cpg/sg65_25_cif.got.tgz:49127.got - 2010.06.03 17:01:31.
