data_PCOD9492293
_publ_section_title
;
Structure prediction by ZEFSAII (Michael W. Deem and Ramdas Pophale) SiO2 
 PCOD9492293
Probable space group: C M M M
;
_chemical_formula_sum "Si O2"
_cell_formula_units_Z 88
_cell_length_a 17.054251
_cell_length_b 20.673009
_cell_length_c 11.920868
_cell_angle_alpha 90.000000
_cell_angle_beta 90.000000
_cell_angle_gamma 90.000000
_cell_volume 4202.853223
_symmetry_space_group_name_H-M "C M M M"
_symmetry_group_IT_number 65
_symmetry_cell_setting 'orthorhombic'
loop_
_space_group_symop_operation_xyz
x,y,z
-x,-y,z
x,-y,-z
-x,y,-z
-x,-y,-z
x,y,-z
-x,y,z
x,-y,z
1/2+x,1/2+y,z
1/2-x,1/2-y,z
1/2+x,1/2-y,-z
1/2-x,1/2+y,-z
1/2-x,1/2-y,-z
1/2+x,1/2+y,-z
1/2-x,1/2+y,z
1/2+x,1/2-y,z
loop_
_atom_site_type_symbol
_atom_site_label
_atom_site_fract_x
_atom_site_fract_y
_atom_site_fract_z
Si Si1 0.122930 0.285703 0.000000
Si Si2 0.839173 0.116134 0.760762
Si Si3 0.094327 0.500000 0.730762
Si Si4 0.404479 0.739590 0.366140
Si Si5 0.411829 0.856844 0.774440
Si Si6 0.257144 0.500000 0.628441
Si Si7 0.204565 0.158510 0.000000
Si Si8 0.000000 0.923706 0.128429
O O1 0.087566 0.316455 0.111063
O O2 0.131001 0.208523 0.000000
O O3 0.212492 0.307234 0.000000
O O4 0.855245 0.183202 0.695258
O O5 0.797371 0.122980 0.881337
O O6 0.924887 0.094182 0.799444
O O7 0.793523 0.063187 0.688294
O O8 0.112149 0.568573 0.792295
O O9 0.162105 0.500000 0.636717
O O10 0.000000 0.500000 0.703410
O O11 0.395428 0.736848 0.500000
O O12 0.500000 0.732582 0.342935
O O13 0.373999 0.808398 0.316098
O O14 0.500000 0.863498 0.731036
O O15 0.281421 0.500000 0.500000
O O16 0.000000 0.000000 0.116014
O O17 0.000000 0.897269 0.000000
#
# Coordination Sequence:
#
# PCOD9492293 Si02
#       8
#     8  16   8  16  16   8   8   8
#     4  11  21  39  59  95 133 166 206 267 333 402
#     4  12  22  42  64  97 137 174 219 270 320 393
#     4  10  24  48  73  95 125 171 223 284 342 401
#     4  10  21  37  61  93 129 171 218 268 325 392
#     4  10  21  40  67  97 128 163 216 275 337 399
#     4  12  28  45  66  97 135 179 226 277 333 390
#     4  11  24  36  64  92 131 175 213 264 327 383
#     4  11  22  38  62  96 136 175 216 257 311 387
#
# _framework density 20.938155999999999
#
# number of rings (size 3 to 8) (size 9 to 14) (size 15 to 20)
#    0.000    1.182    4.545    1.909    0.000    1.636 
#    1.636    5.455    0.000    3.273    0.000    0.000 
#    0.000    0.000    0.000    0.000    0.000    0.000 
#
# Total GULP energy -245220.434162 kJ/mol
# GULP energy per Si atom -5573.191685 kJ/mol
# Density = 2.089050 g / cm^3
# Si number density = 20.938156 Si / 1000 Ang^3
#
#
#
# Elastic Constant Matrix: (Units=GPa)
#
#
# Indices 1 2 3 4 5 6 
#
# 1 81.7672 22.1188 19.0364 0.0000 0.0000 0.0000
# 2 22.1188 142.6095 64.1020 0.0000 0.0000 0.0000
# 3 19.0364 64.1020 145.8692 0.0000 0.0000 0.0000
# 4 0.0000 0.0000 0.0000 17.9306 0.0000 0.0000
# 5 0.0000 0.0000 0.0000 0.0000 19.0107 0.0000
# 6 0.0000 0.0000 0.0000 0.0000 0.0000 6.7575
#
#
#
# Elastic Compliance Matrix: (Units=1/GPa)
#
#
# Indices 1 2 3 4 5 6 
#
# 1 0.012882 -0.001548 -0.001001 0.000000 0.000000 0.000000
# 2 -0.001548 0.008924 -0.003720 0.000000 0.000000 0.000000
# 3 -0.001001 -0.003720 0.008621 0.000000 0.000000 0.000000
# 4 0.000000 0.000000 0.000000 0.055771 0.000000 0.000000
# 5 0.000000 0.000000 0.000000 0.000000 0.052602 0.000000
# 6 0.000000 0.000000 0.000000 0.000000 0.000000 0.147983
#
#
# Mechanical properties :
#
#
# Convention : Reuss Voigt Hill
#
# Bulk Modulus (GPa) = 55.89918 64.52894 60.21406
# Shear Modulus (GPa) = 16.37827 26.40567 21.39197
#
# Velocity S-wave (km/s) = 2.79986 3.55509 3.19983
# Velocity P-wave (km/s) = 6.09980 6.90922 6.51708
#
# Compressibility (1/GPa) = 0.01788935
#
# Stress axis : x y z
#
# Youngs Moduli (GPa) = 77.63007 112.05414 116.00002
#
# Poissons Ratio (x) = 0.17347 0.11609
# Poissons Ratio (y) = 0.12018 0.43149
# Poissons Ratio (z) = 0.07769 0.41681
#
# Static dielectric constant tensor:
#      x y z
#    x 1.810760 0.000000 0.000000 
#    y 0.000000 1.807330 0.000000 
#    z 0.000000 0.000000 1.752680 
# 
# From -- ./inp_files/26898.got.cif
#   From: 2010.05.17/outbox.cif.g08.bks.cpg/sg65_14_cif.got.tgz:26898.got - 2010.06.03 17:01:31.
