data_PCOD9492302
_publ_section_title
;
Structure prediction by ZEFSAII (Michael W. Deem and Ramdas Pophale) SiO2 
 PCOD9492302
Probable space group: C M M M
;
_chemical_formula_sum "Si O2"
_cell_formula_units_Z 42
_cell_length_a 12.855809
_cell_length_b 20.788648
_cell_length_c 7.448257
_cell_angle_alpha 90.000000
_cell_angle_beta 90.000000
_cell_angle_gamma 90.000000
_cell_volume 1990.583091
_symmetry_space_group_name_H-M "C M M M"
_symmetry_group_IT_number 65
_symmetry_cell_setting 'orthorhombic'
loop_
_space_group_symop_operation_xyz
x,y,z
-x,-y,z
x,-y,-z
-x,y,-z
-x,-y,-z
x,y,-z
-x,y,z
x,-y,z
1/2+x,1/2+y,z
1/2-x,1/2-y,z
1/2+x,1/2-y,-z
1/2-x,1/2+y,-z
1/2-x,1/2-y,-z
1/2+x,1/2+y,-z
1/2-x,1/2+y,z
1/2+x,1/2-y,z
loop_
_atom_site_type_symbol
_atom_site_label
_atom_site_fract_x
_atom_site_fract_y
_atom_site_fract_z
Si Si1 0.500000 0.613312 0.700148
Si Si2 0.000000 0.000000 0.000000
Si Si3 0.119027 0.427249 0.218807
Si Si4 0.783883 0.820911 0.782191
O O1 0.500000 0.586315 0.500000
O O2 0.602253 0.657086 0.724354
O O3 0.500000 0.556720 0.844864
O O4 0.147219 0.500000 0.273736
O O5 0.200342 0.374114 0.278801
O O6 0.000000 0.414420 0.273800
O O7 0.119814 0.426922 0.000000
O O8 0.750000 0.750000 0.723005
O O9 0.783271 0.820993 0.000000
#
# Coordination Sequence:
#
# PCOD9492302 Si02
#       4
#     8   2  16  16
#     4  12  27  45  71 104 138 184 233 287 352 412
#     4  12  26  52  72  98 142 180 232 292 344 432
#     4   8  15  28  51  84 120 165 220 273 325 391
#     4  10  21  37  64  95 135 181 225 280 341 410
#
# _framework density 21.099345
#
# number of rings (size 3 to 8) (size 9 to 14) (size 15 to 20)
#    0.000    2.286    1.905    1.429    5.333    0.762 
#    0.000    0.000    0.000    0.000    0.000    2.667 
#    0.000    0.000    0.000    0.000    0.000    0.000 
#
# Total GULP energy -117104.516262 kJ/mol
# GULP energy per Si atom -5576.405536 kJ/mol
# Density = 2.105132 g / cm^3
# Si number density = 21.099345 Si / 1000 Ang^3
#
#
#
# Elastic Constant Matrix: (Units=GPa)
#
#
# Indices 1 2 3 4 5 6 
#
# 1 185.5636 159.2366 22.7230 0.0000 0.0000 0.0000
# 2 159.2366 215.0387 43.7018 0.0000 0.0000 0.0000
# 3 22.7230 43.7018 118.5019 0.0000 0.0000 0.0000
# 4 0.0000 0.0000 0.0000 -140.9758 0.0000 0.0000
# 5 0.0000 0.0000 0.0000 0.0000 -2.7014 0.0000
# 6 0.0000 0.0000 0.0000 0.0000 0.0000 3.0825
#
#
#
# Elastic Compliance Matrix: (Units=1/GPa)
#
#
# Indices 1 2 3 4 5 6 
#
# 1 0.014970 -0.011353 0.001316 0.000000 0.000000 0.000000
# 2 -0.011353 0.013637 -0.002852 0.000000 0.000000 0.000000
# 3 0.001316 -0.002852 0.009238 0.000000 0.000000 0.000000
# 4 0.000000 0.000000 0.000000 -0.007093 0.000000 0.000000
# 5 0.000000 0.000000 0.000000 0.000000 -0.370173 0.000000
# 6 0.000000 0.000000 0.000000 0.000000 0.000000 0.324410
#
#
# Mechanical properties :
#
#
# Convention : Reuss Voigt Hill
#
# Bulk Modulus (GPa) = 82.86760 107.82519 95.34640
# Shear Modulus (GPa) = 338.11937 -8.55609 164.78164
#
# Velocity S-wave (km/s) = 12.67277 -2.01592 8.84689
# Velocity P-wave (km/s) = 15.92144 6.76727 12.23291
#
# Compressibility (1/GPa) = 0.01206744
#
# Stress axis : x y z
#
# Youngs Moduli (GPa) = 66.80117 73.33202 108.24726
#
# Poissons Ratio (x) = 0.83251 -0.14248
# Poissons Ratio (y) = 0.75837 0.30873
# Poissons Ratio (z) = -0.08792 0.20915
#
# Static dielectric constant tensor:
#      x y z
#    x 1.692440 0.000000 0.000000 
#    y 0.000000 1.706160 0.000000 
#    z 0.000000 0.000000 1.767580 
# 
# From -- ./inp_files/3858.got.cif
#   From: 2010.05.17/outbox.cif.g08.bks.cpg/sg65_2_cif.got.tgz:3858.got - 2010.06.03 17:01:31.
