data_PCOD9492266
_publ_section_title
;
Structure prediction by ZEFSAII (Michael W. Deem and Ramdas Pophale) SiO2 
 PCOD9492266
Probable space group: C M M M
;
_chemical_formula_sum "Si O2"
_cell_formula_units_Z 68
_cell_length_a 17.561458
_cell_length_b 23.454435
_cell_length_c 7.400499
_cell_angle_alpha 90.000000
_cell_angle_beta 90.000000
_cell_angle_gamma 90.000000
_cell_volume 3048.221691
_symmetry_space_group_name_H-M "C M M M"
_symmetry_group_IT_number 65
_symmetry_cell_setting 'orthorhombic'
loop_
_space_group_symop_operation_xyz
x,y,z
-x,-y,z
x,-y,-z
-x,y,-z
-x,-y,-z
x,y,-z
-x,y,z
x,-y,z
1/2+x,1/2+y,z
1/2-x,1/2-y,z
1/2+x,1/2-y,-z
1/2-x,1/2+y,-z
1/2-x,1/2-y,-z
1/2+x,1/2+y,-z
1/2-x,1/2+y,z
1/2+x,1/2-y,z
loop_
_atom_site_type_symbol
_atom_site_label
_atom_site_fract_x
_atom_site_fract_y
_atom_site_fract_z
Si Si1 0.000000 0.570991 0.000000
Si Si2 0.330763 0.771850 0.288595
Si Si3 0.707243 0.436319 0.218746
Si Si4 0.085386 0.843252 0.781913
Si Si5 0.875811 0.396650 0.708952
O O1 0.933807 0.573015 0.158073
O O2 0.316410 0.783490 0.500000
O O3 0.250000 0.750000 0.210406
O O4 0.389260 0.720244 0.269536
O O5 0.363692 0.831445 0.220061
O O6 0.683063 0.500000 0.270325
O O7 0.648449 0.388153 0.282159
O O8 0.792099 0.423973 0.284836
O O9 0.709473 0.433671 0.000000
O O10 0.000000 0.855833 0.719204
O O11 0.085139 0.845724 0.000000
O O12 0.901990 0.395591 0.500000
#
# Coordination Sequence:
#
# PCOD9492266 Si02
#       5
#     4  16  16  16  16
#     4  12  26  44  67  96 134 172 203 284 336 388
#     4  10  21  37  59  88 127 168 213 266 319 385
#     4  10  21  41  66  91 126 174 223 273 327 388
#     4  10  22  36  59  96 132 172 219 266 322 388
#     4  11  24  42  66  99 131 172 222 266 330 401
#
# _framework density 22.308087
#
# number of rings (size 3 to 8) (size 9 to 14) (size 15 to 20)
#    0.000    1.647    3.529    0.353    3.294    1.882 
#    0.000    3.529    0.000    1.412    0.000    3.294 
#    0.000    0.000    0.000    0.000    0.000    0.000 
#
# Total GULP energy -189633.502901 kJ/mol
# GULP energy per Si atom -5577.455968 kJ/mol
# Density = 2.225731 g / cm^3
# Si number density = 22.308087 Si / 1000 Ang^3
#
#
#
# Elastic Constant Matrix: (Units=GPa)
#
#
# Indices 1 2 3 4 5 6 
#
# 1 114.6543 5.7971 10.4300 0.0000 0.0000 0.0000
# 2 5.7971 92.9352 0.8034 0.0000 0.0000 0.0000
# 3 10.4300 0.8034 109.4329 0.0000 0.0000 0.0000
# 4 0.0000 0.0000 0.0000 3.7254 0.0000 0.0000
# 5 0.0000 0.0000 0.0000 0.0000 135.4063 0.0000
# 6 0.0000 0.0000 0.0000 0.0000 0.0000 -54.4148
#
#
#
# Elastic Compliance Matrix: (Units=1/GPa)
#
#
# Indices 1 2 3 4 5 6 
#
# 1 0.008825 -0.000543 -0.000837 0.000000 0.000000 0.000000
# 2 -0.000543 0.010794 -0.000027 0.000000 0.000000 0.000000
# 3 -0.000837 -0.000027 0.009218 0.000000 0.000000 0.000000
# 4 0.000000 0.000000 0.000000 0.268429 0.000000 0.000000
# 5 0.000000 0.000000 0.000000 0.000000 0.007385 0.000000
# 6 0.000000 0.000000 0.000000 0.000000 0.000000 -0.018377
#
#
# Mechanical properties :
#
#
# Convention : Reuss Voigt Hill
#
# Bulk Modulus (GPa) = 38.42902 39.00926 38.71914
# Shear Modulus (GPa) = 16.79181 36.94283 26.86732
#
# Velocity S-wave (km/s) = 2.74656 4.07385 3.47418
# Velocity P-wave (km/s) = 5.22704 6.29705 5.78683
#
# Compressibility (1/GPa) = 0.02602200
#
# Stress axis : x y z
#
# Youngs Moduli (GPa) = 113.30806 92.64139 108.48330
#
# Poissons Ratio (x) = 0.05033 0.09082
# Poissons Ratio (y) = 0.06156 0.00298
# Poissons Ratio (z) = 0.09486 0.00254
#
# Static dielectric constant tensor:
#      x y z
#    x 1.775310 0.000000 0.000000 
#    y 0.000000 1.845280 0.000000 
#    z 0.000000 0.000000 1.853050 
# 
# From -- ./inp_files/8954.got.cif
#   From: 2010.05.17/outbox.cif.g08.bks.cpg/sg65_5_cif.got.tgz:8954.got - 2010.06.03 17:01:31.
