data_PCOD9492770
_publ_section_title
;
Structure prediction by ZEFSAII (Michael W. Deem and Ramdas Pophale) SiO2 
 PCOD9492770
Probable space group: C M M M
;
_chemical_formula_sum "Si O2"
_cell_formula_units_Z 62
_cell_length_a 8.565745
_cell_length_b 15.439020
_cell_length_c 23.788408
_cell_angle_alpha 90.000000
_cell_angle_beta 90.000000
_cell_angle_gamma 90.000000
_cell_volume 3145.938655
_symmetry_space_group_name_H-M "C M M M"
_symmetry_group_IT_number 65
_symmetry_cell_setting 'orthorhombic'
loop_
_space_group_symop_operation_xyz
x,y,z
-x,-y,z
x,-y,-z
-x,y,-z
-x,-y,-z
x,y,-z
-x,y,z
x,-y,z
1/2+x,1/2+y,z
1/2-x,1/2-y,z
1/2+x,1/2-y,-z
1/2-x,1/2+y,-z
1/2-x,1/2-y,-z
1/2+x,1/2+y,-z
1/2-x,1/2+y,z
1/2+x,1/2-y,z
loop_
_atom_site_type_symbol
_atom_site_label
_atom_site_fract_x
_atom_site_fract_y
_atom_site_fract_z
Si Si1 0.672334 0.000000 0.383763
Si Si2 0.185108 0.155523 0.917923
Si Si3 0.273050 0.000000 0.000000
Si Si4 0.000000 0.500000 0.500000
Si Si5 0.682269 0.104065 0.199607
Si Si6 0.685165 0.658421 0.679937
O O1 0.633271 0.000000 0.449518
O O2 0.762391 0.083730 0.362403
O O3 0.500000 0.000000 0.354813
O O4 0.250000 0.250000 0.933740
O O5 0.265065 0.076868 0.951537
O O6 0.219909 0.141444 0.852147
O O7 0.000000 0.150132 0.929216
O O8 0.500000 0.126444 0.191432
O O9 0.741191 0.138856 0.259109
O O10 0.697235 0.000000 0.199936
O O11 0.500000 0.660669 0.685395
O O12 0.750000 0.750000 0.659786
#
# Coordination Sequence:
#
# PCOD9492770 Si02
#       6
#     8  16   4   2  16  16
#     4  10  21  44  69  97 135 180 225 277 328 388
#     4  12  25  45  67  93 128 167 219 275 336 404
#     4  12  27  46  69  90 121 172 223 274 333 404
#     4   8  24  44  78  92 144 186 230 278 340 368
#     4  11  23  41  66  99 134 174 215 274 341 406
#     4  12  24  40  69 105 140 179 225 277 339 401
#
# _framework density 19.707948999999999
#
# number of rings (size 3 to 8) (size 9 to 14) (size 15 to 20)
#    0.387    0.258    2.581    6.581    0.000    1.032 
#    0.000    6.452    0.000    0.000    0.000    0.000 
#    0.000    0.000    0.000    0.000    0.000    0.000 
#
# Total GULP energy -172654.924308 kJ/mol
# GULP energy per Si atom -5569.513687 kJ/mol
# Density = 1.966309 g / cm^3
# Si number density = 19.707949 Si / 1000 Ang^3
#
#
#
# Elastic Constant Matrix: (Units=GPa)
#
#
# Indices 1 2 3 4 5 6 
#
# 1 60.9337 18.1868 -1.1075 0.0000 0.0000 0.0000
# 2 18.1868 162.8247 50.2395 0.0000 0.0000 0.0000
# 3 -1.1075 50.2395 130.0516 0.0000 0.0000 0.0000
# 4 0.0000 0.0000 0.0000 -89.5405 0.0000 0.0000
# 5 0.0000 0.0000 0.0000 0.0000 -181.7698 0.0000
# 6 0.0000 0.0000 0.0000 0.0000 0.0000 20.1696
#
#
#
# Elastic Compliance Matrix: (Units=1/GPa)
#
#
# Indices 1 2 3 4 5 6 
#
# 1 0.017092 -0.002218 0.001003 0.000000 0.000000 0.000000
# 2 -0.002218 0.007261 -0.002824 0.000000 0.000000 0.000000
# 3 0.001003 -0.002824 0.008789 0.000000 0.000000 0.000000
# 4 0.000000 0.000000 0.000000 -0.011168 0.000000 0.000000
# 5 0.000000 0.000000 0.000000 0.000000 -0.005501 0.000000
# 6 0.000000 0.000000 0.000000 0.000000 0.000000 0.049580
#
#
# Mechanical properties :
#
#
# Convention : Reuss Voigt Hill
#
# Bulk Modulus (GPa) = 39.90155 54.27197 47.08676
# Shear Modulus (GPa) = 60.61789 -31.12873 14.74458
#
# Velocity S-wave (km/s) = 5.55201 -3.97861 2.73821
# Velocity P-wave (km/s) = 7.83519 2.54797 5.82591
#
# Compressibility (1/GPa) = 0.02506168
#
# Stress axis : x y z
#
# Youngs Moduli (GPa) = 58.50825 137.72946 113.78375
#
# Poissons Ratio (x) = 0.30554 -0.11407
# Poissons Ratio (y) = 0.12979 0.32129
# Poissons Ratio (z) = -0.05866 0.38891
#
# Static dielectric constant tensor:
#      x y z
#    x 1.705880 0.000000 0.000000 
#    y 0.000000 1.682600 0.000000 
#    z 0.000000 0.000000 1.659610 
# 
# From -- ./inp_files/66856.got.cif
#   From: 2010.05.17/outbox.cif.g08.bks.cpg/sg65_34_cif.got.tgz:66856.got - 2010.06.03 17:01:31.
