data_PCOD9492693
_publ_section_title
;
Structure prediction by ZEFSAII (Michael W. Deem and Ramdas Pophale) SiO2 
 PCOD9492693
Probable space group: C M M M
;
_chemical_formula_sum "Si O2"
_cell_formula_units_Z 72
_cell_length_a 20.328940
_cell_length_b 8.711639
_cell_length_c 19.773544
_cell_angle_alpha 90.000000
_cell_angle_beta 90.000000
_cell_angle_gamma 90.000000
_cell_volume 3501.862738
_symmetry_space_group_name_H-M "C M M M"
_symmetry_group_IT_number 65
_symmetry_cell_setting 'orthorhombic'
loop_
_space_group_symop_operation_xyz
x,y,z
-x,-y,z
x,-y,-z
-x,y,-z
-x,-y,-z
x,y,-z
-x,y,z
x,-y,z
1/2+x,1/2+y,z
1/2-x,1/2-y,z
1/2+x,1/2-y,-z
1/2-x,1/2+y,-z
1/2-x,1/2-y,-z
1/2+x,1/2+y,-z
1/2-x,1/2+y,z
1/2+x,1/2-y,z
loop_
_atom_site_type_symbol
_atom_site_label
_atom_site_fract_x
_atom_site_fract_y
_atom_site_fract_z
Si Si1 0.000000 0.685141 0.575582
Si Si2 0.322255 0.317370 0.079903
Si Si3 0.923115 0.315770 0.187258
Si Si4 0.353757 0.184182 0.580556
Si Si5 0.317337 0.320295 0.714528
O O1 0.071052 0.723242 0.602010
O O2 0.000000 0.500000 0.571711
O O3 0.000000 0.748671 0.500000
O O4 0.321055 0.500000 0.091655
O O5 0.250000 0.250000 0.096405
O O6 0.380917 0.244548 0.123531
O O7 0.333116 0.289268 0.000000
O O8 0.922912 0.500000 0.187659
O O9 0.880438 0.257006 0.250770
O O10 0.000000 0.265663 0.187943
O O11 0.344530 0.214594 0.500000
O O12 0.315746 0.284435 0.634502
O O13 0.343248 0.000000 0.589762
O O14 0.319030 0.500000 0.726916
O O15 0.250000 0.250000 0.743533
#
# Coordination Sequence:
#
# PCOD9492693 Si02
#       5
#     8  16  16  16  16
#     4   7  12  26  51  81 111 145 182 225 284 353
#     4  10  21  39  66  99 135 173 211 253 302 359
#     4  11  25  44  66  92 125 166 210 257 310 369
#     4   9  18  35  60  89 120 156 200 250 308 373
#     4  12  26  43  63  87 121 162 207 258 314 375
#
# _framework density 20.560486999999998
#
# number of rings (size 3 to 8) (size 9 to 14) (size 15 to 20)
#    0.000    1.889    0.000    5.333    1.556    4.444 
#    0.000    2.222    0.000    2.000    0.000    0.000 
#    0.000    0.000    0.000    0.000    0.000    0.000 
#
# Total GULP energy -200847.067104 kJ/mol
# GULP energy per Si atom -5579.085197 kJ/mol
# Density = 2.051369 g / cm^3
# Si number density = 20.560487 Si / 1000 Ang^3
#
#
#
# Elastic Constant Matrix: (Units=GPa)
#
#
# Indices 1 2 3 4 5 6 
#
# 1 167.5600 55.7765 53.6453 0.0000 0.0000 0.0000
# 2 55.7765 73.6923 46.2877 0.0000 0.0000 0.0000
# 3 53.6453 46.2877 118.2503 0.0000 0.0000 0.0000
# 4 0.0000 0.0000 0.0000 14.4534 0.0000 0.0000
# 5 0.0000 0.0000 0.0000 0.0000 59.4253 0.0000
# 6 0.0000 0.0000 0.0000 0.0000 0.0000 29.0567
#
#
#
# Elastic Compliance Matrix: (Units=1/GPa)
#
#
# Indices 1 2 3 4 5 6 
#
# 1 0.008233 -0.005152 -0.001718 0.000000 0.000000 0.000000
# 2 -0.005152 0.021218 -0.005968 0.000000 0.000000 0.000000
# 3 -0.001718 -0.005968 0.011572 0.000000 0.000000 0.000000
# 4 0.000000 0.000000 0.000000 0.069188 0.000000 0.000000
# 5 0.000000 0.000000 0.000000 0.000000 0.016828 0.000000
# 6 0.000000 0.000000 0.000000 0.000000 0.000000 0.034415
#
#
# Mechanical properties :
#
#
# Convention : Reuss Voigt Hill
#
# Bulk Modulus (GPa) = 65.16247 74.54684 69.85465
# Shear Modulus (GPa) = 26.00804 34.17330 30.09067
#
# Velocity S-wave (km/s) = 3.56048 4.08129 3.82975
# Velocity P-wave (km/s) = 6.97600 7.65149 7.32154
#
# Compressibility (1/GPa) = 0.01534626
#
# Stress axis : x y z
#
# Youngs Moduli (GPa) = 121.45962 47.12875 86.41263
#
# Poissons Ratio (x) = 0.24282 0.14848
# Poissons Ratio (y) = 0.62580 0.51574
# Poissons Ratio (z) = 0.20870 0.28128
#
# Static dielectric constant tensor:
#      x y z
#    x 1.769880 0.000000 0.000000 
#    y 0.000000 1.687890 0.000000 
#    z 0.000000 0.000000 1.763180 
# 
# From -- ./inp_files/64284.got.cif
#   From: 2010.05.17/outbox.cif.g08.bks.cpg/sg65_33_cif.got.tgz:64284.got - 2010.06.03 17:01:31.
