data_PCOD9492687
_publ_section_title
;
Structure prediction by ZEFSAII (Michael W. Deem and Ramdas Pophale) SiO2 
 PCOD9492687
Probable space group: C M M M
;
_chemical_formula_sum "Si O2"
_cell_formula_units_Z 84
_cell_length_a 15.674534
_cell_length_b 23.709595
_cell_length_c 11.466537
_cell_angle_alpha 90.000000
_cell_angle_beta 90.000000
_cell_angle_gamma 90.000000
_cell_volume 4261.387725
_symmetry_space_group_name_H-M "C M M M"
_symmetry_group_IT_number 65
_symmetry_cell_setting 'orthorhombic'
loop_
_space_group_symop_operation_xyz
x,y,z
-x,-y,z
x,-y,-z
-x,y,-z
-x,-y,-z
x,y,-z
-x,y,z
x,-y,z
1/2+x,1/2+y,z
1/2-x,1/2-y,z
1/2+x,1/2-y,-z
1/2-x,1/2+y,-z
1/2-x,1/2-y,-z
1/2+x,1/2+y,-z
1/2-x,1/2+y,z
1/2+x,1/2-y,z
loop_
_atom_site_type_symbol
_atom_site_label
_atom_site_fract_x
_atom_site_fract_y
_atom_site_fract_z
Si Si1 0.370275 0.124323 0.365554
Si Si2 0.500000 0.934748 0.206154
Si Si3 0.898123 0.938421 0.863659
Si Si4 0.596653 0.744426 0.361945
Si Si5 0.786998 0.842799 0.764223
Si Si6 0.000000 0.342993 0.000000
Si Si7 0.194805 0.307576 0.000000
O O1 0.386470 0.111836 0.500000
O O2 0.418098 0.079661 0.285403
O O3 0.402504 0.188377 0.341858
O O4 0.271391 0.130382 0.335508
O O5 0.500000 0.886595 0.107677
O O6 0.500000 0.000000 0.166994
O O7 0.859458 0.886881 0.796123
O O8 0.000000 0.937555 0.857490
O O9 0.868031 0.000000 0.822380
O O10 0.874691 0.933336 0.000000
O O11 0.615700 0.735648 0.500000
O O12 0.500000 0.724085 0.338861
O O13 0.666071 0.713331 0.282237
O O14 0.727831 0.835669 0.879421
O O15 0.090387 0.308126 0.000000
O O16 0.250000 0.250000 0.000000
#
# Coordination Sequence:
#
# PCOD9492687 Si02
#       7
#    16   8  16  16  16   4   8
#     4  11  23  41  64  91 125 165 214 274 326 377
#     4  12  26  46  71  93 126 178 224 271 322 392
#     4   9  19  38  60  85 121 163 210 267 326 387
#     4  10  21  39  65  93 129 175 216 265 333 404
#     4  12  22  38  61  97 128 164 218 265 332 405
#     4  12  27  54  68  98 144 180 219 272 340 414
#     4  12  26  43  65  99 136 175 212 267 345 405
#
# _framework density 19.711887999999998
#
# number of rings (size 3 to 8) (size 9 to 14) (size 15 to 20)
#    0.000    1.143    3.810    3.857    0.000    3.048 
#    1.714    0.000    0.000    1.714    0.000    6.667 
#    0.000    0.000    0.000    0.000    0.000    0.000 
#
# Total GULP energy -234490.017500 kJ/mol
# GULP energy per Si atom -5583.095655 kJ/mol
# Density = 1.966702 g / cm^3
# Si number density = 19.711888 Si / 1000 Ang^3
#
#
#
# Elastic Constant Matrix: (Units=GPa)
#
#
# Indices 1 2 3 4 5 6 
#
# 1 85.6043 31.8416 29.0168 0.0000 0.0000 0.0000
# 2 31.8416 67.1860 18.3702 0.0000 0.0000 0.0000
# 3 29.0168 18.3702 63.0838 0.0000 0.0000 0.0000
# 4 0.0000 0.0000 0.0000 18.4358 0.0000 0.0000
# 5 0.0000 0.0000 0.0000 0.0000 29.6346 0.0000
# 6 0.0000 0.0000 0.0000 0.0000 0.0000 14.1771
#
#
#
# Elastic Compliance Matrix: (Units=1/GPa)
#
#
# Indices 1 2 3 4 5 6 
#
# 1 0.015771 -0.005966 -0.005517 0.000000 0.000000 0.000000
# 2 -0.005966 0.018428 -0.002622 0.000000 0.000000 0.000000
# 3 -0.005517 -0.002622 0.019153 0.000000 0.000000 0.000000
# 4 0.000000 0.000000 0.000000 0.054242 0.000000 0.000000
# 5 0.000000 0.000000 0.000000 0.000000 0.033744 0.000000
# 6 0.000000 0.000000 0.000000 0.000000 0.000000 0.070536
#
#
# Mechanical properties :
#
#
# Convention : Reuss Voigt Hill
#
# Bulk Modulus (GPa) = 39.77347 41.59238 40.68292
# Shear Modulus (GPa) = 20.12349 21.55920 20.84134
#
# Velocity S-wave (km/s) = 3.19859 3.31072 3.25514
# Velocity P-wave (km/s) = 5.81915 5.98001 5.90013
#
# Compressibility (1/GPa) = 0.02514239
#
# Stress axis : x y z
#
# Youngs Moduli (GPa) = 63.40856 54.26392 52.21078
#
# Poissons Ratio (x) = 0.32373 0.28804
# Poissons Ratio (y) = 0.37829 0.13691
# Poissons Ratio (z) = 0.34982 0.14230
#
# Static dielectric constant tensor:
#      x y z
#    x 1.713030 0.000000 0.000000 
#    y 0.000000 1.692790 0.000000 
#    z 0.000000 0.000000 1.710770 
# 
# From -- ./inp_files/24861.got.cif
#   From: 2010.05.17/outbox.cif.g08.bks.cpg/sg65_13_cif.got.tgz:24861.got - 2010.06.03 17:01:31.
