data_PCOD9492452
_publ_section_title
;
Structure prediction by ZEFSAII (Michael W. Deem and Ramdas Pophale) SiO2 
 PCOD9492452
Probable space group: C M M M
;
_chemical_formula_sum "Si O2"
_cell_formula_units_Z 100
_cell_length_a 20.327440
_cell_length_b 7.916770
_cell_length_c 31.107971
_cell_angle_alpha 90.000000
_cell_angle_beta 90.000000
_cell_angle_gamma 90.000000
_cell_volume 5006.133203
_symmetry_space_group_name_H-M "C M M M"
_symmetry_group_IT_number 65
_symmetry_cell_setting 'orthorhombic'
loop_
_space_group_symop_operation_xyz
x,y,z
-x,-y,z
x,-y,-z
-x,y,-z
-x,-y,-z
x,y,-z
-x,y,z
x,-y,z
1/2+x,1/2+y,z
1/2-x,1/2-y,z
1/2+x,1/2-y,-z
1/2-x,1/2+y,-z
1/2-x,1/2-y,-z
1/2+x,1/2+y,-z
1/2-x,1/2+y,z
1/2+x,1/2-y,z
loop_
_atom_site_type_symbol
_atom_site_label
_atom_site_fract_x
_atom_site_fract_y
_atom_site_fract_z
Si Si1 0.327321 0.797763 0.546565
Si Si2 0.574659 0.797902 0.878560
Si Si3 0.393389 0.805296 0.275892
Si Si4 0.323016 0.800454 0.809751
Si Si5 0.176678 0.798209 0.950786
Si Si6 0.826521 0.196846 0.360365
Si Si7 0.500000 0.500000 0.269567
O O1 0.354723 0.741278 0.500000
O O2 0.250000 0.750000 0.545849
O O3 0.353552 0.725427 0.591297
O O4 0.332170 0.000000 0.548690
O O5 0.500000 0.730146 0.880409
O O6 0.618252 0.727161 0.839052
O O7 0.618496 0.766606 0.920711
O O8 0.568956 0.000000 0.873384
O O9 0.337466 0.769096 0.240202
O O10 0.364657 0.797235 0.323844
O O11 0.443985 0.652323 0.270717
O O12 0.417044 0.000000 0.267660
O O13 0.250000 0.750000 0.822614
O O14 0.325898 0.000000 0.816103
O O15 0.250000 0.750000 0.935146
O O16 0.173050 0.000000 0.951355
O O17 0.170733 0.734844 0.000000
O O18 0.750000 0.250000 0.360450
O O19 0.830765 0.000000 0.350023
#
# Coordination Sequence:
#
# PCOD9492452 Si02
#       7
#    16  16  16  16  16  16   4
#     4   9  16  26  43  72 111 154 194 238 303 371
#     4  10  22  40  60  87 122 161 203 245 300 363
#     4  11  24  43  64  89 123 159 204 258 306 361
#     4  10  23  40  63  90 121 158 197 249 305 358
#     4  10  21  38  60  87 118 154 200 252 306 362
#     4  11  20  33  54  85 120 157 203 250 307 372
#     4  12  26  44  64  94 117 162 209 252 304 380
#
# _framework density 19.975496
#
# number of rings (size 3 to 8) (size 9 to 14) (size 15 to 20)
#    0.000    1.760    0.800    4.560    2.240    5.760 
#    0.000    1.600    0.000    0.000    0.000    1.120 
#    0.000    2.560    0.000    0.000    0.000    0.000 
#
# Total GULP energy -278391.720645 kJ/mol
# GULP energy per Si atom -5567.834413 kJ/mol
# Density = 1.993003 g / cm^3
# Si number density = 19.975496 Si / 1000 Ang^3
#
#
#
# Elastic Constant Matrix: (Units=GPa)
#
#
# Indices 1 2 3 4 5 6 
#
# 1 128.5893 24.3657 57.6927 0.0000 0.0000 0.0000
# 2 24.3657 86.0070 7.5635 0.0000 0.0000 0.0000
# 3 57.6927 7.5635 111.8378 0.0000 0.0000 0.0000
# 4 0.0000 0.0000 0.0000 30.4792 0.0000 0.0000
# 5 0.0000 0.0000 0.0000 0.0000 626.9494 0.0000
# 6 0.0000 0.0000 0.0000 0.0000 0.0000 31.3356
#
#
#
# Elastic Compliance Matrix: (Units=1/GPa)
#
#
# Indices 1 2 3 4 5 6 
#
# 1 0.010646 -0.002548 -0.005320 0.000000 0.000000 0.000000
# 2 -0.002548 0.012306 0.000482 0.000000 0.000000 0.000000
# 3 -0.005320 0.000482 0.011653 0.000000 0.000000 0.000000
# 4 0.000000 0.000000 0.000000 0.032809 0.000000 0.000000
# 5 0.000000 0.000000 0.000000 0.000000 0.001595 0.000000
# 6 0.000000 0.000000 0.000000 0.000000 0.000000 0.031913
#
#
# Mechanical properties :
#
#
# Convention : Reuss Voigt Hill
#
# Bulk Modulus (GPa) = 50.41708 56.18643 53.30175
# Shear Modulus (GPa) = 40.88124 153.54031 97.21077
#
# Velocity S-wave (km/s) = 4.52881 8.77674 6.98360
# Velocity P-wave (km/s) = 7.25542 11.44102 9.57962
#
# Compressibility (1/GPa) = 0.01983455
#
# Stress axis : x y z
#
# Youngs Moduli (GPa) = 93.92970 81.25809 85.81406
#
# Poissons Ratio (x) = 0.20707 0.45650
# Poissons Ratio (y) = 0.23936 -0.04139
# Poissons Ratio (z) = 0.49967 -0.03919
#
# Static dielectric constant tensor:
#      x y z
#    x 1.670380 0.000000 0.000000 
#    y 0.000000 1.712580 0.000000 
#    z 0.000000 0.000000 1.752260 
# 
# From -- ./inp_files/78207.got.cif
#   From: 2010.05.17/outbox.cif.g08.bks.cpg/sg65_40_cif.got.tgz:78207.got - 2010.06.03 17:01:31.
