data_PCOD9492798
_publ_section_title
;
Structure prediction by ZEFSAII (Michael W. Deem and Ramdas Pophale) SiO2 
 PCOD9492798
Probable space group: C M M M
;
_chemical_formula_sum "Si O2"
_cell_formula_units_Z 120
_cell_length_a 9.645094
_cell_length_b 28.370565
_cell_length_c 22.993648
_cell_angle_alpha 90.000000
_cell_angle_beta 90.000000
_cell_angle_gamma 90.000000
_cell_volume 6291.907483
_symmetry_space_group_name_H-M "C M M M"
_symmetry_group_IT_number 65
_symmetry_cell_setting 'orthorhombic'
loop_
_space_group_symop_operation_xyz
x,y,z
-x,-y,z
x,-y,-z
-x,y,-z
-x,-y,-z
x,y,-z
-x,y,z
x,-y,z
1/2+x,1/2+y,z
1/2-x,1/2-y,z
1/2+x,1/2-y,-z
1/2-x,1/2+y,-z
1/2-x,1/2-y,-z
1/2+x,1/2+y,-z
1/2-x,1/2+y,z
1/2+x,1/2-y,z
loop_
_atom_site_type_symbol
_atom_site_label
_atom_site_fract_x
_atom_site_fract_y
_atom_site_fract_z
Si Si1 0.656553 0.706887 0.733006
Si Si2 0.844751 0.377175 0.262893
Si Si3 0.657654 0.000000 0.430657
Si Si4 0.151875 0.555011 0.158229
Si Si5 0.664187 0.893155 0.400625
Si Si6 0.333283 0.396901 0.933266
Si Si7 0.157378 0.792306 0.070969
Si Si8 0.336058 0.297717 0.408573
O O1 0.500000 0.711782 0.752033
O O2 0.750000 0.750000 0.751722
O O3 0.727623 0.659524 0.753827
O O4 0.659935 0.704969 0.662102
O O5 0.830618 0.420772 0.220338
O O6 0.831712 0.389804 0.330618
O O7 0.000000 0.356488 0.255908
O O8 0.713449 0.946978 0.415361
O O9 0.500000 0.000000 0.406140
O O10 0.652426 0.000000 0.500000
O O11 0.151029 0.500000 0.166953
O O12 0.267198 0.568328 0.112150
O O13 0.000000 0.570241 0.135344
O O14 0.500000 0.888649 0.418670
O O15 0.754563 0.847396 0.422441
O O16 0.500000 0.397463 0.931927
O O17 0.288060 0.344173 0.915516
O O18 0.291314 0.406103 0.000000
O O19 0.250000 0.750000 0.092716
O O20 0.000000 0.787678 0.091316
O O21 0.153971 0.790470 0.000000
O O22 0.500000 0.297574 0.427223
O O23 0.250000 0.250000 0.426983
#
# Coordination Sequence:
#
# PCOD9492798 Si02
#       8
#    16  16   8  16  16  16  16  16
#     4   9  16  27  46  72 103 136 169 206 251 302
#     4   9  18  32  50  73 102 135 172 209 252 306
#     4   9  18  32  53  83 113 141 180 227 268 312
#     4  10  22  37  52  72  98 126 162 213 260 298
#     4   9  17  30  52  78 105 142 181 217 263 318
#     4   9  19  36  55  74  98 129 165 202 245 303
#     4   8  14  26  46  72  98 122 151 189 232 282
#     4   9  16  27  46  74 107 139 176 221 266 315
#
# _framework density 19.072118
#
# number of rings (size 3 to 8) (size 9 to 14) (size 15 to 20)
#    0.000    3.000    0.000    1.600    0.933    5.067 
#    0.000    3.667    0.000    2.800    0.000    0.000 
#    0.000    0.000    0.000    0.000    0.000    0.000 
#
# Total GULP energy -334153.867235 kJ/mol
# GULP energy per Si atom -5569.231121 kJ/mol
# Density = 1.902871 g / cm^3
# Si number density = 19.072118 Si / 1000 Ang^3
#
#
#
# Elastic Constant Matrix: (Units=GPa)
#
#
# Indices 1 2 3 4 5 6 
#
# 1 89.4728 72.4063 23.0652 0.0000 0.0000 0.0000
# 2 72.4063 142.7758 23.7772 0.0000 0.0000 0.0000
# 3 23.0652 23.7772 38.4880 0.0000 0.0000 0.0000
# 4 0.0000 0.0000 0.0000 25.9655 0.0000 0.0000
# 5 0.0000 0.0000 0.0000 0.0000 68.5161 0.0000
# 6 0.0000 0.0000 0.0000 0.0000 0.0000 29.0578
#
#
#
# Elastic Compliance Matrix: (Units=1/GPa)
#
#
# Indices 1 2 3 4 5 6 
#
# 1 0.020307 -0.009220 -0.006473 0.000000 0.000000 0.000000
# 2 -0.009220 0.011994 -0.001884 0.000000 0.000000 0.000000
# 3 -0.006473 -0.001884 0.031025 0.000000 0.000000 0.000000
# 4 0.000000 0.000000 0.000000 0.038513 0.000000 0.000000
# 5 0.000000 0.000000 0.000000 0.000000 0.014595 0.000000
# 6 0.000000 0.000000 0.000000 0.000000 0.000000 0.034414
#
#
# Mechanical properties :
#
#
# Convention : Reuss Voigt Hill
#
# Bulk Modulus (GPa) = 35.49793 56.58157 46.03975
# Shear Modulus (GPa) = 25.58940 34.80707 30.19824
#
# Velocity S-wave (km/s) = 3.66692 4.27666 3.98348
# Velocity P-wave (km/s) = 6.04825 7.35650 6.73422
#
# Compressibility (1/GPa) = 0.02817066
#
# Stress axis : x y z
#
# Youngs Moduli (GPa) = 49.24432 83.37776 32.23164
#
# Poissons Ratio (x) = 0.76876 0.20865
# Poissons Ratio (y) = 0.45404 0.06072
# Poissons Ratio (z) = 0.31878 0.15708
#
# Static dielectric constant tensor:
#      x y z
#    x 1.673780 0.000000 0.000000 
#    y 0.000000 1.670050 0.000000 
#    z 0.000000 0.000000 1.658550 
# 
# From -- ./inp_files/73989.got.cif
#   From: 2010.05.17/outbox.cif.g08.bks.cpg/sg65_37_cif.got.tgz:73989.got - 2010.06.03 17:01:31.
