data_PCOD9492360
_publ_section_title
;
Structure prediction by ZEFSAII (Michael W. Deem and Ramdas Pophale) SiO2 
 PCOD9492360
Probable space group: C M M M
;
_chemical_formula_sum "Si O2"
_cell_formula_units_Z 64
_cell_length_a 8.758404
_cell_length_b 25.485571
_cell_length_c 14.980472
_cell_angle_alpha 90.000000
_cell_angle_beta 90.000000
_cell_angle_gamma 90.000000
_cell_volume 3343.835003
_symmetry_space_group_name_H-M "C M M M"
_symmetry_group_IT_number 65
_symmetry_cell_setting 'orthorhombic'
loop_
_space_group_symop_operation_xyz
x,y,z
-x,-y,z
x,-y,-z
-x,y,-z
-x,-y,-z
x,y,-z
-x,y,z
x,-y,z
1/2+x,1/2+y,z
1/2-x,1/2-y,z
1/2+x,1/2-y,-z
1/2-x,1/2+y,-z
1/2-x,1/2-y,-z
1/2+x,1/2+y,-z
1/2-x,1/2+y,z
1/2+x,1/2-y,z
loop_
_atom_site_type_symbol
_atom_site_label
_atom_site_fract_x
_atom_site_fract_y
_atom_site_fract_z
Si Si1 0.186662 0.885568 0.397313
Si Si2 0.675989 0.500000 0.391242
Si Si3 0.324309 0.500000 0.108554
Si Si4 0.318682 0.889604 0.894000
Si Si5 0.317117 0.308018 0.758156
O O1 0.232800 0.876628 0.500000
O O2 0.243029 0.943390 0.366747
O O3 0.232913 0.839893 0.330422
O O4 0.000000 0.888049 0.396840
O O5 0.500000 0.500000 0.360091
O O6 0.672303 0.500000 0.500000
O O7 0.500000 0.500000 0.137084
O O8 0.243812 0.446289 0.136759
O O9 0.320402 0.500000 0.000000
O O10 0.500000 0.887473 0.881020
O O11 0.238724 0.843224 0.840526
O O12 0.287653 0.885040 0.000000
O O13 0.500000 0.305272 0.758525
O O14 0.250000 0.250000 0.760778
#
# Coordination Sequence:
#
# PCOD9492360 Si02
#       5
#    16   8   8  16  16
#     4   8  15  29  50  77 108 140 174 217 272 331
#     4   7  10  21  44  73 103 131 162 205 257 314
#     4   9  17  32  57  88 117 143 176 218 265 323
#     4  10  21  38  59  82 111 146 181 222 274 328
#     4  11  23  37  54  77 107 144 189 236 277 325
#
# _framework density 19.139700999999999
#
# number of rings (size 3 to 8) (size 9 to 14) (size 15 to 20)
#    0.000    2.750    0.000    3.375    0.000    5.000 
#    0.000    2.500    0.000    2.250    0.000    0.000 
#    0.000   14.000    0.000    0.000    0.000    0.000 
#
# Total GULP energy -178532.988460 kJ/mol
# GULP energy per Si atom -5579.155889 kJ/mol
# Density = 1.909614 g / cm^3
# Si number density = 19.139701 Si / 1000 Ang^3
#
#
#
# Elastic Constant Matrix: (Units=GPa)
#
#
# Indices 1 2 3 4 5 6 
#
# 1 45.7608 64.4157 45.1094 0.0000 0.0000 0.0000
# 2 64.4157 223.4207 77.1388 0.0000 0.0000 0.0000
# 3 45.1094 77.1388 78.7675 0.0000 0.0000 0.0000
# 4 0.0000 0.0000 0.0000 20.5161 0.0000 0.0000
# 5 0.0000 0.0000 0.0000 0.0000 9.2426 0.0000
# 6 0.0000 0.0000 0.0000 0.0000 0.0000 20.7300
#
#
#
# Elastic Compliance Matrix: (Units=1/GPa)
#
#
# Indices 1 2 3 4 5 6 
#
# 1 0.058285 -0.007977 -0.025567 0.000000 0.000000 0.000000
# 2 -0.007977 0.007854 -0.003123 0.000000 0.000000 0.000000
# 3 -0.025567 -0.003123 0.030396 0.000000 0.000000 0.000000
# 4 0.000000 0.000000 0.000000 0.048742 0.000000 0.000000
# 5 0.000000 0.000000 0.000000 0.000000 0.108195 0.000000
# 6 0.000000 0.000000 0.000000 0.000000 0.000000 0.048239
#
#
# Mechanical properties :
#
#
# Convention : Reuss Voigt Hill
#
# Bulk Modulus (GPa) = 43.10263 80.14187 61.62225
# Shear Modulus (GPa) = 13.06232 20.85008 16.95620
#
# Velocity S-wave (km/s) = 2.61525 3.30413 2.97967
# Velocity P-wave (km/s) = 5.62924 7.51793 6.64107
#
# Compressibility (1/GPa) = 0.02320044
#
# Stress axis : x y z
#
# Youngs Moduli (GPa) = 17.15710 127.32103 32.89874
#
# Poissons Ratio (x) = 1.01566 0.84112
# Poissons Ratio (y) = 0.13686 0.10275
# Poissons Ratio (z) = 0.43866 0.39767
#
# Static dielectric constant tensor:
#      x y z
#    x 1.643990 0.000000 0.000000 
#    y 0.000000 1.653790 0.000000 
#    z 0.000000 0.000000 1.688410 
# 
# From -- ./inp_files/36011.got.cif
#   From: 2010.05.17/outbox.cif.g08.bks.cpg/sg65_19_cif.got.tgz:36011.got - 2010.06.03 17:01:31.
