data_PCOD9492690
_publ_section_title
;
Structure prediction by ZEFSAII (Michael W. Deem and Ramdas Pophale) SiO2 
 PCOD9492690
Probable space group: C M M M
;
_chemical_formula_sum "Si O2"
_cell_formula_units_Z 58
_cell_length_a 9.012340
_cell_length_b 15.078322
_cell_length_c 21.695771
_cell_angle_alpha 90.000000
_cell_angle_beta 90.000000
_cell_angle_gamma 90.000000
_cell_volume 2948.259247
_symmetry_space_group_name_H-M "C M M M"
_symmetry_group_IT_number 65
_symmetry_cell_setting 'orthorhombic'
loop_
_space_group_symop_operation_xyz
x,y,z
-x,-y,z
x,-y,-z
-x,y,-z
-x,-y,-z
x,y,-z
-x,y,z
x,-y,z
1/2+x,1/2+y,z
1/2-x,1/2-y,z
1/2+x,1/2-y,-z
1/2-x,1/2+y,-z
1/2-x,1/2-y,-z
1/2+x,1/2+y,-z
1/2-x,1/2+y,z
1/2+x,1/2-y,z
loop_
_atom_site_type_symbol
_atom_site_label
_atom_site_fract_x
_atom_site_fract_y
_atom_site_fract_z
Si Si1 0.000000 0.000000 0.500000
Si Si2 0.824009 0.846156 0.072240
Si Si3 0.678108 0.000000 0.151990
Si Si4 0.331921 0.844578 0.638102
Si Si5 0.268515 0.142532 0.500000
Si Si6 0.677801 0.500000 0.713171
O O1 0.873252 0.921064 0.500000
O O2 0.750000 0.750000 0.079644
O O3 0.000000 0.843778 0.086325
O O4 0.739494 0.915360 0.114938
O O5 0.808995 0.871402 0.000000
O O6 0.748932 0.000000 0.219686
O O7 0.500000 0.000000 0.154728
O O8 0.500000 0.838557 0.662211
O O9 0.250000 0.750000 0.640915
O O10 0.339871 0.873978 0.566585
O O11 0.236573 0.914998 0.675914
O O12 0.250000 0.250000 0.500000
O O13 0.500000 0.500000 0.716490
#
# Coordination Sequence:
#
# PCOD9492690 Si02
#       6
#     2  16   8  16   8   8
#     4  12  24  40  66  98 136 188 210 284 346 418
#     4  10  21  39  65  98 133 168 211 263 322 384
#     4  12  25  42  64  91 128 172 220 270 319 386
#     4  11  24  43  68  97 132 168 215 273 335 399
#     4  10  25  38  71  99 139 169 229 273 351 418
#     4  12  27  45  65  90 127 171 223 268 325 395
#
# _framework density 19.672626000000001
#
# number of rings (size 3 to 8) (size 9 to 14) (size 15 to 20)
#    0.000    1.103    0.000    5.793   11.586    4.414 
#    0.000    7.586    0.000    0.000    0.000    0.000 
#    0.000    0.000    0.000    0.000    0.000    0.000 
#
# Total GULP energy -161797.252939 kJ/mol
# GULP energy per Si atom -5579.215619 kJ/mol
# Density = 1.962785 g / cm^3
# Si number density = 19.672626 Si / 1000 Ang^3
#
#
#
# Elastic Constant Matrix: (Units=GPa)
#
#
# Indices 1 2 3 4 5 6 
#
# 1 230.5832 93.2267 89.0001 0.0000 0.0000 0.0000
# 2 93.2267 140.5379 86.9325 0.0000 0.0000 0.0000
# 3 89.0001 86.9325 145.6939 0.0000 0.0000 0.0000
# 4 0.0000 0.0000 0.0000 40.5818 0.0000 0.0000
# 5 0.0000 0.0000 0.0000 0.0000 61.2492 0.0000
# 6 0.0000 0.0000 0.0000 0.0000 0.0000 31.1572
#
#
#
# Elastic Compliance Matrix: (Units=1/GPa)
#
#
# Indices 1 2 3 4 5 6 
#
# 1 0.006327 -0.002863 -0.002157 0.000000 0.000000 0.000000
# 2 -0.002863 0.012574 -0.005754 0.000000 0.000000 0.000000
# 3 -0.002157 -0.005754 0.011614 0.000000 0.000000 0.000000
# 4 0.000000 0.000000 0.000000 0.024642 0.000000 0.000000
# 5 0.000000 0.000000 0.000000 0.000000 0.016327 0.000000
# 6 0.000000 0.000000 0.000000 0.000000 0.000000 0.032095
#
#
# Mechanical properties :
#
#
# Convention : Reuss Voigt Hill
#
# Bulk Modulus (GPa) = 111.50252 117.23708 114.36980
# Shear Modulus (GPa) = 39.02786 43.10801 41.06794
#
# Velocity S-wave (km/s) = 4.45889 4.68618 4.57395
# Velocity P-wave (km/s) = 9.12749 9.43418 9.28210
#
# Compressibility (1/GPa) = 0.00896841
#
# Stress axis : x y z
#
# Youngs Moduli (GPa) = 158.06025 79.53172 86.10196
#
# Poissons Ratio (x) = 0.22769 0.18569
# Poissons Ratio (y) = 0.45250 0.49539
# Poissons Ratio (z) = 0.34087 0.45759
#
# Static dielectric constant tensor:
#      x y z
#    x 1.690370 0.000000 0.000000 
#    y 0.000000 1.668840 0.000000 
#    z 0.000000 0.000000 1.684010 
# 
# From -- ./inp_files/58677.got.cif
#   From: 2010.05.17/outbox.cif.g08.bks.cpg/sg65_30_cif.got.tgz:58677.got - 2010.06.03 17:01:31.
