data_PCOD9492920
_publ_section_title
;
Structure prediction by ZEFSAII (Michael W. Deem and Ramdas Pophale) SiO2 
 PCOD9492920
Probable space group: C M M M
;
_chemical_formula_sum "Si O2"
_cell_formula_units_Z 116
_cell_length_a 28.304128
_cell_length_b 15.678250
_cell_length_c 14.647424
_cell_angle_alpha 90.000000
_cell_angle_beta 90.000000
_cell_angle_gamma 90.000000
_cell_volume 6499.929080
_symmetry_space_group_name_H-M "C M M M"
_symmetry_group_IT_number 65
_symmetry_cell_setting 'orthorhombic'
loop_
_space_group_symop_operation_xyz
x,y,z
-x,-y,z
x,-y,-z
-x,y,-z
-x,-y,-z
x,y,-z
-x,y,z
x,-y,z
1/2+x,1/2+y,z
1/2-x,1/2-y,z
1/2+x,1/2-y,-z
1/2-x,1/2+y,-z
1/2-x,1/2-y,-z
1/2+x,1/2+y,-z
1/2-x,1/2+y,z
1/2+x,1/2-y,z
loop_
_atom_site_type_symbol
_atom_site_label
_atom_site_fract_x
_atom_site_fract_y
_atom_site_fract_z
Si Si1 0.794068 0.633926 0.397075
Si Si2 0.500000 0.000000 0.141601
Si Si3 0.422131 0.852661 0.894006
Si Si4 0.186820 0.836667 0.397620
Si Si5 0.553250 0.655915 0.894577
Si Si6 0.642868 0.398685 0.219143
Si Si7 0.766066 0.895779 0.105202
Si Si8 0.670452 0.098018 0.797082
O O1 0.805293 0.603649 0.500000
O O2 0.803025 0.735605 0.396764
O O3 0.738038 0.619793 0.380748
O O4 0.822879 0.598904 0.311840
O O5 0.541224 0.925071 0.136221
O O6 0.444383 0.758716 0.890768
O O7 0.375290 0.853406 0.832532
O O8 0.409389 0.870267 0.000000
O O9 0.171424 0.860152 0.500000
O O10 0.150714 0.859303 0.318612
O O11 0.500000 0.627993 0.871891
O O12 0.593598 0.621617 0.828685
O O13 0.563233 0.630864 0.000000
O O14 0.647707 0.500000 0.227828
O O15 0.686433 0.367166 0.156035
O O16 0.718978 0.867895 0.158443
O O17 0.766230 0.000000 0.106438
O O18 0.765199 0.868628 0.000000
O O19 0.664697 0.000000 0.827715
#
# Coordination Sequence:
#
# PCOD9492920 Si02
#       8
#    16   4  16  16  16  16  16  16
#     4   9  18  33  52  75 108 147 182 222 272 328
#     4  12  21  36  60  84 111 148 193 238 278 320
#     4  11  21  35  56  82 112 145 186 233 278 323
#     4   9  18  34  55  77 105 142 182 226 274 328
#     4  10  22  39  57  79 108 143 187 236 278 324
#     4  11  21  35  56  80 109 147 186 229 281 328
#     4   9  18  31  45  69 109 148 179 212 259 322
#     4  11  20  30  49  79 111 145 179 221 269 326
#
# _framework density 17.846347999999999
#
# number of rings (size 3 to 8) (size 9 to 14) (size 15 to 20)
#    0.000    1.931    2.759    3.103    0.000    2.207 
#    0.000    2.069    0.000    3.724    0.000    1.931 
#    0.000    0.000    0.000    0.000    0.000    0.000 
#
# Total GULP energy -323268.283085 kJ/mol
# GULP energy per Si atom -5573.591088 kJ/mol
# Density = 1.780573 g / cm^3
# Si number density = 17.846348 Si / 1000 Ang^3
#
#
#
# Elastic Constant Matrix: (Units=GPa)
#
#
# Indices 1 2 3 4 5 6 
#
# 1 119.1108 3.6420 79.1802 0.0000 0.0000 0.0000
# 2 3.6420 23.6859 8.7974 0.0000 0.0000 0.0000
# 3 79.1802 8.7974 118.3535 0.0000 0.0000 0.0000
# 4 0.0000 0.0000 0.0000 13.2232 0.0000 0.0000
# 5 0.0000 0.0000 0.0000 0.0000 14.7472 0.0000
# 6 0.0000 0.0000 0.0000 0.0000 0.0000 21.5304
#
#
#
# Elastic Compliance Matrix: (Units=1/GPa)
#
#
# Indices 1 2 3 4 5 6 
#
# 1 0.015170 0.001478 -0.010259 0.000000 0.000000 0.000000
# 2 0.001478 0.043562 -0.004227 0.000000 0.000000 0.000000
# 3 -0.010259 -0.004227 0.015627 0.000000 0.000000 0.000000
# 4 0.000000 0.000000 0.000000 0.075625 0.000000 0.000000
# 5 0.000000 0.000000 0.000000 0.000000 0.067810 0.000000
# 6 0.000000 0.000000 0.000000 0.000000 0.000000 0.046446
#
#
# Mechanical properties :
#
#
# Convention : Reuss Voigt Hill
#
# Bulk Modulus (GPa) = 20.68541 49.37659 35.03100
# Shear Modulus (GPa) = 16.32019 21.20218 18.76119
#
# Velocity S-wave (km/s) = 3.02732 3.45054 3.24583
# Velocity P-wave (km/s) = 4.88217 6.60323 5.80681
#
# Compressibility (1/GPa) = 0.04834325
#
# Stress axis : x y z
#
# Youngs Moduli (GPa) = 65.91953 22.95582 63.99288
#
# Poissons Ratio (x) = -0.03392 0.65649
# Poissons Ratio (y) = -0.09742 0.27048
# Poissons Ratio (z) = 0.67626 0.09703
#
# Static dielectric constant tensor:
#      x y z
#    x 1.585220 0.000000 0.000000 
#    y 0.000000 1.644990 0.000000 
#    z 0.000000 0.000000 1.604280 
# 
# From -- ./inp_files/46025.got.cif
#   From: 2010.05.17/outbox.cif.g08.bks.cpg/sg65_24_cif.got.tgz:46025.got - 2010.06.03 17:01:31.
