data_PCOD9492149
_publ_section_title
;
Structure prediction by ZEFSAII (Michael W. Deem and Ramdas Pophale) SiO2 
 PCOD9492149
Probable space group: C M M M
;
_chemical_formula_sum "Si O2"
_cell_formula_units_Z 104
_cell_length_a 26.110681
_cell_length_b 20.606122
_cell_length_c 9.086500
_cell_angle_alpha 90.000000
_cell_angle_beta 90.000000
_cell_angle_gamma 90.000000
_cell_volume 4888.899353
_symmetry_space_group_name_H-M "C M M M"
_symmetry_group_IT_number 65
_symmetry_cell_setting 'orthorhombic'
loop_
_space_group_symop_operation_xyz
x,y,z
-x,-y,z
x,-y,-z
-x,y,-z
-x,-y,-z
x,y,-z
-x,y,z
x,-y,z
1/2+x,1/2+y,z
1/2-x,1/2-y,z
1/2+x,1/2-y,-z
1/2-x,1/2+y,-z
1/2-x,1/2-y,-z
1/2+x,1/2+y,-z
1/2-x,1/2+y,z
1/2+x,1/2-y,z
loop_
_atom_site_type_symbol
_atom_site_label
_atom_site_fract_x
_atom_site_fract_y
_atom_site_fract_z
Si Si1 0.000000 0.420185 0.832011
Si Si2 0.416994 0.427922 0.323730
Si Si3 0.839246 0.748321 0.673124
Si Si4 0.442127 0.292255 0.823822
Si Si5 0.698772 0.604637 0.330163
Si Si6 0.600335 0.923116 0.665628
Si Si7 0.200411 0.376639 0.174340
O O1 0.050628 0.397296 0.749020
O O2 0.000000 0.500000 0.833778
O O3 0.000000 0.398326 0.000000
O O4 0.424321 0.416642 0.500000
O O5 0.436999 0.500000 0.288380
O O6 0.438540 0.366825 0.234769
O O7 0.355623 0.428054 0.297751
O O8 0.841663 0.733197 0.500000
O O9 0.896103 0.754384 0.742789
O O10 0.814038 0.819051 0.685031
O O11 0.805999 0.695349 0.758080
O O12 0.500000 0.268680 0.793180
O O13 0.433868 0.290653 0.000000
O O14 0.712263 0.590747 0.500000
O O15 0.747195 0.590908 0.229368
O O16 0.604876 0.897281 0.500000
O O17 0.651138 0.911662 0.758068
O O18 0.592695 0.000000 0.654473
O O19 0.198397 0.374885 0.000000
#
# Coordination Sequence:
#
# PCOD9492149 Si02
#       7
#     8  16  16  16  16  16  16
#     4   9  17  33  57  81 107 137 169 213 268 319
#     4   9  19  36  58  84 114 152 197 238 278 332
#     4  10  21  39  61  82 107 144 190 233 277 336
#     4  10  21  37  57  83 117 152 186 233 292 343
#     4   9  19  36  57  80 110 148 187 230 279 332
#     4  10  21  38  59  81 108 145 187 226 267 323
#     4  12  24  36  55  85 116 145 182 230 282 336
#
# _framework density 21.272682
#
# number of rings (size 3 to 8) (size 9 to 14) (size 15 to 20)
#    0.000    2.077    0.000    4.385    0.000    9.231 
#    1.385    3.077    0.000    0.000    0.000    0.000 
#    0.000    0.000    0.000    0.000    0.000    0.000 
#
# Total GULP energy -290639.200065 kJ/mol
# GULP energy per Si atom -5589.215386 kJ/mol
# Density = 2.122426 g / cm^3
# Si number density = 21.272682 Si / 1000 Ang^3
#
#
#
# Elastic Constant Matrix: (Units=GPa)
#
#
# Indices 1 2 3 4 5 6 
#
# 1 127.8714 -4.7133 71.3261 0.0000 0.0000 0.0000
# 2 -4.7133 32.2908 -0.5968 0.0000 0.0000 0.0000
# 3 71.3261 -0.5968 134.4958 0.0000 0.0000 0.0000
# 4 0.0000 0.0000 0.0000 22.1332 0.0000 0.0000
# 5 0.0000 0.0000 0.0000 0.0000 33.0189 0.0000
# 6 0.0000 0.0000 0.0000 0.0000 0.0000 -54.8937
#
#
#
# Elastic Compliance Matrix: (Units=1/GPa)
#
#
# Indices 1 2 3 4 5 6 
#
# 1 0.011180 0.001522 -0.005922 0.000000 0.000000 0.000000
# 2 0.001522 0.031178 -0.000669 0.000000 0.000000 0.000000
# 3 -0.005922 -0.000669 0.010573 0.000000 0.000000 0.000000
# 4 0.000000 0.000000 0.000000 0.045181 0.000000 0.000000
# 5 0.000000 0.000000 0.000000 0.000000 0.030286 0.000000
# 6 0.000000 0.000000 0.000000 0.000000 0.000000 -0.018217
#
#
# Mechanical properties :
#
#
# Convention : Reuss Voigt Hill
#
# Bulk Modulus (GPa) = 23.36804 47.41002 35.38903
# Shear Modulus (GPa) = 37.15185 15.29448 26.22316
#
# Velocity S-wave (km/s) = 4.18360 2.68428 3.51481
# Velocity P-wave (km/s) = 5.86050 5.65175 5.75707
#
# Compressibility (1/GPa) = 0.04279350
#
# Stress axis : x y z
#
# Youngs Moduli (GPa) = 89.44690 32.07351 94.58180
#
# Poissons Ratio (x) = -0.04883 0.56013
# Poissons Ratio (y) = -0.13617 0.06328
# Poissons Ratio (z) = 0.52972 0.02146
#
# Static dielectric constant tensor:
#      x y z
#    x 1.760880 0.000000 0.000000 
#    y 0.000000 1.827150 0.000000 
#    z 0.000000 0.000000 1.716070 
# 
# From -- ./inp_files/16761.got.cif
#   From: 2010.05.17/outbox.cif.g08.bks.cpg/sg65_9_cif.got.tgz:16761.got - 2010.06.03 17:01:31.
