data_PCOD9492636
_publ_section_title
;
Structure prediction by ZEFSAII (Michael W. Deem and Ramdas Pophale) SiO2 
 PCOD9492636
Probable space group: C M M M
;
_chemical_formula_sum "Si O2"
_cell_formula_units_Z 66
_cell_length_a 20.397309
_cell_length_b 16.930351
_cell_length_c 9.895754
_cell_angle_alpha 90.000000
_cell_angle_beta 90.000000
_cell_angle_gamma 90.000000
_cell_volume 3417.336362
_symmetry_space_group_name_H-M "C M M M"
_symmetry_group_IT_number 65
_symmetry_cell_setting 'orthorhombic'
loop_
_space_group_symop_operation_xyz
x,y,z
-x,-y,z
x,-y,-z
-x,y,-z
-x,-y,-z
x,y,-z
-x,y,z
x,-y,z
1/2+x,1/2+y,z
1/2-x,1/2-y,z
1/2+x,1/2-y,-z
1/2-x,1/2+y,-z
1/2-x,1/2-y,-z
1/2+x,1/2+y,-z
1/2-x,1/2+y,z
1/2+x,1/2-y,z
loop_
_atom_site_type_symbol
_atom_site_label
_atom_site_fract_x
_atom_site_fract_y
_atom_site_fract_z
Si Si1 0.000000 0.884057 0.243400
Si Si2 0.855516 0.685087 0.153552
Si Si3 0.000000 0.290125 0.160018
Si Si4 0.240919 0.590274 0.343262
Si Si5 0.143441 0.876145 0.149521
Si Si6 0.500000 0.500000 0.500000
O O1 0.068208 0.901385 0.168034
O O2 0.000000 0.788208 0.251607
O O3 0.000000 0.931232 0.381726
O O4 0.931862 0.664810 0.179697
O O5 0.807271 0.646784 0.260493
O O6 0.852963 0.780488 0.157162
O O7 0.837989 0.661072 0.000000
O O8 0.000000 0.264106 0.000000
O O9 0.247075 0.613320 0.500000
O O10 0.216623 0.500000 0.337448
O O11 0.310775 0.592837 0.268169
O O12 0.166719 0.899594 0.000000
#
# Coordination Sequence:
#
# PCOD9492636 Si02
#       6
#     8  16   8  16  16   2
#     4  10  22  38  57  80 120 151 188 227 285 333
#     4   9  18  37  63  88 111 141 189 240 286 339
#     4   8  16  38  66  89 110 141 190 251 288 327
#     4  11  25  39  53  79 121 156 187 231 287 346
#     4  10  21  39  63  86 109 146 196 244 282 331
#     4  12  28  36  50  84 132 168 180 230 288 340
#
# _framework density 19.313286999999999
#
# number of rings (size 3 to 8) (size 9 to 14) (size 15 to 20)
#    0.000    2.182    0.000    4.000    3.394    5.818 
#    6.545    2.727    0.000    3.636    0.000    0.000 
#    0.000    0.000    0.000    0.000    0.000    0.000 
#
# Total GULP energy -183931.301438 kJ/mol
# GULP energy per Si atom -5573.675801 kJ/mol
# Density = 1.926933 g / cm^3
# Si number density = 19.313287 Si / 1000 Ang^3
#
#
#
# Elastic Constant Matrix: (Units=GPa)
#
#
# Indices 1 2 3 4 5 6 
#
# 1 112.5659 38.8720 72.2461 0.0000 0.0000 0.0000
# 2 38.8720 47.6053 48.1880 0.0000 0.0000 0.0000
# 3 72.2461 48.1880 162.8284 0.0000 0.0000 0.0000
# 4 0.0000 0.0000 0.0000 39.4123 0.0000 0.0000
# 5 0.0000 0.0000 0.0000 0.0000 -26.2833 0.0000
# 6 0.0000 0.0000 0.0000 0.0000 0.0000 -34.8031
#
#
#
# Elastic Compliance Matrix: (Units=1/GPa)
#
#
# Indices 1 2 3 4 5 6 
#
# 1 0.014018 -0.007353 -0.004044 0.000000 0.000000 0.000000
# 2 -0.007353 0.033847 -0.006754 0.000000 0.000000 0.000000
# 3 -0.004044 -0.006754 0.009934 0.000000 0.000000 0.000000
# 4 0.000000 0.000000 0.000000 0.025373 0.000000 0.000000
# 5 0.000000 0.000000 0.000000 0.000000 -0.038047 0.000000
# 6 0.000000 0.000000 0.000000 0.000000 0.000000 -0.028733
#
#
# Mechanical properties :
#
#
# Convention : Reuss Voigt Hill
#
# Bulk Modulus (GPa) = 46.51708 71.29018 58.90363
# Shear Modulus (GPa) = 83.52663 6.57810 45.05237
#
# Velocity S-wave (km/s) = 6.58348 1.84754 4.83506
# Velocity P-wave (km/s) = 9.05137 6.44545 7.85720
#
# Compressibility (1/GPa) = 0.02149748
#
# Stress axis : x y z
#
# Youngs Moduli (GPa) = 71.33550 29.54441 100.65996
#
# Poissons Ratio (x) = 0.21725 0.40703
# Poissons Ratio (y) = 0.52456 0.67988
# Poissons Ratio (z) = 0.28845 0.19955
#
# Static dielectric constant tensor:
#      x y z
#    x 1.701370 0.000000 0.000000 
#    y 0.000000 1.679930 0.000000 
#    z 0.000000 0.000000 1.641030 
# 
# From -- ./inp_files/8973.got.cif
#   From: 2010.05.17/outbox.cif.g08.bks.cpg/sg65_5_cif.got.tgz:8973.got - 2010.06.03 17:01:31.
