data_PCOD9492697
_publ_section_title
;
Structure prediction by ZEFSAII (Michael W. Deem and Ramdas Pophale) SiO2 
 PCOD9492697
Probable space group: C M M M
;
_chemical_formula_sum "Si O2"
_cell_formula_units_Z 64
_cell_length_a 16.092450
_cell_length_b 24.775204
_cell_length_c 7.726673
_cell_angle_alpha 90.000000
_cell_angle_beta 90.000000
_cell_angle_gamma 90.000000
_cell_volume 3080.576091
_symmetry_space_group_name_H-M "C M M M"
_symmetry_group_IT_number 65
_symmetry_cell_setting 'orthorhombic'
loop_
_space_group_symop_operation_xyz
x,y,z
-x,-y,z
x,-y,-z
-x,y,-z
-x,-y,-z
x,y,-z
-x,y,z
x,-y,z
1/2+x,1/2+y,z
1/2-x,1/2-y,z
1/2+x,1/2-y,-z
1/2-x,1/2+y,-z
1/2-x,1/2-y,-z
1/2+x,1/2+y,-z
1/2-x,1/2+y,z
1/2+x,1/2-y,z
loop_
_atom_site_type_symbol
_atom_site_label
_atom_site_fract_x
_atom_site_fract_y
_atom_site_fract_z
Si Si1 0.000000 0.211998 0.792381
Si Si2 0.631571 0.500000 0.788576
Si Si3 0.905959 0.387906 0.707368
Si Si4 0.500000 0.588513 0.211051
Si Si5 0.819618 0.500000 0.793766
Si Si6 0.833449 0.722214 0.706697
O O1 0.083406 0.242836 0.735592
O O2 0.000000 0.150030 0.728594
O O3 0.000000 0.211135 0.000000
O O4 0.579780 0.446976 0.735714
O O5 0.725463 0.500000 0.725066
O O6 0.631990 0.500000 0.000000
O O7 0.910791 0.381507 0.500000
O O8 0.867089 0.445972 0.741174
O O9 0.851602 0.337948 0.775537
O O10 0.000000 0.384565 0.775894
O O11 0.500000 0.589627 0.000000
O O12 0.814706 0.500000 0.000000
O O13 0.821842 0.717496 0.500000
O O14 0.750000 0.750000 0.777730
#
# Coordination Sequence:
#
# PCOD9492697 Si02
#       6
#     8   8  16   8   8  16
#     4  11  22  35  60  93 121 150 187 244 300 347
#     4   8  16  33  52  75 111 152 183 218 268 339
#     4  10  21  40  60  78 108 150 190 230 282 343
#     4   8  16  32  53  76 111 153 185 212 273 344
#     4  11  23  34  56  88 113 140 184 239 287 333
#     4  10  22  41  63  85 115 159 202 238 284 348
#
# _framework density 20.775335999999999
#
# number of rings (size 3 to 8) (size 9 to 14) (size 15 to 20)
#    0.000    2.250    1.250    1.875    3.500    3.500 
#    0.000    0.000    0.000    0.000    0.000    7.000 
#    0.000    0.000    0.000    0.000    0.000    0.000 
#
# Total GULP energy -178714.643705 kJ/mol
# GULP energy per Si atom -5584.832616 kJ/mol
# Density = 2.072805 g / cm^3
# Si number density = 20.775336 Si / 1000 Ang^3
#
#
#
# Elastic Constant Matrix: (Units=GPa)
#
#
# Indices 1 2 3 4 5 6 
#
# 1 183.7075 108.0789 0.7298 0.0000 0.0000 0.0000
# 2 108.0789 220.0549 -2.0483 0.0000 0.0000 0.0000
# 3 0.7298 -2.0483 29.0367 0.0000 0.0000 0.0000
# 4 0.0000 0.0000 0.0000 16.5768 0.0000 0.0000
# 5 0.0000 0.0000 0.0000 0.0000 5.8200 0.0000
# 6 0.0000 0.0000 0.0000 0.0000 0.0000 -28.2424
#
#
#
# Elastic Compliance Matrix: (Units=1/GPa)
#
#
# Indices 1 2 3 4 5 6 
#
# 1 0.007662 -0.003767 -0.000458 0.000000 0.000000 0.000000
# 2 -0.003767 0.006400 0.000546 0.000000 0.000000 0.000000
# 3 -0.000458 0.000546 0.034489 0.000000 0.000000 0.000000
# 4 0.000000 0.000000 0.000000 0.060325 0.000000 0.000000
# 5 0.000000 0.000000 0.000000 0.000000 0.171822 0.000000
# 6 0.000000 0.000000 0.000000 0.000000 0.000000 -0.035408
#
#
# Mechanical properties :
#
#
# Convention : Reuss Voigt Hill
#
# Bulk Modulus (GPa) = 24.27677 71.81333 48.04505
# Shear Modulus (GPa) = 18.77018 20.56677 19.66848
#
# Velocity S-wave (km/s) = 3.00906 3.14978 3.08022
# Velocity P-wave (km/s) = 4.87682 6.91880 5.98553
#
# Compressibility (1/GPa) = 0.04119163
#
# Stress axis : x y z
#
# Youngs Moduli (GPa) = 130.52127 156.25841 28.99458
#
# Poissons Ratio (x) = 0.58866 0.01329
# Poissons Ratio (y) = 0.49170 -0.01583
# Poissons Ratio (z) = 0.05982 -0.08534
#
# Static dielectric constant tensor:
#      x y z
#    x 1.729810 0.000000 0.000000 
#    y 0.000000 1.760220 0.000000 
#    z 0.000000 0.000000 1.773480 
# 
# From -- ./inp_files/6817.got.cif
#   From: 2010.05.17/outbox.cif.g08.bks.cpg/sg65_4_cif.got.tgz:6817.got - 2010.06.03 17:01:31.
