data_PCOD9492233
_publ_section_title
;
Structure prediction by ZEFSAII (Michael W. Deem and Ramdas Pophale) SiO2 
 PCOD9492233
Probable space group: C M M M
;
_chemical_formula_sum "Si O2"
_cell_formula_units_Z 72
_cell_length_a 8.744150
_cell_length_b 18.755468
_cell_length_c 23.721351
_cell_angle_alpha 90.000000
_cell_angle_beta 90.000000
_cell_angle_gamma 90.000000
_cell_volume 3890.316402
_symmetry_space_group_name_H-M "C M M M"
_symmetry_group_IT_number 65
_symmetry_cell_setting 'orthorhombic'
loop_
_space_group_symop_operation_xyz
x,y,z
-x,-y,z
x,-y,-z
-x,y,-z
-x,-y,-z
x,y,-z
-x,y,z
x,-y,z
1/2+x,1/2+y,z
1/2-x,1/2-y,z
1/2+x,1/2-y,-z
1/2-x,1/2+y,-z
1/2-x,1/2-y,-z
1/2+x,1/2+y,-z
1/2-x,1/2+y,z
1/2+x,1/2-y,z
loop_
_atom_site_type_symbol
_atom_site_label
_atom_site_fract_x
_atom_site_fract_y
_atom_site_fract_z
Si Si1 0.684475 0.170520 0.000000
Si Si2 0.815315 0.416593 0.111733
Si Si3 0.819076 0.085339 0.436332
Si Si4 0.682596 0.329611 0.784471
Si Si5 0.318632 0.828566 0.334695
O O1 0.750000 0.250000 0.000000
O O2 0.730400 0.126983 0.944173
O O3 0.500000 0.174674 0.000000
O O4 0.775887 0.500000 0.106693
O O5 0.739743 0.380438 0.165894
O O6 0.000000 0.411697 0.116918
O O7 0.774591 0.107290 0.500000
O O8 0.725738 0.123216 0.387549
O O9 0.000000 0.101178 0.429383
O O10 0.801714 0.000000 0.432819
O O11 0.500000 0.325497 0.783436
O O12 0.750000 0.250000 0.793307
O O13 0.744417 0.355104 0.723759
O O14 0.500000 0.823876 0.327649
O O15 0.250000 0.750000 0.344301
#
# Coordination Sequence:
#
# PCOD9492233 Si02
#       5
#     8  16  16  16  16
#     4  10  21  37  59  85 113 150 189 228 276 328
#     4  10  21  38  59  84 115 149 187 230 276 327
#     4   9  19  37  59  82 111 147 185 227 277 332
#     4  11  22  38  59  82 111 146 186 230 278 333
#     4  11  22  37  58  83 112 146 186 232 279 329
#
# _framework density 18.507491999999999
#
# number of rings (size 3 to 8) (size 9 to 14) (size 15 to 20)
#    0.000    1.778    0.000    7.000    0.000    6.667 
#    0.000    1.111    0.000    2.000    0.000    0.000 
#    0.000    0.000    0.000    0.000    0.000    0.000 
#
# Total GULP energy -201162.258990 kJ/mol
# GULP energy per Si atom -5587.840527 kJ/mol
# Density = 1.846537 g / cm^3
# Si number density = 18.507492 Si / 1000 Ang^3
#
#
#
# Elastic Constant Matrix: (Units=GPa)
#
#
# Indices 1 2 3 4 5 6 
#
# 1 99.2260 55.9115 75.7240 0.0000 0.0000 0.0000
# 2 55.9115 93.4192 89.5862 0.0000 0.0000 0.0000
# 3 75.7240 89.5862 171.3812 0.0000 0.0000 0.0000
# 4 0.0000 0.0000 0.0000 50.0109 0.0000 0.0000
# 5 0.0000 0.0000 0.0000 0.0000 29.3721 0.0000
# 6 0.0000 0.0000 0.0000 0.0000 0.0000 26.9001
#
#
#
# Elastic Compliance Matrix: (Units=1/GPa)
#
#
# Indices 1 2 3 4 5 6 
#
# 1 0.016654 -0.005837 -0.004307 0.000000 0.000000 0.000000
# 2 -0.005837 0.023510 -0.009710 0.000000 0.000000 0.000000
# 3 -0.004307 -0.009710 0.012814 0.000000 0.000000 0.000000
# 4 0.000000 0.000000 0.000000 0.019996 0.000000 0.000000
# 5 0.000000 0.000000 0.000000 0.000000 0.034046 0.000000
# 6 0.000000 0.000000 0.000000 0.000000 0.000000 0.037175
#
#
# Mechanical properties :
#
#
# Convention : Reuss Voigt Hill
#
# Bulk Modulus (GPa) = 75.36501 89.60776 82.48639
# Shear Modulus (GPa) = 26.54973 30.77691 28.66332
#
# Velocity S-wave (km/s) = 3.79164 4.08234 3.93967
# Velocity P-wave (km/s) = 7.74458 8.41088 8.08459
#
# Compressibility (1/GPa) = 0.01326876
#
# Stress axis : x y z
#
# Youngs Moduli (GPa) = 60.04516 42.53588 78.03951
#
# Poissons Ratio (x) = 0.24827 0.33616
# Poissons Ratio (y) = 0.35047 0.75778
# Poissons Ratio (z) = 0.25864 0.41303
#
# Static dielectric constant tensor:
#      x y z
#    x 1.623520 0.000000 0.000000 
#    y 0.000000 1.611010 0.000000 
#    z 0.000000 0.000000 1.626570 
# 
# From -- ./inp_files/59253.got.cif
#   From: 2010.05.17/outbox.cif.g08.bks.cpg/sg65_30_cif.got.tgz:59253.got - 2010.06.03 17:01:31.
