data_PCOD9492958
_publ_section_title
;
Structure prediction by ZEFSAII (Michael W. Deem and Ramdas Pophale) SiO2 
 PCOD9492958
Probable space group: C M M M
;
_chemical_formula_sum "Si O2"
_cell_formula_units_Z 68
_cell_length_a 18.824663
_cell_length_b 9.707737
_cell_length_c 19.433035
_cell_angle_alpha 90.000000
_cell_angle_beta 90.000000
_cell_angle_gamma 90.000000
_cell_volume 3551.287601
_symmetry_space_group_name_H-M "C M M M"
_symmetry_group_IT_number 65
_symmetry_cell_setting 'orthorhombic'
loop_
_space_group_symop_operation_xyz
x,y,z
-x,-y,z
x,-y,-z
-x,y,-z
-x,-y,-z
x,y,-z
-x,y,z
x,-y,z
1/2+x,1/2+y,z
1/2-x,1/2-y,z
1/2+x,1/2-y,-z
1/2-x,1/2+y,-z
1/2-x,1/2-y,-z
1/2+x,1/2+y,-z
1/2-x,1/2+y,z
1/2+x,1/2-y,z
loop_
_atom_site_type_symbol
_atom_site_label
_atom_site_fract_x
_atom_site_fract_y
_atom_site_fract_z
Si Si1 0.500000 0.500000 0.228200
Si Si2 0.078199 0.278872 0.797287
Si Si3 0.582025 0.341453 0.582794
Si Si4 0.680831 0.157355 0.674747
Si Si5 0.820345 0.663011 0.918936
O O1 0.560969 0.377906 0.224132
O O2 0.131950 0.341266 0.742372
O O3 0.115041 0.289507 0.871260
O O4 0.000000 0.345296 0.797808
O O5 0.584253 0.334032 0.500000
O O6 0.500000 0.317216 0.604804
O O7 0.598892 0.500000 0.602508
O O8 0.634103 0.232561 0.616381
O O9 0.750000 0.250000 0.686311
O O10 0.698901 0.000000 0.656548
O O11 0.807945 0.500000 0.908061
O O12 0.750000 0.750000 0.901261
O O13 0.835075 0.684396 0.000000
#
# Coordination Sequence:
#
# PCOD9492958 Si02
#       5
#     4  16  16  16  16
#     4   8  24  40  63  90 113 166 188 246 312 344
#     4  10  23  40  62  88 117 154 202 244 296 356
#     4   9  20  40  66  92 121 159 199 241 293 354
#     4  12  26  39  61  89 121 160 198 248 300 351
#     4  10  22  39  61  88 122 161 199 246 299 354
#
# _framework density 19.147984000000001
#
# number of rings (size 3 to 8) (size 9 to 14) (size 15 to 20)
#    0.706    1.176    0.000    3.529    4.941    4.706 
#    0.000    2.941    0.000    0.000    0.000    0.000 
#    0.000    0.000    0.000    0.000    0.000    0.000 
#
# Total GULP energy -189280.293485 kJ/mol
# GULP energy per Si atom -5567.067455 kJ/mol
# Density = 1.910440 g / cm^3
# Si number density = 19.147984 Si / 1000 Ang^3
#
#
#
# Elastic Constant Matrix: (Units=GPa)
#
#
# Indices 1 2 3 4 5 6 
#
# 1 133.5235 63.9234 49.0955 0.0000 0.0000 0.0000
# 2 63.9234 135.3603 26.3495 0.0000 0.0000 0.0000
# 3 49.0955 26.3495 54.9250 0.0000 0.0000 0.0000
# 4 0.0000 0.0000 0.0000 14.8619 0.0000 0.0000
# 5 0.0000 0.0000 0.0000 0.0000 33.0760 0.0000
# 6 0.0000 0.0000 0.0000 0.0000 0.0000 35.0657
#
#
#
# Elastic Compliance Matrix: (Units=1/GPa)
#
#
# Indices 1 2 3 4 5 6 
#
# 1 0.013096 -0.004308 -0.009639 0.000000 0.000000 0.000000
# 2 -0.004308 0.009566 -0.000738 0.000000 0.000000 0.000000
# 3 -0.009639 -0.000738 0.027177 0.000000 0.000000 0.000000
# 4 0.000000 0.000000 0.000000 0.067286 0.000000 0.000000
# 5 0.000000 0.000000 0.000000 0.000000 0.030233 0.000000
# 6 0.000000 0.000000 0.000000 0.000000 0.000000 0.028518
#
#
# Mechanical properties :
#
#
# Convention : Reuss Voigt Hill
#
# Bulk Modulus (GPa) = 48.85759 66.94953 57.90356
# Shear Modulus (GPa) = 23.57705 28.89676 26.23690
#
# Velocity S-wave (km/s) = 3.51281 3.88896 3.70566
# Velocity P-wave (km/s) = 6.48261 7.43004 6.97244
#
# Compressibility (1/GPa) = 0.02046765
#
# Stress axis : x y z
#
# Youngs Moduli (GPa) = 76.35819 104.53783 36.79564
#
# Poissons Ratio (x) = 0.45037 0.35469
# Poissons Ratio (y) = 0.32897 0.02716
# Poissons Ratio (z) = 0.73605 0.07717
#
# Static dielectric constant tensor:
#      x y z
#    x 1.648350 0.000000 0.000000 
#    y 0.000000 1.664030 0.000000 
#    z 0.000000 0.000000 1.687850 
# 
# From -- ./inp_files/63333.got.cif
#   From: 2010.05.17/outbox.cif.g08.bks.cpg/sg65_32_cif.got.tgz:63333.got - 2010.06.03 17:01:31.
