data_PCOD9492031
_publ_section_title
;
Structure prediction by ZEFSAII (Michael W. Deem and Ramdas Pophale) SiO2 
 PCOD9492031
Probable space group: C M M M
;
_chemical_formula_sum "Si O2"
_cell_formula_units_Z 82
_cell_length_a 19.240828
_cell_length_b 7.987441
_cell_length_c 26.279806
_cell_angle_alpha 90.000000
_cell_angle_beta 90.000000
_cell_angle_gamma 90.000000
_cell_volume 4038.811419
_symmetry_space_group_name_H-M "C M M M"
_symmetry_group_IT_number 65
_symmetry_cell_setting 'orthorhombic'
loop_
_space_group_symop_operation_xyz
x,y,z
-x,-y,z
x,-y,-z
-x,y,-z
-x,-y,-z
x,y,-z
-x,y,z
x,-y,z
1/2+x,1/2+y,z
1/2-x,1/2-y,z
1/2+x,1/2-y,-z
1/2-x,1/2+y,-z
1/2-x,1/2-y,-z
1/2+x,1/2+y,-z
1/2-x,1/2+y,z
1/2+x,1/2-y,z
loop_
_atom_site_type_symbol
_atom_site_label
_atom_site_fract_x
_atom_site_fract_y
_atom_site_fract_z
Si Si1 0.884282 0.199935 0.000000
Si Si2 0.419930 0.799157 0.390023
Si Si3 0.327369 0.695511 0.888738
Si Si4 0.330433 0.202475 0.294128
Si Si5 0.420153 0.699632 0.500000
Si Si6 0.578069 0.801791 0.200115
Si Si7 0.000000 0.500000 0.000000
O O1 0.840707 0.223279 0.948351
O O2 0.940593 0.348210 0.000000
O O3 0.907890 0.000000 0.000000
O O4 0.500000 0.735353 0.386011
O O5 0.371489 0.737703 0.344353
O O6 0.390698 0.757073 0.445968
O O7 0.423560 0.000000 0.386095
O O8 0.334079 0.500000 0.878531
O O9 0.250000 0.750000 0.874431
O O10 0.385498 0.781321 0.854224
O O11 0.250000 0.250000 0.293703
O O12 0.371630 0.265496 0.244304
O O13 0.333042 0.000000 0.294081
O O14 0.421556 0.500000 0.500000
O O15 0.500000 0.765233 0.500000
O O16 0.500000 0.730806 0.201141
O O17 0.572102 0.000000 0.209617
#
# Coordination Sequence:
#
# PCOD9492031 Si02
#       7
#     8  16  16  16   8  16   2
#     4  10  26  44  65 100 133 166 216 263 309 376
#     4   9  17  32  55  78 105 142 186 229 278 335
#     4  11  24  42  64  90 126 163 204 254 301 363
#     4  10  21  37  56  81 112 148 189 237 286 345
#     4   9  17  29  48  79 112 139 173 225 282 335
#     4  10  22  39  62  89 118 152 197 244 297 359
#     4  12  26  40  76  94 132 176 208 260 328 364
#
# _framework density 20.303003
#
# number of rings (size 3 to 8) (size 9 to 14) (size 15 to 20)
#    0.000    2.049    0.000    2.488    4.098    7.024 
#    0.000    0.488    0.000    3.512    0.000    0.000 
#    0.000    0.000    0.000    0.000    0.000    0.000 
#
# Total GULP energy -228528.832410 kJ/mol
# GULP energy per Si atom -5573.873961 kJ/mol
# Density = 2.025679 g / cm^3
# Si number density = 20.303003 Si / 1000 Ang^3
#
#
#
# Elastic Constant Matrix: (Units=GPa)
#
#
# Indices 1 2 3 4 5 6 
#
# 1 145.0171 20.4146 72.8452 0.0000 0.0000 0.0000
# 2 20.4146 33.8250 6.5311 0.0000 0.0000 0.0000
# 3 72.8452 6.5311 155.3035 0.0000 0.0000 0.0000
# 4 0.0000 0.0000 0.0000 -53.6753 0.0000 0.0000
# 5 0.0000 0.0000 0.0000 0.0000 10.0630 0.0000
# 6 0.0000 0.0000 0.0000 0.0000 0.0000 28.0381
#
#
#
# Elastic Compliance Matrix: (Units=1/GPa)
#
#
# Indices 1 2 3 4 5 6 
#
# 1 0.009816 -0.005076 -0.004391 0.000000 0.000000 0.000000
# 2 -0.005076 0.032431 0.001017 0.000000 0.000000 0.000000
# 3 -0.004391 0.001017 0.008456 0.000000 0.000000 0.000000
# 4 0.000000 0.000000 0.000000 -0.018631 0.000000 0.000000
# 5 0.000000 0.000000 0.000000 0.000000 0.099374 0.000000
# 6 0.000000 0.000000 0.000000 0.000000 0.000000 0.035666
#
#
# Mechanical properties :
#
#
# Convention : Reuss Voigt Hill
#
# Bulk Modulus (GPa) = 29.58303 59.30304 44.44303
# Shear Modulus (GPa) = 25.60433 12.50880 19.05657
#
# Velocity S-wave (km/s) = 3.55506 2.48484 3.06700
# Velocity P-wave (km/s) = 5.60836 6.12413 5.87191
#
# Compressibility (1/GPa) = 0.03380317
#
# Stress axis : x y z
#
# Youngs Moduli (GPa) = 101.87548 30.83436 118.26375
#
# Poissons Ratio (x) = 0.15653 0.51926
# Poissons Ratio (y) = 0.51717 -0.12031
# Poissons Ratio (z) = 0.44730 -0.03137
#
# Static dielectric constant tensor:
#      x y z
#    x 1.690120 0.000000 0.000000 
#    y 0.000000 1.735320 0.000000 
#    z 0.000000 0.000000 1.727240 
# 
# From -- ./inp_files/70890.got.cif
#   From: 2010.05.17/outbox.cif.g08.bks.cpg/sg65_36_cif.got.tgz:70890.got - 2010.06.03 17:01:31.
