data_PCOD9492064
_publ_section_title
;
Structure prediction by ZEFSAII (Michael W. Deem and Ramdas Pophale) SiO2 
 PCOD9492064
Probable space group: C M M M
;
_chemical_formula_sum "Si O2"
_cell_formula_units_Z 64
_cell_length_a 18.580196
_cell_length_b 8.966118
_cell_length_c 22.671307
_cell_angle_alpha 90.000000
_cell_angle_beta 90.000000
_cell_angle_gamma 90.000000
_cell_volume 3776.863586
_symmetry_space_group_name_H-M "C M M M"
_symmetry_group_IT_number 65
_symmetry_cell_setting 'orthorhombic'
loop_
_space_group_symop_operation_xyz
x,y,z
-x,-y,z
x,-y,-z
-x,y,-z
-x,-y,-z
x,y,-z
-x,y,z
x,-y,z
1/2+x,1/2+y,z
1/2-x,1/2-y,z
1/2+x,1/2-y,-z
1/2-x,1/2+y,-z
1/2-x,1/2-y,-z
1/2+x,1/2+y,-z
1/2-x,1/2+y,z
1/2+x,1/2-y,z
loop_
_atom_site_type_symbol
_atom_site_label
_atom_site_fract_x
_atom_site_fract_y
_atom_site_fract_z
Si Si1 0.328819 0.679294 0.500000
Si Si2 0.584479 0.320661 0.618240
Si Si3 0.500000 0.318717 0.933450
Si Si4 0.671840 0.822996 0.724734
Si Si5 0.417999 0.325037 0.823524
O O1 0.321680 0.500000 0.500000
O O2 0.250000 0.750000 0.500000
O O3 0.373408 0.720476 0.558474
O O4 0.500000 0.285745 0.613328
O O5 0.590970 0.500000 0.626269
O O6 0.620966 0.239598 0.673139
O O7 0.500000 0.500000 0.935163
O O8 0.431867 0.279404 0.891797
O O9 0.500000 0.262407 0.000000
O O10 0.750000 0.750000 0.718374
O O11 0.636160 0.772072 0.786255
O O12 0.677362 0.000000 0.721242
O O13 0.500000 0.313805 0.798145
O O14 0.397823 0.500000 0.820848
#
# Coordination Sequence:
#
# PCOD9492064 Si02
#       5
#     8  16   8  16  16
#     4  10  21  37  57  81 107 140 177 216 264 318
#     4  10  21  38  59  80 106 138 176 219 267 321
#     4   7  12  26  53  85 111 138 173 210 253 309
#     4  12  24  36  52  75 106 141 180 223 269 317
#     4   8  16  31  53  79 108 138 171 210 257 309
#
# _framework density 16.945277999999998
#
# number of rings (size 3 to 8) (size 9 to 14) (size 15 to 20)
#    0.750    1.625    0.000    4.125    0.000    8.500 
#    0.000    0.000    0.000    4.500    0.000    0.000 
#    0.000    0.000    0.000    0.000    0.000    0.000 
#
# Total GULP energy -178312.102394 kJ/mol
# GULP energy per Si atom -5572.253200 kJ/mol
# Density = 1.690671 g / cm^3
# Si number density = 16.945278 Si / 1000 Ang^3
#
#
#
# Elastic Constant Matrix: (Units=GPa)
#
#
# Indices 1 2 3 4 5 6 
#
# 1 126.6908 57.8589 75.8015 0.0000 0.0000 0.0000
# 2 57.8589 58.6992 52.9899 0.0000 0.0000 0.0000
# 3 75.8015 52.9899 146.7126 0.0000 0.0000 0.0000
# 4 0.0000 0.0000 0.0000 1.2450 0.0000 0.0000
# 5 0.0000 0.0000 0.0000 0.0000 4.1231 0.0000
# 6 0.0000 0.0000 0.0000 0.0000 0.0000 27.7984
#
#
#
# Elastic Compliance Matrix: (Units=1/GPa)
#
#
# Indices 1 2 3 4 5 6 
#
# 1 0.015615 -0.012031 -0.003722 0.000000 0.000000 0.000000
# 2 -0.012031 0.034548 -0.006262 0.000000 0.000000 0.000000
# 3 -0.003722 -0.006262 0.011001 0.000000 0.000000 0.000000
# 4 0.000000 0.000000 0.000000 0.803188 0.000000 0.000000
# 5 0.000000 0.000000 0.000000 0.000000 0.242536 0.000000
# 6 0.000000 0.000000 0.000000 0.000000 0.000000 0.035973
#
#
# Mechanical properties :
#
#
# Convention : Reuss Voigt Hill
#
# Bulk Modulus (GPa) = 58.36715 78.37815 68.37265
# Shear Modulus (GPa) = 4.19251 16.33012 10.26131
#
# Velocity S-wave (km/s) = 1.57465 3.10772 2.46347
# Velocity P-wave (km/s) = 6.15023 7.69619 6.96622
#
# Compressibility (1/GPa) = 0.01713292
#
# Stress axis : x y z
#
# Youngs Moduli (GPa) = 64.04143 28.94537 90.90152
#
# Poissons Ratio (x) = 0.34825 0.33836
# Poissons Ratio (y) = 0.77049 0.56922
# Poissons Ratio (z) = 0.23838 0.18125
#
# Static dielectric constant tensor:
#      x y z
#    x 1.553020 0.000000 0.000000 
#    y 0.000000 1.558180 0.000000 
#    z 0.000000 0.000000 1.590700 
# 
# From -- ./inp_files/63263.got.cif
#   From: 2010.05.17/outbox.cif.g08.bks.cpg/sg65_32_cif.got.tgz:63263.got - 2010.06.03 17:01:31.
