data_PCOD9492359
_publ_section_title
;
Structure prediction by ZEFSAII (Michael W. Deem and Ramdas Pophale) SiO2 
 PCOD9492359
Probable space group: C M M M
;
_chemical_formula_sum "Si O2"
_cell_formula_units_Z 88
_cell_length_a 8.318235
_cell_length_b 20.011787
_cell_length_c 28.998993
_cell_angle_alpha 90.000000
_cell_angle_beta 90.000000
_cell_angle_gamma 90.000000
_cell_volume 4827.252036
_symmetry_space_group_name_H-M "C M M M"
_symmetry_group_IT_number 65
_symmetry_cell_setting 'orthorhombic'
loop_
_space_group_symop_operation_xyz
x,y,z
-x,-y,z
x,-y,-z
-x,y,-z
-x,-y,-z
x,y,-z
-x,y,z
x,-y,z
1/2+x,1/2+y,z
1/2-x,1/2-y,z
1/2+x,1/2-y,-z
1/2-x,1/2+y,-z
1/2-x,1/2-y,-z
1/2+x,1/2+y,-z
1/2-x,1/2+y,z
1/2+x,1/2-y,z
loop_
_atom_site_type_symbol
_atom_site_label
_atom_site_fract_x
_atom_site_fract_y
_atom_site_fract_z
Si Si1 0.194432 0.174377 0.867526
Si Si2 0.803845 0.922938 0.051806
Si Si3 0.694278 0.674428 0.236317
Si Si4 0.809940 0.173598 0.500000
Si Si5 0.805606 0.076643 0.316967
Si Si6 0.192010 0.576500 0.419863
O O1 0.250000 0.250000 0.875851
O O2 0.252924 0.125179 0.907564
O O3 0.246844 0.155134 0.815589
O O4 0.000000 0.173194 0.867947
O O5 0.000000 0.921853 0.052259
O O6 0.756021 0.000000 0.059151
O O7 0.753877 0.902671 0.000000
O O8 0.500000 0.673139 0.236604
O O9 0.750000 0.750000 0.244627
O O10 0.751446 0.625457 0.276574
O O11 0.750000 0.250000 0.500000
O O12 0.753973 0.130817 0.455809
O O13 0.000000 0.176011 0.500000
O O14 0.742211 0.093775 0.367723
O O15 0.000000 0.079297 0.318452
O O16 0.758505 0.000000 0.307280
O O17 0.250631 0.500000 0.429473
O O18 0.000000 0.575095 0.422986
#
# Coordination Sequence:
#
# PCOD9492359 Si02
#       6
#    16  16  16   8  16  16
#     4   9  17  29  45  66  92 122 157 196 240 290
#     4   8  14  25  42  65  91 118 152 196 242 286
#     4   9  18  31  47  68  95 127 160 198 244 292
#     4  12  25  40  59  83 111 141 175 214 255 298
#     4   9  18  33  52  74  99 128 166 208 247 290
#     4  10  21  38  59  82 109 140 173 209 251 300
#
# _framework density 18.229831999999998
#
# number of rings (size 3 to 8) (size 9 to 14) (size 15 to 20)
#    0.000    2.727    0.000    2.182    0.000    4.727 
#    0.000    5.455    0.000    0.545    0.000    6.364 
#    0.000    0.000    0.000    0.000    0.000    0.000 
#
# Total GULP energy -245361.437946 kJ/mol
# GULP energy per Si atom -5576.396317 kJ/mol
# Density = 1.818834 g / cm^3
# Si number density = 18.229832 Si / 1000 Ang^3
#
#
#
# Elastic Constant Matrix: (Units=GPa)
#
#
# Indices 1 2 3 4 5 6 
#
# 1 18.8862 23.4745 32.2679 0.0000 0.0000 0.0000
# 2 23.4745 132.6038 146.4830 0.0000 0.0000 0.0000
# 3 32.2679 146.4830 200.6581 0.0000 0.0000 0.0000
# 4 0.0000 0.0000 0.0000 43.6899 0.0000 0.0000
# 5 0.0000 0.0000 0.0000 0.0000 12.2426 0.0000
# 6 0.0000 0.0000 0.0000 0.0000 0.0000 24.1089
#
#
#
# Elastic Compliance Matrix: (Units=1/GPa)
#
#
# Indices 1 2 3 4 5 6 
#
# 1 0.073009 0.000232 -0.011910 0.000000 0.000000 0.000000
# 2 0.000232 0.038958 -0.028477 0.000000 0.000000 0.000000
# 3 -0.011910 -0.028477 0.027687 0.000000 0.000000 0.000000
# 4 0.000000 0.000000 0.000000 0.022889 0.000000 0.000000
# 5 0.000000 0.000000 0.000000 0.000000 0.081682 0.000000
# 6 0.000000 0.000000 0.000000 0.000000 0.000000 0.041478
#
#
# Mechanical properties :
#
#
# Convention : Reuss Voigt Hill
#
# Bulk Modulus (GPa) = 16.85086 84.06655 50.45870
# Shear Modulus (GPa) = 12.96026 26.00313 19.48170
#
# Velocity S-wave (km/s) = 2.66923 3.78088 3.27260
# Velocity P-wave (km/s) = 4.33167 8.07929 6.48222
#
# Compressibility (1/GPa) = 0.05934417
#
# Stress axis : x y z
#
# Youngs Moduli (GPa) = 13.69693 25.66878 36.11757
#
# Poissons Ratio (x) = -0.00594 0.43015
# Poissons Ratio (y) = -0.00317 1.02852
# Poissons Ratio (z) = 0.16313 0.73097
#
# Static dielectric constant tensor:
#      x y z
#    x 1.635690 0.000000 0.000000 
#    y 0.000000 1.648850 0.000000 
#    z 0.000000 0.000000 1.629400 
# 
# From -- ./inp_files/73127.got.cif
#   From: 2010.05.17/outbox.cif.g08.bks.cpg/sg65_37_cif.got.tgz:73127.got - 2010.06.03 17:01:31.
