data_PCOD9492840
_publ_section_title
;
Structure prediction by ZEFSAII (Michael W. Deem and Ramdas Pophale) SiO2 
 PCOD9492840
Probable space group: C M M M
;
_chemical_formula_sum "Si O2"
_cell_formula_units_Z 68
_cell_length_a 20.025576
_cell_length_b 9.567743
_cell_length_c 19.595954
_cell_angle_alpha 90.000000
_cell_angle_beta 90.000000
_cell_angle_gamma 90.000000
_cell_volume 3754.576254
_symmetry_space_group_name_H-M "C M M M"
_symmetry_group_IT_number 65
_symmetry_cell_setting 'orthorhombic'
loop_
_space_group_symop_operation_xyz
x,y,z
-x,-y,z
x,-y,-z
-x,y,-z
-x,-y,-z
x,y,-z
-x,y,z
x,-y,z
1/2+x,1/2+y,z
1/2-x,1/2-y,z
1/2+x,1/2-y,-z
1/2-x,1/2+y,-z
1/2-x,1/2-y,-z
1/2+x,1/2+y,-z
1/2-x,1/2+y,z
1/2+x,1/2-y,z
loop_
_atom_site_type_symbol
_atom_site_label
_atom_site_fract_x
_atom_site_fract_y
_atom_site_fract_z
Si Si1 0.684327 0.664039 0.108758
Si Si2 0.421011 0.161703 0.644006
Si Si3 0.646709 0.217681 0.500000
Si Si4 0.575858 0.330212 0.000000
Si Si5 0.183416 0.835722 0.271778
Si Si6 0.771172 0.000000 0.500000
O O1 0.695565 0.500000 0.094228
O O2 0.750000 0.750000 0.089143
O O3 0.674972 0.677843 0.190080
O O4 0.619770 0.709882 0.065896
O O5 0.500000 0.184511 0.649906
O O6 0.396264 0.185113 0.567128
O O7 0.378694 0.266111 0.690768
O O8 0.406529 0.000000 0.663157
O O9 0.711462 0.119141 0.500000
O O10 0.671953 0.376234 0.500000
O O11 0.572131 0.500000 0.000000
O O12 0.500000 0.277407 0.000000
O O13 0.250000 0.750000 0.291808
O O14 0.190991 0.000000 0.288802
#
# Coordination Sequence:
#
# PCOD9492840 Si02
#       6
#    16  16   8   8  16   4
#     4   9  18  34  55  82 109 143 182 229 276 323
#     4  11  24  41  60  82 115 154 187 228 282 339
#     4  11  23  41  60  89 113 146 185 236 283 332
#     4   9  17  30  53  81 110 145 184 224 270 327
#     4  10  22  37  58  84 114 146 189 236 281 332
#     4  10  24  38  64  90 112 140 186 236 288 320
#
# _framework density 18.111231
#
# number of rings (size 3 to 8) (size 9 to 14) (size 15 to 20)
#    0.000    2.000    1.176    1.412    4.941    3.294 
#    0.000    2.941    0.000    1.412    0.000    0.000 
#    0.000    0.000    0.000    0.000    0.000    0.000 
#
# Total GULP energy -189291.716709 kJ/mol
# GULP energy per Si atom -5567.403433 kJ/mol
# Density = 1.807001 g / cm^3
# Si number density = 18.111231 Si / 1000 Ang^3
#
#
#
# Elastic Constant Matrix: (Units=GPa)
#
#
# Indices 1 2 3 4 5 6 
#
# 1 151.0512 77.9903 55.3614 0.0000 0.0000 0.0000
# 2 77.9903 136.7968 44.1976 0.0000 0.0000 0.0000
# 3 55.3614 44.1976 52.8308 0.0000 0.0000 0.0000
# 4 0.0000 0.0000 0.0000 30.1506 0.0000 0.0000
# 5 0.0000 0.0000 0.0000 0.0000 91.3664 0.0000
# 6 0.0000 0.0000 0.0000 0.0000 0.0000 34.7592
#
#
#
# Elastic Compliance Matrix: (Units=1/GPa)
#
#
# Indices 1 2 3 4 5 6 
#
# 1 0.012050 -0.003824 -0.009428 0.000000 0.000000 0.000000
# 2 -0.003824 0.011231 -0.005389 0.000000 0.000000 0.000000
# 3 -0.009428 -0.005389 0.033317 0.000000 0.000000 0.000000
# 4 0.000000 0.000000 0.000000 0.033167 0.000000 0.000000
# 5 0.000000 0.000000 0.000000 0.000000 0.010945 0.000000
# 6 0.000000 0.000000 0.000000 0.000000 0.000000 0.028769
#
#
# Mechanical properties :
#
#
# Convention : Reuss Voigt Hill
#
# Bulk Modulus (GPa) = 51.77116 77.30858 64.53987
# Shear Modulus (GPa) = 28.86835 42.13054 35.49945
#
# Velocity S-wave (km/s) = 3.99676 4.82831 4.43208
# Velocity P-wave (km/s) = 7.06724 8.59428 7.86789
#
# Compressibility (1/GPa) = 0.01931577
#
# Stress axis : x y z
#
# Youngs Moduli (GPa) = 82.98664 89.03743 30.01498
#
# Poissons Ratio (x) = 0.34046 0.28299
# Poissons Ratio (y) = 0.31732 0.16175
# Poissons Ratio (z) = 0.78243 0.47982
#
# Static dielectric constant tensor:
#      x y z
#    x 1.585800 0.000000 0.000000 
#    y 0.000000 1.614450 0.000000 
#    z 0.000000 0.000000 1.651200 
# 
# From -- ./inp_files/63395.got.cif
#   From: 2010.05.17/outbox.cif.g08.bks.cpg/sg65_32_cif.got.tgz:63395.got - 2010.06.03 17:01:31.
