data_PCOD9492725
_publ_section_title
;
Structure prediction by ZEFSAII (Michael W. Deem and Ramdas Pophale) SiO2 
 PCOD9492725
Probable space group: C M M M
;
_chemical_formula_sum "Si O2"
_cell_formula_units_Z 64
_cell_length_a 16.276135
_cell_length_b 8.924835
_cell_length_c 21.939113
_cell_angle_alpha 90.000000
_cell_angle_beta 90.000000
_cell_angle_gamma 90.000000
_cell_volume 3186.915468
_symmetry_space_group_name_H-M "C M M M"
_symmetry_group_IT_number 65
_symmetry_cell_setting 'orthorhombic'
loop_
_space_group_symop_operation_xyz
x,y,z
-x,-y,z
x,-y,-z
-x,y,-z
-x,-y,-z
x,y,-z
-x,y,z
x,-y,z
1/2+x,1/2+y,z
1/2-x,1/2-y,z
1/2+x,1/2-y,-z
1/2-x,1/2+y,-z
1/2-x,1/2-y,-z
1/2+x,1/2+y,-z
1/2-x,1/2+y,z
1/2+x,1/2-y,z
loop_
_atom_site_type_symbol
_atom_site_label
_atom_site_fract_x
_atom_site_fract_y
_atom_site_fract_z
Si Si1 0.905363 0.326262 0.259878
Si Si2 0.000000 0.174883 0.926926
Si Si3 0.663331 0.820175 0.130125
Si Si4 0.161598 0.177478 0.376618
Si Si5 0.901678 0.671758 0.500000
O O1 0.889168 0.500000 0.277058
O O2 0.849636 0.286723 0.202168
O O3 0.892302 0.225291 0.318743
O O4 0.000000 0.317201 0.239359
O O5 0.083160 0.253043 0.902843
O O6 0.000000 0.000000 0.907891
O O7 0.000000 0.181619 0.000000
O O8 0.750000 0.750000 0.109666
O O9 0.664364 0.000000 0.122896
O O10 0.250000 0.250000 0.365326
O O11 0.128010 0.245746 0.439354
O O12 0.167166 0.000000 0.381603
O O13 0.871059 0.500000 0.500000
O O14 0.000000 0.669277 0.500000
#
# Coordination Sequence:
#
# PCOD9492725 Si02
#       5
#    16   8  16  16   8
#     4  10  21  40  64  93 128 165 209 261 319 381
#     4  11  25  45  69  99 135 176 223 274 327 389
#     4  11  23  42  68 100 135 177 222 273 330 391
#     4  12  25  40  60  88 121 160 206 258 314 377
#     4  11  24  43  64  85 115 157 200 253 318 381
#
# _framework density 20.082115000000002
#
# number of rings (size 3 to 8) (size 9 to 14) (size 15 to 20)
#    0.000    1.000    1.250    5.625    0.000   10.000 
#    0.000    0.000    0.000    0.000    0.000    0.000 
#    0.000    0.000    0.000    0.000    0.000    0.000 
#
# Total GULP energy -179005.475213 kJ/mol
# GULP energy per Si atom -5593.921100 kJ/mol
# Density = 2.003641 g / cm^3
# Si number density = 20.082115 Si / 1000 Ang^3
#
#
#
# Elastic Constant Matrix: (Units=GPa)
#
#
# Indices 1 2 3 4 5 6 
#
# 1 129.7264 54.4514 36.7398 0.0000 0.0000 0.0000
# 2 54.4514 132.8397 57.8634 0.0000 0.0000 0.0000
# 3 36.7398 57.8634 75.2901 0.0000 0.0000 0.0000
# 4 0.0000 0.0000 0.0000 28.1529 0.0000 0.0000
# 5 0.0000 0.0000 0.0000 0.0000 14.6726 0.0000
# 6 0.0000 0.0000 0.0000 0.0000 0.0000 37.5870
#
#
#
# Elastic Compliance Matrix: (Units=1/GPa)
#
#
# Indices 1 2 3 4 5 6 
#
# 1 0.009613 -0.002852 -0.002499 0.000000 0.000000 0.000000
# 2 -0.002852 0.012162 -0.007955 0.000000 0.000000 0.000000
# 3 -0.002499 -0.007955 0.020616 0.000000 0.000000 0.000000
# 4 0.000000 0.000000 0.000000 0.035520 0.000000 0.000000
# 5 0.000000 0.000000 0.000000 0.000000 0.068154 0.000000
# 6 0.000000 0.000000 0.000000 0.000000 0.000000 0.026605
#
#
# Mechanical properties :
#
#
# Convention : Reuss Voigt Hill
#
# Bulk Modulus (GPa) = 63.37980 70.66281 67.02131
# Shear Modulus (GPa) = 24.44469 28.66926 26.55698
#
# Velocity S-wave (km/s) = 3.49268 3.78246 3.64045
# Velocity P-wave (km/s) = 6.92054 7.37152 7.14959
#
# Compressibility (1/GPa) = 0.01577790
#
# Stress axis : x y z
#
# Youngs Moduli (GPa) = 104.02127 82.22216 48.50685
#
# Poissons Ratio (x) = 0.23449 0.12123
# Poissons Ratio (y) = 0.29666 0.38589
# Poissons Ratio (z) = 0.25998 0.65411
#
# Static dielectric constant tensor:
#      x y z
#    x 1.714520 0.000000 0.000000 
#    y 0.000000 1.684600 0.000000 
#    z 0.000000 0.000000 1.937300 
# 
# From -- ./inp_files/69540.got.cif
#   From: 2010.05.17/outbox.cif.g08.bks.cpg/sg65_35_cif.got.tgz:69540.got - 2010.06.03 17:01:31.
