data_PCOD9492902
_publ_section_title
;
Structure prediction by ZEFSAII (Michael W. Deem and Ramdas Pophale) SiO2 
 PCOD9492902
Probable space group: C M M M
;
_chemical_formula_sum "Si O2"
_cell_formula_units_Z 88
_cell_length_a 19.641253
_cell_length_b 12.133474
_cell_length_c 15.536521
_cell_angle_alpha 90.000000
_cell_angle_beta 90.000000
_cell_angle_gamma 90.000000
_cell_volume 3702.611367
_symmetry_space_group_name_H-M "C M M M"
_symmetry_group_IT_number 65
_symmetry_cell_setting 'orthorhombic'
loop_
_space_group_symop_operation_xyz
x,y,z
-x,-y,z
x,-y,-z
-x,y,-z
-x,-y,-z
x,y,-z
-x,y,z
x,-y,z
1/2+x,1/2+y,z
1/2-x,1/2-y,z
1/2+x,1/2-y,-z
1/2-x,1/2+y,-z
1/2-x,1/2-y,-z
1/2+x,1/2+y,-z
1/2-x,1/2+y,z
1/2+x,1/2-y,z
loop_
_atom_site_type_symbol
_atom_site_label
_atom_site_fract_x
_atom_site_fract_y
_atom_site_fract_z
Si Si1 0.774978 0.877111 0.395556
Si Si2 0.577357 0.370245 0.898951
Si Si3 0.575996 0.119572 0.677865
Si Si4 0.073974 0.153362 0.400221
Si Si5 0.281485 0.876768 0.000000
Si Si6 0.675625 0.200066 0.179027
O O1 0.773954 0.878548 0.500000
O O2 0.750000 0.750000 0.375603
O O3 0.853643 0.882837 0.363877
O O4 0.745518 0.000000 0.369578
O O5 0.500000 0.335268 0.882079
O O6 0.582004 0.500000 0.884859
O O7 0.629083 0.304354 0.842340
O O8 0.591654 0.349823 0.000000
O O9 0.500000 0.127213 0.719553
O O10 0.578145 0.215306 0.608507
O O11 0.636274 0.137530 0.745766
O O12 0.581269 0.000000 0.637854
O O13 0.072755 0.121789 0.500000
O O14 0.000000 0.121270 0.361855
O O15 0.250000 0.750000 0.000000
O O16 0.319825 0.871439 0.091335
O O17 0.245414 0.000000 0.000000
O O18 0.750000 0.250000 0.197100
#
# Coordination Sequence:
#
# PCOD9492902 Si02
#       6
#    16  16  16  16   8  16
#     4   9  18  33  55  86 123 160 196 241 302 368
#     4   9  18  34  57  84 116 159 208 254 301 355
#     4  10  22  40  59  81 118 163 202 250 313 379
#     4   9  19  37  61  87 113 150 206 264 314 367
#     4  10  22  38  59  88 121 159 201 247 295 352
#     4  11  22  37  58  88 122 157 199 250 309 366
#
# _framework density 23.767009000000002
#
# number of rings (size 3 to 8) (size 9 to 14) (size 15 to 20)
#    0.000    2.364    0.909    1.636    0.000    5.818 
#    0.000    6.364    0.000    3.273    0.000    0.000 
#    0.000    0.000    0.000    0.000    0.000    0.000 
#
# Total GULP energy -245314.237032 kJ/mol
# GULP energy per Si atom -5575.323569 kJ/mol
# Density = 2.371291 g / cm^3
# Si number density = 23.767009 Si / 1000 Ang^3
#
#
#
# Elastic Constant Matrix: (Units=GPa)
#
#
# Indices 1 2 3 4 5 6 
#
# 1 121.3452 63.2615 16.3539 0.0000 0.0000 0.0000
# 2 63.2615 190.6638 36.1323 0.0000 0.0000 0.0000
# 3 16.3539 36.1323 59.0968 0.0000 0.0000 0.0000
# 4 0.0000 0.0000 0.0000 37.0861 0.0000 0.0000
# 5 0.0000 0.0000 0.0000 0.0000 37.7559 0.0000
# 6 0.0000 0.0000 0.0000 0.0000 0.0000 21.9780
#
#
#
# Elastic Compliance Matrix: (Units=1/GPa)
#
#
# Indices 1 2 3 4 5 6 
#
# 1 0.010001 -0.003160 -0.000836 0.000000 0.000000 0.000000
# 2 -0.003160 0.006931 -0.003363 0.000000 0.000000 0.000000
# 3 -0.000836 -0.003363 0.019209 0.000000 0.000000 0.000000
# 4 0.000000 0.000000 0.000000 0.026964 0.000000 0.000000
# 5 0.000000 0.000000 0.000000 0.000000 0.026486 0.000000
# 6 0.000000 0.000000 0.000000 0.000000 0.000000 0.045500
#
#
# Mechanical properties :
#
#
# Convention : Reuss Voigt Hill
#
# Bulk Modulus (GPa) = 46.67799 66.95568 56.81684
# Shear Modulus (GPa) = 31.85757 36.38788 34.12273
#
# Velocity S-wave (km/s) = 3.66513 3.91708 3.79320
# Velocity P-wave (km/s) = 6.13135 6.97788 6.56827
#
# Compressibility (1/GPa) = 0.02142337
#
# Stress axis : x y z
#
# Youngs Moduli (GPa) = 99.99056 144.28771 52.05957
#
# Poissons Ratio (x) = 0.45594 0.04350
# Poissons Ratio (y) = 0.31596 0.17508
# Poissons Ratio (z) = 0.08355 0.48524
#
# Static dielectric constant tensor:
#      x y z
#    x 1.940200 0.000000 0.000000 
#    y 0.000000 1.917130 0.000000 
#    z 0.000000 0.000000 1.889580 
# 
# From -- ./inp_files/55662.got.cif
#   From: 2010.05.17/outbox.cif.g08.bks.cpg/sg65_28_cif.got.tgz:55662.got - 2010.06.03 17:01:31.
