data_PCOD9492403
_publ_section_title
;
Structure prediction by ZEFSAII (Michael W. Deem and Ramdas Pophale) SiO2 
 PCOD9492403
Probable space group: C M M M
;
_chemical_formula_sum "Si O2"
_cell_formula_units_Z 48
_cell_length_a 39.372977
_cell_length_b 8.690275
_cell_length_c 7.665281
_cell_angle_alpha 90.000000
_cell_angle_beta 90.000000
_cell_angle_gamma 90.000000
_cell_volume 2622.767860
_symmetry_space_group_name_H-M "C M M M"
_symmetry_group_IT_number 65
_symmetry_cell_setting 'orthorhombic'
loop_
_space_group_symop_operation_xyz
x,y,z
-x,-y,z
x,-y,-z
-x,y,-z
-x,-y,-z
x,y,-z
-x,y,z
x,-y,z
1/2+x,1/2+y,z
1/2-x,1/2-y,z
1/2+x,1/2-y,-z
1/2-x,1/2+y,-z
1/2-x,1/2-y,-z
1/2+x,1/2+y,-z
1/2-x,1/2+y,z
1/2+x,1/2-y,z
loop_
_atom_site_type_symbol
_atom_site_label
_atom_site_fract_x
_atom_site_fract_y
_atom_site_fract_z
Si Si1 0.335646 0.683946 0.203773
Si Si2 0.538748 0.812338 0.500000
Si Si3 0.590449 0.185403 0.798140
Si Si4 0.787781 0.683067 0.500000
O O1 0.334037 0.500000 0.219983
O O2 0.373490 0.740917 0.250791
O O3 0.308445 0.759024 0.331261
O O4 0.330036 0.725017 0.000000
O O5 0.500000 0.757483 0.500000
O O6 0.560439 0.766091 0.330692
O O7 0.537667 0.000000 0.500000
O O8 0.593941 0.000000 0.785794
O O9 0.583289 0.224156 0.000000
O O10 0.786453 0.500000 0.500000
O O11 0.750000 0.750000 0.500000
#
# Coordination Sequence:
#
# PCOD9492403 Si02
#       4
#    16   8  16   8
#     4  10  21  38  60  84 110 142 182 227 273 322
#     4   9  17  28  44  70 103 137 174 219 270 319
#     4   9  17  30  50  75 101 133 176 223 269 317
#     4  12  25  40  59  83 114 148 181 220 267 321
#
# _framework density 18.301276000000001
#
# number of rings (size 3 to 8) (size 9 to 14) (size 15 to 20)
#    0.000    2.167    0.000    3.500    0.000    4.667 
#    0.000    3.333    0.000    2.000    0.000    4.667 
#    0.000    0.000    0.000    0.000    0.000    0.000 
#
# Total GULP energy -134032.255177 kJ/mol
# GULP energy per Si atom -5584.677299 kJ/mol
# Density = 1.825962 g / cm^3
# Si number density = 18.301276 Si / 1000 Ang^3
#
#
#
# Elastic Constant Matrix: (Units=GPa)
#
#
# Indices 1 2 3 4 5 6 
#
# 1 208.5838 59.0939 125.3509 0.0000 0.0000 0.0000
# 2 59.0939 47.2355 49.0893 0.0000 0.0000 0.0000
# 3 125.3509 49.0893 119.9255 0.0000 0.0000 0.0000
# 4 0.0000 0.0000 0.0000 15.1983 0.0000 0.0000
# 5 0.0000 0.0000 0.0000 0.0000 -9.7313 0.0000
# 6 0.0000 0.0000 0.0000 0.0000 0.0000 25.4503
#
#
#
# Elastic Compliance Matrix: (Units=1/GPa)
#
#
# Indices 1 2 3 4 5 6 
#
# 1 0.013275 -0.003807 -0.012317 0.000000 0.000000 0.000000
# 2 -0.003807 0.037936 -0.011549 0.000000 0.000000 0.000000
# 3 -0.012317 -0.011549 0.025940 0.000000 0.000000 0.000000
# 4 0.000000 0.000000 0.000000 0.065797 0.000000 0.000000
# 5 0.000000 0.000000 0.000000 0.000000 -0.102762 0.000000
# 6 0.000000 0.000000 0.000000 0.000000 0.000000 0.039292
#
#
# Mechanical properties :
#
#
# Convention : Reuss Voigt Hill
#
# Bulk Modulus (GPa) = 45.86227 93.64589 69.75408
# Shear Modulus (GPa) = 35.18827 15.66417 25.42622
#
# Velocity S-wave (km/s) = 4.38964 2.92876 3.73139
# Velocity P-wave (km/s) = 7.12783 7.91941 7.53402
#
# Compressibility (1/GPa) = 0.02180441
#
# Stress axis : x y z
#
# Youngs Moduli (GPa) = 75.32976 26.36052 38.55008
#
# Poissons Ratio (x) = 0.10036 0.47483
# Poissons Ratio (y) = 0.28678 0.44521
# Poissons Ratio (z) = 0.92785 0.30444
#
# Static dielectric constant tensor:
#      x y z
#    x 1.588900 0.000000 0.000000 
#    y 0.000000 1.617470 0.000000 
#    z 0.000000 0.000000 1.635660 
# 
# From -- ./inp_files/3100.got.cif
#   From: 2010.05.17/outbox.cif.g08.bks.cpg/sg65_2_cif.got.tgz:3100.got - 2010.06.03 17:01:31.
