data_PCOD9492854
_publ_section_title
;
Structure prediction by ZEFSAII (Michael W. Deem and Ramdas Pophale) SiO2 
 PCOD9492854
Probable space group: C M M M
;
_chemical_formula_sum "Si O2"
_cell_formula_units_Z 88
_cell_length_a 14.381778
_cell_length_b 33.378160
_cell_length_c 10.640936
_cell_angle_alpha 90.000000
_cell_angle_beta 90.000000
_cell_angle_gamma 90.000000
_cell_volume 5108.046050
_symmetry_space_group_name_H-M "C M M M"
_symmetry_group_IT_number 65
_symmetry_cell_setting 'orthorhombic'
loop_
_space_group_symop_operation_xyz
x,y,z
-x,-y,z
x,-y,-z
-x,y,-z
-x,-y,-z
x,y,-z
-x,y,z
x,-y,z
1/2+x,1/2+y,z
1/2-x,1/2-y,z
1/2+x,1/2-y,-z
1/2-x,1/2+y,-z
1/2-x,1/2-y,-z
1/2+x,1/2+y,-z
1/2-x,1/2+y,z
1/2+x,1/2-y,z
loop_
_atom_site_type_symbol
_atom_site_label
_atom_site_fract_x
_atom_site_fract_y
_atom_site_fract_z
Si Si1 0.109529 0.184434 0.860673
Si Si2 0.605214 0.901921 0.652819
Si Si3 0.888888 0.122283 0.357482
Si Si4 0.250000 0.750000 0.220144
Si Si5 0.775302 0.045040 0.652327
Si Si6 0.392616 0.189753 0.348945
O O1 0.136380 0.154778 0.747243
O O2 0.178178 0.222015 0.854312
O O3 0.000000 0.195405 0.843357
O O4 0.117071 0.165813 0.000000
O O5 0.606327 0.902136 0.500000
O O6 0.500000 0.910719 0.692490
O O7 0.679139 0.934646 0.695578
O O8 0.628444 0.856222 0.690312
O O9 0.853336 0.131584 0.500000
O O10 0.852669 0.078414 0.320685
O O11 0.000000 0.121808 0.363450
O O12 0.317221 0.779270 0.299126
O O13 0.771708 0.042564 0.500000
O O14 0.790253 0.000000 0.699548
O O15 0.391564 0.190696 0.500000
O O16 0.500000 0.198775 0.310156
#
# Coordination Sequence:
#
# PCOD9492854 Si02
#       6
#    16  16  16   8  16  16
#     4  10  22  38  53  71  98 131 165 202 246 295
#     4   8  14  25  38  54  86 130 164 189 227 283
#     4   9  18  33  52  72  95 126 162 196 233 283
#     4  12  20  30  50  72  93 126 167 210 249 292
#     4   9  16  25  41  69  99 122 150 192 239 283
#     4   9  18  30  44  68 102 135 166 203 248 294
#
# _framework density 17.227723000000001
#
# number of rings (size 3 to 8) (size 9 to 14) (size 15 to 20)
#    0.000    2.727    0.000    3.273    0.000    3.636 
#    0.000    5.455    0.000    0.545    0.000    2.545 
#    0.000    0.000    0.000    6.545    0.000    3.455 
#
# Total GULP energy -245016.786950 kJ/mol
# GULP energy per Si atom -5568.563340 kJ/mol
# Density = 1.718851 g / cm^3
# Si number density = 17.227723 Si / 1000 Ang^3
#
#
#
# Elastic Constant Matrix: (Units=GPa)
#
#
# Indices 1 2 3 4 5 6 
#
# 1 64.8899 44.1189 30.7118 0.0000 0.0000 0.0000
# 2 44.1189 110.6584 46.9219 0.0000 0.0000 0.0000
# 3 30.7118 46.9219 54.8417 0.0000 0.0000 0.0000
# 4 0.0000 0.0000 0.0000 2.0927 0.0000 0.0000
# 5 0.0000 0.0000 0.0000 0.0000 6.1716 0.0000
# 6 0.0000 0.0000 0.0000 0.0000 0.0000 19.3705
#
#
#
# Elastic Compliance Matrix: (Units=1/GPa)
#
#
# Indices 1 2 3 4 5 6 
#
# 1 0.023161 -0.005861 -0.007956 0.000000 0.000000 0.000000
# 2 -0.005861 0.015665 -0.010121 0.000000 0.000000 0.000000
# 3 -0.007956 -0.010121 0.031349 0.000000 0.000000 0.000000
# 4 0.000000 0.000000 0.000000 0.477856 0.000000 0.000000
# 5 0.000000 0.000000 0.000000 0.000000 0.162032 0.000000
# 6 0.000000 0.000000 0.000000 0.000000 0.000000 0.051625
#
#
# Mechanical properties :
#
#
# Convention : Reuss Voigt Hill
#
# Bulk Modulus (GPa) = 44.84307 52.65503 48.74905
# Shear Modulus (GPa) = 6.11998 12.76945 9.44472
#
# Velocity S-wave (km/s) = 1.88683 2.72548 2.34397
# Velocity P-wave (km/s) = 5.55274 6.36670 5.97360
#
# Compressibility (1/GPa) = 0.02229999
#
# Stress axis : x y z
#
# Youngs Moduli (GPa) = 43.17624 63.83746 31.89908
#
# Poissons Ratio (x) = 0.37412 0.25379
# Poissons Ratio (y) = 0.25304 0.32284
# Poissons Ratio (z) = 0.34351 0.64608
#
# Static dielectric constant tensor:
#      x y z
#    x 1.613630 0.000000 0.000000 
#    y 0.000000 1.582470 0.000000 
#    z 0.000000 0.000000 1.569600 
# 
# From -- ./inp_files/25113.got.cif
#   From: 2010.05.17/outbox.cif.g08.bks.cpg/sg65_13_cif.got.tgz:25113.got - 2010.06.03 17:01:31.
