data_PCOD9492376
_publ_section_title
;
Structure prediction by ZEFSAII (Michael W. Deem and Ramdas Pophale) SiO2 
 PCOD9492376
Probable space group: C M M M
;
_chemical_formula_sum "Si O2"
_cell_formula_units_Z 72
_cell_length_a 14.594659
_cell_length_b 29.012393
_cell_length_c 9.138570
_cell_angle_alpha 90.000000
_cell_angle_beta 90.000000
_cell_angle_gamma 90.000000
_cell_volume 3869.507982
_symmetry_space_group_name_H-M "C M M M"
_symmetry_group_IT_number 65
_symmetry_cell_setting 'orthorhombic'
loop_
_space_group_symop_operation_xyz
x,y,z
-x,-y,z
x,-y,-z
-x,y,-z
-x,-y,-z
x,y,-z
-x,y,z
x,-y,z
1/2+x,1/2+y,z
1/2-x,1/2-y,z
1/2+x,1/2-y,-z
1/2-x,1/2+y,-z
1/2-x,1/2-y,-z
1/2+x,1/2+y,-z
1/2-x,1/2+y,z
1/2+x,1/2-y,z
loop_
_atom_site_type_symbol
_atom_site_label
_atom_site_fract_x
_atom_site_fract_y
_atom_site_fract_z
Si Si1 0.313304 0.055502 0.169950
Si Si2 0.000000 0.160579 0.175657
Si Si3 0.000000 0.443798 0.668148
Si Si4 0.180636 0.878937 0.327638
Si Si5 0.000000 0.270131 0.826061
Si Si6 0.185395 0.292243 0.327890
O O1 0.407736 0.070427 0.248648
O O2 0.227498 0.077022 0.253771
O O3 0.310222 0.000000 0.175550
O O4 0.313775 0.069591 0.000000
O O5 0.910463 0.137433 0.245679
O O6 0.000000 0.215311 0.210360
O O7 0.000000 0.155622 0.000000
O O8 0.000000 0.500000 0.666327
O O9 0.000000 0.427793 0.500000
O O10 0.162881 0.885862 0.500000
O O11 0.255748 0.838343 0.312744
O O12 0.091293 0.292003 0.759291
O O13 0.000000 0.274667 0.000000
O O14 0.165050 0.284929 0.500000
O O15 0.250000 0.250000 0.278244
#
# Coordination Sequence:
#
# PCOD9492376 Si02
#       6
#    16   8   8  16   8  16
#     4  10  21  38  60  87 121 158 194 240 298 352
#     4  11  23  39  59  85 117 154 194 240 295 354
#     4   9  17  32  57  86 115 150 192 235 282 343
#     4  11  23  39  62  88 115 153 199 245 291 345
#     4  11  23  36  58  88 119 155 194 241 290 343
#     4  10  21  38  59  83 114 152 192 236 285 342
#
# _framework density 18.607018
#
# number of rings (size 3 to 8) (size 9 to 14) (size 15 to 20)
#    0.000    1.667    2.222    2.333    0.000    6.667 
#    0.000    1.667    0.000    3.333    0.000    0.000 
#    0.000    0.000    0.000    0.000    0.000    0.000 
#
# Total GULP energy -201200.879003 kJ/mol
# GULP energy per Si atom -5588.913306 kJ/mol
# Density = 1.856467 g / cm^3
# Si number density = 18.607018 Si / 1000 Ang^3
#
#
#
# Elastic Constant Matrix: (Units=GPa)
#
#
# Indices 1 2 3 4 5 6 
#
# 1 141.4072 19.0356 79.6869 0.0000 0.0000 0.0000
# 2 19.0356 21.7371 34.1955 0.0000 0.0000 0.0000
# 3 79.6869 34.1955 125.6172 0.0000 0.0000 0.0000
# 4 0.0000 0.0000 0.0000 24.9780 0.0000 0.0000
# 5 0.0000 0.0000 0.0000 0.0000 19.4919 0.0000
# 6 0.0000 0.0000 0.0000 0.0000 0.0000 21.9519
#
#
#
# Elastic Compliance Matrix: (Units=1/GPa)
#
#
# Indices 1 2 3 4 5 6 
#
# 1 0.011076 0.002368 -0.007670 0.000000 0.000000 0.000000
# 2 0.002368 0.080967 -0.023543 0.000000 0.000000 0.000000
# 3 -0.007670 -0.023543 0.019235 0.000000 0.000000 0.000000
# 4 0.000000 0.000000 0.000000 0.040035 0.000000 0.000000
# 5 0.000000 0.000000 0.000000 0.000000 0.051303 0.000000
# 6 0.000000 0.000000 0.000000 0.000000 0.000000 0.045554
#
#
# Mechanical properties :
#
#
# Convention : Reuss Voigt Hill
#
# Bulk Modulus (GPa) = 18.66142 61.62194 40.14168
# Shear Modulus (GPa) = 15.44529 23.67394 19.55961
#
# Velocity S-wave (km/s) = 2.88423 3.57082 3.24573
# Velocity P-wave (km/s) = 4.59813 7.08452 5.97215
#
# Compressibility (1/GPa) = 0.05358650
#
# Stress axis : x y z
#
# Youngs Moduli (GPa) = 90.28891 12.35077 51.98782
#
# Poissons Ratio (x) = -0.02924 0.39877
# Poissons Ratio (y) = -0.21376 1.22393
# Poissons Ratio (z) = 0.69255 0.29077
#
# Static dielectric constant tensor:
#      x y z
#    x 1.600740 0.000000 0.000000 
#    y 0.000000 1.655380 0.000000 
#    z 0.000000 0.000000 1.623390 
# 
# From -- ./inp_files/7398.got.cif
#   From: 2010.05.17/outbox.cif.g08.bks.cpg/sg65_4_cif.got.tgz:7398.got - 2010.06.03 17:01:31.
