data_PCOD9492121
_publ_section_title
;
Structure prediction by ZEFSAII (Michael W. Deem and Ramdas Pophale) SiO2 
 PCOD9492121
Probable space group: C M M M
;
_chemical_formula_sum "Si O2"
_cell_formula_units_Z 88
_cell_length_a 24.173496
_cell_length_b 8.218388
_cell_length_c 23.566651
_cell_angle_alpha 90.000000
_cell_angle_beta 90.000000
_cell_angle_gamma 90.000000
_cell_volume 4681.919847
_symmetry_space_group_name_H-M "C M M M"
_symmetry_group_IT_number 65
_symmetry_cell_setting 'orthorhombic'
loop_
_space_group_symop_operation_xyz
x,y,z
-x,-y,z
x,-y,-z
-x,y,-z
-x,-y,-z
x,y,-z
-x,y,z
x,-y,z
1/2+x,1/2+y,z
1/2-x,1/2-y,z
1/2+x,1/2-y,-z
1/2-x,1/2+y,-z
1/2-x,1/2-y,-z
1/2+x,1/2+y,-z
1/2-x,1/2+y,z
1/2+x,1/2-y,z
loop_
_atom_site_type_symbol
_atom_site_label
_atom_site_fract_x
_atom_site_fract_y
_atom_site_fract_z
Si Si1 0.186572 0.696788 0.437341
Si Si2 0.500000 0.684410 0.685917
Si Si3 0.378124 0.805338 0.327295
Si Si4 0.103548 0.805342 0.877129
Si Si5 0.000000 0.685414 0.193030
Si Si6 0.564656 0.697615 0.000000
Si Si7 0.313331 0.804347 0.214343
O O1 0.166842 0.750819 0.500000
O O2 0.184490 0.500000 0.436765
O O3 0.250000 0.750000 0.431680
O O4 0.152792 0.758313 0.383239
O O5 0.500000 0.500000 0.666088
O O6 0.557315 0.766536 0.668690
O O7 0.500000 0.695048 0.754082
O O8 0.349910 0.745959 0.268593
O O9 0.371694 0.000000 0.326159
O O10 0.054022 0.717804 0.843833
O O11 0.096538 0.754528 0.942688
O O12 0.159117 0.761916 0.843360
O O13 0.095117 0.000000 0.874290
O O14 0.000000 0.500000 0.214712
O O15 0.562365 0.500000 0.000000
O O16 0.500000 0.752777 0.000000
O O17 0.250000 0.750000 0.220911
O O18 0.315667 0.000000 0.212801
#
# Coordination Sequence:
#
# PCOD9492121 Si02
#       7
#    16   8  16  16   8   8  16
#     4   9  18  34  57  84 113 150 192 232 277 328
#     4  12  24  36  56  84 112 149 190 228 279 340
#     4  10  21  37  57  82 116 149 183 233 284 333
#     4  11  21  37  60  85 114 148 188 231 279 333
#     4  12  22  35  55  83 118 150 181 227 283 334
#     4   9  18  34  57  86 115 144 183 231 278 326
#     4  11  23  38  57  82 113 148 188 234 284 334
#
# _framework density 18.795708999999999
#
# number of rings (size 3 to 8) (size 9 to 14) (size 15 to 20)
#    0.000    1.545    2.727    3.273    0.000    1.455 
#    0.000    3.182    0.000    2.727    0.000    0.000 
#    0.000    0.000    0.000    0.000    0.000    0.000 
#
# Total GULP energy -245634.200736 kJ/mol
# GULP energy per Si atom -5582.595471 kJ/mol
# Density = 1.875293 g / cm^3
# Si number density = 18.795709 Si / 1000 Ang^3
#
#
#
# Elastic Constant Matrix: (Units=GPa)
#
#
# Indices 1 2 3 4 5 6 
#
# 1 114.8781 0.1325 67.3437 0.0000 0.0000 0.0000
# 2 0.1325 26.0618 7.6350 0.0000 0.0000 0.0000
# 3 67.3437 7.6350 151.2526 0.0000 0.0000 0.0000
# 4 0.0000 0.0000 0.0000 13.6051 0.0000 0.0000
# 5 0.0000 0.0000 0.0000 0.0000 44.2109 0.0000
# 6 0.0000 0.0000 0.0000 0.0000 0.0000 27.9075
#
#
#
# Elastic Compliance Matrix: (Units=1/GPa)
#
#
# Indices 1 2 3 4 5 6 
#
# 1 0.011837 0.001506 -0.005346 0.000000 0.000000 0.000000
# 2 0.001506 0.039138 -0.002646 0.000000 0.000000 0.000000
# 3 -0.005346 -0.002646 0.009126 0.000000 0.000000 0.000000
# 4 0.000000 0.000000 0.000000 0.073502 0.000000 0.000000
# 5 0.000000 0.000000 0.000000 0.000000 0.022619 0.000000
# 6 0.000000 0.000000 0.000000 0.000000 0.000000 0.035833
#
#
# Mechanical properties :
#
#
# Convention : Reuss Voigt Hill
#
# Bulk Modulus (GPa) = 21.21899 49.15721 35.18810
# Shear Modulus (GPa) = 22.65142 31.61678 27.13410
#
# Velocity S-wave (km/s) = 3.47528 4.10582 3.80364
# Velocity P-wave (km/s) = 5.23614 6.97763 6.16865
#
# Compressibility (1/GPa) = 0.04712759
#
# Stress axis : x y z
#
# Youngs Moduli (GPa) = 84.47834 25.55069 109.58301
#
# Poissons Ratio (x) = -0.03848 0.58588
# Poissons Ratio (y) = -0.12723 0.28998
# Poissons Ratio (z) = 0.45166 0.06761
#
# Static dielectric constant tensor:
#      x y z
#    x 1.636180 0.000000 0.000000 
#    y 0.000000 1.662560 0.000000 
#    z 0.000000 0.000000 1.667260 
# 
# From -- ./inp_files/65215.got.cif
#   From: 2010.05.17/outbox.cif.g08.bks.cpg/sg65_33_cif.got.tgz:65215.got - 2010.06.03 17:01:31.
