data_PCOD9492092
_publ_section_title
;
Structure prediction by ZEFSAII (Michael W. Deem and Ramdas Pophale) SiO2 
 PCOD9492092
Probable space group: C M M M
;
_chemical_formula_sum "Si O2"
_cell_formula_units_Z 88
_cell_length_a 8.973365
_cell_length_b 18.806371
_cell_length_c 29.051098
_cell_angle_alpha 90.000000
_cell_angle_beta 90.000000
_cell_angle_gamma 90.000000
_cell_volume 4902.559624
_symmetry_space_group_name_H-M "C M M M"
_symmetry_group_IT_number 65
_symmetry_cell_setting 'orthorhombic'
loop_
_space_group_symop_operation_xyz
x,y,z
-x,-y,z
x,-y,-z
-x,y,-z
-x,-y,-z
x,y,-z
-x,y,z
x,-y,z
1/2+x,1/2+y,z
1/2-x,1/2-y,z
1/2+x,1/2-y,-z
1/2-x,1/2+y,-z
1/2-x,1/2-y,-z
1/2+x,1/2+y,-z
1/2-x,1/2+y,z
1/2+x,1/2-y,z
loop_
_atom_site_type_symbol
_atom_site_label
_atom_site_fract_x
_atom_site_fract_y
_atom_site_fract_z
Si Si1 0.677974 0.672135 0.447511
Si Si2 0.171840 0.913552 0.000000
Si Si3 0.678848 0.082779 0.094976
Si Si4 0.325698 0.914744 0.634077
Si Si5 0.322723 0.584736 0.268686
Si Si6 0.820595 0.672011 0.814473
O O1 0.708056 0.647453 0.500000
O O2 0.500000 0.676651 0.441703
O O3 0.750000 0.750000 0.442811
O O4 0.748650 0.621895 0.409257
O O5 0.250499 0.891077 0.952791
O O6 0.000000 0.892195 0.000000
O O7 0.179388 0.000000 0.000000
O O8 0.500000 0.084000 0.090399
O O9 0.720407 0.130004 0.138756
O O10 0.723159 0.000000 0.102450
O O11 0.500000 0.895344 0.636474
O O12 0.243974 0.895043 0.681626
O O13 0.315211 0.000000 0.629561
O O14 0.500000 0.597162 0.267779
O O15 0.296943 0.500000 0.262327
O O16 0.242281 0.628041 0.228631
O O17 0.750000 0.750000 0.814810
O O18 0.000000 0.676029 0.811865
#
# Coordination Sequence:
#
# PCOD9492092 Si02
#       6
#    16   8  16  16  16  16
#     4  10  21  37  57  81 111 147 186 227 271 322
#     4   9  17  29  50  81 110 135 171 221 268 313
#     4   9  18  34  56  79 105 140 179 219 266 321
#     4  10  21  37  58  84 113 144 180 224 272 323
#     4  10  21  38  60  84 110 141 179 224 273 325
#     4  11  23  38  56  80 111 145 183 225 271 324
#
# _framework density 17.949805999999999
#
# number of rings (size 3 to 8) (size 9 to 14) (size 15 to 20)
#    0.000    2.091    0.000    3.000    0.000    7.636 
#    0.000    7.727    0.000    0.000    0.000    0.000 
#    0.000    0.000    0.000    0.000    0.000    0.000 
#
# Total GULP energy -245703.762828 kJ/mol
# GULP energy per Si atom -5584.176428 kJ/mol
# Density = 1.790895 g / cm^3
# Si number density = 17.949806 Si / 1000 Ang^3
#
#
#
# Elastic Constant Matrix: (Units=GPa)
#
#
# Indices 1 2 3 4 5 6 
#
# 1 95.2256 57.6691 94.7766 0.0000 0.0000 0.0000
# 2 57.6691 62.0307 85.4001 0.0000 0.0000 0.0000
# 3 94.7766 85.4001 202.5560 0.0000 0.0000 0.0000
# 4 0.0000 0.0000 0.0000 -42.7478 0.0000 0.0000
# 5 0.0000 0.0000 0.0000 0.0000 32.8682 0.0000
# 6 0.0000 0.0000 0.0000 0.0000 0.0000 26.3411
#
#
#
# Elastic Compliance Matrix: (Units=1/GPa)
#
#
# Indices 1 2 3 4 5 6 
#
# 1 0.025755 -0.017526 -0.004662 0.000000 0.000000 0.000000
# 2 -0.017526 0.050351 -0.013028 0.000000 0.000000 0.000000
# 3 -0.004662 -0.013028 0.012611 0.000000 0.000000 0.000000
# 4 0.000000 0.000000 0.000000 -0.023393 0.000000 0.000000
# 5 0.000000 0.000000 0.000000 0.000000 0.030425 0.000000
# 6 0.000000 0.000000 0.000000 0.000000 0.000000 0.037964
#
#
# Mechanical properties :
#
#
# Convention : Reuss Voigt Hill
#
# Bulk Modulus (GPa) = 54.68897 92.83375 73.76136
# Shear Modulus (GPa) = 23.78245 11.42339 17.60292
#
# Velocity S-wave (km/s) = 3.64392 2.52545 3.13497
# Velocity P-wave (km/s) = 6.94537 7.76754 7.36793
#
# Compressibility (1/GPa) = 0.01828522
#
# Stress axis : x y z
#
# Youngs Moduli (GPa) = 38.82753 19.86046 79.29682
#
# Poissons Ratio (x) = 0.34808 0.36964
# Poissons Ratio (y) = 0.68050 1.03309
# Poissons Ratio (z) = 0.18099 0.25874
#
# Static dielectric constant tensor:
#      x y z
#    x 1.597550 0.000000 0.000000 
#    y 0.000000 1.592380 0.000000 
#    z 0.000000 0.000000 1.588960 
# 
# From -- ./inp_files/67508.got.cif
#   From: 2010.05.17/outbox.cif.g08.bks.cpg/sg65_34_cif.got.tgz:67508.got - 2010.06.03 17:01:31.
