data_PCOD9492191
_publ_section_title
;
Structure prediction by ZEFSAII (Michael W. Deem and Ramdas Pophale) SiO2 
 PCOD9492191
Probable space group: C M M M
;
_chemical_formula_sum "Si O2"
_cell_formula_units_Z 88
_cell_length_a 22.194837
_cell_length_b 8.356000
_cell_length_c 23.608247
_cell_angle_alpha 90.000000
_cell_angle_beta 90.000000
_cell_angle_gamma 90.000000
_cell_volume 4378.386857
_symmetry_space_group_name_H-M "C M M M"
_symmetry_group_IT_number 65
_symmetry_cell_setting 'orthorhombic'
loop_
_space_group_symop_operation_xyz
x,y,z
-x,-y,z
x,-y,-z
-x,y,-z
-x,-y,-z
x,y,-z
-x,y,z
x,-y,z
1/2+x,1/2+y,z
1/2-x,1/2-y,z
1/2+x,1/2-y,-z
1/2-x,1/2+y,-z
1/2-x,1/2-y,-z
1/2+x,1/2+y,-z
1/2-x,1/2+y,z
1/2+x,1/2-y,z
loop_
_atom_site_type_symbol
_atom_site_label
_atom_site_fract_x
_atom_site_fract_y
_atom_site_fract_z
Si Si1 0.565663 0.000000 0.432014
Si Si2 0.434144 0.307603 0.737371
Si Si3 0.432419 0.191709 0.134046
Si Si4 0.859774 0.819743 0.565307
Si Si5 0.687682 0.683118 0.684679
Si Si6 0.815570 0.808257 0.934043
O O1 0.598487 0.831920 0.421311
O O2 0.500000 0.000000 0.405658
O O3 0.560447 0.000000 0.500000
O O4 0.500000 0.246007 0.718366
O O5 0.435440 0.500000 0.729130
O O6 0.428418 0.269255 0.803736
O O7 0.374827 0.241768 0.706268
O O8 0.500000 0.233544 0.111190
O O9 0.374754 0.245647 0.098016
O O10 0.430514 0.000000 0.139781
O O11 0.838172 0.803770 0.500000
O O12 0.812527 0.814737 0.616252
O O13 0.887956 0.000000 0.569118
O O14 0.685787 0.500000 0.702940
O O15 0.750000 0.750000 0.706786
O O16 0.750000 0.750000 0.912093
O O17 0.815957 0.000000 0.931676
O O18 0.819255 0.756810 0.000000
#
# Coordination Sequence:
#
# PCOD9492191 Si02
#       6
#     8  16  16  16  16  16
#     4   9  18  32  52  80 110 144 185 225 274 336
#     4   9  19  38  60  80 108 148 193 239 288 345
#     4  10  21  37  58  85 116 151 194 240 286 340
#     4   9  19  36  55  79 114 151 189 234 287 348
#     4  10  22  37  57  84 112 145 187 236 289 343
#     4  10  21  37  58  85 118 156 196 237 285 340
#
# _framework density 20.098727
#
# number of rings (size 3 to 8) (size 9 to 14) (size 15 to 20)
#    0.000    2.455    0.000    1.091    1.273    5.455 
#    0.000    7.273    0.000    0.000    0.000    0.000 
#    0.000    0.000    0.000    0.000    0.000    0.000 
#
# Total GULP energy -245032.207079 kJ/mol
# GULP energy per Si atom -5568.913797 kJ/mol
# Density = 2.005298 g / cm^3
# Si number density = 20.098727 Si / 1000 Ang^3
#
#
#
# Elastic Constant Matrix: (Units=GPa)
#
#
# Indices 1 2 3 4 5 6 
#
# 1 191.2333 39.3917 57.5055 0.0000 0.0000 0.0000
# 2 39.3917 56.6605 1.6420 0.0000 0.0000 0.0000
# 3 57.5055 1.6420 49.3711 0.0000 0.0000 0.0000
# 4 0.0000 0.0000 0.0000 14.4774 0.0000 0.0000
# 5 0.0000 0.0000 0.0000 0.0000-3302.8315 0.0000
# 6 0.0000 0.0000 0.0000 0.0000 0.0000 41.3366
#
#
#
# Elastic Compliance Matrix: (Units=1/GPa)
#
#
# Indices 1 2 3 4 5 6 
#
# 1 0.010057 -0.006658 -0.011492 0.000000 0.000000 0.000000
# 2 -0.006658 0.022075 0.007021 0.000000 0.000000 0.000000
# 3 -0.011492 0.007021 0.033407 0.000000 0.000000 0.000000
# 4 0.000000 0.000000 0.000000 0.069073 0.000000 0.000000
# 5 0.000000 0.000000 0.000000 0.000000 -0.000303 0.000000
# 6 0.000000 0.000000 0.000000 0.000000 0.000000 0.024192
#
#
# Mechanical properties :
#
#
# Convention : Reuss Voigt Hill
#
# Bulk Modulus (GPa) = 23.10560 54.92705 39.01633
# Shear Modulus (GPa) = 25.61676 -636.15513 -305.26919
#
# Velocity S-wave (km/s) = 3.57395 -17.81017 -12.33753
# Velocity P-wave (km/s) = 5.34339 19.88840 13.54615
#
# Compressibility (1/GPa) = 0.04327956
#
# Stress axis : x y z
#
# Youngs Moduli (GPa) = 99.43799 45.30093 29.93414
#
# Poissons Ratio (x) = 0.30163 0.34400
# Poissons Ratio (y) = 0.66211 -0.21018
# Poissons Ratio (z) = 1.14274 -0.31807
#
# Static dielectric constant tensor:
#      x y z
#    x 1.749760 0.000000 0.000000 
#    y 0.000000 1.956430 0.000000 
#    z 0.000000 0.000000 1.701530 
# 
# From -- ./inp_files/70966.got.cif
#   From: 2010.05.17/outbox.cif.g08.bks.cpg/sg65_36_cif.got.tgz:70966.got - 2010.06.03 17:01:31.
