data_PCOD9492631
_publ_section_title
;
Structure prediction by ZEFSAII (Michael W. Deem and Ramdas Pophale) SiO2 
 PCOD9492631
Probable space group: C M M M
;
_chemical_formula_sum "Si O2"
_cell_formula_units_Z 64
_cell_length_a 8.167422
_cell_length_b 26.494348
_cell_length_c 14.375088
_cell_angle_alpha 90.000000
_cell_angle_beta 90.000000
_cell_angle_gamma 90.000000
_cell_volume 3110.632778
_symmetry_space_group_name_H-M "C M M M"
_symmetry_group_IT_number 65
_symmetry_cell_setting 'orthorhombic'
loop_
_space_group_symop_operation_xyz
x,y,z
-x,-y,z
x,-y,-z
-x,y,-z
-x,-y,-z
x,y,-z
-x,y,z
x,-y,z
1/2+x,1/2+y,z
1/2-x,1/2-y,z
1/2+x,1/2-y,-z
1/2-x,1/2+y,-z
1/2-x,1/2-y,-z
1/2+x,1/2+y,-z
1/2-x,1/2+y,z
1/2+x,1/2-y,z
loop_
_atom_site_type_symbol
_atom_site_label
_atom_site_fract_x
_atom_site_fract_y
_atom_site_fract_z
Si Si1 0.695003 0.391005 0.608596
Si Si2 0.817434 0.122181 0.888938
Si Si3 0.500000 0.942860 0.886883
Si Si4 0.695431 0.000000 0.390248
Si Si5 0.809334 0.305200 0.254369
O O1 0.745390 0.388877 0.500000
O O2 0.500000 0.384185 0.613656
O O3 0.737971 0.446830 0.646314
O O4 0.778989 0.346780 0.666184
O O5 0.665749 0.086449 0.860707
O O6 0.790282 0.174059 0.834209
O O7 0.000000 0.102194 0.866993
O O8 0.808174 0.128990 0.000000
O O9 0.500000 0.000000 0.851138
O O10 0.500000 0.944871 0.000000
O O11 0.500000 0.000000 0.383950
O O12 0.743250 0.000000 0.500000
O O13 0.750000 0.250000 0.283102
O O14 0.000000 0.303372 0.230807
#
# Coordination Sequence:
#
# PCOD9492631 Si02
#       5
#    16  16   8   8  16
#     4  10  21  39  62  89 122 159 201 249 303 364
#     4  10  21  40  64  91 126 164 207 255 306 364
#     4   9  18  36  62  92 127 165 205 250 304 365
#     4   9  17  33  59  89 120 155 196 245 301 361
#     4  12  25  42  63  88 121 158 204 258 309 367
#
# _framework density 20.574591999999999
#
# number of rings (size 3 to 8) (size 9 to 14) (size 15 to 20)
#    0.000    1.750    1.250    3.375    0.000    4.500 
#    2.250    2.500    0.000    0.000    0.000    0.000 
#    0.000    0.000    0.000    0.000    0.000    0.000 
#
# Total GULP energy -178824.233529 kJ/mol
# GULP energy per Si atom -5588.257298 kJ/mol
# Density = 2.052776 g / cm^3
# Si number density = 20.574592 Si / 1000 Ang^3
#
#
#
# Elastic Constant Matrix: (Units=GPa)
#
#
# Indices 1 2 3 4 5 6 
#
# 1 122.6873 52.1065 22.8173 0.0000 0.0000 0.0000
# 2 52.1065 149.1466 33.7760 0.0000 0.0000 0.0000
# 3 22.8173 33.7760 65.6418 0.0000 0.0000 0.0000
# 4 0.0000 0.0000 0.0000 16.0138 0.0000 0.0000
# 5 0.0000 0.0000 0.0000 0.0000 23.4022 0.0000
# 6 0.0000 0.0000 0.0000 0.0000 0.0000 23.2587
#
#
#
# Elastic Compliance Matrix: (Units=1/GPa)
#
#
# Indices 1 2 3 4 5 6 
#
# 1 0.009767 -0.002992 -0.001855 0.000000 0.000000 0.000000
# 2 -0.002992 0.008506 -0.003337 0.000000 0.000000 0.000000
# 3 -0.001855 -0.003337 0.017596 0.000000 0.000000 0.000000
# 4 0.000000 0.000000 0.000000 0.062446 0.000000 0.000000
# 5 0.000000 0.000000 0.000000 0.000000 0.042731 0.000000
# 6 0.000000 0.000000 0.000000 0.000000 0.000000 0.042995
#
#
# Mechanical properties :
#
#
# Convention : Reuss Voigt Hill
#
# Bulk Modulus (GPa) = 51.28101 61.65283 56.46692
# Shear Modulus (GPa) = 24.16533 27.78666 25.97600
#
# Velocity S-wave (km/s) = 3.43085 3.67895 3.55706
# Velocity P-wave (km/s) = 6.37753 6.93374 6.66144
#
# Compressibility (1/GPa) = 0.01950040
#
# Stress axis : x y z
#
# Youngs Moduli (GPa) = 102.39011 117.56828 56.83114
#
# Poissons Ratio (x) = 0.35175 0.10544
# Poissons Ratio (y) = 0.30634 0.18962
# Poissons Ratio (z) = 0.18998 0.39228
#
# Static dielectric constant tensor:
#      x y z
#    x 1.731050 0.000000 0.000000 
#    y 0.000000 1.711770 0.000000 
#    z 0.000000 0.000000 1.753570 
# 
# From -- ./inp_files/36031.got.cif
#   From: 2010.05.17/outbox.cif.g08.bks.cpg/sg65_19_cif.got.tgz:36031.got - 2010.06.03 17:01:31.
