data_PCOD9492838
_publ_section_title
;
Structure prediction by ZEFSAII (Michael W. Deem and Ramdas Pophale) SiO2 
 PCOD9492838
Probable space group: C M M M
;
_chemical_formula_sum "Si O2"
_cell_formula_units_Z 72
_cell_length_a 27.026909
_cell_length_b 9.626453
_cell_length_c 15.650058
_cell_angle_alpha 90.000000
_cell_angle_beta 90.000000
_cell_angle_gamma 90.000000
_cell_volume 4071.726753
_symmetry_space_group_name_H-M "C M M M"
_symmetry_group_IT_number 65
_symmetry_cell_setting 'orthorhombic'
loop_
_space_group_symop_operation_xyz
x,y,z
-x,-y,z
x,-y,-z
-x,y,-z
-x,-y,-z
x,y,-z
-x,y,z
x,-y,z
1/2+x,1/2+y,z
1/2-x,1/2-y,z
1/2+x,1/2-y,-z
1/2-x,1/2+y,-z
1/2-x,1/2-y,-z
1/2+x,1/2+y,-z
1/2-x,1/2+y,z
1/2+x,1/2-y,z
loop_
_atom_site_type_symbol
_atom_site_label
_atom_site_fract_x
_atom_site_fract_y
_atom_site_fract_z
Si Si1 0.441006 0.662929 0.500000
Si Si2 0.326872 0.000000 0.100443
Si Si3 0.634319 0.719710 0.827097
Si Si4 0.118484 0.333272 0.361418
Si Si5 0.797032 0.343816 0.500000
Si Si6 0.441974 0.500000 0.102689
Si Si7 0.788003 0.000000 0.894850
O O1 0.423980 0.500000 0.500000
O O2 0.500000 0.661575 0.500000
O O3 0.421310 0.748934 0.582009
O O4 0.356832 0.866194 0.128838
O O5 0.269594 0.000000 0.131526
O O6 0.322062 0.000000 0.000000
O O7 0.627351 0.755928 0.727760
O O8 0.587416 0.632731 0.860646
O O9 0.682353 0.629761 0.854884
O O10 0.107148 0.500000 0.351787
O O11 0.168108 0.324398 0.417995
O O12 0.778870 0.500000 0.500000
O O13 0.750000 0.250000 0.500000
O O14 0.500000 0.500000 0.124785
O O15 0.437289 0.500000 0.000000
O O16 0.792191 0.000000 0.000000
#
# Coordination Sequence:
#
# PCOD9492838 Si02
#       7
#     8   8  16  16   8   8   8
#     4  10  23  41  67  93 114 146 190 244 304 361
#     4  11  21  36  60  90 124 160 204 253 299 354
#     4  11  21  38  61  89 121 160 201 250 299 353
#     4  10  22  41  58  85 123 154 192 240 293 353
#     4   9  20  38  56  78 113 156 190 224 277 340
#     4  10  23  43  63  84 117 162 204 249 308 365
#     4  10  22  37  57  87 124 167 207 248 302 352
#
# _framework density 17.682915999999999
#
# number of rings (size 3 to 8) (size 9 to 14) (size 15 to 20)
#    0.000    1.778    1.111    4.333    3.111    7.111 
#    0.000    0.556    0.000    2.000    0.000    0.000 
#    0.000    0.000    0.000    0.000    0.000    0.000 
#
# Total GULP energy -200783.359351 kJ/mol
# GULP energy per Si atom -5577.315538 kJ/mol
# Density = 1.764267 g / cm^3
# Si number density = 17.682916 Si / 1000 Ang^3
#
#
#
# Elastic Constant Matrix: (Units=GPa)
#
#
# Indices 1 2 3 4 5 6 
#
# 1 125.2104 86.2009 52.7188 0.0000 0.0000 0.0000
# 2 86.2009 165.9283 65.1642 0.0000 0.0000 0.0000
# 3 52.7188 65.1642 122.3972 0.0000 0.0000 0.0000
# 4 0.0000 0.0000 0.0000 34.8154 0.0000 0.0000
# 5 0.0000 0.0000 0.0000 0.0000 -7.6348 0.0000
# 6 0.0000 0.0000 0.0000 0.0000 0.0000 23.0430
#
#
#
# Elastic Compliance Matrix: (Units=1/GPa)
#
#
# Indices 1 2 3 4 5 6 
#
# 1 0.013029 -0.005771 -0.002539 0.000000 0.000000 0.000000
# 2 -0.005771 0.010177 -0.002932 0.000000 0.000000 0.000000
# 3 -0.002539 -0.002932 0.010825 0.000000 0.000000 0.000000
# 4 0.000000 0.000000 0.000000 0.028723 0.000000 0.000000
# 5 0.000000 0.000000 0.000000 0.000000 -0.130980 0.000000
# 6 0.000000 0.000000 0.000000 0.000000 0.000000 0.043397
#
#
# Mechanical properties :
#
#
# Convention : Reuss Voigt Hill
#
# Bulk Modulus (GPa) = 86.61774 91.30041 88.95908
# Shear Modulus (GPa) = 3324.19986 24.00820 1674.10403
#
# Velocity S-wave (km/s) = 43.40478 3.68870 30.80244
# Velocity P-wave (km/s) = 50.60688 8.35979 36.26943
#
# Compressibility (1/GPa) = 0.01154498
#
# Stress axis : x y z
#
# Youngs Moduli (GPa) = 76.75186 98.26519 92.38045
#
# Poissons Ratio (x) = 0.56714 0.23456
# Poissons Ratio (y) = 0.44297 0.27087
# Poissons Ratio (z) = 0.19488 0.28812
#
# Static dielectric constant tensor:
#      x y z
#    x 1.594730 0.000000 0.000000 
#    y 0.000000 1.628320 0.000000 
#    z 0.000000 0.000000 1.607200 
# 
# From -- ./inp_files/46603.got.cif
#   From: 2010.05.17/outbox.cif.g08.bks.cpg/sg65_24_cif.got.tgz:46603.got - 2010.06.03 17:01:31.
