data_PCOD9492189
_publ_section_title
;
Structure prediction by ZEFSAII (Michael W. Deem and Ramdas Pophale) SiO2 
 PCOD9492189
Probable space group: C M M M
;
_chemical_formula_sum "Si O2"
_cell_formula_units_Z 96
_cell_length_a 19.576069
_cell_length_b 27.377789
_cell_length_c 9.162257
_cell_angle_alpha 90.000000
_cell_angle_beta 90.000000
_cell_angle_gamma 90.000000
_cell_volume 4910.506935
_symmetry_space_group_name_H-M "C M M M"
_symmetry_group_IT_number 65
_symmetry_cell_setting 'orthorhombic'
loop_
_space_group_symop_operation_xyz
x,y,z
-x,-y,z
x,-y,-z
-x,y,-z
-x,-y,-z
x,y,-z
-x,y,z
x,-y,z
1/2+x,1/2+y,z
1/2-x,1/2-y,z
1/2+x,1/2-y,-z
1/2-x,1/2+y,-z
1/2-x,1/2-y,-z
1/2+x,1/2+y,-z
1/2-x,1/2+y,z
1/2+x,1/2-y,z
loop_
_atom_site_type_symbol
_atom_site_label
_atom_site_fract_x
_atom_site_fract_y
_atom_site_fract_z
Si Si1 0.580776 0.745815 0.827062
Si Si2 0.701408 0.796100 0.673608
Si Si3 0.206154 0.605187 0.171472
Si Si4 0.582084 0.644533 0.332789
Si Si5 0.077697 0.558483 0.326826
Si Si6 0.846918 0.944557 0.172694
O O1 0.500000 0.754187 0.802668
O O2 0.627980 0.784080 0.743378
O O3 0.598028 0.692379 0.762525
O O4 0.593809 0.747207 0.000000
O O5 0.696428 0.801550 0.500000
O O6 0.750000 0.750000 0.705713
O O7 0.727896 0.845582 0.746001
O O8 0.135687 0.585924 0.237981
O O9 0.266266 0.565737 0.190501
O O10 0.198791 0.615199 0.000000
O O11 0.605295 0.652044 0.500000
O O12 0.500000 0.639769 0.333319
O O13 0.613887 0.596185 0.263972
O O14 0.086213 0.567797 0.500000
O O15 0.083904 0.500000 0.305293
O O16 0.000000 0.572453 0.286390
O O17 0.863591 0.000000 0.215214
O O18 0.862433 0.938583 0.000000
#
# Coordination Sequence:
#
# PCOD9492189 Si02
#       6
#    16  16  16  16  16  16
#     4  10  21  38  61  87 114 147 187 229 277 333
#     4  11  24  40  59  84 113 147 188 232 280 334
#     4  11  23  38  58  84 114 148 187 232 281 333
#     4  10  21  37  58  85 116 149 186 229 278 332
#     4   9  19  37  60  85 114 149 188 230 278 331
#     4  10  22  39  58  82 113 149 189 233 281 332
#
# _framework density 19.549916
#
# number of rings (size 3 to 8) (size 9 to 14) (size 15 to 20)
#    0.000    1.833    0.000    4.000    0.000   10.000 
#    0.000    2.500    0.000    0.000    0.000    0.000 
#    0.000    0.000    0.000    0.000    0.000    0.000 
#
# Total GULP energy -268339.737282 kJ/mol
# GULP energy per Si atom -5590.411193 kJ/mol
# Density = 1.950542 g / cm^3
# Si number density = 19.549916 Si / 1000 Ang^3
#
#
#
# Elastic Constant Matrix: (Units=GPa)
#
#
# Indices 1 2 3 4 5 6 
#
# 1 32.2302 -3.1907 22.2894 0.0000 0.0000 0.0000
# 2 -3.1907 37.0393 11.2915 0.0000 0.0000 0.0000
# 3 22.2894 11.2915 54.1265 0.0000 0.0000 0.0000
# 4 0.0000 0.0000 0.0000 30.4216 0.0000 0.0000
# 5 0.0000 0.0000 0.0000 0.0000 29.3974 0.0000
# 6 0.0000 0.0000 0.0000 0.0000 0.0000 35.2917
#
#
#
# Elastic Compliance Matrix: (Units=1/GPa)
#
#
# Indices 1 2 3 4 5 6 
#
# 1 0.046995 0.010624 -0.021569 0.000000 0.000000 0.000000
# 2 0.010624 0.031234 -0.010891 0.000000 0.000000 0.000000
# 3 -0.021569 -0.010891 0.029629 0.000000 0.000000 0.000000
# 4 0.000000 0.000000 0.000000 0.032871 0.000000 0.000000
# 5 0.000000 0.000000 0.000000 0.000000 0.034017 0.000000
# 6 0.000000 0.000000 0.000000 0.000000 0.000000 0.028335
#
#
# Mechanical properties :
#
#
# Convention : Reuss Voigt Hill
#
# Bulk Modulus (GPa) = 15.57969 20.46405 18.02187
# Shear Modulus (GPa) = 18.64644 25.22253 21.93449
#
# Velocity S-wave (km/s) = 3.09169 3.59578 3.35322
# Velocity P-wave (km/s) = 4.55316 5.26591 4.92245
#
# Compressibility (1/GPa) = 0.06418614
#
# Stress axis : x y z
#
# Youngs Moduli (GPa) = 21.27893 32.01684 33.75046
#
# Poissons Ratio (x) = -0.34014 0.72796
# Poissons Ratio (y) = -0.22606 0.36756
# Poissons Ratio (z) = 0.45896 0.34868
#
# Static dielectric constant tensor:
#      x y z
#    x 1.686010 0.000000 0.000000 
#    y 0.000000 1.656710 0.000000 
#    z 0.000000 0.000000 1.650820 
# 
# From -- ./inp_files/12322.got.cif
#   From: 2010.05.17/outbox.cif.g08.bks.cpg/sg65_7_cif.got.tgz:12322.got - 2010.06.03 17:01:31.
