data_PCOD9492305
_publ_section_title
;
Structure prediction by ZEFSAII (Michael W. Deem and Ramdas Pophale) SiO2 
 PCOD9492305
Probable space group: C M M M
;
_chemical_formula_sum "Si O2"
_cell_formula_units_Z 88
_cell_length_a 30.305907
_cell_length_b 7.937807
_cell_length_c 21.148624
_cell_angle_alpha 90.000000
_cell_angle_beta 90.000000
_cell_angle_gamma 90.000000
_cell_volume 5087.564607
_symmetry_space_group_name_H-M "C M M M"
_symmetry_group_IT_number 65
_symmetry_cell_setting 'orthorhombic'
loop_
_space_group_symop_operation_xyz
x,y,z
-x,-y,z
x,-y,-z
-x,y,-z
-x,-y,-z
x,y,-z
-x,y,z
x,-y,z
1/2+x,1/2+y,z
1/2-x,1/2-y,z
1/2+x,1/2-y,-z
1/2-x,1/2+y,-z
1/2-x,1/2-y,-z
1/2+x,1/2+y,-z
1/2-x,1/2+y,z
1/2+x,1/2-y,z
loop_
_atom_site_type_symbol
_atom_site_label
_atom_site_fract_x
_atom_site_fract_y
_atom_site_fract_z
Si Si1 0.048070 0.695036 0.363038
Si Si2 0.433234 0.301534 0.500000
Si Si3 0.447004 0.000000 0.928750
Si Si4 0.799025 0.302028 0.362329
Si Si5 0.668911 0.793664 0.500000
Si Si6 0.947488 0.796503 0.168116
Si Si7 0.879525 0.187533 0.721817
O O1 0.056998 0.500000 0.346719
O O2 0.048298 0.715812 0.437661
O O3 0.086512 0.808601 0.336406
O O4 0.000000 0.743081 0.337928
O O5 0.443215 0.500000 0.500000
O O6 0.380984 0.270456 0.500000
O O7 0.436777 0.828952 0.889907
O O8 0.500000 0.000000 0.933481
O O9 0.428684 0.000000 0.000000
O O10 0.799559 0.500000 0.370680
O O11 0.750000 0.250000 0.343261
O O12 0.809886 0.233222 0.433340
O O13 0.835478 0.264432 0.308567
O O14 0.668409 0.000000 0.500000
O O15 0.911884 0.746445 0.222404
O O16 0.000000 0.768871 0.184239
O O17 0.943457 0.000000 0.156618
O O18 0.867409 0.000000 0.741420
#
# Coordination Sequence:
#
# PCOD9492305 Si02
#       7
#    16   8   8  16   8  16  16
#     4  11  23  36  51  70  96 132 173 218 268 322
#     4  12  23  34  51  70  93 126 168 218 272 323
#     4   9  18  32  54  84 118 155 193 227 259 304
#     4  11  23  38  57  77 100 133 172 224 281 338
#     4  10  21  38  56  71  94 127 170 218 280 339
#     4   9  19  34  53  80 116 156 192 225 263 312
#     4  11  22  36  54  77 105 138 177 222 268 323
#
# _framework density 17.297077999999999
#
# number of rings (size 3 to 8) (size 9 to 14) (size 15 to 20)
#    0.000    1.545    1.818    3.545    2.545    4.364 
#    0.000    1.818    0.000    0.000    0.000    0.000 
#    0.000    0.727    0.364    0.000    0.000    0.000 
#
# Total GULP energy -245149.791669 kJ/mol
# GULP energy per Si atom -5571.586174 kJ/mol
# Density = 1.725771 g / cm^3
# Si number density = 17.297078 Si / 1000 Ang^3
#
#
#
# Elastic Constant Matrix: (Units=GPa)
#
#
# Indices 1 2 3 4 5 6 
#
# 1 117.0760 33.3126 44.7692 0.0000 0.0000 0.0000
# 2 33.3126 49.6623 30.7832 0.0000 0.0000 0.0000
# 3 44.7692 30.7832 113.2074 0.0000 0.0000 0.0000
# 4 0.0000 0.0000 0.0000 16.7888 0.0000 0.0000
# 5 0.0000 0.0000 0.0000 0.0000 21.8286 0.0000
# 6 0.0000 0.0000 0.0000 0.0000 0.0000 11.0534
#
#
#
# Elastic Compliance Matrix: (Units=1/GPa)
#
#
# Indices 1 2 3 4 5 6 
#
# 1 0.011293 -0.005781 -0.002894 0.000000 0.000000 0.000000
# 2 -0.005781 0.027178 -0.005104 0.000000 0.000000 0.000000
# 3 -0.002894 -0.005104 0.011366 0.000000 0.000000 0.000000
# 4 0.000000 0.000000 0.000000 0.059564 0.000000 0.000000
# 5 0.000000 0.000000 0.000000 0.000000 0.045811 0.000000
# 6 0.000000 0.000000 0.000000 0.000000 0.000000 0.090470
#
#
# Mechanical properties :
#
#
# Convention : Reuss Voigt Hill
#
# Bulk Modulus (GPa) = 44.88706 55.29729 50.09217
# Shear Modulus (GPa) = 17.81479 21.33954 19.57716
#
# Velocity S-wave (km/s) = 3.21273 3.51623 3.36790
# Velocity P-wave (km/s) = 6.30628 6.96590 6.64428
#
# Compressibility (1/GPa) = 0.02227814
#
# Stress axis : x y z
#
# Youngs Moduli (GPa) = 88.54951 36.79491 87.98489
#
# Poissons Ratio (x) = 0.21273 0.25462
# Poissons Ratio (y) = 0.51194 0.44905
# Poissons Ratio (z) = 0.25626 0.18779
#
# Static dielectric constant tensor:
#      x y z
#    x 1.570880 0.000000 0.000000 
#    y 0.000000 1.623650 0.000000 
#    z 0.000000 0.000000 1.622260 
# 
# From -- ./inp_files/66282.got.cif
#   From: 2010.05.17/outbox.cif.g08.bks.cpg/sg65_34_cif.got.tgz:66282.got - 2010.06.03 17:01:31.
