data_PCOD9492358
_publ_section_title
;
Structure prediction by ZEFSAII (Michael W. Deem and Ramdas Pophale) SiO2 
 PCOD9492358
Probable space group: C M M M
;
_chemical_formula_sum "Si O2"
_cell_formula_units_Z 88
_cell_length_a 8.564912
_cell_length_b 18.708723
_cell_length_c 29.747994
_cell_angle_alpha 90.000000
_cell_angle_beta 90.000000
_cell_angle_gamma 90.000000
_cell_volume 4766.775904
_symmetry_space_group_name_H-M "C M M M"
_symmetry_group_IT_number 65
_symmetry_cell_setting 'orthorhombic'
loop_
_space_group_symop_operation_xyz
x,y,z
-x,-y,z
x,-y,-z
-x,y,-z
-x,-y,-z
x,y,-z
-x,y,z
x,-y,z
1/2+x,1/2+y,z
1/2-x,1/2-y,z
1/2+x,1/2-y,-z
1/2-x,1/2+y,-z
1/2-x,1/2-y,-z
1/2+x,1/2+y,-z
1/2-x,1/2+y,z
1/2+x,1/2-y,z
loop_
_atom_site_type_symbol
_atom_site_label
_atom_site_fract_x
_atom_site_fract_y
_atom_site_fract_z
Si Si1 0.187552 0.083993 0.766141
Si Si2 0.311230 0.668405 0.048339
Si Si3 0.313681 0.916168 0.669319
Si Si4 0.314555 0.330355 0.414904
Si Si5 0.689036 0.330813 0.146114
Si Si6 0.687400 0.082779 0.500000
O O1 0.264723 0.107190 0.719387
O O2 0.241996 0.125756 0.810323
O O3 0.000000 0.092284 0.762016
O O4 0.220727 0.000000 0.771944
O O5 0.500000 0.669440 0.048240
O O6 0.250000 0.750000 0.048354
O O7 0.262557 0.638301 0.097039
O O8 0.261037 0.636275 0.000000
O O9 0.500000 0.911990 0.664480
O O10 0.235009 0.868566 0.631286
O O11 0.267519 0.000000 0.664288
O O12 0.500000 0.328157 0.418500
O O13 0.250000 0.250000 0.416644
O O14 0.247060 0.376434 0.456015
O O15 0.500000 0.330022 0.146866
O O16 0.750000 0.250000 0.148912
O O17 0.500000 0.083763 0.500000
O O18 0.739064 0.000000 0.500000
#
# Coordination Sequence:
#
# PCOD9492358 Si02
#       6
#    16  16  16  16  16   8
#     4   9  18  33  51  70  96 133 173 209 250 306
#     4   8  13  22  37  58  85 116 151 193 242 296
#     4  10  21  38  59  82 108 139 178 222 267 317
#     4  12  25  41  62  88 119 151 185 225 270 317
#     4   9  17  28  44  67  93 122 158 203 252 301
#     4  11  24  43  66  91 121 155 190 227 266 311
#
# _framework density 18.461116000000001
#
# number of rings (size 3 to 8) (size 9 to 14) (size 15 to 20)
#    0.000    2.273    0.000    3.273    0.000    5.455 
#    0.000    1.818    0.000    0.545    0.000    3.818 
#    0.000    0.000    0.000   34.000    0.000   18.545 
#
# Total GULP energy -245386.030158 kJ/mol
# GULP energy per Si atom -5576.955231 kJ/mol
# Density = 1.841910 g / cm^3
# Si number density = 18.461116 Si / 1000 Ang^3
#
#
#
# Elastic Constant Matrix: (Units=GPa)
#
#
# Indices 1 2 3 4 5 6 
#
# 1 44.4163 33.3579 48.3153 0.0000 0.0000 0.0000
# 2 33.3579 82.8337 85.8081 0.0000 0.0000 0.0000
# 3 48.3153 85.8081 196.9024 0.0000 0.0000 0.0000
# 4 0.0000 0.0000 0.0000 46.9845 0.0000 0.0000
# 5 0.0000 0.0000 0.0000 0.0000 19.6370 0.0000
# 6 0.0000 0.0000 0.0000 0.0000 0.0000 22.1623
#
#
#
# Elastic Compliance Matrix: (Units=1/GPa)
#
#
# Indices 1 2 3 4 5 6 
#
# 1 0.034211 -0.009263 -0.004358 0.000000 0.000000 0.000000
# 2 -0.009263 0.024515 -0.008411 0.000000 0.000000 0.000000
# 3 -0.004358 -0.008411 0.009813 0.000000 0.000000 0.000000
# 4 0.000000 0.000000 0.000000 0.021284 0.000000 0.000000
# 5 0.000000 0.000000 0.000000 0.000000 0.050924 0.000000
# 6 0.000000 0.000000 0.000000 0.000000 0.000000 0.045122
#
#
# Mechanical properties :
#
#
# Convention : Reuss Voigt Hill
#
# Bulk Modulus (GPa) = 40.85448 73.23501 57.04474
# Shear Modulus (GPa) = 21.00033 28.20149 24.60091
#
# Velocity S-wave (km/s) = 3.37641 3.91271 3.65441
# Velocity P-wave (km/s) = 6.11377 7.75683 6.98379
#
# Compressibility (1/GPa) = 0.02447712
#
# Stress axis : x y z
#
# Youngs Moduli (GPa) = 29.22995 40.79106 101.90250
#
# Poissons Ratio (x) = 0.37783 0.44410
# Poissons Ratio (y) = 0.27075 0.85706
# Poissons Ratio (z) = 0.12739 0.34308
#
# Static dielectric constant tensor:
#      x y z
#    x 1.624040 0.000000 0.000000 
#    y 0.000000 1.609220 0.000000 
#    z 0.000000 0.000000 1.667470 
# 
# From -- ./inp_files/76692.got.cif
#   From: 2010.05.17/outbox.cif.g08.bks.cpg/sg65_39_cif.got.tgz:76692.got - 2010.06.03 17:01:31.
