data_PCOD9492321
_publ_section_title
;
Structure prediction by ZEFSAII (Michael W. Deem and Ramdas Pophale) SiO2 
 PCOD9492321
Probable space group: C M M M
;
_chemical_formula_sum "Si O2"
_cell_formula_units_Z 72
_cell_length_a 28.424129
_cell_length_b 8.781295
_cell_length_c 17.210482
_cell_angle_alpha 90.000000
_cell_angle_beta 90.000000
_cell_angle_gamma 90.000000
_cell_volume 4295.747698
_symmetry_space_group_name_H-M "C M M M"
_symmetry_group_IT_number 65
_symmetry_cell_setting 'orthorhombic'
loop_
_space_group_symop_operation_xyz
x,y,z
-x,-y,z
x,-y,-z
-x,y,-z
-x,-y,-z
x,y,-z
-x,y,z
x,-y,z
1/2+x,1/2+y,z
1/2-x,1/2-y,z
1/2+x,1/2-y,-z
1/2-x,1/2+y,-z
1/2-x,1/2-y,-z
1/2+x,1/2+y,-z
1/2-x,1/2+y,z
1/2+x,1/2-y,z
loop_
_atom_site_type_symbol
_atom_site_label
_atom_site_fract_x
_atom_site_fract_y
_atom_site_fract_z
Si Si1 0.879438 0.325272 0.803385
Si Si2 0.697676 0.317688 0.088158
Si Si3 0.554034 0.332278 0.092534
Si Si4 0.943190 0.826475 0.500000
Si Si5 0.055021 0.184975 0.328439
O O1 0.869600 0.500000 0.785407
O O2 0.834115 0.246335 0.842152
O O3 0.917504 0.304153 0.871803
O O4 0.906642 0.245522 0.732056
O O5 0.699286 0.500000 0.092593
O O6 0.750000 0.250000 0.093345
O O7 0.679543 0.279044 0.000000
O O8 0.500000 0.327576 0.117922
O O9 0.573389 0.500000 0.116847
O O10 0.555007 0.329087 0.000000
O O11 0.931819 0.759381 0.415701
O O12 0.000000 0.835676 0.500000
O O13 0.924761 0.000000 0.500000
O O14 0.000000 0.228984 0.312096
O O15 0.055399 0.000000 0.328393
#
# Coordination Sequence:
#
# PCOD9492321 Si02
#       5
#    16  16  16   8  16
#     4  12  23  31  44  70 101 130 161 197 239 288
#     4  10  21  38  58  76  95 122 159 204 252 297
#     4   9  18  32  47  62  85 122 165 203 239 280
#     4   7  12  26  49  73  94 123 166 209 245 285
#     4   9  17  31  51  73  99 132 169 207 246 289
#
# _framework density 16.760760000000001
#
# number of rings (size 3 to 8) (size 9 to 14) (size 15 to 20)
#    0.000    2.333    0.000    6.000    0.000    8.000 
#    0.000    1.667    0.000    2.000    0.000    0.778 
#    0.000    0.000    0.000    0.000    0.000    0.000 
#
# Total GULP energy -200514.552783 kJ/mol
# GULP energy per Si atom -5569.848688 kJ/mol
# Density = 1.672261 g / cm^3
# Si number density = 16.760760 Si / 1000 Ang^3
#
#
#
# Elastic Constant Matrix: (Units=GPa)
#
#
# Indices 1 2 3 4 5 6 
#
# 1 75.0204 30.3921 54.3932 0.0000 0.0000 0.0000
# 2 30.3921 54.2305 34.9540 0.0000 0.0000 0.0000
# 3 54.3932 34.9540 120.3677 0.0000 0.0000 0.0000
# 4 0.0000 0.0000 0.0000 7.5023 0.0000 0.0000
# 5 0.0000 0.0000 0.0000 0.0000 30.5169 0.0000
# 6 0.0000 0.0000 0.0000 0.0000 0.0000 22.7250
#
#
#
# Elastic Compliance Matrix: (Units=1/GPa)
#
#
# Indices 1 2 3 4 5 6 
#
# 1 0.021926 -0.007261 -0.007800 0.000000 0.000000 0.000000
# 2 -0.007261 0.025090 -0.004005 0.000000 0.000000 0.000000
# 3 -0.007800 -0.004005 0.012996 0.000000 0.000000 0.000000
# 4 0.000000 0.000000 0.000000 0.133292 0.000000 0.000000
# 5 0.000000 0.000000 0.000000 0.000000 0.032769 0.000000
# 6 0.000000 0.000000 0.000000 0.000000 0.000000 0.044004
#
#
# Mechanical properties :
#
#
# Convention : Reuss Voigt Hill
#
# Bulk Modulus (GPa) = 45.70158 54.34413 50.02285
# Shear Modulus (GPa) = 15.84774 20.80746 18.32760
#
# Velocity S-wave (km/s) = 3.07828 3.52723 3.31037
# Velocity P-wave (km/s) = 6.32144 7.00587 6.67244
#
# Compressibility (1/GPa) = 0.02188108
#
# Stress axis : x y z
#
# Youngs Moduli (GPa) = 45.60703 39.85607 76.94898
#
# Poissons Ratio (x) = 0.28938 0.60020
# Poissons Ratio (y) = 0.33114 0.30818
# Poissons Ratio (z) = 0.35573 0.15962
#
# Static dielectric constant tensor:
#      x y z
#    x 1.563400 0.000000 0.000000 
#    y 0.000000 1.591670 0.000000 
#    z 0.000000 0.000000 1.612570 
# 
# From -- ./inp_files/57142.got.cif
#   From: 2010.05.17/outbox.cif.g08.bks.cpg/sg65_29_cif.got.tgz:57142.got - 2010.06.03 17:01:31.
