data_PCOD9492250
_publ_section_title
;
Structure prediction by ZEFSAII (Michael W. Deem and Ramdas Pophale) SiO2 
 PCOD9492250
Probable space group: C M M M
;
_chemical_formula_sum "Si O2"
_cell_formula_units_Z 80
_cell_length_a 18.499471
_cell_length_b 9.012021
_cell_length_c 25.970026
_cell_angle_alpha 90.000000
_cell_angle_beta 90.000000
_cell_angle_gamma 90.000000
_cell_volume 4329.660956
_symmetry_space_group_name_H-M "C M M M"
_symmetry_group_IT_number 65
_symmetry_cell_setting 'orthorhombic'
loop_
_space_group_symop_operation_xyz
x,y,z
-x,-y,z
x,-y,-z
-x,y,-z
-x,-y,-z
x,y,-z
-x,y,z
x,-y,z
1/2+x,1/2+y,z
1/2-x,1/2-y,z
1/2+x,1/2-y,-z
1/2-x,1/2+y,-z
1/2-x,1/2-y,-z
1/2+x,1/2+y,-z
1/2-x,1/2+y,z
1/2+x,1/2-y,z
loop_
_atom_site_type_symbol
_atom_site_label
_atom_site_fract_x
_atom_site_fract_y
_atom_site_fract_z
Si Si1 0.672019 0.175391 0.000000
Si Si2 0.914384 0.823216 0.210620
Si Si3 0.585333 0.321866 0.603926
Si Si4 0.671128 0.321856 0.500000
Si Si5 0.328841 0.823042 0.302419
Si Si6 0.913995 0.825292 0.091085
O O1 0.750000 0.250000 0.000000
O O2 0.629087 0.229622 0.949664
O O3 0.678960 0.000000 0.000000
O O4 0.866465 0.730945 0.249810
O O5 0.897565 0.791076 0.150798
O O6 0.000000 0.794669 0.218786
O O7 0.903210 0.000000 0.218939
O O8 0.500000 0.290399 0.600364
O O9 0.593223 0.500000 0.611798
O O10 0.626141 0.281984 0.551072
O O11 0.621958 0.236906 0.650995
O O12 0.679136 0.500000 0.500000
O O13 0.750000 0.250000 0.500000
O O14 0.250000 0.750000 0.306825
O O15 0.323060 0.000000 0.304098
O O16 0.000000 0.805374 0.084005
O O17 0.898388 0.000000 0.082620
#
# Coordination Sequence:
#
# PCOD9492250 Si02
#       6
#     8  16  16   8  16  16
#     4  12  25  38  55  81 115 153 191 234 283 334
#     4   9  19  38  63  88 114 147 186 229 281 339
#     4  10  21  39  62  86 115 151 191 235 283 338
#     4  10  21  37  59  87 117 152 191 232 282 336
#     4  12  25  39  57  83 116 153 192 235 284 337
#     4   9  19  38  63  87 113 147 186 229 280 339
#
# _framework density 18.477197
#
# number of rings (size 3 to 8) (size 9 to 14) (size 15 to 20)
#    0.000    1.800    0.000    5.700    0.000   10.000 
#    0.000    2.000    0.000    1.800    0.000    0.000 
#    0.000    0.000    0.000    0.000    0.000    0.000 
#
# Total GULP energy -223589.733168 kJ/mol
# GULP energy per Si atom -5589.743329 kJ/mol
# Density = 1.843514 g / cm^3
# Si number density = 18.477197 Si / 1000 Ang^3
#
#
#
# Elastic Constant Matrix: (Units=GPa)
#
#
# Indices 1 2 3 4 5 6 
#
# 1 137.1460 93.1308 100.5466 0.0000 0.0000 0.0000
# 2 93.1308 108.7115 100.7866 0.0000 0.0000 0.0000
# 3 100.5466 100.7866 139.1361 0.0000 0.0000 0.0000
# 4 0.0000 0.0000 0.0000 9.7432 0.0000 0.0000
# 5 0.0000 0.0000 0.0000 0.0000 314.0352 0.0000
# 6 0.0000 0.0000 0.0000 0.0000 0.0000 35.2958
#
#
#
# Elastic Compliance Matrix: (Units=1/GPa)
#
#
# Indices 1 2 3 4 5 6 
#
# 1 0.018887 -0.010737 -0.005871 0.000000 0.000000 0.000000
# 2 -0.010737 0.034112 -0.016951 0.000000 0.000000 0.000000
# 3 -0.005871 -0.016951 0.023708 0.000000 0.000000 0.000000
# 4 0.000000 0.000000 0.000000 0.102636 0.000000 0.000000
# 5 0.000000 0.000000 0.000000 0.000000 0.003184 0.000000
# 6 0.000000 0.000000 0.000000 0.000000 0.000000 0.028332
#
#
# Mechanical properties :
#
#
# Convention : Reuss Voigt Hill
#
# Bulk Modulus (GPa) = 104.27611 108.21352 106.24481
# Shear Modulus (GPa) = 17.78264 77.85012 47.81638
#
# Velocity S-wave (km/s) = 3.10564 6.49804 5.09262
# Velocity P-wave (km/s) = 8.33172 10.72346 9.60234
#
# Compressibility (1/GPa) = 0.00958992
#
# Stress axis : x y z
#
# Youngs Moduli (GPa) = 52.94716 29.31546 42.17899
#
# Poissons Ratio (x) = 0.31476 0.24763
# Poissons Ratio (y) = 0.56849 0.71496
# Poissons Ratio (z) = 0.31085 0.49692
#
# Static dielectric constant tensor:
#      x y z
#    x 1.606670 0.000000 0.000000 
#    y 0.000000 1.612540 0.000000 
#    z 0.000000 0.000000 1.621540 
# 
# From -- ./inp_files/75129.got.cif
#   From: 2010.05.17/outbox.cif.g08.bks.cpg/sg65_38_cif.got.tgz:75129.got - 2010.06.03 17:01:31.
