data_PCOD9492760
_publ_section_title
;
Structure prediction by ZEFSAII (Michael W. Deem and Ramdas Pophale) SiO2 
 PCOD9492760
Probable space group: C M M M
;
_chemical_formula_sum "Si O2"
_cell_formula_units_Z 64
_cell_length_a 25.330452
_cell_length_b 15.301877
_cell_length_c 7.964065
_cell_angle_alpha 90.000000
_cell_angle_beta 90.000000
_cell_angle_gamma 90.000000
_cell_volume 3086.899157
_symmetry_space_group_name_H-M "C M M M"
_symmetry_group_IT_number 65
_symmetry_cell_setting 'orthorhombic'
loop_
_space_group_symop_operation_xyz
x,y,z
-x,-y,z
x,-y,-z
-x,y,-z
-x,-y,-z
x,y,-z
-x,y,z
x,-y,z
1/2+x,1/2+y,z
1/2-x,1/2-y,z
1/2+x,1/2-y,-z
1/2-x,1/2+y,-z
1/2-x,1/2-y,-z
1/2+x,1/2+y,-z
1/2-x,1/2+y,z
1/2+x,1/2-y,z
loop_
_atom_site_type_symbol
_atom_site_label
_atom_site_fract_x
_atom_site_fract_y
_atom_site_fract_z
Si Si1 0.367910 0.345025 0.192245
Si Si2 0.439037 0.000000 0.201813
Si Si3 0.860196 0.349117 0.693898
Si Si4 0.440824 0.604096 0.500000
Si Si5 0.751171 0.147931 0.798248
O O1 0.363218 0.239295 0.197613
O O2 0.410143 0.369349 0.331615
O O3 0.310158 0.382966 0.243008
O O4 0.379599 0.371569 0.000000
O O5 0.406487 0.084110 0.263059
O O6 0.500000 0.000000 0.258561
O O7 0.438610 0.000000 0.000000
O O8 0.863845 0.323035 0.500000
O O9 0.802339 0.391179 0.724786
O O10 0.443783 0.500000 0.500000
O O11 0.500000 0.641445 0.500000
O O12 0.750000 0.250000 0.745040
O O13 0.747248 0.144010 0.000000
#
# Coordination Sequence:
#
# PCOD9492760 Si02
#       5
#    16   8  16   8  16
#     4  10  21  41  68  95 125 165 209 257 313 378
#     4  11  25  43  59  81 125 179 223 263 305 358
#     4  11  21  36  62  94 128 167 209 259 312 365
#     4  11  26  46  65  91 125 157 200 266 323 377
#     4   8  16  32  58  90 124 159 200 252 310 369
#
# _framework density 20.732779000000001
#
# number of rings (size 3 to 8) (size 9 to 14) (size 15 to 20)
#    0.000    2.000    1.250    4.125    1.750    4.500 
#    2.250    1.250    0.000    0.000    0.000    0.000 
#    0.000    0.000    0.000    0.000    0.000    0.000 
#
# Total GULP energy -178648.350108 kJ/mol
# GULP energy per Si atom -5582.760941 kJ/mol
# Density = 2.068559 g / cm^3
# Si number density = 20.732779 Si / 1000 Ang^3
#
#
#
# Elastic Constant Matrix: (Units=GPa)
#
#
# Indices 1 2 3 4 5 6 
#
# 1 206.3563 31.5729 73.2611 0.0000 0.0000 0.0000
# 2 31.5729 46.3152 1.6287 0.0000 0.0000 0.0000
# 3 73.2611 1.6287 110.5570 0.0000 0.0000 0.0000
# 4 0.0000 0.0000 0.0000 20.8895 0.0000 0.0000
# 5 0.0000 0.0000 0.0000 0.0000 33.8402 0.0000
# 6 0.0000 0.0000 0.0000 0.0000 0.0000 34.6251
#
#
#
# Elastic Compliance Matrix: (Units=1/GPa)
#
#
# Indices 1 2 3 4 5 6 
#
# 1 0.007261 -0.004783 -0.004741 0.000000 0.000000 0.000000
# 2 -0.004783 0.024753 0.002805 0.000000 0.000000 0.000000
# 3 -0.004741 0.002805 0.012145 0.000000 0.000000 0.000000
# 4 0.000000 0.000000 0.000000 0.047871 0.000000 0.000000
# 5 0.000000 0.000000 0.000000 0.000000 0.029551 0.000000
# 6 0.000000 0.000000 0.000000 0.000000 0.000000 0.028881
#
#
# Mechanical properties :
#
#
# Convention : Reuss Voigt Hill
#
# Bulk Modulus (GPa) = 32.55097 64.01711 48.28404
# Shear Modulus (GPa) = 28.71238 34.98867 31.85052
#
# Velocity S-wave (km/s) = 3.72543 4.11250 3.92374
# Velocity P-wave (km/s) = 5.85145 7.31399 6.62321
#
# Compressibility (1/GPa) = 0.03072105
#
# Stress axis : x y z
#
# Youngs Moduli (GPa) = 137.72234 40.39894 82.33520
#
# Poissons Ratio (x) = 0.19323 0.39036
# Poissons Ratio (y) = 0.65873 -0.23094
# Poissons Ratio (z) = 0.65295 -0.11331
#
# Static dielectric constant tensor:
#      x y z
#    x 1.770830 0.000000 0.000000 
#    y 0.000000 1.760510 0.000000 
#    z 0.000000 0.000000 1.705340 
# 
# From -- ./inp_files/13352.got.cif
#   From: 2010.05.17/outbox.cif.g08.bks.cpg/sg65_7_cif.got.tgz:13352.got - 2010.06.03 17:01:31.
