data_PCOD9492469
_publ_section_title
;
Structure prediction by ZEFSAII (Michael W. Deem and Ramdas Pophale) SiO2 
 PCOD9492469
Probable space group: C M M M
;
_chemical_formula_sum "Si O2"
_cell_formula_units_Z 72
_cell_length_a 9.957690
_cell_length_b 28.915183
_cell_length_c 13.801701
_cell_angle_alpha 90.000000
_cell_angle_beta 90.000000
_cell_angle_gamma 90.000000
_cell_volume 3973.902081
_symmetry_space_group_name_H-M "C M M M"
_symmetry_group_IT_number 65
_symmetry_cell_setting 'orthorhombic'
loop_
_space_group_symop_operation_xyz
x,y,z
-x,-y,z
x,-y,-z
-x,y,-z
-x,-y,-z
x,y,-z
-x,y,z
x,-y,z
1/2+x,1/2+y,z
1/2-x,1/2-y,z
1/2+x,1/2-y,-z
1/2-x,1/2+y,-z
1/2-x,1/2-y,-z
1/2+x,1/2+y,-z
1/2-x,1/2+y,z
1/2+x,1/2-y,z
loop_
_atom_site_type_symbol
_atom_site_label
_atom_site_fract_x
_atom_site_fract_y
_atom_site_fract_z
Si Si1 0.340168 0.589646 0.615281
Si Si2 0.500000 0.300583 0.886522
Si Si3 0.341330 0.550892 0.883987
Si Si4 0.842883 0.500000 0.617293
Si Si5 0.000000 0.689656 0.115590
Si Si6 0.258380 0.644716 0.209133
O O1 0.328745 0.597265 0.500000
O O2 0.500000 0.581569 0.635865
O O3 0.246797 0.545359 0.640876
O O4 0.287270 0.632638 0.678858
O O5 0.500000 0.245297 0.880707
O O6 0.374052 0.323297 0.834474
O O7 0.500000 0.313790 0.000000
O O8 0.500000 0.554716 0.860368
O O9 0.294027 0.500000 0.852599
O O10 0.267329 0.594238 0.839888
O O11 0.331260 0.552718 0.000000
O O12 0.851849 0.500000 0.500000
O O13 0.000000 0.500000 0.652559
O O14 0.125008 0.669155 0.173541
O O15 0.000000 0.677152 0.000000
#
# Coordination Sequence:
#
# PCOD9492469 Si02
#       6
#    16   8  16   8   8  16
#     4  10  21  38  60  89 125 165 213 261 296 348
#     4  11  22  42  68  90 113 152 208 262 315 375
#     4   9  17  30  51  80 113 149 193 236 279 349
#     4   9  19  35  59  89 124 165 208 255 306 355
#     4  11  26  42  62  92 125 152 194 264 325 373
#     4  12  22  38  62  90 119 162 202 249 310 375
#
# _framework density 18.118210999999999
#
# number of rings (size 3 to 8) (size 9 to 14) (size 15 to 20)
#    0.000    1.667    2.222    3.667    3.111    3.111 
#    0.000    0.556    0.000    6.000    0.000    0.000 
#    0.000    0.000    0.000    0.000    0.000    0.000 
#
# Total GULP energy -200886.391197 kJ/mol
# GULP energy per Si atom -5580.177533 kJ/mol
# Density = 1.807697 g / cm^3
# Si number density = 18.118211 Si / 1000 Ang^3
#
#
#
# Elastic Constant Matrix: (Units=GPa)
#
#
# Indices 1 2 3 4 5 6 
#
# 1 156.4054 56.5737 54.0462 0.0000 0.0000 0.0000
# 2 56.5737 98.4075 54.7808 0.0000 0.0000 0.0000
# 3 54.0462 54.7808 122.2282 0.0000 0.0000 0.0000
# 4 0.0000 0.0000 0.0000 32.1883 0.0000 0.0000
# 5 0.0000 0.0000 0.0000 0.0000 21.5299 0.0000
# 6 0.0000 0.0000 0.0000 0.0000 0.0000 53.1751
#
#
#
# Elastic Compliance Matrix: (Units=1/GPa)
#
#
# Indices 1 2 3 4 5 6 
#
# 1 0.008450 -0.003702 -0.002078 0.000000 0.000000 0.000000
# 2 -0.003702 0.015161 -0.005158 0.000000 0.000000 0.000000
# 3 -0.002078 -0.005158 0.011412 0.000000 0.000000 0.000000
# 4 0.000000 0.000000 0.000000 0.031067 0.000000 0.000000
# 5 0.000000 0.000000 0.000000 0.000000 0.046447 0.000000
# 6 0.000000 0.000000 0.000000 0.000000 0.000000 0.018806
#
#
# Mechanical properties :
#
#
# Convention : Reuss Voigt Hill
#
# Bulk Modulus (GPa) = 76.05275 78.64916 77.35096
# Shear Modulus (GPa) = 31.72554 35.48802 33.60678
#
# Velocity S-wave (km/s) = 4.18907 4.43051 4.31148
# Velocity P-wave (km/s) = 8.09103 8.34720 8.22011
#
# Compressibility (1/GPa) = 0.01314877
#
# Stress axis : x y z
#
# Youngs Moduli (GPa) = 118.33681 65.95724 87.62728
#
# Poissons Ratio (x) = 0.24414 0.18205
# Poissons Ratio (y) = 0.43803 0.45201
# Poissons Ratio (z) = 0.24586 0.34023
#
# Static dielectric constant tensor:
#      x y z
#    x 1.562340 0.000000 0.000000 
#    y 0.000000 1.598860 0.000000 
#    z 0.000000 0.000000 1.662200 
# 
# From -- ./inp_files/36627.got.cif
#   From: 2010.05.17/outbox.cif.g08.bks.cpg/sg65_19_cif.got.tgz:36627.got - 2010.06.03 17:01:31.
