data_PCOD9492739
_publ_section_title
;
Structure prediction by ZEFSAII (Michael W. Deem and Ramdas Pophale) SiO2 
 PCOD9492739
Probable space group: C M M M
;
_chemical_formula_sum "Si O2"
_cell_formula_units_Z 56
_cell_length_a 23.217902
_cell_length_b 17.035348
_cell_length_c 7.513875
_cell_angle_alpha 90.000000
_cell_angle_beta 90.000000
_cell_angle_gamma 90.000000
_cell_volume 2971.925713
_symmetry_space_group_name_H-M "C M M M"
_symmetry_group_IT_number 65
_symmetry_cell_setting 'orthorhombic'
loop_
_space_group_symop_operation_xyz
x,y,z
-x,-y,z
x,-y,-z
-x,y,-z
-x,-y,-z
x,y,-z
-x,y,z
x,-y,z
1/2+x,1/2+y,z
1/2-x,1/2-y,z
1/2+x,1/2-y,-z
1/2-x,1/2+y,-z
1/2-x,1/2-y,-z
1/2+x,1/2+y,-z
1/2-x,1/2+y,z
1/2+x,1/2-y,z
loop_
_atom_site_type_symbol
_atom_site_label
_atom_site_fract_x
_atom_site_fract_y
_atom_site_fract_z
Si Si1 0.930277 0.770504 0.000000
Si Si2 0.159599 0.093089 0.000000
Si Si3 0.247317 0.155769 0.291889
Si Si4 0.431915 0.000000 0.203175
Si Si5 0.376447 0.841267 0.701751
O O1 0.898286 0.854487 0.000000
O O2 0.906172 0.721295 0.831047
O O3 0.000000 0.773761 0.000000
O O4 0.198741 0.118501 0.831049
O O5 0.149306 0.000000 0.000000
O O6 0.237905 0.136946 0.500000
O O7 0.250000 0.250000 0.271675
O O8 0.312308 0.133299 0.239283
O O9 0.412267 0.079247 0.295242
O O10 0.500000 0.000000 0.195089
O O11 0.409404 0.000000 0.000000
O O12 0.371293 0.809889 0.500000
#
# Coordination Sequence:
#
# PCOD9492739 Si02
#       5
#     8   8  16   8  16
#     4  12  25  43  64  86 118 164 221 267 303 363
#     4  12  26  41  64  94 126 166 205 259 325 367
#     4  10  21  40  66  94 122 153 200 255 307 372
#     4  11  23  37  55  88 133 171 200 240 293 365
#     4  11  23  39  63  93 124 163 205 250 308 370
#
# _framework density 18.843001000000001
#
# number of rings (size 3 to 8) (size 9 to 14) (size 15 to 20)
#    0.000    1.000    4.286    2.571    2.000    3.714 
#    0.000    0.000    0.000    0.000    0.000    4.000 
#    0.000    0.000    0.000    0.000    0.000    0.000 
#
# Total GULP energy -156441.887153 kJ/mol
# GULP energy per Si atom -5587.210255 kJ/mol
# Density = 1.880011 g / cm^3
# Si number density = 18.843001 Si / 1000 Ang^3
#
#
#
# Elastic Constant Matrix: (Units=GPa)
#
#
# Indices 1 2 3 4 5 6 
#
# 1 111.2520 47.4666 44.1205 0.0000 0.0000 0.0000
# 2 47.4666 117.3290 37.8196 0.0000 0.0000 0.0000
# 3 44.1205 37.8196 103.6095 0.0000 0.0000 0.0000
# 4 0.0000 0.0000 0.0000 12.9615 0.0000 0.0000
# 5 0.0000 0.0000 0.0000 0.0000 14.8210 0.0000
# 6 0.0000 0.0000 0.0000 0.0000 0.0000 33.3545
#
#
#
# Elastic Compliance Matrix: (Units=1/GPa)
#
#
# Indices 1 2 3 4 5 6 
#
# 1 0.012054 -0.003652 -0.003800 0.000000 0.000000 0.000000
# 2 -0.003652 0.010766 -0.002375 0.000000 0.000000 0.000000
# 3 -0.003800 -0.002375 0.012137 0.000000 0.000000 0.000000
# 4 0.000000 0.000000 0.000000 0.077151 0.000000 0.000000
# 5 0.000000 0.000000 0.000000 0.000000 0.067472 0.000000
# 6 0.000000 0.000000 0.000000 0.000000 0.000000 0.029981
#
#
# Mechanical properties :
#
#
# Convention : Reuss Voigt Hill
#
# Bulk Modulus (GPa) = 65.34471 65.66709 65.50590
# Shear Modulus (GPa) = 21.33889 25.74631 23.54260
#
# Velocity S-wave (km/s) = 3.36885 3.70044 3.53853
# Velocity P-wave (km/s) = 7.06300 7.29266 7.17875
#
# Compressibility (1/GPa) = 0.01530346
#
# Stress axis : x y z
#
# Youngs Moduli (GPa) = 82.96317 92.88687 82.39527
#
# Poissons Ratio (x) = 0.33918 0.31310
# Poissons Ratio (y) = 0.30294 0.19567
# Poissons Ratio (z) = 0.31526 0.22059
#
# Static dielectric constant tensor:
#      x y z
#    x 1.707120 0.000000 0.000000 
#    y 0.000000 1.614650 0.000000 
#    z 0.000000 0.000000 1.705570 
# 
# From -- ./inp_files/10695.got.cif
#   From: 2010.05.17/outbox.cif.g08.bks.cpg/sg65_6_cif.got.tgz:10695.got - 2010.06.03 17:01:31.
