data_PCOD9492944
_publ_section_title
;
Structure prediction by ZEFSAII (Michael W. Deem and Ramdas Pophale) SiO2 
 PCOD9492944
Probable space group: C M M M
;
_chemical_formula_sum "Si O2"
_cell_formula_units_Z 64
_cell_length_a 19.009956
_cell_length_b 11.066212
_cell_length_c 12.922652
_cell_angle_alpha 90.000000
_cell_angle_beta 90.000000
_cell_angle_gamma 90.000000
_cell_volume 2718.515082
_symmetry_space_group_name_H-M "C M M M"
_symmetry_group_IT_number 65
_symmetry_cell_setting 'orthorhombic'
loop_
_space_group_symop_operation_xyz
x,y,z
-x,-y,z
x,-y,-z
-x,y,-z
-x,-y,-z
x,y,-z
-x,y,z
x,-y,z
1/2+x,1/2+y,z
1/2-x,1/2-y,z
1/2+x,1/2-y,-z
1/2-x,1/2+y,-z
1/2-x,1/2-y,-z
1/2+x,1/2+y,-z
1/2-x,1/2+y,z
1/2+x,1/2-y,z
loop_
_atom_site_type_symbol
_atom_site_label
_atom_site_fract_x
_atom_site_fract_y
_atom_site_fract_z
Si Si1 0.583942 0.866416 0.166712
Si Si2 0.827844 0.132700 0.112589
Si Si3 0.081378 0.260108 0.615633
Si Si4 0.715188 0.370847 0.661101
O O1 0.500000 0.859190 0.147232
O O2 0.622172 0.749101 0.121015
O O3 0.595210 0.852486 0.290786
O O4 0.608081 0.000000 0.133106
O O5 0.779126 0.132163 0.213864
O O6 0.864728 0.000000 0.118158
O O7 0.792443 0.135762 0.000000
O O8 0.092826 0.308424 0.500000
O O9 0.133243 0.148365 0.635267
O O10 0.000000 0.224026 0.623965
O O11 0.740966 0.500000 0.623958
O O12 0.750000 0.250000 0.619368
#
# Coordination Sequence:
#
# PCOD9492944 Si02
#       4
#    16  16  16  16
#     4   9  18  32  51  80 117 151 186 234 291 347
#     4   9  19  36  56  78 107 147 195 241 284 336
#     4   9  19  37  61  87 115 151 196 243 288 337
#     4  10  22  39  59  86 120 155 192 238 292 348
#
# _framework density 23.542263999999999
#
# number of rings (size 3 to 8) (size 9 to 14) (size 15 to 20)
#    0.000    2.750    0.000    0.000    0.000    8.000 
#    0.000   11.250    0.000    0.000    0.000    0.000 
#    0.000    0.000    0.000    0.000    0.000    0.000 
#
# Total GULP energy -178548.545045 kJ/mol
# GULP energy per Si atom -5579.642033 kJ/mol
# Density = 2.348868 g / cm^3
# Si number density = 23.542264 Si / 1000 Ang^3
#
#
#
# Elastic Constant Matrix: (Units=GPa)
#
#
# Indices 1 2 3 4 5 6 
#
# 1 40.0023 58.1852 7.7027 0.0000 0.0000 0.0000
# 2 58.1852 247.2085 15.3667 0.0000 0.0000 0.0000
# 3 7.7027 15.3667 130.4840 0.0000 0.0000 0.0000
# 4 0.0000 0.0000 0.0000 1.2958 0.0000 0.0000
# 5 0.0000 0.0000 0.0000 0.0000 -2.8993 0.0000
# 6 0.0000 0.0000 0.0000 0.0000 0.0000 30.5386
#
#
#
# Elastic Compliance Matrix: (Units=1/GPa)
#
#
# Indices 1 2 3 4 5 6 
#
# 1 0.038199 -0.008916 -0.001205 0.000000 0.000000 0.000000
# 2 -0.008916 0.006156 -0.000199 0.000000 0.000000 0.000000
# 3 -0.001205 -0.000199 0.007758 0.000000 0.000000 0.000000
# 4 0.000000 0.000000 0.000000 0.771730 0.000000 0.000000
# 5 0.000000 0.000000 0.000000 0.000000 -0.344916 0.000000
# 6 0.000000 0.000000 0.000000 0.000000 0.000000 0.032745
#
#
# Mechanical properties :
#
#
# Convention : Reuss Voigt Hill
#
# Bulk Modulus (GPa) = 31.77177 64.46709 48.11943
# Shear Modulus (GPa) = 9.21143 28.21637 18.71390
#
# Velocity S-wave (km/s) = 1.98021 3.46575 2.82247
# Velocity P-wave (km/s) = 4.33050 6.59229 5.57725
#
# Compressibility (1/GPa) = 0.03147449
#
# Stress axis : x y z
#
# Youngs Moduli (GPa) = 26.17840 162.44107 128.89418
#
# Poissons Ratio (x) = 1.44833 0.15531
# Poissons Ratio (y) = 0.23341 0.02561
# Poissons Ratio (z) = 0.03154 0.03227
#
# Static dielectric constant tensor:
#      x y z
#    x 1.908490 0.000000 0.000000 
#    y 0.000000 1.882750 0.000000 
#    z 0.000000 0.000000 1.925490 
# 
# From -- ./inp_files/45094.got.cif
#   From: 2010.05.17/outbox.cif.g08.bks.cpg/sg65_23_cif.got.tgz:45094.got - 2010.06.03 17:01:31.
