data_PCOD9492843
_publ_section_title
;
Structure prediction by ZEFSAII (Michael W. Deem and Ramdas Pophale) SiO2 
 PCOD9492843
Probable space group: C M M M
;
_chemical_formula_sum "Si O2"
_cell_formula_units_Z 52
_cell_length_a 15.361349
_cell_length_b 7.487504
_cell_length_c 24.941738
_cell_angle_alpha 90.000000
_cell_angle_beta 90.000000
_cell_angle_gamma 90.000000
_cell_volume 2868.752864
_symmetry_space_group_name_H-M "C M M M"
_symmetry_group_IT_number 65
_symmetry_cell_setting 'orthorhombic'
loop_
_space_group_symop_operation_xyz
x,y,z
-x,-y,z
x,-y,-z
-x,y,-z
-x,-y,-z
x,y,-z
-x,y,z
x,-y,z
1/2+x,1/2+y,z
1/2-x,1/2-y,z
1/2+x,1/2-y,-z
1/2-x,1/2+y,-z
1/2-x,1/2-y,-z
1/2+x,1/2+y,-z
1/2-x,1/2+y,z
1/2+x,1/2-y,z
loop_
_atom_site_type_symbol
_atom_site_label
_atom_site_fract_x
_atom_site_fract_y
_atom_site_fract_z
Si Si1 0.145913 0.212542 0.500000
Si Si2 0.900850 0.500000 0.218464
Si Si3 0.500000 0.282801 0.939106
Si Si4 0.500000 0.283386 0.414646
Si Si5 0.154354 0.210235 0.860622
Si Si6 0.000000 0.500000 0.677472
O O1 0.250000 0.250000 0.500000
O O2 0.086694 0.269044 0.448921
O O3 0.139763 0.000000 0.500000
O O4 0.856879 0.326294 0.193169
O O5 0.000000 0.500000 0.197218
O O6 0.917131 0.500000 0.282033
O O7 0.500000 0.500000 0.941319
O O8 0.416064 0.231868 0.904490
O O9 0.500000 0.217509 0.000000
O O10 0.500000 0.500000 0.407983
O O11 0.500000 0.173626 0.359906
O O12 0.250000 0.250000 0.882006
O O13 0.143184 0.000000 0.849855
#
# Coordination Sequence:
#
# PCOD9492843 Si02
#       6
#     8   8   8   8  16   4
#     4   9  19  34  59  87 116 153 197 225 266 343
#     4  10  22  40  59  86 108 147 208 233 282 346
#     4   9  19  35  55  86 118 146 184 234 293 346
#     4   9  20  38  57  86 119 156 185 229 287 329
#     4  11  21  37  63  82 112 153 192 238 285 346
#     4  10  22  37  64  80 117 148 192 244 288 330
#
# _framework density 18.126344
#
# number of rings (size 3 to 8) (size 9 to 14) (size 15 to 20)
#    0.462    1.692    3.077    0.923    2.154    2.462 
#    0.000    3.077    0.000    0.000    0.000    0.000 
#    0.000    0.000    0.000    0.000    0.000    0.000 
#
# Total GULP energy -144805.642521 kJ/mol
# GULP energy per Si atom -5569.447789 kJ/mol
# Density = 1.808509 g / cm^3
# Si number density = 18.126344 Si / 1000 Ang^3
#
#
#
# Elastic Constant Matrix: (Units=GPa)
#
#
# Indices 1 2 3 4 5 6 
#
# 1 155.1120 23.0358 66.9862 0.0000 0.0000 0.0000
# 2 23.0358 98.7877 56.0877 0.0000 0.0000 0.0000
# 3 66.9862 56.0877 155.0523 0.0000 0.0000 0.0000
# 4 0.0000 0.0000 0.0000 -39.0544 0.0000 0.0000
# 5 0.0000 0.0000 0.0000 0.0000 2.6906 0.0000
# 6 0.0000 0.0000 0.0000 0.0000 0.0000 2.8462
#
#
#
# Elastic Compliance Matrix: (Units=1/GPa)
#
#
# Indices 1 2 3 4 5 6 
#
# 1 0.007927 0.000121 -0.003468 0.000000 0.000000 0.000000
# 2 0.000121 0.012741 -0.004661 0.000000 0.000000 0.000000
# 3 -0.003468 -0.004661 0.009634 0.000000 0.000000 0.000000
# 4 0.000000 0.000000 0.000000 -0.025605 0.000000 0.000000
# 5 0.000000 0.000000 0.000000 0.000000 0.371669 0.000000
# 6 0.000000 0.000000 0.000000 0.000000 0.000000 0.351352
#
#
# Mechanical properties :
#
#
# Convention : Reuss Voigt Hill
#
# Bulk Modulus (GPa) = 70.00572 77.90793 73.95683
# Shear Modulus (GPa) = 6.68007 10.81930 8.74968
#
# Velocity S-wave (km/s) = 1.92179 2.44577 2.19944
# Velocity P-wave (km/s) = 6.60524 7.14489 6.88036
#
# Compressibility (1/GPa) = 0.01428455
#
# Stress axis : x y z
#
# Youngs Moduli (GPa) = 126.15420 78.48759 103.80104
#
# Poissons Ratio (x) = -0.00947 0.36001
# Poissons Ratio (y) = -0.01523 0.48381
# Poissons Ratio (z) = 0.43753 0.36583
#
# Static dielectric constant tensor:
#      x y z
#    x 1.653380 0.000000 0.000000 
#    y 0.000000 1.669660 0.000000 
#    z 0.000000 0.000000 1.600460 
# 
# From -- ./inp_files/62131.got.cif
#   From: 2010.05.17/outbox.cif.g08.bks.cpg/sg65_32_cif.got.tgz:62131.got - 2010.06.03 17:01:31.
