data_PCOD9492719
_publ_section_title
;
Structure prediction by ZEFSAII (Michael W. Deem and Ramdas Pophale) SiO2 
 PCOD9492719
Probable space group: C M M M
;
_chemical_formula_sum "Si O2"
_cell_formula_units_Z 68
_cell_length_a 19.731519
_cell_length_b 9.424840
_cell_length_c 19.451881
_cell_angle_alpha 90.000000
_cell_angle_beta 90.000000
_cell_angle_gamma 90.000000
_cell_volume 3617.396468
_symmetry_space_group_name_H-M "C M M M"
_symmetry_group_IT_number 65
_symmetry_cell_setting 'orthorhombic'
loop_
_space_group_symop_operation_xyz
x,y,z
-x,-y,z
x,-y,-z
-x,y,-z
-x,-y,-z
x,y,-z
-x,y,z
x,-y,z
1/2+x,1/2+y,z
1/2-x,1/2-y,z
1/2+x,1/2-y,-z
1/2-x,1/2+y,-z
1/2-x,1/2-y,-z
1/2+x,1/2+y,-z
1/2-x,1/2+y,z
1/2+x,1/2-y,z
loop_
_atom_site_type_symbol
_atom_site_label
_atom_site_fract_x
_atom_site_fract_y
_atom_site_fract_z
Si Si1 0.727110 0.000000 0.000000
Si Si2 0.679803 0.831381 0.601445
Si Si3 0.317369 0.164202 0.233939
Si Si4 0.920002 0.161090 0.853532
Si Si5 0.645297 0.284953 0.000000
Si Si6 0.581489 0.671061 0.500000
O O1 0.669341 0.875969 0.000000
O O2 0.787778 0.880348 0.000000
O O3 0.750000 0.750000 0.583417
O O4 0.672966 0.823396 0.683961
O O5 0.618845 0.748479 0.563996
O O6 0.682238 0.000000 0.583378
O O7 0.250000 0.250000 0.214295
O O8 0.379697 0.230482 0.193889
O O9 0.307982 0.000000 0.215991
O O10 0.897085 0.181716 0.931743
O O11 0.000000 0.179023 0.847068
O O12 0.901998 0.000000 0.832370
O O13 0.593720 0.500000 0.500000
O O14 0.500000 0.692444 0.500000
#
# Coordination Sequence:
#
# PCOD9492719 Si02
#       6
#     4  16  16  16   8   8
#     4  10  24  38  64  90 116 148 198 252 304 344
#     4  10  21  40  63  90 120 157 197 246 297 349
#     4  10  23  40  63  90 120 154 200 248 295 351
#     4  11  24  41  61  85 121 163 198 242 299 360
#     4  11  23  41  60  91 117 154 197 250 303 356
#     4  11  24  39  60  89 123 161 200 243 290 351
#
# _framework density 18.798048999999999
#
# number of rings (size 3 to 8) (size 9 to 14) (size 15 to 20)
#    0.000    1.529    1.176    2.471    4.941    6.118 
#    0.000    5.294    0.000    0.000    0.000    0.000 
#    0.000    0.000    0.000    0.000    0.000    0.000 
#
# Total GULP energy -189442.763011 kJ/mol
# GULP energy per Si atom -5571.845971 kJ/mol
# Density = 1.875526 g / cm^3
# Si number density = 18.798049 Si / 1000 Ang^3
#
#
#
# Elastic Constant Matrix: (Units=GPa)
#
#
# Indices 1 2 3 4 5 6 
#
# 1 112.5671 89.6713 37.2521 0.0000 0.0000 0.0000
# 2 89.6713 207.3595 46.1712 0.0000 0.0000 0.0000
# 3 37.2521 46.1712 56.7576 0.0000 0.0000 0.0000
# 4 0.0000 0.0000 0.0000 72.4670 0.0000 0.0000
# 5 0.0000 0.0000 0.0000 0.0000 8.8342 0.0000
# 6 0.0000 0.0000 0.0000 0.0000 0.0000 38.0961
#
#
#
# Elastic Compliance Matrix: (Units=1/GPa)
#
#
# Indices 1 2 3 4 5 6 
#
# 1 0.014846 -0.005190 -0.005521 0.000000 0.000000 0.000000
# 2 -0.005190 0.007704 -0.002860 0.000000 0.000000 0.000000
# 3 -0.005521 -0.002860 0.023570 0.000000 0.000000 0.000000
# 4 0.000000 0.000000 0.000000 0.013799 0.000000 0.000000
# 5 0.000000 0.000000 0.000000 0.000000 0.113196 0.000000
# 6 0.000000 0.000000 0.000000 0.000000 0.000000 0.026249
#
#
# Mechanical properties :
#
#
# Convention : Reuss Voigt Hill
#
# Bulk Modulus (GPa) = 52.70172 80.31927 66.51049
# Shear Modulus (GPa) = 21.47461 37.45209 29.46335
#
# Velocity S-wave (km/s) = 3.38359 4.46841 3.96329
# Velocity P-wave (km/s) = 6.58494 8.33321 7.51012
#
# Compressibility (1/GPa) = 0.01897471
#
# Stress axis : x y z
#
# Youngs Moduli (GPa) = 67.36039 129.80229 42.42764
#
# Poissons Ratio (x) = 0.67373 0.23426
# Poissons Ratio (y) = 0.34963 0.12136
# Poissons Ratio (z) = 0.37192 0.37129
#
# Static dielectric constant tensor:
#      x y z
#    x 1.601880 0.000000 0.000000 
#    y 0.000000 1.646060 0.000000 
#    z 0.000000 0.000000 1.620400 
# 
# From -- ./inp_files/63383.got.cif
#   From: 2010.05.17/outbox.cif.g08.bks.cpg/sg65_32_cif.got.tgz:63383.got - 2010.06.03 17:01:31.
