data_PCOD9492437
_publ_section_title
;
Structure prediction by ZEFSAII (Michael W. Deem and Ramdas Pophale) SiO2 
 PCOD9492437
Probable space group: C M M M
;
_chemical_formula_sum "Si O2"
_cell_formula_units_Z 72
_cell_length_a 19.558063
_cell_length_b 23.364534
_cell_length_c 8.443351
_cell_angle_alpha 90.000000
_cell_angle_beta 90.000000
_cell_angle_gamma 90.000000
_cell_volume 3858.316126
_symmetry_space_group_name_H-M "C M M M"
_symmetry_group_IT_number 65
_symmetry_cell_setting 'orthorhombic'
loop_
_space_group_symop_operation_xyz
x,y,z
-x,-y,z
x,-y,-z
-x,y,-z
-x,-y,-z
x,y,-z
-x,y,z
x,-y,z
1/2+x,1/2+y,z
1/2-x,1/2-y,z
1/2+x,1/2-y,-z
1/2-x,1/2+y,-z
1/2-x,1/2-y,-z
1/2+x,1/2+y,-z
1/2-x,1/2+y,z
1/2+x,1/2-y,z
loop_
_atom_site_type_symbol
_atom_site_label
_atom_site_fract_x
_atom_site_fract_y
_atom_site_fract_z
Si Si1 0.322741 0.565541 0.689964
Si Si2 0.173016 0.398281 0.809924
Si Si3 0.578517 0.335828 0.191737
Si Si4 0.326343 0.231641 0.806900
Si Si5 0.921586 0.500000 0.689685
O O1 0.320720 0.567460 0.500000
O O2 0.336091 0.500000 0.739429
O O3 0.248769 0.584385 0.754133
O O4 0.379652 0.609170 0.751193
O O5 0.158742 0.333201 0.756383
O O6 0.119101 0.444204 0.747473
O O7 0.172043 0.399402 0.000000
O O8 0.500000 0.336186 0.244992
O O9 0.619131 0.278985 0.245067
O O10 0.579039 0.335791 0.000000
O O11 0.250000 0.250000 0.756809
O O12 0.326267 0.231815 0.000000
O O13 0.921275 0.500000 0.500000
O O14 0.000000 0.500000 0.745975
#
# Coordination Sequence:
#
# PCOD9492437 Si02
#       5
#    16  16  16  16   8
#     4  11  23  38  58  84 118 157 195 239 296 356
#     4  11  21  36  64  92 115 150 200 248 286 343
#     4  10  21  38  60  86 117 152 194 247 300 348
#     4   9  17  33  58  88 117 146 187 242 300 348
#     4  11  25  43  59  83 126 165 192 237 299 351
#
# _framework density 18.660990000000002
#
# number of rings (size 3 to 8) (size 9 to 14) (size 15 to 20)
#    0.000    1.667    3.333    1.667    0.000    4.000 
#    0.000    7.778    0.000    0.000    0.000    0.000 
#    0.000    0.000    0.000    0.000    0.000    0.000 
#
# Total GULP energy -201109.698976 kJ/mol
# GULP energy per Si atom -5586.380527 kJ/mol
# Density = 1.861852 g / cm^3
# Si number density = 18.660990 Si / 1000 Ang^3
#
#
#
# Elastic Constant Matrix: (Units=GPa)
#
#
# Indices 1 2 3 4 5 6 
#
# 1 196.3032 123.1449 31.0740 0.0000 0.0000 0.0000
# 2 123.1449 226.2333 32.5142 0.0000 0.0000 0.0000
# 3 31.0740 32.5142 23.2679 0.0000 0.0000 0.0000
# 4 0.0000 0.0000 0.0000 -136.2335 0.0000 0.0000
# 5 0.0000 0.0000 0.0000 0.0000 22.0140 0.0000
# 6 0.0000 0.0000 0.0000 0.0000 0.0000 7.7525
#
#
#
# Elastic Compliance Matrix: (Units=1/GPa)
#
#
# Indices 1 2 3 4 5 6 
#
# 1 0.008358 -0.003685 -0.006012 0.000000 0.000000 0.000000
# 2 -0.003685 0.007156 -0.005078 0.000000 0.000000 0.000000
# 3 -0.006012 -0.005078 0.058102 0.000000 0.000000 0.000000
# 4 0.000000 0.000000 0.000000 -0.007340 0.000000 0.000000
# 5 0.000000 0.000000 0.000000 0.000000 0.045426 0.000000
# 6 0.000000 0.000000 0.000000 0.000000 0.000000 0.128990
#
#
# Mechanical properties :
#
#
# Convention : Reuss Voigt Hill
#
# Bulk Modulus (GPa) = 22.69337 91.03005 56.86171
# Shear Modulus (GPa) = 17.54815 -4.02196 6.76310
#
# Velocity S-wave (km/s) = 3.06987 -1.46968 1.90580
# Velocity P-wave (km/s) = 4.97521 6.78284 5.94809
#
# Compressibility (1/GPa) = 0.04406573
#
# Stress axis : x y z
#
# Youngs Moduli (GPa) = 119.65090 139.74222 17.21102
#
# Poissons Ratio (x) = 0.51499 0.10347
# Poissons Ratio (y) = 0.44095 0.08740
# Poissons Ratio (z) = 0.71931 0.70962
#
# Static dielectric constant tensor:
#      x y z
#    x 1.610070 0.000000 0.000000 
#    y 0.000000 1.643430 0.000000 
#    z 0.000000 0.000000 1.641900 
# 
# From -- ./inp_files/9278.got.cif
#   From: 2010.05.17/outbox.cif.g08.bks.cpg/sg65_5_cif.got.tgz:9278.got - 2010.06.03 17:01:31.
