data_PCOD9492766
_publ_section_title
;
Structure prediction by ZEFSAII (Michael W. Deem and Ramdas Pophale) SiO2 
 PCOD9492766
Probable space group: C M M M
;
_chemical_formula_sum "Si O2"
_cell_formula_units_Z 66
_cell_length_a 16.557619
_cell_length_b 8.666887
_cell_length_c 24.457456
_cell_angle_alpha 90.000000
_cell_angle_beta 90.000000
_cell_angle_gamma 90.000000
_cell_volume 3509.718623
_symmetry_space_group_name_H-M "C M M M"
_symmetry_group_IT_number 65
_symmetry_cell_setting 'orthorhombic'
loop_
_space_group_symop_operation_xyz
x,y,z
-x,-y,z
x,-y,-z
-x,y,-z
-x,-y,-z
x,y,-z
-x,y,z
x,-y,z
1/2+x,1/2+y,z
1/2-x,1/2-y,z
1/2+x,1/2-y,-z
1/2-x,1/2+y,-z
1/2-x,1/2-y,-z
1/2+x,1/2+y,-z
1/2-x,1/2+y,z
1/2+x,1/2-y,z
loop_
_atom_site_type_symbol
_atom_site_label
_atom_site_fract_x
_atom_site_fract_y
_atom_site_fract_z
Si Si1 0.500000 0.000000 0.000000
Si Si2 0.596199 0.174522 0.500000
Si Si3 0.408969 0.687604 0.727234
Si Si4 0.000000 0.670727 0.886669
Si Si5 0.336329 0.685298 0.839376
Si Si6 0.839504 0.815088 0.388157
O O1 0.500000 0.868047 0.951033
O O2 0.500000 0.168820 0.500000
O O3 0.623596 0.257599 0.555140
O O4 0.629367 0.000000 0.500000
O O5 0.500000 0.736190 0.740908
O O6 0.408124 0.500000 0.726658
O O7 0.349938 0.735386 0.776010
O O8 0.386021 0.738741 0.666398
O O9 0.917091 0.756144 0.870049
O O10 0.000000 0.500000 0.859324
O O11 0.334264 0.500000 0.842014
O O12 0.250000 0.750000 0.859138
O O13 0.750000 0.750000 0.384244
O O14 0.838952 0.000000 0.388267
#
# Coordination Sequence:
#
# PCOD9492766 Si02
#       6
#     2   8  16   8  16  16
#     4   8  24  44  74  88 140 166 222 270 312 360
#     4  11  24  41  58  77 105 145 192 255 310 375
#     4   9  18  34  57  88 122 159 200 254 309 373
#     4  10  21  43  67  93 129 171 213 264 311 367
#     4  11  21  37  65  98 134 172 214 263 322 382
#     4  11  22  37  58  81 113 151 197 248 306 372
#
# _framework density 18.804925999999998
#
# number of rings (size 3 to 8) (size 9 to 14) (size 15 to 20)
#    0.364    1.333    1.212    4.000    0.000    1.939 
#    0.000    5.455    0.000    0.000    0.000    0.000 
#    0.000    0.000    0.000    0.000    0.000    0.000 
#
# Total GULP energy -183839.954618 kJ/mol
# GULP energy per Si atom -5570.907716 kJ/mol
# Density = 1.876213 g / cm^3
# Si number density = 18.804926 Si / 1000 Ang^3
#
#
#
# Elastic Constant Matrix: (Units=GPa)
#
#
# Indices 1 2 3 4 5 6 
#
# 1 138.0163 39.3452 46.1921 0.0000 0.0000 0.0000
# 2 39.3452 75.8945 32.0787 0.0000 0.0000 0.0000
# 3 46.1921 32.0787 122.6174 0.0000 0.0000 0.0000
# 4 0.0000 0.0000 0.0000 29.3095 0.0000 0.0000
# 5 0.0000 0.0000 0.0000 0.0000 4.8484 0.0000
# 6 0.0000 0.0000 0.0000 0.0000 0.0000 -156.5371
#
#
#
# Elastic Compliance Matrix: (Units=1/GPa)
#
#
# Indices 1 2 3 4 5 6 
#
# 1 0.009124 -0.003685 -0.002473 0.000000 0.000000 0.000000
# 2 -0.003685 0.016302 -0.002877 0.000000 0.000000 0.000000
# 3 -0.002473 -0.002877 0.009840 0.000000 0.000000 0.000000
# 4 0.000000 0.000000 0.000000 0.034119 0.000000 0.000000
# 5 0.000000 0.000000 0.000000 0.000000 0.206254 0.000000
# 6 0.000000 0.000000 0.000000 0.000000 0.000000 -0.006388
#
#
# Mechanical properties :
#
#
# Convention : Reuss Voigt Hill
#
# Bulk Modulus (GPa) = 58.15110 63.52893 60.84001
# Shear Modulus (GPa) = 17.06185 -9.88169 3.59008
#
# Velocity S-wave (km/s) = 3.01542 -2.29483 1.38321
# Velocity P-wave (km/s) = 6.56614 5.18023 5.91392
#
# Compressibility (1/GPa) = 0.01719658
#
# Stress axis : x y z
#
# Youngs Moduli (GPa) = 109.60579 61.34090 101.62858
#
# Poissons Ratio (x) = 0.22601 0.25134
# Poissons Ratio (y) = 0.40385 0.29238
# Poissons Ratio (z) = 0.27106 0.17647
#
# Static dielectric constant tensor:
#      x y z
#    x 1.649450 0.000000 0.000000 
#    y 0.000000 1.654140 0.000000 
#    z 0.000000 0.000000 1.719000 
# 
# From -- ./inp_files/74543.got.cif
#   From: 2010.05.17/outbox.cif.g08.bks.cpg/sg65_38_cif.got.tgz:74543.got - 2010.06.03 17:01:31.
