data_PCOD9492625
_publ_section_title
;
Structure prediction by ZEFSAII (Michael W. Deem and Ramdas Pophale) SiO2 
 PCOD9492625
Probable space group: C M M M
;
_chemical_formula_sum "Si O2"
_cell_formula_units_Z 100
_cell_length_a 20.376063
_cell_length_b 8.025621
_cell_length_c 30.458893
_cell_angle_alpha 90.000000
_cell_angle_beta 90.000000
_cell_angle_gamma 90.000000
_cell_volume 4980.959802
_symmetry_space_group_name_H-M "C M M M"
_symmetry_group_IT_number 65
_symmetry_cell_setting 'orthorhombic'
loop_
_space_group_symop_operation_xyz
x,y,z
-x,-y,z
x,-y,-z
-x,y,-z
-x,-y,-z
x,y,-z
-x,y,z
x,-y,z
1/2+x,1/2+y,z
1/2-x,1/2-y,z
1/2+x,1/2-y,-z
1/2-x,1/2+y,-z
1/2-x,1/2-y,-z
1/2+x,1/2+y,-z
1/2-x,1/2+y,z
1/2+x,1/2-y,z
loop_
_atom_site_type_symbol
_atom_site_label
_atom_site_fract_x
_atom_site_fract_y
_atom_site_fract_z
Si Si1 0.426063 0.796288 0.949234
Si Si2 0.500000 0.000000 0.441450
Si Si3 0.074466 0.805901 0.194583
Si Si4 0.606200 0.305036 0.550306
Si Si5 0.174801 0.305311 0.877398
Si Si6 0.426603 0.806164 0.708654
Si Si7 0.823025 0.805994 0.360917
O O1 0.500000 0.744681 0.935500
O O2 0.369104 0.732083 0.917271
O O3 0.426004 0.000000 0.948114
O O4 0.416291 0.747976 0.000000
O O5 0.555930 0.848796 0.443451
O O6 0.130886 0.723248 0.165829
O O7 0.088506 0.789012 0.246417
O O8 0.000000 0.738094 0.187327
O O9 0.073638 0.000000 0.182947
O O10 0.629599 0.296007 0.500000
O O11 0.581164 0.500000 0.555937
O O12 0.659957 0.281372 0.588063
O O13 0.178463 0.500000 0.885898
O O14 0.250000 0.250000 0.873543
O O15 0.500000 0.757133 0.693648
O O16 0.375920 0.782745 0.669723
O O17 0.427964 0.000000 0.720790
O O18 0.750000 0.750000 0.350916
O O19 0.829631 0.000000 0.350972
#
# Coordination Sequence:
#
# PCOD9492625 Si02
#       7
#    16   4  16  16  16  16  16
#     4   8  15  30  53  80 109 145 191 241 291 344
#     4  12  23  38  68  98 126 164 204 256 312 366
#     4  10  21  39  62  87 116 148 188 238 294 352
#     4  10  23  41  62  94 130 163 205 255 307 365
#     4  11  22  35  54  82 116 154 196 239 288 345
#     4  10  22  40  65  93 120 151 193 242 295 357
#     4  11  25  42  62  88 123 163 204 249 298 358
#
# _framework density 20.076453000000001
#
# number of rings (size 3 to 8) (size 9 to 14) (size 15 to 20)
#    0.000    1.920    0.000    3.840    3.360    4.480 
#    0.000    3.200    0.000    1.440    0.000    5.600 
#    0.000    0.000    0.000    0.000    0.000    0.000 
#
# Total GULP energy -278381.093240 kJ/mol
# GULP energy per Si atom -5567.621865 kJ/mol
# Density = 2.003076 g / cm^3
# Si number density = 20.076453 Si / 1000 Ang^3
#
#
#
# Elastic Constant Matrix: (Units=GPa)
#
#
# Indices 1 2 3 4 5 6 
#
# 1 143.4038 17.2017 79.8781 0.0000 0.0000 0.0000
# 2 17.2017 58.4525 8.1427 0.0000 0.0000 0.0000
# 3 79.8781 8.1427 78.9235 0.0000 0.0000 0.0000
# 4 0.0000 0.0000 0.0000 5.1499 0.0000 0.0000
# 5 0.0000 0.0000 0.0000 0.0000 -5.3372 0.0000
# 6 0.0000 0.0000 0.0000 0.0000 0.0000 20.5271
#
#
#
# Elastic Compliance Matrix: (Units=1/GPa)
#
#
# Indices 1 2 3 4 5 6 
#
# 1 0.016349 -0.002543 -0.016284 0.000000 0.000000 0.000000
# 2 -0.002543 0.017753 0.000742 0.000000 0.000000 0.000000
# 3 -0.016284 0.000742 0.029075 0.000000 0.000000 0.000000
# 4 0.000000 0.000000 0.000000 0.194177 0.000000 0.000000
# 5 0.000000 0.000000 0.000000 0.000000 -0.187363 0.000000
# 6 0.000000 0.000000 0.000000 0.000000 0.000000 0.048716
#
#
# Mechanical properties :
#
#
# Convention : Reuss Voigt Hill
#
# Bulk Modulus (GPa) = 37.02785 54.58052 45.80419
# Shear Modulus (GPa) = 30.51011 15.77178 23.14095
#
# Velocity S-wave (km/s) = 3.90256 2.80587 3.39874
# Velocity P-wave (km/s) = 6.22817 6.14350 6.18598
#
# Compressibility (1/GPa) = 0.02700670
#
# Stress axis : x y z
#
# Youngs Moduli (GPa) = 61.16591 56.32895 34.39345
#
# Poissons Ratio (x) = 0.14323 0.56008
# Poissons Ratio (y) = 0.15553 -0.02552
# Poissons Ratio (z) = 0.99605 -0.04179
#
# Static dielectric constant tensor:
#      x y z
#    x 1.694310 0.000000 0.000000 
#    y 0.000000 1.729090 0.000000 
#    z 0.000000 0.000000 1.701810 
# 
# From -- ./inp_files/75501.got.cif
#   From: 2010.05.17/outbox.cif.g08.bks.cpg/sg65_38_cif.got.tgz:75501.got - 2010.06.03 17:01:31.
