data_PCOD9492155
_publ_section_title
;
Structure prediction by ZEFSAII (Michael W. Deem and Ramdas Pophale) SiO2 
 PCOD9492155
Probable space group: C M M M
;
_chemical_formula_sum "Si O2"
_cell_formula_units_Z 104
_cell_length_a 19.818897
_cell_length_b 26.734392
_cell_length_c 8.295635
_cell_angle_alpha 90.000000
_cell_angle_beta 90.000000
_cell_angle_gamma 90.000000
_cell_volume 4395.410361
_symmetry_space_group_name_H-M "C M M M"
_symmetry_group_IT_number 65
_symmetry_cell_setting 'orthorhombic'
loop_
_space_group_symop_operation_xyz
x,y,z
-x,-y,z
x,-y,-z
-x,y,-z
-x,-y,-z
x,y,-z
-x,y,z
x,-y,z
1/2+x,1/2+y,z
1/2-x,1/2-y,z
1/2+x,1/2-y,-z
1/2-x,1/2+y,-z
1/2-x,1/2-y,-z
1/2+x,1/2+y,-z
1/2-x,1/2+y,z
1/2+x,1/2-y,z
loop_
_atom_site_type_symbol
_atom_site_label
_atom_site_fract_x
_atom_site_fract_y
_atom_site_fract_z
Si Si1 0.077413 0.901349 0.827535
Si Si2 0.427364 0.081812 0.692565
Si Si3 0.922042 0.059008 0.500000
Si Si4 0.102715 0.798603 0.686697
Si Si5 0.277783 0.054092 0.303312
Si Si6 0.604148 0.191478 0.812558
Si Si7 0.253596 0.834281 0.690917
O O1 0.110063 0.922445 0.664994
O O2 0.074599 0.841980 0.800111
O O3 0.000000 0.920735 0.830806
O O4 0.108591 0.913526 0.000000
O O5 0.427798 0.074755 0.500000
O O6 0.500000 0.063613 0.755874
O O7 0.356904 0.057989 0.747927
O O8 0.422064 0.140936 0.730108
O O9 0.000000 0.077453 0.500000
O O10 0.922477 0.000000 0.500000
O O11 0.085683 0.809460 0.500000
O O12 0.081439 0.743122 0.732630
O O13 0.183566 0.805381 0.703964
O O14 0.274979 0.053704 0.500000
O O15 0.247468 0.107753 0.254840
O O16 0.250484 0.000000 0.248837
O O17 0.685076 0.189083 0.788563
O O18 0.586679 0.190917 0.000000
O O19 0.272647 0.833942 0.500000
#
# Coordination Sequence:
#
# PCOD9492155 Si02
#       7
#    16  16   8  16  16  16  16
#     4  10  21  37  57  84 116 146 183 231 280 337
#     4   9  18  33  52  76 107 142 182 226 271 327
#     4   9  18  36  60  82 107 142 182 222 269 324
#     4  11  21  35  56  78 109 147 185 228 281 340
#     4   8  14  28  52  80 108 137 173 221 274 324
#     4  11  22  34  51  76 105 142 184 230 280 332
#     4   9  19  35  54  77 107 139 182 228 274 331
#
# _framework density 23.661042999999999
#
# number of rings (size 3 to 8) (size 9 to 14) (size 15 to 20)
#    0.000    2.385    0.769    3.231    0.000    4.615 
#    0.000    3.846    0.000    7.385    0.000    4.308 
#    0.000    0.000    0.000    0.000    0.000    0.000 
#
# Total GULP energy -290543.581281 kJ/mol
# GULP energy per Si atom -5587.376563 kJ/mol
# Density = 2.360719 g / cm^3
# Si number density = 23.661043 Si / 1000 Ang^3
#
#
#
# Elastic Constant Matrix: (Units=GPa)
#
#
# Indices 1 2 3 4 5 6 
#
# 1 74.6478 -7.4709 7.4000 0.0000 0.0000 0.0000
# 2 -7.4709 114.1429 11.0715 0.0000 0.0000 0.0000
# 3 7.4000 11.0715 92.6264 0.0000 0.0000 0.0000
# 4 0.0000 0.0000 0.0000 -25.4246 0.0000 0.0000
# 5 0.0000 0.0000 0.0000 0.0000 -10.8337 0.0000
# 6 0.0000 0.0000 0.0000 0.0000 0.0000 7.2637
#
#
#
# Elastic Compliance Matrix: (Units=1/GPa)
#
#
# Indices 1 2 3 4 5 6 
#
# 1 0.013617 0.001008 -0.001208 0.000000 0.000000 0.000000
# 2 0.001008 0.008938 -0.001149 0.000000 0.000000 0.000000
# 3 -0.001208 -0.001149 0.011030 0.000000 0.000000 0.000000
# 4 0.000000 0.000000 0.000000 -0.039332 0.000000 0.000000
# 5 0.000000 0.000000 0.000000 0.000000 -0.092305 0.000000
# 6 0.000000 0.000000 0.000000 0.000000 0.000000 0.137672
#
#
# Mechanical properties :
#
#
# Convention : Reuss Voigt Hill
#
# Bulk Modulus (GPa) = 32.37557 33.71316 33.04436
# Shear Modulus (GPa) = 95.03215 12.22884 53.63049
#
# Velocity S-wave (km/s) = 6.34438 2.27587 4.76606
# Velocity P-wave (km/s) = 8.20859 4.60276 6.65456
#
# Compressibility (1/GPa) = 0.03088749
#
# Stress axis : x y z
#
# Youngs Moduli (GPa) = 73.43780 111.87687 90.66238
#
# Poissons Ratio (x) = -0.11282 0.10956
# Poissons Ratio (y) = -0.07406 0.10417
# Poissons Ratio (z) = 0.08874 0.12854
#
# Static dielectric constant tensor:
#      x y z
#    x 1.969950 0.000000 0.000000 
#    y 0.000000 1.863600 0.000000 
#    z 0.000000 0.000000 1.870300 
# 
# From -- ./inp_files/16727.got.cif
#   From: 2010.05.17/outbox.cif.g08.bks.cpg/sg65_9_cif.got.tgz:16727.got - 2010.06.03 17:01:31.
