data_PCOD9492793
_publ_section_title
;
Structure prediction by ZEFSAII (Michael W. Deem and Ramdas Pophale) SiO2 
 PCOD9492793
Probable space group: C M M M
;
_chemical_formula_sum "Si O2"
_cell_formula_units_Z 80
_cell_length_a 9.206502
_cell_length_b 25.481792
_cell_length_c 20.682393
_cell_angle_alpha 90.000000
_cell_angle_beta 90.000000
_cell_angle_gamma 90.000000
_cell_volume 4852.051529
_symmetry_space_group_name_H-M "C M M M"
_symmetry_group_IT_number 65
_symmetry_cell_setting 'orthorhombic'
loop_
_space_group_symop_operation_xyz
x,y,z
-x,-y,z
x,-y,-z
-x,y,-z
-x,-y,-z
x,y,-z
-x,y,z
x,-y,z
1/2+x,1/2+y,z
1/2-x,1/2-y,z
1/2+x,1/2-y,-z
1/2-x,1/2+y,-z
1/2-x,1/2-y,-z
1/2+x,1/2+y,-z
1/2-x,1/2+y,z
1/2+x,1/2-y,z
loop_
_atom_site_type_symbol
_atom_site_label
_atom_site_fract_x
_atom_site_fract_y
_atom_site_fract_z
Si Si1 0.325824 0.893758 0.244436
Si Si2 0.173689 0.306444 0.000000
Si Si3 0.674516 0.806305 0.500000
Si Si4 0.833230 0.000000 0.756799
Si Si5 0.826157 0.606849 0.395979
Si Si6 0.325127 0.806585 0.858159
Si Si7 0.667037 0.500000 0.400393
O O1 0.500000 0.900100 0.239695
O O2 0.248935 0.947312 0.223208
O O3 0.291962 0.884532 0.320202
O O4 0.281381 0.845819 0.198765
O O5 0.250000 0.250000 0.000000
O O6 0.210562 0.329896 0.070287
O O7 0.000000 0.299545 0.000000
O O8 0.500000 0.799142 0.500000
O O9 0.750000 0.750000 0.500000
O O10 0.713339 0.842622 0.438409
O O11 0.830547 0.000000 0.678204
O O12 0.000000 0.000000 0.777658
O O13 0.747756 0.553680 0.419133
O O14 0.000000 0.599015 0.401817
O O15 0.500000 0.799811 0.854781
O O16 0.250000 0.750000 0.852130
O O17 0.500000 0.500000 0.421369
#
# Coordination Sequence:
#
# PCOD9492793 Si02
#       7
#    16   8   8   8  16  16   8
#     4   9  17  30  48  68  90 118 151 184 219 263
#     4   8  14  26  42  61  88 117 145 180 220 262
#     4  10  22  37  50  65  89 124 158 184 219 266
#     4   9  17  29  46  69  94 118 146 183 226 266
#     4   9  18  33  50  67  90 120 151 183 222 268
#     4   9  17  28  44  67  92 118 148 182 222 265
#     4   9  17  30  50  75  95 111 141 187 232 267
#
# _framework density 16.487871999999999
#
# number of rings (size 3 to 8) (size 9 to 14) (size 15 to 20)
#    0.000    3.000    0.000    0.600    0.000    5.200 
#    0.000    2.000    0.000    0.600    0.000    4.200 
#    0.000    0.000    0.000    0.000    0.000    0.000 
#
# Total GULP energy -222760.248136 kJ/mol
# GULP energy per Si atom -5569.006203 kJ/mol
# Density = 1.645034 g / cm^3
# Si number density = 16.487872 Si / 1000 Ang^3
#
#
#
# Elastic Constant Matrix: (Units=GPa)
#
#
# Indices 1 2 3 4 5 6 
#
# 1 28.0430 51.3801 37.6168 0.0000 0.0000 0.0000
# 2 51.3801 150.6278 78.2058 0.0000 0.0000 0.0000
# 3 37.6168 78.2058 103.1577 0.0000 0.0000 0.0000
# 4 0.0000 0.0000 0.0000 -13.4476 0.0000 0.0000
# 5 0.0000 0.0000 0.0000 0.0000 11.8517 0.0000
# 6 0.0000 0.0000 0.0000 0.0000 0.0000 30.5489
#
#
#
# Elastic Compliance Matrix: (Units=1/GPa)
#
#
# Indices 1 2 3 4 5 6 
#
# 1 0.116232 -0.029093 -0.020328 0.000000 0.000000 0.000000
# 2 -0.029093 0.018230 -0.003212 0.000000 0.000000 0.000000
# 3 -0.020328 -0.003212 0.019542 0.000000 0.000000 0.000000
# 4 0.000000 0.000000 0.000000 -0.074362 0.000000 0.000000
# 5 0.000000 0.000000 0.000000 0.000000 0.084376 0.000000
# 6 0.000000 0.000000 0.000000 0.000000 0.000000 0.032734
#
#
# Mechanical properties :
#
#
# Convention : Reuss Voigt Hill
#
# Bulk Modulus (GPa) = 20.51810 68.47043 44.49426
# Shear Modulus (GPa) = 15.71019 13.43231 14.57125
#
# Velocity S-wave (km/s) = 3.09015 2.85735 2.97603
# Velocity P-wave (km/s) = 5.02030 7.24596 6.23327
#
# Compressibility (1/GPa) = 0.04873746
#
# Stress axis : x y z
#
# Youngs Moduli (GPa) = 8.60347 54.85374 51.17268
#
# Poissons Ratio (x) = 1.59586 1.04026
# Poissons Ratio (y) = 0.25030 0.16436
# Poissons Ratio (z) = 0.17490 0.17618
#
# Static dielectric constant tensor:
#      x y z
#    x 1.548920 0.000000 0.000000 
#    y 0.000000 1.509960 0.000000 
#    z 0.000000 0.000000 1.590800 
# 
# From -- ./inp_files/59719.got.cif
#   From: 2010.05.17/outbox.cif.g08.bks.cpg/sg65_30_cif.got.tgz:59719.got - 2010.06.03 17:01:31.
