data_PCOD9492543
_publ_section_title
;
Structure prediction by ZEFSAII (Michael W. Deem and Ramdas Pophale) SiO2 
 PCOD9492543
Probable space group: C M M M
;
_chemical_formula_sum "Si O2"
_cell_formula_units_Z 72
_cell_length_a 8.807310
_cell_length_b 15.649694
_cell_length_c 28.286582
_cell_angle_alpha 90.000000
_cell_angle_beta 90.000000
_cell_angle_gamma 90.000000
_cell_volume 3898.787867
_symmetry_space_group_name_H-M "C M M M"
_symmetry_group_IT_number 65
_symmetry_cell_setting 'orthorhombic'
loop_
_space_group_symop_operation_xyz
x,y,z
-x,-y,z
x,-y,-z
-x,y,-z
-x,-y,-z
x,y,-z
-x,y,z
x,-y,z
1/2+x,1/2+y,z
1/2-x,1/2-y,z
1/2+x,1/2-y,-z
1/2-x,1/2+y,-z
1/2-x,1/2-y,-z
1/2+x,1/2+y,-z
1/2-x,1/2+y,z
1/2+x,1/2-y,z
loop_
_atom_site_type_symbol
_atom_site_label
_atom_site_fract_x
_atom_site_fract_y
_atom_site_fract_z
Si Si1 0.819084 0.342349 0.112107
Si Si2 0.681484 0.000000 0.386446
Si Si3 0.819348 0.157369 0.443844
Si Si4 0.318136 0.500000 0.944765
Si Si5 0.818326 0.000000 0.718365
Si Si6 0.181581 0.342800 0.223692
O O1 0.750000 0.250000 0.100204
O O2 0.747219 0.416743 0.081069
O O3 0.788481 0.358336 0.167866
O O4 0.000000 0.340678 0.105763
O O5 0.739959 0.916840 0.414394
O O6 0.500000 0.000000 0.383922
O O7 0.752140 0.000000 0.334326
O O8 0.795379 0.142693 0.500000
O O9 0.750000 0.250000 0.432327
O O10 0.000000 0.157038 0.435165
O O11 0.500000 0.500000 0.941064
O O12 0.276253 0.500000 0.000000
O O13 0.757465 0.916795 0.745804
O O14 0.000000 0.000000 0.717354
O O15 0.250000 0.250000 0.235456
O O16 0.000000 0.342669 0.230633
#
# Coordination Sequence:
#
# PCOD9492543 Si02
#       6
#    16   8  16   8   8  16
#     4  10  21  38  62  88 115 149 190 237 286 340
#     4  12  25  40  59  85 119 157 196 239 288 343
#     4  10  21  39  63  90 119 152 193 240 288 341
#     4  11  24  39  56  82 117 155 194 237 286 341
#     4  12  25  40  59  85 118 156 194 235 288 344
#     4  10  21  39  62  89 117 148 190 237 286 340
#
# _framework density 18.467278
#
# number of rings (size 3 to 8) (size 9 to 14) (size 15 to 20)
#    0.000    1.444    0.000    5.333    0.000   10.222 
#    0.000    4.444    0.000    0.000    0.000    0.000 
#    0.000    0.000    0.000    0.000    0.000    0.000 
#
# Total GULP energy -201354.602827 kJ/mol
# GULP energy per Si atom -5593.183412 kJ/mol
# Density = 1.842525 g / cm^3
# Si number density = 18.467278 Si / 1000 Ang^3
#
#
#
# Elastic Constant Matrix: (Units=GPa)
#
#
# Indices 1 2 3 4 5 6 
#
# 1 139.5707 112.8809 97.3117 0.0000 0.0000 0.0000
# 2 112.8809 210.7578 133.8205 0.0000 0.0000 0.0000
# 3 97.3117 133.8205 115.2372 0.0000 0.0000 0.0000
# 4 0.0000 0.0000 0.0000 -40.2796 0.0000 0.0000
# 5 0.0000 0.0000 0.0000 0.0000 32.1780 0.0000
# 6 0.0000 0.0000 0.0000 0.0000 0.0000 43.6400
#
#
#
# Elastic Compliance Matrix: (Units=1/GPa)
#
#
# Indices 1 2 3 4 5 6 
#
# 1 0.017423 0.000039 -0.014758 0.000000 0.000000 0.000000
# 2 0.000039 0.018065 -0.021010 0.000000 0.000000 0.000000
# 3 -0.014758 -0.021010 0.045539 0.000000 0.000000 0.000000
# 4 0.000000 0.000000 0.000000 -0.024826 0.000000 0.000000
# 5 0.000000 0.000000 0.000000 0.000000 0.031077 0.000000
# 6 0.000000 0.000000 0.000000 0.000000 0.000000 0.022915
#
#
# Mechanical properties :
#
#
# Convention : Reuss Voigt Hill
#
# Bulk Modulus (GPa) = 104.52431 128.17686 116.35058
# Shear Modulus (GPa) = 27.05050 15.21119 21.13084
#
# Velocity S-wave (km/s) = 3.83140 2.87310 3.38632
# Velocity P-wave (km/s) = 8.73472 8.97577 8.85607
#
# Compressibility (1/GPa) = 0.00956715
#
# Stress axis : x y z
#
# Youngs Moduli (GPa) = 57.39577 55.35701 21.95939
#
# Poissons Ratio (x) = -0.00215 0.32407
# Poissons Ratio (y) = -0.00223 0.46138
# Poissons Ratio (z) = 0.84704 1.16308
#
# Static dielectric constant tensor:
#      x y z
#    x 1.611550 0.000000 0.000000 
#    y 0.000000 1.595380 0.000000 
#    z 0.000000 0.000000 1.614640 
# 
# From -- ./inp_files/72602.got.cif
#   From: 2010.05.17/outbox.cif.g08.bks.cpg/sg65_37_cif.got.tgz:72602.got - 2010.06.03 17:01:31.
