data_PCOD9492632
_publ_section_title
;
Structure prediction by ZEFSAII (Michael W. Deem and Ramdas Pophale) SiO2 
 PCOD9492632
Probable space group: C M M M
;
_chemical_formula_sum "Si O2"
_cell_formula_units_Z 58
_cell_length_a 10.259410
_cell_length_b 27.111380
_cell_length_c 12.545181
_cell_angle_alpha 90.000000
_cell_angle_beta 90.000000
_cell_angle_gamma 90.000000
_cell_volume 3489.401487
_symmetry_space_group_name_H-M "C M M M"
_symmetry_group_IT_number 65
_symmetry_cell_setting 'orthorhombic'
loop_
_space_group_symop_operation_xyz
x,y,z
-x,-y,z
x,-y,-z
-x,y,-z
-x,-y,-z
x,y,-z
-x,y,z
x,-y,z
1/2+x,1/2+y,z
1/2-x,1/2-y,z
1/2+x,1/2-y,-z
1/2-x,1/2+y,-z
1/2-x,1/2-y,-z
1/2+x,1/2+y,-z
1/2-x,1/2+y,z
1/2+x,1/2-y,z
loop_
_atom_site_type_symbol
_atom_site_label
_atom_site_fract_x
_atom_site_fract_y
_atom_site_fract_z
Si Si1 0.000000 0.059496 0.873244
Si Si2 0.500000 0.944352 0.782992
Si Si3 0.153764 0.796006 0.374104
Si Si4 0.000000 0.500000 0.000000
Si Si5 0.853313 0.058677 0.500000
Si Si6 0.772195 0.101597 0.723889
O O1 0.125476 0.080320 0.810239
O O2 0.000000 0.000000 0.864244
O O3 0.000000 0.071433 0.000000
O O4 0.372348 0.913122 0.757277
O O5 0.500000 0.000000 0.729772
O O6 0.500000 0.958100 0.906575
O O7 0.167262 0.809926 0.500000
O O8 0.250000 0.750000 0.356374
O O9 0.196960 0.841359 0.299979
O O10 0.000000 0.784728 0.357049
O O11 0.791600 0.075852 0.609517
O O12 0.000000 0.079227 0.500000
O O13 0.857976 0.000000 0.500000
#
# Coordination Sequence:
#
# PCOD9492632 Si02
#       6
#     8   8  16   2   8  16
#     4  11  24  37  62  92 121 158 215 257 294 366
#     4  10  24  39  61  86 125 166 210 252 297 359
#     4  10  21  39  62  89 122 160 205 255 312 378
#     4   8  24  48  60  80 132 176 216 246 298 360
#     4  11  20  33  56  85 129 162 188 241 319 380
#     4  12  22  39  60  91 123 164 203 256 313 368
#
# _framework density 16.621760999999999
#
# number of rings (size 3 to 8) (size 9 to 14) (size 15 to 20)
#    0.414    0.828    4.138    2.483    3.862    0.552 
#    0.000    1.379    0.000    0.828    3.586    0.000 
#    0.000    0.000    0.000    0.000    0.000    0.000 
#
# Total GULP energy -161466.114626 kJ/mol
# GULP energy per Si atom -5567.797056 kJ/mol
# Density = 1.658393 g / cm^3
# Si number density = 16.621761 Si / 1000 Ang^3
#
#
#
# Elastic Constant Matrix: (Units=GPa)
#
#
# Indices 1 2 3 4 5 6 
#
# 1 185.2677 75.2906 78.8455 0.0000 0.0000 0.0000
# 2 75.2906 120.5340 59.1956 0.0000 0.0000 0.0000
# 3 78.8455 59.1956 137.3013 0.0000 0.0000 0.0000
# 4 0.0000 0.0000 0.0000 -2.1620 0.0000 0.0000
# 5 0.0000 0.0000 0.0000 0.0000 -2.4228 0.0000
# 6 0.0000 0.0000 0.0000 0.0000 0.0000 51.4570
#
#
#
# Elastic Compliance Matrix: (Units=1/GPa)
#
#
# Indices 1 2 3 4 5 6 
#
# 1 0.008194 -0.003562 -0.003170 0.000000 0.000000 0.000000
# 2 -0.003562 0.012073 -0.003160 0.000000 0.000000 0.000000
# 3 -0.003170 -0.003160 0.010466 0.000000 0.000000 0.000000
# 4 0.000000 0.000000 0.000000 -0.462539 0.000000 0.000000
# 5 0.000000 0.000000 0.000000 0.000000 -0.412751 0.000000
# 6 0.000000 0.000000 0.000000 0.000000 0.000000 0.019434
#
#
# Mechanical properties :
#
#
# Convention : Reuss Voigt Hill
#
# Bulk Modulus (GPa) = 91.32231 96.64072 93.98151
# Shear Modulus (GPa) = -6.23682 24.69253 9.22785
#
# Velocity S-wave (km/s) = -1.93916 3.85847 2.35875
# Velocity P-wave (km/s) = 7.07438 8.83842 8.00514
#
# Compressibility (1/GPa) = 0.01095023
#
# Stress axis : x y z
#
# Youngs Moduli (GPa) = 122.04055 82.82973 95.54827
#
# Poissons Ratio (x) = 0.29500 0.30288
# Poissons Ratio (y) = 0.43465 0.30192
# Poissons Ratio (z) = 0.38686 0.26173
#
# Static dielectric constant tensor:
#      x y z
#    x 1.586610 0.000000 0.000000 
#    y 0.000000 1.569520 0.000000 
#    z 0.000000 0.000000 1.507660 
# 
# From -- ./inp_files/20582.got.cif
#   From: 2010.05.17/outbox.cif.g08.bks.cpg/sg65_11_cif.got.tgz:20582.got - 2010.06.03 17:01:31.
