data_PCOD9492691
_publ_section_title
;
Structure prediction by ZEFSAII (Michael W. Deem and Ramdas Pophale) SiO2 
 PCOD9492691
Probable space group: C M M M
;
_chemical_formula_sum "Si O2"
_cell_formula_units_Z 64
_cell_length_a 11.134610
_cell_length_b 28.884579
_cell_length_c 10.560595
_cell_angle_alpha 90.000000
_cell_angle_beta 90.000000
_cell_angle_gamma 90.000000
_cell_volume 3396.482957
_symmetry_space_group_name_H-M "C M M M"
_symmetry_group_IT_number 65
_symmetry_cell_setting 'orthorhombic'
loop_
_space_group_symop_operation_xyz
x,y,z
-x,-y,z
x,-y,-z
-x,y,-z
-x,-y,-z
x,y,-z
-x,y,z
x,-y,z
1/2+x,1/2+y,z
1/2-x,1/2-y,z
1/2+x,1/2-y,-z
1/2-x,1/2+y,-z
1/2-x,1/2-y,-z
1/2+x,1/2+y,-z
1/2-x,1/2+y,z
1/2+x,1/2-y,z
loop_
_atom_site_type_symbol
_atom_site_label
_atom_site_fract_x
_atom_site_fract_y
_atom_site_fract_z
Si Si1 0.000000 0.110604 0.151750
Si Si2 0.370190 0.944241 0.000000
Si Si3 0.860071 0.423770 0.500000
Si Si4 0.279936 0.553844 0.754347
Si Si5 0.358262 0.812755 0.500000
Si Si6 0.250000 0.750000 0.285668
Si Si7 0.500000 0.278412 0.147849
O O1 0.889020 0.088390 0.225914
O O2 0.000000 0.165811 0.157223
O O3 0.000000 0.097362 0.000000
O O4 0.304594 0.932824 0.871377
O O5 0.500000 0.922442 0.000000
O O6 0.378794 0.000000 0.000000
O O7 0.791519 0.441229 0.624251
O O8 0.855730 0.368031 0.500000
O O9 0.000000 0.438156 0.500000
O O10 0.317902 0.500000 0.769406
O O11 0.500000 0.798214 0.500000
O O12 0.289939 0.791903 0.378379
O O13 0.373022 0.738479 0.209064
O O14 0.500000 0.265125 0.000000
#
# Coordination Sequence:
#
# PCOD9492691 Si02
#       7
#     8   8   8  16   8   8   8
#     4  11  23  41  63  92 128 166 212 268 317 375
#     4   9  18  33  57  85 115 160 216 258 300 363
#     4  11  24  40  60  91 131 165 211 267 323 365
#     4  11  22  38  61  88 124 173 216 257 309 372
#     4  10  21  39  66  90 123 166 211 268 309 388
#     4  11  21  42  66  96 123 167 214 252 322 401
#     4  11  24  40  67  95 134 163 207 266 326 381
#
# _framework density 18.843022000000001
#
# number of rings (size 3 to 8) (size 9 to 14) (size 15 to 20)
#    0.000    1.375    2.500    3.375    0.000    3.000 
#    0.000    3.750    0.000    0.000    0.000    0.000 
#    0.000    0.000    0.000    0.000    0.000    0.000 
#
# Total GULP energy -178547.593498 kJ/mol
# GULP energy per Si atom -5579.612297 kJ/mol
# Density = 1.880013 g / cm^3
# Si number density = 18.843022 Si / 1000 Ang^3
#
#
#
# Elastic Constant Matrix: (Units=GPa)
#
#
# Indices 1 2 3 4 5 6 
#
# 1 157.5643 32.2674 80.8081 0.0000 0.0000 0.0000
# 2 32.2674 60.0820 24.0711 0.0000 0.0000 0.0000
# 3 80.8081 24.0711 152.9098 0.0000 0.0000 0.0000
# 4 0.0000 0.0000 0.0000 19.8661 0.0000 0.0000
# 5 0.0000 0.0000 0.0000 0.0000 38.9646 0.0000
# 6 0.0000 0.0000 0.0000 0.0000 0.0000 24.0174
#
#
#
# Elastic Compliance Matrix: (Units=1/GPa)
#
#
# Indices 1 2 3 4 5 6 
#
# 1 0.009253 -0.003213 -0.004384 0.000000 0.000000 0.000000
# 2 -0.003213 0.018880 -0.001274 0.000000 0.000000 0.000000
# 3 -0.004384 -0.001274 0.009057 0.000000 0.000000 0.000000
# 4 0.000000 0.000000 0.000000 0.050337 0.000000 0.000000
# 5 0.000000 0.000000 0.000000 0.000000 0.025664 0.000000
# 6 0.000000 0.000000 0.000000 0.000000 0.000000 0.041636
#
#
# Mechanical properties :
#
#
# Convention : Reuss Voigt Hill
#
# Bulk Modulus (GPa) = 51.41988 71.64994 61.53491
# Shear Modulus (GPa) = 27.92467 32.13025 30.02746
#
# Velocity S-wave (km/s) = 3.85380 4.13383 3.99627
# Velocity P-wave (km/s) = 6.86660 7.80333 7.34990
#
# Compressibility (1/GPa) = 0.01944773
#
# Stress axis : x y z
#
# Youngs Moduli (GPa) = 108.07248 52.96635 110.40840
#
# Poissons Ratio (x) = 0.17018 0.48405
# Poissons Ratio (y) = 0.34723 0.14068
# Poissons Ratio (z) = 0.47381 0.06749
#
# Static dielectric constant tensor:
#      x y z
#    x 1.585050 0.000000 0.000000 
#    y 0.000000 1.626320 0.000000 
#    z 0.000000 0.000000 1.628920 
# 
# From -- ./inp_files/5071.got.cif
#   From: 2010.05.17/outbox.cif.g08.bks.cpg/sg65_3_cif.got.tgz:5071.got - 2010.06.03 17:01:31.
