data_PCOD9492486
_publ_section_title
;
Structure prediction by ZEFSAII (Michael W. Deem and Ramdas Pophale) SiO2 
 PCOD9492486
Probable space group: C M M M
;
_chemical_formula_sum "Si O2"
_cell_formula_units_Z 80
_cell_length_a 18.901072
_cell_length_b 8.408971
_cell_length_c 26.874250
_cell_angle_alpha 90.000000
_cell_angle_beta 90.000000
_cell_angle_gamma 90.000000
_cell_volume 4271.354766
_symmetry_space_group_name_H-M "C M M M"
_symmetry_group_IT_number 65
_symmetry_cell_setting 'orthorhombic'
loop_
_space_group_symop_operation_xyz
x,y,z
-x,-y,z
x,-y,-z
-x,y,-z
-x,-y,-z
x,y,-z
-x,y,z
x,-y,z
1/2+x,1/2+y,z
1/2-x,1/2-y,z
1/2+x,1/2-y,-z
1/2-x,1/2+y,-z
1/2-x,1/2-y,-z
1/2+x,1/2+y,-z
1/2-x,1/2+y,z
1/2+x,1/2-y,z
loop_
_atom_site_type_symbol
_atom_site_label
_atom_site_fract_x
_atom_site_fract_y
_atom_site_fract_z
Si Si1 0.670976 0.809373 0.943007
Si Si2 0.830010 0.309586 0.757858
Si Si3 0.917639 0.694553 0.661992
Si Si4 0.919082 0.190323 0.148302
Si Si5 0.414304 0.188959 0.446543
O O1 0.750000 0.750000 0.930629
O O2 0.616117 0.743456 0.903284
O O3 0.670544 0.000000 0.941113
O O4 0.655693 0.759281 0.000000
O O5 0.829693 0.500000 0.757017
O O6 0.750000 0.250000 0.759655
O O7 0.869998 0.252433 0.707920
O O8 0.872994 0.254549 0.806095
O O9 0.916976 0.500000 0.660847
O O10 0.891496 0.751318 0.607476
O O11 0.000000 0.740781 0.668921
O O12 0.000000 0.247359 0.152058
O O13 0.918823 0.000000 0.150462
O O14 0.389762 0.256486 0.500000
O O15 0.500000 0.201466 0.445921
O O16 0.398383 0.000000 0.447264
#
# Coordination Sequence:
#
# PCOD9492486 Si02
#       5
#    16  16  16  16  16
#     4  10  21  38  61  87 115 147 181 215 252 299
#     4  11  22  36  54  74 101 137 176 218 262 312
#     4   8  14  25  43  68  95 125 164 209 257 307
#     4  11  24  40  58  81 109 139 173 216 264 312
#     4   7   9  15  31  58  91 122 153 196 250 303
#
# _framework density 18.729420000000001
#
# number of rings (size 3 to 8) (size 9 to 14) (size 15 to 20)
#    0.000    2.600    0.000    4.800    0.000    4.000 
#    0.000    2.000    0.000    0.600    0.000    0.000 
#    0.000    2.400    0.000   22.600    0.000   18.600 
#
# Total GULP energy -223041.886661 kJ/mol
# GULP energy per Si atom -5576.047167 kJ/mol
# Density = 1.868679 g / cm^3
# Si number density = 18.729420 Si / 1000 Ang^3
#
#
#
# Elastic Constant Matrix: (Units=GPa)
#
#
# Indices 1 2 3 4 5 6 
#
# 1 126.8732 22.0127 105.6271 0.0000 0.0000 0.0000
# 2 22.0127 25.9794 25.9063 0.0000 0.0000 0.0000
# 3 105.6271 25.9063 168.6107 0.0000 0.0000 0.0000
# 4 0.0000 0.0000 0.0000 -11.1135 0.0000 0.0000
# 5 0.0000 0.0000 0.0000 0.0000 -42.9864 0.0000
# 6 0.0000 0.0000 0.0000 0.0000 0.0000 10.7834
#
#
#
# Elastic Compliance Matrix: (Units=1/GPa)
#
#
# Indices 1 2 3 4 5 6 
#
# 1 0.016897 -0.004442 -0.009903 0.000000 0.000000 0.000000
# 2 -0.004442 0.046624 -0.004381 0.000000 0.000000 0.000000
# 3 -0.009903 -0.004381 0.012808 0.000000 0.000000 0.000000
# 4 0.000000 0.000000 0.000000 -0.089981 0.000000 0.000000
# 5 0.000000 0.000000 0.000000 0.000000 -0.023263 0.000000
# 6 0.000000 0.000000 0.000000 0.000000 0.000000 0.092735
#
#
# Mechanical properties :
#
#
# Convention : Reuss Voigt Hill
#
# Bulk Modulus (GPa) = 25.72181 69.83953 47.78067
# Shear Modulus (GPa) = 47.06748 2.53120 24.79934
#
# Velocity S-wave (km/s) = 5.01845 1.16378 3.64275
# Velocity P-wave (km/s) = 6.88062 6.25903 6.57717
#
# Compressibility (1/GPa) = 0.03887751
#
# Stress axis : x y z
#
# Youngs Moduli (GPa) = 59.18201 21.44800 78.07916
#
# Poissons Ratio (x) = 0.09528 0.77320
# Poissons Ratio (y) = 0.26290 0.34205
# Poissons Ratio (z) = 0.58606 0.09396
#
# Static dielectric constant tensor:
#      x y z
#    x 1.612060 0.000000 0.000000 
#    y 0.000000 1.659840 0.000000 
#    z 0.000000 0.000000 1.683110 
# 
# From -- ./inp_files/72775.got.cif
#   From: 2010.05.17/outbox.cif.g08.bks.cpg/sg65_37_cif.got.tgz:72775.got - 2010.06.03 17:01:31.
