data_PCOD9492241
_publ_section_title
;
Structure prediction by ZEFSAII (Michael W. Deem and Ramdas Pophale) SiO2 
 PCOD9492241
Probable space group: C M M M
;
_chemical_formula_sum "Si O2"
_cell_formula_units_Z 80
_cell_length_a 8.679041
_cell_length_b 22.898145
_cell_length_c 22.285103
_cell_angle_alpha 90.000000
_cell_angle_beta 90.000000
_cell_angle_gamma 90.000000
_cell_volume 4428.806306
_symmetry_space_group_name_H-M "C M M M"
_symmetry_group_IT_number 65
_symmetry_cell_setting 'orthorhombic'
loop_
_space_group_symop_operation_xyz
x,y,z
-x,-y,z
x,-y,-z
-x,y,-z
-x,-y,-z
x,y,-z
-x,y,z
x,-y,z
1/2+x,1/2+y,z
1/2-x,1/2-y,z
1/2+x,1/2-y,-z
1/2-x,1/2+y,-z
1/2-x,1/2-y,-z
1/2+x,1/2+y,-z
1/2-x,1/2+y,z
1/2+x,1/2-y,z
loop_
_atom_site_type_symbol
_atom_site_label
_atom_site_fract_x
_atom_site_fract_y
_atom_site_fract_z
Si Si1 0.684827 0.622680 0.117457
Si Si2 0.316200 0.185776 0.000000
Si Si3 0.184006 0.687176 0.771190
Si Si4 0.315679 0.433726 0.428317
Si Si5 0.813093 0.000000 0.068471
Si Si6 0.184945 0.314748 0.630998
O O1 0.500000 0.628330 0.116130
O O2 0.746612 0.642816 0.181327
O O3 0.732300 0.556798 0.104152
O O4 0.753316 0.657010 0.060842
O O5 0.250000 0.250000 0.000000
O O6 0.500000 0.184456 0.000000
O O7 0.250000 0.750000 0.789029
O O8 0.226483 0.677923 0.701545
O O9 0.000000 0.687359 0.775264
O O10 0.289750 0.432069 0.500000
O O11 0.500000 0.431182 0.417923
O O12 0.264437 0.500000 0.408035
O O13 0.243552 0.374190 0.401141
O O14 0.000000 0.000000 0.064624
O O15 0.755313 0.000000 0.000000
O O16 0.250000 0.250000 0.612173
O O17 0.000000 0.311844 0.625212
#
# Coordination Sequence:
#
# PCOD9492241 Si02
#       6
#    16   8  16  16   8  16
#     4  11  21  37  59  80 105 139 179 222 268 324
#     4  12  24  37  54  79 107 136 174 220 273 326
#     4  10  21  38  57  81 111 144 181 225 275 326
#     4   9  19  37  60  86 118 155 195 239 285 336
#     4   9  18  36  58  78 104 136 173 216 263 320
#     4  10  21  37  59  85 117 154 194 238 286 339
#
# _framework density 18.063559000000001
#
# number of rings (size 3 to 8) (size 9 to 14) (size 15 to 20)
#    0.000    1.900    1.000    3.900    0.000    3.600 
#    1.800    3.500    0.000    0.000    0.000    0.000 
#    0.000    0.000    0.000    0.000    0.000    0.000 
#
# Total GULP energy -223022.127125 kJ/mol
# GULP energy per Si atom -5575.553178 kJ/mol
# Density = 1.802245 g / cm^3
# Si number density = 18.063559 Si / 1000 Ang^3
#
#
#
# Elastic Constant Matrix: (Units=GPa)
#
#
# Indices 1 2 3 4 5 6 
#
# 1 57.0297 50.7303 32.4346 0.0000 0.0000 0.0000
# 2 50.7303 198.6727 75.7041 0.0000 0.0000 0.0000
# 3 32.4346 75.7041 66.3755 0.0000 0.0000 0.0000
# 4 0.0000 0.0000 0.0000 41.4170 0.0000 0.0000
# 5 0.0000 0.0000 0.0000 0.0000 30.4813 0.0000
# 6 0.0000 0.0000 0.0000 0.0000 0.0000 28.5503
#
#
#
# Elastic Compliance Matrix: (Units=1/GPa)
#
#
# Indices 1 2 3 4 5 6 
#
# 1 0.025316 -0.003096 -0.008840 0.000000 0.000000 0.000000
# 2 -0.003096 0.009281 -0.009073 0.000000 0.000000 0.000000
# 3 -0.008840 -0.009073 0.029733 0.000000 0.000000 0.000000
# 4 0.000000 0.000000 0.000000 0.024145 0.000000 0.000000
# 5 0.000000 0.000000 0.000000 0.000000 0.032807 0.000000
# 6 0.000000 0.000000 0.000000 0.000000 0.000000 0.035026
#
#
# Mechanical properties :
#
#
# Convention : Reuss Voigt Hill
#
# Bulk Modulus (GPa) = 44.81557 71.09064 57.95311
# Shear Modulus (GPa) = 24.29989 30.97032 27.63510
#
# Velocity S-wave (km/s) = 3.67174 4.14517 3.91561
# Velocity P-wave (km/s) = 6.54518 7.89627 7.25226
#
# Compressibility (1/GPa) = 0.02231367
#
# Stress axis : x y z
#
# Youngs Moduli (GPa) = 39.50041 107.74649 33.63269
#
# Poissons Ratio (x) = 0.33359 0.29730
# Poissons Ratio (y) = 0.12229 0.30513
# Poissons Ratio (z) = 0.34917 0.97753
#
# Static dielectric constant tensor:
#      x y z
#    x 1.615090 0.000000 0.000000 
#    y 0.000000 1.716330 0.000000 
#    z 0.000000 0.000000 1.603320 
# 
# From -- ./inp_files/67339.got.cif
#   From: 2010.05.17/outbox.cif.g08.bks.cpg/sg65_34_cif.got.tgz:67339.got - 2010.06.03 17:01:31.
