data_PCOD9492856
_publ_section_title
;
Structure prediction by ZEFSAII (Michael W. Deem and Ramdas Pophale) SiO2 
 PCOD9492856
Probable space group: C M M M
;
_chemical_formula_sum "Si O2"
_cell_formula_units_Z 72
_cell_length_a 20.750262
_cell_length_b 20.436454
_cell_length_c 7.618228
_cell_angle_alpha 90.000000
_cell_angle_beta 90.000000
_cell_angle_gamma 90.000000
_cell_volume 3230.599287
_symmetry_space_group_name_H-M "C M M M"
_symmetry_group_IT_number 65
_symmetry_cell_setting 'orthorhombic'
loop_
_space_group_symop_operation_xyz
x,y,z
-x,-y,z
x,-y,-z
-x,y,-z
-x,-y,-z
x,y,-z
-x,y,z
x,-y,z
1/2+x,1/2+y,z
1/2-x,1/2-y,z
1/2+x,1/2-y,-z
1/2-x,1/2+y,-z
1/2-x,1/2-y,-z
1/2+x,1/2+y,-z
1/2-x,1/2+y,z
1/2+x,1/2-y,z
loop_
_atom_site_type_symbol
_atom_site_label
_atom_site_fract_x
_atom_site_fract_y
_atom_site_fract_z
Si Si1 0.076076 0.570355 0.211228
Si Si2 0.140382 0.926137 0.211120
Si Si3 0.000000 0.920499 0.799683
Si Si4 0.808713 0.206328 0.289337
Si Si5 0.572665 0.785770 0.293150
O O1 0.103391 0.500000 0.271358
O O2 0.099952 0.640258 0.275947
O O3 0.000000 0.569921 0.259156
O O4 0.079914 0.571307 0.000000
O O5 0.191869 0.870635 0.252182
O O6 0.069392 0.904492 0.281692
O O7 0.154553 0.000000 0.272651
O O8 0.134071 0.929509 0.000000
O O9 0.000000 0.000000 0.807906
O O10 0.000000 0.895125 0.000000
O O11 0.809524 0.213691 0.500000
O O12 0.750000 0.250000 0.221887
O O13 0.875506 0.236044 0.217300
O O14 0.566859 0.772585 0.500000
O O15 0.500000 0.782536 0.217872
#
# Coordination Sequence:
#
# PCOD9492856 Si02
#       5
#    16  16   8  16  16
#     4   8  14  26  45  70  99 127 158 202 253 300
#     4   9  18  34  57  83 109 138 176 221 268 321
#     4   7  12  26  49  79 111 135 160 207 268 319
#     4  10  22  38  53  73 107 145 177 214 265 318
#     4   9  18  32  50  72  97 128 170 215 256 305
#
# _framework density 22.286885999999999
#
# number of rings (size 3 to 8) (size 9 to 14) (size 15 to 20)
#    0.000    3.222    0.000    2.000    1.556    2.222 
#    0.000    3.333    0.000    8.667    0.000    0.000 
#    0.000    0.000    0.000    0.000    0.000    0.000 
#
# Total GULP energy -200623.930790 kJ/mol
# GULP energy per Si atom -5572.886966 kJ/mol
# Density = 2.223616 g / cm^3
# Si number density = 22.286886 Si / 1000 Ang^3
#
#
#
# Elastic Constant Matrix: (Units=GPa)
#
#
# Indices 1 2 3 4 5 6 
#
# 1 71.6277 72.7003 8.7395 0.0000 0.0000 0.0000
# 2 72.7003 152.7156 -3.9854 0.0000 0.0000 0.0000
# 3 8.7395 -3.9854 44.1571 0.0000 0.0000 0.0000
# 4 0.0000 0.0000 0.0000 14.3328 0.0000 0.0000
# 5 0.0000 0.0000 0.0000 0.0000 -11.5551 0.0000
# 6 0.0000 0.0000 0.0000 0.0000 0.0000 30.9410
#
#
#
# Elastic Compliance Matrix: (Units=1/GPa)
#
#
# Indices 1 2 3 4 5 6 
#
# 1 0.029027 -0.014001 -0.007009 0.000000 0.000000 0.000000
# 2 -0.014001 0.013317 0.003973 0.000000 0.000000 0.000000
# 3 -0.007009 0.003973 0.024392 0.000000 0.000000 0.000000
# 4 0.000000 0.000000 0.000000 0.069770 0.000000 0.000000
# 5 0.000000 0.000000 0.000000 0.000000 -0.086542 0.000000
# 6 0.000000 0.000000 0.000000 0.000000 0.000000 0.032320
#
#
# Mechanical properties :
#
#
# Convention : Reuss Voigt Hill
#
# Bulk Modulus (GPa) = 30.61608 47.04547 38.83077
# Shear Modulus (GPa) = 39.29410 19.48015 29.38712
#
# Velocity S-wave (km/s) = 4.20349 2.95966 3.63517
# Velocity P-wave (km/s) = 6.10951 5.73013 5.92286
#
# Compressibility (1/GPa) = 0.03266258
#
# Stress axis : x y z
#
# Youngs Moduli (GPa) = 34.45046 75.09129 40.99677
#
# Poissons Ratio (x) = 1.05138 0.28733
# Poissons Ratio (y) = 0.48235 -0.16288
# Poissons Ratio (z) = 0.24145 -0.29834
#
# Static dielectric constant tensor:
#      x y z
#    x 1.850580 0.000000 0.000000 
#    y 0.000000 1.883560 0.000000 
#    z 0.000000 0.000000 1.825830 
# 
# From -- ./inp_files/11269.got.cif
#   From: 2010.05.17/outbox.cif.g08.bks.cpg/sg65_6_cif.got.tgz:11269.got - 2010.06.03 17:01:31.
