data_PCOD9492837
_publ_section_title
;
Structure prediction by ZEFSAII (Michael W. Deem and Ramdas Pophale) SiO2 
 PCOD9492837
Probable space group: C M M M
;
_chemical_formula_sum "Si O2"
_cell_formula_units_Z 58
_cell_length_a 19.952816
_cell_length_b 7.757659
_cell_length_c 17.953653
_cell_angle_alpha 90.000000
_cell_angle_beta 90.000000
_cell_angle_gamma 90.000000
_cell_volume 2778.994647
_symmetry_space_group_name_H-M "C M M M"
_symmetry_group_IT_number 65
_symmetry_cell_setting 'orthorhombic'
loop_
_space_group_symop_operation_xyz
x,y,z
-x,-y,z
x,-y,-z
-x,y,-z
-x,-y,-z
x,y,-z
-x,y,z
x,-y,z
1/2+x,1/2+y,z
1/2-x,1/2-y,z
1/2+x,1/2-y,-z
1/2-x,1/2+y,-z
1/2-x,1/2-y,-z
1/2+x,1/2+y,-z
1/2-x,1/2+y,z
1/2+x,1/2-y,z
loop_
_atom_site_type_symbol
_atom_site_label
_atom_site_fract_x
_atom_site_fract_y
_atom_site_fract_z
Si Si1 0.674154 0.707784 0.584813
Si Si2 0.825605 0.702615 0.838868
Si Si3 0.000000 0.000000 0.000000
Si Si4 0.381725 0.208893 0.000000
Si Si5 0.075237 0.796661 0.710758
O O1 0.664725 0.771246 0.500000
O O2 0.669325 0.500000 0.582970
O O3 0.750000 0.750000 0.608390
O O4 0.619846 0.776297 0.643173
O O5 0.832870 0.500000 0.829415
O O6 0.750000 0.750000 0.817686
O O7 0.881894 0.782280 0.785921
O O8 0.839753 0.743374 0.925011
O O9 0.942126 0.845160 0.000000
O O10 0.399492 0.000000 0.000000
O O11 0.000000 0.724568 0.717234
O O12 0.068596 0.000000 0.695739
#
# Coordination Sequence:
#
# PCOD9492837 Si02
#       5
#    16  16   2   8  16
#     4   9  18  34  56  82 113 151 196 247 299 358
#     4  11  24  42  64  88 122 158 204 259 305 366
#     4  12  26  40  76  94 132 176 194 272 312 378
#     4  10  26  44  65 100 129 166 216 257 311 376
#     4  10  22  37  57  86 119 156 201 246 303 373
#
# _framework density 20.870856
#
# number of rings (size 3 to 8) (size 9 to 14) (size 15 to 20)
#    0.000    1.931    0.000    2.276    5.793    4.414 
#    0.000    2.759    0.000    0.000    0.000    5.793 
#    0.000    0.000    0.000    0.000    0.000    0.000 
#
# Total GULP energy -161643.192646 kJ/mol
# GULP energy per Si atom -5573.903195 kJ/mol
# Density = 2.082335 g / cm^3
# Si number density = 20.870856 Si / 1000 Ang^3
#
#
#
# Elastic Constant Matrix: (Units=GPa)
#
#
# Indices 1 2 3 4 5 6 
#
# 1 197.0995 19.5596 96.6930 0.0000 0.0000 0.0000
# 2 19.5596 35.9429 10.1679 0.0000 0.0000 0.0000
# 3 96.6930 10.1679 125.2572 0.0000 0.0000 0.0000
# 4 0.0000 0.0000 0.0000 18.7089 0.0000 0.0000
# 5 0.0000 0.0000 0.0000 0.0000 -81.3124 0.0000
# 6 0.0000 0.0000 0.0000 0.0000 0.0000 29.8778
#
#
#
# Elastic Compliance Matrix: (Units=1/GPa)
#
#
# Indices 1 2 3 4 5 6 
#
# 1 0.008435 -0.002813 -0.006283 0.000000 0.000000 0.000000
# 2 -0.002813 0.029414 -0.000216 0.000000 0.000000 0.000000
# 3 -0.006283 -0.000216 0.012851 0.000000 0.000000 0.000000
# 4 0.000000 0.000000 0.000000 0.053451 0.000000 0.000000
# 5 0.000000 0.000000 0.000000 0.000000 -0.012298 0.000000
# 6 0.000000 0.000000 0.000000 0.000000 0.000000 0.033470
#
#
# Mechanical properties :
#
#
# Convention : Reuss Voigt Hill
#
# Bulk Modulus (GPa) = 31.17629 67.90451 49.54040
# Shear Modulus (GPa) = 32.33337 8.91346 20.62342
#
# Velocity S-wave (km/s) = 3.94027 2.06883 3.14689
# Velocity P-wave (km/s) = 5.97253 6.18974 6.08211
#
# Compressibility (1/GPa) = 0.03207566
#
# Stress axis : x y z
#
# Youngs Moduli (GPa) = 118.55181 33.99771 77.81197
#
# Poissons Ratio (x) = 0.09563 0.48891
# Poissons Ratio (y) = 0.33346 0.01683
# Poissons Ratio (z) = 0.74489 0.00736
#
# Static dielectric constant tensor:
#      x y z
#    x 1.707840 0.000000 0.000000 
#    y 0.000000 1.774530 0.000000 
#    z 0.000000 0.000000 1.758070 
# 
# From -- ./inp_files/48858.got.cif
#   From: 2010.05.17/outbox.cif.g08.bks.cpg/sg65_25_cif.got.tgz:48858.got - 2010.06.03 17:01:31.
