data_PCOD9492324
_publ_section_title
;
Structure prediction by ZEFSAII (Michael W. Deem and Ramdas Pophale) SiO2 
 PCOD9492324
Probable space group: C M M M
;
_chemical_formula_sum "Si O2"
_cell_formula_units_Z 88
_cell_length_a 22.885626
_cell_length_b 8.849498
_cell_length_c 24.442958
_cell_angle_alpha 90.000000
_cell_angle_beta 90.000000
_cell_angle_gamma 90.000000
_cell_volume 4950.341882
_symmetry_space_group_name_H-M "C M M M"
_symmetry_group_IT_number 65
_symmetry_cell_setting 'orthorhombic'
loop_
_space_group_symop_operation_xyz
x,y,z
-x,-y,z
x,-y,-z
-x,y,-z
-x,-y,-z
x,y,-z
-x,y,z
x,-y,z
1/2+x,1/2+y,z
1/2-x,1/2-y,z
1/2+x,1/2-y,-z
1/2-x,1/2+y,-z
1/2-x,1/2-y,-z
1/2+x,1/2+y,-z
1/2-x,1/2+y,z
1/2+x,1/2-y,z
loop_
_atom_site_type_symbol
_atom_site_label
_atom_site_fract_x
_atom_site_fract_y
_atom_site_fract_z
Si Si1 0.069698 0.673614 0.751604
Si Si2 0.600342 0.677471 0.862456
Si Si3 0.687330 0.818394 0.435200
Si Si4 0.686525 0.819766 0.059646
Si Si5 0.932609 0.315907 0.374377
Si Si6 0.500000 0.819111 0.936839
O O1 0.090410 0.500000 0.755842
O O2 0.096263 0.771441 0.799840
O O3 0.077737 0.725853 0.689187
O O4 0.000000 0.672608 0.760887
O O5 0.590897 0.500000 0.866509
O O6 0.659363 0.731592 0.890086
O O7 0.553990 0.762114 0.901042
O O8 0.683201 0.785038 0.500000
O O9 0.750000 0.750000 0.415779
O O10 0.625470 0.767887 0.407855
O O11 0.690695 0.000000 0.428265
O O12 0.750000 0.750000 0.054293
O O13 0.686954 0.000000 0.068355
O O14 0.656198 0.794527 0.000000
O O15 0.934184 0.500000 0.376919
O O16 0.000000 0.267743 0.389746
O O17 0.500000 0.000000 0.938016
O O18 0.500000 0.765337 0.000000
#
# Coordination Sequence:
#
# PCOD9492324 Si02
#       6
#    16  16  16  16  16   8
#     4   9  17  32  53  72  97 135 175 215 262 314
#     4  12  23  34  52  78 106 134 168 212 259 313
#     4   9  17  30  50  77 110 144 177 217 267 323
#     4  10  21  38  58  77  99 130 168 210 258 314
#     4   8  15  29  51  78 102 133 182 230 270 313
#     4  11  23  37  53  75 103 135 170 209 258 313
#
# _framework density 17.77655
#
# number of rings (size 3 to 8) (size 9 to 14) (size 15 to 20)
#    0.000    2.273    0.909    4.091    0.000    4.364 
#    0.000    3.636    0.000    3.818    0.000    2.545 
#    0.000    0.000    0.000    0.000    0.000    0.000 
#
# Total GULP energy -244998.423857 kJ/mol
# GULP energy per Si atom -5568.145997 kJ/mol
# Density = 1.773609 g / cm^3
# Si number density = 17.776550 Si / 1000 Ang^3
#
#
#
# Elastic Constant Matrix: (Units=GPa)
#
#
# Indices 1 2 3 4 5 6 
#
# 1 115.1004 18.1780 65.2979 0.0000 0.0000 0.0000
# 2 18.1780 44.4373 31.2366 0.0000 0.0000 0.0000
# 3 65.2979 31.2366 88.7797 0.0000 0.0000 0.0000
# 4 0.0000 0.0000 0.0000 9.2394 0.0000 0.0000
# 5 0.0000 0.0000 0.0000 0.0000 74.3904 0.0000
# 6 0.0000 0.0000 0.0000 0.0000 0.0000 23.6257
#
#
#
# Elastic Compliance Matrix: (Units=1/GPa)
#
#
# Indices 1 2 3 4 5 6 
#
# 1 0.015064 0.002160 -0.011839 0.000000 0.000000 0.000000
# 2 0.002160 0.030208 -0.012217 0.000000 0.000000 0.000000
# 3 -0.011839 -0.012217 0.024270 0.000000 0.000000 0.000000
# 4 0.000000 0.000000 0.000000 0.108233 0.000000 0.000000
# 5 0.000000 0.000000 0.000000 0.000000 0.013443 0.000000
# 6 0.000000 0.000000 0.000000 0.000000 0.000000 0.042327
#
#
# Mechanical properties :
#
#
# Convention : Reuss Voigt Hill
#
# Bulk Modulus (GPa) = 38.83660 53.08247 45.95954
# Shear Modulus (GPa) = 17.48741 30.35808 23.92275
#
# Velocity S-wave (km/s) = 3.13986 4.13699 3.67242
# Velocity P-wave (km/s) = 5.91941 7.26260 6.62513
#
# Compressibility (1/GPa) = 0.02574890
#
# Stress axis : x y z
#
# Youngs Moduli (GPa) = 66.38550 33.10384 41.20245
#
# Poissons Ratio (x) = -0.07151 0.48781
# Poissons Ratio (y) = -0.14341 0.50339
# Poissons Ratio (z) = 0.78596 0.40444
#
# Static dielectric constant tensor:
#      x y z
#    x 1.668310 0.000000 0.000000 
#    y 0.000000 1.596420 0.000000 
#    z 0.000000 0.000000 1.606810 
# 
# From -- ./inp_files/70976.got.cif
#   From: 2010.05.17/outbox.cif.g08.bks.cpg/sg65_36_cif.got.tgz:70976.got - 2010.06.03 17:01:31.
