data_PCOD9492152
_publ_section_title
;
Structure prediction by ZEFSAII (Michael W. Deem and Ramdas Pophale) SiO2 
 PCOD9492152
Probable space group: C M M M
;
_chemical_formula_sum "Si O2"
_cell_formula_units_Z 68
_cell_length_a 7.603340
_cell_length_b 18.430894
_cell_length_c 23.482261
_cell_angle_alpha 90.000000
_cell_angle_beta 90.000000
_cell_angle_gamma 90.000000
_cell_volume 3290.718430
_symmetry_space_group_name_H-M "C M M M"
_symmetry_group_IT_number 65
_symmetry_cell_setting 'orthorhombic'
loop_
_space_group_symop_operation_xyz
x,y,z
-x,-y,z
x,-y,-z
-x,y,-z
-x,-y,-z
x,y,-z
-x,y,z
x,-y,z
1/2+x,1/2+y,z
1/2-x,1/2-y,z
1/2+x,1/2-y,-z
1/2-x,1/2+y,-z
1/2-x,1/2-y,-z
1/2+x,1/2+y,-z
1/2-x,1/2+y,z
1/2+x,1/2-y,z
loop_
_atom_site_type_symbol
_atom_site_label
_atom_site_fract_x
_atom_site_fract_y
_atom_site_fract_z
Si Si1 0.291167 0.581394 0.822908
Si Si2 0.210124 0.834770 0.286925
Si Si3 0.709261 0.412489 0.595956
Si Si4 0.791074 0.665317 0.063016
Si Si5 0.000000 0.377884 0.500000
O O1 0.500000 0.575823 0.813350
O O2 0.217745 0.500000 0.821874
O O3 0.218542 0.630646 0.771564
O O4 0.270365 0.618010 0.884228
O O5 0.250000 0.750000 0.291866
O O6 0.261839 0.879564 0.342905
O O7 0.000000 0.840613 0.284890
O O8 0.500000 0.395677 0.585304
O O9 0.724365 0.500000 0.596049
O O10 0.843780 0.382515 0.549305
O O11 0.750000 0.750000 0.072895
O O12 0.000000 0.657742 0.060900
O O13 0.719929 0.645919 0.000000
#
# Coordination Sequence:
#
# PCOD9492152 Si02
#       5
#    16  16  16  16   4
#     4  10  21  38  60  87 118 155 200 248 302 359
#     4  10  22  39  61  85 118 155 195 243 300 355
#     4  10  21  39  63  90 123 159 199 248 300 357
#     4  10  21  37  57  83 118 158 201 247 298 357
#     4  12  23  38  66  98 122 156 203 246 297 366
#
# _framework density 20.664179000000001
#
# number of rings (size 3 to 8) (size 9 to 14) (size 15 to 20)
#    0.000    1.882    0.000    3.529    1.647    8.941 
#    0.000    2.941    0.000    0.000    0.000    0.000 
#    0.000    0.000    0.000    0.000    0.000    0.000 
#
# Total GULP energy -189305.517129 kJ/mol
# GULP energy per Si atom -5567.809327 kJ/mol
# Density = 2.061715 g / cm^3
# Si number density = 20.664179 Si / 1000 Ang^3
#
#
#
# Elastic Constant Matrix: (Units=GPa)
#
#
# Indices 1 2 3 4 5 6 
#
# 1 74.9323 10.6881 39.3902 0.0000 0.0000 0.0000
# 2 10.6881 13.6324 33.5955 0.0000 0.0000 0.0000
# 3 39.3902 33.5955 154.4805 0.0000 0.0000 0.0000
# 4 0.0000 0.0000 0.0000 -186.4683 0.0000 0.0000
# 5 0.0000 0.0000 0.0000 0.0000 44.9177 0.0000
# 6 0.0000 0.0000 0.0000 0.0000 0.0000 20.3989
#
#
#
# Elastic Compliance Matrix: (Units=1/GPa)
#
#
# Indices 1 2 3 4 5 6 
#
# 1 0.015582 -0.005226 -0.002837 0.000000 0.000000 0.000000
# 2 -0.005226 0.159824 -0.033425 0.000000 0.000000 0.000000
# 3 -0.002837 -0.033425 0.014466 0.000000 0.000000 0.000000
# 4 0.000000 0.000000 0.000000 -0.005363 0.000000 0.000000
# 5 0.000000 0.000000 0.000000 0.000000 0.022263 0.000000
# 6 0.000000 0.000000 0.000000 0.000000 0.000000 0.049022
#
#
# Mechanical properties :
#
#
# Convention : Reuss Voigt Hill
#
# Bulk Modulus (GPa) = 9.35488 45.59921 27.47705
# Shear Modulus (GPa) = 13.35467 -13.60558 -0.12545
#
# Velocity S-wave (km/s) = 2.54495 -2.56874 -0.24666
# Velocity P-wave (km/s) = 3.62941 3.64922 3.63933
#
# Compressibility (1/GPa) = 0.10689603
#
# Stress axis : x y z
#
# Youngs Moduli (GPa) = 64.17682 6.25690 69.12918
#
# Poissons Ratio (x) = 0.03270 0.19609
# Poissons Ratio (y) = 0.33539 2.31064
# Poissons Ratio (z) = 0.18205 0.20914
#
# Static dielectric constant tensor:
#      x y z
#    x 1.771660 0.000000 0.000000 
#    y 0.000000 1.742270 0.000000 
#    z 0.000000 0.000000 1.742940 
# 
# From -- ./inp_files/58969.got.cif
#   From: 2010.05.17/outbox.cif.g08.bks.cpg/sg65_30_cif.got.tgz:58969.got - 2010.06.03 17:01:31.
