data_PCOD9492668
_publ_section_title
;
Structure prediction by ZEFSAII (Michael W. Deem and Ramdas Pophale) SiO2 
 PCOD9492668
Probable space group: C M M M
;
_chemical_formula_sum "Si O2"
_cell_formula_units_Z 58
_cell_length_a 9.010313
_cell_length_b 29.770252
_cell_length_c 11.944688
_cell_angle_alpha 90.000000
_cell_angle_beta 90.000000
_cell_angle_gamma 90.000000
_cell_volume 3204.034612
_symmetry_space_group_name_H-M "C M M M"
_symmetry_group_IT_number 65
_symmetry_cell_setting 'orthorhombic'
loop_
_space_group_symop_operation_xyz
x,y,z
-x,-y,z
x,-y,-z
-x,y,-z
-x,-y,-z
x,y,-z
-x,y,z
x,-y,z
1/2+x,1/2+y,z
1/2-x,1/2-y,z
1/2+x,1/2-y,-z
1/2-x,1/2+y,-z
1/2-x,1/2-y,-z
1/2+x,1/2+y,-z
1/2-x,1/2+y,z
1/2+x,1/2-y,z
loop_
_atom_site_type_symbol
_atom_site_label
_atom_site_fract_x
_atom_site_fract_y
_atom_site_fract_z
Si Si1 0.825525 0.376071 0.773900
Si Si2 0.322766 0.700988 0.629000
Si Si3 0.167255 0.052299 0.365799
Si Si4 0.000000 0.000000 0.000000
Si Si5 0.335700 0.405680 0.000000
O O1 0.748469 0.333253 0.716333
O O2 0.788760 0.417295 0.691050
O O3 0.751666 0.389953 0.890713
O O4 0.000000 0.368727 0.785569
O O5 0.295034 0.685590 0.500000
O O6 0.500000 0.703575 0.643526
O O7 0.250000 0.750000 0.640401
O O8 0.173626 0.055220 0.500000
O O9 0.000000 0.067077 0.330715
O O10 0.181152 0.000000 0.334616
O O11 0.127482 0.959209 0.000000
O O12 0.500000 0.384174 0.000000
#
# Coordination Sequence:
#
# PCOD9492668 Si02
#       5
#    16  16  16   2   8
#     4  12  24  37  57  87 122 155 195 249 304 362
#     4  10  21  39  64  93 124 161 203 247 300 362
#     4   9  19  35  55  79 110 151 196 240 291 354
#     4   8  24  44  70  84 106 164 214 264 296 362
#     4  10  23  43  64  84 110 155 209 250 298 355
#
# _framework density 18.102176
#
# number of rings (size 3 to 8) (size 9 to 14) (size 15 to 20)
#    0.414    1.379    0.000    5.379    1.931    6.069 
#    0.000    2.759    0.000    0.000    0.000    0.000 
#    0.000    0.000    0.000    0.000    0.000    0.000 
#
# Total GULP energy -161659.961243 kJ/mol
# GULP energy per Si atom -5574.481422 kJ/mol
# Density = 1.806097 g / cm^3
# Si number density = 18.102176 Si / 1000 Ang^3
#
#
#
# Elastic Constant Matrix: (Units=GPa)
#
#
# Indices 1 2 3 4 5 6 
#
# 1 143.5154 67.2811 69.8887 0.0000 0.0000 0.0000
# 2 67.2811 96.1350 73.5469 0.0000 0.0000 0.0000
# 3 69.8887 73.5469 93.1504 0.0000 0.0000 0.0000
# 4 0.0000 0.0000 0.0000 25.4376 0.0000 0.0000
# 5 0.0000 0.0000 0.0000 0.0000 8.4183 0.0000
# 6 0.0000 0.0000 0.0000 0.0000 0.0000 32.3378
#
#
#
# Elastic Compliance Matrix: (Units=1/GPa)
#
#
# Indices 1 2 3 4 5 6 
#
# 1 0.011464 -0.003644 -0.005724 0.000000 0.000000 0.000000
# 2 -0.003644 0.027428 -0.018922 0.000000 0.000000 0.000000
# 3 -0.005724 -0.018922 0.029970 0.000000 0.000000 0.000000
# 4 0.000000 0.000000 0.000000 0.039312 0.000000 0.000000
# 5 0.000000 0.000000 0.000000 0.000000 0.118789 0.000000
# 6 0.000000 0.000000 0.000000 0.000000 0.000000 0.030924
#
#
# Mechanical properties :
#
#
# Convention : Reuss Voigt Hill
#
# Bulk Modulus (GPa) = 81.42014 83.80381 82.61198
# Shear Modulus (GPa) = 15.69564 21.37768 18.53666
#
# Velocity S-wave (km/s) = 2.94778 3.44022 3.20347
# Velocity P-wave (km/s) = 7.52739 7.88514 7.70834
#
# Compressibility (1/GPa) = 0.01228197
#
# Stress axis : x y z
#
# Youngs Moduli (GPa) = 87.23290 36.45851 33.36718
#
# Poissons Ratio (x) = 0.13286 0.19098
# Poissons Ratio (y) = 0.31788 0.63138
# Poissons Ratio (z) = 0.49929 0.68987
#
# Static dielectric constant tensor:
#      x y z
#    x 1.609880 0.000000 0.000000 
#    y 0.000000 1.606420 0.000000 
#    z 0.000000 0.000000 1.544310 
# 
# From -- ./inp_files/20494.got.cif
#   From: 2010.05.17/outbox.cif.g08.bks.cpg/sg65_11_cif.got.tgz:20494.got - 2010.06.03 17:01:31.
