data_PCOD9492676
_publ_section_title
;
Structure prediction by ZEFSAII (Michael W. Deem and Ramdas Pophale) SiO2 
 PCOD9492676
Probable space group: C M M M
;
_chemical_formula_sum "Si O2"
_cell_formula_units_Z 96
_cell_length_a 14.614182
_cell_length_b 23.441123
_cell_length_c 14.139190
_cell_angle_alpha 90.000000
_cell_angle_beta 90.000000
_cell_angle_gamma 90.000000
_cell_volume 4843.702443
_symmetry_space_group_name_H-M "C M M M"
_symmetry_group_IT_number 65
_symmetry_cell_setting 'orthorhombic'
loop_
_space_group_symop_operation_xyz
x,y,z
-x,-y,z
x,-y,-z
-x,y,-z
-x,-y,-z
x,y,-z
-x,y,z
x,-y,z
1/2+x,1/2+y,z
1/2-x,1/2-y,z
1/2+x,1/2-y,-z
1/2-x,1/2+y,-z
1/2-x,1/2-y,-z
1/2+x,1/2+y,-z
1/2-x,1/2+y,z
1/2+x,1/2-y,z
loop_
_atom_site_type_symbol
_atom_site_label
_atom_site_fract_x
_atom_site_fract_y
_atom_site_fract_z
Si Si1 0.392216 0.889063 0.609539
Si Si2 0.601371 0.648855 0.606826
Si Si3 0.271860 0.433238 0.725378
Si Si4 0.395548 0.612026 0.889487
Si Si5 0.357012 0.767409 0.692959
Si Si6 0.860122 0.247182 0.103178
O O1 0.365770 0.902871 0.500000
O O2 0.500000 0.901521 0.619240
O O3 0.331003 0.919576 0.690004
O O4 0.376831 0.821485 0.628182
O O5 0.630470 0.659992 0.500000
O O6 0.500000 0.623701 0.607959
O O7 0.669351 0.605833 0.655434
O O8 0.598140 0.709397 0.658076
O O9 0.288409 0.500000 0.714935
O O10 0.313740 0.413882 0.826773
O O11 0.500000 0.596575 0.858067
O O12 0.387609 0.680900 0.884798
O O13 0.386874 0.596157 0.000000
O O14 0.250000 0.750000 0.692923
O O15 0.386567 0.779496 0.801172
O O16 0.750000 0.250000 0.099937
O O17 0.893454 0.266905 0.000000
#
# Coordination Sequence:
#
# PCOD9492676 Si02
#       6
#    16  16  16  16  16  16
#     4  11  25  44  66  92 121 161 216 270 319 375
#     4  11  23  37  56  86 123 160 198 245 305 376
#     4  12  25  42  64  88 119 162 208 263 321 368
#     4  10  21  39  64  94 129 170 213 254 303 371
#     4  11  19  34  62  91 124 164 201 252 314 376
#     4   9  17  31  54  86 125 165 203 246 299 360
#
# _framework density 19.819548000000001
#
# number of rings (size 3 to 8) (size 9 to 14) (size 15 to 20)
#    0.000    1.333    3.333    3.000    0.000    6.000 
#    0.000    2.500    0.000    1.500    0.000    1.167 
#    0.000    0.000    0.000    0.000    0.000    0.000 
#
# Total GULP energy -267865.101616 kJ/mol
# GULP energy per Si atom -5580.522950 kJ/mol
# Density = 1.977444 g / cm^3
# Si number density = 19.819548 Si / 1000 Ang^3
#
#
#
# Elastic Constant Matrix: (Units=GPa)
#
#
# Indices 1 2 3 4 5 6 
#
# 1 77.5831 20.4091 33.4895 0.0000 0.0000 0.0000
# 2 20.4091 46.6247 11.3935 0.0000 0.0000 0.0000
# 3 33.4895 11.3935 126.0862 0.0000 0.0000 0.0000
# 4 0.0000 0.0000 0.0000 1.6858 0.0000 0.0000
# 5 0.0000 0.0000 0.0000 0.0000 24.8191 0.0000
# 6 0.0000 0.0000 0.0000 0.0000 0.0000 -50.2037
#
#
#
# Elastic Compliance Matrix: (Units=1/GPa)
#
#
# Indices 1 2 3 4 5 6 
#
# 1 0.016113 -0.006143 -0.003725 0.000000 0.000000 0.000000
# 2 -0.006143 0.024274 -0.000562 0.000000 0.000000 0.000000
# 3 -0.003725 -0.000562 0.008971 0.000000 0.000000 0.000000
# 4 0.000000 0.000000 0.000000 0.593192 0.000000 0.000000
# 5 0.000000 0.000000 0.000000 0.000000 0.040292 0.000000
# 6 0.000000 0.000000 0.000000 0.000000 0.000000 -0.019919
#
#
# Mechanical properties :
#
#
# Convention : Reuss Voigt Hill
#
# Bulk Modulus (GPa) = 35.08854 42.31982 38.70418
# Shear Modulus (GPa) = 7.21207 7.59370 7.40288
#
# Velocity S-wave (km/s) = 1.90965 1.95952 1.93475
# Velocity P-wave (km/s) = 4.75445 5.14962 4.95597
#
# Compressibility (1/GPa) = 0.02849933
#
# Stress axis : x y z
#
# Youngs Moduli (GPa) = 62.06083 41.19604 111.46824
#
# Poissons Ratio (x) = 0.25307 0.41519
# Poissons Ratio (y) = 0.38124 0.06263
# Poissons Ratio (z) = 0.23116 0.02315
#
# Static dielectric constant tensor:
#      x y z
#    x 1.710900 0.000000 0.000000 
#    y 0.000000 1.643960 0.000000 
#    z 0.000000 0.000000 1.742770 
# 
# From -- ./inp_files/40376.got.cif
#   From: 2010.05.17/outbox.cif.g08.bks.cpg/sg65_21_cif.got.tgz:40376.got - 2010.06.03 17:01:31.
