data_PCOD9492556
_publ_section_title
;
Structure prediction by ZEFSAII (Michael W. Deem and Ramdas Pophale) SiO2 
 PCOD9492556
Probable space group: C M M M
;
_chemical_formula_sum "Si O2"
_cell_formula_units_Z 64
_cell_length_a 15.041649
_cell_length_b 8.662566
_cell_length_c 25.318288
_cell_angle_alpha 90.000000
_cell_angle_beta 90.000000
_cell_angle_gamma 90.000000
_cell_volume 3298.954627
_symmetry_space_group_name_H-M "C M M M"
_symmetry_group_IT_number 65
_symmetry_cell_setting 'orthorhombic'
loop_
_space_group_symop_operation_xyz
x,y,z
-x,-y,z
x,-y,-z
-x,y,-z
-x,-y,-z
x,y,-z
-x,y,z
x,-y,z
1/2+x,1/2+y,z
1/2-x,1/2-y,z
1/2+x,1/2-y,-z
1/2-x,1/2+y,-z
1/2-x,1/2-y,-z
1/2+x,1/2+y,-z
1/2-x,1/2+y,z
1/2+x,1/2-y,z
loop_
_atom_site_type_symbol
_atom_site_label
_atom_site_fract_x
_atom_site_fract_y
_atom_site_fract_z
Si Si1 0.649154 0.185550 0.057732
Si Si2 0.850356 0.184433 0.832215
Si Si3 0.500000 0.185750 0.243066
Si Si4 0.151232 0.815133 0.560039
Si Si5 0.500000 0.815366 0.365869
O O1 0.750000 0.250000 0.056043
O O2 0.611768 0.258691 0.111040
O O3 0.650442 0.000000 0.063049
O O4 0.609196 0.222432 0.000000
O O5 0.750000 0.250000 0.826991
O O6 0.913801 0.248323 0.786713
O O7 0.847191 0.000000 0.831545
O O8 0.500000 0.230742 0.304537
O O9 0.500000 0.000000 0.239202
O O10 0.122623 0.773594 0.500000
O O11 0.250000 0.750000 0.567413
O O12 0.085068 0.747894 0.603041
O O13 0.152472 0.000000 0.563500
O O14 0.500000 0.000000 0.368120
#
# Coordination Sequence:
#
# PCOD9492556 Si02
#       5
#    16  16   8  16   8
#     4   9  16  28  50  80 112 146 184 229 284 345
#     4  11  22  38  61  86 114 151 192 238 293 348
#     4  11  25  44  61  82 114 152 199 247 290 341
#     4  10  21  38  62  92 125 159 194 235 284 339
#     4  11  24  40  61  87 117 156 197 242 292 341
#
# _framework density 19.400086000000002
#
# number of rings (size 3 to 8) (size 9 to 14) (size 15 to 20)
#    0.000    1.750    0.000    6.375    0.000    7.500 
#    0.000    0.625    0.000    3.750    0.000    0.000 
#    0.000    0.000    0.000    0.000    0.000    0.000 
#
# Total GULP energy -178783.071025 kJ/mol
# GULP energy per Si atom -5586.970970 kJ/mol
# Density = 1.935593 g / cm^3
# Si number density = 19.400086 Si / 1000 Ang^3
#
#
#
# Elastic Constant Matrix: (Units=GPa)
#
#
# Indices 1 2 3 4 5 6 
#
# 1 104.2197 45.6987 98.4151 0.0000 0.0000 0.0000
# 2 45.6987 111.4723 87.9676 0.0000 0.0000 0.0000
# 3 98.4151 87.9676 226.0455 0.0000 0.0000 0.0000
# 4 0.0000 0.0000 0.0000 33.9225 0.0000 0.0000
# 5 0.0000 0.0000 0.0000 0.0000 311.4679 0.0000
# 6 0.0000 0.0000 0.0000 0.0000 0.0000 29.2561
#
#
#
# Elastic Compliance Matrix: (Units=1/GPa)
#
#
# Indices 1 2 3 4 5 6 
#
# 1 0.016485 -0.001579 -0.006562 0.000000 0.000000 0.000000
# 2 -0.001579 0.013098 -0.004410 0.000000 0.000000 0.000000
# 3 -0.006562 -0.004410 0.008997 0.000000 0.000000 0.000000
# 4 0.000000 0.000000 0.000000 0.029479 0.000000 0.000000
# 5 0.000000 0.000000 0.000000 0.000000 0.003211 0.000000
# 6 0.000000 0.000000 0.000000 0.000000 0.000000 0.034181
#
#
# Mechanical properties :
#
#
# Convention : Reuss Voigt Hill
#
# Bulk Modulus (GPa) = 74.20024 100.65558 87.42791
# Shear Modulus (GPa) = 37.02465 88.90637 62.96551
#
# Velocity S-wave (km/s) = 4.37335 6.77697 5.70322
# Velocity P-wave (km/s) = 7.98949 10.64111 9.40918
#
# Compressibility (1/GPa) = 0.01347705
#
# Stress axis : x y z
#
# Youngs Moduli (GPa) = 60.66304 76.34680 111.14720
#
# Poissons Ratio (x) = 0.12057 0.72939
# Poissons Ratio (y) = 0.09580 0.49012
# Poissons Ratio (z) = 0.39810 0.33667
#
# Static dielectric constant tensor:
#      x y z
#    x 1.778150 0.000000 0.000000 
#    y 0.000000 1.643890 0.000000 
#    z 0.000000 0.000000 1.688730 
# 
# From -- ./inp_files/69522.got.cif
#   From: 2010.05.17/outbox.cif.g08.bks.cpg/sg65_35_cif.got.tgz:69522.got - 2010.06.03 17:01:31.
