data_PCOD9492264
_publ_section_title
;
Structure prediction by ZEFSAII (Michael W. Deem and Ramdas Pophale) SiO2 
 PCOD9492264
Probable space group: C M M M
;
_chemical_formula_sum "Si O2"
_cell_formula_units_Z 64
_cell_length_a 14.109087
_cell_length_b 18.424055
_cell_length_c 11.982434
_cell_angle_alpha 90.000000
_cell_angle_beta 90.000000
_cell_angle_gamma 90.000000
_cell_volume 3114.792917
_symmetry_space_group_name_H-M "C M M M"
_symmetry_group_IT_number 65
_symmetry_cell_setting 'orthorhombic'
loop_
_space_group_symop_operation_xyz
x,y,z
-x,-y,z
x,-y,-z
-x,y,-z
-x,-y,-z
x,y,-z
-x,y,z
x,-y,z
1/2+x,1/2+y,z
1/2-x,1/2-y,z
1/2+x,1/2-y,-z
1/2-x,1/2+y,-z
1/2-x,1/2-y,-z
1/2+x,1/2+y,-z
1/2-x,1/2+y,z
1/2+x,1/2-y,z
loop_
_atom_site_type_symbol
_atom_site_label
_atom_site_fract_x
_atom_site_fract_y
_atom_site_fract_z
Si Si1 0.111261 0.083143 0.000000
Si Si2 0.388286 0.363927 0.758036
Si Si3 0.390855 0.087072 0.000000
Si Si4 0.308614 0.918201 0.243888
Si Si5 0.613238 0.782230 0.373273
O O1 0.125289 0.131054 0.890828
O O2 0.000000 0.069112 0.000000
O O3 0.155889 0.000000 0.000000
O O4 0.500000 0.380958 0.733283
O O5 0.303326 0.417678 0.725618
O O6 0.363046 0.286849 0.703831
O O7 0.335261 0.104029 0.115249
O O8 0.500000 0.115985 0.000000
O O9 0.398157 0.000000 0.000000
O O10 0.353253 0.857366 0.321587
O O11 0.345492 0.000000 0.259103
O O12 0.646806 0.772102 0.500000
O O13 0.500000 0.783727 0.375803
#
# Coordination Sequence:
#
# PCOD9492264 Si02
#       5
#     8  16   8  16  16
#     4   9  17  32  57  88 120 151 186 232 282 336
#     4  10  21  37  59  88 123 161 195 234 293 362
#     4   9  19  36  56  83 121 156 188 235 296 356
#     4  11  22  36  60  91 120 155 199 248 303 357
#     4  10  23  43  63  83 113 156 205 254 300 351
#
# _framework density 20.547111999999998
#
# number of rings (size 3 to 8) (size 9 to 14) (size 15 to 20)
#    0.000    2.000    0.000    3.000    0.000    7.500 
#    0.000    6.250    0.000    2.250    0.000   17.500 
#    0.000    0.000    0.000    0.000    0.000    0.000 
#
# Total GULP energy -178198.020148 kJ/mol
# GULP energy per Si atom -5568.688130 kJ/mol
# Density = 2.050035 g / cm^3
# Si number density = 20.547112 Si / 1000 Ang^3
#
#
#
# Elastic Constant Matrix: (Units=GPa)
#
#
# Indices 1 2 3 4 5 6 
#
# 1 102.4818 36.0205 22.0535 0.0000 0.0000 0.0000
# 2 36.0205 134.4890 102.1348 0.0000 0.0000 0.0000
# 3 22.0535 102.1348 140.7411 0.0000 0.0000 0.0000
# 4 0.0000 0.0000 0.0000 257.4158 0.0000 0.0000
# 5 0.0000 0.0000 0.0000 0.0000 -41.2650 0.0000
# 6 0.0000 0.0000 0.0000 0.0000 0.0000 11.2767
#
#
#
# Elastic Compliance Matrix: (Units=1/GPa)
#
#
# Indices 1 2 3 4 5 6 
#
# 1 0.010824 -0.003589 0.000908 0.000000 0.000000 0.000000
# 2 -0.003589 0.017754 -0.012322 0.000000 0.000000 0.000000
# 3 0.000908 -0.012322 0.015905 0.000000 0.000000 0.000000
# 4 0.000000 0.000000 0.000000 0.003885 0.000000 0.000000
# 5 0.000000 0.000000 0.000000 0.000000 -0.024234 0.000000
# 6 0.000000 0.000000 0.000000 0.000000 0.000000 0.088678
#
#
# Mechanical properties :
#
#
# Convention : Reuss Voigt Hill
#
# Bulk Modulus (GPa) = 69.06899 77.56994 73.31946
# Shear Modulus (GPa) = 33.86549 59.98570 46.92560
#
# Velocity S-wave (km/s) = 4.06419 5.40903 4.78410
# Velocity P-wave (km/s) = 7.46401 8.76609 8.14112
#
# Compressibility (1/GPa) = 0.01447828
#
# Stress axis : x y z
#
# Youngs Moduli (GPa) = 92.38945 56.32452 62.87426
#
# Poissons Ratio (x) = 0.20213 -0.05711
# Poissons Ratio (y) = 0.33156 0.77472
# Poissons Ratio (z) = -0.08391 0.69402
#
# Static dielectric constant tensor:
#      x y z
#    x 1.820820 0.000000 0.000000 
#    y 0.000000 1.703890 0.000000 
#    z 0.000000 0.000000 1.777840 
# 
# From -- ./inp_files/23976.got.cif
#   From: 2010.05.17/outbox.cif.g08.bks.cpg/sg65_12_cif.got.tgz:23976.got - 2010.06.03 17:01:31.
