data_PCOD9492238
_publ_section_title
;
Structure prediction by ZEFSAII (Michael W. Deem and Ramdas Pophale) SiO2 
 PCOD9492238
Probable space group: C M M M
;
_chemical_formula_sum "Si O2"
_cell_formula_units_Z 72
_cell_length_a 8.809967
_cell_length_b 26.974131
_cell_length_c 15.987577
_cell_angle_alpha 90.000000
_cell_angle_beta 90.000000
_cell_angle_gamma 90.000000
_cell_volume 3799.307047
_symmetry_space_group_name_H-M "C M M M"
_symmetry_group_IT_number 65
_symmetry_cell_setting 'orthorhombic'
loop_
_space_group_symop_operation_xyz
x,y,z
-x,-y,z
x,-y,-z
-x,y,-z
-x,-y,-z
x,y,-z
-x,y,z
x,-y,z
1/2+x,1/2+y,z
1/2-x,1/2-y,z
1/2+x,1/2-y,-z
1/2-x,1/2+y,-z
1/2-x,1/2-y,-z
1/2+x,1/2+y,-z
1/2-x,1/2+y,z
1/2+x,1/2-y,z
loop_
_atom_site_type_symbol
_atom_site_label
_atom_site_fract_x
_atom_site_fract_y
_atom_site_fract_z
Si Si1 0.317626 0.500000 0.400548
Si Si2 0.818992 0.398818 0.323169
Si Si3 0.828489 0.558038 0.000000
Si Si4 0.181539 0.118521 0.141133
Si Si5 0.318068 0.696103 0.000000
Si Si6 0.673714 0.301363 0.399377
O O1 0.500000 0.500000 0.391513
O O2 0.281926 0.500000 0.500000
O O3 0.252216 0.550118 0.358681
O O4 0.762620 0.387828 0.229228
O O5 0.763107 0.350728 0.374411
O O6 0.000000 0.402896 0.326254
O O7 0.735727 0.574618 0.919063
O O8 0.842658 0.500000 0.000000
O O9 0.000000 0.579897 0.000000
O O10 0.225528 0.166087 0.084130
O O11 0.000000 0.118639 0.152422
O O12 0.250000 0.750000 0.000000
O O13 0.500000 0.697903 0.000000
O O14 0.669988 0.299020 0.500000
O O15 0.500000 0.304649 0.368666
O O16 0.750000 0.250000 0.369329
#
# Coordination Sequence:
#
# PCOD9492238 Si02
#       6
#     8  16   8  16   8  16
#     4  11  25  45  67  90 121 166 213 259 317 383
#     4  12  25  40  62  92 127 163 207 261 316 372
#     4  10  21  37  59  85 116 148 188 241 296 350
#     4  10  22  40  59  85 119 157 203 245 295 361
#     4   9  20  38  62  88 117 158 201 246 299 359
#     4  10  21  39  63  90 121 159 204 254 311 374
#
# _framework density 18.950824999999998
#
# number of rings (size 3 to 8) (size 9 to 14) (size 15 to 20)
#    0.000    1.556    0.000    5.333    1.556    9.333 
#    0.000    2.222    0.000    0.000    0.000    0.000 
#    0.000    0.000    0.000    0.000    0.000    0.000 
#
# Total GULP energy -201033.695030 kJ/mol
# GULP energy per Si atom -5584.269306 kJ/mol
# Density = 1.890769 g / cm^3
# Si number density = 18.950825 Si / 1000 Ang^3
#
#
#
# Elastic Constant Matrix: (Units=GPa)
#
#
# Indices 1 2 3 4 5 6 
#
# 1 127.5570 73.3845 53.8305 0.0000 0.0000 0.0000
# 2 73.3845 177.7858 61.7176 0.0000 0.0000 0.0000
# 3 53.8305 61.7176 95.4321 0.0000 0.0000 0.0000
# 4 0.0000 0.0000 0.0000-2340.3522 0.0000 0.0000
# 5 0.0000 0.0000 0.0000 0.0000 50.2255 0.0000
# 6 0.0000 0.0000 0.0000 0.0000 0.0000 37.5014
#
#
#
# Elastic Compliance Matrix: (Units=1/GPa)
#
#
# Indices 1 2 3 4 5 6 
#
# 1 0.011574 -0.003238 -0.004434 0.000000 0.000000 0.000000
# 2 -0.003238 0.008159 -0.003450 0.000000 0.000000 0.000000
# 3 -0.004434 -0.003450 0.015211 0.000000 0.000000 0.000000
# 4 0.000000 0.000000 0.000000 -0.000427 0.000000 0.000000
# 5 0.000000 0.000000 0.000000 0.000000 0.019910 0.000000
# 6 0.000000 0.000000 0.000000 0.000000 0.000000 0.026666
#
#
# Mechanical properties :
#
#
# Convention : Reuss Voigt Hill
#
# Bulk Modulus (GPa) = 78.74599 86.51557 82.63078
# Shear Modulus (GPa) = 46.48111 -436.40224 -194.96056
#
# Velocity S-wave (km/s) = 4.95787 -15.19149 -10.15384
# Velocity P-wave (km/s) = 8.62653 16.18507 9.68348
#
# Compressibility (1/GPa) = 0.01269906
#
# Stress axis : x y z
#
# Youngs Moduli (GPa) = 86.40191 122.56473 65.74084
#
# Poissons Ratio (x) = 0.39685 0.29152
# Poissons Ratio (y) = 0.27976 0.22681
# Poissons Ratio (z) = 0.38314 0.42286
#
# Static dielectric constant tensor:
#      x y z
#    x 1.664940 0.000000 0.000000 
#    y 0.000000 1.642910 0.000000 
#    z 0.000000 0.000000 1.455640 
# 
# From -- ./inp_files/36684.got.cif
#   From: 2010.05.17/outbox.cif.g08.bks.cpg/sg65_19_cif.got.tgz:36684.got - 2010.06.03 17:01:31.
