data_PCOD9492849
_publ_section_title
;
Structure prediction by ZEFSAII (Michael W. Deem and Ramdas Pophale) SiO2 
 PCOD9492849
Probable space group: C M M M
;
_chemical_formula_sum "Si O2"
_cell_formula_units_Z 80
_cell_length_a 29.272734
_cell_length_b 7.412254
_cell_length_c 15.992159
_cell_angle_alpha 90.000000
_cell_angle_beta 90.000000
_cell_angle_gamma 90.000000
_cell_volume 3469.929719
_symmetry_space_group_name_H-M "C M M M"
_symmetry_group_IT_number 65
_symmetry_cell_setting 'orthorhombic'
loop_
_space_group_symop_operation_xyz
x,y,z
-x,-y,z
x,-y,-z
-x,y,-z
-x,-y,-z
x,y,-z
-x,y,z
x,-y,z
1/2+x,1/2+y,z
1/2-x,1/2-y,z
1/2+x,1/2-y,-z
1/2-x,1/2+y,-z
1/2-x,1/2-y,-z
1/2+x,1/2+y,-z
1/2-x,1/2+y,z
1/2+x,1/2-y,z
loop_
_atom_site_type_symbol
_atom_site_label
_atom_site_fract_x
_atom_site_fract_y
_atom_site_fract_z
Si Si1 0.303831 0.783758 0.730137
Si Si2 0.552323 0.717595 0.270788
Si Si3 0.555413 0.285472 0.910105
Si Si4 0.195303 0.715666 0.910874
Si Si5 0.127492 0.286741 0.406131
O O1 0.250000 0.750000 0.721674
O O2 0.320322 0.712921 0.820922
O O3 0.332105 0.711207 0.652062
O O4 0.309919 0.000000 0.732684
O O5 0.500000 0.778168 0.280479
O O6 0.551699 0.500000 0.265499
O O7 0.570804 0.785239 0.180407
O O8 0.582509 0.766745 0.349863
O O9 0.500000 0.266905 0.908537
O O10 0.564792 0.500000 0.911734
O O11 0.571091 0.210017 0.000000
O O12 0.188388 0.500000 0.911377
O O13 0.250000 0.750000 0.910876
O O14 0.177666 0.787706 0.000000
O O15 0.124076 0.212813 0.500000
O O16 0.135965 0.500000 0.414271
#
# Coordination Sequence:
#
# PCOD9492849 Si02
#       5
#    16  16  16  16  16
#     4   9  18  33  52  73  97 126 161 200 242 291
#     4   9  18  33  54  79 103 128 164 209 249 287
#     4   7  10  20  42  71 100 128 156 189 235 289
#     4   8  13  23  42  67  93 121 152 187 231 283
#     4  10  22  38  52  69  98 134 169 207 255 308
#
# _framework density 23.055222000000001
#
# number of rings (size 3 to 8) (size 9 to 14) (size 15 to 20)
#    0.000    3.400    0.000    1.800    0.000    2.400 
#    0.000    3.000    0.000    1.800    0.000    8.400 
#    0.000    0.000    0.000    0.000    0.000    0.000 
#
# Total GULP energy -223082.666820 kJ/mol
# GULP energy per Si atom -5577.066670 kJ/mol
# Density = 2.300275 g / cm^3
# Si number density = 23.055222 Si / 1000 Ang^3
#
#
#
# Elastic Constant Matrix: (Units=GPa)
#
#
# Indices 1 2 3 4 5 6 
#
# 1 96.6726 -7.7495 85.1977 0.0000 0.0000 0.0000
# 2 -7.7495 84.6594 15.9484 0.0000 0.0000 0.0000
# 3 85.1977 15.9484 318.3410 0.0000 0.0000 0.0000
# 4 0.0000 0.0000 0.0000 48.1925 0.0000 0.0000
# 5 0.0000 0.0000 0.0000 0.0000 22.0630 0.0000
# 6 0.0000 0.0000 0.0000 0.0000 0.0000 11.5815
#
#
#
# Elastic Compliance Matrix: (Units=1/GPa)
#
#
# Indices 1 2 3 4 5 6 
#
# 1 0.013860 0.001986 -0.003809 0.000000 0.000000 0.000000
# 2 0.001986 0.012209 -0.001143 0.000000 0.000000 0.000000
# 3 -0.003809 -0.001143 0.004218 0.000000 0.000000 0.000000
# 4 0.000000 0.000000 0.000000 0.020750 0.000000 0.000000
# 5 0.000000 0.000000 0.000000 0.000000 0.045325 0.000000
# 6 0.000000 0.000000 0.000000 0.000000 0.000000 0.086345
#
#
# Mechanical properties :
#
#
# Convention : Reuss Voigt Hill
#
# Bulk Modulus (GPa) = 41.05836 76.27403 58.66619
# Shear Modulus (GPa) = 25.41200 43.45248 34.43224
#
# Velocity S-wave (km/s) = 3.32358 4.34604 3.86873
# Velocity P-wave (km/s) = 5.70750 7.63800 6.74220
#
# Compressibility (1/GPa) = 0.02435558
#
# Stress axis : x y z
#
# Youngs Moduli (GPa) = 72.14892 81.90526 237.08239
#
# Poissons Ratio (x) = -0.16269 0.90303
# Poissons Ratio (y) = -0.14331 0.27104
# Poissons Ratio (z) = 0.27481 0.09364
#
# Static dielectric constant tensor:
#      x y z
#    x 2.118740 0.000000 0.000000 
#    y 0.000000 1.846430 0.000000 
#    z 0.000000 0.000000 1.918890 
# 
# From -- ./inp_files/45342.got.cif
#   From: 2010.05.17/outbox.cif.g08.bks.cpg/sg65_23_cif.got.tgz:45342.got - 2010.06.03 17:01:31.
