data_PCOD9492595
_publ_section_title
;
Structure prediction by ZEFSAII (Michael W. Deem and Ramdas Pophale) SiO2 
 PCOD9492595
Probable space group: C M M M
;
_chemical_formula_sum "Si O2"
_cell_formula_units_Z 64
_cell_length_a 15.203139
_cell_length_b 8.719816
_cell_length_c 25.271967
_cell_angle_alpha 90.000000
_cell_angle_beta 90.000000
_cell_angle_gamma 90.000000
_cell_volume 3350.268645
_symmetry_space_group_name_H-M "C M M M"
_symmetry_group_IT_number 65
_symmetry_cell_setting 'orthorhombic'
loop_
_space_group_symop_operation_xyz
x,y,z
-x,-y,z
x,-y,-z
-x,y,-z
-x,-y,-z
x,y,-z
-x,y,z
x,-y,z
1/2+x,1/2+y,z
1/2-x,1/2-y,z
1/2+x,1/2-y,-z
1/2-x,1/2+y,-z
1/2-x,1/2-y,-z
1/2+x,1/2+y,-z
1/2-x,1/2+y,z
1/2+x,1/2-y,z
loop_
_atom_site_type_symbol
_atom_site_label
_atom_site_fract_x
_atom_site_fract_y
_atom_site_fract_z
Si Si1 0.500000 0.684501 0.800731
Si Si2 0.102837 0.830364 0.500000
Si Si3 0.848732 0.815688 0.719241
Si Si4 0.650610 0.185468 0.000000
Si Si5 0.652524 0.182643 0.389303
Si Si6 0.000000 0.684743 0.081983
O O1 0.500000 0.500000 0.804822
O O2 0.586348 0.727727 0.766852
O O3 0.500000 0.754237 0.858818
O O4 0.121658 0.739999 0.446301
O O5 0.000000 0.852592 0.500000
O O6 0.147267 0.000000 0.500000
O O7 0.750000 0.750000 0.726786
O O8 0.888779 0.752264 0.663997
O O9 0.843384 0.000000 0.715513
O O10 0.750000 0.250000 0.000000
O O11 0.588457 0.231532 0.950136
O O12 0.656902 0.000000 0.000000
O O13 0.750000 0.250000 0.386034
O O14 0.650190 0.000000 0.386831
O O15 0.000000 0.500000 0.082050
#
# Coordination Sequence:
#
# PCOD9492595 Si02
#       6
#     8   8  16   8  16   8
#     4  10  23  39  59  85 119 156 195 240 290 340
#     4  11  24  39  56  79 109 143 178 225 286 347
#     4  10  21  39  59  83 113 151 193 238 290 348
#     4   9  19  37  60  88 120 159 197 239 286 336
#     4  11  22  38  59  82 108 140 182 231 283 345
#     4   9  20  38  58  84 121 157 197 238 285 339
#
# _framework density 19.102945999999999
#
# number of rings (size 3 to 8) (size 9 to 14) (size 15 to 20)
#    0.000    1.875    0.000    6.000    1.750    5.000 
#    0.000    6.250    0.000    0.000    0.000    0.000 
#    0.000    0.000    0.000    0.000    0.000    0.000 
#
# Total GULP energy -178507.118121 kJ/mol
# GULP energy per Si atom -5578.347441 kJ/mol
# Density = 1.905947 g / cm^3
# Si number density = 19.102946 Si / 1000 Ang^3
#
#
#
# Elastic Constant Matrix: (Units=GPa)
#
#
# Indices 1 2 3 4 5 6 
#
# 1 129.1648 41.3274 89.3246 0.0000 0.0000 0.0000
# 2 41.3274 96.4470 64.6938 0.0000 0.0000 0.0000
# 3 89.3246 64.6938 213.4530 0.0000 0.0000 0.0000
# 4 0.0000 0.0000 0.0000 39.1427 0.0000 0.0000
# 5 0.0000 0.0000 0.0000 0.0000 23.6302 0.0000
# 6 0.0000 0.0000 0.0000 0.0000 0.0000 23.2806
#
#
#
# Elastic Compliance Matrix: (Units=1/GPa)
#
#
# Indices 1 2 3 4 5 6 
#
# 1 0.011218 -0.002081 -0.004064 0.000000 0.000000 0.000000
# 2 -0.002081 0.013400 -0.003190 0.000000 0.000000 0.000000
# 3 -0.004064 -0.003190 0.007352 0.000000 0.000000 0.000000
# 4 0.000000 0.000000 0.000000 0.025548 0.000000 0.000000
# 5 0.000000 0.000000 0.000000 0.000000 0.042319 0.000000
# 6 0.000000 0.000000 0.000000 0.000000 0.000000 0.042954
#
#
# Mechanical properties :
#
#
# Convention : Reuss Voigt Hill
#
# Bulk Modulus (GPa) = 75.18726 92.19514 83.69120
# Shear Modulus (GPa) = 30.13944 33.45865 31.79904
#
# Velocity S-wave (km/s) = 3.97638 4.18962 4.08440
# Velocity P-wave (km/s) = 7.77988 8.47177 8.13319
#
# Compressibility (1/GPa) = 0.01330013
#
# Stress axis : x y z
#
# Youngs Moduli (GPa) = 89.14036 74.62568 136.00932
#
# Poissons Ratio (x) = 0.15531 0.55271
# Poissons Ratio (y) = 0.18551 0.43393
# Poissons Ratio (z) = 0.36225 0.23809
#
# Static dielectric constant tensor:
#      x y z
#    x 1.656290 0.000000 0.000000 
#    y 0.000000 1.701240 0.000000 
#    z 0.000000 0.000000 1.769540 
# 
# From -- ./inp_files/69582.got.cif
#   From: 2010.05.17/outbox.cif.g08.bks.cpg/sg65_35_cif.got.tgz:69582.got - 2010.06.03 17:01:31.
