data_PCOD9492028
_publ_section_title
;
Structure prediction by ZEFSAII (Michael W. Deem and Ramdas Pophale) SiO2 
 PCOD9492028
Probable space group: C M M M
;
_chemical_formula_sum "Si O2"
_cell_formula_units_Z 68
_cell_length_a 21.204175
_cell_length_b 18.782754
_cell_length_c 8.225756
_cell_angle_alpha 90.000000
_cell_angle_beta 90.000000
_cell_angle_gamma 90.000000
_cell_volume 3276.094897
_symmetry_space_group_name_H-M "C M M M"
_symmetry_group_IT_number 65
_symmetry_cell_setting 'orthorhombic'
loop_
_space_group_symop_operation_xyz
x,y,z
-x,-y,z
x,-y,-z
-x,y,-z
-x,-y,-z
x,y,-z
-x,y,z
x,-y,z
1/2+x,1/2+y,z
1/2-x,1/2-y,z
1/2+x,1/2-y,-z
1/2-x,1/2+y,-z
1/2-x,1/2-y,-z
1/2+x,1/2+y,-z
1/2-x,1/2+y,z
1/2+x,1/2-y,z
loop_
_atom_site_type_symbol
_atom_site_label
_atom_site_fract_x
_atom_site_fract_y
_atom_site_fract_z
Si Si1 0.571638 0.806032 0.000000
Si Si2 0.741796 0.656032 0.673800
Si Si3 0.809465 0.000000 0.666017
Si Si4 0.402715 0.703336 0.309490
Si Si5 0.205393 0.000000 0.000000
Si Si6 0.799346 0.364313 0.000000
Si Si7 0.000000 0.080300 0.304821
O O1 0.581506 0.758704 0.835095
O O2 0.500000 0.832085 0.000000
O O3 0.625234 0.867115 0.000000
O O4 0.770493 0.677394 0.500000
O O5 0.732719 0.570626 0.664939
O O6 0.671219 0.685193 0.689120
O O7 0.780536 0.674159 0.833092
O O8 0.838480 0.000000 0.842661
O O9 0.849153 0.000000 0.500000
O O10 0.419233 0.722850 0.500000
O O11 0.440097 0.630594 0.266712
O O12 0.253683 0.933303 0.000000
O O13 0.000000 0.074373 0.500000
O O14 0.000000 0.000000 0.238213
#
# Coordination Sequence:
#
# PCOD9492028 Si02
#       7
#     8  16   8  16   4   8   8
#     4  12  25  41  57  75 104 147 186 219 273 336
#     4   9  18  32  54  84 110 141 178 222 273 317
#     4   8  14  26  48  78 112 140 168 205 263 326
#     4  10  21  37  56  80 114 150 189 227 259 306
#     4   8  16  34  55  78 104 129 160 216 280 326
#     4  10  21  38  59  81 108 135 171 226 279 334
#     4   9  18  33  55  81 114 157 196 227 253 288
#
# _framework density 20.756418
#
# number of rings (size 3 to 8) (size 9 to 14) (size 15 to 20)
#    0.000    2.471    1.176    0.706    1.647    2.824 
#    0.000    3.824    0.000    0.000    0.000    0.000 
#    0.000   11.294    0.000    0.000    0.000    0.000 
#
# Total GULP energy -189434.011189 kJ/mol
# GULP energy per Si atom -5571.588564 kJ/mol
# Density = 2.070918 g / cm^3
# Si number density = 20.756418 Si / 1000 Ang^3
#
#
#
# Elastic Constant Matrix: (Units=GPa)
#
#
# Indices 1 2 3 4 5 6 
#
# 1 103.7543 -3.8683 37.7149 0.0000 0.0000 0.0000
# 2 -3.8683 66.0480 0.9645 0.0000 0.0000 0.0000
# 3 37.7149 0.9645 186.7215 0.0000 0.0000 0.0000
# 4 0.0000 0.0000 0.0000 -8.5089 0.0000 0.0000
# 5 0.0000 0.0000 0.0000 0.0000 17.9719 0.0000
# 6 0.0000 0.0000 0.0000 0.0000 0.0000 12.9215
#
#
#
# Elastic Compliance Matrix: (Units=1/GPa)
#
#
# Indices 1 2 3 4 5 6 
#
# 1 0.010429 0.000642 -0.002110 0.000000 0.000000 0.000000
# 2 0.000642 0.015181 -0.000208 0.000000 0.000000 0.000000
# 3 -0.002110 -0.000208 0.005783 0.000000 0.000000 0.000000
# 4 0.000000 0.000000 0.000000 -0.117524 0.000000 0.000000
# 5 0.000000 0.000000 0.000000 0.000000 0.055642 0.000000
# 6 0.000000 0.000000 0.000000 0.000000 0.000000 0.077391
#
#
# Mechanical properties :
#
#
# Convention : Reuss Voigt Hill
#
# Bulk Modulus (GPa) = 35.66274 47.34957 41.50615
# Shear Modulus (GPa) = 83.89116 25.92442 54.90779
#
# Velocity S-wave (km/s) = 6.36433 3.53793 5.14887
# Velocity P-wave (km/s) = 8.43950 6.28894 7.44231
#
# Compressibility (1/GPa) = 0.02804047
#
# Stress axis : x y z
#
# Youngs Moduli (GPa) = 95.88653 65.87133 172.92683
#
# Poissons Ratio (x) = -0.04226 0.36484
# Poissons Ratio (y) = -0.06152 0.03597
# Poissons Ratio (z) = 0.20230 0.01370
#
# Static dielectric constant tensor:
#      x y z
#    x 1.704450 0.000000 0.000000 
#    y 0.000000 1.778850 0.000000 
#    z 0.000000 0.000000 1.849110 
# 
# From -- ./inp_files/9017.got.cif
#   From: 2010.05.17/outbox.cif.g08.bks.cpg/sg65_5_cif.got.tgz:9017.got - 2010.06.03 17:01:31.
