data_PCOD9492184
_publ_section_title
;
Structure prediction by ZEFSAII (Michael W. Deem and Ramdas Pophale) SiO2 
 PCOD9492184
Probable space group: C M M M
;
_chemical_formula_sum "Si O2"
_cell_formula_units_Z 64
_cell_length_a 26.838276
_cell_length_b 14.105892
_cell_length_c 8.219476
_cell_angle_alpha 90.000000
_cell_angle_beta 90.000000
_cell_angle_gamma 90.000000
_cell_volume 3111.711328
_symmetry_space_group_name_H-M "C M M M"
_symmetry_group_IT_number 65
_symmetry_cell_setting 'orthorhombic'
loop_
_space_group_symop_operation_xyz
x,y,z
-x,-y,z
x,-y,-z
-x,y,-z
-x,-y,-z
x,y,-z
-x,y,z
x,-y,z
1/2+x,1/2+y,z
1/2-x,1/2-y,z
1/2+x,1/2-y,-z
1/2-x,1/2+y,-z
1/2-x,1/2-y,-z
1/2+x,1/2+y,-z
1/2-x,1/2+y,z
1/2+x,1/2-y,z
loop_
_atom_site_type_symbol
_atom_site_label
_atom_site_fract_x
_atom_site_fract_y
_atom_site_fract_z
Si Si1 0.056166 0.384222 0.500000
Si Si2 0.000000 0.890155 0.194009
Si Si3 0.307764 0.760986 0.303150
Si Si4 0.391779 0.390705 0.695585
Si Si5 0.386405 0.886632 0.822250
O O1 0.056118 0.500000 0.500000
O O2 0.083018 0.353665 0.335166
O O3 0.000000 0.350467 0.500000
O O4 0.053778 0.853008 0.251184
O O5 0.000000 0.000000 0.252816
O O6 0.000000 0.888244 0.000000
O O7 0.310941 0.772148 0.500000
O O8 0.250000 0.750000 0.262163
O O9 0.344986 0.674770 0.255471
O O10 0.331002 0.851279 0.213621
O O11 0.391705 0.392749 0.500000
O O12 0.386488 0.500000 0.754576
O O13 0.389082 0.000000 0.823667
O O14 0.403723 0.852617 0.000000
#
# Coordination Sequence:
#
# PCOD9492184 Si02
#       5
#     8   8  16  16  16
#     4   9  18  36  61  86 115 151 192 242 292 342
#     4   9  17  31  53  79 108 143 182 227 281 340
#     4  10  21  37  58  84 115 153 196 242 292 346
#     4   9  18  34  55  81 112 146 186 231 282 341
#     4  10  21  38  60  86 117 154 195 239 292 350
#
# _framework density 20.567461000000002
#
# number of rings (size 3 to 8) (size 9 to 14) (size 15 to 20)
#    0.000    2.500    1.250    0.375    0.000    4.500 
#    2.250    5.000    0.000    3.000    0.000    0.000 
#    0.000    0.000    0.000    0.000    0.000    0.000 
#
# Total GULP energy -178514.965904 kJ/mol
# GULP energy per Si atom -5578.592684 kJ/mol
# Density = 2.052065 g / cm^3
# Si number density = 20.567461 Si / 1000 Ang^3
#
#
#
# Elastic Constant Matrix: (Units=GPa)
#
#
# Indices 1 2 3 4 5 6 
#
# 1 173.0293 31.7860 65.2595 0.0000 0.0000 0.0000
# 2 31.7860 50.7512 21.6547 0.0000 0.0000 0.0000
# 3 65.2595 21.6547 104.2799 0.0000 0.0000 0.0000
# 4 0.0000 0.0000 0.0000 12.2762 0.0000 0.0000
# 5 0.0000 0.0000 0.0000 0.0000 -5.7515 0.0000
# 6 0.0000 0.0000 0.0000 0.0000 0.0000 31.3447
#
#
#
# Elastic Compliance Matrix: (Units=1/GPa)
#
#
# Indices 1 2 3 4 5 6 
#
# 1 0.008000 -0.003154 -0.004352 0.000000 0.000000 0.000000
# 2 -0.003154 0.022863 -0.002774 0.000000 0.000000 0.000000
# 3 -0.004352 -0.002774 0.012889 0.000000 0.000000 0.000000
# 4 0.000000 0.000000 0.000000 0.081459 0.000000 0.000000
# 5 0.000000 0.000000 0.000000 0.000000 -0.173868 0.000000
# 6 0.000000 0.000000 0.000000 0.000000 0.000000 0.031903
#
#
# Mechanical properties :
#
#
# Convention : Reuss Voigt Hill
#
# Bulk Modulus (GPa) = 43.11643 62.82896 52.97270
# Shear Modulus (GPa) = 433.45636 21.53124 227.49380
#
# Velocity S-wave (km/s) = 14.53293 3.23903 10.52847
# Velocity P-wave (km/s) = 17.39589 6.67851 13.17611
#
# Compressibility (1/GPa) = 0.02319301
#
# Stress axis : x y z
#
# Youngs Moduli (GPa) = 125.00102 43.73916 77.58629
#
# Poissons Ratio (x) = 0.13794 0.33762
# Poissons Ratio (y) = 0.39422 0.21523
# Poissons Ratio (z) = 0.54395 0.12133
#
# Static dielectric constant tensor:
#      x y z
#    x 1.773070 0.000000 0.000000 
#    y 0.000000 1.780690 0.000000 
#    z 0.000000 0.000000 1.734540 
# 
# From -- ./inp_files/13361.got.cif
#   From: 2010.05.17/outbox.cif.g08.bks.cpg/sg65_7_cif.got.tgz:13361.got - 2010.06.03 17:01:31.
