data_PCOD9492671
_publ_section_title
;
Structure prediction by ZEFSAII (Michael W. Deem and Ramdas Pophale) SiO2 
 PCOD9492671
Probable space group: C M M M
;
_chemical_formula_sum "Si O2"
_cell_formula_units_Z 80
_cell_length_a 21.204638
_cell_length_b 13.410908
_cell_length_c 14.144970
_cell_angle_alpha 90.000000
_cell_angle_beta 90.000000
_cell_angle_gamma 90.000000
_cell_volume 4022.453910
_symmetry_space_group_name_H-M "C M M M"
_symmetry_group_IT_number 65
_symmetry_cell_setting 'orthorhombic'
loop_
_space_group_symop_operation_xyz
x,y,z
-x,-y,z
x,-y,-z
-x,y,-z
-x,-y,-z
x,y,-z
-x,y,z
x,-y,z
1/2+x,1/2+y,z
1/2-x,1/2-y,z
1/2+x,1/2-y,-z
1/2-x,1/2+y,-z
1/2-x,1/2-y,-z
1/2+x,1/2+y,-z
1/2-x,1/2+y,z
1/2+x,1/2-y,z
loop_
_atom_site_type_symbol
_atom_site_label
_atom_site_fract_x
_atom_site_fract_y
_atom_site_fract_z
Si Si1 0.848767 0.109460 0.289480
Si Si2 0.598605 0.000000 0.611130
Si Si3 0.751720 0.500000 0.609766
Si Si4 0.572557 0.780182 0.389302
Si Si5 0.176409 0.776788 0.889052
Si Si6 0.428908 0.114328 0.884907
O O1 0.885368 0.199707 0.336733
O O2 0.839821 0.132752 0.179778
O O3 0.879237 0.000000 0.304279
O O4 0.780563 0.093905 0.338568
O O5 0.673920 0.000000 0.616212
O O6 0.576782 0.106673 0.649711
O O7 0.578346 0.000000 0.500000
O O8 0.733206 0.500000 0.500000
O O9 0.591987 0.784225 0.500000
O O10 0.500000 0.748996 0.384960
O O11 0.250000 0.750000 0.875964
O O12 0.128644 0.687232 0.861022
O O13 0.166882 0.798106 0.000000
O O14 0.500000 0.146667 0.855476
O O15 0.418660 0.000000 0.853806
O O16 0.429931 0.112316 0.000000
#
# Coordination Sequence:
#
# PCOD9492671 Si02
#       6
#    16   8   8  16  16  16
#     4  10  24  38  59  86 121 167 210 254 294 360
#     4   9  19  36  63  94 123 156 193 248 321 377
#     4   9  20  39  62  92 122 159 203 249 303 365
#     4  10  21  39  64  93 126 160 199 253 317 383
#     4  10  22  39  60  87 123 167 212 262 316 365
#     4   8  15  32  59  87 114 147 191 247 311 373
#
# _framework density 19.888356999999999
#
# number of rings (size 3 to 8) (size 9 to 14) (size 15 to 20)
#    0.600    2.000    0.000    1.500    2.800    3.600 
#    1.800    6.000    0.000    0.000    0.000    4.200 
#    0.000    0.000    0.000    0.000    0.000    0.000 
#
# Total GULP energy -223081.929480 kJ/mol
# GULP energy per Si atom -5577.048237 kJ/mol
# Density = 1.984309 g / cm^3
# Si number density = 19.888357 Si / 1000 Ang^3
#
#
#
# Elastic Constant Matrix: (Units=GPa)
#
#
# Indices 1 2 3 4 5 6 
#
# 1 103.1050 45.7159 27.9722 0.0000 0.0000 0.0000
# 2 45.7159 88.3581 35.8409 0.0000 0.0000 0.0000
# 3 27.9722 35.8409 74.5873 0.0000 0.0000 0.0000
# 4 0.0000 0.0000 0.0000 37.9530 0.0000 0.0000
# 5 0.0000 0.0000 0.0000 0.0000 -14.5438 0.0000
# 6 0.0000 0.0000 0.0000 0.0000 0.0000 31.1256
#
#
#
# Elastic Compliance Matrix: (Units=1/GPa)
#
#
# Indices 1 2 3 4 5 6 
#
# 1 0.012825 -0.005819 -0.002014 0.000000 0.000000 0.000000
# 2 -0.005819 0.016698 -0.005841 0.000000 0.000000 0.000000
# 3 -0.002014 -0.005841 0.016969 0.000000 0.000000 0.000000
# 4 0.000000 0.000000 0.000000 0.026348 0.000000 0.000000
# 5 0.000000 0.000000 0.000000 0.000000 -0.068758 0.000000
# 6 0.000000 0.000000 0.000000 0.000000 0.000000 0.032128
#
#
# Mechanical properties :
#
#
# Convention : Reuss Voigt Hill
#
# Bulk Modulus (GPa) = 52.23511 53.90094 53.06802
# Shear Modulus (GPa) = 71.49003 21.34172 46.41588
#
# Velocity S-wave (km/s) = 6.00198 3.27934 4.83621
# Velocity P-wave (km/s) = 8.62281 6.44200 7.61092
#
# Compressibility (1/GPa) = 0.01914421
#
# Stress axis : x y z
#
# Youngs Moduli (GPa) = 77.97152 59.88853 58.93020
#
# Poissons Ratio (x) = 0.34848 0.11867
# Poissons Ratio (y) = 0.45371 0.34424
# Poissons Ratio (z) = 0.15701 0.34983
#
# Static dielectric constant tensor:
#      x y z
#    x 1.671950 0.000000 0.000000 
#    y 0.000000 1.687180 0.000000 
#    z 0.000000 0.000000 1.745980 
# 
# From -- ./inp_files/55604.got.cif
#   From: 2010.05.17/outbox.cif.g08.bks.cpg/sg65_28_cif.got.tgz:55604.got - 2010.06.03 17:01:31.
