data_PCOD9492683
_publ_section_title
;
Structure prediction by ZEFSAII (Michael W. Deem and Ramdas Pophale) SiO2 
 PCOD9492683
Probable space group: C M M M
;
_chemical_formula_sum "Si O2"
_cell_formula_units_Z 58
_cell_length_a 16.970488
_cell_length_b 19.891762
_cell_length_c 8.076027
_cell_angle_alpha 90.000000
_cell_angle_beta 90.000000
_cell_angle_gamma 90.000000
_cell_volume 2726.247922
_symmetry_space_group_name_H-M "C M M M"
_symmetry_group_IT_number 65
_symmetry_cell_setting 'orthorhombic'
loop_
_space_group_symop_operation_xyz
x,y,z
-x,-y,z
x,-y,-z
-x,y,-z
-x,-y,-z
x,y,-z
-x,y,z
x,-y,z
1/2+x,1/2+y,z
1/2-x,1/2-y,z
1/2+x,1/2-y,-z
1/2-x,1/2+y,-z
1/2-x,1/2-y,-z
1/2+x,1/2+y,-z
1/2-x,1/2+y,z
1/2+x,1/2-y,z
loop_
_atom_site_type_symbol
_atom_site_label
_atom_site_fract_x
_atom_site_fract_y
_atom_site_fract_z
Si Si1 0.910653 0.686297 0.300844
Si Si2 0.835403 0.179423 0.810372
Si Si3 0.703986 0.924020 0.302260
Si Si4 0.000000 0.897379 0.188029
Si Si5 0.000000 0.000000 0.500000
O O1 0.915226 0.683593 0.500000
O O2 0.849822 0.746280 0.260226
O O3 0.872466 0.616557 0.239642
O O4 0.000000 0.697595 0.238019
O O5 0.777125 0.125882 0.727813
O O6 0.921838 0.146961 0.803108
O O7 0.810061 0.185501 0.000000
O O8 0.695911 0.929921 0.500000
O O9 0.714765 0.000000 0.235964
O O10 0.000000 0.943240 0.350489
O O11 0.000000 0.927390 0.000000
#
# Coordination Sequence:
#
# PCOD9492683 Si02
#       5
#    16  16  16   8   2
#     4  10  21  39  65  92 121 159 209 261 314 386
#     4  11  23  40  61  88 125 162 207 267 316 373
#     4  10  23  40  61  91 125 161 206 258 317 391
#     4  10  25  41  59  96 132 168 225 270 315 393
#     4  12  26  36  68  90 128 192 202 268 344 386
#
# _framework density 21.274660999999998
#
# number of rings (size 3 to 8) (size 9 to 14) (size 15 to 20)
#    0.000    1.655    1.379    1.862    5.793    5.517 
#    0.000    2.759    0.000    0.000    0.000    3.862 
#    0.000    0.000    0.000    0.000    0.000    0.000 
#
# Total GULP energy -161550.151824 kJ/mol
# GULP energy per Si atom -5570.694890 kJ/mol
# Density = 2.122624 g / cm^3
# Si number density = 21.274661 Si / 1000 Ang^3
#
#
#
# Elastic Constant Matrix: (Units=GPa)
#
#
# Indices 1 2 3 4 5 6 
#
# 1 79.7719 71.6911 1.5681 0.0000 0.0000 0.0000
# 2 71.6911 187.1316 30.7651 0.0000 0.0000 0.0000
# 3 1.5681 30.7651 69.6647 0.0000 0.0000 0.0000
# 4 0.0000 0.0000 0.0000 18.7350 0.0000 0.0000
# 5 0.0000 0.0000 0.0000 0.0000 2.7071 0.0000
# 6 0.0000 0.0000 0.0000 0.0000 0.0000 28.3887
#
#
#
# Elastic Compliance Matrix: (Units=1/GPa)
#
#
# Indices 1 2 3 4 5 6 
#
# 1 0.019728 -0.008071 0.003120 0.000000 0.000000 0.000000
# 2 -0.008071 0.009064 -0.003821 0.000000 0.000000 0.000000
# 3 0.003120 -0.003821 0.015972 0.000000 0.000000 0.000000
# 4 0.000000 0.000000 0.000000 0.053376 0.000000 0.000000
# 5 0.000000 0.000000 0.000000 0.000000 0.369397 0.000000
# 6 0.000000 0.000000 0.000000 0.000000 0.000000 0.035225
#
#
# Mechanical properties :
#
#
# Convention : Reuss Voigt Hill
#
# Bulk Modulus (GPa) = 36.73800 60.51297 48.62549
# Shear Modulus (GPa) = 9.44504 25.46908 17.45706
#
# Velocity S-wave (km/s) = 2.10932 3.46375 2.86764
# Velocity P-wave (km/s) = 4.82060 6.67099 5.81981
#
# Compressibility (1/GPa) = 0.02721978
#
# Stress axis : x y z
#
# Youngs Moduli (GPa) = 50.69055 110.32707 62.61072
#
# Poissons Ratio (x) = 0.89041 -0.19535
# Poissons Ratio (y) = 0.40911 0.23924
# Poissons Ratio (z) = -0.15816 0.42157
#
# Static dielectric constant tensor:
#      x y z
#    x 1.802160 0.000000 0.000000 
#    y 0.000000 1.804020 0.000000 
#    z 0.000000 0.000000 1.756550 
# 
# From -- ./inp_files/8543.got.cif
#   From: 2010.05.17/outbox.cif.g08.bks.cpg/sg65_5_cif.got.tgz:8543.got - 2010.06.03 17:01:31.
