data_PCOD9492372
_publ_section_title
;
Structure prediction by ZEFSAII (Michael W. Deem and Ramdas Pophale) SiO2 
 PCOD9492372
Probable space group: C M M M
;
_chemical_formula_sum "Si O2"
_cell_formula_units_Z 96
_cell_length_a 19.000737
_cell_length_b 8.742413
_cell_length_c 31.343768
_cell_angle_alpha 90.000000
_cell_angle_beta 90.000000
_cell_angle_gamma 90.000000
_cell_volume 5206.585085
_symmetry_space_group_name_H-M "C M M M"
_symmetry_group_IT_number 65
_symmetry_cell_setting 'orthorhombic'
loop_
_space_group_symop_operation_xyz
x,y,z
-x,-y,z
x,-y,-z
-x,y,-z
-x,-y,-z
x,y,-z
-x,y,z
x,-y,z
1/2+x,1/2+y,z
1/2-x,1/2-y,z
1/2+x,1/2-y,-z
1/2-x,1/2+y,-z
1/2-x,1/2-y,-z
1/2+x,1/2+y,-z
1/2-x,1/2+y,z
1/2+x,1/2-y,z
loop_
_atom_site_type_symbol
_atom_site_label
_atom_site_fract_x
_atom_site_fract_y
_atom_site_fract_z
Si Si1 0.916973 0.817372 0.870958
Si Si2 0.828421 0.182273 0.297608
Si Si3 0.826805 0.182730 0.550072
Si Si4 0.582100 0.183426 0.624278
Si Si5 0.828281 0.815256 0.047344
Si Si6 0.582948 0.817620 0.220403
O O1 0.875065 0.765362 0.912732
O O2 0.896761 0.732953 0.827367
O O3 0.000000 0.792721 0.877725
O O4 0.906024 0.000000 0.865252
O O5 0.750000 0.250000 0.298259
O O6 0.872636 0.245117 0.337595
O O7 0.869318 0.235219 0.255197
O O8 0.824729 0.000000 0.299592
O O9 0.839327 0.215550 0.500000
O O10 0.750000 0.250000 0.561232
O O11 0.884845 0.257065 0.580246
O O12 0.825790 0.000000 0.555862
O O13 0.500000 0.225692 0.628135
O O14 0.587382 0.000000 0.626300
O O15 0.750000 0.750000 0.051609
O O16 0.825565 0.000000 0.048318
O O17 0.855086 0.770820 0.000000
O O18 0.500000 0.777820 0.226365
O O19 0.589636 0.000000 0.225132
#
# Coordination Sequence:
#
# PCOD9492372 Si02
#       6
#    16  16  16  16  16  16
#     4   9  18  33  53  77 105 139 180 223 268 321
#     4  12  25  41  62  86 114 147 186 231 278 331
#     4  10  21  38  61  88 119 155 195 239 285 334
#     4  11  24  41  61  86 118 154 191 233 282 335
#     4   9  18  32  50  73 102 137 176 220 270 322
#     4  10  21  38  59  83 113 146 181 224 275 330
#
# _framework density 18.438189000000001
#
# number of rings (size 3 to 8) (size 9 to 14) (size 15 to 20)
#    0.000    1.833    0.000    4.000    0.000    7.333 
#    0.000    5.000    0.000    0.000    0.000    4.667 
#    0.000    0.000    0.000    0.000    0.000    0.000 
#
# Total GULP energy -268184.297216 kJ/mol
# GULP energy per Si atom -5587.172859 kJ/mol
# Density = 1.839622 g / cm^3
# Si number density = 18.438189 Si / 1000 Ang^3
#
#
#
# Elastic Constant Matrix: (Units=GPa)
#
#
# Indices 1 2 3 4 5 6 
#
# 1 126.0422 64.2055 97.8108 0.0000 0.0000 0.0000
# 2 64.2055 74.1830 62.8297 0.0000 0.0000 0.0000
# 3 97.8108 62.8297 133.3669 0.0000 0.0000 0.0000
# 4 0.0000 0.0000 0.0000 25.2243 0.0000 0.0000
# 5 0.0000 0.0000 0.0000 0.0000 40.9171 0.0000
# 6 0.0000 0.0000 0.0000 0.0000 0.0000 30.0525
#
#
#
# Elastic Compliance Matrix: (Units=1/GPa)
#
#
# Indices 1 2 3 4 5 6 
#
# 1 0.021304 -0.008662 -0.011544 0.000000 0.000000 0.000000
# 2 -0.008662 0.025951 -0.005873 0.000000 0.000000 0.000000
# 3 -0.011544 -0.005873 0.018731 0.000000 0.000000 0.000000
# 4 0.000000 0.000000 0.000000 0.039644 0.000000 0.000000
# 5 0.000000 0.000000 0.000000 0.000000 0.024440 0.000000
# 6 0.000000 0.000000 0.000000 0.000000 0.000000 0.033275
#
#
# Mechanical properties :
#
#
# Convention : Reuss Voigt Hill
#
# Bulk Modulus (GPa) = 72.31152 87.03157 79.67155
# Shear Modulus (GPa) = 22.71550 26.48855 24.60202
#
# Velocity S-wave (km/s) = 3.51377 3.79438 3.65677
# Velocity P-wave (km/s) = 7.46763 8.15480 7.81877
#
# Compressibility (1/GPa) = 0.01382905
#
# Stress axis : x y z
#
# Youngs Moduli (GPa) = 46.93844 38.53364 53.38637
#
# Poissons Ratio (x) = 0.33377 0.61629
# Poissons Ratio (y) = 0.40657 0.31355
# Poissons Ratio (z) = 0.54186 0.22632
#
# Static dielectric constant tensor:
#      x y z
#    x 1.603510 0.000000 0.000000 
#    y 0.000000 1.618820 0.000000 
#    z 0.000000 0.000000 1.628500 
# 
# From -- ./inp_files/75397.got.cif
#   From: 2010.05.17/outbox.cif.g08.bks.cpg/sg65_38_cif.got.tgz:75397.got - 2010.06.03 17:01:31.
