data_PCOD9492079
_publ_section_title
;
Structure prediction by ZEFSAII (Michael W. Deem and Ramdas Pophale) SiO2 
 PCOD9492079
Probable space group: C M M M
;
_chemical_formula_sum "Si O2"
_cell_formula_units_Z 104
_cell_length_a 19.022650
_cell_length_b 9.021600
_cell_length_c 33.802463
_cell_angle_alpha 90.000000
_cell_angle_beta 90.000000
_cell_angle_gamma 90.000000
_cell_volume 5801.000873
_symmetry_space_group_name_H-M "C M M M"
_symmetry_group_IT_number 65
_symmetry_cell_setting 'orthorhombic'
loop_
_space_group_symop_operation_xyz
x,y,z
-x,-y,z
x,-y,-z
-x,y,-z
-x,-y,-z
x,y,-z
-x,y,z
x,-y,z
1/2+x,1/2+y,z
1/2-x,1/2-y,z
1/2+x,1/2-y,-z
1/2-x,1/2+y,-z
1/2-x,1/2-y,-z
1/2+x,1/2+y,-z
1/2-x,1/2+y,z
1/2+x,1/2-y,z
loop_
_atom_site_type_symbol
_atom_site_label
_atom_site_fract_x
_atom_site_fract_y
_atom_site_fract_z
Si Si1 0.825713 0.176702 0.263739
Si Si2 0.826008 0.176737 0.355824
Si Si3 0.326925 0.821517 0.500000
Si Si4 0.582040 0.821407 0.577136
Si Si5 0.084404 0.326639 0.196335
Si Si6 0.915671 0.174188 0.886184
Si Si7 0.673520 0.176844 0.045441
O O1 0.750000 0.250000 0.256359
O O2 0.843638 0.206419 0.309773
O O3 0.880265 0.246537 0.233333
O O4 0.821646 0.000000 0.258539
O O5 0.750000 0.250000 0.364042
O O6 0.883371 0.244841 0.384968
O O7 0.820716 0.000000 0.361209
O O8 0.250000 0.750000 0.500000
O O9 0.371827 0.780135 0.461218
O O10 0.319418 0.000000 0.500000
O O11 0.500000 0.782441 0.572125
O O12 0.586050 0.000000 0.581415
O O13 0.103384 0.500000 0.195657
O O14 0.105898 0.249360 0.155216
O O15 0.000000 0.315197 0.199254
O O16 0.878530 0.253520 0.922741
O O17 0.000000 0.189230 0.889601
O O18 0.898440 0.000000 0.885636
O O19 0.750000 0.250000 0.050553
O O20 0.678412 0.000000 0.050612
O O21 0.650986 0.206085 0.000000
#
# Coordination Sequence:
#
# PCOD9492079 Si02
#       7
#    16  16   8  16  16  16  16
#     4  10  21  37  57  81 110 143 181 225 271 321
#     4  10  21  37  57  81 110 144 182 225 271 322
#     4  10  21  37  57  81 109 144 185 226 272 324
#     4  10  21  37  57  81 111 146 183 225 272 323
#     4  10  21  37  57  81 110 143 180 223 270 322
#     4  10  21  37  57  81 110 144 182 224 270 322
#     4  10  21  37  57  81 110 143 180 224 272 322
#
# _framework density 17.927941000000001
#
# number of rings (size 3 to 8) (size 9 to 14) (size 15 to 20)
#    0.000    2.000    0.000    3.000    0.000    9.231 
#    0.000    7.692    0.000    1.385    0.000    0.000 
#    0.000    0.000    0.000    0.000    0.000    0.000 
#
# Total GULP energy -290450.502981 kJ/mol
# GULP energy per Si atom -5585.586596 kJ/mol
# Density = 1.788714 g / cm^3
# Si number density = 17.927941 Si / 1000 Ang^3
#
#
#
# Elastic Constant Matrix: (Units=GPa)
#
#
# Indices 1 2 3 4 5 6 
#
# 1 91.6308 63.0982 84.0664 0.0000 0.0000 0.0000
# 2 63.0982 97.7229 82.6108 0.0000 0.0000 0.0000
# 3 84.0664 82.6108 131.3579 0.0000 0.0000 0.0000
# 4 0.0000 0.0000 0.0000 34.9166 0.0000 0.0000
# 5 0.0000 0.0000 0.0000 0.0000 37.8447 0.0000
# 6 0.0000 0.0000 0.0000 0.0000 0.0000 34.9646
#
#
#
# Elastic Compliance Matrix: (Units=1/GPa)
#
#
# Indices 1 2 3 4 5 6 
#
# 1 0.028134 -0.006288 -0.014051 0.000000 0.000000 0.000000
# 2 -0.006288 0.023254 -0.010600 0.000000 0.000000 0.000000
# 3 -0.014051 -0.010600 0.023272 0.000000 0.000000 0.000000
# 4 0.000000 0.000000 0.000000 0.028640 0.000000 0.000000
# 5 0.000000 0.000000 0.000000 0.000000 0.026424 0.000000
# 6 0.000000 0.000000 0.000000 0.000000 0.000000 0.028600
#
#
# Mechanical properties :
#
#
# Convention : Reuss Voigt Hill
#
# Bulk Modulus (GPa) = 78.23670 86.69581 82.46626
# Shear Modulus (GPa) = 22.27540 27.60758 24.94149
#
# Velocity S-wave (km/s) = 3.52873 3.92844 3.73394
# Velocity P-wave (km/s) = 7.76768 8.30902 8.04290
#
# Compressibility (1/GPa) = 0.01278172
#
# Stress axis : x y z
#
# Youngs Moduli (GPa) = 35.54387 43.00324 42.97053
#
# Poissons Ratio (x) = 0.27039 0.60378
# Poissons Ratio (y) = 0.22349 0.45551
# Poissons Ratio (z) = 0.49943 0.45585
#
# Static dielectric constant tensor:
#      x y z
#    x 1.582300 0.000000 0.000000 
#    y 0.000000 1.597140 0.000000 
#    z 0.000000 0.000000 1.594490 
# 
# From -- ./inp_files/75472.got.cif
#   From: 2010.05.17/outbox.cif.g08.bks.cpg/sg65_38_cif.got.tgz:75472.got - 2010.06.03 17:01:31.
