data_PCOD9492102
_publ_section_title
;
Structure prediction by ZEFSAII (Michael W. Deem and Ramdas Pophale) SiO2 
 PCOD9492102
Probable space group: C M M M
;
_chemical_formula_sum "Si O2"
_cell_formula_units_Z 72
_cell_length_a 15.877967
_cell_length_b 14.994277
_cell_length_c 14.177380
_cell_angle_alpha 90.000000
_cell_angle_beta 90.000000
_cell_angle_gamma 90.000000
_cell_volume 3375.331284
_symmetry_space_group_name_H-M "C M M M"
_symmetry_group_IT_number 65
_symmetry_cell_setting 'orthorhombic'
loop_
_space_group_symop_operation_xyz
x,y,z
-x,-y,z
x,-y,-z
-x,y,-z
-x,-y,-z
x,y,-z
-x,y,z
x,-y,z
1/2+x,1/2+y,z
1/2-x,1/2-y,z
1/2+x,1/2-y,-z
1/2-x,1/2+y,-z
1/2-x,1/2-y,-z
1/2+x,1/2+y,-z
1/2-x,1/2+y,z
1/2+x,1/2-y,z
loop_
_atom_site_type_symbol
_atom_site_label
_atom_site_fract_x
_atom_site_fract_y
_atom_site_fract_z
Si Si1 0.154838 0.780465 0.605253
Si Si2 0.500000 0.103750 0.885651
Si Si3 0.598535 0.599270 0.234370
Si Si4 0.600105 0.905597 0.389903
Si Si5 0.848746 0.260635 0.886717
O O1 0.119522 0.796910 0.500000
O O2 0.250000 0.750000 0.596032
O O3 0.145021 0.863195 0.673553
O O4 0.115928 0.691560 0.651495
O O5 0.585976 0.158576 0.859335
O O6 0.500000 0.000000 0.851247
O O7 0.500000 0.100396 0.000000
O O8 0.500000 0.597505 0.258245
O O9 0.626632 0.500000 0.208946
O O10 0.610998 0.669667 0.151279
O O11 0.629603 0.900808 0.500000
O O12 0.500000 0.912480 0.392273
O O13 0.633502 0.000000 0.350217
O O14 0.750000 0.250000 0.854080
O O15 0.846105 0.263676 0.000000
#
# Coordination Sequence:
#
# PCOD9492102 Si02
#       5
#    16   8  16  16  16
#     4  10  21  37  57  81 114 156 201 258 319 370
#     4   9  18  36  63  95 130 167 211 265 327 395
#     4  11  24  40  59  85 122 167 215 262 304 368
#     4   8  14  27  49  74  98 129 173 227 288 351
#     4  10  21  40  67  96 129 167 208 263 327 389
#
# _framework density 21.331240000000001
#
# number of rings (size 3 to 8) (size 9 to 14) (size 15 to 20)
#    0.000    2.333    1.111    2.000    0.000    4.000 
#    0.000    7.778    0.000    0.000    0.000    0.000 
#    0.000    0.000    0.000    0.000    0.000    0.000 
#
# Total GULP energy -200499.839305 kJ/mol
# GULP energy per Si atom -5569.439981 kJ/mol
# Density = 2.128269 g / cm^3
# Si number density = 21.331240 Si / 1000 Ang^3
#
#
#
# Elastic Constant Matrix: (Units=GPa)
#
#
# Indices 1 2 3 4 5 6 
#
# 1 95.8412 50.3216 17.3182 0.0000 0.0000 0.0000
# 2 50.3216 165.7778 9.8865 0.0000 0.0000 0.0000
# 3 17.3182 9.8865 40.1129 0.0000 0.0000 0.0000
# 4 0.0000 0.0000 0.0000 30.5764 0.0000 0.0000
# 5 0.0000 0.0000 0.0000 0.0000 24.5814 0.0000
# 6 0.0000 0.0000 0.0000 0.0000 0.0000 -99.1458
#
#
#
# Elastic Compliance Matrix: (Units=1/GPa)
#
#
# Indices 1 2 3 4 5 6 
#
# 1 0.013266 -0.003740 -0.004806 0.000000 0.000000 0.000000
# 2 -0.003740 0.007177 -0.000154 0.000000 0.000000 0.000000
# 3 -0.004806 -0.000154 0.027042 0.000000 0.000000 0.000000
# 4 0.000000 0.000000 0.000000 0.032705 0.000000 0.000000
# 5 0.000000 0.000000 0.000000 0.000000 0.040681 0.000000
# 6 0.000000 0.000000 0.000000 0.000000 0.000000 -0.010086
#
#
# Mechanical properties :
#
#
# Convention : Reuss Voigt Hill
#
# Bulk Modulus (GPa) = 33.23874 50.75382 41.99628
# Shear Modulus (GPa) = 36.17591 6.14944 21.16267
#
# Velocity S-wave (km/s) = 4.12261 1.69973 3.15318
# Velocity P-wave (km/s) = 6.18686 5.26279 5.74344
#
# Compressibility (1/GPa) = 0.03008537
#
# Stress axis : x y z
#
# Youngs Moduli (GPa) = 75.37981 139.33933 36.97902
#
# Poissons Ratio (x) = 0.52117 0.17771
# Poissons Ratio (y) = 0.28195 0.00569
# Poissons Ratio (z) = 0.36225 0.02146
#
# Static dielectric constant tensor:
#      x y z
#    x 1.806330 0.000000 0.000000 
#    y 0.000000 1.899760 0.000000 
#    z 0.000000 0.000000 1.788890 
# 
# From -- ./inp_files/42157.got.cif
#   From: 2010.05.17/outbox.cif.g08.bks.cpg/sg65_22_cif.got.tgz:42157.got - 2010.06.03 17:01:31.
