data_PCOD9492907
_publ_section_title
;
Structure prediction by ZEFSAII (Michael W. Deem and Ramdas Pophale) SiO2 
 PCOD9492907
Probable space group: C M M M
;
_chemical_formula_sum "Si O2"
_cell_formula_units_Z 56
_cell_length_a 18.505590
_cell_length_b 10.145203
_cell_length_c 13.879808
_cell_angle_alpha 90.000000
_cell_angle_beta 90.000000
_cell_angle_gamma 90.000000
_cell_volume 2605.836338
_symmetry_space_group_name_H-M "C M M M"
_symmetry_group_IT_number 65
_symmetry_cell_setting 'orthorhombic'
loop_
_space_group_symop_operation_xyz
x,y,z
-x,-y,z
x,-y,-z
-x,y,-z
-x,-y,-z
x,y,-z
-x,y,z
x,-y,z
1/2+x,1/2+y,z
1/2-x,1/2-y,z
1/2+x,1/2-y,-z
1/2-x,1/2+y,-z
1/2-x,1/2-y,-z
1/2+x,1/2+y,-z
1/2-x,1/2+y,z
1/2+x,1/2-y,z
loop_
_atom_site_type_symbol
_atom_site_label
_atom_site_fract_x
_atom_site_fract_y
_atom_site_fract_z
Si Si1 0.315104 0.347502 0.884214
Si Si2 0.835816 0.732549 0.388253
Si Si3 0.919225 0.000000 0.384407
Si Si4 0.585224 0.142889 0.208499
O O1 0.310179 0.500000 0.849750
O O2 0.250000 0.250000 0.852116
O O3 0.385511 0.267399 0.850742
O O4 0.313017 0.352593 0.000000
O O5 0.851612 0.697311 0.500000
O O6 0.750000 0.750000 0.380340
O O7 0.873672 0.871028 0.363352
O O8 0.870921 0.640733 0.308604
O O9 0.926684 0.000000 0.500000
O O10 0.000000 0.000000 0.342141
O O11 0.500000 0.155463 0.227209
O O12 0.597728 0.000000 0.159064
#
# Coordination Sequence:
#
# PCOD9492907 Si02
#       4
#    16  16   8  16
#     4  10  22  42  70 100 128 162 206 260 321 386
#     4  10  22  38  61  89 121 164 217 272 326 387
#     4   9  18  34  56  84 116 154 206 265 324 384
#     4  11  25  41  60  91 130 172 216 265 321 379
#
# _framework density 21.490221999999999
#
# number of rings (size 3 to 8) (size 9 to 14) (size 15 to 20)
#    0.000    1.857    0.000    2.571    4.000    5.143 
#    0.000    4.286    0.000    0.000    0.000    0.000 
#    0.000    0.000    0.000    0.000    0.000    0.000 
#
# Total GULP energy -156335.168798 kJ/mol
# GULP energy per Si atom -5583.398886 kJ/mol
# Density = 2.144131 g / cm^3
# Si number density = 21.490222 Si / 1000 Ang^3
#
#
#
# Elastic Constant Matrix: (Units=GPa)
#
#
# Indices 1 2 3 4 5 6 
#
# 1 130.9109 65.9621 3.5357 0.0000 0.0000 0.0000
# 2 65.9621 187.7363 28.6213 0.0000 0.0000 0.0000
# 3 3.5357 28.6213 48.4052 0.0000 0.0000 0.0000
# 4 0.0000 0.0000 0.0000 53.2583 0.0000 0.0000
# 5 0.0000 0.0000 0.0000 0.0000 111.9801 0.0000
# 6 0.0000 0.0000 0.0000 0.0000 0.0000 11.0577
#
#
#
# Elastic Compliance Matrix: (Units=1/GPa)
#
#
# Indices 1 2 3 4 5 6 
#
# 1 0.009366 -0.003502 0.001387 0.000000 0.000000 0.000000
# 2 -0.003502 0.007164 -0.003980 0.000000 0.000000 0.000000
# 3 0.001387 -0.003980 0.022911 0.000000 0.000000 0.000000
# 4 0.000000 0.000000 0.000000 0.018776 0.000000 0.000000
# 5 0.000000 0.000000 0.000000 0.000000 0.008930 0.000000
# 6 0.000000 0.000000 0.000000 0.000000 0.000000 0.090435
#
#
# Mechanical properties :
#
#
# Convention : Reuss Voigt Hill
#
# Bulk Modulus (GPa) = 36.69769 62.58783 49.64276
# Shear Modulus (GPa) = 27.95530 53.18811 40.57171
#
# Velocity S-wave (km/s) = 3.61063 4.98033 4.34973
# Velocity P-wave (km/s) = 5.87330 7.89041 6.95537
#
# Compressibility (1/GPa) = 0.02724967
#
# Stress axis : x y z
#
# Youngs Moduli (GPa) = 106.76939 139.58842 43.64712
#
# Poissons Ratio (x) = 0.48886 -0.06052
# Poissons Ratio (y) = 0.37393 0.17372
# Poissons Ratio (z) = -0.14805 0.55558
#
# Static dielectric constant tensor:
#      x y z
#    x 1.768900 0.000000 0.000000 
#    y 0.000000 1.805760 0.000000 
#    z 0.000000 0.000000 1.793040 
# 
# From -- ./inp_files/43557.got.cif
#   From: 2010.05.17/outbox.cif.g08.bks.cpg/sg65_22_cif.got.tgz:43557.got - 2010.06.03 17:01:31.
