data_PCOD9492135
_publ_section_title
;
Structure prediction by ZEFSAII (Michael W. Deem and Ramdas Pophale) SiO2 
 PCOD9492135
Probable space group: C M M M
;
_chemical_formula_sum "Si O2"
_cell_formula_units_Z 80
_cell_length_a 18.310556
_cell_length_b 8.893668
_cell_length_c 27.047986
_cell_angle_alpha 90.000000
_cell_angle_beta 90.000000
_cell_angle_gamma 90.000000
_cell_volume 4404.710585
_symmetry_space_group_name_H-M "C M M M"
_symmetry_group_IT_number 65
_symmetry_cell_setting 'orthorhombic'
loop_
_space_group_symop_operation_xyz
x,y,z
-x,-y,z
x,-y,-z
-x,y,-z
-x,-y,-z
x,y,-z
-x,y,z
x,-y,z
1/2+x,1/2+y,z
1/2-x,1/2-y,z
1/2+x,1/2-y,-z
1/2-x,1/2+y,-z
1/2-x,1/2-y,-z
1/2+x,1/2+y,-z
1/2-x,1/2+y,z
1/2+x,1/2-y,z
loop_
_atom_site_type_symbol
_atom_site_label
_atom_site_fract_x
_atom_site_fract_y
_atom_site_fract_z
Si Si1 0.169820 0.180763 0.692377
Si Si2 0.585642 0.816556 0.000000
Si Si3 0.169729 0.318771 0.500000
Si Si4 0.915410 0.819351 0.790818
Si Si5 0.414198 0.819215 0.399882
Si Si6 0.088919 0.676124 0.892941
O O1 0.250000 0.250000 0.688606
O O2 0.131968 0.228662 0.743896
O O3 0.121935 0.238362 0.646651
O O4 0.173694 0.000000 0.691426
O O5 0.616250 0.767712 0.946703
O O6 0.500000 0.773736 0.000000
O O7 0.587398 0.000000 0.000000
O O8 0.174922 0.500000 0.500000
O O9 0.250000 0.250000 0.500000
O O10 0.126217 0.274870 0.549458
O O11 0.887361 0.760105 0.843527
O O12 0.000000 0.769384 0.784607
O O13 0.915625 0.000000 0.792133
O O14 0.500000 0.785454 0.403097
O O15 0.406260 0.000000 0.394168
O O16 0.106683 0.500000 0.888441
O O17 0.000000 0.687327 0.894554
#
# Coordination Sequence:
#
# PCOD9492135 Si02
#       6
#    16   8   8  16  16  16
#     4  11  23  38  55  76 104 137 174 217 264 312
#     4   7  10  18  33  57  90 123 154 193 241 289
#     4  10  21  37  57  83 115 148 179 214 256 300
#     4   9  18  32  48  68  97 130 162 202 254 306
#     4  10  21  38  60  84 110 141 177 216 258 306
#     4   8  13  22  39  63  91 124 161 199 240 292
#
# _framework density 18.162372999999999
#
# number of rings (size 3 to 8) (size 9 to 14) (size 15 to 20)
#    0.000    2.700    0.000    3.300    0.000    6.400 
#    0.000    2.500    0.000    4.800    0.000    0.700 
#    0.000    0.000    0.000    0.000    0.000    0.000 
#
# Total GULP energy -222986.744640 kJ/mol
# GULP energy per Si atom -5574.668616 kJ/mol
# Density = 1.812103 g / cm^3
# Si number density = 18.162373 Si / 1000 Ang^3
#
#
#
# Elastic Constant Matrix: (Units=GPa)
#
#
# Indices 1 2 3 4 5 6 
#
# 1 92.0778 32.3433 78.4231 0.0000 0.0000 0.0000
# 2 32.3433 18.6266 48.8141 0.0000 0.0000 0.0000
# 3 78.4231 48.8141 209.0271 0.0000 0.0000 0.0000
# 4 0.0000 0.0000 0.0000 125.4173 0.0000 0.0000
# 5 0.0000 0.0000 0.0000 0.0000 -11.3599 0.0000
# 6 0.0000 0.0000 0.0000 0.0000 0.0000 17.6137
#
#
#
# Elastic Compliance Matrix: (Units=1/GPa)
#
#
# Indices 1 2 3 4 5 6 
#
# 1 0.028231 -0.054803 0.002206 0.000000 0.000000 0.000000
# 2 -0.054803 0.244753 -0.036596 0.000000 0.000000 0.000000
# 3 0.002206 -0.036596 0.012503 0.000000 0.000000 0.000000
# 4 0.000000 0.000000 0.000000 0.007973 0.000000 0.000000
# 5 0.000000 0.000000 0.000000 0.000000 -0.088029 0.000000
# 6 0.000000 0.000000 0.000000 0.000000 0.000000 0.056774
#
#
# Mechanical properties :
#
#
# Convention : Reuss Voigt Hill
#
# Bulk Modulus (GPa) = 9.33696 70.98802 40.16249
# Shear Modulus (GPa) = 10.49779 37.01096 23.75437
#
# Velocity S-wave (km/s) = 2.40676 4.51908 3.62040
# Velocity P-wave (km/s) = 3.58822 8.14859 6.29582
#
# Compressibility (1/GPa) = 0.10710124
#
# Stress axis : x y z
#
# Youngs Moduli (GPa) = 35.42150 4.08576 79.98337
#
# Poissons Ratio (x) = 0.22391 -0.17646
# Poissons Ratio (y) = 1.94120 2.92707
# Poissons Ratio (z) = -0.07815 0.14952
#
# Static dielectric constant tensor:
#      x y z
#    x 1.598550 0.000000 0.000000 
#    y 0.000000 1.612710 0.000000 
#    z 0.000000 0.000000 1.640730 
# 
# From -- ./inp_files/75125.got.cif
#   From: 2010.05.17/outbox.cif.g08.bks.cpg/sg65_38_cif.got.tgz:75125.got - 2010.06.03 17:01:31.
