data_PCOD9492388
_publ_section_title
;
Structure prediction by ZEFSAII (Michael W. Deem and Ramdas Pophale) SiO2 
 PCOD9492388
Probable space group: C M M M
;
_chemical_formula_sum "Si O2"
_cell_formula_units_Z 80
_cell_length_a 8.740541
_cell_length_b 24.230797
_cell_length_c 20.830730
_cell_angle_alpha 90.000000
_cell_angle_beta 90.000000
_cell_angle_gamma 90.000000
_cell_volume 4411.746028
_symmetry_space_group_name_H-M "C M M M"
_symmetry_group_IT_number 65
_symmetry_cell_setting 'orthorhombic'
loop_
_space_group_symop_operation_xyz
x,y,z
-x,-y,z
x,-y,-z
-x,y,-z
-x,-y,-z
x,y,-z
-x,y,z
x,-y,z
1/2+x,1/2+y,z
1/2-x,1/2-y,z
1/2+x,1/2-y,-z
1/2-x,1/2+y,-z
1/2-x,1/2-y,-z
1/2+x,1/2+y,-z
1/2-x,1/2+y,z
1/2+x,1/2-y,z
loop_
_atom_site_type_symbol
_atom_site_label
_atom_site_fract_x
_atom_site_fract_y
_atom_site_fract_z
Si Si1 0.816972 0.311089 0.186763
Si Si2 0.817179 0.500000 0.880188
Si Si3 0.815617 0.310047 0.426569
Si Si4 0.184410 0.387153 0.690091
Si Si5 0.683044 0.615499 0.926622
Si Si6 0.681443 0.500000 0.737062
O O1 0.750000 0.250000 0.192914
O O2 0.779474 0.347877 0.249281
O O3 0.750865 0.342024 0.124649
O O4 0.000000 0.308155 0.181849
O O5 0.751437 0.555129 0.912378
O O6 0.764838 0.500000 0.806074
O O7 0.000000 0.500000 0.883761
O O8 0.768973 0.322641 0.500000
O O9 0.750000 0.250000 0.409560
O O10 0.769388 0.355577 0.374763
O O11 0.000000 0.306634 0.424910
O O12 0.266087 0.445205 0.700200
O O13 0.000000 0.395407 0.689402
O O14 0.500000 0.612971 0.919208
O O15 0.718352 0.631323 0.000000
O O16 0.500000 0.500000 0.747319
#
# Coordination Sequence:
#
# PCOD9492388 Si02
#       6
#    16   8  16  16  16   8
#     4  11  23  38  59  84 114 152 194 241 291 346
#     4  12  23  39  62  88 117 149 188 236 291 350
#     4   9  18  34  58  88 121 157 195 235 282 335
#     4  10  21  38  59  85 117 153 193 239 288 342
#     4  11  24  41  61  86 116 150 192 241 289 343
#     4  12  24  37  60  87 114 151 192 239 292 342
#
# _framework density 18.133409
#
# number of rings (size 3 to 8) (size 9 to 14) (size 15 to 20)
#    0.000    1.400    2.000    3.900    0.000    4.800 
#    0.000    0.500    0.000    3.000    0.000    0.000 
#    0.000    0.000    0.000    0.000    0.000    0.000 
#
# Total GULP energy -223610.444780 kJ/mol
# GULP energy per Si atom -5590.261120 kJ/mol
# Density = 1.809214 g / cm^3
# Si number density = 18.133409 Si / 1000 Ang^3
#
#
#
# Elastic Constant Matrix: (Units=GPa)
#
#
# Indices 1 2 3 4 5 6 
#
# 1 55.6872 56.4326 48.8249 0.0000 0.0000 0.0000
# 2 56.4326 152.0187 74.5373 0.0000 0.0000 0.0000
# 3 48.8249 74.5373 117.2771 0.0000 0.0000 0.0000
# 4 0.0000 0.0000 0.0000 30.8675 0.0000 0.0000
# 5 0.0000 0.0000 0.0000 0.0000 19.0646 0.0000
# 6 0.0000 0.0000 0.0000 0.0000 0.0000 32.3883
#
#
#
# Elastic Compliance Matrix: (Units=1/GPa)
#
#
# Indices 1 2 3 4 5 6 
#
# 1 0.034253 -0.008314 -0.008976 0.000000 0.000000 0.000000
# 2 -0.008314 0.011574 -0.003895 0.000000 0.000000 0.000000
# 3 -0.008976 -0.003895 0.014739 0.000000 0.000000 0.000000
# 4 0.000000 0.000000 0.000000 0.032397 0.000000 0.000000
# 5 0.000000 0.000000 0.000000 0.000000 0.052453 0.000000
# 6 0.000000 0.000000 0.000000 0.000000 0.000000 0.030875
#
#
# Mechanical properties :
#
#
# Convention : Reuss Voigt Hill
#
# Bulk Modulus (GPa) = 54.95656 76.06359 65.51008
# Shear Modulus (GPa) = 22.24926 26.14331 24.19629
#
# Velocity S-wave (km/s) = 3.50662 3.80112 3.65684
# Velocity P-wave (km/s) = 6.83870 7.82958 7.35086
#
# Compressibility (1/GPa) = 0.01819619
#
# Stress axis : x y z
#
# Youngs Moduli (GPa) = 29.19465 86.39846 67.84713
#
# Poissons Ratio (x) = 0.71835 0.60898
# Poissons Ratio (y) = 0.24274 0.26425
# Poissons Ratio (z) = 0.26205 0.33650
#
# Static dielectric constant tensor:
#      x y z
#    x 1.608820 0.000000 0.000000 
#    y 0.000000 1.583020 0.000000 
#    z 0.000000 0.000000 1.618740 
# 
# From -- ./inp_files/59700.got.cif
#   From: 2010.05.17/outbox.cif.g08.bks.cpg/sg65_30_cif.got.tgz:59700.got - 2010.06.03 17:01:31.
