data_PCOD9492876
_publ_section_title
;
Structure prediction by ZEFSAII (Michael W. Deem and Ramdas Pophale) SiO2 
 PCOD9492876
Probable space group: C M M M
;
_chemical_formula_sum "Si O2"
_cell_formula_units_Z 56
_cell_length_a 41.929439
_cell_length_b 7.620167
_cell_length_c 8.011705
_cell_angle_alpha 90.000000
_cell_angle_beta 90.000000
_cell_angle_gamma 90.000000
_cell_volume 2559.814476
_symmetry_space_group_name_H-M "C M M M"
_symmetry_group_IT_number 65
_symmetry_cell_setting 'orthorhombic'
loop_
_space_group_symop_operation_xyz
x,y,z
-x,-y,z
x,-y,-z
-x,y,-z
-x,-y,-z
x,y,-z
-x,y,z
x,-y,z
1/2+x,1/2+y,z
1/2-x,1/2-y,z
1/2+x,1/2-y,-z
1/2-x,1/2+y,-z
1/2-x,1/2-y,-z
1/2+x,1/2+y,-z
1/2-x,1/2+y,z
1/2+x,1/2-y,z
loop_
_atom_site_type_symbol
_atom_site_label
_atom_site_fract_x
_atom_site_fract_y
_atom_site_fract_z
Si Si1 0.102020 0.299803 0.800015
Si Si2 0.465708 0.793970 0.700350
Si Si3 0.287302 0.711648 0.500000
Si Si4 0.172785 0.205734 0.189093
O O1 0.102173 0.500000 0.734777
O O2 0.068273 0.215823 0.750893
O O3 0.135919 0.219207 0.752962
O O4 0.101960 0.303833 0.000000
O O5 0.466379 0.791159 0.500000
O O6 0.500000 0.720981 0.759274
O O7 0.465163 0.000000 0.753904
O O8 0.291535 0.500000 0.500000
O O9 0.250000 0.750000 0.500000
O O10 0.304480 0.780464 0.667711
O O11 0.180241 0.000000 0.174655
O O12 0.175524 0.280851 0.000000
#
# Coordination Sequence:
#
# PCOD9492876 Si02
#       4
#    16  16   8  16
#     4   9  17  28  45  71  96 122 164 209 244 283
#     4   8  14  24  38  60  92 127 160 198 247 293
#     4  10  22  38  56  80 103 128 163 195 234 291
#     4   9  19  36  54  73 102 135 162 194 240 291
#
# _framework density 21.876588000000002
#
# number of rings (size 3 to 8) (size 9 to 14) (size 15 to 20)
#    0.000    3.143    0.000    0.857    2.000    2.286 
#    0.000    2.857    0.000    0.857    0.000    6.000 
#    0.000    0.000    0.000    0.000    0.000    0.000 
#
# Total GULP energy -155980.004821 kJ/mol
# GULP energy per Si atom -5570.714458 kJ/mol
# Density = 2.182680 g / cm^3
# Si number density = 21.876588 Si / 1000 Ang^3
#
#
#
# Elastic Constant Matrix: (Units=GPa)
#
#
# Indices 1 2 3 4 5 6 
#
# 1 216.4388 -1.4371 98.2631 0.0000 0.0000 0.0000
# 2 -1.4371 41.8899 10.7212 0.0000 0.0000 0.0000
# 3 98.2631 10.7212 83.5703 0.0000 0.0000 0.0000
# 4 0.0000 0.0000 0.0000 -0.7940 0.0000 0.0000
# 5 0.0000 0.0000 0.0000 0.0000 64.4694 0.0000
# 6 0.0000 0.0000 0.0000 0.0000 0.0000 8.4591
#
#
#
# Elastic Compliance Matrix: (Units=1/GPa)
#
#
# Indices 1 2 3 4 5 6 
#
# 1 0.010413 0.003609 -0.012707 0.000000 0.000000 0.000000
# 2 0.003609 0.025934 -0.007571 0.000000 0.000000 0.000000
# 3 -0.012707 -0.007571 0.027878 0.000000 0.000000 0.000000
# 4 0.000000 0.000000 0.000000 -1.259452 0.000000 0.000000
# 5 0.000000 0.000000 0.000000 0.000000 0.015511 0.000000
# 6 0.000000 0.000000 0.000000 0.000000 0.000000 0.118216
#
#
# Mechanical properties :
#
#
# Convention : Reuss Voigt Hill
#
# Bulk Modulus (GPa) = 32.37510 61.88813 47.13161
# Shear Modulus (GPa) = -4.91224 30.05034 12.56905
#
# Velocity S-wave (km/s) = -1.50010 3.71027 2.39956
# Velocity P-wave (km/s) = 3.43958 6.83417 5.41002
#
# Compressibility (1/GPa) = 0.03088794
#
# Stress axis : x y z
#
# Youngs Moduli (GPa) = 96.03192 38.55987 35.87006
#
# Poissons Ratio (x) = -0.13918 0.45580
# Poissons Ratio (y) = -0.34663 0.27158
# Poissons Ratio (z) = 1.22028 0.29194
#
# Static dielectric constant tensor:
#      x y z
#    x 1.812880 0.000000 0.000000 
#    y 0.000000 1.872380 0.000000 
#    z 0.000000 0.000000 1.804520 
# 
# From -- ./inp_files/4417.got.cif
#   From: 2010.05.17/outbox.cif.g08.bks.cpg/sg65_3_cif.got.tgz:4417.got - 2010.06.03 17:01:31.
