data_PCOD9492481
_publ_section_title
;
Structure prediction by ZEFSAII (Michael W. Deem and Ramdas Pophale) SiO2 
 PCOD9492481
Probable space group: C M M M
;
_chemical_formula_sum "Si O2"
_cell_formula_units_Z 64
_cell_length_a 14.742572
_cell_length_b 25.423088
_cell_length_c 8.946185
_cell_angle_alpha 90.000000
_cell_angle_beta 90.000000
_cell_angle_gamma 90.000000
_cell_volume 3353.045394
_symmetry_space_group_name_H-M "C M M M"
_symmetry_group_IT_number 65
_symmetry_cell_setting 'orthorhombic'
loop_
_space_group_symop_operation_xyz
x,y,z
-x,-y,z
x,-y,-z
-x,y,-z
-x,-y,-z
x,y,-z
-x,y,z
x,-y,z
1/2+x,1/2+y,z
1/2-x,1/2-y,z
1/2+x,1/2-y,-z
1/2-x,1/2+y,-z
1/2-x,1/2-y,-z
1/2+x,1/2+y,-z
1/2-x,1/2+y,z
1/2+x,1/2-y,z
loop_
_atom_site_type_symbol
_atom_site_label
_atom_site_fract_x
_atom_site_fract_y
_atom_site_fract_z
Si Si1 0.753681 0.188811 0.678989
Si Si2 0.889514 0.500000 0.172670
Si Si3 0.391502 0.609727 0.823651
Si Si4 0.610450 0.500000 0.671672
Si Si5 0.106979 0.385161 0.180522
O O1 0.756291 0.185517 0.500000
O O2 0.750000 0.250000 0.722304
O O3 0.838796 0.157246 0.746208
O O4 0.666130 0.158980 0.742573
O O5 0.863711 0.556556 0.236905
O O6 0.000000 0.500000 0.169414
O O7 0.859041 0.500000 0.000000
O O8 0.500000 0.614796 0.803054
O O9 0.362533 0.553578 0.754567
O O10 0.372095 0.609521 0.000000
O O11 0.500000 0.500000 0.671754
O O12 0.641068 0.500000 0.500000
O O13 0.000000 0.378761 0.209523
O O14 0.118800 0.383965 0.000000
#
# Coordination Sequence:
#
# PCOD9492481 Si02
#       5
#    16   8  16   8  16
#     4  11  25  41  55  76 110 152 195 237 284 339
#     4   7  12  27  53  84 112 136 166 208 265 329
#     4  10  21  38  61  87 114 146 187 236 286 336
#     4   9  17  32  57  88 120 150 180 220 277 344
#     4   9  18  35  60  86 112 143 179 224 278 334
#
# _framework density 19.087126999999999
#
# number of rings (size 3 to 8) (size 9 to 14) (size 15 to 20)
#    0.000    2.500    0.000    3.375    0.000    7.500 
#    0.000    9.375    0.000    2.250    0.000    0.000 
#    0.000    0.000    0.000    0.000    0.000    0.000 
#
# Total GULP energy -178633.416984 kJ/mol
# GULP energy per Si atom -5582.294281 kJ/mol
# Density = 1.904368 g / cm^3
# Si number density = 19.087127 Si / 1000 Ang^3
#
#
#
# Elastic Constant Matrix: (Units=GPa)
#
#
# Indices 1 2 3 4 5 6 
#
# 1 77.2151 73.6100 47.6159 0.0000 0.0000 0.0000
# 2 73.6100 228.3432 84.3255 0.0000 0.0000 0.0000
# 3 47.6159 84.3255 76.1054 0.0000 0.0000 0.0000
# 4 0.0000 0.0000 0.0000 33.8238 0.0000 0.0000
# 5 0.0000 0.0000 0.0000 0.0000 19.3842 0.0000
# 6 0.0000 0.0000 0.0000 0.0000 0.0000 32.6181
#
#
#
# Elastic Compliance Matrix: (Units=1/GPa)
#
#
# Indices 1 2 3 4 5 6 
#
# 1 0.022624 -0.003497 -0.010280 0.000000 0.000000 0.000000
# 2 -0.003497 0.007953 -0.006624 0.000000 0.000000 0.000000
# 3 -0.010280 -0.006624 0.026911 0.000000 0.000000 0.000000
# 4 0.000000 0.000000 0.000000 0.029565 0.000000 0.000000
# 5 0.000000 0.000000 0.000000 0.000000 0.051588 0.000000
# 6 0.000000 0.000000 0.000000 0.000000 0.000000 0.030658
#
#
# Mechanical properties :
#
#
# Convention : Reuss Voigt Hill
#
# Bulk Modulus (GPa) = 59.93219 88.08516 74.00868
# Shear Modulus (GPa) = 23.18430 28.90604 26.04517
#
# Velocity S-wave (km/s) = 3.48897 3.89578 3.69798
# Velocity P-wave (km/s) = 6.90637 8.15386 7.55590
#
# Compressibility (1/GPa) = 0.01668552
#
# Stress axis : x y z
#
# Youngs Moduli (GPa) = 44.20117 125.74218 37.15923
#
# Poissons Ratio (x) = 0.43968 0.38201
# Poissons Ratio (y) = 0.15456 0.24614
# Poissons Ratio (z) = 0.45441 0.83292
#
# Static dielectric constant tensor:
#      x y z
#    x 1.685570 0.000000 0.000000 
#    y 0.000000 1.646680 0.000000 
#    z 0.000000 0.000000 1.636300 
# 
# From -- ./inp_files/6748.got.cif
#   From: 2010.05.17/outbox.cif.g08.bks.cpg/sg65_4_cif.got.tgz:6748.got - 2010.06.03 17:01:31.
