data_PCOD9492443
_publ_section_title
;
Structure prediction by ZEFSAII (Michael W. Deem and Ramdas Pophale) SiO2 
 PCOD9492443
Probable space group: C M M M
;
_chemical_formula_sum "Si O2"
_cell_formula_units_Z 72
_cell_length_a 16.432436
_cell_length_b 9.054360
_cell_length_c 25.056396
_cell_angle_alpha 90.000000
_cell_angle_beta 90.000000
_cell_angle_gamma 90.000000
_cell_volume 3728.020670
_symmetry_space_group_name_H-M "C M M M"
_symmetry_group_IT_number 65
_symmetry_cell_setting 'orthorhombic'
loop_
_space_group_symop_operation_xyz
x,y,z
-x,-y,z
x,-y,-z
-x,y,-z
-x,-y,-z
x,y,-z
-x,y,z
x,-y,z
1/2+x,1/2+y,z
1/2-x,1/2-y,z
1/2+x,1/2-y,-z
1/2-x,1/2+y,-z
1/2-x,1/2-y,-z
1/2+x,1/2+y,-z
1/2-x,1/2+y,z
1/2+x,1/2-y,z
loop_
_atom_site_type_symbol
_atom_site_label
_atom_site_fract_x
_atom_site_fract_y
_atom_site_fract_z
Si Si1 0.594243 0.174844 0.777792
Si Si2 0.165787 0.823093 0.122348
Si Si3 0.164046 0.324606 0.335614
Si Si4 0.500000 0.320480 0.061538
Si Si5 0.901944 0.827533 0.440785
O O1 0.500000 0.201429 0.791103
O O2 0.649408 0.269895 0.817138
O O3 0.608156 0.209074 0.715567
O O4 0.611666 0.000000 0.785458
O O5 0.250000 0.750000 0.103229
O O6 0.084305 0.775173 0.090155
O O7 0.172366 0.000000 0.119683
O O8 0.172332 0.500000 0.339278
O O9 0.250000 0.250000 0.324708
O O10 0.131300 0.263212 0.391384
O O11 0.500000 0.500000 0.062972
O O12 0.500000 0.273258 0.000000
O O13 0.875097 0.777178 0.500000
O O14 0.000000 0.820697 0.439906
O O15 0.878851 0.000000 0.435048
#
# Coordination Sequence:
#
# PCOD9492443 Si02
#       5
#    16  16  16   8  16
#     4  10  21  38  60  86 118 152 191 244 299 352
#     4  11  22  38  62  92 123 162 206 249 301 358
#     4  11  23  37  54  80 112 148 188 233 287 346
#     4   9  20  40  63  89 125 165 206 251 298 353
#     4   9  19  37  59  81 106 139 181 231 287 346
#
# _framework density 19.313198
#
# number of rings (size 3 to 8) (size 9 to 14) (size 15 to 20)
#    0.000    1.889    1.111    3.333    0.000    6.222 
#    0.000    1.111    0.000    4.667    0.000    0.000 
#    0.000    0.000    0.000    0.000    0.000    0.000 
#
# Total GULP energy -201009.435406 kJ/mol
# GULP energy per Si atom -5583.595428 kJ/mol
# Density = 1.926924 g / cm^3
# Si number density = 19.313198 Si / 1000 Ang^3
#
#
#
# Elastic Constant Matrix: (Units=GPa)
#
#
# Indices 1 2 3 4 5 6 
#
# 1 111.7623 47.0627 50.6119 0.0000 0.0000 0.0000
# 2 47.0627 44.7627 39.9148 0.0000 0.0000 0.0000
# 3 50.6119 39.9148 111.8766 0.0000 0.0000 0.0000
# 4 0.0000 0.0000 0.0000 17.3029 0.0000 0.0000
# 5 0.0000 0.0000 0.0000 0.0000 11.0834 0.0000
# 6 0.0000 0.0000 0.0000 0.0000 0.0000 46.6131
#
#
#
# Elastic Compliance Matrix: (Units=1/GPa)
#
#
# Indices 1 2 3 4 5 6 
#
# 1 0.016313 -0.015502 -0.001849 0.000000 0.000000 0.000000
# 2 -0.015502 0.047495 -0.009932 0.000000 0.000000 0.000000
# 3 -0.001849 -0.009932 0.013318 0.000000 0.000000 0.000000
# 4 0.000000 0.000000 0.000000 0.057794 0.000000 0.000000
# 5 0.000000 0.000000 0.000000 0.000000 0.090225 0.000000
# 6 0.000000 0.000000 0.000000 0.000000 0.000000 0.021453
#
#
# Mechanical properties :
#
#
# Convention : Reuss Voigt Hill
#
# Bulk Modulus (GPa) = 44.32647 60.39781 52.36214
# Shear Modulus (GPa) = 16.19776 23.72071 19.95923
#
# Velocity S-wave (km/s) = 2.89915 3.50839 3.21822
# Velocity P-wave (km/s) = 5.84876 6.91031 6.40158
#
# Compressibility (1/GPa) = 0.02255988
#
# Stress axis : x y z
#
# Youngs Moduli (GPa) = 61.30141 21.05475 75.08447
#
# Poissons Ratio (x) = 0.32640 0.13882
# Poissons Ratio (y) = 0.95032 0.74574
# Poissons Ratio (z) = 0.11334 0.20912
#
# Static dielectric constant tensor:
#      x y z
#    x 1.682770 0.000000 0.000000 
#    y 0.000000 1.644760 0.000000 
#    z 0.000000 0.000000 1.681110 
# 
# From -- ./inp_files/67130.got.cif
#   From: 2010.05.17/outbox.cif.g08.bks.cpg/sg65_34_cif.got.tgz:67130.got - 2010.06.03 17:01:31.
