data_PCOD9492823
_publ_section_title
;
Structure prediction by ZEFSAII (Michael W. Deem and Ramdas Pophale) SiO2 
 PCOD9492823
Probable space group: C M M M
;
_chemical_formula_sum "Si O2"
_cell_formula_units_Z 88
_cell_length_a 28.782742
_cell_length_b 18.366890
_cell_length_c 7.865316
_cell_angle_alpha 90.000000
_cell_angle_beta 90.000000
_cell_angle_gamma 90.000000
_cell_volume 4157.995026
_symmetry_space_group_name_H-M "C M M M"
_symmetry_group_IT_number 65
_symmetry_cell_setting 'orthorhombic'
loop_
_space_group_symop_operation_xyz
x,y,z
-x,-y,z
x,-y,-z
-x,y,-z
-x,-y,-z
x,y,-z
-x,y,z
x,-y,z
1/2+x,1/2+y,z
1/2-x,1/2-y,z
1/2+x,1/2-y,-z
1/2-x,1/2+y,-z
1/2-x,1/2-y,-z
1/2+x,1/2+y,-z
1/2-x,1/2+y,z
1/2+x,1/2-y,z
loop_
_atom_site_type_symbol
_atom_site_label
_atom_site_fract_x
_atom_site_fract_y
_atom_site_fract_z
Si Si1 0.633665 0.316059 0.192716
Si Si2 0.592056 0.831347 0.196521
Si Si3 0.319403 0.087206 0.303161
Si Si4 0.500000 0.085065 0.791180
Si Si5 0.282249 0.416922 0.296997
Si Si6 0.551750 0.586189 0.703401
O O1 0.611946 0.243421 0.276022
O O2 0.677804 0.358347 0.266284
O O3 0.591684 0.372934 0.199433
O O4 0.646625 0.296856 0.000000
O O5 0.636058 0.884516 0.205160
O O6 0.546295 0.871598 0.266379
O O7 0.580160 0.814275 0.000000
O O8 0.323639 0.111997 0.500000
O O9 0.268516 0.107924 0.232820
O O10 0.319341 0.000000 0.303567
O O11 0.500000 0.000000 0.737588
O O12 0.500000 0.083533 0.000000
O O13 0.276904 0.423258 0.500000
O O14 0.293152 0.500000 0.234746
O O15 0.558146 0.596602 0.500000
O O16 0.500000 0.612050 0.748524
O O17 0.553934 0.500000 0.734167
#
# Coordination Sequence:
#
# PCOD9492823 Si02
#       6
#    16  16  16   8  16  16
#     4  11  23  34  50  80 116 148 180 226 274 322
#     4  10  22  37  55  81 112 147 181 221 275 332
#     4   9  19  37  60  84 108 137 180 232 280 326
#     4   9  18  36  61  81 100 137 186 222 259 323
#     4   9  19  37  59  80 107 147 188 225 270 327
#     4   9  19  36  56  76 101 140 189 233 273 326
#
# _framework density 21.164045999999999
#
# number of rings (size 3 to 8) (size 9 to 14) (size 15 to 20)
#    0.000    2.455    0.000    3.273    1.273    7.273 
#    0.000    6.818    0.000    1.636    0.000    0.000 
#    0.000    0.000    0.000    0.000    0.000    0.000 
#
# Total GULP energy -245363.428717 kJ/mol
# GULP energy per Si atom -5576.441562 kJ/mol
# Density = 2.111588 g / cm^3
# Si number density = 21.164046 Si / 1000 Ang^3
#
#
#
# Elastic Constant Matrix: (Units=GPa)
#
#
# Indices 1 2 3 4 5 6 
#
# 1 179.7020 81.9573 9.1375 0.0000 0.0000 0.0000
# 2 81.9573 78.2575 7.6907 0.0000 0.0000 0.0000
# 3 9.1375 7.6907 16.9131 0.0000 0.0000 0.0000
# 4 0.0000 0.0000 0.0000 16.4648 0.0000 0.0000
# 5 0.0000 0.0000 0.0000 0.0000 23.3496 0.0000
# 6 0.0000 0.0000 0.0000 0.0000 0.0000 154.2733
#
#
#
# Elastic Compliance Matrix: (Units=1/GPa)
#
#
# Indices 1 2 3 4 5 6 
#
# 1 0.010661 -0.011095 -0.000715 0.000000 0.000000 0.000000
# 2 -0.011095 0.024923 -0.005339 0.000000 0.000000 0.000000
# 3 -0.000715 -0.005339 0.061939 0.000000 0.000000 0.000000
# 4 0.000000 0.000000 0.000000 0.060736 0.000000 0.000000
# 5 0.000000 0.000000 0.000000 0.000000 0.042827 0.000000
# 6 0.000000 0.000000 0.000000 0.000000 0.000000 0.006482
#
#
# Mechanical properties :
#
#
# Convention : Reuss Voigt Hill
#
# Bulk Modulus (GPa) = 15.81613 52.49373 34.15493
# Shear Modulus (GPa) = 19.01571 50.55667 34.78619
#
# Velocity S-wave (km/s) = 3.00074 4.89284 4.05859
# Velocity P-wave (km/s) = 4.41534 7.53505 6.17544
#
# Compressibility (1/GPa) = 0.06322658
#
# Stress axis : x y z
#
# Youngs Moduli (GPa) = 93.79745 40.12426 16.14482
#
# Poissons Ratio (x) = 0.44518 0.01154
# Poissons Ratio (y) = 1.04069 0.08619
# Poissons Ratio (z) = 0.06704 0.21420
#
# Static dielectric constant tensor:
#      x y z
#    x 1.755070 0.000000 0.000000 
#    y 0.000000 1.778680 0.000000 
#    z 0.000000 0.000000 1.808690 
# 
# From -- ./inp_files/18300.got.cif
#   From: 2010.05.17/outbox.cif.g08.bks.cpg/sg65_10_cif.got.tgz:18300.got - 2010.06.03 17:01:31.
