data_PCOD9492521
_publ_section_title
;
Structure prediction by ZEFSAII (Michael W. Deem and Ramdas Pophale) SiO2 
 PCOD9492521
Probable space group: C M M M
;
_chemical_formula_sum "Si O2"
_cell_formula_units_Z 88
_cell_length_a 8.740250
_cell_length_b 26.099696
_cell_length_c 21.233195
_cell_angle_alpha 90.000000
_cell_angle_beta 90.000000
_cell_angle_gamma 90.000000
_cell_volume 4843.671173
_symmetry_space_group_name_H-M "C M M M"
_symmetry_group_IT_number 65
_symmetry_cell_setting 'orthorhombic'
loop_
_space_group_symop_operation_xyz
x,y,z
-x,-y,z
x,-y,-z
-x,y,-z
-x,-y,-z
x,y,-z
-x,y,z
x,-y,z
1/2+x,1/2+y,z
1/2-x,1/2-y,z
1/2+x,1/2-y,-z
1/2-x,1/2+y,-z
1/2-x,1/2-y,-z
1/2+x,1/2+y,-z
1/2-x,1/2+y,z
1/2+x,1/2-y,z
loop_
_atom_site_type_symbol
_atom_site_label
_atom_site_fract_x
_atom_site_fract_y
_atom_site_fract_z
Si Si1 0.683397 0.939600 0.000000
Si Si2 0.183182 0.905780 0.132004
Si Si3 0.183585 0.195089 0.790296
Si Si4 0.683546 0.000000 0.359040
Si Si5 0.182897 0.899497 0.574421
Si Si6 0.816988 0.694510 0.651265
Si Si7 0.183296 0.500000 0.789227
O O1 0.748746 0.914078 0.937128
O O2 0.500000 0.936635 0.000000
O O3 0.726094 0.000000 0.000000
O O4 0.220645 0.850697 0.162067
O O5 0.249492 0.950104 0.176764
O O6 0.000000 0.910714 0.129483
O O7 0.250000 0.250000 0.810575
O O8 0.254947 0.183691 0.721730
O O9 0.000000 0.198677 0.783762
O O10 0.751848 0.949745 0.391683
O O11 0.500000 0.000000 0.365466
O O12 0.720533 0.000000 0.284752
O O13 0.214978 0.901950 0.500000
O O14 0.258375 0.849634 0.605348
O O15 0.000000 0.897301 0.583154
O O16 0.750000 0.750000 0.633046
O O17 0.000000 0.696502 0.652310
O O18 0.000000 0.500000 0.796473
#
# Coordination Sequence:
#
# PCOD9492521 Si02
#       7
#     8  16  16   8  16  16   8
#     4  11  23  39  60  87 119 156 195 237 286 340
#     4  11  23  38  60  88 118 154 194 237 285 340
#     4  10  21  38  61  89 119 154 195 239 290 344
#     4  11  24  40  60  87 118 153 194 242 293 350
#     4  11  24  41  60  83 115 155 197 242 293 352
#     4  11  22  38  62  89 118 153 193 243 297 349
#     4  11  23  37  57  87 118 149 189 236 289 343
#
# _framework density 18.168037000000002
#
# number of rings (size 3 to 8) (size 9 to 14) (size 15 to 20)
#    0.000    1.182    0.909    6.545    0.000   10.545 
#    0.000    0.455    0.000    0.000    0.000    0.000 
#    0.000    0.000    0.000    0.000    0.000    0.000 
#
# Total GULP energy -246110.078298 kJ/mol
# GULP energy per Si atom -5593.410870 kJ/mol
# Density = 1.812669 g / cm^3
# Si number density = 18.168037 Si / 1000 Ang^3
#
#
#
# Elastic Constant Matrix: (Units=GPa)
#
#
# Indices 1 2 3 4 5 6 
#
# 1 103.0530 82.0809 92.1778 0.0000 0.0000 0.0000
# 2 82.0809 159.2137 126.4594 0.0000 0.0000 0.0000
# 3 92.1778 126.4594 157.0908 0.0000 0.0000 0.0000
# 4 0.0000 0.0000 0.0000 104.3979 0.0000 0.0000
# 5 0.0000 0.0000 0.0000 0.0000 34.0182 0.0000
# 6 0.0000 0.0000 0.0000 0.0000 0.0000 36.4739
#
#
#
# Elastic Compliance Matrix: (Units=1/GPa)
#
#
# Indices 1 2 3 4 5 6 
#
# 1 0.020884 -0.002865 -0.009948 0.000000 0.000000 0.000000
# 2 -0.002865 0.017811 -0.012657 0.000000 0.000000 0.000000
# 3 -0.009948 -0.012657 0.022391 0.000000 0.000000 0.000000
# 4 0.000000 0.000000 0.000000 0.009579 0.000000 0.000000
# 5 0.000000 0.000000 0.000000 0.000000 0.029396 0.000000
# 6 0.000000 0.000000 0.000000 0.000000 0.000000 0.027417
#
#
# Mechanical properties :
#
#
# Convention : Reuss Voigt Hill
#
# Bulk Modulus (GPa) = 98.55014 113.42154 105.98584
# Shear Modulus (GPa) = 27.50290 42.88730 35.19510
#
# Velocity S-wave (km/s) = 3.89499 4.86386 4.40614
# Velocity P-wave (km/s) = 8.63651 9.70091 9.18414
#
# Compressibility (1/GPa) = 0.01014712
#
# Stress axis : x y z
#
# Youngs Moduli (GPa) = 47.88415 56.14561 44.65982
#
# Poissons Ratio (x) = 0.16087 0.44426
# Poissons Ratio (y) = 0.13720 0.56524
# Poissons Ratio (z) = 0.47633 0.71061
#
# Static dielectric constant tensor:
#      x y z
#    x 1.608370 0.000000 0.000000 
#    y 0.000000 1.601280 0.000000 
#    z 0.000000 0.000000 1.592480 
# 
# From -- ./inp_files/59884.got.cif
#   From: 2010.05.17/outbox.cif.g08.bks.cpg/sg65_30_cif.got.tgz:59884.got - 2010.06.03 17:01:31.
