data_PCOD9492460
_publ_section_title
;
Structure prediction by ZEFSAII (Michael W. Deem and Ramdas Pophale) SiO2 
 PCOD9492460
Probable space group: C M M M
;
_chemical_formula_sum "Si O2"
_cell_formula_units_Z 64
_cell_length_a 28.740058
_cell_length_b 8.624321
_cell_length_c 13.213729
_cell_angle_alpha 90.000000
_cell_angle_beta 90.000000
_cell_angle_gamma 90.000000
_cell_volume 3275.200930
_symmetry_space_group_name_H-M "C M M M"
_symmetry_group_IT_number 65
_symmetry_cell_setting 'orthorhombic'
loop_
_space_group_symop_operation_xyz
x,y,z
-x,-y,z
x,-y,-z
-x,y,-z
-x,-y,-z
x,y,-z
-x,y,z
x,-y,z
1/2+x,1/2+y,z
1/2-x,1/2-y,z
1/2+x,1/2-y,-z
1/2-x,1/2+y,-z
1/2-x,1/2-y,-z
1/2+x,1/2+y,-z
1/2-x,1/2+y,z
1/2+x,1/2-y,z
loop_
_atom_site_type_symbol
_atom_site_label
_atom_site_fract_x
_atom_site_fract_y
_atom_site_fract_z
Si Si1 0.802573 0.813864 0.613735
Si Si2 0.943492 0.823630 0.500000
Si Si3 0.946093 0.188196 0.276830
Si Si4 0.302188 0.684753 0.000000
Si Si5 0.143592 0.315682 0.806958
O O1 0.820128 0.776569 0.500000
O O2 0.750000 0.750000 0.620526
O O3 0.832038 0.741386 0.703713
O O4 0.802247 0.000000 0.624058
O O5 0.932538 0.754499 0.609449
O O6 0.000000 0.834826 0.500000
O O7 0.924630 0.000000 0.500000
O O8 0.909405 0.256612 0.199222
O O9 0.000000 0.228193 0.257880
O O10 0.943075 0.000000 0.278297
O O11 0.250000 0.750000 0.000000
O O12 0.329098 0.743479 0.900961
O O13 0.300409 0.500000 0.000000
O O14 0.145325 0.500000 0.813345
#
# Coordination Sequence:
#
# PCOD9492460 Si02
#       5
#    16   8  16   8  16
#     4  10  21  38  60  87 121 160 202 249 304 366
#     4   7  12  26  51  81 114 155 202 249 293 343
#     4   9  18  35  59  88 123 165 212 257 303 359
#     4  12  26  48  73  94 119 154 204 257 311 369
#     4  12  25  40  61  91 127 162 203 251 309 369
#
# _framework density 19.540786000000001
#
# number of rings (size 3 to 8) (size 9 to 14) (size 15 to 20)
#    0.000    1.875    0.000    6.375    1.750    2.000 
#    0.000    0.625    0.000    6.000    0.000    0.000 
#    0.000    0.000    0.000    0.000    0.000    0.000 
#
# Total GULP energy -178794.535895 kJ/mol
# GULP energy per Si atom -5587.329247 kJ/mol
# Density = 1.949631 g / cm^3
# Si number density = 19.540786 Si / 1000 Ang^3
#
#
#
# Elastic Constant Matrix: (Units=GPa)
#
#
# Indices 1 2 3 4 5 6 
#
# 1 142.2790 64.6190 97.6091 0.0000 0.0000 0.0000
# 2 64.6190 113.4145 65.9911 0.0000 0.0000 0.0000
# 3 97.6091 65.9911 134.8566 0.0000 0.0000 0.0000
# 4 0.0000 0.0000 0.0000 20.0136 0.0000 0.0000
# 5 0.0000 0.0000 0.0000 0.0000 38.1404 0.0000
# 6 0.0000 0.0000 0.0000 0.0000 0.0000 32.4859
#
#
#
# Elastic Compliance Matrix: (Units=1/GPa)
#
#
# Indices 1 2 3 4 5 6 
#
# 1 0.014678 -0.003050 -0.009132 0.000000 0.000000 0.000000
# 2 -0.003050 0.012961 -0.004135 0.000000 0.000000 0.000000
# 3 -0.009132 -0.004135 0.016048 0.000000 0.000000 0.000000
# 4 0.000000 0.000000 0.000000 0.049966 0.000000 0.000000
# 5 0.000000 0.000000 0.000000 0.000000 0.026219 0.000000
# 6 0.000000 0.000000 0.000000 0.000000 0.000000 0.030783
#
#
# Mechanical properties :
#
#
# Convention : Reuss Voigt Hill
#
# Bulk Modulus (GPa) = 90.46059 94.10982 92.28521
# Shear Modulus (GPa) = 26.74192 28.95004 27.84598
#
# Velocity S-wave (km/s) = 3.70336 3.85323 3.77904
# Velocity P-wave (km/s) = 8.04240 8.24995 8.14684
#
# Compressibility (1/GPa) = 0.01105454
#
# Stress axis : x y z
#
# Youngs Moduli (GPa) = 68.12778 77.15630 62.31213
#
# Poissons Ratio (x) = 0.23530 0.56902
# Poissons Ratio (y) = 0.20777 0.25765
# Poissons Ratio (z) = 0.62213 0.31903
#
# Static dielectric constant tensor:
#      x y z
#    x 1.642510 0.000000 0.000000 
#    y 0.000000 1.659240 0.000000 
#    z 0.000000 0.000000 1.680360 
# 
# From -- ./inp_files/33221.got.cif
#   From: 2010.05.17/outbox.cif.g08.bks.cpg/sg65_17_cif.got.tgz:33221.got - 2010.06.03 17:01:31.
