data_PCOD9492616
_publ_section_title
;
Structure prediction by ZEFSAII (Michael W. Deem and Ramdas Pophale) SiO2 
 PCOD9492616
Probable space group: C M M M
;
_chemical_formula_sum "Si O2"
_cell_formula_units_Z 68
_cell_length_a 18.509554
_cell_length_b 14.746476
_cell_length_c 12.833887
_cell_angle_alpha 90.000000
_cell_angle_beta 90.000000
_cell_angle_gamma 90.000000
_cell_volume 3503.018361
_symmetry_space_group_name_H-M "C M M M"
_symmetry_group_IT_number 65
_symmetry_cell_setting 'orthorhombic'
loop_
_space_group_symop_operation_xyz
x,y,z
-x,-y,z
x,-y,-z
-x,y,-z
-x,-y,-z
x,y,-z
-x,y,z
x,-y,z
1/2+x,1/2+y,z
1/2-x,1/2-y,z
1/2+x,1/2-y,-z
1/2-x,1/2+y,-z
1/2-x,1/2-y,-z
1/2+x,1/2+y,-z
1/2-x,1/2+y,z
1/2+x,1/2-y,z
loop_
_atom_site_type_symbol
_atom_site_label
_atom_site_fract_x
_atom_site_fract_y
_atom_site_fract_z
Si Si1 0.750000 0.750000 0.500000
Si Si2 0.914378 0.260883 0.617864
Si Si3 0.270961 0.355644 0.885929
Si Si4 0.416818 0.394414 0.214519
Si Si5 0.202836 0.603160 0.332556
O O1 0.752626 0.669691 0.592468
O O2 0.881848 0.250050 0.500000
O O3 0.904552 0.172044 0.687637
O O4 0.874959 0.346941 0.666926
O O5 0.000000 0.275232 0.609475
O O6 0.250000 0.250000 0.882985
O O7 0.356548 0.369441 0.869532
O O8 0.234330 0.396936 0.783879
O O9 0.249708 0.390976 0.000000
O O10 0.500000 0.381798 0.179893
O O11 0.408074 0.500000 0.243711
O O12 0.198984 0.500000 0.370119
#
# Coordination Sequence:
#
# PCOD9492616 Si02
#       5
#     4  16  16  16  16
#     4  12  22  40  56  88 128 154 202 266 312 382
#     4  10  21  39  61  88 128 167 208 263 312 375
#     4  11  23  42  65  91 127 169 212 263 319 376
#     4  10  21  39  64  94 127 167 212 261 321 383
#     4  12  24  40  65  92 125 169 211 260 319 383
#
# _framework density 19.411830999999999
#
# number of rings (size 3 to 8) (size 9 to 14) (size 15 to 20)
#    0.000    1.176    4.706    1.059    0.000    3.294 
#    0.000    5.882    0.000    0.706    0.000    1.647 
#    0.000    0.000    0.000    0.000    0.000    0.000 
#
# Total GULP energy -189411.217458 kJ/mol
# GULP energy per Si atom -5570.918161 kJ/mol
# Density = 1.936765 g / cm^3
# Si number density = 19.411831 Si / 1000 Ang^3
#
#
#
# Elastic Constant Matrix: (Units=GPa)
#
#
# Indices 1 2 3 4 5 6 
#
# 1 73.9402 54.5408 40.0172 0.0000 0.0000 0.0000
# 2 54.5408 178.6001 49.8558 0.0000 0.0000 0.0000
# 3 40.0172 49.8558 142.1377 0.0000 0.0000 0.0000
# 4 0.0000 0.0000 0.0000 -26.2559 0.0000 0.0000
# 5 0.0000 0.0000 0.0000 0.0000 53.2972 0.0000
# 6 0.0000 0.0000 0.0000 0.0000 0.0000 27.8411
#
#
#
# Elastic Compliance Matrix: (Units=1/GPa)
#
#
# Indices 1 2 3 4 5 6 
#
# 1 0.019051 -0.004789 -0.003684 0.000000 0.000000 0.000000
# 2 -0.004789 0.007411 -0.001251 0.000000 0.000000 0.000000
# 3 -0.003684 -0.001251 0.008511 0.000000 0.000000 0.000000
# 4 0.000000 0.000000 0.000000 -0.038087 0.000000 0.000000
# 5 0.000000 0.000000 0.000000 0.000000 0.018763 0.000000
# 6 0.000000 0.000000 0.000000 0.000000 0.000000 0.035918
#
#
# Mechanical properties :
#
#
# Convention : Reuss Voigt Hill
#
# Bulk Modulus (GPa) = 64.41248 75.94506 70.17877
# Shear Modulus (GPa) = 65.62491 27.66076 46.64283
#
# Velocity S-wave (km/s) = 5.82066 3.77894 4.90716
# Velocity P-wave (km/s) = 8.85593 7.63207 8.26668
#
# Compressibility (1/GPa) = 0.01552494
#
# Stress axis : x y z
#
# Youngs Moduli (GPa) = 52.49081 134.93585 117.49071
#
# Poissons Ratio (x) = 0.64627 0.43279
# Poissons Ratio (y) = 0.25140 0.14698
# Poissons Ratio (z) = 0.19336 0.16881
#
# Static dielectric constant tensor:
#      x y z
#    x 1.286150 0.000000 0.000000 
#    y 0.000000 1.622740 0.000000 
#    z 0.000000 0.000000 1.687980 
# 
# From -- ./inp_files/28298.got.cif
#   From: 2010.05.17/outbox.cif.g08.bks.cpg/sg65_15_cif.got.tgz:28298.got - 2010.06.03 17:01:31.
