data_PCOD9492018
_publ_section_title
;
Structure prediction by ZEFSAII (Michael W. Deem and Ramdas Pophale) SiO2 
 PCOD9492018
Probable space group: C M M M
;
_chemical_formula_sum "Si O2"
_cell_formula_units_Z 104
_cell_length_a 21.946132
_cell_length_b 8.634983
_cell_length_c 28.593509
_cell_angle_alpha 90.000000
_cell_angle_beta 90.000000
_cell_angle_gamma 90.000000
_cell_volume 5418.597961
_symmetry_space_group_name_H-M "C M M M"
_symmetry_group_IT_number 65
_symmetry_cell_setting 'orthorhombic'
loop_
_space_group_symop_operation_xyz
x,y,z
-x,-y,z
x,-y,-z
-x,y,-z
-x,-y,-z
x,y,-z
-x,y,z
x,-y,z
1/2+x,1/2+y,z
1/2-x,1/2-y,z
1/2+x,1/2-y,-z
1/2-x,1/2+y,-z
1/2-x,1/2-y,-z
1/2+x,1/2+y,-z
1/2-x,1/2+y,z
1/2+x,1/2-y,z
loop_
_atom_site_type_symbol
_atom_site_label
_atom_site_fract_x
_atom_site_fract_y
_atom_site_fract_z
Si Si1 0.000000 0.684304 0.947868
Si Si2 0.569919 0.312340 0.772198
Si Si3 0.684780 0.185229 0.285456
Si Si4 0.598537 0.684089 0.878599
Si Si5 0.317138 0.814494 0.051227
Si Si6 0.185612 0.184841 0.609170
Si Si7 0.568713 0.185379 0.555789
O O1 0.055815 0.739418 0.917098
O O2 0.000000 0.500000 0.950655
O O3 0.000000 0.749191 0.000000
O O4 0.500000 0.267338 0.759501
O O5 0.572921 0.500000 0.769272
O O6 0.624839 0.243227 0.741803
O O7 0.582177 0.266604 0.826234
O O8 0.750000 0.250000 0.266934
O O9 0.680013 0.245704 0.338693
O O10 0.687169 0.000000 0.284948
O O11 0.591484 0.500000 0.879858
O O12 0.661651 0.736712 0.900457
O O13 0.250000 0.750000 0.045986
O O14 0.320056 0.000000 0.055553
O O15 0.348015 0.777231 0.000000
O O16 0.250000 0.250000 0.589467
O O17 0.125512 0.234215 0.580793
O O18 0.189741 0.000000 0.611726
O O19 0.572334 0.211597 0.500000
O O20 0.500000 0.234226 0.571020
O O21 0.572988 0.000000 0.563548
#
# Coordination Sequence:
#
# PCOD9492018 Si02
#       7
#     8  16  16  16  16  16  16
#     4  11  23  37  55  81 113 147 183 225 272 329
#     4  10  22  42  63  86 119 154 192 241 295 351
#     4  11  23  41  65  91 119 155 200 249 304 364
#     4  11  22  38  59  83 110 145 183 226 279 334
#     4  10  21  37  56  80 110 144 182 226 274 328
#     4  11  22  38  61  88 121 160 203 255 308 362
#     4   9  19  37  60  87 123 166 210 258 309 362
#
# _framework density 19.193155999999998
#
# number of rings (size 3 to 8) (size 9 to 14) (size 15 to 20)
#    0.000    1.615    0.769    5.769    0.000    7.077 
#    0.000    0.769    0.000    0.000    0.000    0.000 
#    0.000    0.000    0.000    0.000    0.000    0.000 
#
# Total GULP energy -290022.471813 kJ/mol
# GULP energy per Si atom -5577.355227 kJ/mol
# Density = 1.914947 g / cm^3
# Si number density = 19.193156 Si / 1000 Ang^3
#
#
#
# Elastic Constant Matrix: (Units=GPa)
#
#
# Indices 1 2 3 4 5 6 
#
# 1 169.1126 56.7165 69.1501 0.0000 0.0000 0.0000
# 2 56.7165 88.2402 40.2015 0.0000 0.0000 0.0000
# 3 69.1501 40.2015 65.7517 0.0000 0.0000 0.0000
# 4 0.0000 0.0000 0.0000 24.0191 0.0000 0.0000
# 5 0.0000 0.0000 0.0000 0.0000 60.5067 0.0000
# 6 0.0000 0.0000 0.0000 0.0000 0.0000 38.9153
#
#
#
# Elastic Compliance Matrix: (Units=1/GPa)
#
#
# Indices 1 2 3 4 5 6 
#
# 1 0.010739 -0.002436 -0.009805 0.000000 0.000000 0.000000
# 2 -0.002436 0.016261 -0.007381 0.000000 0.000000 0.000000
# 3 -0.009805 -0.007381 0.030033 0.000000 0.000000 0.000000
# 4 0.000000 0.000000 0.000000 0.041634 0.000000 0.000000
# 5 0.000000 0.000000 0.000000 0.000000 0.016527 0.000000
# 6 0.000000 0.000000 0.000000 0.000000 0.000000 0.025697
#
#
# Mechanical properties :
#
#
# Convention : Reuss Voigt Hill
#
# Bulk Modulus (GPa) = 56.20946 72.80452 64.50699
# Shear Modulus (GPa) = 26.87243 35.15732 31.01488
#
# Velocity S-wave (km/s) = 3.74586 4.28455 4.02423
# Velocity P-wave (km/s) = 6.93241 7.90515 7.43471
#
# Compressibility (1/GPa) = 0.01779060
#
# Stress axis : x y z
#
# Youngs Moduli (GPa) = 93.11445 61.49804 33.29618
#
# Poissons Ratio (x) = 0.14978 0.32648
# Poissons Ratio (y) = 0.22679 0.24574
# Poissons Ratio (z) = 0.91302 0.45389
#
# Static dielectric constant tensor:
#      x y z
#    x 3.410430 0.000000 0.000000 
#    y 0.000000 1.647780 0.000000 
#    z 0.000000 0.000000 1.654970 
# 
# From -- ./inp_files/75517.got.cif
#   From: 2010.05.17/outbox.cif.g08.bks.cpg/sg65_38_cif.got.tgz:75517.got - 2010.06.03 17:01:31.
