data_PCOD9492005
_publ_section_title
;
Structure prediction by ZEFSAII (Michael W. Deem and Ramdas Pophale) SiO2 
 PCOD9492005
Probable space group: C M M M
;
_chemical_formula_sum "Si O2"
_cell_formula_units_Z 104
_cell_length_a 24.191743
_cell_length_b 8.626725
_cell_length_c 28.992509
_cell_angle_alpha 90.000000
_cell_angle_beta 90.000000
_cell_angle_gamma 90.000000
_cell_volume 6050.606572
_symmetry_space_group_name_H-M "C M M M"
_symmetry_group_IT_number 65
_symmetry_cell_setting 'orthorhombic'
loop_
_space_group_symop_operation_xyz
x,y,z
-x,-y,z
x,-y,-z
-x,y,-z
-x,-y,-z
x,y,-z
-x,y,z
x,-y,z
1/2+x,1/2+y,z
1/2-x,1/2-y,z
1/2+x,1/2-y,-z
1/2-x,1/2+y,-z
1/2-x,1/2-y,-z
1/2+x,1/2+y,-z
1/2-x,1/2+y,z
1/2+x,1/2-y,z
loop_
_atom_site_type_symbol
_atom_site_label
_atom_site_fract_x
_atom_site_fract_y
_atom_site_fract_z
Si Si1 0.311558 0.813333 0.948559
Si Si2 0.188298 0.314480 0.228496
Si Si3 0.500000 0.682749 0.837138
Si Si4 0.500000 0.183267 0.263451
Si Si5 0.067005 0.321427 0.500000
Si Si6 0.115280 0.312070 0.138769
Si Si7 0.564290 0.313471 0.597987
Si Si8 0.111902 0.814318 0.306773
O O1 0.250000 0.750000 0.941805
O O2 0.349962 0.766343 0.906248
O O3 0.309184 0.000000 0.948001
O O4 0.330407 0.764914 0.000000
O O5 0.190444 0.500000 0.228912
O O6 0.250000 0.250000 0.222697
O O7 0.148986 0.268585 0.185316
O O8 0.160506 0.256668 0.275959
O O9 0.500000 0.500000 0.826348
O O10 0.500000 0.783865 0.790648
O O11 0.443850 0.730599 0.862304
O O12 0.554484 0.261987 0.283704
O O13 0.500000 0.000000 0.272787
O O14 0.083647 0.500000 0.500000
O O15 0.083686 0.242661 0.452070
O O16 0.000000 0.313383 0.500000
O O17 0.108632 0.500000 0.139364
O O18 0.500000 0.260573 0.605570
O O19 0.562601 0.500000 0.598089
O O20 0.603740 0.263938 0.639981
O O21 0.116671 0.000000 0.305432
#
# Coordination Sequence:
#
# PCOD9492005 Si02
#       8
#    16  16   8   8   8  16  16  16
#     4   9  18  34  57  83 109 140 179 222 268 317
#     4  11  23  37  54  77 106 141 177 220 268 315
#     4  12  24  36  55  79 105 142 182 218 261 316
#     4  12  22  34  52  76 108 142 176 217 264 316
#     4   9  17  27  41  67 100 135 174 215 259 308
#     4  10  21  37  56  79 109 142 177 218 267 318
#     4   9  17  30  47  69 100 138 175 213 259 309
#     4  11  21  35  54  78 106 140 182 221 261 316
#
# _framework density 17.188358999999998
#
# number of rings (size 3 to 8) (size 9 to 14) (size 15 to 20)
#    0.000    1.769    2.308    3.000    0.000    3.385 
#    0.000    0.385    0.000    2.308    0.000    0.538 
#    0.000    0.000    0.000    0.000    0.000    0.000 
#
# Total GULP energy -290163.951417 kJ/mol
# GULP energy per Si atom -5580.075989 kJ/mol
# Density = 1.714924 g / cm^3
# Si number density = 17.188359 Si / 1000 Ang^3
#
#
#
# Elastic Constant Matrix: (Units=GPa)
#
#
# Indices 1 2 3 4 5 6 
#
# 1 100.3099 27.2301 62.3991 0.0000 0.0000 0.0000
# 2 27.2301 30.0176 28.7453 0.0000 0.0000 0.0000
# 3 62.3991 28.7453 146.1041 0.0000 0.0000 0.0000
# 4 0.0000 0.0000 0.0000 20.2494 0.0000 0.0000
# 5 0.0000 0.0000 0.0000 0.0000 9.9183 0.0000
# 6 0.0000 0.0000 0.0000 0.0000 0.0000 23.9228
#
#
#
# Elastic Compliance Matrix: (Units=1/GPa)
#
#
# Indices 1 2 3 4 5 6 
#
# 1 0.015508 -0.009519 -0.004751 0.000000 0.000000 0.000000
# 2 -0.009519 0.046890 -0.005160 0.000000 0.000000 0.000000
# 3 -0.004751 -0.005160 0.009889 0.000000 0.000000 0.000000
# 4 0.000000 0.000000 0.000000 0.049384 0.000000 0.000000
# 5 0.000000 0.000000 0.000000 0.000000 0.100824 0.000000
# 6 0.000000 0.000000 0.000000 0.000000 0.000000 0.041801
#
#
# Mechanical properties :
#
#
# Convention : Reuss Voigt Hill
#
# Bulk Modulus (GPa) = 29.91512 57.02004 43.46758
# Shear Modulus (GPa) = 15.90848 21.35523 18.63185
#
# Velocity S-wave (km/s) = 3.04557 3.52863 3.29596
# Velocity P-wave (km/s) = 5.45980 7.06026 6.31097
#
# Compressibility (1/GPa) = 0.03342791
#
# Stress axis : x y z
#
# Youngs Moduli (GPa) = 64.48177 21.32650 101.12708
#
# Poissons Ratio (x) = 0.20300 0.48041
# Poissons Ratio (y) = 0.61379 0.52182
# Poissons Ratio (z) = 0.30633 0.11004
#
# Static dielectric constant tensor:
#      x y z
#    x 1.561650 0.000000 0.000000 
#    y 0.000000 1.580220 0.000000 
#    z 0.000000 0.000000 1.604410 
# 
# From -- ./inp_files/75826.got.cif
#   From: 2010.05.17/outbox.cif.g08.bks.cpg/sg65_38_cif.got.tgz:75826.got - 2010.06.03 17:01:31.
