data_PCOD9492771
_publ_section_title
;
Structure prediction by ZEFSAII (Michael W. Deem and Ramdas Pophale) SiO2 
 PCOD9492771
Probable space group: C M M M
;
_chemical_formula_sum "Si O2"
_cell_formula_units_Z 50
_cell_length_a 16.008159
_cell_length_b 8.781368
_cell_length_c 18.980421
_cell_angle_alpha 90.000000
_cell_angle_beta 90.000000
_cell_angle_gamma 90.000000
_cell_volume 2668.144879
_symmetry_space_group_name_H-M "C M M M"
_symmetry_group_IT_number 65
_symmetry_cell_setting 'orthorhombic'
loop_
_space_group_symop_operation_xyz
x,y,z
-x,-y,z
x,-y,-z
-x,y,-z
-x,-y,-z
x,y,-z
-x,y,z
x,-y,z
1/2+x,1/2+y,z
1/2-x,1/2-y,z
1/2+x,1/2-y,-z
1/2-x,1/2+y,-z
1/2-x,1/2-y,-z
1/2+x,1/2+y,-z
1/2-x,1/2+y,z
1/2+x,1/2-y,z
loop_
_atom_site_type_symbol
_atom_site_label
_atom_site_fract_x
_atom_site_fract_y
_atom_site_fract_z
Si Si1 0.657064 0.817685 0.000000
Si Si2 0.000000 0.000000 0.500000
Si Si3 0.000000 0.168651 0.645808
Si Si4 0.598245 0.321877 0.854495
Si Si5 0.162266 0.681429 0.287261
O O1 0.750000 0.750000 0.000000
O O2 0.613697 0.755299 0.070372
O O3 0.658251 0.000000 0.000000
O O4 0.000000 0.869949 0.436821
O O5 0.083255 0.255393 0.669394
O O6 0.000000 0.000000 0.681655
O O7 0.500000 0.311494 0.837661
O O8 0.622035 0.500000 0.857738
O O9 0.648034 0.238501 0.792703
O O10 0.164712 0.500000 0.289574
O O11 0.250000 0.750000 0.313186
#
# Coordination Sequence:
#
# PCOD9492771 Si02
#       5
#     8   2   8  16  16
#     4  12  25  40  57  81 125 169 225 287 341 398
#     4   8  24  44  82  96 144 172 214 260 336 408
#     4  10  21  45  71 100 134 173 210 268 326 391
#     4  11  23  40  62  90 125 174 223 280 338 399
#     4  12  24  40  68 102 137 177 228 276 330 395
#
# _framework density 18.739612000000001
#
# number of rings (size 3 to 8) (size 9 to 14) (size 15 to 20)
#    0.480    0.320    1.600    7.200    0.000    3.840 
#    0.000    2.400    0.000    0.000    0.000    0.000 
#    0.000    0.000    0.000    0.000    0.000    0.000 
#
# Total GULP energy -139535.496835 kJ/mol
# GULP energy per Si atom -5581.419873 kJ/mol
# Density = 1.869696 g / cm^3
# Si number density = 18.739612 Si / 1000 Ang^3
#
#
#
# Elastic Constant Matrix: (Units=GPa)
#
#
# Indices 1 2 3 4 5 6 
#
# 1 139.9374 81.0163 51.4901 0.0000 0.0000 0.0000
# 2 81.0163 205.8380 52.0332 0.0000 0.0000 0.0000
# 3 51.4901 52.0332 124.6908 0.0000 0.0000 0.0000
# 4 0.0000 0.0000 0.0000 26.4724 0.0000 0.0000
# 5 0.0000 0.0000 0.0000 0.0000 0.9362 0.0000
# 6 0.0000 0.0000 0.0000 0.0000 0.0000 32.7639
#
#
#
# Elastic Compliance Matrix: (Units=1/GPa)
#
#
# Indices 1 2 3 4 5 6 
#
# 1 0.010057 -0.003252 -0.002796 0.000000 0.000000 0.000000
# 2 -0.003252 0.006482 -0.001362 0.000000 0.000000 0.000000
# 3 -0.002796 -0.001362 0.009743 0.000000 0.000000 0.000000
# 4 0.000000 0.000000 0.000000 0.037775 0.000000 0.000000
# 5 0.000000 0.000000 0.000000 0.000000 1.068184 0.000000
# 6 0.000000 0.000000 0.000000 0.000000 0.000000 0.030521
#
#
# Mechanical properties :
#
#
# Convention : Reuss Voigt Hill
#
# Bulk Modulus (GPa) = 87.24186 93.28282 90.26234
# Shear Modulus (GPa) = 4.23225 31.09627 17.66426
#
# Velocity S-wave (km/s) = 1.50444 4.07798 3.07354
# Velocity P-wave (km/s) = 7.04795 8.48880 7.80171
#
# Compressibility (1/GPa) = 0.01146239
#
# Stress axis : x y z
#
# Youngs Moduli (GPa) = 99.42835 154.26353 102.63761
#
# Poissons Ratio (x) = 0.50162 0.28700
# Poissons Ratio (y) = 0.32331 0.13983
# Poissons Ratio (z) = 0.27803 0.21016
#
# Static dielectric constant tensor:
#      x y z
#    x 1.679360 0.000000 0.000000 
#    y 0.000000 1.630640 0.000000 
#    z 0.000000 0.000000 1.634100 
# 
# From -- ./inp_files/62118.got.cif
#   From: 2010.05.17/outbox.cif.g08.bks.cpg/sg65_32_cif.got.tgz:62118.got - 2010.06.03 17:01:31.
