data_PCOD9492637
_publ_section_title
;
Structure prediction by ZEFSAII (Michael W. Deem and Ramdas Pophale) SiO2 
 PCOD9492637
Probable space group: C M M M
;
_chemical_formula_sum "Si O2"
_cell_formula_units_Z 88
_cell_length_a 15.859098
_cell_length_b 16.068378
_cell_length_c 16.659364
_cell_angle_alpha 90.000000
_cell_angle_beta 90.000000
_cell_angle_gamma 90.000000
_cell_volume 4245.305418
_symmetry_space_group_name_H-M "C M M M"
_symmetry_group_IT_number 65
_symmetry_cell_setting 'orthorhombic'
loop_
_space_group_symop_operation_xyz
x,y,z
-x,-y,z
x,-y,-z
-x,y,-z
-x,-y,-z
x,y,-z
-x,y,z
x,-y,z
1/2+x,1/2+y,z
1/2-x,1/2-y,z
1/2+x,1/2-y,-z
1/2-x,1/2+y,-z
1/2-x,1/2-y,-z
1/2+x,1/2+y,-z
1/2-x,1/2+y,z
1/2+x,1/2-y,z
loop_
_atom_site_type_symbol
_atom_site_label
_atom_site_fract_x
_atom_site_fract_y
_atom_site_fract_z
Si Si1 0.897284 0.900218 0.000000
Si Si2 0.595090 0.880117 0.332741
Si Si3 0.400234 0.909499 0.857876
Si Si4 0.407696 0.311816 0.691370
Si Si5 0.653764 0.270409 0.134417
Si Si6 0.728536 0.594619 0.589409
O O1 0.859682 0.846868 0.925942
O O2 0.000000 0.892655 0.000000
O O3 0.878176 0.000000 0.000000
O O4 0.500000 0.910251 0.350458
O O5 0.613489 0.900261 0.238678
O O6 0.592607 0.781104 0.342879
O O7 0.673832 0.908134 0.384863
O O8 0.500000 0.914341 0.869450
O O9 0.374947 0.821133 0.896047
O O10 0.363663 0.000000 0.883459
O O11 0.500000 0.350355 0.675687
O O12 0.395768 0.297093 0.786012
O O13 0.328808 0.358404 0.653518
O O14 0.750000 0.250000 0.156331
O O15 0.720292 0.631186 0.500000
O O16 0.697923 0.500000 0.587258
#
# Coordination Sequence:
#
# PCOD9492637 Si02
#       6
#     8  16  16  16  16  16
#     4  11  25  44  63  87 127 173 212 253 298 352
#     4   9  18  34  57  84 113 150 200 255 312 375
#     4   9  17  32  57  86 116 151 191 242 305 369
#     4  10  21  39  63  86 112 153 202 251 305 367
#     4  11  22  39  64  93 122 154 199 255 309 368
#     4  11  24  38  53  80 119 159 202 257 314 366
#
# _framework density 20.728781000000001
#
# number of rings (size 3 to 8) (size 9 to 14) (size 15 to 20)
#    0.000    1.909    0.000    6.273    0.000    5.091 
#    0.000    4.091    0.000    1.636    0.000    0.000 
#    0.000    0.000    0.000    0.000    0.000    0.000 
#
# Total GULP energy -245308.566987 kJ/mol
# GULP energy per Si atom -5575.194704 kJ/mol
# Density = 2.068160 g / cm^3
# Si number density = 20.728781 Si / 1000 Ang^3
#
#
#
# Elastic Constant Matrix: (Units=GPa)
#
#
# Indices 1 2 3 4 5 6 
#
# 1 88.8011 30.7505 19.4495 0.0000 0.0000 0.0000
# 2 30.7505 134.7202 32.4302 0.0000 0.0000 0.0000
# 3 19.4495 32.4302 45.5923 0.0000 0.0000 0.0000
# 4 0.0000 0.0000 0.0000 18.1484 0.0000 0.0000
# 5 0.0000 0.0000 0.0000 0.0000 -2.9087 0.0000
# 6 0.0000 0.0000 0.0000 0.0000 0.0000 -82.8300
#
#
#
# Elastic Compliance Matrix: (Units=1/GPa)
#
#
# Indices 1 2 3 4 5 6 
#
# 1 0.012830 -0.001944 -0.004091 0.000000 0.000000 0.000000
# 2 -0.001944 0.009251 -0.005751 0.000000 0.000000 0.000000
# 3 -0.004091 -0.005751 0.027769 0.000000 0.000000 0.000000
# 4 0.000000 0.000000 0.000000 0.055101 0.000000 0.000000
# 5 0.000000 0.000000 0.000000 0.000000 -0.343799 0.000000
# 6 0.000000 0.000000 0.000000 0.000000 0.000000 -0.012073
#
#
# Mechanical properties :
#
#
# Convention : Reuss Voigt Hill
#
# Bulk Modulus (GPa) = 38.05258 48.26377 43.15818
# Shear Modulus (GPa) = -22.87390 -1.08582 -11.97986
#
# Velocity S-wave (km/s) = -3.32548 -0.72454 -2.40663
# Velocity P-wave (km/s) = 1.91106 4.75753 3.62534
#
# Compressibility (1/GPa) = 0.02627943
#
# Stress axis : x y z
#
# Youngs Moduli (GPa) = 77.94114 108.09792 36.01100
#
# Poissons Ratio (x) = 0.21012 0.14731
# Poissons Ratio (y) = 0.15150 0.20710
# Poissons Ratio (z) = 0.31883 0.62167
#
# Static dielectric constant tensor:
#      x y z
#    x 1.756520 0.000000 0.000000 
#    y 0.000000 1.764370 0.000000 
#    z 0.000000 0.000000 1.742630 
# 
# From -- ./inp_files/62454.got.cif
#   From: 2010.05.17/outbox.cif.g08.bks.cpg/sg65_32_cif.got.tgz:62454.got - 2010.06.03 17:01:31.
