data_PCOD9492890
_publ_section_title
;
Structure prediction by ZEFSAII (Michael W. Deem and Ramdas Pophale) SiO2 
 PCOD9492890
Probable space group: C M M M
;
_chemical_formula_sum "Si O2"
_cell_formula_units_Z 90
_cell_length_a 22.244118
_cell_length_b 19.401499
_cell_length_c 11.533002
_cell_angle_alpha 90.000000
_cell_angle_beta 90.000000
_cell_angle_gamma 90.000000
_cell_volume 4977.288829
_symmetry_space_group_name_H-M "C M M M"
_symmetry_group_IT_number 65
_symmetry_cell_setting 'orthorhombic'
loop_
_space_group_symop_operation_xyz
x,y,z
-x,-y,z
x,-y,-z
-x,y,-z
-x,-y,-z
x,y,-z
-x,y,z
x,-y,z
1/2+x,1/2+y,z
1/2-x,1/2-y,z
1/2+x,1/2-y,-z
1/2-x,1/2+y,-z
1/2-x,1/2-y,-z
1/2+x,1/2+y,-z
1/2-x,1/2+y,z
1/2+x,1/2-y,z
loop_
_atom_site_type_symbol
_atom_site_label
_atom_site_fract_x
_atom_site_fract_y
_atom_site_fract_z
Si Si1 0.664198 0.308399 0.000000
Si Si2 0.571784 0.188638 0.637996
Si Si3 0.654709 0.080921 0.238121
Si Si4 0.500000 0.500000 0.000000
Si Si5 0.500000 0.424322 0.242116
Si Si6 0.218468 0.078236 0.638178
Si Si7 0.884724 0.168630 0.746979
Si Si8 0.700174 0.147636 0.000000
O O1 0.627609 0.323774 0.883732
O O2 0.680994 0.227620 0.000000
O O3 0.726932 0.351201 0.000000
O O4 0.583029 0.184024 0.500000
O O5 0.500000 0.191154 0.655944
O O6 0.601595 0.124770 0.704805
O O7 0.601145 0.257988 0.689520
O O8 0.713815 0.088829 0.318265
O O9 0.640351 0.000000 0.229638
O O10 0.673991 0.110975 0.113626
O O11 0.500000 0.558645 0.895568
O O12 0.500000 0.500000 0.299564
O O13 0.441183 0.381241 0.273050
O O14 0.216105 0.082476 0.500000
O O15 0.174098 0.133517 0.693101
O O16 0.200576 0.000000 0.673628
#
# Coordination Sequence:
#
# PCOD9492890 Si02
#       8
#     8  16  16   2   8  16  16   8
#     4  11  23  35  66  92 128 168 202 256 318 374
#     4  11  25  44  67  94 124 167 220 267 320 380
#     4  11  23  43  66  93 128 165 208 266 326 381
#     4   8  20  40  52  88 122 168 226 240 298 366
#     4  10  22  38  57  88 127 166 207 253 299 378
#     4  10  22  39  61  91 126 166 210 257 314 379
#     4  12  21  41  62  92 129 165 211 261 315 375
#     4  11  21  42  59  97 133 159 200 253 320 396
#
# _framework density 18.082132999999999
#
# number of rings (size 3 to 8) (size 9 to 14) (size 15 to 20)
#    0.267    0.889    4.444    2.400    0.000    2.133 
#    0.000    4.000    0.000    3.200    0.000    0.000 
#    0.000    0.000    0.000    0.000    0.000    0.000 
#
# Total GULP energy -251118.424475 kJ/mol
# GULP energy per Si atom -5580.409433 kJ/mol
# Density = 1.804098 g / cm^3
# Si number density = 18.082133 Si / 1000 Ang^3
#
#
#
# Elastic Constant Matrix: (Units=GPa)
#
#
# Indices 1 2 3 4 5 6 
#
# 1 70.7556 54.5833 35.7219 0.0000 0.0000 0.0000
# 2 54.5833 124.5265 53.5938 0.0000 0.0000 0.0000
# 3 35.7219 53.5938 94.2235 0.0000 0.0000 0.0000
# 4 0.0000 0.0000 0.0000 14.2843 0.0000 0.0000
# 5 0.0000 0.0000 0.0000 0.0000 24.9374 0.0000
# 6 0.0000 0.0000 0.0000 0.0000 0.0000 38.1312
#
#
#
# Elastic Compliance Matrix: (Units=1/GPa)
#
#
# Indices 1 2 3 4 5 6 
#
# 1 0.022357 -0.008146 -0.003843 0.000000 0.000000 0.000000
# 2 -0.008146 0.013602 -0.004648 0.000000 0.000000 0.000000
# 3 -0.003843 -0.004648 0.014714 0.000000 0.000000 0.000000
# 4 0.000000 0.000000 0.000000 0.070007 0.000000 0.000000
# 5 0.000000 0.000000 0.000000 0.000000 0.040100 0.000000
# 6 0.000000 0.000000 0.000000 0.000000 0.000000 0.026225
#
#
# Mechanical properties :
#
#
# Convention : Reuss Voigt Hill
#
# Bulk Modulus (GPa) = 57.47496 64.14485 60.80990
# Shear Modulus (GPa) = 22.11622 25.17769 23.64695
#
# Velocity S-wave (km/s) = 3.50108 3.73555 3.62021
# Velocity P-wave (km/s) = 6.94247 7.35914 7.15384
#
# Compressibility (1/GPa) = 0.01739888
#
# Stress axis : x y z
#
# Youngs Moduli (GPa) = 44.72816 73.52122 67.96373
#
# Poissons Ratio (x) = 0.59890 0.26116
# Poissons Ratio (y) = 0.36436 0.31591
# Poissons Ratio (z) = 0.17188 0.34174
#
# Static dielectric constant tensor:
#      x y z
#    x 1.595240 0.000000 0.000000 
#    y 0.000000 1.608720 0.000000 
#    z 0.000000 0.000000 1.591200 
# 
# From -- ./inp_files/28794.got.cif
#   From: 2010.05.17/outbox.cif.g08.bks.cpg/sg65_15_cif.got.tgz:28794.got - 2010.06.03 17:01:31.
