data_PCOD9492540
_publ_section_title
;
Structure prediction by ZEFSAII (Michael W. Deem and Ramdas Pophale) SiO2 
 PCOD9492540
Probable space group: C M M M
;
_chemical_formula_sum "Si O2"
_cell_formula_units_Z 88
_cell_length_a 30.902076
_cell_length_b 13.078649
_cell_length_c 12.007442
_cell_angle_alpha 90.000000
_cell_angle_beta 90.000000
_cell_angle_gamma 90.000000
_cell_volume 4852.896604
_symmetry_space_group_name_H-M "C M M M"
_symmetry_group_IT_number 65
_symmetry_cell_setting 'orthorhombic'
loop_
_space_group_symop_operation_xyz
x,y,z
-x,-y,z
x,-y,-z
-x,y,-z
-x,-y,-z
x,y,-z
-x,y,z
x,-y,z
1/2+x,1/2+y,z
1/2-x,1/2-y,z
1/2+x,1/2-y,-z
1/2-x,1/2+y,-z
1/2-x,1/2-y,-z
1/2+x,1/2+y,-z
1/2-x,1/2+y,z
1/2+x,1/2-y,z
loop_
_atom_site_type_symbol
_atom_site_label
_atom_site_fract_x
_atom_site_fract_y
_atom_site_fract_z
Si Si1 0.828355 0.617523 0.500000
Si Si2 0.125489 0.777318 0.873983
Si Si3 0.254135 0.000000 0.866518
Si Si4 0.932282 0.622289 0.500000
Si Si5 0.205937 0.688615 0.262504
Si Si6 0.587834 0.500000 0.630411
Si Si7 0.549812 0.278447 0.297572
Si Si8 0.848460 0.000000 0.823195
O O1 0.814218 0.500000 0.500000
O O2 0.880214 0.621963 0.500000
O O3 0.811395 0.664922 0.614413
O O4 0.167512 0.741284 0.805905
O O5 0.083058 0.752739 0.801663
O O6 0.131544 0.899296 0.877234
O O7 0.124234 0.736941 0.000000
O O8 0.278834 0.094262 0.812149
O O9 0.203311 0.000000 0.833251
O O10 0.256144 0.000000 0.000000
O O11 0.945547 0.500000 0.500000
O O12 0.946189 0.691120 0.606613
O O13 0.250000 0.750000 0.275929
O O14 0.595488 0.500000 0.500000
O O15 0.563312 0.606785 0.660256
O O16 0.632999 0.500000 0.697549
O O17 0.500000 0.282405 0.261596
#
# Coordination Sequence:
#
# PCOD9492540 Si02
#       8
#     8  16   8   8  16   8  16   8
#     4  11  23  44  62  85 126 160 196 256 313 363
#     4  11  23  41  63  90 125 161 203 252 303 359
#     4  12  24  39  60  89 121 163 214 251 293 356
#     4  11  23  40  66  90 119 159 205 251 310 372
#     4  12  24  40  63  91 120 163 206 250 302 365
#     4  10  21  38  61  94 130 161 199 252 313 372
#     4  11  23  40  65  93 123 160 204 252 311 374
#     4  10  22  39  59  91 126 164 201 247 304 357
#
# _framework density 18.133500000000002
#
# number of rings (size 3 to 8) (size 9 to 14) (size 15 to 20)
#    0.000    0.909    5.455    2.182    0.000    2.182 
#    1.636    0.000    0.000    3.273    0.000    1.273 
#    0.000    0.000    0.000    0.000    0.000    0.000 
#
# Total GULP energy -245520.152721 kJ/mol
# GULP energy per Si atom -5580.003471 kJ/mol
# Density = 1.809223 g / cm^3
# Si number density = 18.133500 Si / 1000 Ang^3
#
#
#
# Elastic Constant Matrix: (Units=GPa)
#
#
# Indices 1 2 3 4 5 6 
#
# 1 125.7438 33.1771 79.7772 0.0000 0.0000 0.0000
# 2 33.1771 90.1426 33.7855 0.0000 0.0000 0.0000
# 3 79.7772 33.7855 145.6487 0.0000 0.0000 0.0000
# 4 0.0000 0.0000 0.0000 -10.7323 0.0000 0.0000
# 5 0.0000 0.0000 0.0000 0.0000 -0.2749 0.0000
# 6 0.0000 0.0000 0.0000 0.0000 0.0000 16.7086
#
#
#
# Elastic Compliance Matrix: (Units=1/GPa)
#
#
# Indices 1 2 3 4 5 6 
#
# 1 0.012589 -0.002244 -0.006375 0.000000 0.000000 0.000000
# 2 -0.002244 0.012550 -0.001682 0.000000 0.000000 0.000000
# 3 -0.006375 -0.001682 0.010748 0.000000 0.000000 0.000000
# 4 0.000000 0.000000 0.000000 -0.093176 0.000000 0.000000
# 5 0.000000 0.000000 0.000000 0.000000 -3.637646 0.000000
# 6 0.000000 0.000000 0.000000 0.000000 0.000000 0.059849
#
#
# Mechanical properties :
#
#
# Convention : Reuss Voigt Hill
#
# Bulk Modulus (GPa) = 65.42464 72.77942 69.10203
# Shear Modulus (GPa) = -1.38528 15.45996 7.03734
#
# Velocity S-wave (km/s) = -0.87498 2.92304 1.97212
# Velocity P-wave (km/s) = 5.92764 7.18433 6.58603
#
# Compressibility (1/GPa) = 0.01528476
#
# Stress axis : x y z
#
# Youngs Moduli (GPa) = 79.43157 79.68194 93.04151
#
# Poissons Ratio (x) = 0.17882 0.59315
# Poissons Ratio (y) = 0.17826 0.15649
# Poissons Ratio (z) = 0.50639 0.13402
#
# Static dielectric constant tensor:
#      x y z
#    x 1.607080 0.000000 0.000000 
#    y 0.000000 1.602860 0.000000 
#    z 0.000000 0.000000 1.680860 
# 
# From -- ./inp_files/33698.got.cif
#   From: 2010.05.17/outbox.cif.g08.bks.cpg/sg65_17_cif.got.tgz:33698.got - 2010.06.03 17:01:31.
