data_PCOD9492010
_publ_section_title
;
Structure prediction by ZEFSAII (Michael W. Deem and Ramdas Pophale) SiO2 
 PCOD9492010
Probable space group: C M M M
;
_chemical_formula_sum "Si O2"
_cell_formula_units_Z 104
_cell_length_a 29.128750
_cell_length_b 8.827211
_cell_length_c 23.339453
_cell_angle_alpha 90.000000
_cell_angle_beta 90.000000
_cell_angle_gamma 90.000000
_cell_volume 6001.171379
_symmetry_space_group_name_H-M "C M M M"
_symmetry_group_IT_number 65
_symmetry_cell_setting 'orthorhombic'
loop_
_space_group_symop_operation_xyz
x,y,z
-x,-y,z
x,-y,-z
-x,y,-z
-x,-y,-z
x,y,-z
-x,y,z
x,-y,z
1/2+x,1/2+y,z
1/2-x,1/2-y,z
1/2+x,1/2-y,-z
1/2-x,1/2+y,-z
1/2-x,1/2-y,-z
1/2+x,1/2+y,-z
1/2-x,1/2+y,z
1/2+x,1/2-y,z
loop_
_atom_site_type_symbol
_atom_site_label
_atom_site_fract_x
_atom_site_fract_y
_atom_site_fract_z
Si Si1 0.700391 0.181021 0.566803
Si Si2 0.144724 0.818468 0.892991
Si Si3 0.552397 0.181792 0.281763
Si Si4 0.699403 0.682144 0.222541
Si Si5 0.641433 0.681333 0.334133
Si Si6 0.447517 0.817855 0.853256
Si Si7 0.698923 0.818808 0.000000
O O1 0.691834 0.218824 0.500000
O O2 0.750000 0.250000 0.582519
O O3 0.662293 0.247486 0.608724
O O4 0.702432 0.000000 0.572249
O O5 0.169821 0.775976 0.833324
O O6 0.092277 0.763579 0.888299
O O7 0.171622 0.739912 0.944524
O O8 0.146692 0.000000 0.899386
O O9 0.500000 0.221190 0.297233
O O10 0.590517 0.263207 0.319245
O O11 0.558546 0.219707 0.214316
O O12 0.557331 0.000000 0.286705
O O13 0.702739 0.500000 0.223397
O O14 0.750000 0.750000 0.219577
O O15 0.673236 0.730144 0.280273
O O16 0.642711 0.500000 0.337748
O O17 0.500000 0.777667 0.869044
O O18 0.443037 0.000000 0.858684
O O19 0.750000 0.750000 0.000000
O O20 0.701596 0.000000 0.000000
#
# Coordination Sequence:
#
# PCOD9492010 Si02
#       7
#    16  16  16  16  16  16   8
#     4  10  21  37  56  79 109 148 191 232 276 328
#     4  11  22  39  59  83 113 147 187 229 278 332
#     4   9  18  33  54  81 113 149 187 225 273 332
#     4  10  22  35  50  77 110 142 177 221 272 326
#     4  11  21  34  53  82 114 146 185 227 278 331
#     4   9  18  34  57  85 115 148 185 226 276 332
#     4  12  26  44  63  84 109 146 192 233 277 331
#
# _framework density 17.32995
#
# number of rings (size 3 to 8) (size 9 to 14) (size 15 to 20)
#    0.000    1.846    1.538    3.923    0.000    6.462 
#    0.000    1.923    0.000    2.769    0.000    3.231 
#    0.000    0.000    0.000    0.000    0.000    0.000 
#
# Total GULP energy -290448.676584 kJ/mol
# GULP energy per Si atom -5585.551473 kJ/mol
# Density = 1.729051 g / cm^3
# Si number density = 17.329950 Si / 1000 Ang^3
#
#
#
# Elastic Constant Matrix: (Units=GPa)
#
#
# Indices 1 2 3 4 5 6 
#
# 1 157.3646 57.6187 70.0235 0.0000 0.0000 0.0000
# 2 57.6187 55.6930 45.9386 0.0000 0.0000 0.0000
# 3 70.0235 45.9386 85.7436 0.0000 0.0000 0.0000
# 4 0.0000 0.0000 0.0000 17.4176 0.0000 0.0000
# 5 0.0000 0.0000 0.0000 0.0000 31.9166 0.0000
# 6 0.0000 0.0000 0.0000 0.0000 0.0000 37.1776
#
#
#
# Elastic Compliance Matrix: (Units=1/GPa)
#
#
# Indices 1 2 3 4 5 6 
#
# 1 0.011471 -0.007419 -0.005393 0.000000 0.000000 0.000000
# 2 -0.007419 0.036973 -0.013750 0.000000 0.000000 0.000000
# 3 -0.005393 -0.013750 0.023434 0.000000 0.000000 0.000000
# 4 0.000000 0.000000 0.000000 0.057413 0.000000 0.000000
# 5 0.000000 0.000000 0.000000 0.000000 0.031332 0.000000
# 6 0.000000 0.000000 0.000000 0.000000 0.000000 0.026898
#
#
# Mechanical properties :
#
#
# Convention : Reuss Voigt Hill
#
# Bulk Modulus (GPa) = 53.32346 71.77364 62.54855
# Shear Modulus (GPa) = 20.25146 25.65036 22.95091
#
# Velocity S-wave (km/s) = 3.42216 3.85140 3.64311
# Velocity P-wave (km/s) = 6.81552 7.82838 7.33944
#
# Compressibility (1/GPa) = 0.01875347
#
# Stress axis : x y z
#
# Youngs Moduli (GPa) = 87.17716 27.04670 42.67376
#
# Poissons Ratio (x) = 0.20067 0.23013
# Poissons Ratio (y) = 0.64679 0.58676
# Poissons Ratio (z) = 0.47013 0.37189
#
# Static dielectric constant tensor:
#      x y z
#    x 1.569430 0.000000 0.000000 
#    y 0.000000 1.579520 0.000000 
#    z 0.000000 0.000000 1.574460 
# 
# From -- ./inp_files/60410.got.cif
#   From: 2010.05.17/outbox.cif.g08.bks.cpg/sg65_31_cif.got.tgz:60410.got - 2010.06.03 17:01:31.
