data_PCOD9492736
_publ_section_title
;
Structure prediction by ZEFSAII (Michael W. Deem and Ramdas Pophale) SiO2 
 PCOD9492736
Probable space group: C M M M
;
_chemical_formula_sum "Si O2"
_cell_formula_units_Z 56
_cell_length_a 10.957894
_cell_length_b 27.056202
_cell_length_c 10.404130
_cell_angle_alpha 90.000000
_cell_angle_beta 90.000000
_cell_angle_gamma 90.000000
_cell_volume 3084.605991
_symmetry_space_group_name_H-M "C M M M"
_symmetry_group_IT_number 65
_symmetry_cell_setting 'orthorhombic'
loop_
_space_group_symop_operation_xyz
x,y,z
-x,-y,z
x,-y,-z
-x,y,-z
-x,-y,-z
x,y,-z
-x,y,z
x,-y,z
1/2+x,1/2+y,z
1/2-x,1/2-y,z
1/2+x,1/2-y,-z
1/2-x,1/2+y,-z
1/2-x,1/2-y,-z
1/2+x,1/2+y,-z
1/2-x,1/2+y,z
1/2+x,1/2-y,z
loop_
_atom_site_type_symbol
_atom_site_label
_atom_site_fract_x
_atom_site_fract_y
_atom_site_fract_z
Si Si1 0.853453 0.558533 0.500000
Si Si2 0.738551 0.604240 0.753889
Si Si3 0.354387 0.291895 0.153600
Si Si4 0.856402 0.556388 0.000000
Si Si5 0.000000 0.057770 0.145619
O O1 0.817832 0.500000 0.500000
O O2 0.803358 0.587023 0.624592
O O3 0.000000 0.559799 0.500000
O O4 0.695332 0.660707 0.769051
O O5 0.616039 0.573783 0.775365
O O6 0.818748 0.587039 0.875206
O O7 0.500000 0.281162 0.183620
O O8 0.250000 0.250000 0.174293
O O9 0.352490 0.302889 0.000000
O O10 0.802395 0.500000 0.000000
O O11 0.000000 0.551017 0.000000
O O12 0.000000 0.000000 0.130741
O O13 0.000000 0.080186 0.000000
#
# Coordination Sequence:
#
# PCOD9492736 Si02
#       5
#     8  16  16   8   8
#     4  11  26  45  62  89 134 178 218 265 319 388
#     4  12  22  40  63  90 128 170 213 265 325 384
#     4  10  21  40  65  97 132 166 212 275 332 389
#     4  11  22  35  58  91 124 164 216 265 319 394
#     4  11  20  33  61  95 127 159 205 263 324 387
#
# _framework density 18.154668000000001
#
# number of rings (size 3 to 8) (size 9 to 14) (size 15 to 20)
#    0.000    1.000    4.286    3.429    0.000    5.143 
#    0.000    2.143    0.000    0.000    0.000    0.000 
#    0.000    0.000    0.000    0.000    0.000    0.000 
#
# Total GULP energy -156159.558830 kJ/mol
# GULP energy per Si atom -5577.127101 kJ/mol
# Density = 1.811335 g / cm^3
# Si number density = 18.154668 Si / 1000 Ang^3
#
#
#
# Elastic Constant Matrix: (Units=GPa)
#
#
# Indices 1 2 3 4 5 6 
#
# 1 144.0605 69.6764 62.7206 0.0000 0.0000 0.0000
# 2 69.6764 131.3189 51.4941 0.0000 0.0000 0.0000
# 3 62.7206 51.4941 133.5216 0.0000 0.0000 0.0000
# 4 0.0000 0.0000 0.0000 32.5238 0.0000 0.0000
# 5 0.0000 0.0000 0.0000 0.0000 33.9148 0.0000
# 6 0.0000 0.0000 0.0000 0.0000 0.0000 43.1832
#
#
#
# Elastic Compliance Matrix: (Units=1/GPa)
#
#
# Indices 1 2 3 4 5 6 
#
# 1 0.010413 -0.004250 -0.003252 0.000000 0.000000 0.000000
# 2 -0.004250 0.010706 -0.002133 0.000000 0.000000 0.000000
# 3 -0.003252 -0.002133 0.009840 0.000000 0.000000 0.000000
# 4 0.000000 0.000000 0.000000 0.030747 0.000000 0.000000
# 5 0.000000 0.000000 0.000000 0.000000 0.029486 0.000000
# 6 0.000000 0.000000 0.000000 0.000000 0.000000 0.023157
#
#
# Mechanical properties :
#
#
# Convention : Reuss Voigt Hill
#
# Bulk Modulus (GPa) = 85.54890 86.29815 85.92353
# Shear Modulus (GPa) = 36.35982 36.92502 36.64242
#
# Velocity S-wave (km/s) = 4.48010 4.51479 4.49748
# Velocity P-wave (km/s) = 8.60153 8.64962 8.62561
#
# Compressibility (1/GPa) = 0.01168922
#
# Stress axis : x y z
#
# Youngs Moduli (GPa) = 96.03424 93.40421 101.62847
#
# Poissons Ratio (x) = 0.39693 0.33055
# Poissons Ratio (y) = 0.40811 0.21675
# Poissons Ratio (z) = 0.31235 0.19921
#
# Static dielectric constant tensor:
#      x y z
#    x 1.583250 0.000000 0.000000 
#    y 0.000000 1.644720 0.000000 
#    z 0.000000 0.000000 1.589980 
# 
# From -- ./inp_files/4494.got.cif
#   From: 2010.05.17/outbox.cif.g08.bks.cpg/sg65_3_cif.got.tgz:4494.got - 2010.06.03 17:01:31.
