data_PCOD9492328
_publ_section_title
;
Structure prediction by ZEFSAII (Michael W. Deem and Ramdas Pophale) SiO2 
 PCOD9492328
Probable space group: C M M M
;
_chemical_formula_sum "Si O2"
_cell_formula_units_Z 80
_cell_length_a 24.349137
_cell_length_b 8.812234
_cell_length_c 20.684281
_cell_angle_alpha 90.000000
_cell_angle_beta 90.000000
_cell_angle_gamma 90.000000
_cell_volume 4438.232233
_symmetry_space_group_name_H-M "C M M M"
_symmetry_group_IT_number 65
_symmetry_cell_setting 'orthorhombic'
loop_
_space_group_symop_operation_xyz
x,y,z
-x,-y,z
x,-y,-z
-x,y,-z
-x,-y,-z
x,y,-z
-x,y,z
x,-y,z
1/2+x,1/2+y,z
1/2-x,1/2-y,z
1/2+x,1/2-y,-z
1/2-x,1/2+y,-z
1/2-x,1/2-y,-z
1/2+x,1/2+y,-z
1/2-x,1/2+y,z
1/2+x,1/2-y,z
loop_
_atom_site_type_symbol
_atom_site_label
_atom_site_fract_x
_atom_site_fract_y
_atom_site_fract_z
Si Si1 0.000000 0.181427 0.878579
Si Si2 0.000000 0.818322 0.274181
Si Si3 0.614046 0.183107 0.073084
Si Si4 0.190597 0.181062 0.576074
Si Si5 0.189434 0.317226 0.192368
Si Si6 0.385152 0.817896 0.684186
O O1 0.945259 0.248743 0.910230
O O2 0.000000 0.220321 0.802283
O O3 0.000000 0.000000 0.885072
O O4 0.054715 0.750281 0.305456
O O5 0.000000 0.000000 0.280119
O O6 0.657700 0.231912 0.127313
O O7 0.609812 0.000000 0.076521
O O8 0.630069 0.224756 0.000000
O O9 0.181372 0.212645 0.500000
O O10 0.250000 0.250000 0.593633
O O11 0.144539 0.254437 0.620811
O O12 0.191918 0.000000 0.585105
O O13 0.193298 0.500000 0.191714
O O14 0.250000 0.250000 0.196665
O O15 0.152401 0.274004 0.254033
O O16 0.388122 0.000000 0.681932
#
# Coordination Sequence:
#
# PCOD9492328 Si02
#       6
#     8   8  16  16  16  16
#     4  11  22  36  57  85 113 143 184 239 290 338
#     4  11  23  38  59  86 116 151 188 236 293 346
#     4  10  21  38  58  79 109 150 191 233 285 345
#     4  10  21  38  61  90 124 159 195 236 281 334
#     4  10  22  37  55  81 111 146 189 234 283 338
#     4  11  22  38  61  87 116 152 193 240 287 341
#
# _framework density 18.025193999999999
#
# number of rings (size 3 to 8) (size 9 to 14) (size 15 to 20)
#    0.000    1.600    2.000    2.700    0.000    8.000 
#    0.000    0.500    0.000    3.000    0.000    0.000 
#    0.000    0.000    0.000    0.000    0.000    0.000 
#
# Total GULP energy -223555.808121 kJ/mol
# GULP energy per Si atom -5588.895203 kJ/mol
# Density = 1.798417 g / cm^3
# Si number density = 18.025194 Si / 1000 Ang^3
#
#
#
# Elastic Constant Matrix: (Units=GPa)
#
#
# Indices 1 2 3 4 5 6 
#
# 1 167.1684 45.4901 78.3969 0.0000 0.0000 0.0000
# 2 45.4901 37.8193 47.7115 0.0000 0.0000 0.0000
# 3 78.3969 47.7115 105.8539 0.0000 0.0000 0.0000
# 4 0.0000 0.0000 0.0000 24.7896 0.0000 0.0000
# 5 0.0000 0.0000 0.0000 0.0000 11.6259 0.0000
# 6 0.0000 0.0000 0.0000 0.0000 0.0000 35.9132
#
#
#
# Elastic Compliance Matrix: (Units=1/GPa)
#
#
# Indices 1 2 3 4 5 6 
#
# 1 0.009729 -0.006055 -0.004476 0.000000 0.000000 0.000000
# 2 -0.006055 0.065065 -0.024842 0.000000 0.000000 0.000000
# 3 -0.004476 -0.024842 0.023959 0.000000 0.000000 0.000000
# 4 0.000000 0.000000 0.000000 0.040339 0.000000 0.000000
# 5 0.000000 0.000000 0.000000 0.000000 0.086015 0.000000
# 6 0.000000 0.000000 0.000000 0.000000 0.000000 0.027845
#
#
# Mechanical properties :
#
#
# Convention : Reuss Voigt Hill
#
# Bulk Modulus (GPa) = 35.70663 72.67095 54.18879
# Shear Modulus (GPa) = 15.01349 23.74863 19.38106
#
# Velocity S-wave (km/s) = 2.88916 3.63371 3.28261
# Velocity P-wave (km/s) = 5.56614 7.61636 6.67049
#
# Compressibility (1/GPa) = 0.02800601
#
# Stress axis : x y z
#
# Youngs Moduli (GPa) = 102.78636 15.36931 41.73811
#
# Poissons Ratio (x) = 0.09307 0.18682
# Poissons Ratio (y) = 0.62242 1.03685
# Poissons Ratio (z) = 0.46007 0.38180
#
# Static dielectric constant tensor:
#      x y z
#    x 1.568170 0.000000 0.000000 
#    y 0.000000 1.603690 0.000000 
#    z 0.000000 0.000000 1.618300 
# 
# From -- ./inp_files/65074.got.cif
#   From: 2010.05.17/outbox.cif.g08.bks.cpg/sg65_33_cif.got.tgz:65074.got - 2010.06.03 17:01:31.
