data_PCOD9492934
_publ_section_title
;
Structure prediction by ZEFSAII (Michael W. Deem and Ramdas Pophale) SiO2 
 PCOD9492934
Probable space group: C M M M
;
_chemical_formula_sum "Si O2"
_cell_formula_units_Z 88
_cell_length_a 14.839294
_cell_length_b 17.518676
_cell_length_c 17.691898
_cell_angle_alpha 90.000000
_cell_angle_beta 90.000000
_cell_angle_gamma 90.000000
_cell_volume 4599.270436
_symmetry_space_group_name_H-M "C M M M"
_symmetry_group_IT_number 65
_symmetry_cell_setting 'orthorhombic'
loop_
_space_group_symop_operation_xyz
x,y,z
-x,-y,z
x,-y,-z
-x,y,-z
-x,-y,-z
x,y,-z
-x,y,z
x,-y,z
1/2+x,1/2+y,z
1/2-x,1/2-y,z
1/2+x,1/2-y,-z
1/2-x,1/2+y,-z
1/2-x,1/2-y,-z
1/2+x,1/2+y,-z
1/2-x,1/2+y,z
1/2+x,1/2-y,z
loop_
_atom_site_type_symbol
_atom_site_label
_atom_site_fract_x
_atom_site_fract_y
_atom_site_fract_z
Si Si1 0.900791 0.166895 0.284261
Si Si2 0.260455 0.411144 0.367085
Si Si3 0.294089 0.408695 0.000000
Si Si4 0.902023 0.662768 0.000000
Si Si5 0.651828 0.714960 0.877654
Si Si6 0.900164 0.090799 0.500000
Si Si7 0.603878 0.203058 0.412550
O O1 0.813547 0.112911 0.291852
O O2 0.897802 0.199922 0.200332
O O3 0.889746 0.233124 0.347308
O O4 0.000000 0.130736 0.297952
O O5 0.238148 0.500000 0.368565
O O6 0.338527 0.394481 0.428312
O O7 0.174879 0.361268 0.389076
O O8 0.186298 0.390705 0.000000
O O9 0.334400 0.361822 0.928002
O O10 0.310573 0.500000 0.000000
O O11 0.894014 0.720486 0.929175
O O12 0.000000 0.624543 0.000000
O O13 0.750000 0.750000 0.860418
O O14 0.000000 0.126846 0.500000
O O15 0.912497 0.000000 0.500000
O O16 0.623798 0.227804 0.500000
O O17 0.500000 0.176398 0.412343
#
# Coordination Sequence:
#
# PCOD9492934 Si02
#       7
#    16  16   8   8  16   8  16
#     4  11  23  37  58  84 112 147 188 236 283 331
#     4  11  22  36  55  79 108 146 184 227 283 336
#     4   9  19  34  56  86 117 147 180 220 273 327
#     4   9  17  32  58  84 111 145 184 226 268 326
#     4   9  18  35  56  80 110 150 190 224 268 326
#     4   9  18  32  48  69 101 139 177 214 262 324
#     4  10  22  39  58  82 109 141 187 238 287 336
#
# _framework density 19.133469999999999
#
# number of rings (size 3 to 8) (size 9 to 14) (size 15 to 20)
#    0.000    2.091    0.909    3.818    1.273    3.091 
#    0.000    0.909    0.000    9.273    0.000    5.091 
#    0.000    0.000    0.000    0.000    0.000    0.000 
#
# Total GULP energy -245389.202975 kJ/mol
# GULP energy per Si atom -5577.027340 kJ/mol
# Density = 1.908992 g / cm^3
# Si number density = 19.133470 Si / 1000 Ang^3
#
#
#
# Elastic Constant Matrix: (Units=GPa)
#
#
# Indices 1 2 3 4 5 6 
#
# 1 103.1008 42.2425 25.0522 0.0000 0.0000 0.0000
# 2 42.2425 94.0264 30.4223 0.0000 0.0000 0.0000
# 3 25.0522 30.4223 99.5322 0.0000 0.0000 0.0000
# 4 0.0000 0.0000 0.0000 11.9168 0.0000 0.0000
# 5 0.0000 0.0000 0.0000 0.0000 21.1857 0.0000
# 6 0.0000 0.0000 0.0000 0.0000 0.0000 21.1650
#
#
#
# Elastic Compliance Matrix: (Units=1/GPa)
#
#
# Indices 1 2 3 4 5 6 
#
# 1 0.012095 -0.004937 -0.001535 0.000000 0.000000 0.000000
# 2 -0.004937 0.013818 -0.002981 0.000000 0.000000 0.000000
# 3 -0.001535 -0.002981 0.011345 0.000000 0.000000 0.000000
# 4 0.000000 0.000000 0.000000 0.083915 0.000000 0.000000
# 5 0.000000 0.000000 0.000000 0.000000 0.047202 0.000000
# 6 0.000000 0.000000 0.000000 0.000000 0.000000 0.047248
#
#
# Mechanical properties :
#
#
# Convention : Reuss Voigt Hill
#
# Bulk Modulus (GPa) = 54.49280 54.67706 54.58493
# Shear Modulus (GPa) = 20.77743 24.11632 22.44688
#
# Velocity S-wave (km/s) = 3.29891 3.55410 3.42888
# Velocity P-wave (km/s) = 6.56144 6.74395 6.65332
#
# Compressibility (1/GPa) = 0.01835105
#
# Stress axis : x y z
#
# Youngs Moduli (GPa) = 82.67770 72.37031 88.14836
#
# Poissons Ratio (x) = 0.35730 0.13533
# Poissons Ratio (y) = 0.40819 0.26275
# Poissons Ratio (z) = 0.12693 0.21572
#
# Static dielectric constant tensor:
#      x y z
#    x 1.682900 0.000000 0.000000 
#    y 0.000000 1.657030 0.000000 
#    z 0.000000 0.000000 1.953340 
# 
# From -- ./inp_files/53093.got.cif
#   From: 2010.05.17/outbox.cif.g08.bks.cpg/sg65_27_cif.got.tgz:53093.got - 2010.06.03 17:01:31.
