data_PCOD9492519
_publ_section_title
;
Structure prediction by ZEFSAII (Michael W. Deem and Ramdas Pophale) SiO2 
 PCOD9492519
Probable space group: C M M M
;
_chemical_formula_sum "Si O2"
_cell_formula_units_Z 104
_cell_length_a 22.309375
_cell_length_b 8.590765
_cell_length_c 26.932782
_cell_angle_alpha 90.000000
_cell_angle_beta 90.000000
_cell_angle_gamma 90.000000
_cell_volume 5161.791505
_symmetry_space_group_name_H-M "C M M M"
_symmetry_group_IT_number 65
_symmetry_cell_setting 'orthorhombic'
loop_
_space_group_symop_operation_xyz
x,y,z
-x,-y,z
x,-y,-z
-x,y,-z
-x,-y,-z
x,y,-z
-x,y,z
x,-y,z
1/2+x,1/2+y,z
1/2-x,1/2-y,z
1/2+x,1/2-y,-z
1/2-x,1/2+y,-z
1/2-x,1/2-y,-z
1/2+x,1/2+y,-z
1/2-x,1/2+y,z
1/2+x,1/2-y,z
loop_
_atom_site_type_symbol
_atom_site_label
_atom_site_fract_x
_atom_site_fract_y
_atom_site_fract_z
Si Si1 0.371154 0.312108 0.287328
Si Si2 0.185556 0.813957 0.388332
Si Si3 0.500000 0.310077 0.847273
Si Si4 0.123149 0.185530 0.099288
Si Si5 0.318163 0.815221 0.000000
Si Si6 0.933316 0.314810 0.559562
Si Si7 0.000000 0.188246 0.268779
Si Si8 0.812879 0.316123 0.807790
O O1 0.366699 0.500000 0.281706
O O2 0.327400 0.263044 0.331381
O O3 0.439970 0.268732 0.297707
O O4 0.357976 0.232944 0.235139
O O5 0.250000 0.750000 0.405516
O O6 0.125992 0.761628 0.417553
O O7 0.188334 0.000000 0.389465
O O8 0.500000 0.500000 0.845903
O O9 0.559238 0.261689 0.877727
O O10 0.500000 0.258314 0.789356
O O11 0.170540 0.230805 0.141476
O O12 0.120618 0.000000 0.092971
O O13 0.145136 0.259857 0.048267
O O14 0.250000 0.750000 0.000000
O O15 0.313634 0.000000 0.000000
O O16 0.931079 0.294341 0.500000
O O17 0.930783 0.500000 0.569586
O O18 0.000000 0.257880 0.575901
O O19 0.000000 0.000000 0.265429
O O20 0.811512 0.500000 0.815159
O O21 0.750000 0.250000 0.789875
#
# Coordination Sequence:
#
# PCOD9492519 Si02
#       8
#    16  16   8  16   8  16   8  16
#     4  10  21  38  61  88 122 162 203 249 302 363
#     4  11  24  39  61  92 129 170 214 266 319 374
#     4   9  18  35  65  92 117 152 191 232 284 348
#     4  11  22  41  65  90 118 154 195 237 288 353
#     4  12  26  45  64  89 119 152 192 242 295 346
#     4   9  20  41  67  93 125 166 210 261 323 386
#     4   9  16  34  61  89 119 158 200 244 295 357
#     4  12  24  38  58  85 117 156 200 247 298 355
#
# _framework density 20.148042
#
# number of rings (size 3 to 8) (size 9 to 14) (size 15 to 20)
#    0.000    1.538    1.538    4.385    1.077    3.692 
#    0.000    5.000    0.000    0.000    0.000    0.000 
#    0.000    0.000    0.000    0.000    0.000    0.000 
#
# Total GULP energy -290369.348892 kJ/mol
# GULP energy per Si atom -5584.025940 kJ/mol
# Density = 2.010218 g / cm^3
# Si number density = 20.148042 Si / 1000 Ang^3
#
#
#
# Elastic Constant Matrix: (Units=GPa)
#
#
# Indices 1 2 3 4 5 6 
#
# 1 136.1787 26.9745 26.0540 0.0000 0.0000 0.0000
# 2 26.9745 53.2986 19.1382 0.0000 0.0000 0.0000
# 3 26.0540 19.1382 53.7440 0.0000 0.0000 0.0000
# 4 0.0000 0.0000 0.0000 15.6209 0.0000 0.0000
# 5 0.0000 0.0000 0.0000 0.0000 30.0130 0.0000
# 6 0.0000 0.0000 0.0000 0.0000 0.0000 27.4952
#
#
#
# Elastic Compliance Matrix: (Units=1/GPa)
#
#
# Indices 1 2 3 4 5 6 
#
# 1 0.008561 -0.003259 -0.002990 0.000000 0.000000 0.000000
# 2 -0.003259 0.022754 -0.006523 0.000000 0.000000 0.000000
# 3 -0.002990 -0.006523 0.022379 0.000000 0.000000 0.000000
# 4 0.000000 0.000000 0.000000 0.064017 0.000000 0.000000
# 5 0.000000 0.000000 0.000000 0.000000 0.033319 0.000000
# 6 0.000000 0.000000 0.000000 0.000000 0.000000 0.036370
#
#
# Mechanical properties :
#
#
# Convention : Reuss Voigt Hill
#
# Bulk Modulus (GPa) = 35.52315 43.06163 39.29239
# Shear Modulus (GPa) = 22.48957 26.02946 24.25952
#
# Velocity S-wave (km/s) = 3.34461 3.59821 3.47373
# Velocity P-wave (km/s) = 5.70829 6.21948 5.96936
#
# Compressibility (1/GPa) = 0.02815065
#
# Stress axis : x y z
#
# Youngs Moduli (GPa) = 116.81094 43.94872 44.68537
#
# Poissons Ratio (x) = 0.14324 0.13359
# Poissons Ratio (y) = 0.38071 0.29147
# Poissons Ratio (z) = 0.34921 0.28666
#
# Static dielectric constant tensor:
#      x y z
#    x 1.749940 0.000000 0.000000 
#    y 0.000000 1.682570 0.000000 
#    z 0.000000 0.000000 1.682070 
# 
# From -- ./inp_files/75567.got.cif
#   From: 2010.05.17/outbox.cif.g08.bks.cpg/sg65_38_cif.got.tgz:75567.got - 2010.06.03 17:01:31.
