data_PCOD9492688
_publ_section_title
;
Structure prediction by ZEFSAII (Michael W. Deem and Ramdas Pophale) SiO2 
 PCOD9492688
Probable space group: C M M M
;
_chemical_formula_sum "Si O2"
_cell_formula_units_Z 68
_cell_length_a 7.962406
_cell_length_b 19.888943
_cell_length_c 20.090191
_cell_angle_alpha 90.000000
_cell_angle_beta 90.000000
_cell_angle_gamma 90.000000
_cell_volume 3181.559775
_symmetry_space_group_name_H-M "C M M M"
_symmetry_group_IT_number 65
_symmetry_cell_setting 'orthorhombic'
loop_
_space_group_symop_operation_xyz
x,y,z
-x,-y,z
x,-y,-z
-x,y,-z
-x,-y,-z
x,y,-z
-x,y,z
x,-y,z
1/2+x,1/2+y,z
1/2-x,1/2-y,z
1/2+x,1/2-y,-z
1/2-x,1/2+y,-z
1/2-x,1/2-y,-z
1/2+x,1/2+y,-z
1/2-x,1/2+y,z
1/2+x,1/2-y,z
loop_
_atom_site_type_symbol
_atom_site_label
_atom_site_fract_x
_atom_site_fract_y
_atom_site_fract_z
Si Si1 0.307177 0.680198 0.802940
Si Si2 0.000000 0.000000 0.095572
Si Si3 0.689738 0.106104 0.077005
Si Si4 0.701099 0.325983 0.423483
Si Si5 0.198214 0.576977 0.306583
O O1 0.500000 0.686369 0.820328
O O2 0.250000 0.750000 0.770436
O O3 0.204080 0.665116 0.869345
O O4 0.283513 0.618614 0.752342
O O5 0.151773 0.942471 0.091962
O O6 0.500000 0.076821 0.084434
O O7 0.705263 0.126654 0.000000
O O8 0.758132 0.335505 0.500000
O O9 0.500000 0.330777 0.421670
O O10 0.750000 0.250000 0.403690
O O11 0.772593 0.381708 0.374171
O O12 0.258898 0.500000 0.310637
O O13 0.000000 0.575766 0.292527
#
# Coordination Sequence:
#
# PCOD9492688 Si02
#       5
#    16   4  16  16  16
#     4  12  26  45  68  94 129 172 219 273 334 398
#     4  12  23  42  68 102 138 176 217 268 341 400
#     4  11  24  42  67 100 136 174 222 276 330 397
#     4  10  21  39  65  95 128 168 213 261 316 382
#     4  11  25  43  64  93 129 169 214 266 325 388
#
# _framework density 21.373165
#
# number of rings (size 3 to 8) (size 9 to 14) (size 15 to 20)
#    0.000    0.941    1.176    5.647    1.647    5.176 
#    0.000    2.353    0.000    0.000    0.000    0.000 
#    0.000    0.000    0.000    0.000    0.000    0.000 
#
# Total GULP energy -189535.642469 kJ/mol
# GULP energy per Si atom -5574.577720 kJ/mol
# Density = 2.132452 g / cm^3
# Si number density = 21.373165 Si / 1000 Ang^3
#
#
#
# Elastic Constant Matrix: (Units=GPa)
#
#
# Indices 1 2 3 4 5 6 
#
# 1 129.8400 26.0827 22.2650 0.0000 0.0000 0.0000
# 2 26.0827 144.2061 58.7568 0.0000 0.0000 0.0000
# 3 22.2650 58.7568 79.2031 0.0000 0.0000 0.0000
# 4 0.0000 0.0000 0.0000 -38.2766 0.0000 0.0000
# 5 0.0000 0.0000 0.0000 0.0000 28.2980 0.0000
# 6 0.0000 0.0000 0.0000 0.0000 0.0000 28.9312
#
#
#
# Elastic Compliance Matrix: (Units=1/GPa)
#
#
# Indices 1 2 3 4 5 6 
#
# 1 0.008152 -0.000775 -0.001717 0.000000 0.000000 0.000000
# 2 -0.000775 0.010012 -0.007210 0.000000 0.000000 0.000000
# 3 -0.001717 -0.007210 0.018457 0.000000 0.000000 0.000000
# 4 0.000000 0.000000 0.000000 -0.026126 0.000000 0.000000
# 5 0.000000 0.000000 0.000000 0.000000 0.035338 0.000000
# 6 0.000000 0.000000 0.000000 0.000000 0.000000 0.034565
#
#
# Mechanical properties :
#
#
# Convention : Reuss Voigt Hill
#
# Bulk Modulus (GPa) = 58.07798 63.05090 60.56444
# Shear Modulus (GPa) = 47.37515 20.20018 33.78767
#
# Velocity S-wave (km/s) = 4.71316 3.07761 3.98030
# Velocity P-wave (km/s) = 7.53994 6.49562 7.03718
#
# Compressibility (1/GPa) = 0.01721823
#
# Stress axis : x y z
#
# Youngs Moduli (GPa) = 122.67168 99.87706 54.18020
#
# Poissons Ratio (x) = 0.07740 0.09301
# Poissons Ratio (y) = 0.09507 0.39063
# Poissons Ratio (z) = 0.21059 0.72009
#
# Static dielectric constant tensor:
#      x y z
#    x 1.767350 0.000000 0.000000 
#    y 0.000000 1.792900 0.000000 
#    z 0.000000 0.000000 1.769340 
# 
# From -- ./inp_files/49214.got.cif
#   From: 2010.05.17/outbox.cif.g08.bks.cpg/sg65_25_cif.got.tgz:49214.got - 2010.06.03 17:01:31.
