data_PCOD9492223
_publ_section_title
;
Structure prediction by ZEFSAII (Michael W. Deem and Ramdas Pophale) SiO2 
 PCOD9492223
Probable space group: C M M M
;
_chemical_formula_sum "Si O2"
_cell_formula_units_Z 80
_cell_length_a 10.081696
_cell_length_b 27.000130
_cell_length_c 17.450198
_cell_angle_alpha 90.000000
_cell_angle_beta 90.000000
_cell_angle_gamma 90.000000
_cell_volume 4750.067838
_symmetry_space_group_name_H-M "C M M M"
_symmetry_group_IT_number 65
_symmetry_cell_setting 'orthorhombic'
loop_
_space_group_symop_operation_xyz
x,y,z
-x,-y,z
x,-y,-z
-x,y,-z
-x,-y,-z
x,y,-z
-x,y,z
x,-y,z
1/2+x,1/2+y,z
1/2-x,1/2-y,z
1/2+x,1/2-y,-z
1/2-x,1/2+y,-z
1/2-x,1/2-y,-z
1/2+x,1/2+y,-z
1/2-x,1/2+y,z
1/2+x,1/2-y,z
loop_
_atom_site_type_symbol
_atom_site_label
_atom_site_fract_x
_atom_site_fract_y
_atom_site_fract_z
Si Si1 0.500000 0.443572 0.909022
Si Si2 0.500000 0.940062 0.907801
Si Si3 0.659524 0.444090 0.662432
Si Si4 0.340046 0.343505 0.416283
Si Si5 0.243980 0.099293 0.179101
Si Si6 0.337781 0.702465 0.253191
O O1 0.500000 0.500000 0.880403
O O2 0.626823 0.416784 0.876421
O O3 0.500000 0.444101 0.000000
O O4 0.375561 0.914662 0.866276
O O5 0.500000 0.000000 0.895926
O O6 0.500000 0.932292 0.000000
O O7 0.500000 0.439654 0.676356
O O8 0.685950 0.500000 0.636445
O O9 0.695956 0.400390 0.603866
O O10 0.730619 0.432316 0.742542
O O11 0.287828 0.328718 0.500000
O O12 0.500000 0.342206 0.419846
O O13 0.306337 0.310838 0.342320
O O14 0.214953 0.155528 0.204874
O O15 0.500000 0.707350 0.245476
O O16 0.250000 0.750000 0.232103
#
# Coordination Sequence:
#
# PCOD9492223 Si02
#       6
#     8   8  16  16  16  16
#     4  11  20  32  57  85 108 139 173 209 263 327
#     4  11  24  38  55  85 120 147 173 213 269 327
#     4   9  15  25  46  74 104 143 184 218 259 317
#     4   8  15  28  45  73 111 141 173 220 269 318
#     4  11  20  36  54  79 112 144 180 226 267 319
#     4  10  21  37  59  83 105 141 189 233 277 320
#
# _framework density 16.841864000000001
#
# number of rings (size 3 to 8) (size 9 to 14) (size 15 to 20)
#    0.000    2.200    2.000    3.600    1.400    2.400 
#    0.000    2.000    0.000    3.600    0.000    0.000 
#    0.000    7.600    0.000    0.000    0.000    0.000 
#
# Total GULP energy -222845.021618 kJ/mol
# GULP energy per Si atom -5571.125540 kJ/mol
# Density = 1.680353 g / cm^3
# Si number density = 16.841864 Si / 1000 Ang^3
#
#
#
# Elastic Constant Matrix: (Units=GPa)
#
#
# Indices 1 2 3 4 5 6 
#
# 1 106.5673 49.2471 45.3441 0.0000 0.0000 0.0000
# 2 49.2471 118.2905 38.6822 0.0000 0.0000 0.0000
# 3 45.3441 38.6822 84.6478 0.0000 0.0000 0.0000
# 4 0.0000 0.0000 0.0000 7.1385 0.0000 0.0000
# 5 0.0000 0.0000 0.0000 0.0000 21.5573 0.0000
# 6 0.0000 0.0000 0.0000 0.0000 0.0000 19.1078
#
#
#
# Elastic Compliance Matrix: (Units=1/GPa)
#
#
# Indices 1 2 3 4 5 6 
#
# 1 0.013479 -0.003822 -0.005474 0.000000 0.000000 0.000000
# 2 -0.003822 0.011022 -0.002990 0.000000 0.000000 0.000000
# 3 -0.005474 -0.002990 0.016112 0.000000 0.000000 0.000000
# 4 0.000000 0.000000 0.000000 0.140085 0.000000 0.000000
# 5 0.000000 0.000000 0.000000 0.000000 0.046388 0.000000
# 6 0.000000 0.000000 0.000000 0.000000 0.000000 0.052335
#
#
# Mechanical properties :
#
#
# Convention : Reuss Voigt Hill
#
# Bulk Modulus (GPa) = 62.33340 64.00584 63.16962
# Shear Modulus (GPa) = 16.16342 21.30953 18.73647
#
# Velocity S-wave (km/s) = 3.10129 3.56092 3.33903
# Velocity P-wave (km/s) = 7.06508 7.41575 7.24254
#
# Compressibility (1/GPa) = 0.01604276
#
# Stress axis : x y z
#
# Youngs Moduli (GPa) = 74.18977 90.72360 62.06436
#
# Poissons Ratio (x) = 0.34670 0.33974
# Poissons Ratio (y) = 0.28352 0.18557
# Poissons Ratio (z) = 0.40612 0.27126
#
# Static dielectric constant tensor:
#      x y z
#    x 1.534680 0.000000 0.000000 
#    y 0.000000 1.584810 0.000000 
#    z 0.000000 0.000000 1.576600 
# 
# From -- ./inp_files/49960.got.cif
#   From: 2010.05.17/outbox.cif.g08.bks.cpg/sg65_25_cif.got.tgz:49960.got - 2010.06.03 17:01:31.
