data_PCOD9492954
_publ_section_title
;
Structure prediction by ZEFSAII (Michael W. Deem and Ramdas Pophale) SiO2 
 PCOD9492954
Probable space group: C M M M
;
_chemical_formula_sum "Si O2"
_cell_formula_units_Z 84
_cell_length_a 23.493931
_cell_length_b 10.994653
_cell_length_c 16.611772
_cell_angle_alpha 90.000000
_cell_angle_beta 90.000000
_cell_angle_gamma 90.000000
_cell_volume 4290.947272
_symmetry_space_group_name_H-M "C M M M"
_symmetry_group_IT_number 65
_symmetry_cell_setting 'orthorhombic'
loop_
_space_group_symop_operation_xyz
x,y,z
-x,-y,z
x,-y,-z
-x,y,-z
-x,-y,-z
x,y,-z
-x,y,z
x,-y,z
1/2+x,1/2+y,z
1/2-x,1/2-y,z
1/2+x,1/2-y,-z
1/2-x,1/2+y,-z
1/2-x,1/2-y,-z
1/2+x,1/2+y,-z
1/2-x,1/2+y,z
1/2+x,1/2-y,z
loop_
_atom_site_type_symbol
_atom_site_label
_atom_site_fract_x
_atom_site_fract_y
_atom_site_fract_z
Si Si1 0.000000 0.500000 0.106525
Si Si2 0.712019 0.865125 0.792308
Si Si3 0.640372 0.772766 0.349613
Si Si4 0.393257 0.184613 0.093106
Si Si5 0.564453 0.000000 0.404216
Si Si6 0.300948 0.648145 0.500000
Si Si7 0.435289 0.356816 0.215943
O O1 0.949579 0.603466 0.102540
O O2 0.750000 0.750000 0.816523
O O3 0.690657 0.836463 0.701629
O O4 0.657279 0.864709 0.850651
O O5 0.738801 0.000000 0.795075
O O6 0.663291 0.686910 0.420650
O O7 0.604309 0.696911 0.285297
O O8 0.599614 0.880800 0.379908
O O9 0.410284 0.313473 0.130999
O O10 0.376765 0.186906 0.000000
O O11 0.500000 0.000000 0.369362
O O12 0.560068 0.000000 0.500000
O O13 0.287713 0.500000 0.500000
O O14 0.250000 0.750000 0.500000
O O15 0.500000 0.311088 0.225975
O O16 0.435827 0.500000 0.221471
#
# Coordination Sequence:
#
# PCOD9492954 Si02
#       7
#     4  16  16  16   8   8  16
#     4  12  21  38  70 104 132 157 224 295 344 404
#     4  11  25  43  65  95 133 180 226 277 334 401
#     4  11  23  43  67  94 134 170 227 268 342 398
#     4  11  23  40  67  98 128 169 220 282 343 401
#     4  11  22  39  70 107 139 167 217 287 340 404
#     4  12  28  44  70  95 127 175 229 288 340 395
#     4  10  22  39  60  91 132 171 211 262 327 407
#
# _framework density 19.576096
#
# number of rings (size 3 to 8) (size 9 to 14) (size 15 to 20)
#    0.000    1.048    3.810    2.571    1.333    6.095 
#    6.857    0.952    0.000    2.286    0.000    0.000 
#    0.000    0.000    0.000    0.000    0.000    0.000 
#
# Total GULP energy -233918.081368 kJ/mol
# GULP energy per Si atom -5569.478128 kJ/mol
# Density = 1.953154 g / cm^3
# Si number density = 19.576096 Si / 1000 Ang^3
#
#
#
# Elastic Constant Matrix: (Units=GPa)
#
#
# Indices 1 2 3 4 5 6 
#
# 1 70.8110 46.0295 23.4094 0.0000 0.0000 0.0000
# 2 46.0295 143.6921 45.7787 0.0000 0.0000 0.0000
# 3 23.4094 45.7787 97.7232 0.0000 0.0000 0.0000
# 4 0.0000 0.0000 0.0000 -87.8124 0.0000 0.0000
# 5 0.0000 0.0000 0.0000 0.0000 -16.7595 0.0000
# 6 0.0000 0.0000 0.0000 0.0000 0.0000 -20.2406
#
#
#
# Elastic Compliance Matrix: (Units=1/GPa)
#
#
# Indices 1 2 3 4 5 6 
#
# 1 0.018134 -0.005201 -0.001907 0.000000 0.000000 0.000000
# 2 -0.005201 0.009672 -0.003285 0.000000 0.000000 0.000000
# 3 -0.001907 -0.003285 0.012229 0.000000 0.000000 0.000000
# 4 0.000000 0.000000 0.000000 -0.011388 0.000000 0.000000
# 5 0.000000 0.000000 0.000000 0.000000 -0.059668 0.000000
# 6 0.000000 0.000000 0.000000 0.000000 0.000000 -0.049406
#
#
# Mechanical properties :
#
#
# Convention : Reuss Voigt Hill
#
# Bulk Modulus (GPa) = 51.95513 60.29571 56.12542
# Shear Modulus (GPa) = -93.94221 -11.82859 -52.88540
#
# Velocity S-wave (km/s) = -6.93487 -2.46079 -5.20326
# Velocity P-wave (km/s) = 6.12581 4.77426 2.71403
#
# Compressibility (1/GPa) = 0.01924738
#
# Stress axis : x y z
#
# Youngs Moduli (GPa) = 55.14628 103.39147 81.77468
#
# Poissons Ratio (x) = 0.53775 0.15597
# Poissons Ratio (y) = 0.28682 0.26862
# Poissons Ratio (z) = 0.10518 0.33963
#
# Static dielectric constant tensor:
#      x y z
#    x 1.708550 0.000000 0.000000 
#    y 0.000000 1.720080 0.000000 
#    z 0.000000 0.000000 1.678430 
# 
# From -- ./inp_files/45472.got.cif
#   From: 2010.05.17/outbox.cif.g08.bks.cpg/sg65_23_cif.got.tgz:45472.got - 2010.06.03 17:01:31.
