data_PCOD9492999
_publ_section_title
;
Structure prediction by ZEFSAII (Michael W. Deem and Ramdas Pophale) SiO2 
 PCOD9492999
Probable space group: C M M M
;
_chemical_formula_sum "Si O2"
_cell_formula_units_Z 88
_cell_length_a 24.131164
_cell_length_b 8.606403
_cell_length_c 23.894236
_cell_angle_alpha 90.000000
_cell_angle_beta 90.000000
_cell_angle_gamma 90.000000
_cell_volume 4962.415200
_symmetry_space_group_name_H-M "C M M M"
_symmetry_group_IT_number 65
_symmetry_cell_setting 'orthorhombic'
loop_
_space_group_symop_operation_xyz
x,y,z
-x,-y,z
x,-y,-z
-x,y,-z
-x,-y,-z
x,y,-z
-x,y,z
x,-y,z
1/2+x,1/2+y,z
1/2-x,1/2-y,z
1/2+x,1/2-y,-z
1/2-x,1/2+y,-z
1/2-x,1/2-y,-z
1/2+x,1/2+y,-z
1/2-x,1/2+y,z
1/2+x,1/2-y,z
loop_
_atom_site_type_symbol
_atom_site_label
_atom_site_fract_x
_atom_site_fract_y
_atom_site_fract_z
Si Si1 0.115652 0.813428 0.938575
Si Si2 0.688202 0.685969 0.169220
Si Si3 0.500000 0.816977 0.906197
Si Si4 0.387502 0.185687 0.734108
Si Si5 0.432830 0.321204 0.500000
Si Si6 0.935544 0.687005 0.619127
Si Si7 0.500000 0.683084 0.215082
O O1 0.152044 0.763935 0.885064
O O2 0.056669 0.728240 0.936621
O O3 0.106646 0.000000 0.933783
O O4 0.141560 0.784880 0.000000
O O5 0.689221 0.500000 0.168981
O O6 0.750000 0.750000 0.165029
O O7 0.659280 0.741615 0.226559
O O8 0.500000 0.712228 0.850738
O O9 0.500000 0.000000 0.892672
O O10 0.395422 0.237530 0.669574
O O11 0.445753 0.234933 0.761163
O O12 0.381312 0.000000 0.735164
O O13 0.415798 0.500000 0.500000
O O14 0.500000 0.314198 0.500000
O O15 0.416309 0.241919 0.558155
O O16 0.937341 0.500000 0.619814
O O17 0.000000 0.740379 0.628336
O O18 0.500000 0.500000 0.227818
#
# Coordination Sequence:
#
# PCOD9492999 Si02
#       7
#    16  16   8  16   8  16   8
#     4  10  22  40  60  82 111 146 181 221 275 333
#     4  11  24  41  60  81 107 143 184 231 281 329
#     4  12  23  35  56  85 115 145 181 222 267 325
#     4  11  21  36  57  83 111 143 185 231 276 329
#     4   9  17  27  41  69 108 149 188 223 257 306
#     4   9  17  30  48  73 108 149 184 218 266 320
#     4  12  22  33  53  81 113 147 179 220 278 336
#
# _framework density 17.733301000000001
#
# number of rings (size 3 to 8) (size 9 to 14) (size 15 to 20)
#    0.000    1.545    2.727    3.273    0.000    5.091 
#    0.000    0.000    0.000    0.000    0.000    0.636 
#    0.000    0.000    0.000    0.000    0.000    0.000 
#
# Total GULP energy -245530.162659 kJ/mol
# GULP energy per Si atom -5580.230970 kJ/mol
# Density = 1.769294 g / cm^3
# Si number density = 17.733301 Si / 1000 Ang^3
#
#
#
# Elastic Constant Matrix: (Units=GPa)
#
#
# Indices 1 2 3 4 5 6 
#
# 1 97.8731 25.9242 58.4877 0.0000 0.0000 0.0000
# 2 25.9242 34.3401 29.6102 0.0000 0.0000 0.0000
# 3 58.4877 29.6102 163.0535 0.0000 0.0000 0.0000
# 4 0.0000 0.0000 0.0000 22.3568 0.0000 0.0000
# 5 0.0000 0.0000 0.0000 0.0000 10.1509 0.0000
# 6 0.0000 0.0000 0.0000 0.0000 0.0000 21.3052
#
#
#
# Elastic Compliance Matrix: (Units=1/GPa)
#
#
# Indices 1 2 3 4 5 6 
#
# 1 0.014533 -0.007679 -0.003819 0.000000 0.000000 0.000000
# 2 -0.007679 0.038584 -0.004252 0.000000 0.000000 0.000000
# 3 -0.003819 -0.004252 0.008275 0.000000 0.000000 0.000000
# 4 0.000000 0.000000 0.000000 0.044729 0.000000 0.000000
# 5 0.000000 0.000000 0.000000 0.000000 0.098513 0.000000
# 6 0.000000 0.000000 0.000000 0.000000 0.000000 0.046937
#
#
# Mechanical properties :
#
#
# Convention : Reuss Voigt Hill
#
# Bulk Modulus (GPa) = 33.45312 58.14565 45.79939
# Shear Modulus (GPa) = 17.06278 22.84555 19.95417
#
# Velocity S-wave (km/s) = 3.10528 3.59316 3.35809
# Velocity P-wave (km/s) = 5.63583 7.07634 6.39676
#
# Compressibility (1/GPa) = 0.02989258
#
# Stress axis : x y z
#
# Youngs Moduli (GPa) = 68.80784 25.91737 120.84683
#
# Poissons Ratio (x) = 0.19902 0.46147
# Poissons Ratio (y) = 0.52836 0.51389
# Poissons Ratio (z) = 0.26275 0.11021
#
# Static dielectric constant tensor:
#      x y z
#    x 1.577300 0.000000 0.000000 
#    y 0.000000 1.595130 0.000000 
#    z 0.000000 0.000000 1.642920 
# 
# From -- ./inp_files/71049.got.cif
#   From: 2010.05.17/outbox.cif.g08.bks.cpg/sg65_36_cif.got.tgz:71049.got - 2010.06.03 17:01:31.
