data_PCOD9492128
_publ_section_title
;
Structure prediction by ZEFSAII (Michael W. Deem and Ramdas Pophale) SiO2 
 PCOD9492128
Probable space group: C M M M
;
_chemical_formula_sum "Si O2"
_cell_formula_units_Z 88
_cell_length_a 10.126026
_cell_length_b 22.002652
_cell_length_c 23.012942
_cell_angle_alpha 90.000000
_cell_angle_beta 90.000000
_cell_angle_gamma 90.000000
_cell_volume 5127.270273
_symmetry_space_group_name_H-M "C M M M"
_symmetry_group_IT_number 65
_symmetry_cell_setting 'orthorhombic'
loop_
_space_group_symop_operation_xyz
x,y,z
-x,-y,z
x,-y,-z
-x,y,-z
-x,-y,-z
x,y,-z
-x,y,z
x,-y,z
1/2+x,1/2+y,z
1/2-x,1/2-y,z
1/2+x,1/2-y,-z
1/2-x,1/2+y,-z
1/2-x,1/2-y,-z
1/2+x,1/2+y,-z
1/2-x,1/2+y,z
1/2+x,1/2-y,z
loop_
_atom_site_type_symbol
_atom_site_label
_atom_site_fract_x
_atom_site_fract_y
_atom_site_fract_z
Si Si1 0.157214 0.807877 0.270048
Si Si2 0.000000 0.312419 0.567032
Si Si3 0.341090 0.000000 0.568258
Si Si4 0.843904 0.192684 0.130811
Si Si5 0.339994 0.432247 0.068098
Si Si6 0.758590 0.376159 0.627980
Si Si7 0.000000 0.832024 0.564738
O O1 0.250000 0.750000 0.285461
O O2 0.162982 0.814904 0.200624
O O3 0.224309 0.863627 0.304783
O O4 0.000000 0.800301 0.285165
O O5 0.124936 0.334617 0.603040
O O6 0.000000 0.240445 0.563101
O O7 0.000000 0.336894 0.500000
O O8 0.292916 0.057644 0.604714
O O9 0.500000 0.000000 0.567179
O O10 0.297813 0.000000 0.500000
O O11 0.750000 0.250000 0.115085
O O12 0.799676 0.128962 0.101703
O O13 0.000000 0.203709 0.116118
O O14 0.500000 0.433048 0.071535
O O15 0.295404 0.500000 0.088417
O O16 0.304897 0.426906 0.000000
O O17 0.627940 0.354495 0.596477
O O18 0.000000 0.856543 0.500000
#
# Coordination Sequence:
#
# PCOD9492128 Si02
#       7
#    16   8   8  16  16  16   8
#     4  10  21  37  57  83 112 143 179 221 273 325
#     4  11  22  37  59  83 107 134 168 215 270 328
#     4  11  24  43  61  75 101 141 178 211 260 336
#     4   9  18  33  53  81 113 148 183 225 273 318
#     4   8  14  27  50  80 111 148 191 232 271 314
#     4  12  23  38  58  80 104 139 176 213 263 324
#     4  11  22  35  55  85 109 126 164 221 274 312
#
# _framework density 17.163129000000001
#
# number of rings (size 3 to 8) (size 9 to 14) (size 15 to 20)
#    0.000    1.909    1.818    3.818    1.273    2.182 
#    1.636    0.909    0.000    0.545    0.000    1.273 
#    0.000    0.000    0.000    0.000    0.000    0.000 
#
# Total GULP energy -245146.271855 kJ/mol
# GULP energy per Si atom -5571.506179 kJ/mol
# Density = 1.712406 g / cm^3
# Si number density = 17.163129 Si / 1000 Ang^3
#
#
#
# Elastic Constant Matrix: (Units=GPa)
#
#
# Indices 1 2 3 4 5 6 
#
# 1 98.3218 46.9683 27.9954 0.0000 0.0000 0.0000
# 2 46.9683 146.6657 57.4527 0.0000 0.0000 0.0000
# 3 27.9954 57.4527 54.5471 0.0000 0.0000 0.0000
# 4 0.0000 0.0000 0.0000 94.8616 0.0000 0.0000
# 5 0.0000 0.0000 0.0000 0.0000 17.4452 0.0000
# 6 0.0000 0.0000 0.0000 0.0000 0.0000 34.8970
#
#
#
# Elastic Compliance Matrix: (Units=1/GPa)
#
#
# Indices 1 2 3 4 5 6 
#
# 1 0.012437 -0.002524 -0.003725 0.000000 0.000000 0.000000
# 2 -0.002524 0.012119 -0.011470 0.000000 0.000000 0.000000
# 3 -0.003725 -0.011470 0.032325 0.000000 0.000000 0.000000
# 4 0.000000 0.000000 0.000000 0.010542 0.000000 0.000000
# 5 0.000000 0.000000 0.000000 0.000000 0.057322 0.000000
# 6 0.000000 0.000000 0.000000 0.000000 0.000000 0.028656
#
#
# Mechanical properties :
#
#
# Convention : Reuss Voigt Hill
#
# Bulk Modulus (GPa) = 46.63126 62.70749 54.66937
# Shear Modulus (GPa) = 25.51198 40.58197 33.04697
#
# Velocity S-wave (km/s) = 3.85962 4.86787 4.39277
# Velocity P-wave (km/s) = 6.86226 8.25896 7.59279
#
# Compressibility (1/GPa) = 0.02144484
#
# Stress axis : x y z
#
# Youngs Moduli (GPa) = 80.40640 82.51240 30.93553
#
# Poissons Ratio (x) = 0.20823 0.11523
# Poissons Ratio (y) = 0.20291 0.35482
# Poissons Ratio (z) = 0.29951 0.94640
#
# Static dielectric constant tensor:
#      x y z
#    x 1.561860 0.000000 0.000000 
#    y 0.000000 1.626130 0.000000 
#    z 0.000000 0.000000 1.604050 
# 
# From -- ./inp_files/67681.got.cif
#   From: 2010.05.17/outbox.cif.g08.bks.cpg/sg65_34_cif.got.tgz:67681.got - 2010.06.03 17:01:31.
