data_PCOD9492891
_publ_section_title
;
Structure prediction by ZEFSAII (Michael W. Deem and Ramdas Pophale) SiO2 
 PCOD9492891
Probable space group: C M M M
;
_chemical_formula_sum "Si O2"
_cell_formula_units_Z 80
_cell_length_a 23.004991
_cell_length_b 20.836094
_cell_length_c 8.556118
_cell_angle_alpha 90.000000
_cell_angle_beta 90.000000
_cell_angle_gamma 90.000000
_cell_volume 4101.239591
_symmetry_space_group_name_H-M "C M M M"
_symmetry_group_IT_number 65
_symmetry_cell_setting 'orthorhombic'
loop_
_space_group_symop_operation_xyz
x,y,z
-x,-y,z
x,-y,-z
-x,y,-z
-x,-y,-z
x,y,-z
-x,y,z
x,-y,z
1/2+x,1/2+y,z
1/2-x,1/2-y,z
1/2+x,1/2-y,-z
1/2-x,1/2+y,-z
1/2-x,1/2-y,-z
1/2+x,1/2+y,-z
1/2-x,1/2+y,z
1/2+x,1/2-y,z
loop_
_atom_site_type_symbol
_atom_site_label
_atom_site_fract_x
_atom_site_fract_y
_atom_site_fract_z
Si Si1 0.736340 0.823605 0.827880
Si Si2 0.332325 0.500000 0.812204
Si Si3 0.369996 0.129514 0.322273
Si Si4 0.304023 0.000000 0.309403
Si Si5 0.068791 0.749173 0.817758
Si Si6 0.355909 0.633336 0.313925
O O1 0.750000 0.750000 0.845185
O O2 0.688566 0.829380 0.694825
O O3 0.794716 0.855491 0.771362
O O4 0.717101 0.848080 0.000000
O O5 0.263163 0.500000 0.753409
O O6 0.367710 0.438215 0.748388
O O7 0.330232 0.500000 0.000000
O O8 0.389157 0.120242 0.500000
O O9 0.343692 0.061547 0.263170
O O10 0.414920 0.176746 0.236724
O O11 0.298914 0.000000 0.500000
O O12 0.102393 0.807160 0.731453
O O13 0.000000 0.758191 0.799645
O O14 0.085149 0.753975 0.000000
O O15 0.349298 0.632225 0.500000
#
# Coordination Sequence:
#
# PCOD9492891 Si02
#       6
#    16   8  16   8  16  16
#     4  11  21  33  55  88 126 161 200 247 305 370
#     4  12  24  38  61  92 131 170 200 241 303 374
#     4  11  22  37  61  90 125 163 203 253 309 367
#     4  10  22  38  57  90 133 167 200 247 305 369
#     4  11  25  45  66  88 118 159 211 265 311 363
#     4  12  24  39  62  91 126 161 202 253 305 367
#
# _framework density 19.506298000000001
#
# number of rings (size 3 to 8) (size 9 to 14) (size 15 to 20)
#    0.000    0.800    4.000    4.500    0.000    3.200 
#    0.000    1.000    0.000    6.000    0.000    0.000 
#    0.000    0.000    0.000    0.000    0.000    0.000 
#
# Total GULP energy -222869.159154 kJ/mol
# GULP energy per Si atom -5571.728979 kJ/mol
# Density = 1.946190 g / cm^3
# Si number density = 19.506298 Si / 1000 Ang^3
#
#
#
# Elastic Constant Matrix: (Units=GPa)
#
#
# Indices 1 2 3 4 5 6 
#
# 1 30.6745 13.4212 9.3711 0.0000 0.0000 0.0000
# 2 13.4212 116.4534 39.2326 0.0000 0.0000 0.0000
# 3 9.3711 39.2326 59.3777 0.0000 0.0000 0.0000
# 4 0.0000 0.0000 0.0000 33.2538 0.0000 0.0000
# 5 0.0000 0.0000 0.0000 0.0000 -1.6282 0.0000
# 6 0.0000 0.0000 0.0000 0.0000 0.0000 7.8669
#
#
#
# Elastic Compliance Matrix: (Units=1/GPa)
#
#
# Indices 1 2 3 4 5 6 
#
# 1 0.034943 -0.002790 -0.003671 0.000000 0.000000 0.000000
# 2 -0.002790 0.011269 -0.007005 0.000000 0.000000 0.000000
# 3 -0.003671 -0.007005 0.022049 0.000000 0.000000 0.000000
# 4 0.000000 0.000000 0.000000 0.030072 0.000000 0.000000
# 5 0.000000 0.000000 0.000000 0.000000 -0.614179 0.000000
# 6 0.000000 0.000000 0.000000 0.000000 0.000000 0.127114
#
#
# Mechanical properties :
#
#
# Convention : Reuss Voigt Hill
#
# Bulk Modulus (GPa) = 24.19695 36.72838 30.46267
# Shear Modulus (GPa) = -14.36687 17.53055 1.58184
#
# Velocity S-wave (km/s) = -2.71684 3.00111 0.90150
# Velocity P-wave (km/s) = 1.60934 5.55686 4.09076
#
# Compressibility (1/GPa) = 0.04132752
#
# Stress axis : x y z
#
# Youngs Moduli (GPa) = 28.61823 88.74106 45.35304
#
# Poissons Ratio (x) = 0.24762 0.16649
# Poissons Ratio (y) = 0.07986 0.31771
# Poissons Ratio (z) = 0.10506 0.62165
#
# Static dielectric constant tensor:
#      x y z
#    x 1.673660 0.000000 0.000000 
#    y 0.000000 1.842170 0.000000 
#    z 0.000000 0.000000 1.698720 
# 
# From -- ./inp_files/13828.got.cif
#   From: 2010.05.17/outbox.cif.g08.bks.cpg/sg65_7_cif.got.tgz:13828.got - 2010.06.03 17:01:31.
