data_PCOD9492617
_publ_section_title
;
Structure prediction by ZEFSAII (Michael W. Deem and Ramdas Pophale) SiO2 
 PCOD9492617
Probable space group: C M M M
;
_chemical_formula_sum "Si O2"
_cell_formula_units_Z 64
_cell_length_a 14.363855
_cell_length_b 16.845704
_cell_length_c 13.275765
_cell_angle_alpha 90.000000
_cell_angle_beta 90.000000
_cell_angle_gamma 90.000000
_cell_volume 3212.326895
_symmetry_space_group_name_H-M "C M M M"
_symmetry_group_IT_number 65
_symmetry_cell_setting 'orthorhombic'
loop_
_space_group_symop_operation_xyz
x,y,z
-x,-y,z
x,-y,-z
-x,y,-z
-x,-y,-z
x,y,-z
-x,y,z
x,-y,z
1/2+x,1/2+y,z
1/2-x,1/2-y,z
1/2+x,1/2-y,-z
1/2-x,1/2+y,-z
1/2-x,1/2-y,-z
1/2+x,1/2+y,-z
1/2-x,1/2+y,z
1/2+x,1/2-y,z
loop_
_atom_site_type_symbol
_atom_site_label
_atom_site_fract_x
_atom_site_fract_y
_atom_site_fract_z
Si Si1 0.389328 0.145481 0.243071
Si Si2 0.727763 0.404606 0.885963
Si Si3 0.112942 0.500000 0.614329
Si Si4 0.886623 0.092548 0.500000
Si Si5 0.388431 0.673174 0.707863
O O1 0.500000 0.138813 0.225338
O O2 0.329116 0.128479 0.144261
O O3 0.369471 0.232997 0.284957
O O4 0.360835 0.078160 0.323466
O O5 0.728810 0.500000 0.879479
O O6 0.659220 0.369456 0.802174
O O7 0.702480 0.382063 0.000000
O O8 0.146867 0.500000 0.500000
O O9 0.000000 0.500000 0.610363
O O10 0.855982 0.135939 0.602170
O O11 0.000000 0.096156 0.500000
O O12 0.861294 0.000000 0.500000
O O13 0.500000 0.662536 0.714018
#
# Coordination Sequence:
#
# PCOD9492617 Si02
#       5
#    16  16   8   8  16
#     4  10  21  39  61  89 122 156 198 243 294 354
#     4  11  24  42  62  86 118 156 202 250 295 351
#     4   9  18  34  59  87 122 161 193 236 294 354
#     4   9  18  36  61  87 122 160 195 239 289 352
#     4  10  22  39  62  91 121 155 197 244 297 352
#
# _framework density 19.923252000000002
#
# number of rings (size 3 to 8) (size 9 to 14) (size 15 to 20)
#    0.000    2.000    1.250    1.500    1.750    4.500 
#    2.250    6.250    0.000    0.000    0.000    0.000 
#    0.000    0.000    0.000    0.000    0.000    0.000 
#
# Total GULP energy -178835.990133 kJ/mol
# GULP energy per Si atom -5588.624692 kJ/mol
# Density = 1.987791 g / cm^3
# Si number density = 19.923252 Si / 1000 Ang^3
#
#
#
# Elastic Constant Matrix: (Units=GPa)
#
#
# Indices 1 2 3 4 5 6 
#
# 1 63.3229 40.6484 46.5618 0.0000 0.0000 0.0000
# 2 40.6484 147.4292 97.8280 0.0000 0.0000 0.0000
# 3 46.5618 97.8280 197.2503 0.0000 0.0000 0.0000
# 4 0.0000 0.0000 0.0000 26.2981 0.0000 0.0000
# 5 0.0000 0.0000 0.0000 0.0000 31.5254 0.0000
# 6 0.0000 0.0000 0.0000 0.0000 0.0000 26.3885
#
#
#
# Elastic Compliance Matrix: (Units=1/GPa)
#
#
# Indices 1 2 3 4 5 6 
#
# 1 0.020319 -0.003606 -0.003008 0.000000 0.000000 0.000000
# 2 -0.003606 0.010750 -0.004480 0.000000 0.000000 0.000000
# 3 -0.003008 -0.004480 0.008002 0.000000 0.000000 0.000000
# 4 0.000000 0.000000 0.000000 0.038026 0.000000 0.000000
# 5 0.000000 0.000000 0.000000 0.000000 0.031720 0.000000
# 6 0.000000 0.000000 0.000000 0.000000 0.000000 0.037895
#
#
# Mechanical properties :
#
#
# Convention : Reuss Voigt Hill
#
# Bulk Modulus (GPa) = 59.23543 86.45320 72.84432
# Shear Modulus (GPa) = 28.64869 31.70669 30.17769
#
# Velocity S-wave (km/s) = 3.79615 3.99362 3.89613
# Velocity P-wave (km/s) = 7.00076 8.04690 7.54199
#
# Compressibility (1/GPa) = 0.01688179
#
# Stress axis : x y z
#
# Youngs Moduli (GPa) = 49.21579 93.02118 124.97243
#
# Poissons Ratio (x) = 0.33547 0.37588
# Poissons Ratio (y) = 0.17749 0.55992
# Poissons Ratio (z) = 0.14803 0.41677
#
# Static dielectric constant tensor:
#      x y z
#    x 1.731800 0.000000 0.000000 
#    y 0.000000 1.683720 0.000000 
#    z 0.000000 0.000000 1.672420 
# 
# From -- ./inp_files/23975.got.cif
#   From: 2010.05.17/outbox.cif.g08.bks.cpg/sg65_12_cif.got.tgz:23975.got - 2010.06.03 17:01:31.
