data_PCOD9492857
_publ_section_title
;
Structure prediction by ZEFSAII (Michael W. Deem and Ramdas Pophale) SiO2 
 PCOD9492857
Probable space group: C M M M
;
_chemical_formula_sum "Si O2"
_cell_formula_units_Z 48
_cell_length_a 37.296683
_cell_length_b 7.613334
_cell_length_c 7.503146
_cell_angle_alpha 90.000000
_cell_angle_beta 90.000000
_cell_angle_gamma 90.000000
_cell_volume 2130.534099
_symmetry_space_group_name_H-M "C M M M"
_symmetry_group_IT_number 65
_symmetry_cell_setting 'orthorhombic'
loop_
_space_group_symop_operation_xyz
x,y,z
-x,-y,z
x,-y,-z
-x,y,-z
-x,-y,-z
x,y,-z
-x,y,z
x,-y,z
1/2+x,1/2+y,z
1/2-x,1/2-y,z
1/2+x,1/2-y,-z
1/2-x,1/2+y,-z
1/2-x,1/2-y,-z
1/2+x,1/2+y,-z
1/2-x,1/2+y,z
1/2+x,1/2-y,z
loop_
_atom_site_type_symbol
_atom_site_label
_atom_site_fract_x
_atom_site_fract_y
_atom_site_fract_z
Si Si1 0.500000 0.791871 0.282131
Si Si2 0.155269 0.209286 0.298526
Si Si3 0.076929 0.711780 0.707713
Si Si4 0.708154 0.711343 0.000000
O O1 0.500000 0.779040 0.500000
O O2 0.538629 0.722121 0.219809
O O3 0.500000 0.000000 0.239921
O O4 0.156309 0.282457 0.500000
O O5 0.115556 0.238034 0.218005
O O6 0.159743 0.000000 0.311877
O O7 0.186577 0.278375 0.172408
O O8 0.078151 0.768598 0.500000
O O9 0.075260 0.500000 0.711285
O O10 0.750000 0.750000 0.000000
O O11 0.704586 0.500000 0.000000
#
# Coordination Sequence:
#
# PCOD9492857 Si02
#       4
#     8  16  16   8
#     4   7  10  18  35  62  95 126 157 195 232 263
#     4   9  18  33  51  71  97 126 154 189 234 279
#     4   8  13  23  42  68  96 127 162 196 230 270
#     4  10  22  38  54  73  96 121 151 190 237 286
#
# _framework density 22.529558999999999
#
# number of rings (size 3 to 8) (size 9 to 14) (size 15 to 20)
#    0.000    3.500    0.000    2.000    0.000    2.000 
#    0.000    0.833    0.000    6.000    0.000    7.000 
#    0.000    0.000    0.000    0.000    0.000    0.000 
#
# Total GULP energy -133744.010389 kJ/mol
# GULP energy per Si atom -5572.667100 kJ/mol
# Density = 2.247828 g / cm^3
# Si number density = 22.529559 Si / 1000 Ang^3
#
#
#
# Elastic Constant Matrix: (Units=GPa)
#
#
# Indices 1 2 3 4 5 6 
#
# 1 270.7346 0.0534 86.0313 0.0000 0.0000 0.0000
# 2 0.0534 42.1913 5.9835 0.0000 0.0000 0.0000
# 3 86.0313 5.9835 97.2890 0.0000 0.0000 0.0000
# 4 0.0000 0.0000 0.0000 -4.0607 0.0000 0.0000
# 5 0.0000 0.0000 0.0000 0.0000 57.9594 0.0000
# 6 0.0000 0.0000 0.0000 0.0000 0.0000 21.7046
#
#
#
# Elastic Compliance Matrix: (Units=1/GPa)
#
#
# Indices 1 2 3 4 5 6 
#
# 1 0.005155 0.000646 -0.004598 0.000000 0.000000 0.000000
# 2 0.000646 0.023991 -0.002046 0.000000 0.000000 0.000000
# 3 -0.004598 -0.002046 0.014470 0.000000 0.000000 0.000000
# 4 0.000000 0.000000 0.000000 -0.246264 0.000000 0.000000
# 5 0.000000 0.000000 0.000000 0.000000 0.017253 0.000000
# 6 0.000000 0.000000 0.000000 0.000000 0.000000 0.046073
#
#
# Mechanical properties :
#
#
# Convention : Reuss Voigt Hill
#
# Bulk Modulus (GPa) = 31.62697 66.03903 48.83300
# Shear Modulus (GPa) = -42.81380 36.33044 -3.24168
#
# Velocity S-wave (km/s) = -4.36402 4.02004 -1.20082
# Velocity P-wave (km/s) = 3.36517 7.13606 4.44966
#
# Compressibility (1/GPa) = 0.03161858
#
# Stress axis : x y z
#
# Youngs Moduli (GPa) = 194.00226 41.68240 69.10703
#
# Poissons Ratio (x) = -0.02691 0.31774
# Poissons Ratio (y) = -0.12523 0.14142
# Poissons Ratio (z) = 0.89199 0.08530
#
# Static dielectric constant tensor:
#      x y z
#    x 1.850320 0.000000 0.000000 
#    y 0.000000 1.833480 0.000000 
#    z 0.000000 0.000000 1.898390 
# 
# From -- ./inp_files/3079.got.cif
#   From: 2010.05.17/outbox.cif.g08.bks.cpg/sg65_2_cif.got.tgz:3079.got - 2010.06.03 17:01:31.
