data_PCOD9492435
_publ_section_title
;
Structure prediction by ZEFSAII (Michael W. Deem and Ramdas Pophale) SiO2 
 PCOD9492435
Probable space group: C M M M
;
_chemical_formula_sum "Si O2"
_cell_formula_units_Z 96
_cell_length_a 8.594282
_cell_length_b 29.724349
_cell_length_c 20.993493
_cell_angle_alpha 90.000000
_cell_angle_beta 90.000000
_cell_angle_gamma 90.000000
_cell_volume 5362.985914
_symmetry_space_group_name_H-M "C M M M"
_symmetry_group_IT_number 65
_symmetry_cell_setting 'orthorhombic'
loop_
_space_group_symop_operation_xyz
x,y,z
-x,-y,z
x,-y,-z
-x,y,-z
-x,-y,-z
x,y,-z
-x,y,z
x,-y,z
1/2+x,1/2+y,z
1/2-x,1/2-y,z
1/2+x,1/2-y,-z
1/2-x,1/2+y,-z
1/2-x,1/2-y,-z
1/2+x,1/2+y,-z
1/2-x,1/2+y,z
1/2+x,1/2-y,z
loop_
_atom_site_type_symbol
_atom_site_label
_atom_site_fract_x
_atom_site_fract_y
_atom_site_fract_z
Si Si1 0.186935 0.300358 0.804497
Si Si2 0.810064 0.354023 0.070093
Si Si3 0.688844 0.049581 0.883075
Si Si4 0.186336 0.299275 0.573754
Si Si5 0.815746 0.857747 0.686351
Si Si6 0.812924 0.449282 0.267292
O O1 0.250000 0.250000 0.799036
O O2 0.239912 0.323429 0.870737
O O3 0.243210 0.330428 0.745602
O O4 0.000000 0.299598 0.803908
O O5 0.758250 0.405667 0.081184
O O6 0.000000 0.354327 0.071256
O O7 0.760996 0.338341 0.000000
O O8 0.500000 0.048834 0.887884
O O9 0.725286 0.054820 0.808031
O O10 0.743841 0.000000 0.904416
O O11 0.231247 0.307343 0.500000
O O12 0.250000 0.250000 0.591981
O O13 0.252326 0.335968 0.621706
O O14 0.000000 0.298578 0.577717
O O15 0.766930 0.909481 0.694681
O O16 0.000000 0.853120 0.688642
O O17 0.770967 0.500000 0.287246
O O18 0.000000 0.444632 0.272168
#
# Coordination Sequence:
#
# PCOD9492435 Si02
#       6
#    16  16  16  16  16  16
#     4  11  22  37  54  74 103 137 181 232 278 328
#     4   9  17  29  47  72 102 136 174 222 277 329
#     4   8  13  24  45  73 102 131 166 212 267 323
#     4  10  21  38  60  86 117 150 183 220 267 321
#     4  12  23  35  56  84 114 146 182 222 268 319
#     4   9  17  32  55  81 109 143 182 224 271 320
#
# _framework density 17.900476999999999
#
# number of rings (size 3 to 8) (size 9 to 14) (size 15 to 20)
#    0.000    2.167    1.667    4.000    0.000    2.000 
#    0.000    1.667    0.000    2.000    0.000    3.500 
#    0.000    2.667    0.000    0.000    0.000    0.000 
#
# Total GULP energy -267900.277076 kJ/mol
# GULP energy per Si atom -5581.255772 kJ/mol
# Density = 1.785973 g / cm^3
# Si number density = 17.900477 Si / 1000 Ang^3
#
#
#
# Elastic Constant Matrix: (Units=GPa)
#
#
# Indices 1 2 3 4 5 6 
#
# 1 42.4549 31.6654 28.0909 0.0000 0.0000 0.0000
# 2 31.6654 117.2442 56.4839 0.0000 0.0000 0.0000
# 3 28.0909 56.4839 81.9906 0.0000 0.0000 0.0000
# 4 0.0000 0.0000 0.0000 19.7963 0.0000 0.0000
# 5 0.0000 0.0000 0.0000 0.0000 5.9105 0.0000
# 6 0.0000 0.0000 0.0000 0.0000 0.0000 23.6058
#
#
#
# Elastic Compliance Matrix: (Units=1/GPa)
#
#
# Indices 1 2 3 4 5 6 
#
# 1 0.032368 -0.005088 -0.007584 0.000000 0.000000 0.000000
# 2 -0.005088 0.013566 -0.007602 0.000000 0.000000 0.000000
# 3 -0.007584 -0.007602 0.020032 0.000000 0.000000 0.000000
# 4 0.000000 0.000000 0.000000 0.050514 0.000000 0.000000
# 5 0.000000 0.000000 0.000000 0.000000 0.169189 0.000000
# 6 0.000000 0.000000 0.000000 0.000000 0.000000 0.042363
#
#
# Mechanical properties :
#
#
# Convention : Reuss Voigt Hill
#
# Bulk Modulus (GPa) = 39.34477 52.68557 46.01517
# Shear Modulus (GPa) = 13.26069 18.22583 15.74326
#
# Velocity S-wave (km/s) = 2.72472 3.19435 2.96883
# Velocity P-wave (km/s) = 5.65033 6.56518 6.12486
#
# Compressibility (1/GPa) = 0.02541634
#
# Stress axis : x y z
#
# Youngs Moduli (GPa) = 30.89501 73.71388 49.91917
#
# Poissons Ratio (x) = 0.37506 0.37860
# Poissons Ratio (y) = 0.15719 0.37951
# Poissons Ratio (z) = 0.23432 0.56041
#
# Static dielectric constant tensor:
#      x y z
#    x 1.605610 0.000000 0.000000 
#    y 0.000000 1.605650 0.000000 
#    z 0.000000 0.000000 1.603680 
# 
# From -- ./inp_files/60312.got.cif
#   From: 2010.05.17/outbox.cif.g08.bks.cpg/sg65_31_cif.got.tgz:60312.got - 2010.06.03 17:01:31.
