data_PCOD9492964
_publ_section_title
;
Structure prediction by ZEFSAII (Michael W. Deem and Ramdas Pophale) SiO2 
 PCOD9492964
Probable space group: C M M M
;
_chemical_formula_sum "Si O2"
_cell_formula_units_Z 68
_cell_length_a 18.317318
_cell_length_b 9.731247
_cell_length_c 20.179602
_cell_angle_alpha 90.000000
_cell_angle_beta 90.000000
_cell_angle_gamma 90.000000
_cell_volume 3597.021035
_symmetry_space_group_name_H-M "C M M M"
_symmetry_group_IT_number 65
_symmetry_cell_setting 'orthorhombic'
loop_
_space_group_symop_operation_xyz
x,y,z
-x,-y,z
x,-y,-z
-x,y,-z
-x,-y,-z
x,y,-z
-x,y,z
x,-y,z
1/2+x,1/2+y,z
1/2-x,1/2-y,z
1/2+x,1/2-y,-z
1/2-x,1/2+y,-z
1/2-x,1/2-y,-z
1/2+x,1/2+y,-z
1/2-x,1/2+y,z
1/2+x,1/2-y,z
loop_
_atom_site_type_symbol
_atom_site_label
_atom_site_fract_x
_atom_site_fract_y
_atom_site_fract_z
Si Si1 0.826971 0.331939 0.500000
Si Si2 0.335896 0.722608 0.113871
Si Si3 0.367317 0.500000 0.000000
Si Si4 0.586493 0.000000 0.078383
Si Si5 0.413119 0.338932 0.608134
Si Si6 0.180435 0.844759 0.265358
O O1 0.820395 0.500000 0.500000
O O2 0.750000 0.250000 0.500000
O O3 0.871577 0.270704 0.437465
O O4 0.250000 0.750000 0.100823
O O5 0.364508 0.619031 0.058421
O O6 0.377779 0.865377 0.108525
O O7 0.342576 0.670232 0.188949
O O8 0.500000 0.000000 0.087156
O O9 0.602901 0.000000 0.000000
O O10 0.500000 0.322262 0.602970
O O11 0.396598 0.500000 0.589630
O O12 0.384217 0.318767 0.682887
O O13 0.250000 0.750000 0.277958
O O14 0.205450 0.000000 0.276083
#
# Coordination Sequence:
#
# PCOD9492964 Si02
#       6
#     8  16   4   8  16  16
#     4  12  25  42  67 101 135 167 213 268 317 378
#     4  11  23  38  64  93 124 166 221 271 326 394
#     4  12  20  36  63  94 121 160 216 280 324 386
#     4  11  25  43  58  85 128 164 199 261 336 396
#     4  10  22  42  67  94 130 175 215 260 320 386
#     4  10  22  39  61  92 128 166 215 269 321 379
#
# _framework density 18.904530999999999
#
# number of rings (size 3 to 8) (size 9 to 14) (size 15 to 20)
#    0.000    1.294    2.353    3.176    6.588    5.647 
#    0.000    1.176    0.000    0.000    0.000    0.000 
#    0.000    0.000    0.000    0.000    0.000    0.000 
#
# Total GULP energy -189358.777361 kJ/mol
# GULP energy per Si atom -5569.375805 kJ/mol
# Density = 1.886150 g / cm^3
# Si number density = 18.904531 Si / 1000 Ang^3
#
#
#
# Elastic Constant Matrix: (Units=GPa)
#
#
# Indices 1 2 3 4 5 6 
#
# 1 55.0633 49.1033 49.5897 0.0000 0.0000 0.0000
# 2 49.1033 155.8722 62.5219 0.0000 0.0000 0.0000
# 3 49.5897 62.5219 84.5042 0.0000 0.0000 0.0000
# 4 0.0000 0.0000 0.0000 40.9355 0.0000 0.0000
# 5 0.0000 0.0000 0.0000 0.0000 3.3366 0.0000
# 6 0.0000 0.0000 0.0000 0.0000 0.0000 29.4245
#
#
#
# Elastic Compliance Matrix: (Units=1/GPa)
#
#
# Indices 1 2 3 4 5 6 
#
# 1 0.040722 -0.004612 -0.020485 0.000000 0.000000 0.000000
# 2 -0.004612 0.009645 -0.004430 0.000000 0.000000 0.000000
# 3 -0.020485 -0.004430 0.027132 0.000000 0.000000 0.000000
# 4 0.000000 0.000000 0.000000 0.024429 0.000000 0.000000
# 5 0.000000 0.000000 0.000000 0.000000 0.299710 0.000000
# 6 0.000000 0.000000 0.000000 0.000000 0.000000 0.033985
#
#
# Mechanical properties :
#
#
# Convention : Reuss Voigt Hill
#
# Bulk Modulus (GPa) = 54.21025 68.65219 61.43122
# Shear Modulus (GPa) = 9.98352 23.68764 16.83558
#
# Velocity S-wave (km/s) = 2.30054 3.54363 2.98746
# Velocity P-wave (km/s) = 5.98287 7.28952 6.66828
#
# Compressibility (1/GPa) = 0.01844670
#
# Stress axis : x y z
#
# Youngs Moduli (GPa) = 24.55671 103.67898 36.85624
#
# Poissons Ratio (x) = 0.47813 0.75500
# Poissons Ratio (y) = 0.11325 0.16327
# Poissons Ratio (z) = 0.50304 0.45928
#
# Static dielectric constant tensor:
#      x y z
#    x 1.631170 0.000000 0.000000 
#    y 0.000000 1.637430 0.000000 
#    z 0.000000 0.000000 1.663320 
# 
# From -- ./inp_files/59014.got.cif
#   From: 2010.05.17/outbox.cif.g08.bks.cpg/sg65_30_cif.got.tgz:59014.got - 2010.06.03 17:01:31.
