data_PCOD9492926
_publ_section_title
;
Structure prediction by ZEFSAII (Michael W. Deem and Ramdas Pophale) SiO2 
 PCOD9492926
Probable space group: C M M M
;
_chemical_formula_sum "Si O2"
_cell_formula_units_Z 64
_cell_length_a 8.645076
_cell_length_b 15.473733
_cell_length_c 24.937639
_cell_angle_alpha 90.000000
_cell_angle_beta 90.000000
_cell_angle_gamma 90.000000
_cell_volume 3335.947814
_symmetry_space_group_name_H-M "C M M M"
_symmetry_group_IT_number 65
_symmetry_cell_setting 'orthorhombic'
loop_
_space_group_symop_operation_xyz
x,y,z
-x,-y,z
x,-y,-z
-x,y,-z
-x,-y,-z
x,y,-z
-x,y,z
x,-y,z
1/2+x,1/2+y,z
1/2-x,1/2-y,z
1/2+x,1/2-y,-z
1/2-x,1/2+y,-z
1/2-x,1/2-y,-z
1/2+x,1/2+y,-z
1/2-x,1/2+y,z
1/2+x,1/2-y,z
loop_
_atom_site_type_symbol
_atom_site_label
_atom_site_fract_x
_atom_site_fract_y
_atom_site_fract_z
Si Si1 0.812970 0.847409 0.617782
Si Si2 0.186507 0.152506 0.500000
Si Si3 0.818571 0.604108 0.000000
Si Si4 0.684481 0.000000 0.183216
Si Si5 0.187749 0.000000 0.302985
Si Si6 0.315704 0.657505 0.114272
O O1 0.750000 0.750000 0.624805
O O2 0.765823 0.882246 0.558362
O O3 0.000000 0.842727 0.618466
O O4 0.765515 0.914964 0.663291
O O5 0.250000 0.250000 0.500000
O O6 0.000000 0.152207 0.500000
O O7 0.740003 0.639090 0.946363
O O8 0.807211 0.500000 0.000000
O O9 0.000000 0.627664 0.000000
O O10 0.741155 0.000000 0.244233
O O11 0.749150 0.916874 0.152105
O O12 0.500000 0.000000 0.180313
O O13 0.000000 0.000000 0.299106
O O14 0.500000 0.657079 0.116188
O O15 0.250000 0.750000 0.131057
#
# Coordination Sequence:
#
# PCOD9492926 Si02
#       6
#    16   8   8   8   8  16
#     4   9  18  33  55  81 113 148 188 235 290 351
#     4   8  14  27  49  79 110 144 182 229 285 347
#     4  11  22  39  66  98 135 169 201 243 296 356
#     4  12  26  45  64  87 119 158 206 258 307 358
#     4  10  22  39  57  81 112 152 197 244 296 354
#     4  12  25  43  68  96 127 163 204 249 302 360
#
# _framework density 19.184953
#
# number of rings (size 3 to 8) (size 9 to 14) (size 15 to 20)
#    0.000    1.625    1.250    4.125    0.000    3.000 
#    0.000    5.000    0.000    0.000    0.000    9.625 
#    0.000    0.000    0.000    0.000    0.000    0.000 
#
# Total GULP energy -178763.138400 kJ/mol
# GULP energy per Si atom -5586.348075 kJ/mol
# Density = 1.914129 g / cm^3
# Si number density = 19.184953 Si / 1000 Ang^3
#
#
#
# Elastic Constant Matrix: (Units=GPa)
#
#
# Indices 1 2 3 4 5 6 
#
# 1 110.8785 61.2976 65.8754 0.0000 0.0000 0.0000
# 2 61.2976 153.3418 102.9198 0.0000 0.0000 0.0000
# 3 65.8754 102.9198 191.4615 0.0000 0.0000 0.0000
# 4 0.0000 0.0000 0.0000 52.5841 0.0000 0.0000
# 5 0.0000 0.0000 0.0000 0.0000 22.5178 0.0000
# 6 0.0000 0.0000 0.0000 0.0000 0.0000 28.0224
#
#
#
# Elastic Compliance Matrix: (Units=1/GPa)
#
#
# Indices 1 2 3 4 5 6 
#
# 1 0.012289 -0.003245 -0.002484 0.000000 0.000000 0.000000
# 2 -0.003245 0.011059 -0.004828 0.000000 0.000000 0.000000
# 3 -0.002484 -0.004828 0.008673 0.000000 0.000000 0.000000
# 4 0.000000 0.000000 0.000000 0.019017 0.000000 0.000000
# 5 0.000000 0.000000 0.000000 0.000000 0.044409 0.000000
# 6 0.000000 0.000000 0.000000 0.000000 0.000000 0.035686
#
#
# Mechanical properties :
#
#
# Convention : Reuss Voigt Hill
#
# Bulk Modulus (GPa) = 91.68931 101.76304 96.72617
# Shear Modulus (GPa) = 32.07535 35.66415 33.86975
#
# Velocity S-wave (km/s) = 4.09333 4.31625 4.20626
# Velocity P-wave (km/s) = 8.38072 8.83167 8.60915
#
# Compressibility (1/GPa) = 0.01090640
#
# Stress axis : x y z
#
# Youngs Moduli (GPa) = 81.37648 90.42103 115.30138
#
# Poissons Ratio (x) = 0.29345 0.28635
# Poissons Ratio (y) = 0.26410 0.55671
# Poissons Ratio (z) = 0.20210 0.43658
#
# Static dielectric constant tensor:
#      x y z
#    x 1.644860 0.000000 0.000000 
#    y 0.000000 1.647720 0.000000 
#    z 0.000000 0.000000 1.664610 
# 
# From -- ./inp_files/66902.got.cif
#   From: 2010.05.17/outbox.cif.g08.bks.cpg/sg65_34_cif.got.tgz:66902.got - 2010.06.03 17:01:31.
