data_PCOD9492520
_publ_section_title
;
Structure prediction by ZEFSAII (Michael W. Deem and Ramdas Pophale) SiO2 
 PCOD9492520
Probable space group: C M M M
;
_chemical_formula_sum "Si O2"
_cell_formula_units_Z 64
_cell_length_a 16.518234
_cell_length_b 15.518061
_cell_length_c 12.799455
_cell_angle_alpha 90.000000
_cell_angle_beta 90.000000
_cell_angle_gamma 90.000000
_cell_volume 3280.896624
_symmetry_space_group_name_H-M "C M M M"
_symmetry_group_IT_number 65
_symmetry_cell_setting 'orthorhombic'
loop_
_space_group_symop_operation_xyz
x,y,z
-x,-y,z
x,-y,-z
-x,y,-z
-x,-y,-z
x,y,-z
-x,y,z
x,-y,z
1/2+x,1/2+y,z
1/2-x,1/2-y,z
1/2+x,1/2-y,-z
1/2-x,1/2+y,-z
1/2-x,1/2-y,-z
1/2+x,1/2+y,-z
1/2-x,1/2+y,z
1/2+x,1/2-y,z
loop_
_atom_site_type_symbol
_atom_site_label
_atom_site_fract_x
_atom_site_fract_y
_atom_site_fract_z
Si Si1 0.192265 0.170227 0.379931
Si Si2 0.697207 0.000000 0.384505
Si Si3 0.902273 0.500000 0.824457
Si Si4 0.832467 0.805485 0.000000
Si Si5 0.094779 0.897311 0.805541
Si Si6 0.906070 0.372690 0.000000
O O1 0.164914 0.183815 0.500000
O O2 0.250000 0.250000 0.350363
O O3 0.246653 0.084223 0.377544
O O4 0.120710 0.153601 0.298501
O O5 0.658330 0.000000 0.500000
O O6 0.636539 0.000000 0.288439
O O7 0.874173 0.581554 0.895097
O O8 0.000000 0.500000 0.813666
O O9 0.750000 0.750000 0.000000
O O10 0.848382 0.863198 0.898540
O O11 0.897033 0.728345 0.000000
O O12 0.000000 0.883027 0.830974
O O13 0.105795 0.000000 0.790871
O O14 0.000000 0.395834 0.000000
#
# Coordination Sequence:
#
# PCOD9492520 Si02
#       6
#    16   8   8   8  16   8
#     4  10  22  41  63  90 123 161 207 257 310 370
#     4  10  21  38  61  88 125 159 195 259 315 363
#     4   9  20  37  59  84 117 157 199 240 295 364
#     4  12  26  39  60  92 119 157 202 245 306 371
#     4  11  24  42  64  91 126 163 203 258 318 373
#     4   9  20  39  58  82 116 155 191 242 293 347
#
# _framework density 19.506862999999999
#
# number of rings (size 3 to 8) (size 9 to 14) (size 15 to 20)
#    0.000    1.750    1.250    3.000    7.000    1.750 
#    2.250    1.250    0.000    4.500    0.000    0.000 
#    0.000    0.000    0.000    0.000    0.000    0.000 
#
# Total GULP energy -178628.666105 kJ/mol
# GULP energy per Si atom -5582.145816 kJ/mol
# Density = 1.946246 g / cm^3
# Si number density = 19.506863 Si / 1000 Ang^3
#
#
#
# Elastic Constant Matrix: (Units=GPa)
#
#
# Indices 1 2 3 4 5 6 
#
# 1 69.1135 14.7319 41.9317 0.0000 0.0000 0.0000
# 2 14.7319 92.3775 3.4934 0.0000 0.0000 0.0000
# 3 41.9317 3.4934 107.9284 0.0000 0.0000 0.0000
# 4 0.0000 0.0000 0.0000 29.6308 0.0000 0.0000
# 5 0.0000 0.0000 0.0000 0.0000 29.1778 0.0000
# 6 0.0000 0.0000 0.0000 0.0000 0.0000 31.1419
#
#
#
# Elastic Compliance Matrix: (Units=1/GPa)
#
#
# Indices 1 2 3 4 5 6 
#
# 1 0.019653 -0.002849 -0.007543 0.000000 0.000000 0.000000
# 2 -0.002849 0.011251 0.000743 0.000000 0.000000 0.000000
# 3 -0.007543 0.000743 0.012172 0.000000 0.000000 0.000000
# 4 0.000000 0.000000 0.000000 0.033749 0.000000 0.000000
# 5 0.000000 0.000000 0.000000 0.000000 0.034273 0.000000
# 6 0.000000 0.000000 0.000000 0.000000 0.000000 0.032111
#
#
# Mechanical properties :
#
#
# Convention : Reuss Voigt Hill
#
# Bulk Modulus (GPa) = 42.05685 43.30372 42.68028
# Shear Modulus (GPa) = 29.33708 31.94095 30.63902
#
# Velocity S-wave (km/s) = 3.88227 4.05090 3.96748
# Velocity P-wave (km/s) = 6.45777 6.64282 6.55095
#
# Compressibility (1/GPa) = 0.02377734
#
# Stress axis : x y z
#
# Youngs Moduli (GPa) = 50.88367 88.87796 82.15598
#
# Poissons Ratio (x) = 0.25320 0.61971
# Poissons Ratio (y) = 0.14496 -0.06101
# Poissons Ratio (z) = 0.38382 -0.06600
#
# Static dielectric constant tensor:
#      x y z
#    x 1.717870 0.000000 0.000000 
#    y 0.000000 1.678580 0.000000 
#    z 0.000000 0.000000 1.701140 
# 
# From -- ./inp_files/24007.got.cif
#   From: 2010.05.17/outbox.cif.g08.bks.cpg/sg65_13_cif.got.tgz:24007.got - 2010.06.03 17:01:31.
