data_PCOD9492910
_publ_section_title
;
Structure prediction by ZEFSAII (Michael W. Deem and Ramdas Pophale) SiO2 
 PCOD9492910
Probable space group: C M M M
;
_chemical_formula_sum "Si O2"
_cell_formula_units_Z 90
_cell_length_a 20.471184
_cell_length_b 17.409948
_cell_length_c 13.408069
_cell_angle_alpha 90.000000
_cell_angle_beta 90.000000
_cell_angle_gamma 90.000000
_cell_volume 4778.665946
_symmetry_space_group_name_H-M "C M M M"
_symmetry_group_IT_number 65
_symmetry_cell_setting 'orthorhombic'
loop_
_space_group_symop_operation_xyz
x,y,z
-x,-y,z
x,-y,-z
-x,y,-z
-x,-y,-z
x,y,-z
-x,y,z
x,-y,z
1/2+x,1/2+y,z
1/2-x,1/2-y,z
1/2+x,1/2-y,-z
1/2-x,1/2+y,-z
1/2-x,1/2-y,-z
1/2+x,1/2+y,-z
1/2-x,1/2+y,z
1/2+x,1/2-y,z
loop_
_atom_site_type_symbol
_atom_site_label
_atom_site_fract_x
_atom_site_fract_y
_atom_site_fract_z
Si Si1 0.000000 0.809728 0.117113
Si Si2 0.000000 0.369205 0.827159
Si Si3 0.123043 0.857200 0.753185
Si Si4 0.861686 0.408971 0.260753
Si Si5 0.000000 0.500000 0.000000
Si Si6 0.079058 0.000000 0.618312
Si Si7 0.245486 0.092595 0.885528
Si Si8 0.825940 0.272907 0.386980
O O1 0.000000 0.717663 0.132424
O O2 0.936842 0.844468 0.171871
O O3 0.000000 0.827411 0.000000
O O4 0.934853 0.383805 0.763718
O O5 0.000000 0.432635 0.913739
O O6 0.187608 0.874694 0.817768
O O7 0.135098 0.781008 0.688783
O O8 0.107172 0.926108 0.676575
O O9 0.858517 0.500000 0.276779
O O10 0.814708 0.389918 0.166554
O O11 0.834757 0.360200 0.352617
O O12 0.095567 0.000000 0.500000
O O13 0.000000 0.000000 0.626125
O O14 0.238925 0.000000 0.886440
O O15 0.242932 0.119700 0.000000
O O16 0.848302 0.261126 0.500000
O O17 0.750000 0.250000 0.380876
#
# Coordination Sequence:
#
# PCOD9492910 Si02
#       8
#     8   8  16  16   2   8  16  16
#     4  12  26  39  63  96 134 172 213 259 321 392
#     4  12  24  40  65  93 130 167 217 262 323 380
#     4  12  22  44  63  95 128 169 212 268 316 384
#     4  11  23  42  65  95 128 165 215 269 319 388
#     4  12  24  40  68  92 126 182 208 270 324 384
#     4  11  24  42  67  96 125 167 219 267 318 384
#     4  10  22  38  63  92 127 167 211 258 318 380
#     4  11  24  43  67  95 129 168 211 269 332 380
#
# _framework density 18.833708999999999
#
# number of rings (size 3 to 8) (size 9 to 14) (size 15 to 20)
#    0.000    0.800    6.667    1.067    1.244    0.356 
#    0.000    2.667    0.000    1.067    0.000    0.000 
#    0.000    0.000    0.000    0.000    0.000    0.000 
#
# Total GULP energy -251256.346554 kJ/mol
# GULP energy per Si atom -5583.474368 kJ/mol
# Density = 1.879084 g / cm^3
# Si number density = 18.833709 Si / 1000 Ang^3
#
#
#
# Elastic Constant Matrix: (Units=GPa)
#
#
# Indices 1 2 3 4 5 6 
#
# 1 125.4880 33.5738 66.5468 0.0000 0.0000 0.0000
# 2 33.5738 78.3575 47.4250 0.0000 0.0000 0.0000
# 3 66.5468 47.4250 138.1222 0.0000 0.0000 0.0000
# 4 0.0000 0.0000 0.0000 0.6190 0.0000 0.0000
# 5 0.0000 0.0000 0.0000 0.0000 14.1492 0.0000
# 6 0.0000 0.0000 0.0000 0.0000 0.0000 5.4503
#
#
#
# Elastic Compliance Matrix: (Units=1/GPa)
#
#
# Indices 1 2 3 4 5 6 
#
# 1 0.010920 -0.001887 -0.004614 0.000000 0.000000 0.000000
# 2 -0.001887 0.016436 -0.004734 0.000000 0.000000 0.000000
# 3 -0.004614 -0.004734 0.011088 0.000000 0.000000 0.000000
# 4 0.000000 0.000000 0.000000 1.615552 0.000000 0.000000
# 5 0.000000 0.000000 0.000000 0.000000 0.070676 0.000000
# 6 0.000000 0.000000 0.000000 0.000000 0.000000 0.183477
#
#
# Mechanical properties :
#
#
# Convention : Reuss Voigt Hill
#
# Bulk Modulus (GPa) = 62.59683 70.78433 66.69058
# Shear Modulus (GPa) = 2.58272 17.00516 9.79394
#
# Velocity S-wave (km/s) = 1.17231 3.00811 2.28287
# Velocity P-wave (km/s) = 5.92800 7.05198 6.51427
#
# Compressibility (1/GPa) = 0.01597525
#
# Stress axis : x y z
#
# Youngs Moduli (GPa) = 91.57310 60.84282 90.18527
#
# Poissons Ratio (x) = 0.11479 0.41607
# Poissons Ratio (y) = 0.17277 0.42696
# Poissons Ratio (z) = 0.42247 0.28805
#
# Static dielectric constant tensor:
#      x y z
#    x 1.643590 0.000000 0.000000 
#    y 0.000000 1.645220 0.000000 
#    z 0.000000 0.000000 1.623990 
# 
# From -- ./inp_files/28797.got.cif
#   From: 2010.05.17/outbox.cif.g08.bks.cpg/sg65_15_cif.got.tgz:28797.got - 2010.06.03 17:01:31.
