data_PCOD9492842
_publ_section_title
;
Structure prediction by ZEFSAII (Michael W. Deem and Ramdas Pophale) SiO2 
 PCOD9492842
Probable space group: C M M M
;
_chemical_formula_sum "Si O2"
_cell_formula_units_Z 62
_cell_length_a 19.593565
_cell_length_b 13.895931
_cell_length_c 11.999736
_cell_angle_alpha 90.000000
_cell_angle_beta 90.000000
_cell_angle_gamma 90.000000
_cell_volume 3267.178048
_symmetry_space_group_name_H-M "C M M M"
_symmetry_group_IT_number 65
_symmetry_cell_setting 'orthorhombic'
loop_
_space_group_symop_operation_xyz
x,y,z
-x,-y,z
x,-y,-z
-x,y,-z
-x,-y,-z
x,y,-z
-x,y,z
x,-y,z
1/2+x,1/2+y,z
1/2-x,1/2-y,z
1/2+x,1/2-y,-z
1/2-x,1/2+y,-z
1/2-x,1/2-y,-z
1/2+x,1/2+y,-z
1/2-x,1/2+y,z
1/2+x,1/2-y,z
loop_
_atom_site_type_symbol
_atom_site_label
_atom_site_fract_x
_atom_site_fract_y
_atom_site_fract_z
Si Si1 0.269812 0.500000 0.210736
Si Si2 0.580107 0.283875 0.000000
Si Si3 0.418699 0.787984 0.757448
Si Si4 0.368915 0.500000 0.000000
Si Si5 0.500000 0.000000 0.000000
Si Si6 0.888549 0.500000 0.200000
Si Si7 0.690285 0.671225 0.374091
O O1 0.191530 0.500000 0.171263
O O2 0.285599 0.409089 0.288167
O O3 0.321063 0.500000 0.107771
O O4 0.606279 0.238524 0.115964
O O5 0.500000 0.258920 0.000000
O O6 0.589984 0.399145 0.000000
O O7 0.500000 0.771478 0.752790
O O8 0.403459 0.900203 0.736660
O O9 0.377689 0.721492 0.672751
O O10 0.440313 0.000000 0.903362
O O11 0.680465 0.634591 0.500000
O O12 0.750000 0.750000 0.376455
#
# Coordination Sequence:
#
# PCOD9492842 Si02
#       7
#     8   8  16   4   2   8  16
#     4  12  24  43  64 101 131 169 212 270 327 394
#     4  10  22  37  62  88 128 175 208 256 323 395
#     4  11  22  41  65  95 130 171 217 270 332 392
#     4  12  22  38  62  94 132 162 208 258 324 394
#     4  12  22  40  60 102 142 174 210 256 344 404
#     4  12  23  38  63  96 134 170 211 260 326 401
#     4  11  24  44  68  91 127 176 224 273 323 381
#
# _framework density 18.976621999999999
#
# number of rings (size 3 to 8) (size 9 to 14) (size 15 to 20)
#    0.000    0.774    6.452    1.742    1.806    0.516 
#    0.000    3.871    0.000    3.097    0.000    0.000 
#    0.000    0.000    0.000    0.000    0.000    0.000 
#
# Total GULP energy -172887.637011 kJ/mol
# GULP energy per Si atom -5577.020549 kJ/mol
# Density = 1.893343 g / cm^3
# Si number density = 18.976622 Si / 1000 Ang^3
#
#
#
# Elastic Constant Matrix: (Units=GPa)
#
#
# Indices 1 2 3 4 5 6 
#
# 1 67.4911 2.3826 16.1055 0.0000 0.0000 0.0000
# 2 2.3826 81.4529 17.6025 0.0000 0.0000 0.0000
# 3 16.1055 17.6025 101.6346 0.0000 0.0000 0.0000
# 4 0.0000 0.0000 0.0000 15.1010 0.0000 0.0000
# 5 0.0000 0.0000 0.0000 0.0000 31.7761 0.0000
# 6 0.0000 0.0000 0.0000 0.0000 0.0000 23.5634
#
#
#
# Elastic Compliance Matrix: (Units=1/GPa)
#
#
# Indices 1 2 3 4 5 6 
#
# 1 0.015400 0.000080 -0.002454 0.000000 0.000000 0.000000
# 2 0.000080 0.012755 -0.002222 0.000000 0.000000 0.000000
# 3 -0.002454 -0.002222 0.010613 0.000000 0.000000 0.000000
# 4 0.000000 0.000000 0.000000 0.066221 0.000000 0.000000
# 5 0.000000 0.000000 0.000000 0.000000 0.031470 0.000000
# 6 0.000000 0.000000 0.000000 0.000000 0.000000 0.042439
#
#
# Mechanical properties :
#
#
# Convention : Reuss Voigt Hill
#
# Bulk Modulus (GPa) = 33.81193 35.86219 34.83706
# Shear Modulus (GPa) = 25.25928 28.38730 26.82329
#
# Velocity S-wave (km/s) = 3.65235 3.87189 3.76372
# Velocity P-wave (km/s) = 5.97014 6.23922 6.10616
#
# Compressibility (1/GPa) = 0.02957536
#
# Stress axis : x y z
#
# Youngs Moduli (GPa) = 64.93680 78.40169 94.22542
#
# Poissons Ratio (x) = -0.00626 0.23124
# Poissons Ratio (y) = -0.00519 0.20934
# Poissons Ratio (z) = 0.15936 0.17419
#
# Static dielectric constant tensor:
#      x y z
#    x 1.629160 0.000000 0.000000 
#    y 0.000000 1.650530 0.000000 
#    z 0.000000 0.000000 1.642430 
# 
# From -- ./inp_files/26166.got.cif
#   From: 2010.05.17/outbox.cif.g08.bks.cpg/sg65_14_cif.got.tgz:26166.got - 2010.06.03 17:01:31.
