data_PCOD9492145
_publ_section_title
;
Structure prediction by ZEFSAII (Michael W. Deem and Ramdas Pophale) SiO2 
 PCOD9492145
Probable space group: C M M M
;
_chemical_formula_sum "Si O2"
_cell_formula_units_Z 72
_cell_length_a 18.403668
_cell_length_b 24.318491
_cell_length_c 7.856979
_cell_angle_alpha 90.000000
_cell_angle_beta 90.000000
_cell_angle_gamma 90.000000
_cell_volume 3516.386509
_symmetry_space_group_name_H-M "C M M M"
_symmetry_group_IT_number 65
_symmetry_cell_setting 'orthorhombic'
loop_
_space_group_symop_operation_xyz
x,y,z
-x,-y,z
x,-y,-z
-x,y,-z
-x,-y,-z
x,y,-z
-x,y,z
x,-y,z
1/2+x,1/2+y,z
1/2-x,1/2-y,z
1/2+x,1/2-y,-z
1/2-x,1/2+y,-z
1/2-x,1/2-y,-z
1/2+x,1/2+y,-z
1/2-x,1/2+y,z
1/2+x,1/2-y,z
loop_
_atom_site_type_symbol
_atom_site_label
_atom_site_fract_x
_atom_site_fract_y
_atom_site_fract_z
Si Si1 0.920393 0.626068 0.704051
Si Si2 0.500000 0.564619 0.703210
Si Si3 0.346586 0.609840 0.797315
Si Si4 0.229450 0.000000 0.207282
Si Si5 0.775541 0.308253 0.699120
Si Si6 0.393614 0.000000 0.203692
O O1 0.919254 0.631370 0.500000
O O2 0.846991 0.657995 0.767868
O O3 0.920254 0.560373 0.740949
O O4 0.000000 0.647245 0.765287
O O5 0.500000 0.500000 0.767476
O O6 0.500000 0.561097 0.500000
O O7 0.430549 0.599702 0.760762
O O8 0.311060 0.553470 0.734517
O O9 0.297513 0.655936 0.712768
O O10 0.336555 0.615460 0.000000
O O11 0.311095 0.000000 0.265101
O O12 0.229418 0.000000 0.000000
O O13 0.792617 0.298495 0.500000
O O14 0.750000 0.250000 0.777231
O O15 0.398905 0.000000 0.000000
#
# Coordination Sequence:
#
# PCOD9492145 Si02
#       6
#    16   8  16   8  16   8
#     4  10  21  37  57  83 116 153 190 233 288 350
#     4  11  23  37  57  91 127 157 193 238 291 358
#     4  11  21  38  61  85 117 156 197 244 299 355
#     4   9  18  31  53  83 114 149 185 230 294 351
#     4  10  22  41  61  83 113 154 204 251 295 344
#     4  11  20  34  56  87 119 149 183 230 290 351
#
# _framework density 20.475563999999999
#
# number of rings (size 3 to 8) (size 9 to 14) (size 15 to 20)
#    0.000    1.667    3.333    1.667    0.000    2.667 
#    2.000    0.000    0.000    0.000    0.000    0.000 
#    0.000    0.000    0.000    0.000    0.000    0.000 
#
# Total GULP energy -200559.286643 kJ/mol
# GULP energy per Si atom -5571.091296 kJ/mol
# Density = 2.042896 g / cm^3
# Si number density = 20.475564 Si / 1000 Ang^3
#
#
#
# Elastic Constant Matrix: (Units=GPa)
#
#
# Indices 1 2 3 4 5 6 
#
# 1 190.1020 73.3192 -3.9056 0.0000 0.0000 0.0000
# 2 73.3192 137.4140 -2.0593 0.0000 0.0000 0.0000
# 3 -3.9056 -2.0593 32.3726 0.0000 0.0000 0.0000
# 4 0.0000 0.0000 0.0000 1.9677 0.0000 0.0000
# 5 0.0000 0.0000 0.0000 0.0000 7.9223 0.0000
# 6 0.0000 0.0000 0.0000 0.0000 0.0000 -0.7264
#
#
#
# Elastic Compliance Matrix: (Units=1/GPa)
#
#
# Indices 1 2 3 4 5 6 
#
# 1 0.006634 -0.003531 0.000576 0.000000 0.000000 0.000000
# 2 -0.003531 0.009164 0.000157 0.000000 0.000000 0.000000
# 3 0.000576 0.000157 0.030970 0.000000 0.000000 0.000000
# 4 0.000000 0.000000 0.000000 0.508195 0.000000 0.000000
# 5 0.000000 0.000000 0.000000 0.000000 0.126227 0.000000
# 6 0.000000 0.000000 0.000000 0.000000 0.000000 -1.376657
#
#
# Mechanical properties :
#
#
# Convention : Reuss Voigt Hill
#
# Bulk Modulus (GPa) = 24.28912 54.95524 39.62218
# Shear Modulus (GPa) = -7.39484 21.33501 6.97009
#
# Velocity S-wave (km/s) = -1.90247 3.23146 1.84702
# Velocity P-wave (km/s) = 2.65752 6.38912 4.89302
#
# Compressibility (1/GPa) = 0.04117069
#
# Stress axis : x y z
#
# Youngs Moduli (GPa) = 150.73785 109.12650 32.28957
#
# Poissons Ratio (x) = 0.38533 -0.01859
# Poissons Ratio (y) = 0.53226 -0.00507
# Poissons Ratio (z) = -0.08679 -0.01712
#
# Static dielectric constant tensor:
#      x y z
#    x 1.863880 0.000000 0.000000 
#    y 0.000000 1.715330 0.000000 
#    z 0.000000 0.000000 1.737840 
# 
# From -- ./inp_files/9328.got.cif
#   From: 2010.05.17/outbox.cif.g08.bks.cpg/sg65_5_cif.got.tgz:9328.got - 2010.06.03 17:01:31.
