data_PCOD9492249
_publ_section_title
;
Structure prediction by ZEFSAII (Michael W. Deem and Ramdas Pophale) SiO2 
 PCOD9492249
Probable space group: C M M M
;
_chemical_formula_sum "Si O2"
_cell_formula_units_Z 80
_cell_length_a 29.544947
_cell_length_b 16.504238
_cell_length_c 7.905900
_cell_angle_alpha 90.000000
_cell_angle_beta 90.000000
_cell_angle_gamma 90.000000
_cell_volume 3855.049952
_symmetry_space_group_name_H-M "C M M M"
_symmetry_group_IT_number 65
_symmetry_cell_setting 'orthorhombic'
loop_
_space_group_symop_operation_xyz
x,y,z
-x,-y,z
x,-y,-z
-x,y,-z
-x,-y,-z
x,y,-z
-x,y,z
x,-y,z
1/2+x,1/2+y,z
1/2-x,1/2-y,z
1/2+x,1/2-y,-z
1/2-x,1/2+y,-z
1/2-x,1/2-y,-z
1/2+x,1/2+y,-z
1/2-x,1/2+y,z
1/2+x,1/2-y,z
loop_
_atom_site_type_symbol
_atom_site_label
_atom_site_fract_x
_atom_site_fract_y
_atom_site_fract_z
Si Si1 0.121656 0.000000 0.190848
Si Si2 0.721012 0.500000 0.304249
Si Si3 0.949067 0.132626 0.298678
Si Si4 0.140666 0.407514 0.794897
Si Si5 0.050409 0.319833 0.204600
Si Si6 0.765929 0.663390 0.701446
O O1 0.166849 0.000000 0.300442
O O2 0.089627 0.077104 0.221694
O O3 0.138255 0.000000 0.000000
O O4 0.736321 0.500000 0.500000
O O5 0.740464 0.416478 0.228055
O O6 0.948274 0.120107 0.500000
O O7 0.942128 0.227175 0.260048
O O8 0.000000 0.111299 0.237688
O O9 0.148408 0.500000 0.739558
O O10 0.091776 0.375293 0.738095
O O11 0.181087 0.351508 0.730553
O O12 0.141417 0.406252 0.000000
O O13 0.000000 0.344446 0.262535
O O14 0.050172 0.321341 0.000000
O O15 0.756702 0.665495 0.500000
O O16 0.750000 0.750000 0.771746
#
# Coordination Sequence:
#
# PCOD9492249 Si02
#       6
#     8   8  16  16  16  16
#     4  12  25  37  56  85 118 153 191 236 289 343
#     4  10  22  41  59  84 121 152 192 243 289 344
#     4  10  21  38  59  83 114 153 196 239 284 337
#     4  10  21  37  59  87 117 150 189 235 288 344
#     4   9  19  36  57  84 118 153 191 234 283 341
#     4  10  22  40  62  86 112 150 194 238 292 348
#
# _framework density 20.751999999999999
#
# number of rings (size 3 to 8) (size 9 to 14) (size 15 to 20)
#    0.000    2.000    1.000    1.800    2.800    4.800 
#    0.000    2.000    0.000    0.000    0.000    4.200 
#    0.000    0.000    0.000    0.000    0.000    0.000 
#
# Total GULP energy -223415.206427 kJ/mol
# GULP energy per Si atom -5585.380161 kJ/mol
# Density = 2.070477 g / cm^3
# Si number density = 20.752000 Si / 1000 Ang^3
#
#
#
# Elastic Constant Matrix: (Units=GPa)
#
#
# Indices 1 2 3 4 5 6 
#
# 1 118.4906 78.1366 -11.2406 0.0000 0.0000 0.0000
# 2 78.1366 137.5749 6.5284 0.0000 0.0000 0.0000
# 3 -11.2406 6.5284 19.9238 0.0000 0.0000 0.0000
# 4 0.0000 0.0000 0.0000 -80.2973 0.0000 0.0000
# 5 0.0000 0.0000 0.0000 0.0000 23.1659 0.0000
# 6 0.0000 0.0000 0.0000 0.0000 0.0000 37.5936
#
#
#
# Elastic Compliance Matrix: (Units=1/GPa)
#
#
# Indices 1 2 3 4 5 6 
#
# 1 0.015944 -0.009632 0.012151 0.000000 0.000000 0.000000
# 2 -0.009632 0.013203 -0.009760 0.000000 0.000000 0.000000
# 3 0.012151 -0.009760 0.060245 0.000000 0.000000 0.000000
# 4 0.000000 0.000000 0.000000 -0.012454 0.000000 0.000000
# 5 0.000000 0.000000 0.000000 0.000000 0.043167 0.000000
# 6 0.000000 0.000000 0.000000 0.000000 0.000000 0.026600
#
#
# Mechanical properties :
#
#
# Convention : Reuss Voigt Hill
#
# Bulk Modulus (GPa) = 13.34948 46.98202 30.16575
# Shear Modulus (GPa) = 26.85911 9.59676 18.22793
#
# Velocity S-wave (km/s) = 3.60153 2.15280 2.96695
# Velocity P-wave (km/s) = 4.87252 5.37292 5.12883
#
# Compressibility (1/GPa) = 0.07490930
#
# Stress axis : x y z
#
# Youngs Moduli (GPa) = 62.71978 75.74306 16.59894
#
# Poissons Ratio (x) = 0.72956 -0.20170
# Poissons Ratio (y) = 0.60412 0.16201
# Poissons Ratio (z) = -0.76213 0.73927
#
# Static dielectric constant tensor:
#      x y z
#    x 1.715770 0.000000 0.000000 
#    y 0.000000 1.730020 0.000000 
#    z 0.000000 0.000000 1.743000 
# 
# From -- ./inp_files/16079.got.cif
#   From: 2010.05.17/outbox.cif.g08.bks.cpg/sg65_9_cif.got.tgz:16079.got - 2010.06.03 17:01:31.
