data_PCOD9492957
_publ_section_title
;
Structure prediction by ZEFSAII (Michael W. Deem and Ramdas Pophale) SiO2 
 PCOD9492957
Probable space group: C M M M
;
_chemical_formula_sum "Si O2"
_cell_formula_units_Z 58
_cell_length_a 9.975818
_cell_length_b 22.108561
_cell_length_c 13.957970
_cell_angle_alpha 90.000000
_cell_angle_beta 90.000000
_cell_angle_gamma 90.000000
_cell_volume 3078.443973
_symmetry_space_group_name_H-M "C M M M"
_symmetry_group_IT_number 65
_symmetry_cell_setting 'orthorhombic'
loop_
_space_group_symop_operation_xyz
x,y,z
-x,-y,z
x,-y,-z
-x,y,-z
-x,-y,-z
x,y,-z
-x,y,z
x,-y,z
1/2+x,1/2+y,z
1/2-x,1/2-y,z
1/2+x,1/2-y,-z
1/2-x,1/2+y,-z
1/2-x,1/2-y,-z
1/2+x,1/2+y,-z
1/2-x,1/2+y,z
1/2+x,1/2-y,z
loop_
_atom_site_type_symbol
_atom_site_label
_atom_site_fract_x
_atom_site_fract_y
_atom_site_fract_z
Si Si1 0.500000 0.797424 0.108617
Si Si2 0.278960 0.123973 0.793077
Si Si3 0.000000 0.847274 0.110756
Si Si4 0.716986 0.000000 0.892937
Si Si5 0.500000 0.500000 0.000000
Si Si6 0.658632 0.191458 0.387101
O O1 0.370491 0.824087 0.159904
O O2 0.500000 0.725278 0.106659
O O3 0.500000 0.819739 0.000000
O O4 0.130524 0.133005 0.832849
O O5 0.295222 0.136617 0.680652
O O6 0.322074 0.059186 0.833255
O O7 0.000000 0.872391 0.000000
O O8 0.877741 0.000000 0.917273
O O9 0.656534 0.000000 0.000000
O O10 0.675566 0.178918 0.500000
O O11 0.500000 0.203841 0.370418
O O12 0.750000 0.250000 0.363569
#
# Coordination Sequence:
#
# PCOD9492957 Si02
#       6
#     8  16   8   8   2  16
#     4  11  22  36  54  88 126 155 198 255 326 378
#     4  12  23  38  61  89 123 166 209 257 309 372
#     4  11  23  37  60  87 122 165 206 253 315 379
#     4  10  22  39  61  86 121 170 222 249 295 363
#     4   8  20  44  60  82 114 176 224 258 284 338
#     4  10  22  42  66  94 126 162 210 265 324 381
#
# _framework density 18.840686999999999
#
# number of rings (size 3 to 8) (size 9 to 14) (size 15 to 20)
#    0.414    0.828    1.379    5.793    3.862    2.759 
#    0.000    2.069    0.000    1.655    0.000    2.897 
#    0.000    0.000    0.000    0.000    0.000    0.000 
#
# Total GULP energy -161764.813213 kJ/mol
# GULP energy per Si atom -5578.097007 kJ/mol
# Density = 1.879780 g / cm^3
# Si number density = 18.840687 Si / 1000 Ang^3
#
#
#
# Elastic Constant Matrix: (Units=GPa)
#
#
# Indices 1 2 3 4 5 6 
#
# 1 108.9510 14.0601 40.9947 0.0000 0.0000 0.0000
# 2 14.0601 93.7210 63.1370 0.0000 0.0000 0.0000
# 3 40.9947 63.1370 128.0885 0.0000 0.0000 0.0000
# 4 0.0000 0.0000 0.0000 34.6280 0.0000 0.0000
# 5 0.0000 0.0000 0.0000 0.0000 31.5761 0.0000
# 6 0.0000 0.0000 0.0000 0.0000 0.0000 11.5301
#
#
#
# Elastic Compliance Matrix: (Units=1/GPa)
#
#
# Indices 1 2 3 4 5 6 
#
# 1 0.010501 0.001031 -0.003869 0.000000 0.000000 0.000000
# 2 0.001031 0.016076 -0.008254 0.000000 0.000000 0.000000
# 3 -0.003869 -0.008254 0.013114 0.000000 0.000000 0.000000
# 4 0.000000 0.000000 0.000000 0.028878 0.000000 0.000000
# 5 0.000000 0.000000 0.000000 0.000000 0.031670 0.000000
# 6 0.000000 0.000000 0.000000 0.000000 0.000000 0.086730
#
#
# Mechanical properties :
#
#
# Convention : Reuss Voigt Hill
#
# Bulk Modulus (GPa) = 57.12057 63.01602 60.06830
# Shear Modulus (GPa) = 23.25709 29.71808 26.48759
#
# Velocity S-wave (km/s) = 3.51723 3.97588 3.75356
# Velocity P-wave (km/s) = 6.84675 7.38892 7.12300
#
# Compressibility (1/GPa) = 0.01750683
#
# Stress axis : x y z
#
# Youngs Moduli (GPa) = 95.22703 62.20539 76.25442
#
# Poissons Ratio (x) = -0.06414 0.29504
# Poissons Ratio (y) = -0.09819 0.62941
# Poissons Ratio (z) = 0.36845 0.51345
#
# Static dielectric constant tensor:
#      x y z
#    x 1.687520 0.000000 0.000000 
#    y 0.000000 1.687530 0.000000 
#    z 0.000000 0.000000 1.674030 
# 
# From -- ./inp_files/35907.got.cif
#   From: 2010.05.17/outbox.cif.g08.bks.cpg/sg65_18_cif.got.tgz:35907.got - 2010.06.03 17:01:31.
