data_PCOD9492872
_publ_section_title
;
Structure prediction by ZEFSAII (Michael W. Deem and Ramdas Pophale) SiO2 
 PCOD9492872
Probable space group: C M M M
;
_chemical_formula_sum "Si O2"
_cell_formula_units_Z 58
_cell_length_a 14.208968
_cell_length_b 22.807234
_cell_length_c 9.742573
_cell_angle_alpha 90.000000
_cell_angle_beta 90.000000
_cell_angle_gamma 90.000000
_cell_volume 3157.248919
_symmetry_space_group_name_H-M "C M M M"
_symmetry_group_IT_number 65
_symmetry_cell_setting 'orthorhombic'
loop_
_space_group_symop_operation_xyz
x,y,z
-x,-y,z
x,-y,-z
-x,y,-z
-x,-y,-z
x,y,-z
-x,y,z
x,-y,z
1/2+x,1/2+y,z
1/2-x,1/2-y,z
1/2+x,1/2-y,-z
1/2-x,1/2+y,-z
1/2-x,1/2-y,-z
1/2+x,1/2+y,-z
1/2-x,1/2+y,z
1/2+x,1/2-y,z
loop_
_atom_site_type_symbol
_atom_site_label
_atom_site_fract_x
_atom_site_fract_y
_atom_site_fract_z
Si Si1 0.389914 0.272528 0.157769
Si Si2 0.000000 0.000000 0.500000
Si Si3 0.895388 0.000000 0.217011
Si Si4 0.733231 0.388454 0.157952
Si Si5 0.110664 0.657294 0.338038
O O1 0.500000 0.289171 0.168109
O O2 0.326479 0.329081 0.183008
O O3 0.373093 0.219808 0.262814
O O4 0.373265 0.252529 0.000000
O O5 0.919328 0.000000 0.378371
O O6 0.835918 0.056995 0.178197
O O7 0.000000 0.000000 0.152167
O O8 0.820454 0.387496 0.261670
O O9 0.765954 0.387598 0.000000
O O10 0.130178 0.661216 0.500000
O O11 0.000000 0.643273 0.320082
#
# Coordination Sequence:
#
# PCOD9492872 Si02
#       5
#    16   2   8  16  16
#     4   9  18  34  55  83 116 149 185 229 285 342
#     4   8  24  44  58  88 118 160 178 228 284 330
#     4  10  23  42  61  86 118 147 187 224 280 336
#     4  11  22  36  60  86 113 151 191 236 285 336
#     4  10  22  38  55  81 114 152 192 237 286 339
#
# _framework density 18.370424
#
# number of rings (size 3 to 8) (size 9 to 14) (size 15 to 20)
#    0.414    1.655    0.000    2.897    1.931    8.276 
#    0.000    0.690    0.000    3.310    0.000    0.000 
#    0.000    0.000    0.000    0.000    0.000    0.000 
#
# Total GULP energy -161595.361549 kJ/mol
# GULP energy per Si atom -5572.253847 kJ/mol
# Density = 1.832861 g / cm^3
# Si number density = 18.370424 Si / 1000 Ang^3
#
#
#
# Elastic Constant Matrix: (Units=GPa)
#
#
# Indices 1 2 3 4 5 6 
#
# 1 120.4300 69.3078 80.3263 0.0000 0.0000 0.0000
# 2 69.3078 60.2996 42.3532 0.0000 0.0000 0.0000
# 3 80.3263 42.3532 120.4300 0.0000 0.0000 0.0000
# 4 0.0000 0.0000 0.0000 1.1265 0.0000 0.0000
# 5 0.0000 0.0000 0.0000 0.0000 29.3012 0.0000
# 6 0.0000 0.0000 0.0000 0.0000 0.0000 30.4639
#
#
#
# Elastic Compliance Matrix: (Units=1/GPa)
#
#
# Indices 1 2 3 4 5 6 
#
# 1 0.033642 -0.030422 -0.011740 0.000000 0.000000 0.000000
# 2 -0.030422 0.049534 0.002871 0.000000 0.000000 0.000000
# 3 -0.011740 0.002871 0.015125 0.000000 0.000000 0.000000
# 4 0.000000 0.000000 0.000000 0.887711 0.000000 0.000000
# 5 0.000000 0.000000 0.000000 0.000000 0.034128 0.000000
# 6 0.000000 0.000000 0.000000 0.000000 0.000000 0.032826
#
#
# Mechanical properties :
#
#
# Convention : Reuss Voigt Hill
#
# Bulk Modulus (GPa) = 50.71406 76.12602 63.42004
# Shear Modulus (GPa) = 4.39321 19.45647 11.92484
#
# Velocity S-wave (km/s) = 1.54811 3.25794 2.55057
# Velocity P-wave (km/s) = 5.55534 7.46201 6.57813
#
# Compressibility (1/GPa) = 0.01971840
#
# Stress axis : x y z
#
# Youngs Moduli (GPa) = 29.72454 20.18815 66.11715
#
# Poissons Ratio (x) = 0.61416 0.77624
# Poissons Ratio (y) = 0.90428 -0.18982
# Poissons Ratio (z) = 0.34898 -0.05796
#
# Static dielectric constant tensor:
#      x y z
#    x 1.653370 0.000000 0.000000 
#    y 0.000000 1.611260 0.000000 
#    z 0.000000 0.000000 1.621230 
# 
# From -- ./inp_files/6320.got.cif
#   From: 2010.05.17/outbox.cif.g08.bks.cpg/sg65_4_cif.got.tgz:6320.got - 2010.06.03 17:01:31.
