data_PCOD9492901
_publ_section_title
;
Structure prediction by ZEFSAII (Michael W. Deem and Ramdas Pophale) SiO2 
 PCOD9492901
Probable space group: C M M M
;
_chemical_formula_sum "Si O2"
_cell_formula_units_Z 88
_cell_length_a 11.316629
_cell_length_b 15.208889
_cell_length_c 22.431470
_cell_angle_alpha 90.000000
_cell_angle_beta 90.000000
_cell_angle_gamma 90.000000
_cell_volume 3860.755544
_symmetry_space_group_name_H-M "C M M M"
_symmetry_group_IT_number 65
_symmetry_cell_setting 'orthorhombic'
loop_
_space_group_symop_operation_xyz
x,y,z
-x,-y,z
x,-y,-z
-x,y,-z
-x,-y,-z
x,y,-z
-x,y,z
x,-y,z
1/2+x,1/2+y,z
1/2-x,1/2-y,z
1/2+x,1/2-y,-z
1/2-x,1/2+y,-z
1/2-x,1/2-y,-z
1/2+x,1/2+y,-z
1/2-x,1/2+y,z
1/2+x,1/2-y,z
loop_
_atom_site_type_symbol
_atom_site_label
_atom_site_fract_x
_atom_site_fract_y
_atom_site_fract_z
Si Si1 0.500000 0.896896 0.566700
Si Si2 0.871779 0.154789 0.071160
Si Si3 0.129970 0.606545 0.258483
Si Si4 0.627958 0.395877 0.684079
Si Si5 0.745250 0.645827 0.567562
Si Si6 0.871708 0.644756 0.881861
O O1 0.500000 0.853743 0.500000
O O2 0.626280 0.877694 0.594137
O O3 0.500000 0.000000 0.559434
O O4 0.872936 0.251745 0.100945
O O5 0.750827 0.109110 0.091443
O O6 0.000000 0.113372 0.085591
O O7 0.866201 0.166425 0.000000
O O8 0.130733 0.500000 0.264757
O O9 0.252446 0.640868 0.286554
O O10 0.133354 0.630310 0.188740
O O11 0.000000 0.636160 0.281347
O O12 0.500000 0.358827 0.702432
O O13 0.625748 0.500000 0.697065
O O14 0.646558 0.384483 0.613238
O O15 0.734684 0.610012 0.500000
O O16 0.750000 0.750000 0.563625
O O17 0.000000 0.609481 0.902742
#
# Coordination Sequence:
#
# PCOD9492901 Si02
#       6
#     8  16  16  16  16  16
#     4   9  18  34  58  86 111 145 195 235 271 347
#     4   9  17  29  48  75 106 139 172 211 264 323
#     4   9  19  36  56  76 102 140 184 229 274 324
#     4  10  22  39  59  83 110 144 187 233 283 344
#     4  10  22  38  59  85 116 149 183 232 295 351
#     4   9  16  28  48  73  98 129 171 215 257 306
#
# _framework density 22.793465999999999
#
# number of rings (size 3 to 8) (size 9 to 14) (size 15 to 20)
#    0.000    2.636    0.000    1.636    2.545    3.273 
#    3.273    0.909    0.000    2.182    0.000   12.727 
#    0.000    0.000    0.000    0.000    0.000    0.000 
#
# Total GULP energy -245333.621903 kJ/mol
# GULP energy per Si atom -5575.764134 kJ/mol
# Density = 2.274159 g / cm^3
# Si number density = 22.793466 Si / 1000 Ang^3
#
#
#
# Elastic Constant Matrix: (Units=GPa)
#
#
# Indices 1 2 3 4 5 6 
#
# 1 272.6605 18.1275 66.7808 0.0000 0.0000 0.0000
# 2 18.1275 48.5623 -2.5280 0.0000 0.0000 0.0000
# 3 66.7808 -2.5280 52.6928 0.0000 0.0000 0.0000
# 4 0.0000 0.0000 0.0000 33.8250 0.0000 0.0000
# 5 0.0000 0.0000 0.0000 0.0000 173.2928 0.0000
# 6 0.0000 0.0000 0.0000 0.0000 0.0000 -24.0836
#
#
#
# Elastic Compliance Matrix: (Units=1/GPa)
#
#
# Indices 1 2 3 4 5 6 
#
# 1 0.005598 -0.002465 -0.007213 0.000000 0.000000 0.000000
# 2 -0.002465 0.021729 0.004167 0.000000 0.000000 0.000000
# 3 -0.007213 0.004167 0.028319 0.000000 0.000000 0.000000
# 4 0.000000 0.000000 0.000000 0.029564 0.000000 0.000000
# 5 0.000000 0.000000 0.000000 0.000000 0.005771 0.000000
# 6 0.000000 0.000000 0.000000 0.000000 0.000000 -0.041522
#
#
# Mechanical properties :
#
#
# Convention : Reuss Voigt Hill
#
# Bulk Modulus (GPa) = 22.40962 59.85291 41.13126
# Shear Modulus (GPa) = 66.35085 56.04251 61.19668
#
# Velocity S-wave (km/s) = 5.40118 4.96392 5.18716
# Velocity P-wave (km/s) = 6.98212 7.69219 7.34574
#
# Compressibility (1/GPa) = 0.04462370
#
# Stress axis : x y z
#
# Youngs Moduli (GPa) = 178.63172 46.02096 35.31145
#
# Poissons Ratio (x) = 0.11345 0.25470
# Poissons Ratio (y) = 0.44036 -0.14713
# Poissons Ratio (z) = 1.28849 -0.19176
#
# Static dielectric constant tensor:
#      x y z
#    x 1.911880 0.000000 0.000000 
#    y 0.000000 1.796530 0.000000 
#    z 0.000000 0.000000 1.841290 
# 
# From -- ./inp_files/61459.got.cif
#   From: 2010.05.17/outbox.cif.g08.bks.cpg/sg65_31_cif.got.tgz:61459.got - 2010.06.03 17:01:31.
