data_PCOD9492058
_publ_section_title
;
Structure prediction by ZEFSAII (Michael W. Deem and Ramdas Pophale) SiO2 
 PCOD9492058
Probable space group: C M M M
;
_chemical_formula_sum "Si O2"
_cell_formula_units_Z 72
_cell_length_a 15.443485
_cell_length_b 8.756206
_cell_length_c 27.188776
_cell_angle_alpha 90.000000
_cell_angle_beta 90.000000
_cell_angle_gamma 90.000000
_cell_volume 3676.638559
_symmetry_space_group_name_H-M "C M M M"
_symmetry_group_IT_number 65
_symmetry_cell_setting 'orthorhombic'
loop_
_space_group_symop_operation_xyz
x,y,z
-x,-y,z
x,-y,-z
-x,y,-z
-x,-y,-z
x,y,-z
-x,y,z
x,-y,z
1/2+x,1/2+y,z
1/2-x,1/2-y,z
1/2+x,1/2-y,-z
1/2-x,1/2+y,-z
1/2-x,1/2-y,-z
1/2+x,1/2+y,-z
1/2-x,1/2+y,z
1/2+x,1/2-y,z
loop_
_atom_site_type_symbol
_atom_site_label
_atom_site_fract_x
_atom_site_fract_y
_atom_site_fract_z
Si Si1 0.346777 0.817174 0.053859
Si Si2 0.161891 0.318738 0.253872
Si Si3 0.000000 0.816338 0.430223
Si Si4 0.000000 0.684662 0.321791
Si Si5 0.899288 0.827274 0.845294
Si Si6 0.649447 0.185836 0.500000
O O1 0.250000 0.750000 0.054833
O O2 0.391926 0.751326 0.101837
O O3 0.344129 0.000000 0.056923
O O4 0.384622 0.776230 0.000000
O O5 0.166551 0.500000 0.252103
O O6 0.250000 0.250000 0.273911
O O7 0.147902 0.258822 0.198592
O O8 0.082816 0.274928 0.288816
O O9 0.912370 0.745868 0.455116
O O10 0.000000 0.769919 0.373374
O O11 0.000000 0.000000 0.437173
O O12 0.000000 0.500000 0.329688
O O13 0.000000 0.831398 0.831679
O O14 0.865439 0.000000 0.849153
O O15 0.750000 0.250000 0.500000
O O16 0.652816 0.000000 0.500000
#
# Coordination Sequence:
#
# PCOD9492058 Si02
#       6
#    16  16   8   8  16   8
#     4  10  21  37  57  80 108 143 185 235 293 360
#     4  11  23  41  64  89 120 160 206 256 310 370
#     4  11  23  40  65  98 136 177 219 269 324 377
#     4  10  23  43  64  90 128 171 214 263 316 370
#     4  11  23  38  58  83 113 149 192 244 300 364
#     4  11  22  41  68  98 136 179 226 273 318 376
#
# _framework density 19.583103999999999
#
# number of rings (size 3 to 8) (size 9 to 14) (size 15 to 20)
#    0.000    1.333    1.111    5.333    0.000    5.778 
#    0.000    4.444    0.000    0.000    0.000    0.000 
#    0.000    0.000    0.000    0.000    0.000    0.000 
#
# Total GULP energy -201071.447377 kJ/mol
# GULP energy per Si atom -5585.317983 kJ/mol
# Density = 1.953853 g / cm^3
# Si number density = 19.583104 Si / 1000 Ang^3
#
#
#
# Elastic Constant Matrix: (Units=GPa)
#
#
# Indices 1 2 3 4 5 6 
#
# 1 149.0974 62.3187 66.4325 0.0000 0.0000 0.0000
# 2 62.3187 113.2465 69.3586 0.0000 0.0000 0.0000
# 3 66.4325 69.3586 144.5204 0.0000 0.0000 0.0000
# 4 0.0000 0.0000 0.0000 28.1825 0.0000 0.0000
# 5 0.0000 0.0000 0.0000 0.0000 -26.5667 0.0000
# 6 0.0000 0.0000 0.0000 0.0000 0.0000 29.2979
#
#
#
# Elastic Compliance Matrix: (Units=1/GPa)
#
#
# Indices 1 2 3 4 5 6 
#
# 1 0.009348 -0.003558 -0.002589 0.000000 0.000000 0.000000
# 2 -0.003558 0.013861 -0.005016 0.000000 0.000000 0.000000
# 3 -0.002589 -0.005016 0.010517 0.000000 0.000000 0.000000
# 4 0.000000 0.000000 0.000000 0.035483 0.000000 0.000000
# 5 0.000000 0.000000 0.000000 0.000000 -0.037641 0.000000
# 6 0.000000 0.000000 0.000000 0.000000 0.000000 0.034132
#
#
# Mechanical properties :
#
#
# Convention : Reuss Voigt Hill
#
# Bulk Modulus (GPa) = 87.73601 89.23155 88.48378
# Shear Modulus (GPa) = 54.45005 20.09972 37.27489
#
# Velocity S-wave (km/s) = 5.27873 3.20719 4.36755
# Velocity P-wave (km/s) = 9.05828 7.70580 8.40927
#
# Compressibility (1/GPa) = 0.01139783
#
# Stress axis : x y z
#
# Youngs Moduli (GPa) = 106.97457 72.14626 95.08235
#
# Poissons Ratio (x) = 0.25672 0.24620
# Poissons Ratio (y) = 0.38064 0.47697
# Poissons Ratio (z) = 0.27700 0.36192
#
# Static dielectric constant tensor:
#      x y z
#    x 1.651940 0.000000 0.000000 
#    y 0.000000 1.679040 0.000000 
#    z 0.000000 0.000000 1.669270 
# 
# From -- ./inp_files/74628.got.cif
#   From: 2010.05.17/outbox.cif.g08.bks.cpg/sg65_38_cif.got.tgz:74628.got - 2010.06.03 17:01:31.
