data_PCOD9492417
_publ_section_title
;
Structure prediction by ZEFSAII (Michael W. Deem and Ramdas Pophale) SiO2 
 PCOD9492417
Probable space group: C M M M
;
_chemical_formula_sum "Si O2"
_cell_formula_units_Z 104
_cell_length_a 8.871748
_cell_length_b 20.862366
_cell_length_c 30.414940
_cell_angle_alpha 90.000000
_cell_angle_beta 90.000000
_cell_angle_gamma 90.000000
_cell_volume 5629.369056
_symmetry_space_group_name_H-M "C M M M"
_symmetry_group_IT_number 65
_symmetry_cell_setting 'orthorhombic'
loop_
_space_group_symop_operation_xyz
x,y,z
-x,-y,z
x,-y,-z
-x,y,-z
-x,-y,-z
x,y,-z
-x,y,z
x,-y,z
1/2+x,1/2+y,z
1/2-x,1/2-y,z
1/2+x,1/2-y,-z
1/2-x,1/2+y,-z
1/2-x,1/2-y,-z
1/2+x,1/2+y,-z
1/2-x,1/2+y,z
1/2+x,1/2-y,z
loop_
_atom_site_type_symbol
_atom_site_label
_atom_site_fract_x
_atom_site_fract_y
_atom_site_fract_z
Si Si1 0.820794 0.635087 0.551671
Si Si2 0.680028 0.925142 0.305906
Si Si3 0.318145 0.925318 0.878765
Si Si4 0.681759 0.818640 0.050867
Si Si5 0.171453 0.000000 0.552937
Si Si6 0.321560 0.685065 0.635648
Si Si7 0.172004 0.922432 0.786458
O O1 0.788751 0.646573 0.500000
O O2 0.764648 0.563459 0.563349
O O3 0.731075 0.679174 0.585116
O O4 0.000000 0.640668 0.558318
O O5 0.500000 0.920640 0.309710
O O6 0.758076 0.876849 0.339346
O O7 0.732734 0.906300 0.256776
O O8 0.722716 0.000000 0.313391
O O9 0.500000 0.923849 0.875002
O O10 0.272457 0.876820 0.917394
O O11 0.246993 0.903649 0.832510
O O12 0.275786 0.000000 0.887151
O O13 0.500000 0.814217 0.052374
O O14 0.750000 0.750000 0.064148
O O15 0.725688 0.830551 0.000000
O O16 0.158119 0.000000 0.500000
O O17 0.000000 0.000000 0.570944
O O18 0.500000 0.687233 0.638500
O O19 0.250000 0.750000 0.654440
O O20 0.000000 0.899269 0.782694
O O21 0.168327 0.000000 0.787428
#
# Coordination Sequence:
#
# PCOD9492417 Si02
#       7
#    16  16  16  16   8  16  16
#     4  10  21  38  60  85 115 151 190 232 279 331
#     4  10  21  39  64  90 116 148 187 229 277 335
#     4   9  17  30  50  76 105 137 176 224 276 327
#     4   9  18  32  49  70 100 140 183 226 272 324
#     4   9  17  31  53  83 115 145 181 227 275 319
#     4  12  26  43  62  85 118 153 190 233 282 337
#     4   9  17  31  53  82 113 142 177 223 275 329
#
# _framework density 18.474539
#
# number of rings (size 3 to 8) (size 9 to 14) (size 15 to 20)
#    0.000    2.231    0.000    3.000    1.077    5.846 
#    0.000    2.308    0.000    1.846    0.000    4.308 
#    0.000    0.000    0.000    0.000    0.000    0.000 
#
# Total GULP energy -290196.807081 kJ/mol
# GULP energy per Si atom -5580.707828 kJ/mol
# Density = 1.843249 g / cm^3
# Si number density = 18.474539 Si / 1000 Ang^3
#
#
#
# Elastic Constant Matrix: (Units=GPa)
#
#
# Indices 1 2 3 4 5 6 
#
# 1 90.6863 52.2172 52.5003 0.0000 0.0000 0.0000
# 2 52.2172 105.3409 68.6419 0.0000 0.0000 0.0000
# 3 52.5003 68.6419 105.6961 0.0000 0.0000 0.0000
# 4 0.0000 0.0000 0.0000 5.0763 0.0000 0.0000
# 5 0.0000 0.0000 0.0000 0.0000 26.9286 0.0000
# 6 0.0000 0.0000 0.0000 0.0000 0.0000 26.0538
#
#
#
# Elastic Compliance Matrix: (Units=1/GPa)
#
#
# Indices 1 2 3 4 5 6 
#
# 1 0.016891 -0.005038 -0.005118 0.000000 0.000000 0.000000
# 2 -0.005038 0.017960 -0.009161 0.000000 0.000000 0.000000
# 3 -0.005118 -0.009161 0.017953 0.000000 0.000000 0.000000
# 4 0.000000 0.000000 0.000000 0.196994 0.000000 0.000000
# 5 0.000000 0.000000 0.000000 0.000000 0.037135 0.000000
# 6 0.000000 0.000000 0.000000 0.000000 0.000000 0.038382
#
#
# Mechanical properties :
#
#
# Convention : Reuss Voigt Hill
#
# Bulk Modulus (GPa) = 70.57579 72.04913 71.31246
# Shear Modulus (GPa) = 13.56219 20.16934 16.86576
#
# Velocity S-wave (km/s) = 2.71237 3.30773 3.02473
# Velocity P-wave (km/s) = 6.93497 7.32611 7.13322
#
# Compressibility (1/GPa) = 0.01416917
#
# Stress axis : x y z
#
# Youngs Moduli (GPa) = 59.20409 55.67991 55.70090
#
# Poissons Ratio (x) = 0.28049 0.28509
# Poissons Ratio (y) = 0.29824 0.51030
# Poissons Ratio (z) = 0.30302 0.51011
#
# Static dielectric constant tensor:
#      x y z
#    x 1.621680 0.000000 0.000000 
#    y 0.000000 1.672970 0.000000 
#    z 0.000000 0.000000 1.642250 
# 
# From -- ./inp_files/73301.got.cif
#   From: 2010.05.17/outbox.cif.g08.bks.cpg/sg65_37_cif.got.tgz:73301.got - 2010.06.03 17:01:31.
