data_PCOD9492381
_publ_section_title
;
Structure prediction by ZEFSAII (Michael W. Deem and Ramdas Pophale) SiO2 
 PCOD9492381
Probable space group: C M M M
;
_chemical_formula_sum "Si O2"
_cell_formula_units_Z 90
_cell_length_a 8.687586
_cell_length_b 19.828439
_cell_length_c 28.523491
_cell_angle_alpha 90.000000
_cell_angle_beta 90.000000
_cell_angle_gamma 90.000000
_cell_volume 4913.492758
_symmetry_space_group_name_H-M "C M M M"
_symmetry_group_IT_number 65
_symmetry_cell_setting 'orthorhombic'
loop_
_space_group_symop_operation_xyz
x,y,z
-x,-y,z
x,-y,-z
-x,y,-z
-x,-y,-z
x,y,-z
-x,y,z
x,-y,z
1/2+x,1/2+y,z
1/2-x,1/2-y,z
1/2+x,1/2-y,-z
1/2-x,1/2+y,-z
1/2-x,1/2-y,-z
1/2+x,1/2+y,-z
1/2-x,1/2+y,z
1/2+x,1/2-y,z
loop_
_atom_site_type_symbol
_atom_site_label
_atom_site_fract_x
_atom_site_fract_y
_atom_site_fract_z
Si Si1 0.815040 0.825552 0.363380
Si Si2 0.500000 0.000000 0.000000
Si Si3 0.684090 0.078429 0.716729
Si Si4 0.668915 0.139505 0.000000
Si Si5 0.815309 0.921719 0.181288
Si Si6 0.812691 0.076509 0.446261
Si Si7 0.316015 0.677551 0.901415
O O1 0.750000 0.750000 0.362088
O O2 0.760462 0.870340 0.319496
O O3 0.762163 0.867078 0.409580
O O4 0.000000 0.822319 0.363629
O O5 0.630994 0.939798 0.000000
O O6 0.500000 0.082091 0.712704
O O7 0.734912 0.095359 0.769682
O O8 0.731263 0.000000 0.707887
O O9 0.755522 0.159014 0.952821
O O10 0.500000 0.174450 0.000000
O O11 0.765689 0.876297 0.137730
O O12 0.000000 0.914779 0.187328
O O13 0.782090 0.000000 0.171015
O O14 0.764478 0.089180 0.500000
O O15 0.000000 0.076420 0.445916
O O16 0.764402 0.000000 0.433130
O O17 0.500000 0.679155 0.901993
O O18 0.250000 0.750000 0.888270
#
# Coordination Sequence:
#
# PCOD9492381 Si02
#       7
#    16   2  16   8  16  16  16
#     4  11  22  35  54  80 112 150 187 230 280 332
#     4   8  24  40  62  92 112 152 188 240 288 324
#     4  10  21  38  59  84 111 145 186 232 283 336
#     4  10  22  40  60  86 116 149 190 230 280 332
#     4   9  20  38  60  84 112 146 189 237 283 333
#     4   8  15  30  53  80 107 139 183 230 275 328
#     4  11  23  39  60  87 118 156 192 231 280 334
#
# _framework density 18.31691
#
# number of rings (size 3 to 8) (size 9 to 14) (size 15 to 20)
#    0.267    1.956    0.000    3.200    1.244    4.267 
#    0.000    2.222    0.000    1.600    0.000    6.222 
#    0.000    0.000    0.000    0.000    0.000    0.000 
#
# Total GULP energy -250871.739304 kJ/mol
# GULP energy per Si atom -5574.927540 kJ/mol
# Density = 1.827522 g / cm^3
# Si number density = 18.316910 Si / 1000 Ang^3
#
#
#
# Elastic Constant Matrix: (Units=GPa)
#
#
# Indices 1 2 3 4 5 6 
#
# 1 46.8001 46.2830 45.5809 0.0000 0.0000 0.0000
# 2 46.2830 138.2960 109.1716 0.0000 0.0000 0.0000
# 3 45.5809 109.1716 151.4770 0.0000 0.0000 0.0000
# 4 0.0000 0.0000 0.0000 -17.3381 0.0000 0.0000
# 5 0.0000 0.0000 0.0000 0.0000 5.6849 0.0000
# 6 0.0000 0.0000 0.0000 0.0000 0.0000 18.8762
#
#
#
# Elastic Compliance Matrix: (Units=1/GPa)
#
#
# Indices 1 2 3 4 5 6 
#
# 1 0.033269 -0.007496 -0.004608 0.000000 0.000000 0.000000
# 2 -0.007496 0.018463 -0.011051 0.000000 0.000000 0.000000
# 3 -0.004608 -0.011051 0.015953 0.000000 0.000000 0.000000
# 4 0.000000 0.000000 0.000000 -0.057677 0.000000 0.000000
# 5 0.000000 0.000000 0.000000 0.000000 0.175906 0.000000
# 6 0.000000 0.000000 0.000000 0.000000 0.000000 0.052977
#
#
# Mechanical properties :
#
#
# Convention : Reuss Voigt Hill
#
# Bulk Modulus (GPa) = 46.78538 82.07157 64.42847
# Shear Modulus (GPa) = 17.10405 10.48043 13.79224
#
# Velocity S-wave (km/s) = 3.05910 2.39461 2.74702
# Velocity P-wave (km/s) = 6.17050 7.24909 6.73143
#
# Compressibility (1/GPa) = 0.02137420
#
# Stress axis : x y z
#
# Youngs Moduli (GPa) = 30.05785 54.16109 62.68351
#
# Poissons Ratio (x) = 0.40600 0.28888
# Poissons Ratio (y) = 0.22532 0.69273
# Poissons Ratio (z) = 0.13852 0.59855
#
# Static dielectric constant tensor:
#      x y z
#    x 1.629100 0.000000 0.000000 
#    y 0.000000 1.613980 0.000000 
#    z 0.000000 0.000000 1.611300 
# 
# From -- ./inp_files/67650.got.cif
#   From: 2010.05.17/outbox.cif.g08.bks.cpg/sg65_34_cif.got.tgz:67650.got - 2010.06.03 17:01:31.
