data_PCOD9492903
_publ_section_title
;
Structure prediction by ZEFSAII (Michael W. Deem and Ramdas Pophale) SiO2 
 PCOD9492903
Probable space group: C M M M
;
_chemical_formula_sum "Si O2"
_cell_formula_units_Z 104
_cell_length_a 27.391332
_cell_length_b 20.554637
_cell_length_c 7.792384
_cell_angle_alpha 90.000000
_cell_angle_beta 90.000000
_cell_angle_gamma 90.000000
_cell_volume 4387.259361
_symmetry_space_group_name_H-M "C M M M"
_symmetry_group_IT_number 65
_symmetry_cell_setting 'orthorhombic'
loop_
_space_group_symop_operation_xyz
x,y,z
-x,-y,z
x,-y,-z
-x,y,-z
-x,-y,-z
x,y,-z
-x,y,z
x,-y,z
1/2+x,1/2+y,z
1/2-x,1/2-y,z
1/2+x,1/2-y,-z
1/2-x,1/2+y,-z
1/2-x,1/2-y,-z
1/2+x,1/2+y,-z
1/2-x,1/2+y,z
1/2+x,1/2-y,z
loop_
_atom_site_type_symbol
_atom_site_label
_atom_site_fract_x
_atom_site_fract_y
_atom_site_fract_z
Si Si1 0.771226 0.817713 0.803225
Si Si2 0.799637 0.572634 0.302089
Si Si3 0.000000 0.577477 0.697624
Si Si4 0.444894 0.744281 0.206850
Si Si5 0.054030 0.903863 0.698577
Si Si6 0.661388 0.570379 0.201113
Si Si7 0.103132 0.369753 0.198946
O O1 0.750000 0.750000 0.727048
O O2 0.727840 0.870478 0.797413
O O3 0.815128 0.862668 0.726893
O O4 0.785609 0.801154 0.000000
O O5 0.783291 0.574847 0.500000
O O6 0.791564 0.500000 0.233262
O O7 0.856834 0.589000 0.296076
O O8 0.049567 0.599957 0.786702
O O9 0.000000 0.500000 0.695887
O O10 0.000000 0.600737 0.500000
O O11 0.500000 0.769298 0.240952
O O12 0.442104 0.674111 0.289385
O O13 0.404599 0.795968 0.263378
O O14 0.440672 0.736847 0.000000
O O15 0.055430 0.923603 0.500000
O O16 0.102936 0.928202 0.786434
O O17 0.000000 0.921241 0.768359
O O18 0.677645 0.500000 0.275308
O O19 0.674936 0.570236 0.000000
O O20 0.117659 0.367545 0.000000
#
# Coordination Sequence:
#
# PCOD9492903 Si02
#       7
#    16  16   8  16  16  16  16
#     4  10  23  44  70  99 127 160 207 266 323 380
#     4  11  25  43  62  89 127 167 207 257 319 382
#     4  11  23  37  53  79 119 161 204 259 320 381
#     4   9  18  35  56  81 116 158 204 255 308 364
#     4  10  22  38  59  92 131 169 209 254 311 378
#     4  10  22  41  66  95 129 170 213 259 316 381
#     4  11  22  37  59  86 116 159 213 264 315 376
#
# _framework density 23.705003000000001
#
# number of rings (size 3 to 8) (size 9 to 14) (size 15 to 20)
#    0.000    1.769    0.769    2.538    2.154    8.000 
#    0.000    1.538    0.000    0.000    0.000    0.000 
#    0.000    0.000    0.000    0.000    0.000    0.000 
#
# Total GULP energy -290484.091698 kJ/mol
# GULP energy per Si atom -5586.232533 kJ/mol
# Density = 2.365105 g / cm^3
# Si number density = 23.705003 Si / 1000 Ang^3
#
#
#
# Elastic Constant Matrix: (Units=GPa)
#
#
# Indices 1 2 3 4 5 6 
#
# 1 125.7344 48.1114 -2.1945 0.0000 0.0000 0.0000
# 2 48.1114 172.6378 13.4600 0.0000 0.0000 0.0000
# 3 -2.1945 13.4600 40.6920 0.0000 0.0000 0.0000
# 4 0.0000 0.0000 0.0000 7.3863 0.0000 0.0000
# 5 0.0000 0.0000 0.0000 0.0000 -11.4864 0.0000
# 6 0.0000 0.0000 0.0000 0.0000 0.0000 -14.4745
#
#
#
# Elastic Compliance Matrix: (Units=1/GPa)
#
#
# Indices 1 2 3 4 5 6 
#
# 1 0.008974 -0.002606 0.001346 0.000000 0.000000 0.000000
# 2 -0.002606 0.006702 -0.002358 0.000000 0.000000 0.000000
# 3 0.001346 -0.002358 0.025427 0.000000 0.000000 0.000000
# 4 0.000000 0.000000 0.000000 0.135387 0.000000 0.000000
# 5 0.000000 0.000000 0.000000 0.000000 -0.087059 0.000000
# 6 0.000000 0.000000 0.000000 0.000000 0.000000 -0.069087
#
#
# Mechanical properties :
#
#
# Convention : Reuss Voigt Hill
#
# Bulk Modulus (GPa) = 29.52579 50.86865 40.19722
# Shear Modulus (GPa) = 128.63935 14.93089 71.78512
#
# Velocity S-wave (km/s) = 7.37459 2.51243 5.50894
# Velocity P-wave (km/s) = 9.21929 5.47010 7.58015
#
# Compressibility (1/GPa) = 0.03386870
#
# Stress axis : x y z
#
# Youngs Moduli (GPa) = 111.43477 149.19843 39.32783
#
# Poissons Ratio (x) = 0.38878 -0.05293
# Poissons Ratio (y) = 0.29038 0.09272
# Poissons Ratio (z) = -0.14998 0.35174
#
# Static dielectric constant tensor:
#      x y z
#    x 1.914070 0.000000 0.000000 
#    y 0.000000 1.932650 0.000000 
#    z 0.000000 0.000000 1.903050 
# 
# From -- ./inp_files/16460.got.cif
#   From: 2010.05.17/outbox.cif.g08.bks.cpg/sg65_9_cif.got.tgz:16460.got - 2010.06.03 17:01:31.
