data_PCOD9492101
_publ_section_title
;
Structure prediction by ZEFSAII (Michael W. Deem and Ramdas Pophale) SiO2 
 PCOD9492101
Probable space group: C M M M
;
_chemical_formula_sum "Si O2"
_cell_formula_units_Z 72
_cell_length_a 24.943093
_cell_length_b 14.673785
_cell_length_c 10.266966
_cell_angle_alpha 90.000000
_cell_angle_beta 90.000000
_cell_angle_gamma 90.000000
_cell_volume 3757.807954
_symmetry_space_group_name_H-M "C M M M"
_symmetry_group_IT_number 65
_symmetry_cell_setting 'orthorhombic'
loop_
_space_group_symop_operation_xyz
x,y,z
-x,-y,z
x,-y,-z
-x,y,-z
-x,-y,-z
x,y,-z
-x,y,z
x,-y,z
1/2+x,1/2+y,z
1/2-x,1/2-y,z
1/2+x,1/2-y,-z
1/2-x,1/2+y,-z
1/2-x,1/2-y,-z
1/2+x,1/2+y,-z
1/2-x,1/2+y,z
1/2+x,1/2-y,z
loop_
_atom_site_type_symbol
_atom_site_label
_atom_site_fract_x
_atom_site_fract_y
_atom_site_fract_z
Si Si1 0.645175 0.604761 0.723766
Si Si2 0.941395 0.605061 0.841899
Si Si3 0.938331 0.889518 0.500000
Si Si4 0.733052 0.105596 0.354321
Si Si5 0.335887 0.212608 0.849454
O O1 0.635990 0.500000 0.766508
O O2 0.597236 0.633663 0.626909
O O3 0.702418 0.606141 0.650437
O O4 0.653728 0.680139 0.833838
O O5 0.934950 0.500000 0.801216
O O6 0.890818 0.664160 0.804815
O O7 0.000000 0.637866 0.797511
O O8 0.942211 0.605397 0.000000
O O9 0.000000 0.856449 0.500000
O O10 0.940308 0.000000 0.500000
O O11 0.715523 0.132115 0.500000
O O12 0.708837 0.171347 0.245566
O O13 0.716710 0.000000 0.329816
O O14 0.324080 0.190214 0.000000
#
# Coordination Sequence:
#
# PCOD9492101 Si02
#       5
#    16  16   8  16  16
#     4  10  21  37  57  81 113 153 197 242 293 348
#     4   8  15  31  54  77 105 144 188 232 278 333
#     4   9  18  36  61  84 105 139 195 252 294 340
#     4  10  21  38  60  83 113 153 195 241 292 347
#     4  11  23  35  55  87 120 156 196 238 287 349
#
# _framework density 19.160105999999999
#
# number of rings (size 3 to 8) (size 9 to 14) (size 15 to 20)
#    0.000    2.333    1.111    2.000    1.556    5.333 
#    0.000    2.222    0.000    0.000    0.000    9.333 
#    0.000    0.000    0.000    0.000    0.000    0.000 
#
# Total GULP energy -200684.717749 kJ/mol
# GULP energy per Si atom -5574.575493 kJ/mol
# Density = 1.911650 g / cm^3
# Si number density = 19.160106 Si / 1000 Ang^3
#
#
#
# Elastic Constant Matrix: (Units=GPa)
#
#
# Indices 1 2 3 4 5 6 
#
# 1 116.7064 43.8895 40.7498 0.0000 0.0000 0.0000
# 2 43.8895 72.1802 34.3954 0.0000 0.0000 0.0000
# 3 40.7498 34.3954 75.3836 0.0000 0.0000 0.0000
# 4 0.0000 0.0000 0.0000 21.2142 0.0000 0.0000
# 5 0.0000 0.0000 0.0000 0.0000 19.8251 0.0000
# 6 0.0000 0.0000 0.0000 0.0000 0.0000 22.1213
#
#
#
# Elastic Compliance Matrix: (Units=1/GPa)
#
#
# Indices 1 2 3 4 5 6 
#
# 1 0.011998 -0.005373 -0.004034 0.000000 0.000000 0.000000
# 2 -0.005373 0.020109 -0.006271 0.000000 0.000000 0.000000
# 3 -0.004034 -0.006271 0.018307 0.000000 0.000000 0.000000
# 4 0.000000 0.000000 0.000000 0.047138 0.000000 0.000000
# 5 0.000000 0.000000 0.000000 0.000000 0.050441 0.000000
# 6 0.000000 0.000000 0.000000 0.000000 0.000000 0.045205
#
#
# Mechanical properties :
#
#
# Convention : Reuss Voigt Hill
#
# Bulk Modulus (GPa) = 52.46936 55.81549 54.14242
# Shear Modulus (GPa) = 21.65366 22.31449 21.98407
#
# Velocity S-wave (km/s) = 3.36541 3.41637 3.39099
# Velocity P-wave (km/s) = 6.52269 6.69003 6.60689
#
# Compressibility (1/GPa) = 0.01905874
#
# Stress axis : x y z
#
# Youngs Moduli (GPa) = 83.34985 49.72776 54.62274
#
# Poissons Ratio (x) = 0.26718 0.22035
# Poissons Ratio (y) = 0.44783 0.34254
# Poissons Ratio (z) = 0.33623 0.31184
#
# Static dielectric constant tensor:
#      x y z
#    x 1.690170 0.000000 0.000000 
#    y 0.000000 1.691200 0.000000 
#    z 0.000000 0.000000 1.653450 
# 
# From -- ./inp_files/15774.got.cif
#   From: 2010.05.17/outbox.cif.g08.bks.cpg/sg65_8_cif.got.tgz:15774.got - 2010.06.03 17:01:31.
