data_PCOD9492785
_publ_section_title
;
Structure prediction by ZEFSAII (Michael W. Deem and Ramdas Pophale) SiO2 
 PCOD9492785
Probable space group: C M M M
;
_chemical_formula_sum "Si O2"
_cell_formula_units_Z 64
_cell_length_a 20.836519
_cell_length_b 7.544715
_cell_length_c 20.201316
_cell_angle_alpha 90.000000
_cell_angle_beta 90.000000
_cell_angle_gamma 90.000000
_cell_volume 3175.759951
_symmetry_space_group_name_H-M "C M M M"
_symmetry_group_IT_number 65
_symmetry_cell_setting 'orthorhombic'
loop_
_space_group_symop_operation_xyz
x,y,z
-x,-y,z
x,-y,-z
-x,y,-z
-x,-y,-z
x,y,-z
-x,y,z
x,-y,z
1/2+x,1/2+y,z
1/2-x,1/2-y,z
1/2+x,1/2-y,-z
1/2-x,1/2+y,-z
1/2-x,1/2-y,-z
1/2+x,1/2+y,-z
1/2-x,1/2+y,z
1/2+x,1/2-y,z
loop_
_atom_site_type_symbol
_atom_site_label
_atom_site_fract_x
_atom_site_fract_y
_atom_site_fract_z
Si Si1 0.180161 0.288084 0.787968
Si Si2 0.642847 0.795077 0.925795
Si Si3 0.922534 0.000000 0.574706
Si Si4 0.424582 0.788020 0.682268
Si Si5 0.500000 0.699310 0.920316
O O1 0.173049 0.500000 0.793720
O O2 0.250000 0.250000 0.758758
O O3 0.177264 0.211862 0.862604
O O4 0.121764 0.229414 0.741827
O O5 0.567415 0.790298 0.905654
O O6 0.662309 0.000000 0.931354
O O7 0.650415 0.716824 0.000000
O O8 0.906473 0.826414 0.617872
O O9 0.896767 0.000000 0.500000
O O10 0.000000 0.000000 0.570085
O O11 0.500000 0.755697 0.697448
O O12 0.417204 0.000000 0.671853
O O13 0.500000 0.500000 0.893233
O O14 0.500000 0.689297 0.000000
#
# Coordination Sequence:
#
# PCOD9492785 Si02
#       5
#    16  16   8  16   8
#     4  10  22  36  53  78 106 147 189 229 283 334
#     4   9  18  33  51  71 100 140 186 232 281 336
#     4   9  18  34  60  94 121 145 182 226 278 333
#     4   9  19  36  57  85 118 151 187 230 277 332
#     4   9  17  29  45  71 101 129 167 224 287 330
#
# _framework density 20.152657999999999
#
# number of rings (size 3 to 8) (size 9 to 14) (size 15 to 20)
#    0.000    2.750    0.000    0.375    3.500    3.500 
#    0.000    2.500    0.000    0.750    0.000    0.000 
#    0.000    0.000    0.000    0.000    0.000    0.000 
#
# Total GULP energy -178342.619700 kJ/mol
# GULP energy per Si atom -5573.206866 kJ/mol
# Density = 2.010679 g / cm^3
# Si number density = 20.152658 Si / 1000 Ang^3
#
#
#
# Elastic Constant Matrix: (Units=GPa)
#
#
# Indices 1 2 3 4 5 6 
#
# 1 81.8263 13.6491 60.9817 0.0000 0.0000 0.0000
# 2 13.6491 70.5341 39.4096 0.0000 0.0000 0.0000
# 3 60.9817 39.4096 148.9396 0.0000 0.0000 0.0000
# 4 0.0000 0.0000 0.0000 -7.3404 0.0000 0.0000
# 5 0.0000 0.0000 0.0000 0.0000 -8.2411 0.0000
# 6 0.0000 0.0000 0.0000 0.0000 0.0000 8.2763
#
#
#
# Elastic Compliance Matrix: (Units=1/GPa)
#
#
# Indices 1 2 3 4 5 6 
#
# 1 0.017620 0.000729 -0.007407 0.000000 0.000000 0.000000
# 2 0.000729 0.016667 -0.004709 0.000000 0.000000 0.000000
# 3 -0.007407 -0.004709 0.010993 0.000000 0.000000 0.000000
# 4 0.000000 0.000000 0.000000 -0.136233 0.000000 0.000000
# 5 0.000000 0.000000 0.000000 0.000000 -0.121343 0.000000
# 6 0.000000 0.000000 0.000000 0.000000 0.000000 0.120827
#
#
# Mechanical properties :
#
#
# Convention : Reuss Voigt Hill
#
# Bulk Modulus (GPa) = 44.43218 58.82010 51.62614
# Shear Modulus (GPa) = -81.70858 11.02293 -35.34282
#
# Velocity S-wave (km/s) = -6.37439 2.34128 -4.19233
# Velocity P-wave (km/s) = 5.66405 6.04644 1.49632
#
# Compressibility (1/GPa) = 0.02250621
#
# Stress axis : x y z
#
# Youngs Moduli (GPa) = 56.75514 59.99758 90.96889
#
# Poissons Ratio (x) = -0.04374 0.67381
# Poissons Ratio (y) = -0.04137 0.42834
# Poissons Ratio (z) = 0.42039 0.28251
#
# Static dielectric constant tensor:
#      x y z
#    x 1.720020 0.000000 0.000000 
#    y 0.000000 1.743620 0.000000 
#    z 0.000000 0.000000 1.731180 
# 
# From -- ./inp_files/55312.got.cif
#   From: 2010.05.17/outbox.cif.g08.bks.cpg/sg65_28_cif.got.tgz:55312.got - 2010.06.03 17:01:31.
