data_PCOD9492522
_publ_section_title
;
Structure prediction by ZEFSAII (Michael W. Deem and Ramdas Pophale) SiO2 
 PCOD9492522
Probable space group: C M M M
;
_chemical_formula_sum "Si O2"
_cell_formula_units_Z 64
_cell_length_a 18.138112
_cell_length_b 21.015732
_cell_length_c 8.863229
_cell_angle_alpha 90.000000
_cell_angle_beta 90.000000
_cell_angle_gamma 90.000000
_cell_volume 3378.536158
_symmetry_space_group_name_H-M "C M M M"
_symmetry_group_IT_number 65
_symmetry_cell_setting 'orthorhombic'
loop_
_space_group_symop_operation_xyz
x,y,z
-x,-y,z
x,-y,-z
-x,y,-z
-x,-y,-z
x,y,-z
-x,y,z
x,-y,z
1/2+x,1/2+y,z
1/2-x,1/2-y,z
1/2+x,1/2-y,-z
1/2-x,1/2+y,-z
1/2-x,1/2-y,-z
1/2+x,1/2+y,-z
1/2-x,1/2+y,z
1/2+x,1/2-y,z
loop_
_atom_site_type_symbol
_atom_site_label
_atom_site_fract_x
_atom_site_fract_y
_atom_site_fract_z
Si Si1 0.087323 0.623949 0.319901
Si Si2 0.825859 0.000000 0.318591
Si Si3 0.836423 0.500000 0.180002
Si Si4 0.913604 0.128672 0.318604
Si Si5 0.336868 0.247948 0.180290
O O1 0.097516 0.620135 0.500000
O O2 0.123365 0.562409 0.243877
O O3 0.125571 0.687281 0.257517
O O4 0.000000 0.625957 0.288595
O O5 0.872080 0.936828 0.280564
O O6 0.814004 0.000000 0.500000
O O7 0.747650 0.000000 0.236933
O O8 0.838848 0.500000 0.000000
O O9 0.908348 0.137328 0.500000
O O10 0.875559 0.188095 0.238398
O O11 0.000000 0.124843 0.279949
O O12 0.250000 0.250000 0.217044
O O13 0.344509 0.242801 0.000000
#
# Coordination Sequence:
#
# PCOD9492522 Si02
#       5
#    16   8   8  16  16
#     4  11  24  42  64  89 117 153 199 246 292 348
#     4  10  21  39  63  88 119 159 199 242 292 346
#     4  12  25  40  61  90 123 156 193 240 294 352
#     4  10  21  38  61  89 119 154 199 247 294 347
#     4  11  24  40  59  87 122 158 197 242 294 352
#
# _framework density 18.943116
#
# number of rings (size 3 to 8) (size 9 to 14) (size 15 to 20)
#    0.000    1.250    0.000    5.625    0.000   15.500 
#    0.000    0.000    0.000    2.250    0.000    0.000 
#    0.000    0.000    0.000    0.000    0.000    0.000 
#
# Total GULP energy -179063.545611 kJ/mol
# GULP energy per Si atom -5595.735800 kJ/mol
# Density = 1.890000 g / cm^3
# Si number density = 18.943116 Si / 1000 Ang^3
#
#
#
# Elastic Constant Matrix: (Units=GPa)
#
#
# Indices 1 2 3 4 5 6 
#
# 1 209.3093 132.3818 112.7220 0.0000 0.0000 0.0000
# 2 132.3818 216.5824 93.2078 0.0000 0.0000 0.0000
# 3 112.7220 93.2078 81.0419 0.0000 0.0000 0.0000
# 4 0.0000 0.0000 0.0000 -170.5825 0.0000 0.0000
# 5 0.0000 0.0000 0.0000 0.0000 2.6615 0.0000
# 6 0.0000 0.0000 0.0000 0.0000 0.0000 45.4178
#
#
#
# Elastic Compliance Matrix: (Units=1/GPa)
#
#
# Indices 1 2 3 4 5 6 
#
# 1 0.019064 -0.000477 -0.025968 0.000000 0.000000 0.000000
# 2 -0.000477 0.009154 -0.009865 0.000000 0.000000 0.000000
# 3 -0.025968 -0.009865 0.059803 0.000000 0.000000 0.000000
# 4 0.000000 0.000000 0.000000 -0.005862 0.000000 0.000000
# 5 0.000000 0.000000 0.000000 0.000000 0.375723 0.000000
# 6 0.000000 0.000000 0.000000 0.000000 0.000000 0.022018
#
#
# Mechanical properties :
#
#
# Convention : Reuss Voigt Hill
#
# Bulk Modulus (GPa) = 64.92344 131.50632 98.21488
# Shear Modulus (GPa) = 8.96614 -13.25918 -2.14652
#
# Velocity S-wave (km/s) = 2.17795 -2.64852 -1.06564
# Velocity P-wave (km/s) = 6.37745 7.76012 7.10251
#
# Compressibility (1/GPa) = 0.01540276
#
# Stress axis : x y z
#
# Youngs Moduli (GPa) = 52.45468 109.23966 16.72150
#
# Poissons Ratio (x) = 0.05213 0.43422
# Poissons Ratio (y) = 0.02503 0.16495
# Poissons Ratio (z) = 1.36212 1.07761
#
# Static dielectric constant tensor:
#      x y z
#    x 1.627880 0.000000 0.000000 
#    y 0.000000 1.609750 0.000000 
#    z 0.000000 0.000000 1.633780 
# 
# From -- ./inp_files/8853.got.cif
#   From: 2010.05.17/outbox.cif.g08.bks.cpg/sg65_5_cif.got.tgz:8853.got - 2010.06.03 17:01:31.
