data_PCOD9492455
_publ_section_title
;
Structure prediction by ZEFSAII (Michael W. Deem and Ramdas Pophale) SiO2 
 PCOD9492455
Probable space group: C M M M
;
_chemical_formula_sum "Si O2"
_cell_formula_units_Z 104
_cell_length_a 21.030494
_cell_length_b 30.253826
_cell_length_c 9.002961
_cell_angle_alpha 90.000000
_cell_angle_beta 90.000000
_cell_angle_gamma 90.000000
_cell_volume 5728.160100
_symmetry_space_group_name_H-M "C M M M"
_symmetry_group_IT_number 65
_symmetry_cell_setting 'orthorhombic'
loop_
_space_group_symop_operation_xyz
x,y,z
-x,-y,z
x,-y,-z
-x,y,-z
-x,-y,-z
x,y,-z
-x,y,z
x,-y,z
1/2+x,1/2+y,z
1/2-x,1/2-y,z
1/2+x,1/2-y,-z
1/2-x,1/2+y,-z
1/2-x,1/2-y,-z
1/2+x,1/2+y,-z
1/2-x,1/2+y,z
1/2+x,1/2-y,z
loop_
_atom_site_type_symbol
_atom_site_label
_atom_site_fract_x
_atom_site_fract_y
_atom_site_fract_z
Si Si1 0.927203 0.219660 0.178646
Si Si2 0.684750 0.775056 0.678483
Si Si3 0.779571 0.625688 0.322744
Si Si4 0.500000 0.053494 0.330005
Si Si5 0.866893 0.447964 0.178032
Si Si6 0.423656 0.550725 0.670386
Si Si7 0.357083 0.628981 0.174780
O O1 0.876521 0.252747 0.249379
O O2 0.902094 0.170364 0.213453
O O3 0.000000 0.225776 0.228787
O O4 0.926015 0.224384 0.000000
O O5 0.681267 0.770492 0.500000
O O6 0.750000 0.750000 0.726417
O O7 0.688878 0.826970 0.714326
O O8 0.781781 0.619794 0.500000
O O9 0.814513 0.584760 0.244778
O O10 0.707485 0.629920 0.267537
O O11 0.500000 0.069717 0.500000
O O12 0.564619 0.065636 0.245386
O O13 0.500000 0.000000 0.334244
O O14 0.855730 0.500000 0.215935
O O15 0.868424 0.444732 0.000000
O O16 0.405869 0.562366 0.500000
O O17 0.500000 0.552764 0.679488
O O18 0.404472 0.500000 0.696489
O O19 0.392887 0.584151 0.784166
O O20 0.342468 0.631396 0.000000
#
# Coordination Sequence:
#
# PCOD9492455 Si02
#       7
#    16  16  16   8  16  16  16
#     4  10  22  39  60  88 119 151 191 238 288 347
#     4  10  21  40  63  87 116 151 194 242 290 343
#     4  11  23  39  60  85 115 151 193 238 288 346
#     4   9  17  33  59  87 115 151 193 235 285 343
#     4  10  21  38  60  87 119 153 193 240 289 345
#     4   9  19  36  56  79 110 149 192 236 283 336
#     4  11  22  36  57  84 115 150 191 237 287 343
#
# _framework density 18.155918
#
# number of rings (size 3 to 8) (size 9 to 14) (size 15 to 20)
#    0.000    1.923    1.538    2.538    0.000    6.154 
#    1.385    0.769    0.000    0.000    0.000    0.000 
#    0.000    0.000    0.000    0.000    0.000    0.000 
#
# Total GULP energy -290320.205447 kJ/mol
# GULP energy per Si atom -5583.080874 kJ/mol
# Density = 1.811459 g / cm^3
# Si number density = 18.155918 Si / 1000 Ang^3
#
#
#
# Elastic Constant Matrix: (Units=GPa)
#
#
# Indices 1 2 3 4 5 6 
#
# 1 126.9190 60.3594 39.8178 0.0000 0.0000 0.0000
# 2 60.3594 97.0359 48.5571 0.0000 0.0000 0.0000
# 3 39.8178 48.5571 49.1469 0.0000 0.0000 0.0000
# 4 0.0000 0.0000 0.0000 28.1665 0.0000 0.0000
# 5 0.0000 0.0000 0.0000 0.0000 35.1336 0.0000
# 6 0.0000 0.0000 0.0000 0.0000 0.0000 33.1307
#
#
#
# Elastic Compliance Matrix: (Units=1/GPa)
#
#
# Indices 1 2 3 4 5 6 
#
# 1 0.011675 -0.005002 -0.004517 0.000000 0.000000 0.000000
# 2 -0.005002 0.022526 -0.018203 0.000000 0.000000 0.000000
# 3 -0.004517 -0.018203 0.041991 0.000000 0.000000 0.000000
# 4 0.000000 0.000000 0.000000 0.035503 0.000000 0.000000
# 5 0.000000 0.000000 0.000000 0.000000 0.028463 0.000000
# 6 0.000000 0.000000 0.000000 0.000000 0.000000 0.030184
#
#
# Mechanical properties :
#
#
# Convention : Reuss Voigt Hill
#
# Bulk Modulus (GPa) = 48.19678 63.39672 55.79675
# Shear Modulus (GPa) = 21.48689 27.57733 24.53211
#
# Velocity S-wave (km/s) = 3.44388 3.90156 3.67984
# Velocity P-wave (km/s) = 6.51287 7.43572 6.98954
#
# Compressibility (1/GPa) = 0.02074828
#
# Stress axis : x y z
#
# Youngs Moduli (GPa) = 85.65411 44.39411 23.81463
#
# Poissons Ratio (x) = 0.22205 0.10757
# Poissons Ratio (y) = 0.42843 0.43349
# Poissons Ratio (z) = 0.38689 0.80810
#
# Static dielectric constant tensor:
#      x y z
#    x 1.600800 0.000000 0.000000 
#    y 0.000000 1.612060 0.000000 
#    z 0.000000 0.000000 1.613300 
# 
# From -- ./inp_files/12393.got.cif
#   From: 2010.05.17/outbox.cif.g08.bks.cpg/sg65_7_cif.got.tgz:12393.got - 2010.06.03 17:01:31.
