data_PCOD9492281
_publ_section_title
;
Structure prediction by ZEFSAII (Michael W. Deem and Ramdas Pophale) SiO2 
 PCOD9492281
Probable space group: C M M M
;
_chemical_formula_sum "Si O2"
_cell_formula_units_Z 88
_cell_length_a 16.581033
_cell_length_b 7.759676
_cell_length_c 34.220169
_cell_angle_alpha 90.000000
_cell_angle_beta 90.000000
_cell_angle_gamma 90.000000
_cell_volume 4402.884792
_symmetry_space_group_name_H-M "C M M M"
_symmetry_group_IT_number 65
_symmetry_cell_setting 'orthorhombic'
loop_
_space_group_symop_operation_xyz
x,y,z
-x,-y,z
x,-y,-z
-x,y,-z
-x,-y,-z
x,y,-z
-x,y,z
x,-y,z
1/2+x,1/2+y,z
1/2-x,1/2-y,z
1/2+x,1/2-y,-z
1/2-x,1/2+y,-z
1/2-x,1/2-y,-z
1/2+x,1/2+y,-z
1/2-x,1/2+y,z
1/2+x,1/2-y,z
loop_
_atom_site_type_symbol
_atom_site_label
_atom_site_fract_x
_atom_site_fract_y
_atom_site_fract_z
Si Si1 0.596228 0.000000 0.690346
Si Si2 0.160503 0.700703 0.912496
Si Si3 0.000000 0.711573 0.045470
Si Si4 0.098342 0.196812 0.544298
Si Si5 0.409765 0.707279 0.167570
Si Si6 0.901162 0.500000 0.399019
Si Si7 0.656156 0.706033 0.747418
O O1 0.623663 0.170903 0.713390
O O2 0.500000 0.000000 0.689484
O O3 0.626339 0.000000 0.645694
O O4 0.154991 0.500000 0.919552
O O5 0.250000 0.750000 0.925511
O O6 0.081682 0.777818 0.933718
O O7 0.149641 0.733028 0.866295
O O8 0.000000 0.500000 0.047760
O O9 0.000000 0.756978 0.000000
O O10 0.122690 0.244960 0.500000
O O11 0.125160 0.332506 0.576575
O O12 0.000000 0.198175 0.544479
O O13 0.123567 0.000000 0.551887
O O14 0.500000 0.771799 0.158734
O O15 0.410429 0.500000 0.166446
O O16 0.385531 0.754615 0.211485
O O17 0.000000 0.500000 0.398713
O O18 0.644912 0.500000 0.740637
O O19 0.750000 0.750000 0.751734
#
# Coordination Sequence:
#
# PCOD9492281 Si02
#       7
#     8  16   8  16  16   8  16
#     4  11  24  39  58  87 119 161 203 257 300 370
#     4  11  22  37  60  90 119 158 200 244 300 357
#     4   9  20  40  61  85 121 161 203 247 299 363
#     4   8  13  22  39  65 100 143 187 234 293 361
#     4  10  21  37  60  90 121 149 186 245 304 357
#     4   9  17  28  43  68 106 147 191 233 298 352
#     4  11  23  41  62  86 116 158 202 250 308 366
#
# _framework density 19.986895000000001
#
# number of rings (size 3 to 8) (size 9 to 14) (size 15 to 20)
#    0.000    2.091    1.818    2.455    1.273    4.727 
#    0.000    1.818    0.000    3.818    0.000    0.000 
#    0.000    2.909    0.000    0.000    0.000    0.000 
#
# Total GULP energy -245584.600936 kJ/mol
# GULP energy per Si atom -5581.468203 kJ/mol
# Density = 1.994140 g / cm^3
# Si number density = 19.986895 Si / 1000 Ang^3
#
#
#
# Elastic Constant Matrix: (Units=GPa)
#
#
# Indices 1 2 3 4 5 6 
#
# 1 90.7245 25.3688 51.9491 0.0000 0.0000 0.0000
# 2 25.3688 76.6615 52.6725 0.0000 0.0000 0.0000
# 3 51.9491 52.6725 129.3683 0.0000 0.0000 0.0000
# 4 0.0000 0.0000 0.0000 2.0865 0.0000 0.0000
# 5 0.0000 0.0000 0.0000 0.0000 14.7055 0.0000
# 6 0.0000 0.0000 0.0000 0.0000 0.0000 40.5110
#
#
#
# Elastic Compliance Matrix: (Units=1/GPa)
#
#
# Indices 1 2 3 4 5 6 
#
# 1 0.014380 -0.001098 -0.005327 0.000000 0.000000 0.000000
# 2 -0.001098 0.018195 -0.006967 0.000000 0.000000 0.000000
# 3 -0.005327 -0.006967 0.012706 0.000000 0.000000 0.000000
# 4 0.000000 0.000000 0.000000 0.479260 0.000000 0.000000
# 5 0.000000 0.000000 0.000000 0.000000 0.068002 0.000000
# 6 0.000000 0.000000 0.000000 0.000000 0.000000 0.024685
#
#
# Mechanical properties :
#
#
# Convention : Reuss Voigt Hill
#
# Bulk Modulus (GPa) = 54.06805 61.85946 57.96376
# Shear Modulus (GPa) = 7.69022 22.57819 15.13420
#
# Velocity S-wave (km/s) = 1.96367 3.36467 2.75472
# Velocity P-wave (km/s) = 5.67907 6.79057 6.25954
#
# Compressibility (1/GPa) = 0.01849521
#
# Stress axis : x y z
#
# Youngs Moduli (GPa) = 69.54170 54.96112 78.70521
#
# Poissons Ratio (x) = 0.06037 0.41928
# Poissons Ratio (y) = 0.07638 0.54833
# Poissons Ratio (z) = 0.37046 0.38291
#
# Static dielectric constant tensor:
#      x y z
#    x 1.737340 0.000000 0.000000 
#    y 0.000000 1.490020 0.000000 
#    z 0.000000 0.000000 1.691210 
# 
# From -- ./inp_files/78014.got.cif
#   From: 2010.05.17/outbox.cif.g08.bks.cpg/sg65_40_cif.got.tgz:78014.got - 2010.06.03 17:01:31.
