data_PCOD9492279
_publ_section_title
;
Structure prediction by ZEFSAII (Michael W. Deem and Ramdas Pophale) SiO2 
 PCOD9492279
Probable space group: C M M M
;
_chemical_formula_sum "Si O2"
_cell_formula_units_Z 88
_cell_length_a 22.785552
_cell_length_b 22.479274
_cell_length_c 7.858970
_cell_angle_alpha 90.000000
_cell_angle_beta 90.000000
_cell_angle_gamma 90.000000
_cell_volume 4025.385391
_symmetry_space_group_name_H-M "C M M M"
_symmetry_group_IT_number 65
_symmetry_cell_setting 'orthorhombic'
loop_
_space_group_symop_operation_xyz
x,y,z
-x,-y,z
x,-y,-z
-x,y,-z
-x,-y,-z
x,y,-z
-x,y,z
x,-y,z
1/2+x,1/2+y,z
1/2-x,1/2-y,z
1/2+x,1/2-y,-z
1/2-x,1/2+y,-z
1/2-x,1/2-y,-z
1/2+x,1/2+y,-z
1/2-x,1/2+y,z
1/2+x,1/2-y,z
loop_
_atom_site_type_symbol
_atom_site_label
_atom_site_fract_x
_atom_site_fract_y
_atom_site_fract_z
Si Si1 0.370684 0.117119 0.804490
Si Si2 0.255088 0.431001 0.298849
Si Si3 0.150044 0.161489 0.690897
Si Si4 0.067608 0.262772 0.701816
Si Si5 0.569779 0.434715 0.800336
Si Si6 0.930736 0.500000 0.694026
O O1 0.309124 0.097351 0.722818
O O2 0.406694 0.171253 0.723509
O O3 0.409641 0.058449 0.788095
O O4 0.359556 0.132435 0.000000
O O5 0.268576 0.435249 0.500000
O O6 0.257081 0.500000 0.232347
O O7 0.299957 0.380850 0.227369
O O8 0.170558 0.178551 0.500000
O O9 0.118187 0.218535 0.773594
O O10 0.096535 0.115405 0.685851
O O11 0.064377 0.249651 0.500000
O O12 0.000000 0.257077 0.768087
O O13 0.500000 0.435463 0.786208
O O14 0.592915 0.500000 0.753925
O O15 0.583350 0.424183 0.000000
O O16 0.906251 0.500000 0.500000
O O17 0.000000 0.500000 0.683160
#
# Coordination Sequence:
#
# PCOD9492279 Si02
#       6
#    16  16  16  16  16   8
#     4  12  25  40  62  92 124 159 204 254 301 361
#     4  10  21  39  63  89 123 164 205 252 309 368
#     4  10  21  37  60  89 117 155 208 257 299 352
#     4  10  22  41  63  88 123 164 204 251 310 369
#     4   9  18  32  50  76 113 156 199 247 309 371
#     4  11  23  41  67  95 123 157 196 245 312 375
#
# _framework density 21.861260000000001
#
# number of rings (size 3 to 8) (size 9 to 14) (size 15 to 20)
#    0.000    1.727    0.909    4.091    0.000    7.636 
#    0.000    4.545    0.000    0.000    0.000    0.000 
#    0.000    0.000    0.000    0.000    0.000    0.000 
#
# Total GULP energy -245381.673619 kJ/mol
# GULP energy per Si atom -5576.856219 kJ/mol
# Density = 2.181150 g / cm^3
# Si number density = 21.861260 Si / 1000 Ang^3
#
#
#
# Elastic Constant Matrix: (Units=GPa)
#
#
# Indices 1 2 3 4 5 6 
#
# 1 118.6364 62.4957 -2.0903 0.0000 0.0000 0.0000
# 2 62.4957 132.7605 -2.3360 0.0000 0.0000 0.0000
# 3 -2.0903 -2.3360 28.2425 0.0000 0.0000 0.0000
# 4 0.0000 0.0000 0.0000 41.8247 0.0000 0.0000
# 5 0.0000 0.0000 0.0000 0.0000 -19.0617 0.0000
# 6 0.0000 0.0000 0.0000 0.0000 0.0000 38.4830
#
#
#
# Elastic Compliance Matrix: (Units=1/GPa)
#
#
# Indices 1 2 3 4 5 6 
#
# 1 0.011213 -0.005271 0.000394 0.000000 0.000000 0.000000
# 2 -0.005271 0.010022 0.000439 0.000000 0.000000 0.000000
# 3 0.000394 0.000439 0.035473 0.000000 0.000000 0.000000
# 4 0.000000 0.000000 0.000000 0.023909 0.000000 0.000000
# 5 0.000000 0.000000 0.000000 0.000000 -0.052461 0.000000
# 6 0.000000 0.000000 0.000000 0.000000 0.000000 0.025986
#
#
# Mechanical properties :
#
#
# Convention : Reuss Voigt Hill
#
# Bulk Modulus (GPa) = 20.90743 43.97537 32.44140
# Shear Modulus (GPa) = 63.32153 27.02054 45.17103
#
# Velocity S-wave (km/s) = 5.38777 3.51949 4.55054
# Velocity P-wave (km/s) = 6.94899 6.05600 6.51781
#
# Compressibility (1/GPa) = 0.04782988
#
# Stress axis : x y z
#
# Youngs Moduli (GPa) = 89.18242 99.78475 28.19044
#
# Poissons Ratio (x) = 0.52601 -0.01110
# Poissons Ratio (y) = 0.47012 -0.01237
# Poissons Ratio (z) = -0.03513 -0.04378
#
# Static dielectric constant tensor:
#      x y z
#    x 1.822330 0.000000 0.000000 
#    y 0.000000 1.805300 0.000000 
#    z 0.000000 0.000000 1.843480 
# 
# From -- ./inp_files/13954.got.cif
#   From: 2010.05.17/outbox.cif.g08.bks.cpg/sg65_7_cif.got.tgz:13954.got - 2010.06.03 17:01:31.
