data_PCOD9492811
_publ_section_title
;
Structure prediction by ZEFSAII (Michael W. Deem and Ramdas Pophale) SiO2 
 PCOD9492811
Probable space group: C M M M
;
_chemical_formula_sum "Si O2"
_cell_formula_units_Z 72
_cell_length_a 21.834110
_cell_length_b 7.755559
_cell_length_c 22.518064
_cell_angle_alpha 90.000000
_cell_angle_beta 90.000000
_cell_angle_gamma 90.000000
_cell_volume 3813.112768
_symmetry_space_group_name_H-M "C M M M"
_symmetry_group_IT_number 65
_symmetry_cell_setting 'orthorhombic'
loop_
_space_group_symop_operation_xyz
x,y,z
-x,-y,z
x,-y,-z
-x,y,-z
-x,-y,-z
x,y,-z
-x,y,z
x,-y,z
1/2+x,1/2+y,z
1/2-x,1/2-y,z
1/2+x,1/2-y,-z
1/2-x,1/2+y,-z
1/2-x,1/2-y,-z
1/2+x,1/2+y,-z
1/2-x,1/2+y,z
1/2+x,1/2-y,z
loop_
_atom_site_type_symbol
_atom_site_label
_atom_site_fract_x
_atom_site_fract_y
_atom_site_fract_z
Si Si1 0.128535 0.797386 0.378166
Si Si2 0.819714 0.206675 0.500000
Si Si3 0.178595 0.698194 0.748824
Si Si4 0.073470 0.000000 0.066706
Si Si5 0.500000 0.207444 0.429337
Si Si6 0.572392 0.208594 0.161339
O O1 0.155119 0.720525 0.438892
O O2 0.156814 0.719766 0.319027
O O3 0.057357 0.772343 0.391347
O O4 0.143172 0.000000 0.374801
O O5 0.750000 0.250000 0.500000
O O6 0.832078 0.000000 0.500000
O O7 0.179025 0.500000 0.764500
O O8 0.250000 0.750000 0.755692
O O9 0.122677 0.768222 0.789618
O O10 0.087348 0.826885 0.104194
O O11 0.000000 0.000000 0.061765
O O12 0.099454 0.000000 0.000000
O O13 0.500000 0.264901 0.500000
O O14 0.500000 0.000000 0.430808
O O15 0.500000 0.240575 0.177615
O O16 0.576708 0.000000 0.151477
#
# Coordination Sequence:
#
# PCOD9492811 Si02
#       6
#    16   8  16   8   8  16
#     4  11  23  39  58  81 111 148 194 246 303 363
#     4  10  22  37  54  75 103 140 184 242 297 360
#     4  11  24  40  60  88 119 159 203 249 301 365
#     4   9  18  34  62  98 130 161 202 248 295 357
#     4  11  23  39  59  83 111 149 189 242 311 372
#     4   9  20  38  60  90 127 164 203 252 303 356
#
# _framework density 18.882211000000002
#
# number of rings (size 3 to 8) (size 9 to 14) (size 15 to 20)
#    0.000    1.778    1.111    2.333    4.667    4.444 
#    0.000    2.222    0.000    0.667    0.000    0.000 
#    0.000    0.000    0.000    0.000    0.000    0.000 
#
# Total GULP energy -200463.653936 kJ/mol
# GULP energy per Si atom -5568.434832 kJ/mol
# Density = 1.883923 g / cm^3
# Si number density = 18.882211 Si / 1000 Ang^3
#
#
#
# Elastic Constant Matrix: (Units=GPa)
#
#
# Indices 1 2 3 4 5 6 
#
# 1 138.5660 12.2947 77.7592 0.0000 0.0000 0.0000
# 2 12.2947 36.7447 23.6032 0.0000 0.0000 0.0000
# 3 77.7592 23.6032 140.8897 0.0000 0.0000 0.0000
# 4 0.0000 0.0000 0.0000 44.7246 0.0000 0.0000
# 5 0.0000 0.0000 0.0000 0.0000 -25.3104 0.0000
# 6 0.0000 0.0000 0.0000 0.0000 0.0000 6.5414
#
#
#
# Elastic Compliance Matrix: (Units=1/GPa)
#
#
# Indices 1 2 3 4 5 6 
#
# 1 0.010457 0.000234 -0.005810 0.000000 0.000000 0.000000
# 2 0.000234 0.030502 -0.005239 0.000000 0.000000 0.000000
# 3 -0.005810 -0.005239 0.011182 0.000000 0.000000 0.000000
# 4 0.000000 0.000000 0.000000 0.022359 0.000000 0.000000
# 5 0.000000 0.000000 0.000000 0.000000 -0.039509 0.000000
# 6 0.000000 0.000000 0.000000 0.000000 0.000000 0.152873
#
#
# Mechanical properties :
#
#
# Convention : Reuss Voigt Hill
#
# Bulk Modulus (GPa) = 32.77669 60.39051 46.58360
# Shear Modulus (GPa) = 22.76202 18.69401 20.72801
#
# Velocity S-wave (km/s) = 3.47576 3.14989 3.31683
# Velocity P-wave (km/s) = 5.78827 6.72914 6.27636
#
# Compressibility (1/GPa) = 0.03050949
#
# Stress axis : x y z
#
# Youngs Moduli (GPa) = 95.63318 32.78481 89.42780
#
# Poissons Ratio (x) = -0.00766 0.51960
# Poissons Ratio (y) = -0.02233 0.46850
# Poissons Ratio (z) = 0.55566 0.17176
#
# Static dielectric constant tensor:
#      x y z
#    x 2.611110 0.000000 0.000000 
#    y 0.000000 1.703010 0.000000 
#    z 0.000000 0.000000 1.653910 
# 
# From -- ./inp_files/64384.got.cif
#   From: 2010.05.17/outbox.cif.g08.bks.cpg/sg65_33_cif.got.tgz:64384.got - 2010.06.03 17:01:31.
