data_PCOD9492364
_publ_section_title
;
Structure prediction by ZEFSAII (Michael W. Deem and Ramdas Pophale) SiO2 
 PCOD9492364
Probable space group: C M M M
;
_chemical_formula_sum "Si O2"
_cell_formula_units_Z 64
_cell_length_a 17.894391
_cell_length_b 25.429194
_cell_length_c 7.349101
_cell_angle_alpha 90.000000
_cell_angle_beta 90.000000
_cell_angle_gamma 90.000000
_cell_volume 3344.134480
_symmetry_space_group_name_H-M "C M M M"
_symmetry_group_IT_number 65
_symmetry_cell_setting 'orthorhombic'
loop_
_space_group_symop_operation_xyz
x,y,z
-x,-y,z
x,-y,-z
-x,y,-z
-x,-y,-z
x,y,-z
-x,y,z
x,-y,z
1/2+x,1/2+y,z
1/2-x,1/2-y,z
1/2+x,1/2-y,-z
1/2-x,1/2+y,-z
1/2-x,1/2-y,-z
1/2+x,1/2+y,-z
1/2-x,1/2+y,z
1/2+x,1/2-y,z
loop_
_atom_site_type_symbol
_atom_site_label
_atom_site_fract_x
_atom_site_fract_y
_atom_site_fract_z
Si Si1 0.585011 0.148102 0.221069
Si Si2 0.703493 0.939496 0.215855
Si Si3 0.662351 0.257777 0.782580
Si Si4 0.412229 0.332967 0.500000
Si Si5 0.165639 0.060417 0.500000
O O1 0.500000 0.141883 0.283941
O O2 0.640665 0.101626 0.276874
O O3 0.618919 0.204549 0.271162
O O4 0.583693 0.146899 0.000000
O O5 0.779331 0.931975 0.327551
O O6 0.679189 0.000000 0.245327
O O7 0.716154 0.932246 0.000000
O O8 0.750000 0.250000 0.741884
O O9 0.627269 0.305724 0.672811
O O10 0.655109 0.265172 0.000000
O O11 0.500000 0.321714 0.500000
O O12 0.396118 0.394883 0.500000
O O13 0.138973 0.000000 0.500000
#
# Coordination Sequence:
#
# PCOD9492364 Si02
#       5
#    16  16  16   8   8
#     4   9  17  30  50  78 112 145 176 217 270 320
#     4   9  18  34  56  79 105 142 184 222 263 315
#     4  10  21  38  59  82 112 149 188 229 270 321
#     4  12  25  38  58  86 112 143 182 225 280 339
#     4  10  22  40  59  79 104 135 179 230 273 323
#
# _framework density 19.137986999999999
#
# number of rings (size 3 to 8) (size 9 to 14) (size 15 to 20)
#    0.000    2.250    0.000    2.625    0.000    6.250 
#    0.000    4.375    0.000    2.250    0.000    5.250 
#    0.000    0.000    0.000    0.000    0.000    0.000 
#
# Total GULP energy -178778.104288 kJ/mol
# GULP energy per Si atom -5586.815759 kJ/mol
# Density = 1.909443 g / cm^3
# Si number density = 19.137987 Si / 1000 Ang^3
#
#
#
# Elastic Constant Matrix: (Units=GPa)
#
#
# Indices 1 2 3 4 5 6 
#
# 1 86.9069 44.1097 32.9734 0.0000 0.0000 0.0000
# 2 44.1097 100.5095 32.8386 0.0000 0.0000 0.0000
# 3 32.9734 32.8386 78.0953 0.0000 0.0000 0.0000
# 4 0.0000 0.0000 0.0000 33.0814 0.0000 0.0000
# 5 0.0000 0.0000 0.0000 0.0000 49.0143 0.0000
# 6 0.0000 0.0000 0.0000 0.0000 0.0000 9.6808
#
#
#
# Elastic Compliance Matrix: (Units=1/GPa)
#
#
# Indices 1 2 3 4 5 6 
#
# 1 0.016017 -0.005587 -0.004413 0.000000 0.000000 0.000000
# 2 -0.005587 0.013483 -0.003310 0.000000 0.000000 0.000000
# 3 -0.004413 -0.003310 0.016060 0.000000 0.000000 0.000000
# 4 0.000000 0.000000 0.000000 0.030228 0.000000 0.000000
# 5 0.000000 0.000000 0.000000 0.000000 0.020402 0.000000
# 6 0.000000 0.000000 0.000000 0.000000 0.000000 0.103297
#
#
# Mechanical properties :
#
#
# Convention : Reuss Voigt Hill
#
# Bulk Modulus (GPa) = 52.80342 53.92831 53.36587
# Shear Modulus (GPa) = 21.51254 28.72797 25.12026
#
# Velocity S-wave (km/s) = 3.35636 3.87860 3.62689
# Velocity P-wave (km/s) = 6.53230 6.94967 6.74422
#
# Compressibility (1/GPa) = 0.01893817
#
# Stress axis : x y z
#
# Youngs Moduli (GPa) = 62.43447 74.16788 62.26562
#
# Poissons Ratio (x) = 0.41440 0.27479
# Poissons Ratio (y) = 0.34884 0.20613
# Poissons Ratio (z) = 0.27554 0.24553
#
# Static dielectric constant tensor:
#      x y z
#    x 1.617790 0.000000 0.000000 
#    y 0.000000 1.651820 0.000000 
#    z 0.000000 0.000000 1.698450 
# 
# From -- ./inp_files/6776.got.cif
#   From: 2010.05.17/outbox.cif.g08.bks.cpg/sg65_4_cif.got.tgz:6776.got - 2010.06.03 17:01:31.
