data_PCOD9492718
_publ_section_title
;
Structure prediction by ZEFSAII (Michael W. Deem and Ramdas Pophale) SiO2 
 PCOD9492718
Probable space group: C M M M
;
_chemical_formula_sum "Si O2"
_cell_formula_units_Z 72
_cell_length_a 15.907254
_cell_length_b 9.816738
_cell_length_c 24.053526
_cell_angle_alpha 90.000000
_cell_angle_beta 90.000000
_cell_angle_gamma 90.000000
_cell_volume 3756.134754
_symmetry_space_group_name_H-M "C M M M"
_symmetry_group_IT_number 65
_symmetry_cell_setting 'orthorhombic'
loop_
_space_group_symop_operation_xyz
x,y,z
-x,-y,z
x,-y,-z
-x,y,-z
-x,-y,-z
x,y,-z
-x,y,z
x,-y,z
1/2+x,1/2+y,z
1/2-x,1/2-y,z
1/2+x,1/2-y,-z
1/2-x,1/2+y,-z
1/2-x,1/2-y,-z
1/2+x,1/2+y,-z
1/2-x,1/2+y,z
1/2+x,1/2-y,z
loop_
_atom_site_type_symbol
_atom_site_label
_atom_site_fract_x
_atom_site_fract_y
_atom_site_fract_z
Si Si1 0.333604 0.832762 0.365015
Si Si2 0.854701 0.500000 0.063857
Si Si3 0.400768 0.743424 0.137871
Si Si4 0.500000 0.163958 0.562885
Si Si5 0.655329 0.500000 0.938387
Si Si6 0.102442 0.161983 0.739502
O O1 0.250000 0.750000 0.383876
O O2 0.414137 0.802336 0.404427
O O3 0.358230 0.761787 0.306447
O O4 0.322753 0.000000 0.361806
O O5 0.878455 0.375376 0.103006
O O6 0.755055 0.500000 0.057284
O O7 0.889701 0.500000 0.000000
O O8 0.500000 0.739441 0.144721
O O9 0.372401 0.626355 0.097126
O O10 0.367781 0.714947 0.199941
O O11 0.500000 0.218713 0.500000
O O12 0.500000 0.000000 0.559839
O O13 0.618382 0.500000 0.000000
O O14 0.000000 0.170531 0.735846
O O15 0.123617 0.000000 0.732761
#
# Coordination Sequence:
#
# PCOD9492718 Si02
#       6
#    16   8  16   8   8  16
#     4  11  23  40  66 100 134 179 224 267 325 383
#     4  11  25  41  57  85 123 159 197 256 321 380
#     4  11  23  40  62  88 114 155 204 259 315 377
#     4   9  20  42  69  99 139 183 224 271 318 371
#     4  11  23  41  61  81 115 157 203 252 317 386
#     4  10  21  40  63  89 127 164 208 273 333 383
#
# _framework density 19.168641999999998
#
# number of rings (size 3 to 8) (size 9 to 14) (size 15 to 20)
#    0.000    1.444    2.222    2.667    1.556    6.667 
#    0.000    0.000    0.000    4.667    0.000    0.000 
#    0.000    0.000    0.000    0.000    0.000    0.000 
#
# Total GULP energy -200722.654717 kJ/mol
# GULP energy per Si atom -5575.629298 kJ/mol
# Density = 1.912501 g / cm^3
# Si number density = 19.168642 Si / 1000 Ang^3
#
#
#
# Elastic Constant Matrix: (Units=GPa)
#
#
# Indices 1 2 3 4 5 6 
#
# 1 99.8002 44.1184 61.7814 0.0000 0.0000 0.0000
# 2 44.1184 165.0115 73.3566 0.0000 0.0000 0.0000
# 3 61.7814 73.3566 176.1453 0.0000 0.0000 0.0000
# 4 0.0000 0.0000 0.0000 24.2250 0.0000 0.0000
# 5 0.0000 0.0000 0.0000 0.0000 -352.0063 0.0000
# 6 0.0000 0.0000 0.0000 0.0000 0.0000 39.7511
#
#
#
# Elastic Compliance Matrix: (Units=1/GPa)
#
#
# Indices 1 2 3 4 5 6 
#
# 1 0.013225 -0.001809 -0.003885 0.000000 0.000000 0.000000
# 2 -0.001809 0.007684 -0.002566 0.000000 0.000000 0.000000
# 3 -0.003885 -0.002566 0.008108 0.000000 0.000000 0.000000
# 4 0.000000 0.000000 0.000000 0.041280 0.000000 0.000000
# 5 0.000000 0.000000 0.000000 0.000000 -0.002841 0.000000
# 6 0.000000 0.000000 0.000000 0.000000 0.000000 0.025157
#
#
# Mechanical properties :
#
#
# Convention : Reuss Voigt Hill
#
# Bulk Modulus (GPa) = 80.01223 88.82999 84.42111
# Shear Modulus (GPa) = 44.13128 -40.15934 1.98597
#
# Velocity S-wave (km/s) = 4.80340 -4.58214 1.01897
# Velocity P-wave (km/s) = 8.52029 4.29502 6.74695
#
# Compressibility (1/GPa) = 0.01249809
#
# Stress axis : x y z
#
# Youngs Moduli (GPa) = 75.61596 130.13358 123.32874
#
# Poissons Ratio (x) = 0.23536 0.47916
# Poissons Ratio (y) = 0.13676 0.31644
# Poissons Ratio (z) = 0.29379 0.33390
#
# Static dielectric constant tensor:
#      x y z
#    x 1.691900 0.000000 0.000000 
#    y 0.000000 1.611430 0.000000 
#    z 0.000000 0.000000 1.681840 
# 
# From -- ./inp_files/74661.got.cif
#   From: 2010.05.17/outbox.cif.g08.bks.cpg/sg65_38_cif.got.tgz:74661.got - 2010.06.03 17:01:31.
