data_PCOD9492707
_publ_section_title
;
Structure prediction by ZEFSAII (Michael W. Deem and Ramdas Pophale) SiO2 
 PCOD9492707
Probable space group: C M M M
;
_chemical_formula_sum "Si O2"
_cell_formula_units_Z 72
_cell_length_a 15.036435
_cell_length_b 27.823881
_cell_length_c 9.896940
_cell_angle_alpha 90.000000
_cell_angle_beta 90.000000
_cell_angle_gamma 90.000000
_cell_volume 4140.602365
_symmetry_space_group_name_H-M "C M M M"
_symmetry_group_IT_number 65
_symmetry_cell_setting 'orthorhombic'
loop_
_space_group_symop_operation_xyz
x,y,z
-x,-y,z
x,-y,-z
-x,y,-z
-x,-y,-z
x,y,-z
-x,y,z
x,-y,z
1/2+x,1/2+y,z
1/2-x,1/2-y,z
1/2+x,1/2-y,-z
1/2-x,1/2+y,-z
1/2-x,1/2-y,-z
1/2+x,1/2+y,-z
1/2-x,1/2+y,z
1/2+x,1/2-y,z
loop_
_atom_site_type_symbol
_atom_site_label
_atom_site_fract_x
_atom_site_fract_y
_atom_site_fract_z
Si Si1 0.607640 0.943439 0.500000
Si Si2 0.500000 0.183032 0.164531
Si Si3 0.000000 0.941672 0.665371
Si Si4 0.164282 0.615479 0.240943
Si Si5 0.134977 0.875785 0.834331
Si Si6 0.100397 0.556167 0.000000
Si Si7 0.500000 0.292250 0.838581
O O1 0.500000 0.941992 0.500000
O O2 0.644640 0.913456 0.624502
O O3 0.632845 0.000000 0.500000
O O4 0.588797 0.155806 0.215582
O O5 0.500000 0.238180 0.214729
O O6 0.500000 0.182599 0.000000
O O7 0.083496 0.916918 0.746387
O O8 0.000000 0.931836 0.500000
O O9 0.000000 0.000000 0.679928
O O10 0.265044 0.631262 0.217741
O O11 0.149281 0.575597 0.127913
O O12 0.083436 0.826038 0.805940
O O13 0.131486 0.884551 0.000000
O O14 0.096215 0.500000 0.000000
O O15 0.000000 0.575314 0.000000
O O16 0.500000 0.287147 0.000000
#
# Coordination Sequence:
#
# PCOD9492707 Si02
#       7
#     8   8   8  16  16   8   8
#     4  11  24  40  56  80 120 168 202 233 290 357
#     4  11  19  36  63  92 120 148 197 244 296 355
#     4  10  23  41  61  85 117 158 201 244 289 347
#     4  12  21  37  59  86 120 154 196 246 292 349
#     4  10  21  40  62  89 121 152 196 246 298 349
#     4  11  20  34  54  82 118 154 192 237 290 349
#     4   8  19  37  62  89 116 153 190 244 302 352
#
# _framework density 17.388774000000002
#
# number of rings (size 3 to 8) (size 9 to 14) (size 15 to 20)
#    0.000    1.444    4.444    1.667    1.556    5.333 
#    0.000    3.333    9.778    1.333    0.000    0.000 
#    0.000    0.000    0.000    0.000    0.000    0.000 
#
# Total GULP energy -200517.013495 kJ/mol
# GULP energy per Si atom -5569.917042 kJ/mol
# Density = 1.734920 g / cm^3
# Si number density = 17.388774 Si / 1000 Ang^3
#
#
#
# Elastic Constant Matrix: (Units=GPa)
#
#
# Indices 1 2 3 4 5 6 
#
# 1 174.1185 81.3054 51.6839 0.0000 0.0000 0.0000
# 2 81.3054 162.4799 63.3713 0.0000 0.0000 0.0000
# 3 51.6839 63.3713 136.7897 0.0000 0.0000 0.0000
# 4 0.0000 0.0000 0.0000 25.1885 0.0000 0.0000
# 5 0.0000 0.0000 0.0000 0.0000 32.6280 0.0000
# 6 0.0000 0.0000 0.0000 0.0000 0.0000 -81.8350
#
#
#
# Elastic Compliance Matrix: (Units=1/GPa)
#
#
# Indices 1 2 3 4 5 6 
#
# 1 0.007700 -0.003318 -0.001372 0.000000 0.000000 0.000000
# 2 -0.003318 0.008942 -0.002889 0.000000 0.000000 0.000000
# 3 -0.001372 -0.002889 0.009167 0.000000 0.000000 0.000000
# 4 0.000000 0.000000 0.000000 0.039701 0.000000 0.000000
# 5 0.000000 0.000000 0.000000 0.000000 0.030648 0.000000
# 6 0.000000 0.000000 0.000000 0.000000 0.000000 -0.012220
#
#
# Mechanical properties :
#
#
# Convention : Reuss Voigt Hill
#
# Bulk Modulus (GPa) = 93.88802 96.23436 95.06119
# Shear Modulus (GPa) = 48.71108 13.66481 31.18794
#
# Velocity S-wave (km/s) = 5.29847 2.80633 4.23965
# Velocity P-wave (km/s) = 9.56778 8.12180 8.87429
#
# Compressibility (1/GPa) = 0.01065099
#
# Stress axis : x y z
#
# Youngs Moduli (GPa) = 129.87365 111.83736 109.08376
#
# Poissons Ratio (x) = 0.37105 0.14968
# Poissons Ratio (y) = 0.43090 0.31512
# Poissons Ratio (z) = 0.17821 0.32308
#
# Static dielectric constant tensor:
#      x y z
#    x 1.518820 0.000000 0.000000 
#    y 0.000000 1.574840 0.000000 
#    z 0.000000 0.000000 1.620510 
# 
# From -- ./inp_files/7452.got.cif
#   From: 2010.05.17/outbox.cif.g08.bks.cpg/sg65_4_cif.got.tgz:7452.got - 2010.06.03 17:01:31.
