data_PCOD9492730
_publ_section_title
;
Structure prediction by ZEFSAII (Michael W. Deem and Ramdas Pophale) SiO2 
 PCOD9492730
Probable space group: C M M M
;
_chemical_formula_sum "Si O2"
_cell_formula_units_Z 90
_cell_length_a 24.315967
_cell_length_b 23.403532
_cell_length_c 7.753252
_cell_angle_alpha 90.000000
_cell_angle_beta 90.000000
_cell_angle_gamma 90.000000
_cell_volume 4412.216863
_symmetry_space_group_name_H-M "C M M M"
_symmetry_group_IT_number 65
_symmetry_cell_setting 'orthorhombic'
loop_
_space_group_symop_operation_xyz
x,y,z
-x,-y,z
x,-y,-z
-x,y,-z
-x,-y,-z
x,y,-z
-x,y,z
x,-y,z
1/2+x,1/2+y,z
1/2-x,1/2-y,z
1/2+x,1/2-y,-z
1/2-x,1/2+y,-z
1/2-x,1/2-y,-z
1/2+x,1/2+y,-z
1/2-x,1/2+y,z
1/2+x,1/2-y,z
loop_
_atom_site_type_symbol
_atom_site_label
_atom_site_fract_x
_atom_site_fract_y
_atom_site_fract_z
Si Si1 0.863842 0.829095 0.200791
Si Si2 0.936488 0.278512 0.209184
Si Si3 0.640519 0.882884 0.295559
Si Si4 0.063755 0.936132 0.708563
Si Si5 0.090399 0.500000 0.809110
Si Si6 0.755712 0.686795 0.299508
Si Si7 0.000000 0.500000 0.500000
O O1 0.898371 0.774490 0.268597
O O2 0.900419 0.885233 0.219133
O O3 0.805309 0.838058 0.289852
O O4 0.852589 0.818203 0.000000
O O5 0.908645 0.337332 0.268343
O O6 0.000000 0.273078 0.266204
O O7 0.936728 0.277647 0.000000
O O8 0.646480 0.893575 0.500000
O O9 0.695948 0.852427 0.226536
O O10 0.626193 0.942569 0.208998
O O11 0.066070 0.933782 0.500000
O O12 0.000000 0.928876 0.758734
O O13 0.081322 0.000000 0.761369
O O14 0.047527 0.500000 0.652490
O O15 0.064945 0.500000 0.000000
O O16 0.771647 0.694943 0.500000
O O17 0.750000 0.750000 0.220301
#
# Coordination Sequence:
#
# PCOD9492730 Si02
#       7
#    16  16  16  16   8  16   2
#     4  11  22  36  58  89 125 159 205 260 313 382
#     4  10  22  37  56  87 126 165 203 253 324 393
#     4  11  23  43  66  93 129 166 222 276 325 395
#     4   9  19  37  60  84 115 157 204 250 304 375
#     4  12  27  47  73 102 139 181 221 284 342 400
#     4  10  21  40  65  89 120 164 209 259 314 373
#     4  12  26  52  76 106 136 172 242 272 332 434
#
# _framework density 20.39791
#
# number of rings (size 3 to 8) (size 9 to 14) (size 15 to 20)
#    0.000    1.600    2.667    2.267    1.244    4.267 
#    1.600    0.889    0.000    0.000    0.000    0.000 
#    0.000    0.000    0.000    0.000    0.000    0.000 
#
# Total GULP energy -251144.665750 kJ/mol
# GULP energy per Si atom -5580.992572 kJ/mol
# Density = 2.035148 g / cm^3
# Si number density = 20.397910 Si / 1000 Ang^3
#
#
#
# Elastic Constant Matrix: (Units=GPa)
#
#
# Indices 1 2 3 4 5 6 
#
# 1 126.4038 66.9090 18.8860 0.0000 0.0000 0.0000
# 2 66.9090 137.8397 18.1097 0.0000 0.0000 0.0000
# 3 18.8860 18.1097 72.3236 0.0000 0.0000 0.0000
# 4 0.0000 0.0000 0.0000 26.3775 0.0000 0.0000
# 5 0.0000 0.0000 0.0000 0.0000 -16.5865 0.0000
# 6 0.0000 0.0000 0.0000 0.0000 0.0000 -2.9068
#
#
#
# Elastic Compliance Matrix: (Units=1/GPa)
#
#
# Indices 1 2 3 4 5 6 
#
# 1 0.010815 -0.005044 -0.001561 0.000000 0.000000 0.000000
# 2 -0.005044 0.009855 -0.001150 0.000000 0.000000 0.000000
# 3 -0.001561 -0.001150 0.014522 0.000000 0.000000 0.000000
# 4 0.000000 0.000000 0.000000 0.037911 0.000000 0.000000
# 5 0.000000 0.000000 0.000000 0.000000 -0.060290 0.000000
# 6 0.000000 0.000000 0.000000 0.000000 0.000000 -0.344023
#
#
# Mechanical properties :
#
#
# Convention : Reuss Voigt Hill
#
# Bulk Modulus (GPa) = 50.81248 60.48627 55.64937
# Shear Modulus (GPa) = -16.17392 16.88767 0.35687
#
# Velocity S-wave (km/s) = -2.81894 2.88047 0.41873
# Velocity P-wave (km/s) = 3.79071 6.38595 5.25118
#
# Compressibility (1/GPa) = 0.01968021
#
# Stress axis : x y z
#
# Youngs Moduli (GPa) = 92.46828 101.47593 68.85918
#
# Poissons Ratio (x) = 0.51189 0.10748
# Poissons Ratio (y) = 0.46645 0.07921
# Poissons Ratio (z) = 0.14433 0.11673
#
# Static dielectric constant tensor:
#      x y z
#    x 1.722710 0.000000 0.000000 
#    y 0.000000 1.707680 0.000000 
#    z 0.000000 0.000000 1.756550 
# 
# From -- ./inp_files/11858.got.cif
#   From: 2010.05.17/outbox.cif.g08.bks.cpg/sg65_6_cif.got.tgz:11858.got - 2010.06.03 17:01:31.
