data_PCOD9492546
_publ_section_title
;
Structure prediction by ZEFSAII (Michael W. Deem and Ramdas Pophale) SiO2 
 PCOD9492546
Probable space group: C M M M
;
_chemical_formula_sum "Si O2"
_cell_formula_units_Z 88
_cell_length_a 8.790131
_cell_length_b 26.105961
_cell_length_c 21.108697
_cell_angle_alpha 90.000000
_cell_angle_beta 90.000000
_cell_angle_gamma 90.000000
_cell_volume 4843.914383
_symmetry_space_group_name_H-M "C M M M"
_symmetry_group_IT_number 65
_symmetry_cell_setting 'orthorhombic'
loop_
_space_group_symop_operation_xyz
x,y,z
-x,-y,z
x,-y,-z
-x,y,-z
-x,-y,-z
x,y,-z
-x,y,z
x,-y,z
1/2+x,1/2+y,z
1/2-x,1/2-y,z
1/2+x,1/2-y,-z
1/2-x,1/2+y,-z
1/2-x,1/2-y,-z
1/2+x,1/2+y,-z
1/2-x,1/2+y,z
1/2+x,1/2-y,z
loop_
_atom_site_type_symbol
_atom_site_label
_atom_site_fract_x
_atom_site_fract_y
_atom_site_fract_z
Si Si1 0.818150 0.938745 0.000000
Si Si2 0.317861 0.904521 0.133031
Si Si3 0.818012 0.194283 0.800101
Si Si4 0.818355 0.000000 0.359685
Si Si5 0.317691 0.899860 0.574160
Si Si6 0.318622 0.694583 0.650582
Si Si7 0.317552 0.500000 0.790242
O O1 0.745300 0.915060 0.062864
O O2 0.000000 0.930980 0.000000
O O3 0.790260 0.000000 0.000000
O O4 0.500000 0.905922 0.133348
O O5 0.257725 0.850711 0.159797
O O6 0.252461 0.949897 0.177107
O O7 0.750000 0.250000 0.815797
O O8 0.787207 0.184998 0.725238
O O9 0.000000 0.194294 0.808926
O O10 0.749508 0.050210 0.392024
O O11 0.786272 0.000000 0.284619
O O12 0.000000 0.000000 0.367638
O O13 0.276138 0.899880 0.500000
O O14 0.500000 0.900726 0.578978
O O15 0.253895 0.849767 0.608726
O O16 0.500000 0.695346 0.642248
O O17 0.250000 0.750000 0.634575
O O18 0.500000 0.500000 0.799935
#
# Coordination Sequence:
#
# PCOD9492546 Si02
#       7
#     8  16  16   8  16  16   8
#     4  11  23  41  64  87 121 164 200 241 293 343
#     4  12  24  38  61  92 123 157 198 242 291 347
#     4  10  21  39  62  89 121 156 197 242 293 348
#     4  11  24  40  60  85 114 151 196 244 293 350
#     4  11  24  40  58  82 115 154 195 241 295 356
#     4  10  21  38  62  89 117 152 194 244 295 348
#     4  11  23  39  59  87 120 153 193 242 295 349
#
# _framework density 18.167124999999999
#
# number of rings (size 3 to 8) (size 9 to 14) (size 15 to 20)
#    0.000    1.182    0.909    5.455    0.000   11.273 
#    0.000    0.455    0.000    0.000    0.000    0.000 
#    0.000    0.000    0.000    0.000    0.000    0.000 
#
# Total GULP energy -246147.037814 kJ/mol
# GULP energy per Si atom -5594.250859 kJ/mol
# Density = 1.812578 g / cm^3
# Si number density = 18.167125 Si / 1000 Ang^3
#
#
#
# Elastic Constant Matrix: (Units=GPa)
#
#
# Indices 1 2 3 4 5 6 
#
# 1 116.3605 96.0195 105.0867 0.0000 0.0000 0.0000
# 2 96.0195 194.3000 135.7821 0.0000 0.0000 0.0000
# 3 105.0867 135.7821 159.4603 0.0000 0.0000 0.0000
# 4 0.0000 0.0000 0.0000 423.7910 0.0000 0.0000
# 5 0.0000 0.0000 0.0000 0.0000 29.5789 0.0000
# 6 0.0000 0.0000 0.0000 0.0000 0.0000 40.4497
#
#
#
# Elastic Compliance Matrix: (Units=1/GPa)
#
#
# Indices 1 2 3 4 5 6 
#
# 1 0.021476 -0.001784 -0.012634 0.000000 0.000000 0.000000
# 2 -0.001784 0.012858 -0.009773 0.000000 0.000000 0.000000
# 3 -0.012634 -0.009773 0.022919 0.000000 0.000000 0.000000
# 4 0.000000 0.000000 0.000000 0.002360 0.000000 0.000000
# 5 0.000000 0.000000 0.000000 0.000000 0.033808 0.000000
# 6 0.000000 0.000000 0.000000 0.000000 0.000000 0.024722
#
#
# Mechanical properties :
#
#
# Convention : Reuss Voigt Hill
#
# Bulk Modulus (GPa) = 112.72685 127.09971 119.91328
# Shear Modulus (GPa) = 29.50192 107.64608 68.57400
#
# Velocity S-wave (km/s) = 4.03416 7.70596 6.15046
# Velocity P-wave (km/s) = 9.15881 12.21839 10.79752
#
# Compressibility (1/GPa) = 0.00887100
#
# Stress axis : x y z
#
# Youngs Moduli (GPa) = 46.56365 77.77298 43.63281
#
# Poissons Ratio (x) = 0.13877 0.55124
# Poissons Ratio (y) = 0.08308 0.42641
# Poissons Ratio (z) = 0.58827 0.76006
#
# Static dielectric constant tensor:
#      x y z
#    x 1.602830 0.000000 0.000000 
#    y 0.000000 1.579040 0.000000 
#    z 0.000000 0.000000 1.600940 
# 
# From -- ./inp_files/59883.got.cif
#   From: 2010.05.17/outbox.cif.g08.bks.cpg/sg65_30_cif.got.tgz:59883.got - 2010.06.03 17:01:31.
