data_PCOD9492867
_publ_section_title
;
Structure prediction by ZEFSAII (Michael W. Deem and Ramdas Pophale) SiO2 
 PCOD9492867
Probable space group: C M M M
;
_chemical_formula_sum "Si O2"
_cell_formula_units_Z 100
_cell_length_a 19.160727
_cell_length_b 13.746194
_cell_length_c 18.505205
_cell_angle_alpha 90.000000
_cell_angle_beta 90.000000
_cell_angle_gamma 90.000000
_cell_volume 4874.031734
_symmetry_space_group_name_H-M "C M M M"
_symmetry_group_IT_number 65
_symmetry_cell_setting 'orthorhombic'
loop_
_space_group_symop_operation_xyz
x,y,z
-x,-y,z
x,-y,-z
-x,y,-z
-x,-y,-z
x,y,-z
-x,y,z
x,-y,z
1/2+x,1/2+y,z
1/2-x,1/2-y,z
1/2+x,1/2-y,-z
1/2-x,1/2+y,-z
1/2-x,1/2-y,-z
1/2+x,1/2+y,-z
1/2-x,1/2+y,z
1/2+x,1/2-y,z
loop_
_atom_site_type_symbol
_atom_site_label
_atom_site_fract_x
_atom_site_fract_y
_atom_site_fract_z
Si Si1 0.417492 0.693128 0.421154
Si Si2 0.648886 0.383388 0.725563
Si Si3 0.775345 0.616198 0.921727
Si Si4 0.305213 0.118270 0.232415
Si Si5 0.388259 0.383394 0.116175
Si Si6 0.080923 0.387828 0.349885
Si Si7 0.500000 0.680556 0.000000
O O1 0.391282 0.661039 0.500000
O O2 0.500000 0.670236 0.417278
O O3 0.380996 0.650232 0.350673
O O4 0.410490 0.809830 0.413105
O O5 0.648293 0.500000 0.725687
O O6 0.729474 0.353421 0.737056
O O7 0.608072 0.355631 0.799039
O O8 0.788437 0.500000 0.924060
O O9 0.812216 0.654940 0.849717
O O10 0.692564 0.626472 0.908117
O O11 0.795529 0.656309 0.000000
O O12 0.367647 0.143414 0.285578
O O13 0.304537 0.000000 0.228681
O O14 0.404662 0.500000 0.109339
O O15 0.439307 0.327620 0.063356
O O16 0.095957 0.500000 0.369611
O O17 0.000000 0.383056 0.326476
#
# Coordination Sequence:
#
# PCOD9492867 Si02
#       7
#    16  16  16  16  16  16   4
#     4  10  22  38  55  78 105 137 178 215 253 309
#     4   9  19  34  50  74 111 151 181 207 246 300
#     4   8  12  21  37  62  97 133 168 207 251 298
#     4   8  15  29  50  76 104 134 173 213 256 316
#     4   9  16  23  36  63 100 139 180 220 251 284
#     4   9  18  35  59  82 100 122 160 219 284 328
#     4  12  17  20  36  68 102 136 191 236 245 278
#
# _framework density 20.516895999999999
#
# number of rings (size 3 to 8) (size 9 to 14) (size 15 to 20)
#    0.000    3.040    0.800    2.640    1.120    1.600 
#    0.000    4.000    0.000    3.360    2.080    5.600 
#    0.000    0.000    0.000    0.000    0.000    0.000 
#
# Total GULP energy -278493.392558 kJ/mol
# GULP energy per Si atom -5569.867851 kJ/mol
# Density = 2.047020 g / cm^3
# Si number density = 20.516896 Si / 1000 Ang^3
#
#
#
# Elastic Constant Matrix: (Units=GPa)
#
#
# Indices 1 2 3 4 5 6 
#
# 1 45.3812 8.6490 53.5396 0.0000 0.0000 0.0000
# 2 8.6490 53.2153 28.1339 0.0000 0.0000 0.0000
# 3 53.5396 28.1339 195.1039 0.0000 0.0000 0.0000
# 4 0.0000 0.0000 0.0000 8.1935 0.0000 0.0000
# 5 0.0000 0.0000 0.0000 0.0000 22.0953 0.0000
# 6 0.0000 0.0000 0.0000 0.0000 0.0000 15.1352
#
#
#
# Elastic Compliance Matrix: (Units=1/GPa)
#
#
# Indices 1 2 3 4 5 6 
#
# 1 0.032603 -0.000616 -0.008858 0.000000 0.000000 0.000000
# 2 -0.000616 0.020354 -0.002766 0.000000 0.000000 0.000000
# 3 -0.008858 -0.002766 0.007955 0.000000 0.000000 0.000000
# 4 0.000000 0.000000 0.000000 0.122048 0.000000 0.000000
# 5 0.000000 0.000000 0.000000 0.000000 0.045258 0.000000
# 6 0.000000 0.000000 0.000000 0.000000 0.000000 0.066071
#
#
# Mechanical properties :
#
#
# Convention : Reuss Voigt Hill
#
# Bulk Modulus (GPa) = 27.44793 52.70503 40.07648
# Shear Modulus (GPa) = 15.10963 22.64332 18.87647
#
# Velocity S-wave (km/s) = 2.71670 3.32572 3.03652
# Velocity P-wave (km/s) = 4.82160 6.36330 5.64533
#
# Compressibility (1/GPa) = 0.03643262
#
# Stress axis : x y z
#
# Youngs Moduli (GPa) = 30.67157 49.13030 125.70492
#
# Poissons Ratio (x) = 0.03026 1.11351
# Poissons Ratio (y) = 0.01889 0.34770
# Poissons Ratio (z) = 0.27169 0.13590
#
# Static dielectric constant tensor:
#      x y z
#    x 1.693340 0.000000 0.000000 
#    y 0.000000 1.800450 0.000000 
#    z 0.000000 0.000000 1.724060 
# 
# From -- ./inp_files/55884.got.cif
#   From: 2010.05.17/outbox.cif.g08.bks.cpg/sg65_28_cif.got.tgz:55884.got - 2010.06.03 17:01:31.
