data_PCOD9492711
_publ_section_title
;
Structure prediction by ZEFSAII (Michael W. Deem and Ramdas Pophale) SiO2 
 PCOD9492711
Probable space group: C M M M
;
_chemical_formula_sum "Si O2"
_cell_formula_units_Z 72
_cell_length_a 16.047712
_cell_length_b 8.794191
_cell_length_c 26.732689
_cell_angle_alpha 90.000000
_cell_angle_beta 90.000000
_cell_angle_gamma 90.000000
_cell_volume 3772.694695
_symmetry_space_group_name_H-M "C M M M"
_symmetry_group_IT_number 65
_symmetry_cell_setting 'orthorhombic'
loop_
_space_group_symop_operation_xyz
x,y,z
-x,-y,z
x,-y,-z
-x,y,-z
-x,-y,-z
x,y,-z
-x,y,z
x,-y,z
1/2+x,1/2+y,z
1/2-x,1/2-y,z
1/2+x,1/2-y,-z
1/2-x,1/2+y,-z
1/2-x,1/2-y,-z
1/2+x,1/2+y,-z
1/2-x,1/2+y,z
1/2+x,1/2-y,z
loop_
_atom_site_type_symbol
_atom_site_label
_atom_site_fract_x
_atom_site_fract_y
_atom_site_fract_z
Si Si1 0.838124 0.316554 0.207881
Si Si2 0.000000 0.815100 0.620292
Si Si3 0.158522 0.179222 0.000000
Si Si4 0.160935 0.183355 0.441645
Si Si5 0.597163 0.822361 0.101192
Si Si6 0.000000 0.183460 0.737022
O O1 0.838744 0.500000 0.210753
O O2 0.750000 0.250000 0.225678
O O3 0.850867 0.272343 0.149453
O O4 0.917032 0.250319 0.237469
O O5 0.916548 0.763848 0.591779
O O6 0.000000 0.774597 0.678421
O O7 0.000000 0.000000 0.617596
O O8 0.250000 0.250000 0.000000
O O9 0.113927 0.233566 0.949535
O O10 0.335628 0.500000 0.000000
O O11 0.147197 0.224581 0.500000
O O12 0.250000 0.250000 0.425888
O O13 0.165085 0.000000 0.439050
O O14 0.500000 0.810431 0.114961
O O15 0.615763 0.000000 0.091528
O O16 0.000000 0.000000 0.741683
#
# Coordination Sequence:
#
# PCOD9492711 Si02
#       6
#    16   8   8  16  16   8
#     4  11  23  42  65  90 117 154 200 247 299 357
#     4   9  19  35  56  82 113 151 196 237 288 348
#     4  12  25  38  55  85 119 153 191 233 282 347
#     4   9  17  32  55  82 114 152 193 237 284 340
#     4  10  21  40  63  86 115 150 187 235 291 348
#     4  11  23  40  61  87 119 156 198 251 301 354
#
# _framework density 19.084500999999999
#
# number of rings (size 3 to 8) (size 9 to 14) (size 15 to 20)
#    0.000    1.778    1.111    3.333    0.000    7.556 
#    0.000    5.000    0.000    2.667    0.000    0.000 
#    0.000    0.000    0.000    0.000    0.000    0.000 
#
# Total GULP energy -201111.618220 kJ/mol
# GULP energy per Si atom -5586.433839 kJ/mol
# Density = 1.904106 g / cm^3
# Si number density = 19.084501 Si / 1000 Ang^3
#
#
#
# Elastic Constant Matrix: (Units=GPa)
#
#
# Indices 1 2 3 4 5 6 
#
# 1 163.4679 47.8945 91.6484 0.0000 0.0000 0.0000
# 2 47.8945 46.4056 42.9254 0.0000 0.0000 0.0000
# 3 91.6484 42.9254 120.6325 0.0000 0.0000 0.0000
# 4 0.0000 0.0000 0.0000 21.7705 0.0000 0.0000
# 5 0.0000 0.0000 0.0000 0.0000 4.4591 0.0000
# 6 0.0000 0.0000 0.0000 0.0000 0.0000 34.2357
#
#
#
# Elastic Compliance Matrix: (Units=1/GPa)
#
#
# Indices 1 2 3 4 5 6 
#
# 1 0.011582 -0.005686 -0.006776 0.000000 0.000000 0.000000
# 2 -0.005686 0.034914 -0.008104 0.000000 0.000000 0.000000
# 3 -0.006776 -0.008104 0.016321 0.000000 0.000000 0.000000
# 4 0.000000 0.000000 0.000000 0.045934 0.000000 0.000000
# 5 0.000000 0.000000 0.000000 0.000000 0.224259 0.000000
# 6 0.000000 0.000000 0.000000 0.000000 0.000000 0.029209
#
#
# Mechanical properties :
#
#
# Convention : Reuss Voigt Hill
#
# Bulk Modulus (GPa) = 46.11383 77.27140 61.69261
# Shear Modulus (GPa) = 12.17789 21.96224 17.07006
#
# Velocity S-wave (km/s) = 2.52881 3.39601 2.99397
# Velocity P-wave (km/s) = 5.72206 7.48025 6.65943
#
# Compressibility (1/GPa) = 0.02168547
#
# Stress axis : x y z
#
# Youngs Moduli (GPa) = 86.33727 28.64219 61.26927
#
# Poissons Ratio (x) = 0.16286 0.41518
# Poissons Ratio (y) = 0.49091 0.49651
# Poissons Ratio (z) = 0.58505 0.23211
#
# Static dielectric constant tensor:
#      x y z
#    x 1.655230 0.000000 0.000000 
#    y 0.000000 1.644330 0.000000 
#    z 0.000000 0.000000 1.666040 
# 
# From -- ./inp_files/74683.got.cif
#   From: 2010.05.17/outbox.cif.g08.bks.cpg/sg65_38_cif.got.tgz:74683.got - 2010.06.03 17:01:31.
