data_PCOD9492504
_publ_section_title
;
Structure prediction by ZEFSAII (Michael W. Deem and Ramdas Pophale) SiO2 
 PCOD9492504
Probable space group: C M M M
;
_chemical_formula_sum "Si O2"
_cell_formula_units_Z 72
_cell_length_a 7.956705
_cell_length_b 29.834491
_cell_length_c 14.016109
_cell_angle_alpha 90.000000
_cell_angle_beta 90.000000
_cell_angle_gamma 90.000000
_cell_volume 3327.203435
_symmetry_space_group_name_H-M "C M M M"
_symmetry_group_IT_number 65
_symmetry_cell_setting 'orthorhombic'
loop_
_space_group_symop_operation_xyz
x,y,z
-x,-y,z
x,-y,-z
-x,y,-z
-x,-y,-z
x,y,-z
-x,y,z
x,-y,z
1/2+x,1/2+y,z
1/2-x,1/2-y,z
1/2+x,1/2-y,-z
1/2-x,1/2+y,-z
1/2-x,1/2-y,-z
1/2+x,1/2+y,-z
1/2-x,1/2+y,z
1/2+x,1/2-y,z
loop_
_atom_site_type_symbol
_atom_site_label
_atom_site_fract_x
_atom_site_fract_y
_atom_site_fract_z
Si Si1 0.689147 0.631206 0.831765
Si Si2 0.196575 0.588863 0.500000
Si Si3 0.703645 0.696808 0.000000
Si Si4 0.693404 0.688337 0.500000
Si Si5 0.796029 0.948726 0.705958
Si Si6 0.808696 0.297368 0.294007
O O1 0.500000 0.620289 0.864575
O O2 0.761784 0.665733 0.910544
O O3 0.766463 0.585716 0.788295
O O4 0.689005 0.663269 0.740025
O O5 0.300836 0.634502 0.500000
O O6 0.234709 0.563380 0.400852
O O7 0.000000 0.600857 0.500000
O O8 0.750000 0.750000 0.000000
O O9 0.500000 0.697495 0.000000
O O10 0.500000 0.703348 0.500000
O O11 0.790129 0.703996 0.593221
O O12 0.000000 0.944923 0.704501
O O13 0.750960 0.000000 0.727254
O O14 0.750000 0.250000 0.252612
O O15 0.000000 0.307032 0.267472
#
# Coordination Sequence:
#
# PCOD9492504 Si02
#       6
#    16   8   8   8  16  16
#     4  10  21  39  61  86 119 155 198 251 303 359
#     4  12  23  36  57  88 122 161 206 252 298 348
#     4  10  22  40  63  91 119 155 200 250 306 365
#     4  12  23  38  57  81 117 158 197 242 294 354
#     4  10  21  38  61  87 119 163 207 247 300 360
#     4  12  24  38  57  84 117 156 199 243 296 358
#
# _framework density 21.639794999999999
#
# number of rings (size 3 to 8) (size 9 to 14) (size 15 to 20)
#    0.000    1.111    2.222    5.333    0.000    4.444 
#    0.000    0.556    0.000    3.333    0.000    0.000 
#    0.000    4.444    0.000    0.000    0.000    0.000 
#
# Total GULP energy -200889.386171 kJ/mol
# GULP energy per Si atom -5580.260727 kJ/mol
# Density = 2.159054 g / cm^3
# Si number density = 21.639795 Si / 1000 Ang^3
#
#
#
# Elastic Constant Matrix: (Units=GPa)
#
#
# Indices 1 2 3 4 5 6 
#
# 1 79.6514 9.1741 5.6843 0.0000 0.0000 0.0000
# 2 9.1741 187.9210 61.5760 0.0000 0.0000 0.0000
# 3 5.6843 61.5760 115.7218 0.0000 0.0000 0.0000
# 4 0.0000 0.0000 0.0000 20.8451 0.0000 0.0000
# 5 0.0000 0.0000 0.0000 0.0000 11.3907 0.0000
# 6 0.0000 0.0000 0.0000 0.0000 0.0000 17.7952
#
#
#
# Elastic Compliance Matrix: (Units=1/GPa)
#
#
# Indices 1 2 3 4 5 6 
#
# 1 0.012638 -0.000501 -0.000354 0.000000 0.000000 0.000000
# 2 -0.000501 0.006465 -0.003415 0.000000 0.000000 0.000000
# 3 -0.000354 -0.003415 0.010476 0.000000 0.000000 0.000000
# 4 0.000000 0.000000 0.000000 0.047973 0.000000 0.000000
# 5 0.000000 0.000000 0.000000 0.000000 0.087791 0.000000
# 6 0.000000 0.000000 0.000000 0.000000 0.000000 0.056195
#
#
# Mechanical properties :
#
#
# Convention : Reuss Voigt Hill
#
# Bulk Modulus (GPa) = 47.53370 59.57366 53.55368
# Shear Modulus (GPa) = 21.08895 30.46352 25.77624
#
# Velocity S-wave (km/s) = 3.12516 3.75608 3.45505
# Velocity P-wave (km/s) = 5.91910 6.81177 6.38106
#
# Compressibility (1/GPa) = 0.02103771
#
# Stress axis : x y z
#
# Youngs Moduli (GPa) = 79.12848 154.67980 95.45466
#
# Poissons Ratio (x) = 0.07748 0.03381
# Poissons Ratio (y) = 0.03963 0.32602
# Poissons Ratio (z) = 0.02803 0.52830
#
# Static dielectric constant tensor:
#      x y z
#    x 1.783040 0.000000 0.000000 
#    y 0.000000 1.796410 0.000000 
#    z 0.000000 0.000000 1.839120 
# 
# From -- ./inp_files/36665.got.cif
#   From: 2010.05.17/outbox.cif.g08.bks.cpg/sg65_19_cif.got.tgz:36665.got - 2010.06.03 17:01:31.
