data_PCOD9492675
_publ_section_title
;
Structure prediction by ZEFSAII (Michael W. Deem and Ramdas Pophale) SiO2 
 PCOD9492675
Probable space group: C M M M
;
_chemical_formula_sum "Si O2"
_cell_formula_units_Z 64
_cell_length_a 8.994685
_cell_length_b 15.756068
_cell_length_c 23.872217
_cell_angle_alpha 90.000000
_cell_angle_beta 90.000000
_cell_angle_gamma 90.000000
_cell_volume 3383.191326
_symmetry_space_group_name_H-M "C M M M"
_symmetry_group_IT_number 65
_symmetry_cell_setting 'orthorhombic'
loop_
_space_group_symop_operation_xyz
x,y,z
-x,-y,z
x,-y,-z
-x,y,-z
-x,-y,-z
x,y,-z
-x,y,z
x,-y,z
1/2+x,1/2+y,z
1/2-x,1/2-y,z
1/2+x,1/2-y,-z
1/2-x,1/2+y,-z
1/2-x,1/2-y,-z
1/2+x,1/2+y,-z
1/2-x,1/2+y,z
1/2+x,1/2-y,z
loop_
_atom_site_type_symbol
_atom_site_label
_atom_site_fract_x
_atom_site_fract_y
_atom_site_fract_z
Si Si1 0.824743 0.160028 0.067226
Si Si2 0.178611 0.000000 0.249714
Si Si3 0.823545 0.397969 0.437041
Si Si4 0.323216 0.336309 0.324704
Si Si5 0.322289 0.000000 0.871872
O O1 0.750000 0.250000 0.081836
O O2 0.743757 0.082947 0.097775
O O3 0.000000 0.160691 0.081035
O O4 0.810987 0.149091 0.000000
O O5 0.215004 0.916870 0.286217
O O6 0.265623 0.000000 0.191820
O O7 0.000000 0.000000 0.239405
O O8 0.778128 0.372191 0.500000
O O9 0.803141 0.500000 0.432990
O O10 0.735895 0.354376 0.387172
O O11 0.000000 0.381495 0.431076
O O12 0.500000 0.327635 0.325825
O O13 0.250000 0.250000 0.303356
O O14 0.500000 0.000000 0.874925
#
# Coordination Sequence:
#
# PCOD9492675 Si02
#       5
#    16   8  16  16   8
#     4  10  21  39  64  94 129 166 203 248 300 353
#     4  10  24  45  62  81 116 156 201 254 301 350
#     4   9  18  34  58  87 118 151 187 234 292 353
#     4  11  23  40  62  87 114 151 195 244 298 353
#     4  12  25  39  62  92 123 164 207 249 301 358
#
# _framework density 18.91705
#
# number of rings (size 3 to 8) (size 9 to 14) (size 15 to 20)
#    0.000    1.750    1.250    3.750    0.000    7.000 
#    0.000    3.750    0.000    0.000    0.000    0.000 
#    0.000    0.000    0.000    0.000    0.000    0.000 
#
# Total GULP energy -178883.791893 kJ/mol
# GULP energy per Si atom -5590.118497 kJ/mol
# Density = 1.887399 g / cm^3
# Si number density = 18.917050 Si / 1000 Ang^3
#
#
#
# Elastic Constant Matrix: (Units=GPa)
#
#
# Indices 1 2 3 4 5 6 
#
# 1 111.8584 98.4334 79.4060 0.0000 0.0000 0.0000
# 2 98.4334 180.3890 89.6087 0.0000 0.0000 0.0000
# 3 79.4060 89.6087 90.6143 0.0000 0.0000 0.0000
# 4 0.0000 0.0000 0.0000 -5.1637 0.0000 0.0000
# 5 0.0000 0.0000 0.0000 0.0000 31.9649 0.0000
# 6 0.0000 0.0000 0.0000 0.0000 0.0000 35.3008
#
#
#
# Elastic Compliance Matrix: (Units=1/GPa)
#
#
# Indices 1 2 3 4 5 6 
#
# 1 0.026347 -0.005715 -0.017436 0.000000 0.000000 0.000000
# 2 -0.005715 0.012136 -0.006993 0.000000 0.000000 0.000000
# 3 -0.017436 -0.006993 0.033230 0.000000 0.000000 0.000000
# 4 0.000000 0.000000 0.000000 -0.193658 0.000000 0.000000
# 5 0.000000 0.000000 0.000000 0.000000 0.031284 0.000000
# 6 0.000000 0.000000 0.000000 0.000000 0.000000 0.028328
#
#
# Mechanical properties :
#
#
# Convention : Reuss Voigt Hill
#
# Bulk Modulus (GPa) = 87.52978 101.97312 94.75145
# Shear Modulus (GPa) = 2835.72380 20.11464 1427.91922
#
# Velocity S-wave (km/s) = 38.75932 3.26438 27.50401
# Velocity P-wave (km/s) = 45.27049 8.26018 32.53958
#
# Compressibility (1/GPa) = 0.01142468
#
# Stress axis : x y z
#
# Youngs Moduli (GPa) = 37.95561 82.39907 30.09305
#
# Poissons Ratio (x) = 0.47094 0.52470
# Poissons Ratio (y) = 0.21693 0.21044
# Poissons Ratio (z) = 0.66179 0.57622
#
# Static dielectric constant tensor:
#      x y z
#    x 1.627050 0.000000 0.000000 
#    y 0.000000 1.650930 0.000000 
#    z 0.000000 0.000000 1.629620 
# 
# From -- ./inp_files/66773.got.cif
#   From: 2010.05.17/outbox.cif.g08.bks.cpg/sg65_34_cif.got.tgz:66773.got - 2010.06.03 17:01:31.
