data_PCOD9492755
_publ_section_title
;
Structure prediction by ZEFSAII (Michael W. Deem and Ramdas Pophale) SiO2 
 PCOD9492755
Probable space group: C M M M
;
_chemical_formula_sum "Si O2"
_cell_formula_units_Z 50
_cell_length_a 9.516877
_cell_length_b 15.200090
_cell_length_c 15.516966
_cell_angle_alpha 90.000000
_cell_angle_beta 90.000000
_cell_angle_gamma 90.000000
_cell_volume 2244.643754
_symmetry_space_group_name_H-M "C M M M"
_symmetry_group_IT_number 65
_symmetry_cell_setting 'orthorhombic'
loop_
_space_group_symop_operation_xyz
x,y,z
-x,-y,z
x,-y,-z
-x,y,-z
-x,-y,-z
x,y,-z
-x,y,z
x,-y,z
1/2+x,1/2+y,z
1/2-x,1/2-y,z
1/2+x,1/2-y,-z
1/2-x,1/2+y,-z
1/2-x,1/2-y,-z
1/2+x,1/2+y,-z
1/2-x,1/2+y,z
1/2+x,1/2-y,z
loop_
_atom_site_type_symbol
_atom_site_label
_atom_site_fract_x
_atom_site_fract_y
_atom_site_fract_z
Si Si1 0.500000 0.000000 0.500000
Si Si2 0.742100 0.643973 0.500000
Si Si3 0.668694 0.658017 0.000000
Si Si4 0.848942 0.105722 0.309047
Si Si5 0.844028 0.395844 0.161920
O O1 0.377635 0.078967 0.500000
O O2 0.750000 0.750000 0.500000
O O3 0.667653 0.622930 0.590263
O O4 0.750000 0.750000 0.000000
O O5 0.731536 0.614313 0.085924
O O6 0.500000 0.661606 0.000000
O O7 0.722044 0.140574 0.250276
O O8 0.000000 0.139917 0.278248
O O9 0.849238 0.000000 0.298527
O O10 0.861334 0.500000 0.173561
O O11 0.000000 0.359308 0.141491
#
# Coordination Sequence:
#
# PCOD9492755 Si02
#       5
#     2   8   8  16  16
#     4  12  28  48  74 106 160 190 262 328 372 458
#     4  12  27  43  71 103 145 197 252 303 380 446
#     4  12  25  42  63  89 129 171 219 284 351 418
#     4  10  21  41  65  94 135 184 232 295 362 424
#     4  10  22  40  67  97 130 173 224 277 347 426
#
# _framework density 22.275248999999999
#
# number of rings (size 3 to 8) (size 9 to 14) (size 15 to 20)
#    0.000    1.280    1.600    3.360    4.480    6.400 
#    0.000    3.200    0.000    0.000    0.000    0.000 
#    0.000    0.000    0.000    0.000    0.000    0.000 
#
# Total GULP energy -139227.646176 kJ/mol
# GULP energy per Si atom -5569.105847 kJ/mol
# Density = 2.222455 g / cm^3
# Si number density = 22.275249 Si / 1000 Ang^3
#
#
#
# Elastic Constant Matrix: (Units=GPa)
#
#
# Indices 1 2 3 4 5 6 
#
# 1 223.8586 37.7074 76.2007 0.0000 0.0000 0.0000
# 2 37.7074 72.8495 -8.5827 0.0000 0.0000 0.0000
# 3 76.2007 -8.5827 129.1568 0.0000 0.0000 0.0000
# 4 0.0000 0.0000 0.0000 71.5063 0.0000 0.0000
# 5 0.0000 0.0000 0.0000 0.0000 -163.3703 0.0000
# 6 0.0000 0.0000 0.0000 0.0000 0.0000 18.7675
#
#
#
# Elastic Compliance Matrix: (Units=1/GPa)
#
#
# Indices 1 2 3 4 5 6 
#
# 1 0.006511 -0.003853 -0.004097 0.000000 0.000000 0.000000
# 2 -0.003853 0.016115 0.003344 0.000000 0.000000 0.000000
# 3 -0.004097 0.003344 0.010382 0.000000 0.000000 0.000000
# 4 0.000000 0.000000 0.000000 0.013985 0.000000 0.000000
# 5 0.000000 0.000000 0.000000 0.000000 -0.006121 0.000000
# 6 0.000000 0.000000 0.000000 0.000000 0.000000 0.053284
#
#
# Mechanical properties :
#
#
# Convention : Reuss Voigt Hill
#
# Bulk Modulus (GPa) = 42.02426 70.72396 56.37411
# Shear Modulus (GPa) = 44.92388 6.75002 25.83695
#
# Velocity S-wave (km/s) = 4.49571 1.74266 3.40942
# Velocity P-wave (km/s) = 6.77166 5.98900 6.39232
#
# Compressibility (1/GPa) = 0.02379578
#
# Stress axis : x y z
#
# Youngs Moduli (GPa) = 153.59161 62.05366 96.31978
#
# Poissons Ratio (x) = 0.23908 0.39465
# Poissons Ratio (y) = 0.59175 -0.32209
# Poissons Ratio (z) = 0.62931 -0.20750
#
# Static dielectric constant tensor:
#      x y z
#    x 1.883840 0.000000 0.000000 
#    y 0.000000 1.937900 0.000000 
#    z 0.000000 0.000000 1.898140 
# 
# From -- ./inp_files/48686.got.cif
#   From: 2010.05.17/outbox.cif.g08.bks.cpg/sg65_25_cif.got.tgz:48686.got - 2010.06.03 17:01:31.
