data_PCOD9492998
_publ_section_title
;
Structure prediction by ZEFSAII (Michael W. Deem and Ramdas Pophale) SiO2 
 PCOD9492998
Probable space group: C M M M
;
_chemical_formula_sum "Si O2"
_cell_formula_units_Z 104
_cell_length_a 23.954306
_cell_length_b 8.855489
_cell_length_c 29.308598
_cell_angle_alpha 90.000000
_cell_angle_beta 90.000000
_cell_angle_gamma 90.000000
_cell_volume 6217.147702
_symmetry_space_group_name_H-M "C M M M"
_symmetry_group_IT_number 65
_symmetry_cell_setting 'orthorhombic'
loop_
_space_group_symop_operation_xyz
x,y,z
-x,-y,z
x,-y,-z
-x,y,-z
-x,-y,-z
x,y,-z
-x,y,z
x,-y,z
1/2+x,1/2+y,z
1/2-x,1/2-y,z
1/2+x,1/2-y,-z
1/2-x,1/2+y,-z
1/2-x,1/2-y,-z
1/2+x,1/2+y,-z
1/2-x,1/2+y,z
1/2+x,1/2-y,z
loop_
_atom_site_type_symbol
_atom_site_label
_atom_site_fract_x
_atom_site_fract_y
_atom_site_fract_z
Si Si1 0.614200 0.679722 0.550097
Si Si2 0.000000 0.321193 0.575512
Si Si3 0.500000 0.679706 0.673831
Si Si4 0.931973 0.325490 0.000000
Si Si5 0.067854 0.826526 0.094014
Si Si6 0.111990 0.318326 0.284687
Si Si7 0.435014 0.181468 0.810319
Si Si8 0.811249 0.818582 0.638582
O O1 0.641139 0.702002 0.500000
O O2 0.601523 0.500000 0.554198
O O3 0.557029 0.773352 0.551194
O O4 0.651704 0.721194 0.593826
O O5 0.000000 0.500000 0.585240
O O6 0.000000 0.220362 0.620923
O O7 0.500000 0.500000 0.681208
O O8 0.445557 0.757298 0.694380
O O9 0.912845 0.248170 0.953158
O O10 0.916399 0.500000 0.000000
O O11 0.000000 0.317488 0.000000
O O12 0.083469 0.743735 0.140766
O O13 0.000000 0.821538 0.092920
O O14 0.085072 0.000000 0.095674
O O15 0.114818 0.500000 0.287966
O O16 0.105561 0.275599 0.231326
O O17 0.159992 0.246023 0.315662
O O18 0.500000 0.231233 0.801734
O O19 0.436502 0.000000 0.812160
O O20 0.750000 0.750000 0.633603
O O21 0.809042 0.000000 0.641241
#
# Coordination Sequence:
#
# PCOD9492998 Si02
#       8
#    16   8   8   8  16  16  16  16
#     4  10  22  40  60  82 110 141 170 206 254 304
#     4  12  23  35  56  85 114 140 171 207 247 298
#     4  12  22  33  53  80 108 138 169 204 255 312
#     4   9  15  23  35  49  73 117 166 209 250 293
#     4   9  16  24  35  55  83 118 162 209 249 291
#     4  11  21  36  56  79 105 134 169 214 259 308
#     4   9  17  29  44  66  96 128 161 201 252 304
#     4  11  24  41  60  80 103 136 174 213 255 306
#
# _framework density 16.727927999999999
#
# number of rings (size 3 to 8) (size 9 to 14) (size 15 to 20)
#    0.000    1.769    2.308    3.231    0.000    6.154 
#    0.000    0.000    0.000    0.000    0.000    0.000 
#    0.000    0.000    0.000    0.692    0.000    9.308 
#
# Total GULP energy -290001.771248 kJ/mol
# GULP energy per Si atom -5576.957139 kJ/mol
# Density = 1.668985 g / cm^3
# Si number density = 16.727928 Si / 1000 Ang^3
#
#
#
# Elastic Constant Matrix: (Units=GPa)
#
#
# Indices 1 2 3 4 5 6 
#
# 1 72.9905 31.2763 44.1975 0.0000 0.0000 0.0000
# 2 31.2763 53.4541 47.9482 0.0000 0.0000 0.0000
# 3 44.1975 47.9482 161.8904 0.0000 0.0000 0.0000
# 4 0.0000 0.0000 0.0000 23.9568 0.0000 0.0000
# 5 0.0000 0.0000 0.0000 0.0000 8.8553 0.0000
# 6 0.0000 0.0000 0.0000 0.0000 0.0000 19.3470
#
#
#
# Elastic Compliance Matrix: (Units=1/GPa)
#
#
# Indices 1 2 3 4 5 6 
#
# 1 0.019048 -0.008825 -0.002587 0.000000 0.000000 0.000000
# 2 -0.008825 0.029564 -0.006347 0.000000 0.000000 0.000000
# 3 -0.002587 -0.006347 0.008763 0.000000 0.000000 0.000000
# 4 0.000000 0.000000 0.000000 0.041742 0.000000 0.000000
# 5 0.000000 0.000000 0.000000 0.000000 0.112927 0.000000
# 6 0.000000 0.000000 0.000000 0.000000 0.000000 0.051688
#
#
# Mechanical properties :
#
#
# Convention : Reuss Voigt Hill
#
# Bulk Modulus (GPa) = 45.74892 59.46432 52.60662
# Shear Modulus (GPa) = 16.31131 21.42600 18.86866
#
# Velocity S-wave (km/s) = 3.12604 3.58278 3.36218
# Velocity P-wave (km/s) = 6.35906 7.26225 6.82561
#
# Compressibility (1/GPa) = 0.02185844
#
# Stress axis : x y z
#
# Youngs Moduli (GPa) = 52.49852 33.82441 114.11618
#
# Poissons Ratio (x) = 0.29850 0.29517
# Poissons Ratio (y) = 0.46330 0.72429
# Poissons Ratio (z) = 0.13579 0.21468
#
# Static dielectric constant tensor:
#      x y z
#    x 1.523060 0.000000 0.000000 
#    y 0.000000 1.557460 0.000000 
#    z 0.000000 0.000000 1.596560 
# 
# From -- ./inp_files/75825.got.cif
#   From: 2010.05.17/outbox.cif.g08.bks.cpg/sg65_38_cif.got.tgz:75825.got - 2010.06.03 17:01:31.
