data_PCOD9492461
_publ_section_title
;
Structure prediction by ZEFSAII (Michael W. Deem and Ramdas Pophale) SiO2 
 PCOD9492461
Probable space group: C M M M
;
_chemical_formula_sum "Si O2"
_cell_formula_units_Z 56
_cell_length_a 28.528033
_cell_length_b 8.166167
_cell_length_c 11.306014
_cell_angle_alpha 90.000000
_cell_angle_beta 90.000000
_cell_angle_gamma 90.000000
_cell_volume 2633.901952
_symmetry_space_group_name_H-M "C M M M"
_symmetry_group_IT_number 65
_symmetry_cell_setting 'orthorhombic'
loop_
_space_group_symop_operation_xyz
x,y,z
-x,-y,z
x,-y,-z
-x,y,-z
-x,-y,-z
x,y,-z
-x,y,z
x,-y,z
1/2+x,1/2+y,z
1/2-x,1/2-y,z
1/2+x,1/2-y,-z
1/2-x,1/2+y,-z
1/2-x,1/2-y,-z
1/2+x,1/2+y,-z
1/2-x,1/2+y,z
1/2+x,1/2-y,z
loop_
_atom_site_type_symbol
_atom_site_label
_atom_site_fract_x
_atom_site_fract_y
_atom_site_fract_z
Si Si1 0.804206 0.196452 0.131945
Si Si2 0.446055 0.316088 0.718001
Si Si3 0.556165 0.000000 0.127157
Si Si4 0.354970 0.194803 0.627185
O O1 0.750000 0.250000 0.136915
O O2 0.828666 0.261134 0.251203
O O3 0.807472 0.000000 0.135319
O O4 0.821867 0.249221 0.000000
O O5 0.500000 0.293464 0.675546
O O6 0.443503 0.500000 0.768374
O O7 0.404189 0.291233 0.627115
O O8 0.434566 0.170175 0.808194
O O9 0.500000 0.000000 0.116957
O O10 0.578976 0.000000 0.000000
O O11 0.330676 0.229840 0.500000
O O12 0.364134 0.000000 0.629983
#
# Coordination Sequence:
#
# PCOD9492461 Si02
#       4
#    16  16   8  16
#     4  10  22  42  68  96 126 163 208 259 320 389
#     4  10  21  38  60  87 123 169 218 268 323 383
#     4   9  18  34  55  81 117 161 209 263 317 371
#     4  11  24  41  63  93 129 170 216 266 322 383
#
# _framework density 21.261234000000002
#
# number of rings (size 3 to 8) (size 9 to 14) (size 15 to 20)
#    0.000    1.857    1.429    1.714    0.000    6.857 
#    0.000    5.714    0.000    0.000    0.000    0.000 
#    0.000    0.000    0.000    0.000    0.000    0.000 
#
# Total GULP energy -156000.654571 kJ/mol
# GULP energy per Si atom -5571.451949 kJ/mol
# Density = 2.121284 g / cm^3
# Si number density = 21.261234 Si / 1000 Ang^3
#
#
#
# Elastic Constant Matrix: (Units=GPa)
#
#
# Indices 1 2 3 4 5 6 
#
# 1 77.2507 23.0087 66.2835 0.0000 0.0000 0.0000
# 2 23.0087 125.8416 65.3060 0.0000 0.0000 0.0000
# 3 66.2835 65.3060 194.0794 0.0000 0.0000 0.0000
# 4 0.0000 0.0000 0.0000 59.3025 0.0000 0.0000
# 5 0.0000 0.0000 0.0000 0.0000 16.2240 0.0000
# 6 0.0000 0.0000 0.0000 0.0000 0.0000 34.3407
#
#
#
# Elastic Compliance Matrix: (Units=1/GPa)
#
#
# Indices 1 2 3 4 5 6 
#
# 1 0.018312 -0.000124 -0.006212 0.000000 0.000000 0.000000
# 2 -0.000124 0.009629 -0.003197 0.000000 0.000000 0.000000
# 3 -0.006212 -0.003197 0.008350 0.000000 0.000000 0.000000
# 4 0.000000 0.000000 0.000000 0.016863 0.000000 0.000000
# 5 0.000000 0.000000 0.000000 0.000000 0.061637 0.000000
# 6 0.000000 0.000000 0.000000 0.000000 0.000000 0.029120
#
#
# Mechanical properties :
#
#
# Convention : Reuss Voigt Hill
#
# Bulk Modulus (GPa) = 58.06258 78.48533 68.27396
# Shear Modulus (GPa) = 29.63496 38.14500 33.88998
#
# Velocity S-wave (km/s) = 3.73748 4.24029 3.99680
# Velocity P-wave (km/s) = 6.78185 7.80822 7.31306
#
# Compressibility (1/GPa) = 0.01722280
#
# Stress axis : x y z
#
# Youngs Moduli (GPa) = 54.60824 103.85757 119.75846
#
# Poissons Ratio (x) = 0.01291 0.74398
# Poissons Ratio (y) = 0.00679 0.38293
# Poissons Ratio (z) = 0.33924 0.33208
#
# Static dielectric constant tensor:
#      x y z
#    x 1.771880 0.000000 0.000000 
#    y 0.000000 1.764100 0.000000 
#    z 0.000000 0.000000 1.833100 
# 
# From -- ./inp_files/33133.got.cif
#   From: 2010.05.17/outbox.cif.g08.bks.cpg/sg65_17_cif.got.tgz:33133.got - 2010.06.03 17:01:31.
