data_PCOD9492930
_publ_section_title
;
Structure prediction by ZEFSAII (Michael W. Deem and Ramdas Pophale) SiO2 
 PCOD9492930
Probable space group: C M M M
;
_chemical_formula_sum "Si O2"
_cell_formula_units_Z 80
_cell_length_a 13.960201
_cell_length_b 18.404089
_cell_length_c 13.940433
_cell_angle_alpha 90.000000
_cell_angle_beta 90.000000
_cell_angle_gamma 90.000000
_cell_volume 3581.642705
_symmetry_space_group_name_H-M "C M M M"
_symmetry_group_IT_number 65
_symmetry_cell_setting 'orthorhombic'
loop_
_space_group_symop_operation_xyz
x,y,z
-x,-y,z
x,-y,-z
-x,y,-z
-x,-y,-z
x,y,-z
-x,y,z
x,-y,z
1/2+x,1/2+y,z
1/2-x,1/2-y,z
1/2+x,1/2-y,-z
1/2-x,1/2+y,-z
1/2-x,1/2-y,-z
1/2+x,1/2+y,-z
1/2-x,1/2+y,z
1/2+x,1/2-y,z
loop_
_atom_site_type_symbol
_atom_site_label
_atom_site_fract_x
_atom_site_fract_y
_atom_site_fract_z
Si Si1 0.390247 0.384902 0.806336
Si Si2 0.696502 0.923251 0.886770
Si Si3 0.612524 0.772468 0.889963
Si Si4 0.315708 0.357880 0.388713
Si Si5 0.892951 0.307637 0.387501
O O1 0.500000 0.400590 0.831141
O O2 0.309971 0.422112 0.870099
O O3 0.372615 0.298776 0.826631
O O4 0.368930 0.401187 0.694982
O O5 0.657746 0.846231 0.850799
O O6 0.658077 0.000000 0.846929
O O7 0.674695 0.922191 0.000000
O O8 0.500000 0.784886 0.894646
O O9 0.644821 0.757754 0.000000
O O10 0.322706 0.382321 0.500000
O O11 0.203669 0.350491 0.359252
O O12 0.363227 0.277359 0.385277
O O13 0.901819 0.325657 0.500000
O O14 0.000000 0.317871 0.343853
#
# Coordination Sequence:
#
# PCOD9492930 Si02
#       5
#    16  16  16  16  16
#     4  11  22  34  54  83 113 146 184 229 280 328
#     4  10  22  39  58  80 108 144 184 227 275 332
#     4   9  19  36  58  84 112 141 176 224 281 335
#     4   9  18  30  45  72 110 146 181 223 270 322
#     4   8  14  25  41  63  96 138 178 215 260 313
#
# _framework density 22.336117999999999
#
# number of rings (size 3 to 8) (size 9 to 14) (size 15 to 20)
#    0.000    2.600    0.000    3.000    5.600    4.800 
#    0.000    3.000    0.000    0.600    0.000    1.400 
#    0.000    0.000    0.000   11.200    0.000    0.400 
#
# Total GULP energy -223091.641786 kJ/mol
# GULP energy per Si atom -5577.291045 kJ/mol
# Density = 2.228528 g / cm^3
# Si number density = 22.336118 Si / 1000 Ang^3
#
#
#
# Elastic Constant Matrix: (Units=GPa)
#
#
# Indices 1 2 3 4 5 6 
#
# 1 114.0365 36.7182 -4.9060 0.0000 0.0000 0.0000
# 2 36.7182 54.4384 6.0387 0.0000 0.0000 0.0000
# 3 -4.9060 6.0387 92.5431 0.0000 0.0000 0.0000
# 4 0.0000 0.0000 0.0000 -10.1220 0.0000 0.0000
# 5 0.0000 0.0000 0.0000 0.0000 27.6519 0.0000
# 6 0.0000 0.0000 0.0000 0.0000 0.0000 -49.7073
#
#
#
# Elastic Compliance Matrix: (Units=1/GPa)
#
#
# Indices 1 2 3 4 5 6 
#
# 1 0.011313 -0.007753 0.001106 0.000000 0.000000 0.000000
# 2 -0.007753 0.023817 -0.001965 0.000000 0.000000 0.000000
# 3 0.001106 -0.001965 0.010993 0.000000 0.000000 0.000000
# 4 0.000000 0.000000 0.000000 -0.098795 0.000000 0.000000
# 5 0.000000 0.000000 0.000000 0.000000 0.036164 0.000000
# 6 0.000000 0.000000 0.000000 0.000000 0.000000 -0.020118
#
#
# Mechanical properties :
#
#
# Convention : Reuss Voigt Hill
#
# Bulk Modulus (GPa) = 34.60549 37.41333 36.00941
# Shear Modulus (GPa) = -511.86497 8.44231 -251.71133
#
# Velocity S-wave (km/s) = -15.15461 1.94625 -10.62719
# Velocity P-wave (km/s) = 17.04962 4.67301 11.59423
#
# Compressibility (1/GPa) = 0.02889715
#
# Stress axis : x y z
#
# Youngs Moduli (GPa) = 88.39282 41.98703 90.97007
#
# Poissons Ratio (x) = 0.32554 -0.10058
# Poissons Ratio (y) = 0.68533 0.17877
# Poissons Ratio (z) = -0.09773 0.08251
#
# Static dielectric constant tensor:
#      x y z
#    x 1.847800 0.000000 0.000000 
#    y 0.000000 1.646230 0.000000 
#    z 0.000000 0.000000 1.867670 
# 
# From -- ./inp_files/40020.got.cif
#   From: 2010.05.17/outbox.cif.g08.bks.cpg/sg65_21_cif.got.tgz:40020.got - 2010.06.03 17:01:31.
