data_PCOD9492114
_publ_section_title
;
Structure prediction by ZEFSAII (Michael W. Deem and Ramdas Pophale) SiO2 
 PCOD9492114
Probable space group: C M M M
;
_chemical_formula_sum "Si O2"
_cell_formula_units_Z 104
_cell_length_a 25.889762
_cell_length_b 20.165658
_cell_length_c 9.425899
_cell_angle_alpha 90.000000
_cell_angle_beta 90.000000
_cell_angle_gamma 90.000000
_cell_volume 4921.111866
_symmetry_space_group_name_H-M "C M M M"
_symmetry_group_IT_number 65
_symmetry_cell_setting 'orthorhombic'
loop_
_space_group_symop_operation_xyz
x,y,z
-x,-y,z
x,-y,-z
-x,y,-z
-x,-y,-z
x,y,-z
-x,y,z
x,-y,z
1/2+x,1/2+y,z
1/2-x,1/2-y,z
1/2+x,1/2-y,-z
1/2-x,1/2+y,-z
1/2-x,1/2-y,-z
1/2+x,1/2+y,-z
1/2-x,1/2+y,z
1/2+x,1/2-y,z
loop_
_atom_site_type_symbol
_atom_site_label
_atom_site_fract_x
_atom_site_fract_y
_atom_site_fract_z
Si Si1 0.500000 0.581552 0.841583
Si Si2 0.579922 0.073916 0.831559
Si Si3 0.405885 0.421411 0.655547
Si Si4 0.197449 0.604498 0.840312
Si Si5 0.792990 0.128203 0.332309
Si Si6 0.441559 0.208949 0.669500
Si Si7 0.341991 0.744884 0.164485
O O1 0.500000 0.500000 0.844416
O O2 0.551654 0.603866 0.763126
O O3 0.500000 0.605965 0.000000
O O4 0.642005 0.072286 0.812816
O O5 0.560415 0.134380 0.735883
O O6 0.559956 0.000000 0.800261
O O7 0.570572 0.088084 0.000000
O O8 0.414968 0.391279 0.500000
O O9 0.414520 0.500000 0.646118
O O10 0.346371 0.410965 0.691521
O O11 0.243011 0.592324 0.730482
O O12 0.183678 0.682641 0.836088
O O13 0.214285 0.587261 0.000000
O O14 0.786949 0.140006 0.500000
O O15 0.804244 0.195144 0.245633
O O16 0.431527 0.207183 0.500000
O O17 0.500000 0.234452 0.691830
O O18 0.395995 0.248221 0.750329
O O19 0.350072 0.725205 0.000000
#
# Coordination Sequence:
#
# PCOD9492114 Si02
#       7
#     8  16  16  16  16  16  16
#     4   9  17  31  53  77  97 123 165 211 250 293
#     4   9  19  36  57  82 113 151 192 228 269 326
#     4   9  19  36  54  73 103 141 173 205 256 318
#     4   9  19  35  54  76 106 143 180 222 269 317
#     4  11  22  34  53  82 109 138 179 224 269 322
#     4  10  21  37  57  82 113 146 181 229 283 329
#     4  10  21  38  58  78 104 141 183 224 271 328
#
# _framework density 21.133437000000001
#
# number of rings (size 3 to 8) (size 9 to 14) (size 15 to 20)
#    0.000    2.385    0.000    3.000    0.000    9.538 
#    1.385    1.538    0.000    0.000    0.000    0.000 
#    0.000    0.000    0.000    0.000    0.000    0.000 
#
# Total GULP energy -290401.202579 kJ/mol
# GULP energy per Si atom -5584.638511 kJ/mol
# Density = 2.108534 g / cm^3
# Si number density = 21.133437 Si / 1000 Ang^3
#
#
#
# Elastic Constant Matrix: (Units=GPa)
#
#
# Indices 1 2 3 4 5 6 
#
# 1 128.6788 0.8411 85.6100 0.0000 0.0000 0.0000
# 2 0.8411 38.1688 9.4128 0.0000 0.0000 0.0000
# 3 85.6100 9.4128 110.3588 0.0000 0.0000 0.0000
# 4 0.0000 0.0000 0.0000 12.1645 0.0000 0.0000
# 5 0.0000 0.0000 0.0000 0.0000 42.8247 0.0000
# 6 0.0000 0.0000 0.0000 0.0000 0.0000 46.2164
#
#
#
# Elastic Compliance Matrix: (Units=1/GPa)
#
#
# Indices 1 2 3 4 5 6 
#
# 1 0.016353 0.002828 -0.012927 0.000000 0.000000 0.000000
# 2 0.002828 0.027251 -0.004518 0.000000 0.000000 0.000000
# 3 -0.012927 -0.004518 0.019475 0.000000 0.000000 0.000000
# 4 0.000000 0.000000 0.000000 0.082206 0.000000 0.000000
# 5 0.000000 0.000000 0.000000 0.000000 0.023351 0.000000
# 6 0.000000 0.000000 0.000000 0.000000 0.000000 0.021637
#
#
# Mechanical properties :
#
#
# Convention : Reuss Voigt Hill
#
# Bulk Modulus (GPa) = 29.54677 52.10379 40.82528
# Shear Modulus (GPa) = 21.66475 32.33062 26.99769
#
# Velocity S-wave (km/s) = 3.20526 3.91555 3.57807
# Velocity P-wave (km/s) = 5.26399 6.71939 6.03572
#
# Compressibility (1/GPa) = 0.03384464
#
# Stress axis : x y z
#
# Youngs Moduli (GPa) = 61.15044 36.69556 51.34871
#
# Poissons Ratio (x) = -0.10376 0.66378
# Poissons Ratio (y) = -0.17291 0.23198
# Poissons Ratio (z) = 0.79049 0.16578
#
# Static dielectric constant tensor:
#      x y z
#    x 1.763120 0.000000 0.000000 
#    y 0.000000 1.795230 0.000000 
#    z 0.000000 0.000000 1.732070 
# 
# From -- ./inp_files/16515.got.cif
#   From: 2010.05.17/outbox.cif.g08.bks.cpg/sg65_9_cif.got.tgz:16515.got - 2010.06.03 17:01:31.
