data_PCOD9492806
_publ_section_title
;
Structure prediction by ZEFSAII (Michael W. Deem and Ramdas Pophale) SiO2 
 PCOD9492806
Probable space group: C M M M
;
_chemical_formula_sum "Si O2"
_cell_formula_units_Z 104
_cell_length_a 27.018041
_cell_length_b 28.205610
_cell_length_c 7.530918
_cell_angle_alpha 90.000000
_cell_angle_beta 90.000000
_cell_angle_gamma 90.000000
_cell_volume 5739.013837
_symmetry_space_group_name_H-M "C M M M"
_symmetry_group_IT_number 65
_symmetry_cell_setting 'orthorhombic'
loop_
_space_group_symop_operation_xyz
x,y,z
-x,-y,z
x,-y,-z
-x,y,-z
-x,-y,-z
x,y,-z
-x,y,z
x,-y,z
1/2+x,1/2+y,z
1/2-x,1/2-y,z
1/2+x,1/2-y,-z
1/2-x,1/2+y,-z
1/2-x,1/2-y,-z
1/2+x,1/2+y,-z
1/2-x,1/2+y,z
1/2+x,1/2-y,z
loop_
_atom_site_type_symbol
_atom_site_label
_atom_site_fract_x
_atom_site_fract_y
_atom_site_fract_z
Si Si1 0.877694 0.053448 0.500000
Si Si2 0.372385 0.310100 0.207855
Si Si3 0.558758 0.352624 0.500000
Si Si4 0.500000 0.946070 0.289152
Si Si5 0.698154 0.226995 0.216715
Si Si6 0.697951 0.881764 0.217171
Si Si7 0.691655 0.595314 0.207605
Si Si8 0.891999 0.554005 0.789146
O O1 0.919751 0.093772 0.500000
O O2 0.842648 0.063152 0.669791
O O3 0.896585 0.000000 0.500000
O O4 0.417373 0.326581 0.329730
O O5 0.346770 0.261366 0.267743
O O6 0.330665 0.351408 0.222180
O O7 0.385894 0.306767 0.000000
O O8 0.500000 0.351762 0.500000
O O9 0.500000 0.948754 0.500000
O O10 0.447077 0.925111 0.236881
O O11 0.500000 0.000000 0.213880
O O12 0.750000 0.250000 0.274878
O O13 0.693854 0.172788 0.275095
O O14 0.698958 0.227159 0.000000
O O15 0.751358 0.902846 0.266562
O O16 0.652158 0.913449 0.279979
O O17 0.697635 0.881028 0.000000
O O18 0.689312 0.581769 0.000000
O O19 0.891174 0.500000 0.716673
O O20 0.884527 0.550483 0.000000
#
# Coordination Sequence:
#
# PCOD9492806 Si02
#       8
#     8  16   8   8  16  16  16  16
#     4  10  22  37  53  79 106 135 179 220 268 325
#     4   9  17  32  56  81 106 138 173 211 263 319
#     4  10  22  39  58  78 103 137 184 233 267 314
#     4   9  17  31  49  63  79 113 161 207 249 289
#     4   9  14  25  50  80 107 136 167 204 248 301
#     4   9  16  27  48  77 105 134 169 206 251 306
#     4   9  17  32  52  76 108 141 168 203 256 321
#     4   9  17  29  46  67  90 121 164 208 246 291
#
# _framework density 18.121580999999999
#
# number of rings (size 3 to 8) (size 9 to 14) (size 15 to 20)
#    0.000    2.846    1.538    0.231    0.000    2.308 
#    1.385    2.692    1.692    0.000    0.000    4.308 
#    0.000    0.000    0.000    0.000    0.000    0.000 
#
# Total GULP energy -289970.502071 kJ/mol
# GULP energy per Si atom -5576.355809 kJ/mol
# Density = 1.808034 g / cm^3
# Si number density = 18.121581 Si / 1000 Ang^3
#
#
#
# Elastic Constant Matrix: (Units=GPa)
#
#
# Indices 1 2 3 4 5 6 
#
# 1 174.1900 59.9370 36.2919 0.0000 0.0000 0.0000
# 2 59.9370 78.9046 20.0030 0.0000 0.0000 0.0000
# 3 36.2919 20.0030 63.1461 0.0000 0.0000 0.0000
# 4 0.0000 0.0000 0.0000 8.1776 0.0000 0.0000
# 5 0.0000 0.0000 0.0000 0.0000 20.4867 0.0000
# 6 0.0000 0.0000 0.0000 0.0000 0.0000 14.2956
#
#
#
# Elastic Compliance Matrix: (Units=1/GPa)
#
#
# Indices 1 2 3 4 5 6 
#
# 1 0.008265 -0.005517 -0.003002 0.000000 0.000000 0.000000
# 2 -0.005517 0.017463 -0.002361 0.000000 0.000000 0.000000
# 3 -0.003002 -0.002361 0.018310 0.000000 0.000000 0.000000
# 4 0.000000 0.000000 0.000000 0.122286 0.000000 0.000000
# 5 0.000000 0.000000 0.000000 0.000000 0.048812 0.000000
# 6 0.000000 0.000000 0.000000 0.000000 0.000000 0.069951
#
#
# Mechanical properties :
#
#
# Convention : Reuss Voigt Hill
#
# Bulk Modulus (GPa) = 44.88998 60.96715 52.92857
# Shear Modulus (GPa) = 15.90977 21.92591 18.91784
#
# Velocity S-wave (km/s) = 2.96623 3.48218 3.23451
# Velocity P-wave (km/s) = 6.04621 7.06285 6.57421
#
# Compressibility (1/GPa) = 0.02227669
#
# Stress axis : x y z
#
# Youngs Moduli (GPa) = 120.99697 57.26485 54.61566
#
# Poissons Ratio (x) = 0.31592 0.16398
# Poissons Ratio (y) = 0.66752 0.12895
# Poissons Ratio (z) = 0.36328 0.13521
#
# Static dielectric constant tensor:
#      x y z
#    x 1.597530 0.000000 0.000000 
#    y 0.000000 1.619160 0.000000 
#    z 0.000000 0.000000 1.658600 
# 
# From -- ./inp_files/15076.got.cif
#   From: 2010.05.17/outbox.cif.g08.bks.cpg/sg65_8_cif.got.tgz:15076.got - 2010.06.03 17:01:31.
