data_PCOD9492270
_publ_section_title
;
Structure prediction by ZEFSAII (Michael W. Deem and Ramdas Pophale) SiO2 
 PCOD9492270
Probable space group: C M M M
;
_chemical_formula_sum "Si O2"
_cell_formula_units_Z 104
_cell_length_a 17.505301
_cell_length_b 17.060710
_cell_length_c 18.424316
_cell_angle_alpha 90.000000
_cell_angle_beta 90.000000
_cell_angle_gamma 90.000000
_cell_volume 5502.474737
_symmetry_space_group_name_H-M "C M M M"
_symmetry_group_IT_number 65
_symmetry_cell_setting 'orthorhombic'
loop_
_space_group_symop_operation_xyz
x,y,z
-x,-y,z
x,-y,-z
-x,y,-z
-x,-y,-z
x,y,-z
-x,y,z
x,-y,z
1/2+x,1/2+y,z
1/2-x,1/2-y,z
1/2+x,1/2-y,-z
1/2-x,1/2+y,-z
1/2-x,1/2-y,-z
1/2+x,1/2+y,-z
1/2-x,1/2+y,z
1/2+x,1/2-y,z
loop_
_atom_site_type_symbol
_atom_site_label
_atom_site_fract_x
_atom_site_fract_y
_atom_site_fract_z
Si Si1 0.000000 0.906950 0.585947
Si Si2 0.133076 0.801338 0.357160
Si Si3 0.686389 0.912079 0.824760
Si Si4 0.265077 0.085671 0.339674
Si Si5 0.587257 0.137532 0.416019
Si Si6 0.305016 0.673486 0.917710
Si Si7 0.091486 0.255886 0.195845
O O1 0.072575 0.868686 0.624735
O O2 0.000000 0.887004 0.500000
O O3 0.000000 0.000000 0.592571
O O4 0.214978 0.841796 0.367122
O O5 0.111534 0.728197 0.407476
O O6 0.122896 0.769845 0.274943
O O7 0.728499 0.908500 0.746907
O O8 0.750561 0.893069 0.884531
O O9 0.624208 0.842492 0.822652
O O10 0.655102 0.000000 0.833691
O O11 0.350436 0.091422 0.370330
O O12 0.232718 0.000000 0.359373
O O13 0.590286 0.114310 0.500000
O O14 0.500000 0.128686 0.389886
O O15 0.250000 0.750000 0.918404
O O16 0.373377 0.696694 0.863694
O O17 0.329528 0.657411 0.000000
O O18 0.000000 0.255277 0.197313
#
# Coordination Sequence:
#
# PCOD9492270 Si02
#       7
#     8  16  16  16  16  16  16
#     4  11  24  40  60  86 120 160 204 261 320 370
#     4  12  21  39  62  87 119 158 206 256 308 368
#     4  10  21  37  59  90 124 158 200 248 301 361
#     4  11  24  39  60  88 118 156 203 254 305 362
#     4  11  24  41  62  88 119 160 205 249 305 372
#     4   9  19  37  62  89 119 159 203 245 294 358
#     4  11  21  36  62  93 122 161 203 248 304 366
#
# _framework density 18.900586000000001
#
# number of rings (size 3 to 8) (size 9 to 14) (size 15 to 20)
#    0.000    1.308    4.615    1.385    0.000    3.385 
#    0.000    2.308    0.000    0.000    0.000    5.385 
#    0.000    0.000    0.000    0.000    0.000    0.000 
#
# Total GULP energy -290345.719795 kJ/mol
# GULP energy per Si atom -5583.571535 kJ/mol
# Density = 1.885757 g / cm^3
# Si number density = 18.900586 Si / 1000 Ang^3
#
#
#
# Elastic Constant Matrix: (Units=GPa)
#
#
# Indices 1 2 3 4 5 6 
#
# 1 90.2079 33.7112 10.9175 0.0000 0.0000 0.0000
# 2 33.7112 78.9665 24.9721 0.0000 0.0000 0.0000
# 3 10.9175 24.9721 73.7359 0.0000 0.0000 0.0000
# 4 0.0000 0.0000 0.0000 -40.7763 0.0000 0.0000
# 5 0.0000 0.0000 0.0000 0.0000 23.6149 0.0000
# 6 0.0000 0.0000 0.0000 0.0000 0.0000 27.7374
#
#
#
# Elastic Compliance Matrix: (Units=1/GPa)
#
#
# Indices 1 2 3 4 5 6 
#
# 1 0.013190 -0.005615 -0.000051 0.000000 0.000000 0.000000
# 2 -0.005615 0.016573 -0.004781 0.000000 0.000000 0.000000
# 3 -0.000051 -0.004781 0.015189 0.000000 0.000000 0.000000
# 4 0.000000 0.000000 0.000000 -0.024524 0.000000 0.000000
# 5 0.000000 0.000000 0.000000 0.000000 0.042346 0.000000
# 6 0.000000 0.000000 0.000000 0.000000 0.000000 0.036052
#
#
# Mechanical properties :
#
#
# Convention : Reuss Voigt Hill
#
# Bulk Modulus (GPa) = 41.56859 42.45687 42.01273
# Shear Modulus (GPa) = 39.14227 13.66919 26.40573
#
# Velocity S-wave (km/s) = 4.55571 2.69218 3.74181
# Velocity P-wave (km/s) = 7.05079 5.67237 6.39881
#
# Compressibility (1/GPa) = 0.02405662
#
# Stress axis : x y z
#
# Youngs Moduli (GPa) = 75.81543 60.34090 65.83788
#
# Poissons Ratio (x) = 0.33879 0.00339
# Poissons Ratio (y) = 0.42567 0.31479
# Poissons Ratio (z) = 0.00390 0.28851
#
# Static dielectric constant tensor:
#      x y z
#    x 1.659630 0.000000 0.000000 
#    y 0.000000 1.673320 0.000000 
#    z 0.000000 0.000000 1.639790 
# 
# From -- ./inp_files/54593.got.cif
#   From: 2010.05.17/outbox.cif.g08.bks.cpg/sg65_28_cif.got.tgz:54593.got - 2010.06.03 17:01:31.
