data_PCOD9492463
_publ_section_title
;
Structure prediction by ZEFSAII (Michael W. Deem and Ramdas Pophale) SiO2 
 PCOD9492463
Probable space group: C M M M
;
_chemical_formula_sum "Si O2"
_cell_formula_units_Z 84
_cell_length_a 19.495327
_cell_length_b 14.158571
_cell_length_c 15.291441
_cell_angle_alpha 90.000000
_cell_angle_beta 90.000000
_cell_angle_gamma 90.000000
_cell_volume 4220.834858
_symmetry_space_group_name_H-M "C M M M"
_symmetry_group_IT_number 65
_symmetry_cell_setting 'orthorhombic'
loop_
_space_group_symop_operation_xyz
x,y,z
-x,-y,z
x,-y,-z
-x,y,-z
-x,-y,-z
x,y,-z
-x,y,z
x,-y,z
1/2+x,1/2+y,z
1/2-x,1/2-y,z
1/2+x,1/2-y,-z
1/2-x,1/2+y,-z
1/2-x,1/2-y,-z
1/2+x,1/2+y,-z
1/2-x,1/2+y,z
1/2+x,1/2-y,z
loop_
_atom_site_type_symbol
_atom_site_label
_atom_site_fract_x
_atom_site_fract_y
_atom_site_fract_z
Si Si1 0.255614 0.500000 0.500000
Si Si2 0.857187 0.795743 0.902474
Si Si3 0.419844 0.767986 0.396377
Si Si4 0.217784 0.646056 0.650203
Si Si5 0.081555 0.894572 0.264182
Si Si6 0.284432 0.108046 0.854773
O O1 0.250681 0.581118 0.577112
O O2 0.900491 0.842681 0.825675
O O3 0.785067 0.852215 0.897861
O O4 0.840996 0.686363 0.880208
O O5 0.885903 0.804147 0.000000
O O6 0.415379 0.752777 0.500000
O O7 0.500000 0.790404 0.375765
O O8 0.364006 0.845643 0.369333
O O9 0.399247 0.673589 0.343891
O O10 0.250000 0.750000 0.644224
O O11 0.226408 0.613255 0.750083
O O12 0.000000 0.903312 0.269513
O O13 0.111839 0.000000 0.268147
O O14 0.298681 0.000000 0.879924
#
# Coordination Sequence:
#
# PCOD9492463 Si02
#       6
#     4  16  16  16  16  16
#     4  12  26  36  61  94 123 158 212 248 294 362
#     4  11  23  39  60  88 119 154 200 251 306 363
#     4  10  21  39  62  87 121 160 200 249 296 354
#     4  12  22  41  60  87 124 161 200 248 297 360
#     4  10  21  38  60  88 121 157 198 245 302 365
#     4  11  21  37  62  85 117 153 193 246 304 358
#
# _framework density 19.901277
#
# number of rings (size 3 to 8) (size 9 to 14) (size 15 to 20)
#    0.000    1.143    5.714    2.000    0.000    3.429 
#    1.714    3.810    0.000    1.714    0.000    1.333 
#    0.000    0.000    0.000    0.000    0.000    0.000 
#
# Total GULP energy -234138.625931 kJ/mol
# GULP energy per Si atom -5574.729189 kJ/mol
# Density = 1.985598 g / cm^3
# Si number density = 19.901277 Si / 1000 Ang^3
#
#
#
# Elastic Constant Matrix: (Units=GPa)
#
#
# Indices 1 2 3 4 5 6 
#
# 1 39.8716 7.4131 12.1457 0.0000 0.0000 0.0000
# 2 7.4131 93.9861 10.0424 0.0000 0.0000 0.0000
# 3 12.1457 10.0424 105.8709 0.0000 0.0000 0.0000
# 4 0.0000 0.0000 0.0000 -22.0638 0.0000 0.0000
# 5 0.0000 0.0000 0.0000 0.0000 30.5181 0.0000
# 6 0.0000 0.0000 0.0000 0.0000 0.0000 11.4315
#
#
#
# Elastic Compliance Matrix: (Units=1/GPa)
#
#
# Indices 1 2 3 4 5 6 
#
# 1 0.026276 -0.001768 -0.002847 0.000000 0.000000 0.000000
# 2 -0.001768 0.010868 -0.000828 0.000000 0.000000 0.000000
# 3 -0.002847 -0.000828 0.009851 0.000000 0.000000 0.000000
# 4 0.000000 0.000000 0.000000 -0.045323 0.000000 0.000000
# 5 0.000000 0.000000 0.000000 0.000000 0.032767 0.000000
# 6 0.000000 0.000000 0.000000 0.000000 0.000000 0.087477
#
#
# Mechanical properties :
#
#
# Convention : Reuss Voigt Hill
#
# Bulk Modulus (GPa) = 27.69419 33.21455 30.45437
# Shear Modulus (GPa) = 34.52109 17.98566 26.25337
#
# Velocity S-wave (km/s) = 4.16939 3.00949 3.63599
# Velocity P-wave (km/s) = 6.09298 5.36675 5.74136
#
# Compressibility (1/GPa) = 0.03610865
#
# Stress axis : x y z
#
# Youngs Moduli (GPa) = 38.05684 92.01477 101.51672
#
# Poissons Ratio (x) = 0.16272 0.28899
# Poissons Ratio (y) = 0.06730 0.08406
# Poissons Ratio (z) = 0.10834 0.07619
#
# Static dielectric constant tensor:
#      x y z
#    x 1.744090 0.000000 0.000000 
#    y 0.000000 1.719750 0.000000 
#    z 0.000000 0.000000 1.677040 
# 
# From -- ./inp_files/43996.got.cif
#   From: 2010.05.17/outbox.cif.g08.bks.cpg/sg65_22_cif.got.tgz:43996.got - 2010.06.03 17:01:31.
