data_PCOD9492389
_publ_section_title
;
Structure prediction by ZEFSAII (Michael W. Deem and Ramdas Pophale) SiO2 
 PCOD9492389
Probable space group: C M M M
;
_chemical_formula_sum "Si O2"
_cell_formula_units_Z 88
_cell_length_a 23.944734
_cell_length_b 8.583491
_cell_length_c 23.166298
_cell_angle_alpha 90.000000
_cell_angle_beta 90.000000
_cell_angle_gamma 90.000000
_cell_volume 4761.355532
_symmetry_space_group_name_H-M "C M M M"
_symmetry_group_IT_number 65
_symmetry_cell_setting 'orthorhombic'
loop_
_space_group_symop_operation_xyz
x,y,z
-x,-y,z
x,-y,-z
-x,y,-z
-x,-y,-z
x,y,-z
-x,y,z
x,-y,z
1/2+x,1/2+y,z
1/2-x,1/2-y,z
1/2+x,1/2-y,-z
1/2-x,1/2+y,-z
1/2-x,1/2-y,-z
1/2+x,1/2+y,-z
1/2-x,1/2+y,z
1/2+x,1/2-y,z
loop_
_atom_site_type_symbol
_atom_site_label
_atom_site_fract_x
_atom_site_fract_y
_atom_site_fract_z
Si Si1 0.313023 0.185463 0.000000
Si Si2 0.188620 0.686548 0.432689
Si Si3 0.878282 0.187321 0.110735
Si Si4 0.500000 0.689366 0.281385
Si Si5 0.312557 0.186066 0.221224
Si Si6 0.000000 0.189655 0.852691
Si Si7 0.119731 0.812762 0.670651
O O1 0.250000 0.250000 0.000000
O O2 0.346076 0.243757 0.943749
O O3 0.310418 0.000000 0.000000
O O4 0.179588 0.727431 0.500000
O O5 0.188833 0.500000 0.427358
O O6 0.250000 0.750000 0.416125
O O7 0.142231 0.757801 0.390989
O O8 0.848048 0.242031 0.168982
O O9 0.943011 0.237499 0.115975
O O10 0.876492 0.000000 0.107429
O O11 0.500000 0.500000 0.279844
O O12 0.500000 0.741707 0.214412
O O13 0.556598 0.736860 0.313696
O O14 0.250000 0.250000 0.217707
O O15 0.340324 0.240028 0.280838
O O16 0.312464 0.000000 0.217133
O O17 0.000000 0.000000 0.851295
O O18 0.122650 0.000000 0.674381
#
# Coordination Sequence:
#
# PCOD9492389 Si02
#       7
#     8  16  16   8  16   8  16
#     4  12  26  45  64  89 123 160 200 246 299 358
#     4  10  21  38  59  85 119 157 198 245 299 356
#     4  11  22  41  66  91 119 157 200 244 292 351
#     4   9  18  36  60  88 118 156 196 241 292 349
#     4  12  24  38  57  86 120 155 195 244 300 355
#     4   9  18  37  65  91 120 155 198 240 292 353
#     4  11  21  37  61  87 117 154 199 246 293 350
#
# _framework density 18.482132
#
# number of rings (size 3 to 8) (size 9 to 14) (size 15 to 20)
#    0.000    1.273    1.818    5.182    0.000    1.455 
#    0.000    6.818    0.000    2.727    0.000    0.000 
#    0.000    0.000    0.000    0.000    0.000    0.000 
#
# Total GULP energy -245995.985961 kJ/mol
# GULP energy per Si atom -5590.817863 kJ/mol
# Density = 1.844007 g / cm^3
# Si number density = 18.482132 Si / 1000 Ang^3
#
#
#
# Elastic Constant Matrix: (Units=GPa)
#
#
# Indices 1 2 3 4 5 6 
#
# 1 184.3940 48.7990 73.5711 0.0000 0.0000 0.0000
# 2 48.7990 89.2349 36.0329 0.0000 0.0000 0.0000
# 3 73.5711 36.0329 103.4438 0.0000 0.0000 0.0000
# 4 0.0000 0.0000 0.0000 37.7238 0.0000 0.0000
# 5 0.0000 0.0000 0.0000 0.0000 66.4162 0.0000
# 6 0.0000 0.0000 0.0000 0.0000 0.0000 23.6242
#
#
#
# Elastic Compliance Matrix: (Units=1/GPa)
#
#
# Indices 1 2 3 4 5 6 
#
# 1 0.007996 -0.002416 -0.004845 0.000000 0.000000 0.000000
# 2 -0.002416 0.013771 -0.003078 0.000000 0.000000 0.000000
# 3 -0.004845 -0.003078 0.014185 0.000000 0.000000 0.000000
# 4 0.000000 0.000000 0.000000 0.026508 0.000000 0.000000
# 5 0.000000 0.000000 0.000000 0.000000 0.015057 0.000000
# 6 0.000000 0.000000 0.000000 0.000000 0.000000 0.042329
#
#
# Mechanical properties :
#
#
# Convention : Reuss Voigt Hill
#
# Bulk Modulus (GPa) = 65.47706 77.09763 71.28735
# Shear Modulus (GPa) = 34.33680 40.13080 37.23380
#
# Velocity S-wave (km/s) = 4.31494 4.66481 4.49328
# Velocity P-wave (km/s) = 7.76718 8.41541 8.09778
#
# Compressibility (1/GPa) = 0.01527252
#
# Stress axis : x y z
#
# Youngs Moduli (GPa) = 125.06694 72.61787 70.49539
#
# Poissons Ratio (x) = 0.17545 0.34156
# Poissons Ratio (y) = 0.30217 0.21701
# Poissons Ratio (z) = 0.60596 0.22355
#
# Static dielectric constant tensor:
#      x y z
#    x 1.617970 0.000000 0.000000 
#    y 0.000000 1.627070 0.000000 
#    z 0.000000 0.000000 1.617280 
# 
# From -- ./inp_files/71074.got.cif
#   From: 2010.05.17/outbox.cif.g08.bks.cpg/sg65_36_cif.got.tgz:71074.got - 2010.06.03 17:01:31.
