data_PCOD9492513
_publ_section_title
;
Structure prediction by ZEFSAII (Michael W. Deem and Ramdas Pophale) SiO2 
 PCOD9492513
Probable space group: C M M M
;
_chemical_formula_sum "Si O2"
_cell_formula_units_Z 96
_cell_length_a 25.953345
_cell_length_b 23.790783
_cell_length_c 8.802909
_cell_angle_alpha 90.000000
_cell_angle_beta 90.000000
_cell_angle_gamma 90.000000
_cell_volume 5435.359675
_symmetry_space_group_name_H-M "C M M M"
_symmetry_group_IT_number 65
_symmetry_cell_setting 'orthorhombic'
loop_
_space_group_symop_operation_xyz
x,y,z
-x,-y,z
x,-y,-z
-x,y,-z
-x,-y,-z
x,y,-z
-x,y,z
x,-y,z
1/2+x,1/2+y,z
1/2-x,1/2-y,z
1/2+x,1/2-y,-z
1/2-x,1/2+y,-z
1/2-x,1/2-y,-z
1/2+x,1/2+y,-z
1/2-x,1/2+y,z
1/2+x,1/2-y,z
loop_
_atom_site_type_symbol
_atom_site_label
_atom_site_fract_x
_atom_site_fract_y
_atom_site_fract_z
Si Si1 0.000000 0.933069 0.320256
Si Si2 0.095737 0.866548 0.817418
Si Si3 0.061134 0.749120 0.682124
Si Si4 0.500000 0.932870 0.321080
Si Si5 0.691214 0.934159 0.681290
Si Si6 0.903490 0.631927 0.818770
Si Si7 0.802653 0.065273 0.817908
O O1 0.949860 0.905831 0.244706
O O2 0.000000 0.919967 0.500000
O O3 0.000000 0.000000 0.300744
O O4 0.086728 0.805181 0.748133
O O5 0.150374 0.894323 0.775138
O O6 0.092797 0.863883 0.000000
O O7 0.065426 0.748215 0.500000
O O8 0.086747 0.693745 0.751777
O O9 0.000000 0.749396 0.720375
O O10 0.500000 0.918072 0.500000
O O11 0.449696 0.906688 0.244379
O O12 0.500000 0.000000 0.307351
O O13 0.686917 0.928236 0.500000
O O14 0.649715 0.894966 0.761942
O O15 0.749156 0.921432 0.735389
O O16 0.681217 0.000000 0.719457
O O17 0.905146 0.633668 0.000000
O O18 0.815998 0.000000 0.783756
O O19 0.794965 0.069223 0.000000
#
# Coordination Sequence:
#
# PCOD9492513 Si02
#       7
#     8  16  16   8  16  16  16
#     4  11  23  36  53  82 119 155 193 239 290 347
#     4  11  22  37  60  87 117 152 195 243 293 348
#     4  11  23  40  61  83 115 157 197 240 292 347
#     4  11  23  38  57  84 119 153 187 233 288 347
#     4  10  21  38  61  88 119 156 194 235 288 347
#     4  12  24  38  60  87 116 151 195 242 289 343
#     4   9  19  37  60  87 119 154 192 237 290 345
#
# _framework density 17.662125
#
# number of rings (size 3 to 8) (size 9 to 14) (size 15 to 20)
#    0.000    1.333    1.667    4.500    0.000    7.000 
#    0.000    2.500    0.000    5.000    0.000    0.000 
#    0.000    0.000    0.000    0.000    0.000    0.000 
#
# Total GULP energy -268365.133562 kJ/mol
# GULP energy per Si atom -5590.940283 kJ/mol
# Density = 1.762193 g / cm^3
# Si number density = 17.662125 Si / 1000 Ang^3
#
#
#
# Elastic Constant Matrix: (Units=GPa)
#
#
# Indices 1 2 3 4 5 6 
#
# 1 147.1373 102.5910 76.3877 0.0000 0.0000 0.0000
# 2 102.5910 131.2458 80.3793 0.0000 0.0000 0.0000
# 3 76.3877 80.3793 98.9891 0.0000 0.0000 0.0000
# 4 0.0000 0.0000 0.0000 17.2557 0.0000 0.0000
# 5 0.0000 0.0000 0.0000 0.0000 -152.7902 0.0000
# 6 0.0000 0.0000 0.0000 0.0000 0.0000 -35.2834
#
#
#
# Elastic Compliance Matrix: (Units=1/GPa)
#
#
# Indices 1 2 3 4 5 6 
#
# 1 0.015810 -0.009720 -0.004307 0.000000 0.000000 0.000000
# 2 -0.009720 0.021133 -0.009659 0.000000 0.000000 0.000000
# 3 -0.004307 -0.009659 0.021269 0.000000 0.000000 0.000000
# 4 0.000000 0.000000 0.000000 0.057952 0.000000 0.000000
# 5 0.000000 0.000000 0.000000 0.000000 -0.006545 0.000000
# 6 0.000000 0.000000 0.000000 0.000000 0.000000 -0.028342
#
#
# Mechanical properties :
#
#
# Convention : Reuss Voigt Hill
#
# Bulk Modulus (GPa) = 92.26152 99.56534 95.91343
# Shear Modulus (GPa) = 37.80344 -26.29597 5.75374
#
# Velocity S-wave (km/s) = 4.63143 -3.86273 1.80686
# Velocity P-wave (km/s) = 8.99725 6.04983 7.66652
#
# Compressibility (1/GPa) = 0.01083875
#
# Stress axis : x y z
#
# Youngs Moduli (GPa) = 63.25113 47.31981 47.01655
#
# Poissons Ratio (x) = 0.45996 0.20252
# Poissons Ratio (y) = 0.61482 0.45413
# Poissons Ratio (z) = 0.27245 0.45706
#
# Static dielectric constant tensor:
#      x y z
#    x 1.575490 0.000000 0.000000 
#    y 0.000000 1.580570 0.000000 
#    z 0.000000 0.000000 1.589620 
# 
# From -- ./inp_files/14342.got.cif
#   From: 2010.05.17/outbox.cif.g08.bks.cpg/sg65_8_cif.got.tgz:14342.got - 2010.06.03 17:01:31.
