data_PCOD9492600
_publ_section_title
;
Structure prediction by ZEFSAII (Michael W. Deem and Ramdas Pophale) SiO2 
 PCOD9492600
Probable space group: C M M M
;
_chemical_formula_sum "Si O2"
_cell_formula_units_Z 48
_cell_length_a 5.469978
_cell_length_b 32.590253
_cell_length_c 15.211564
_cell_angle_alpha 90.000000
_cell_angle_beta 90.000000
_cell_angle_gamma 90.000000
_cell_volume 2711.734588
_symmetry_space_group_name_H-M "C M M M"
_symmetry_group_IT_number 65
_symmetry_cell_setting 'orthorhombic'
loop_
_space_group_symop_operation_xyz
x,y,z
-x,-y,z
x,-y,-z
-x,y,-z
-x,-y,-z
x,y,-z
-x,y,z
x,-y,z
1/2+x,1/2+y,z
1/2-x,1/2-y,z
1/2+x,1/2-y,-z
1/2-x,1/2+y,-z
1/2-x,1/2-y,-z
1/2+x,1/2+y,-z
1/2-x,1/2+y,z
1/2+x,1/2-y,z
loop_
_atom_site_type_symbol
_atom_site_label
_atom_site_fract_x
_atom_site_fract_y
_atom_site_fract_z
Si Si1 0.000000 0.547849 0.605536
Si Si2 0.500000 0.427097 0.696205
Si Si3 0.500000 0.912419 0.101047
Si Si4 0.000000 0.500000 0.869401
Si Si5 0.500000 0.273523 0.893638
Si Si6 0.500000 0.500000 0.840283
Si Si7 0.000000 0.867958 0.155372
O O1 0.252329 0.566743 0.641197
O O2 0.000000 0.500000 0.633884
O O3 0.000000 0.549333 0.500000
O O4 0.500000 0.461574 0.773744
O O5 0.500000 0.383585 0.744676
O O6 0.251418 0.886745 0.115190
O O7 0.500000 0.952297 0.165428
O O8 0.500000 0.927486 0.000000
O O9 0.270169 0.500000 0.902738
O O10 0.750000 0.250000 0.868347
O O11 0.500000 0.319511 0.857152
O O12 0.500000 0.276462 0.000000
#
# Coordination Sequence:
#
# PCOD9492600 Si02
#       7
#     8   8   8   4   8   4   8
#     4  11  22  35  54  79 109 149 189 222 262 315
#     4  12  21  35  55  76 110 142 183 228 266 321
#     4  12  23  35  50  73 108 144 189 233 261 306
#     4  12  21  36  46  70 103 150 192 226 259 306
#     4  10  21  39  60  80 107 139 175 227 289 343
#     4  12  20  34  52  72 106 144 190 230 272 306
#     4  12  24  37  57  82 105 141 185 229 282 331
#
# _framework density 17.700848000000001
#
# number of rings (size 3 to 8) (size 9 to 14) (size 15 to 20)
#    0.000    0.500    5.000    5.250    0.000    2.667 
#    0.000    2.500    0.000    0.000    0.000    0.000 
#    0.000   13.333    0.000    0.000    0.000    0.000 
#
# Total GULP energy -133743.060055 kJ/mol
# GULP energy per Si atom -5572.627502 kJ/mol
# Density = 1.766056 g / cm^3
# Si number density = 17.700848 Si / 1000 Ang^3
#
#
#
# Elastic Constant Matrix: (Units=GPa)
#
#
# Indices 1 2 3 4 5 6 
#
# 1 231.5114 70.8108 51.8500 0.0000 0.0000 0.0000
# 2 70.8108 153.8945 25.6182 0.0000 0.0000 0.0000
# 3 51.8500 25.6182 63.3360 0.0000 0.0000 0.0000
# 4 0.0000 0.0000 0.0000 21.2593 0.0000 0.0000
# 5 0.0000 0.0000 0.0000 0.0000 14.1945 0.0000
# 6 0.0000 0.0000 0.0000 0.0000 0.0000 26.1697
#
#
#
# Elastic Compliance Matrix: (Units=1/GPa)
#
#
# Indices 1 2 3 4 5 6 
#
# 1 0.005822 -0.002022 -0.003949 0.000000 0.000000 0.000000
# 2 -0.002022 0.007669 -0.001447 0.000000 0.000000 0.000000
# 3 -0.003949 -0.001447 0.019607 0.000000 0.000000 0.000000
# 4 0.000000 0.000000 0.000000 0.047038 0.000000 0.000000
# 5 0.000000 0.000000 0.000000 0.000000 0.070450 0.000000
# 6 0.000000 0.000000 0.000000 0.000000 0.000000 0.038212
#
#
# Mechanical properties :
#
#
# Convention : Reuss Voigt Hill
#
# Bulk Modulus (GPa) = 54.75434 82.81108 68.78271
# Shear Modulus (GPa) = 23.84132 32.35556 28.09844
#
# Velocity S-wave (km/s) = 3.67400 4.28005 3.98855
# Velocity P-wave (km/s) = 6.99986 8.44454 7.75591
#
# Compressibility (1/GPa) = 0.01826339
#
# Stress axis : x y z
#
# Youngs Moduli (GPa) = 171.75921 130.39476 51.00335
#
# Poissons Ratio (x) = 0.26361 0.20139
# Poissons Ratio (y) = 0.34723 0.07380
# Poissons Ratio (z) = 0.67820 0.18868
#
# Static dielectric constant tensor:
#      x y z
#    x 1.628590 0.000000 0.000000 
#    y 0.000000 1.616780 0.000000 
#    z 0.000000 0.000000 1.636960 
# 
# From -- ./inp_files/34548.got.cif
#   From: 2010.05.17/outbox.cif.g08.bks.cpg/sg65_18_cif.got.tgz:34548.got - 2010.06.03 17:01:31.
