data_PCOD9492290
_publ_section_title
;
Structure prediction by ZEFSAII (Michael W. Deem and Ramdas Pophale) SiO2 
 PCOD9492290
Probable space group: C M M M
;
_chemical_formula_sum "Si O2"
_cell_formula_units_Z 66
_cell_length_a 25.802244
_cell_length_b 15.885134
_cell_length_c 7.784232
_cell_angle_alpha 90.000000
_cell_angle_beta 90.000000
_cell_angle_gamma 90.000000
_cell_volume 3190.539544
_symmetry_space_group_name_H-M "C M M M"
_symmetry_group_IT_number 65
_symmetry_cell_setting 'orthorhombic'
loop_
_space_group_symop_operation_xyz
x,y,z
-x,-y,z
x,-y,-z
-x,y,-z
-x,-y,-z
x,y,-z
-x,y,z
x,-y,z
1/2+x,1/2+y,z
1/2-x,1/2-y,z
1/2+x,1/2-y,-z
1/2-x,1/2+y,-z
1/2-x,1/2-y,-z
1/2+x,1/2+y,-z
1/2-x,1/2+y,z
1/2+x,1/2-y,z
loop_
_atom_site_type_symbol
_atom_site_label
_atom_site_fract_x
_atom_site_fract_y
_atom_site_fract_z
Si Si1 0.644405 0.837276 0.700634
Si Si2 0.559750 0.500000 0.710472
Si Si3 0.415856 0.000000 0.189898
Si Si4 0.133183 0.848747 0.707171
Si Si5 0.250583 0.596143 0.204936
Si Si6 0.500000 0.000000 0.500000
O O1 0.630349 0.842997 0.500000
O O2 0.625923 0.746843 0.768845
O O3 0.706477 0.844856 0.716813
O O4 0.619604 0.916957 0.793124
O O5 0.500000 0.500000 0.764972
O O6 0.560108 0.500000 0.500000
O O7 0.591491 0.417370 0.767333
O O8 0.455318 0.000000 0.347599
O O9 0.439590 0.000000 0.000000
O O10 0.130114 0.846464 0.500000
O O11 0.191001 0.877916 0.753129
O O12 0.242314 0.500000 0.265567
O O13 0.244206 0.598259 0.000000
#
# Coordination Sequence:
#
# PCOD9492290 Si02
#       6
#    16   8   8  16  16   2
#     4  11  22  39  62  97 130 170 213 267 327 392
#     4   9  18  37  61  89 118 159 211 267 319 381
#     4  12  25  46  72  98 132 173 219 269 332 394
#     4  10  21  37  61  92 125 166 216 264 324 392
#     4  11  22  35  57  89 128 171 212 265 329 393
#     4  12  26  52  72  98 128 174 214 284 330 386
#
# _framework density 20.686157999999999
#
# number of rings (size 3 to 8) (size 9 to 14) (size 15 to 20)
#    0.000    1.333    3.636    2.364    0.000    5.818 
#    2.182    0.000    0.000    1.455    0.000    0.000 
#    0.000    0.000    0.000    0.000    0.000    0.000 
#
# Total GULP energy -184205.716627 kJ/mol
# GULP energy per Si atom -5581.991413 kJ/mol
# Density = 2.063908 g / cm^3
# Si number density = 20.686158 Si / 1000 Ang^3
#
#
#
# Elastic Constant Matrix: (Units=GPa)
#
#
# Indices 1 2 3 4 5 6 
#
# 1 141.0482 75.1155 20.8502 0.0000 0.0000 0.0000
# 2 75.1155 187.9555 24.0706 0.0000 0.0000 0.0000
# 3 20.8502 24.0706 76.5942 0.0000 0.0000 0.0000
# 4 0.0000 0.0000 0.0000 -2.4403 0.0000 0.0000
# 5 0.0000 0.0000 0.0000 0.0000 -88.2527 0.0000
# 6 0.0000 0.0000 0.0000 0.0000 0.0000 3.6246
#
#
#
# Elastic Compliance Matrix: (Units=1/GPa)
#
#
# Indices 1 2 3 4 5 6 
#
# 1 0.009148 -0.003477 -0.001398 0.000000 0.000000 0.000000
# 2 -0.003477 0.006865 -0.001211 0.000000 0.000000 0.000000
# 3 -0.001398 -0.001211 0.013817 0.000000 0.000000 0.000000
# 4 0.000000 0.000000 0.000000 -0.409794 0.000000 0.000000
# 5 0.000000 0.000000 0.000000 0.000000 -0.011331 0.000000
# 6 0.000000 0.000000 0.000000 0.000000 0.000000 0.275895
#
#
# Mechanical properties :
#
#
# Convention : Reuss Voigt Hill
#
# Bulk Modulus (GPa) = 56.62857 71.74116 64.18486
# Shear Modulus (GPa) = -51.36487 1.62377 -24.87055
#
# Velocity S-wave (km/s) = -4.98843 0.88694 -3.47115
# Velocity P-wave (km/s) = 2.39682 5.98372 3.87687
#
# Compressibility (1/GPa) = 0.01765893
#
# Stress axis : x y z
#
# Youngs Moduli (GPa) = 109.31293 145.66536 72.37568
#
# Poissons Ratio (x) = 0.50648 0.10115
# Poissons Ratio (y) = 0.38008 0.08764
# Poissons Ratio (z) = 0.15277 0.17639
#
# Static dielectric constant tensor:
#      x y z
#    x 1.694650 0.000000 0.000000 
#    y 0.000000 1.753500 0.000000 
#    z 0.000000 0.000000 1.736430 
# 
# From -- ./inp_files/15687.got.cif
#   From: 2010.05.17/outbox.cif.g08.bks.cpg/sg65_8_cif.got.tgz:15687.got - 2010.06.03 17:01:31.
