data_PCOD9492895
_publ_section_title
;
Structure prediction by ZEFSAII (Michael W. Deem and Ramdas Pophale) SiO2 
 PCOD9492895
Probable space group: C M M M
;
_chemical_formula_sum "Si O2"
_cell_formula_units_Z 58
_cell_length_a 19.578424
_cell_length_b 8.767023
_cell_length_c 17.971524
_cell_angle_alpha 90.000000
_cell_angle_beta 90.000000
_cell_angle_gamma 90.000000
_cell_volume 3084.713135
_symmetry_space_group_name_H-M "C M M M"
_symmetry_group_IT_number 65
_symmetry_cell_setting 'orthorhombic'
loop_
_space_group_symop_operation_xyz
x,y,z
-x,-y,z
x,-y,-z
-x,y,-z
-x,-y,-z
x,y,-z
-x,y,z
x,-y,z
1/2+x,1/2+y,z
1/2-x,1/2-y,z
1/2+x,1/2-y,-z
1/2-x,1/2+y,-z
1/2-x,1/2-y,-z
1/2+x,1/2+y,-z
1/2-x,1/2+y,z
1/2+x,1/2-y,z
loop_
_atom_site_type_symbol
_atom_site_label
_atom_site_fract_x
_atom_site_fract_y
_atom_site_fract_z
Si Si1 0.675918 0.683743 0.585057
Si Si2 0.822502 0.681480 0.843348
Si Si3 0.000000 0.000000 0.000000
Si Si4 0.357810 0.331149 0.000000
Si Si5 0.079413 0.815534 0.720029
O O1 0.660221 0.731103 0.500000
O O2 0.680251 0.500000 0.586054
O O3 0.750000 0.750000 0.605015
O O4 0.619074 0.729161 0.644712
O O5 0.819495 0.500000 0.842096
O O6 0.750000 0.750000 0.817905
O O7 0.881416 0.742187 0.789070
O O8 0.837020 0.743028 0.926017
O O9 0.938568 0.869873 0.000000
O O10 0.323614 0.500000 0.000000
O O11 0.000000 0.773085 0.717887
O O12 0.083182 0.000000 0.727166
#
# Coordination Sequence:
#
# PCOD9492895 Si02
#       5
#    16  16   2   8  16
#     4   9  18  34  57  84 113 149 194 242 291 346
#     4  12  25  41  62  89 119 155 199 247 292 345
#     4   8  24  40  70  92 120 160 182 244 288 356
#     4  10  22  42  66  90 118 155 192 232 290 346
#     4  10  22  38  58  84 119 158 195 241 296 352
#
# _framework density 18.802396000000002
#
# number of rings (size 3 to 8) (size 9 to 14) (size 15 to 20)
#    0.414    1.379    0.000    4.138    1.931    4.414 
#    0.000    3.448    0.000    0.000    0.000    5.793 
#    0.000    0.000    0.000    0.000    0.000    0.000 
#
# Total GULP energy -161727.920032 kJ/mol
# GULP energy per Si atom -5576.824829 kJ/mol
# Density = 1.875960 g / cm^3
# Si number density = 18.802396 Si / 1000 Ang^3
#
#
#
# Elastic Constant Matrix: (Units=GPa)
#
#
# Indices 1 2 3 4 5 6 
#
# 1 168.4874 61.2548 100.1848 0.0000 0.0000 0.0000
# 2 61.2548 65.5522 55.1766 0.0000 0.0000 0.0000
# 3 100.1848 55.1766 145.4105 0.0000 0.0000 0.0000
# 4 0.0000 0.0000 0.0000 -91.1291 0.0000 0.0000
# 5 0.0000 0.0000 0.0000 0.0000 34.4423 0.0000
# 6 0.0000 0.0000 0.0000 0.0000 0.0000 31.3120
#
#
#
# Elastic Compliance Matrix: (Units=1/GPa)
#
#
# Indices 1 2 3 4 5 6 
#
# 1 0.011447 -0.005963 -0.005624 0.000000 0.000000 0.000000
# 2 -0.005963 0.025520 -0.005575 0.000000 0.000000 0.000000
# 3 -0.005624 -0.005575 0.012868 0.000000 0.000000 0.000000
# 4 0.000000 0.000000 0.000000 -0.010973 0.000000 0.000000
# 5 0.000000 0.000000 0.000000 0.000000 0.029034 0.000000
# 6 0.000000 0.000000 0.000000 0.000000 0.000000 0.031937
#
#
# Mechanical properties :
#
#
# Convention : Reuss Voigt Hill
#
# Bulk Modulus (GPa) = 64.47514 90.29806 77.38660
# Shear Modulus (GPa) = 35.88685 5.78063 20.83374
#
# Velocity S-wave (km/s) = 4.37353 1.75530 3.33233
# Velocity P-wave (km/s) = 7.73751 7.22753 7.48686
#
# Compressibility (1/GPa) = 0.01550985
#
# Stress axis : x y z
#
# Youngs Moduli (GPa) = 87.35721 39.18540 77.71363
#
# Poissons Ratio (x) = 0.23365 0.43709
# Poissons Ratio (y) = 0.52088 0.43328
# Poissons Ratio (z) = 0.49133 0.21847
#
# Static dielectric constant tensor:
#      x y z
#    x 1.627290 0.000000 0.000000 
#    y 0.000000 1.640220 0.000000 
#    z 0.000000 0.000000 1.649050 
# 
# From -- ./inp_files/53935.got.cif
#   From: 2010.05.17/outbox.cif.g08.bks.cpg/sg65_27_cif.got.tgz:53935.got - 2010.06.03 17:01:31.
