data_PCOD9492866
_publ_section_title
;
Structure prediction by ZEFSAII (Michael W. Deem and Ramdas Pophale) SiO2 
 PCOD9492866
Probable space group: C M M M
;
_chemical_formula_sum "Si O2"
_cell_formula_units_Z 88
_cell_length_a 20.802188
_cell_length_b 24.608666
_cell_length_c 7.663726
_cell_angle_alpha 90.000000
_cell_angle_beta 90.000000
_cell_angle_gamma 90.000000
_cell_volume 3923.169372
_symmetry_space_group_name_H-M "C M M M"
_symmetry_group_IT_number 65
_symmetry_cell_setting 'orthorhombic'
loop_
_space_group_symop_operation_xyz
x,y,z
-x,-y,z
x,-y,-z
-x,y,-z
-x,-y,-z
x,y,-z
-x,y,z
x,-y,z
1/2+x,1/2+y,z
1/2-x,1/2-y,z
1/2+x,1/2-y,-z
1/2-x,1/2+y,-z
1/2-x,1/2-y,-z
1/2+x,1/2+y,-z
1/2-x,1/2+y,z
1/2+x,1/2-y,z
loop_
_atom_site_type_symbol
_atom_site_label
_atom_site_fract_x
_atom_site_fract_y
_atom_site_fract_z
Si Si1 0.873738 0.635872 0.291670
Si Si2 0.500000 0.063585 0.792482
Si Si3 0.888236 0.060460 0.288827
Si Si4 0.932158 0.175348 0.205493
Si Si5 0.759314 0.439211 0.287701
Si Si6 0.677555 0.252015 0.795279
O O1 0.869713 0.641007 0.500000
O O2 0.811462 0.603125 0.224863
O O3 0.863445 0.696448 0.219723
O O4 0.937167 0.599697 0.255763
O O5 0.500000 0.000000 0.724506
O O6 0.500000 0.059123 0.000000
O O7 0.889973 0.061042 0.500000
O O8 0.927945 0.110860 0.222694
O O9 0.814036 0.069289 0.232818
O O10 0.908118 0.000000 0.232925
O O11 0.868284 0.201810 0.283740
O O12 0.000000 0.194966 0.281344
O O13 0.932734 0.188920 0.000000
O O14 0.759237 0.437631 0.500000
O O15 0.778837 0.500000 0.236033
O O16 0.750000 0.250000 0.719991
O O17 0.686414 0.264686 0.000000
#
# Coordination Sequence:
#
# PCOD9492866 Si02
#       6
#    16   8  16  16  16  16
#     4  11  22  36  60  90 118 152 199 252 307 361
#     4  11  25  43  61  85 123 169 210 251 308 379
#     4   9  18  34  57  84 112 144 183 229 285 342
#     4  10  22  38  55  77 109 150 189 229 283 340
#     4   8  15  30  53  81 113 145 178 226 288 345
#     4  10  22  40  61  85 116 157 203 248 299 362
#
# _framework density 22.430845000000001
#
# number of rings (size 3 to 8) (size 9 to 14) (size 15 to 20)
#    0.000    2.273    0.000    3.545    1.273    3.636 
#    0.000    2.727    0.000    2.182    0.000    0.000 
#    0.000    0.000    0.000    0.000    0.000    0.000 
#
# Total GULP energy -245580.624594 kJ/mol
# GULP energy per Si atom -5581.377832 kJ/mol
# Density = 2.237979 g / cm^3
# Si number density = 22.430845 Si / 1000 Ang^3
#
#
#
# Elastic Constant Matrix: (Units=GPa)
#
#
# Indices 1 2 3 4 5 6 
#
# 1 138.1573 65.9659 4.2175 0.0000 0.0000 0.0000
# 2 65.9659 102.9540 -17.5739 0.0000 0.0000 0.0000
# 3 4.2175 -17.5739 43.3861 0.0000 0.0000 0.0000
# 4 0.0000 0.0000 0.0000 14.8756 0.0000 0.0000
# 5 0.0000 0.0000 0.0000 0.0000 7.9813 0.0000
# 6 0.0000 0.0000 0.0000 0.0000 0.0000 7.2624
#
#
#
# Elastic Compliance Matrix: (Units=1/GPa)
#
#
# Indices 1 2 3 4 5 6 
#
# 1 0.011116 -0.007850 -0.004260 0.000000 0.000000 0.000000
# 2 -0.007850 0.015978 0.007235 0.000000 0.000000 0.000000
# 3 -0.004260 0.007235 0.026394 0.000000 0.000000 0.000000
# 4 0.000000 0.000000 0.000000 0.067224 0.000000 0.000000
# 5 0.000000 0.000000 0.000000 0.000000 0.125293 0.000000
# 6 0.000000 0.000000 0.000000 0.000000 0.000000 0.137696
#
#
# Mechanical properties :
#
#
# Convention : Reuss Voigt Hill
#
# Bulk Modulus (GPa) = 22.86370 43.30181 33.08276
# Shear Modulus (GPa) = 12.25405 21.48307 16.86856
#
# Velocity S-wave (km/s) = 2.33985 3.09811 2.74528
# Velocity P-wave (km/s) = 4.18509 5.66958 4.98293
#
# Compressibility (1/GPa) = 0.04373745
#
# Stress axis : x y z
#
# Youngs Moduli (GPa) = 89.95923 62.58772 37.88806
#
# Poissons Ratio (x) = 0.49129 0.16141
# Poissons Ratio (y) = 0.70615 -0.27412
# Poissons Ratio (z) = 0.38324 -0.45282
#
# Static dielectric constant tensor:
#      x y z
#    x 1.878710 0.000000 0.000000 
#    y 0.000000 1.840370 0.000000 
#    z 0.000000 0.000000 1.829150 
# 
# From -- ./inp_files/11720.got.cif
#   From: 2010.05.17/outbox.cif.g08.bks.cpg/sg65_6_cif.got.tgz:11720.got - 2010.06.03 17:01:31.
