data_PCOD9492480
_publ_section_title
;
Structure prediction by ZEFSAII (Michael W. Deem and Ramdas Pophale) SiO2 
 PCOD9492480
Probable space group: C M M M
;
_chemical_formula_sum "Si O2"
_cell_formula_units_Z 64
_cell_length_a 8.738323
_cell_length_b 18.843717
_cell_length_c 21.250385
_cell_angle_alpha 90.000000
_cell_angle_beta 90.000000
_cell_angle_gamma 90.000000
_cell_volume 3499.141215
_symmetry_space_group_name_H-M "C M M M"
_symmetry_group_IT_number 65
_symmetry_cell_setting 'orthorhombic'
loop_
_space_group_symop_operation_xyz
x,y,z
-x,-y,z
x,-y,-z
-x,y,-z
-x,-y,-z
x,y,-z
-x,y,z
x,-y,z
1/2+x,1/2+y,z
1/2-x,1/2-y,z
1/2+x,1/2-y,-z
1/2-x,1/2+y,-z
1/2-x,1/2-y,-z
1/2+x,1/2+y,-z
1/2-x,1/2+y,z
1/2+x,1/2-y,z
loop_
_atom_site_type_symbol
_atom_site_label
_atom_site_fract_x
_atom_site_fract_y
_atom_site_fract_z
Si Si1 0.682421 0.329681 0.801853
Si Si2 0.683017 0.328163 0.426858
Si Si3 0.317500 0.916475 0.314162
Si Si4 0.183540 0.669954 0.068844
O O1 0.500000 0.325095 0.803770
O O2 0.750000 0.250000 0.795460
O O3 0.738390 0.375772 0.743392
O O4 0.744461 0.361379 0.867924
O O5 0.717086 0.344815 0.500000
O O6 0.500000 0.326644 0.419001
O O7 0.750000 0.250000 0.413600
O O8 0.756467 0.383142 0.378846
O O9 0.500000 0.906184 0.310071
O O10 0.284417 0.000000 0.311446
O O11 0.250000 0.750000 0.067026
O O12 0.000000 0.672953 0.075171
O O13 0.219267 0.637637 0.000000
#
# Coordination Sequence:
#
# PCOD9492480 Si02
#       4
#    16  16  16  16
#     4  11  21  34  55  80 109 143 181 225 270 321
#     4  10  21  38  61  87 114 143 177 219 265 316
#     4  11  24  40  57  78 108 145 183 224 270 321
#     4   9  16  27  46  74 107 139 174 219 269 319
#
# _framework density 18.290203000000002
#
# number of rings (size 3 to 8) (size 9 to 14) (size 15 to 20)
#    0.000    1.750    0.000    6.750    0.000    5.500 
#    0.000    2.500    0.000    0.750    0.000    5.250 
#    0.000    0.000    0.000    0.000    0.000    0.000 
#
# Total GULP energy -178671.972129 kJ/mol
# GULP energy per Si atom -5583.499129 kJ/mol
# Density = 1.824857 g / cm^3
# Si number density = 18.290203 Si / 1000 Ang^3
#
#
#
# Elastic Constant Matrix: (Units=GPa)
#
#
# Indices 1 2 3 4 5 6 
#
# 1 122.8846 62.1987 81.6046 0.0000 0.0000 0.0000
# 2 62.1987 67.6687 76.4099 0.0000 0.0000 0.0000
# 3 81.6046 76.4099 143.6186 0.0000 0.0000 0.0000
# 4 0.0000 0.0000 0.0000 -7.6126 0.0000 0.0000
# 5 0.0000 0.0000 0.0000 0.0000 33.9534 0.0000
# 6 0.0000 0.0000 0.0000 0.0000 0.0000 23.3480
#
#
#
# Elastic Compliance Matrix: (Units=1/GPa)
#
#
# Indices 1 2 3 4 5 6 
#
# 1 0.015758 -0.010956 -0.003125 0.000000 0.000000 0.000000
# 2 -0.010956 0.044632 -0.017521 0.000000 0.000000 0.000000
# 3 -0.003125 -0.017521 0.018060 0.000000 0.000000 0.000000
# 4 0.000000 0.000000 0.000000 -0.131362 0.000000 0.000000
# 5 0.000000 0.000000 0.000000 0.000000 0.029452 0.000000
# 6 0.000000 0.000000 0.000000 0.000000 0.000000 0.042830
#
#
# Mechanical properties :
#
#
# Convention : Reuss Voigt Hill
#
# Bulk Modulus (GPa) = 65.58461 86.06648 75.82554
# Shear Modulus (GPa) = 57.04136 17.53502 37.28819
#
# Velocity S-wave (km/s) = 5.59058 3.09966 4.52009
# Velocity P-wave (km/s) = 8.80956 7.74395 8.29389
#
# Compressibility (1/GPa) = 0.01524748
#
# Stress axis : x y z
#
# Youngs Moduli (GPa) = 63.45862 22.40561 55.37060
#
# Poissons Ratio (x) = 0.24547 0.17304
# Poissons Ratio (y) = 0.69523 0.97012
# Poissons Ratio (z) = 0.19832 0.39256
#
# Static dielectric constant tensor:
#      x y z
#    x 1.609420 0.000000 0.000000 
#    y 0.000000 1.589180 0.000000 
#    z 0.000000 0.000000 1.662760 
# 
# From -- ./inp_files/58753.got.cif
#   From: 2010.05.17/outbox.cif.g08.bks.cpg/sg65_30_cif.got.tgz:58753.got - 2010.06.03 17:01:31.
