data_PCOD9492878
_publ_section_title
;
Structure prediction by ZEFSAII (Michael W. Deem and Ramdas Pophale) SiO2 
 PCOD9492878
Probable space group: C M M M
;
_chemical_formula_sum "Si O2"
_cell_formula_units_Z 80
_cell_length_a 26.896538
_cell_length_b 13.932901
_cell_length_c 10.715416
_cell_angle_alpha 90.000000
_cell_angle_beta 90.000000
_cell_angle_gamma 90.000000
_cell_volume 4015.567869
_symmetry_space_group_name_H-M "C M M M"
_symmetry_group_IT_number 65
_symmetry_cell_setting 'orthorhombic'
loop_
_space_group_symop_operation_xyz
x,y,z
-x,-y,z
x,-y,-z
-x,y,-z
-x,-y,-z
x,y,-z
-x,y,z
x,-y,z
1/2+x,1/2+y,z
1/2-x,1/2-y,z
1/2+x,1/2-y,-z
1/2-x,1/2+y,-z
1/2-x,1/2-y,-z
1/2+x,1/2+y,-z
1/2-x,1/2+y,z
1/2+x,1/2-y,z
loop_
_atom_site_type_symbol
_atom_site_label
_atom_site_fract_x
_atom_site_fract_y
_atom_site_fract_z
Si Si1 0.554584 0.107823 0.648545
Si Si2 0.280470 0.389105 0.640242
Si Si3 0.798736 0.389668 0.862201
Si Si4 0.058571 0.113802 0.643053
Si Si5 0.134250 0.754850 0.261009
O O1 0.551172 0.102429 0.500000
O O2 0.500000 0.143568 0.693049
O O3 0.602028 0.171609 0.675362
O O4 0.561006 0.000000 0.697892
O O5 0.259771 0.377643 0.500000
O O6 0.299359 0.500000 0.648596
O O7 0.239880 0.378122 0.748833
O O8 0.323257 0.311321 0.662950
O O9 0.818599 0.500000 0.851953
O O10 0.838284 0.303934 0.847591
O O11 0.775225 0.382795 0.000000
O O12 0.072308 0.145702 0.500000
O O13 0.091692 0.164055 0.748176
O O14 0.000000 0.132994 0.656835
O O15 0.065634 0.000000 0.646448
#
# Coordination Sequence:
#
# PCOD9492878 Si02
#       5
#    16  16  16  16  16
#     4   9  18  31  47  74 113 149 181 223 275 328
#     4  10  22  38  56  83 118 151 186 233 286 338
#     4  10  24  45  62  78 109 152 193 235 288 350
#     4   9  18  32  51  81 123 163 193 226 276 338
#     4  12  20  30  56  84 108 142 189 236 279 328
#
# _framework density 19.922461999999999
#
# number of rings (size 3 to 8) (size 9 to 14) (size 15 to 20)
#    0.000    2.000    0.000    5.400    0.000    8.000 
#    0.000    2.000    0.000    4.200    0.000    8.400 
#    0.000    0.000    0.000    0.000    0.000    0.000 
#
# Total GULP energy -222771.421998 kJ/mol
# GULP energy per Si atom -5569.285550 kJ/mol
# Density = 1.987712 g / cm^3
# Si number density = 19.922462 Si / 1000 Ang^3
#
#
#
# Elastic Constant Matrix: (Units=GPa)
#
#
# Indices 1 2 3 4 5 6 
#
# 1 77.4209 48.9192 50.5165 0.0000 0.0000 0.0000
# 2 48.9192 119.5902 37.3376 0.0000 0.0000 0.0000
# 3 50.5165 37.3376 94.4561 0.0000 0.0000 0.0000
# 4 0.0000 0.0000 0.0000 15.5362 0.0000 0.0000
# 5 0.0000 0.0000 0.0000 0.0000 -9.9275 0.0000
# 6 0.0000 0.0000 0.0000 0.0000 0.0000 40.2393
#
#
#
# Elastic Compliance Matrix: (Units=1/GPa)
#
#
# Indices 1 2 3 4 5 6 
#
# 1 0.023580 -0.006512 -0.010037 0.000000 0.000000 0.000000
# 2 -0.006512 0.011338 -0.000999 0.000000 0.000000 0.000000
# 3 -0.010037 -0.000999 0.016350 0.000000 0.000000 0.000000
# 4 0.000000 0.000000 0.000000 0.064366 0.000000 0.000000
# 5 0.000000 0.000000 0.000000 0.000000 -0.100730 0.000000
# 6 0.000000 0.000000 0.000000 0.000000 0.000000 0.024851
#
#
# Mechanical properties :
#
#
# Convention : Reuss Voigt Hill
#
# Bulk Modulus (GPa) = 61.83612 62.77928 62.30770
# Shear Modulus (GPa) = 62.31288 19.48253 40.89770
#
# Velocity S-wave (km/s) = 5.59871 3.13056 4.53575
# Velocity P-wave (km/s) = 8.53814 6.68187 7.66640
#
# Compressibility (1/GPa) = 0.01617178
#
# Stress axis : x y z
#
# Youngs Moduli (GPa) = 42.40887 88.20266 61.16353
#
# Poissons Ratio (x) = 0.57437 0.61389
# Poissons Ratio (y) = 0.27616 0.06110
# Poissons Ratio (z) = 0.42565 0.08811
#
# Static dielectric constant tensor:
#      x y z
#    x 1.731490 0.000000 0.000000 
#    y 0.000000 1.777310 0.000000 
#    z 0.000000 0.000000 1.694850 
# 
# From -- ./inp_files/30397.got.cif
#   From: 2010.05.17/outbox.cif.g08.bks.cpg/sg65_16_cif.got.tgz:30397.got - 2010.06.03 17:01:31.
