data_PCOD9492587
_publ_section_title
;
Structure prediction by ZEFSAII (Michael W. Deem and Ramdas Pophale) SiO2 
 PCOD9492587
Probable space group: C M M M
;
_chemical_formula_sum "Si O2"
_cell_formula_units_Z 66
_cell_length_a 21.871376
_cell_length_b 13.996345
_cell_length_c 10.410827
_cell_angle_alpha 90.000000
_cell_angle_beta 90.000000
_cell_angle_gamma 90.000000
_cell_volume 3186.955325
_symmetry_space_group_name_H-M "C M M M"
_symmetry_group_IT_number 65
_symmetry_cell_setting 'orthorhombic'
loop_
_space_group_symop_operation_xyz
x,y,z
-x,-y,z
x,-y,-z
-x,y,-z
-x,-y,-z
x,y,-z
-x,y,z
x,-y,z
1/2+x,1/2+y,z
1/2-x,1/2-y,z
1/2+x,1/2-y,-z
1/2-x,1/2+y,-z
1/2-x,1/2-y,-z
1/2+x,1/2+y,-z
1/2-x,1/2+y,z
1/2+x,1/2-y,z
loop_
_atom_site_type_symbol
_atom_site_label
_atom_site_fract_x
_atom_site_fract_y
_atom_site_fract_z
Si Si1 0.685739 0.884552 0.261436
Si Si2 0.734423 0.386050 0.500000
Si Si3 0.500000 0.500000 0.000000
Si Si4 0.931553 0.260412 0.727789
Si Si5 0.090791 0.884798 0.500000
Si Si6 0.601048 0.330565 0.000000
Si Si7 0.754968 0.884794 0.000000
O O1 0.732575 0.853969 0.371834
O O2 0.621585 0.836528 0.297694
O O3 0.716224 0.855639 0.125725
O O4 0.679483 0.000000 0.259143
O O5 0.741450 0.500000 0.500000
O O6 0.663193 0.369052 0.500000
O O7 0.554471 0.581217 0.000000
O O8 0.930630 0.171533 0.627325
O O9 0.915709 0.224480 0.870070
O O10 0.000000 0.301037 0.723168
O O11 0.077624 0.000000 0.500000
O O12 0.673863 0.353829 0.000000
O O13 0.757040 0.000000 0.000000
#
# Coordination Sequence:
#
# PCOD9492587 Si02
#       7
#    16   8   2  16   8   8   8
#     4  10  22  41  65  92 126 160 207 266 315 358
#     4   9  19  39  62  91 119 160 204 252 317 377
#     4  12  24  44  64  90 130 184 190 254 312 376
#     4  12  26  42  61  93 126 166 215 253 305 385
#     4  11  26  42  65  92 128 161 203 262 318 367
#     4  12  25  41  67  91 129 169 211 246 310 374
#     4  10  21  38  65  97 121 159 211 260 308 365
#
# _framework density 20.709420000000001
#
# number of rings (size 3 to 8) (size 9 to 14) (size 15 to 20)
#    0.000    1.212    1.818    3.273    1.697    9.212 
#    0.000    0.000    0.000    7.273    0.000    0.000 
#    0.000    0.000    0.000    0.000    0.000    0.000 
#
# Total GULP energy -184145.055137 kJ/mol
# GULP energy per Si atom -5580.153186 kJ/mol
# Density = 2.066228 g / cm^3
# Si number density = 20.709420 Si / 1000 Ang^3
#
#
#
# Elastic Constant Matrix: (Units=GPa)
#
#
# Indices 1 2 3 4 5 6 
#
# 1 196.3572 44.4039 45.4736 0.0000 0.0000 0.0000
# 2 44.4039 92.5066 18.4875 0.0000 0.0000 0.0000
# 3 45.4736 18.4875 147.0002 0.0000 0.0000 0.0000
# 4 0.0000 0.0000 0.0000 2.4194 0.0000 0.0000
# 5 0.0000 0.0000 0.0000 0.0000 35.8693 0.0000
# 6 0.0000 0.0000 0.0000 0.0000 0.0000 29.1966
#
#
#
# Elastic Compliance Matrix: (Units=1/GPa)
#
#
# Indices 1 2 3 4 5 6 
#
# 1 0.006035 -0.002589 -0.001541 0.000000 0.000000 0.000000
# 2 -0.002589 0.012199 -0.000733 0.000000 0.000000 0.000000
# 3 -0.001541 -0.000733 0.007372 0.000000 0.000000 0.000000
# 4 0.000000 0.000000 0.000000 0.413323 0.000000 0.000000
# 5 0.000000 0.000000 0.000000 0.000000 0.027879 0.000000
# 6 0.000000 0.000000 0.000000 0.000000 0.000000 0.034251
#
#
# Mechanical properties :
#
#
# Convention : Reuss Voigt Hill
#
# Bulk Modulus (GPa) = 62.97643 72.51045 67.74344
# Shear Modulus (GPa) = 9.68844 35.33033 22.50938
#
# Velocity S-wave (km/s) = 2.16528 4.13486 3.30042
# Velocity P-wave (km/s) = 6.06027 7.60824 6.87794
#
# Compressibility (1/GPa) = 0.01587896
#
# Stress axis : x y z
#
# Youngs Moduli (GPa) = 165.69567 81.97196 135.65295
#
# Poissons Ratio (x) = 0.21222 0.20909
# Poissons Ratio (y) = 0.42897 0.09949
# Poissons Ratio (z) = 0.25539 0.06012
#
# Static dielectric constant tensor:
#      x y z
#    x 1.725640 0.000000 0.000000 
#    y 0.000000 1.756540 0.000000 
#    z 0.000000 0.000000 1.697240 
# 
# From -- ./inp_files/26163.got.cif
#   From: 2010.05.17/outbox.cif.g08.bks.cpg/sg65_14_cif.got.tgz:26163.got - 2010.06.03 17:01:31.
