data_PCOD9492639
_publ_section_title
;
Structure prediction by ZEFSAII (Michael W. Deem and Ramdas Pophale) SiO2 
 PCOD9492639
Probable space group: C M M M
;
_chemical_formula_sum "Si O2"
_cell_formula_units_Z 120
_cell_length_a 27.612301
_cell_length_b 8.401278
_cell_length_c 28.768613
_cell_angle_alpha 90.000000
_cell_angle_beta 90.000000
_cell_angle_gamma 90.000000
_cell_volume 6673.703054
_symmetry_space_group_name_H-M "C M M M"
_symmetry_group_IT_number 65
_symmetry_cell_setting 'orthorhombic'
loop_
_space_group_symop_operation_xyz
x,y,z
-x,-y,z
x,-y,-z
-x,y,-z
-x,-y,-z
x,y,-z
-x,y,z
x,-y,z
1/2+x,1/2+y,z
1/2-x,1/2-y,z
1/2+x,1/2-y,-z
1/2-x,1/2+y,-z
1/2-x,1/2-y,-z
1/2+x,1/2+y,-z
1/2-x,1/2+y,z
1/2+x,1/2-y,z
loop_
_atom_site_type_symbol
_atom_site_label
_atom_site_fract_x
_atom_site_fract_y
_atom_site_fract_z
Si Si1 0.351896 0.194502 0.353599
Si Si2 0.602751 0.192530 0.205649
Si Si3 0.196881 0.309324 0.054116
Si Si4 0.197981 0.690900 0.260056
Si Si5 0.500000 0.809201 0.946714
Si Si6 0.598117 0.312034 0.101901
Si Si7 0.553273 0.194025 0.699393
Si Si8 0.694920 0.192578 0.551641
O O1 0.315291 0.244802 0.312466
O O2 0.404491 0.246115 0.335412
O O3 0.336125 0.249474 0.404412
O O4 0.351767 0.000000 0.354272
O O5 0.655435 0.240016 0.225328
O O6 0.593572 0.267748 0.156088
O O7 0.566738 0.237439 0.247637
O O8 0.601287 0.000000 0.201002
O O9 0.197827 0.500000 0.055105
O O10 0.250000 0.250000 0.070865
O O11 0.149108 0.254566 0.081848
O O12 0.192061 0.256462 0.000000
O O13 0.197508 0.500000 0.260902
O O14 0.250000 0.750000 0.245609
O O15 0.549886 0.753337 0.923029
O O16 0.500000 0.000000 0.945819
O O17 0.500000 0.753630 0.000000
O O18 0.599261 0.500000 0.095795
O O19 0.500000 0.249795 0.686805
O O20 0.553785 0.000000 0.698533
O O21 0.678387 0.243699 0.500000
O O22 0.750000 0.250000 0.557472
O O23 0.694790 0.000000 0.552259
#
# Coordination Sequence:
#
# PCOD9492639 Si02
#       8
#    16  16  16  16   8  16  16  16
#     4   8  14  25  40  62  91 120 157 204 248 294
#     4   9  19  34  50  72  99 128 166 208 250 299
#     4  10  21  39  63  88 113 144 182 222 263 309
#     4   9  17  29  46  67  94 128 165 206 249 295
#     4  11  25  45  67  87 109 143 183 221 262 311
#     4  12  25  39  58  86 117 146 176 216 268 321
#     4   8  14  26  47  70  88 116 161 207 248 294
#     4   9  16  25  39  61  91 126 158 193 241 293
#
# _framework density 17.981020999999998
#
# number of rings (size 3 to 8) (size 9 to 14) (size 15 to 20)
#    0.000    2.600    0.000    4.200    0.933    4.000 
#    0.000    1.333    0.000    1.200    0.000    2.800 
#    0.000    0.000    0.000    3.333    0.000    3.467 
#
# Total GULP energy -334536.426697 kJ/mol
# GULP energy per Si atom -5575.607112 kJ/mol
# Density = 1.794010 g / cm^3
# Si number density = 17.981021 Si / 1000 Ang^3
#
#
#
# Elastic Constant Matrix: (Units=GPa)
#
#
# Indices 1 2 3 4 5 6 
#
# 1 120.4943 19.6412 65.3901 0.0000 0.0000 0.0000
# 2 19.6412 23.0065 19.9629 0.0000 0.0000 0.0000
# 3 65.3901 19.9629 135.6803 0.0000 0.0000 0.0000
# 4 0.0000 0.0000 0.0000 2.8376 0.0000 0.0000
# 5 0.0000 0.0000 0.0000 0.0000 8.3454 0.0000
# 6 0.0000 0.0000 0.0000 0.0000 0.0000 23.7052
#
#
#
# Elastic Compliance Matrix: (Units=1/GPa)
#
#
# Indices 1 2 3 4 5 6 
#
# 1 0.011908 -0.005945 -0.004864 0.000000 0.000000 0.000000
# 2 -0.005945 0.052796 -0.004903 0.000000 0.000000 0.000000
# 3 -0.004864 -0.004903 0.010436 0.000000 0.000000 0.000000
# 4 0.000000 0.000000 0.000000 0.352413 0.000000 0.000000
# 5 0.000000 0.000000 0.000000 0.000000 0.119826 0.000000
# 6 0.000000 0.000000 0.000000 0.000000 0.000000 0.042185
#
#
# Mechanical properties :
#
#
# Convention : Reuss Voigt Hill
#
# Bulk Modulus (GPa) = 22.87537 54.35215 38.61376
# Shear Modulus (GPa) = 7.86708 18.59010 13.22859
#
# Velocity S-wave (km/s) = 2.09397 3.21888 2.71532
# Velocity P-wave (km/s) = 4.31229 6.64139 5.59928
#
# Compressibility (1/GPa) = 0.04371514
#
# Stress axis : x y z
#
# Youngs Moduli (GPa) = 83.97713 18.94094 95.82342
#
# Poissons Ratio (x) = 0.11261 0.46611
# Poissons Ratio (y) = 0.49928 0.46978
# Poissons Ratio (z) = 0.40848 0.09286
#
# Static dielectric constant tensor:
#      x y z
#    x 1.612020 0.000000 0.000000 
#    y 0.000000 1.622840 0.000000 
#    z 0.000000 0.000000 1.616210 
# 
# From -- ./inp_files/76092.got.cif
#   From: 2010.05.17/outbox.cif.g08.bks.cpg/sg65_39_cif.got.tgz:76092.got - 2010.06.03 17:01:31.
