data_PCOD9492032
_publ_section_title
;
Structure prediction by ZEFSAII (Michael W. Deem and Ramdas Pophale) SiO2 
 PCOD9492032
Probable space group: C M M M
;
_chemical_formula_sum "Si O2"
_cell_formula_units_Z 64
_cell_length_a 29.104899
_cell_length_b 8.481051
_cell_length_c 13.315388
_cell_angle_alpha 90.000000
_cell_angle_beta 90.000000
_cell_angle_gamma 90.000000
_cell_volume 3286.772142
_symmetry_space_group_name_H-M "C M M M"
_symmetry_group_IT_number 65
_symmetry_cell_setting 'orthorhombic'
loop_
_space_group_symop_operation_xyz
x,y,z
-x,-y,z
x,-y,-z
-x,y,-z
-x,-y,-z
x,y,-z
-x,y,z
x,-y,z
1/2+x,1/2+y,z
1/2-x,1/2-y,z
1/2+x,1/2-y,-z
1/2-x,1/2+y,-z
1/2-x,1/2-y,-z
1/2+x,1/2+y,-z
1/2-x,1/2+y,z
1/2+x,1/2-y,z
loop_
_atom_site_type_symbol
_atom_site_label
_atom_site_fract_x
_atom_site_fract_y
_atom_site_fract_z
Si Si1 0.698273 0.813812 0.500000
Si Si2 0.947707 0.193179 0.219869
Si Si3 0.197606 0.689472 0.887739
Si Si4 0.555853 0.679342 0.000000
Si Si5 0.645004 0.311726 0.306856
O O1 0.750000 0.750000 0.500000
O O2 0.671501 0.758306 0.598961
O O3 0.700730 0.000000 0.500000
O O4 0.908294 0.238835 0.297388
O O5 0.000000 0.242373 0.241762
O O6 0.948251 0.000000 0.214114
O O7 0.933405 0.251994 0.108126
O O8 0.197290 0.500000 0.879811
O O9 0.250000 0.750000 0.880590
O O10 0.169263 0.762397 0.796837
O O11 0.180409 0.733039 0.000000
O O12 0.574236 0.500000 0.000000
O O13 0.500000 0.668948 0.000000
O O14 0.646359 0.500000 0.315329
#
# Coordination Sequence:
#
# PCOD9492032 Si02
#       5
#     8  16  16   8  16
#     4  12  26  46  67  84 111 147 192 243 297 354
#     4   8  15  28  49  81 120 156 191 234 279 328
#     4  10  21  37  56  81 116 154 191 233 287 351
#     4   7  10  20  40  70 110 151 186 221 266 315
#     4  11  22  36  60  90 118 148 193 242 293 345
#
# _framework density 19.471992
#
# number of rings (size 3 to 8) (size 9 to 14) (size 15 to 20)
#    0.000    2.375    0.000    4.875    1.750    1.500 
#    0.000    0.625    0.000    6.750    0.000    1.750 
#    0.000    0.000    0.000    0.000    0.000    0.000 
#
# Total GULP energy -178572.705675 kJ/mol
# GULP energy per Si atom -5580.397052 kJ/mol
# Density = 1.942767 g / cm^3
# Si number density = 19.471992 Si / 1000 Ang^3
#
#
#
# Elastic Constant Matrix: (Units=GPa)
#
#
# Indices 1 2 3 4 5 6 
#
# 1 149.0243 36.6160 102.5027 0.0000 0.0000 0.0000
# 2 36.6160 61.9752 44.6486 0.0000 0.0000 0.0000
# 3 102.5027 44.6486 142.7306 0.0000 0.0000 0.0000
# 4 0.0000 0.0000 0.0000 15.3396 0.0000 0.0000
# 5 0.0000 0.0000 0.0000 0.0000 35.3402 0.0000
# 6 0.0000 0.0000 0.0000 0.0000 0.0000 13.8240
#
#
#
# Elastic Compliance Matrix: (Units=1/GPa)
#
#
# Indices 1 2 3 4 5 6 
#
# 1 0.013337 -0.001264 -0.009182 0.000000 0.000000 0.000000
# 2 -0.001264 0.020950 -0.005645 0.000000 0.000000 0.000000
# 3 -0.009182 -0.005645 0.015367 0.000000 0.000000 0.000000
# 4 0.000000 0.000000 0.000000 0.065191 0.000000 0.000000
# 5 0.000000 0.000000 0.000000 0.000000 0.028296 0.000000
# 6 0.000000 0.000000 0.000000 0.000000 0.000000 0.072338
#
#
# Mechanical properties :
#
#
# Convention : Reuss Voigt Hill
#
# Bulk Modulus (GPa) = 57.24531 80.14052 68.69291
# Shear Modulus (GPa) = 19.72501 24.23162 21.97832
#
# Velocity S-wave (km/s) = 3.18621 3.53148 3.36328
# Velocity P-wave (km/s) = 6.55733 7.60754 7.10187
#
# Compressibility (1/GPa) = 0.01746868
#
# Stress axis : x y z
#
# Youngs Moduli (GPa) = 74.98000 47.73369 65.07632
#
# Poissons Ratio (x) = 0.06035 0.59756
# Poissons Ratio (y) = 0.09480 0.36738
# Poissons Ratio (z) = 0.68850 0.26947
#
# Static dielectric constant tensor:
#      x y z
#    x 1.690410 0.000000 0.000000 
#    y 0.000000 1.680660 0.000000 
#    z 0.000000 0.000000 1.677030 
# 
# From -- ./inp_files/20934.got.cif
#   From: 2010.05.17/outbox.cif.g08.bks.cpg/sg65_11_cif.got.tgz:20934.got - 2010.06.03 17:01:31.
