data_PCOD9492082
_publ_section_title
;
Structure prediction by ZEFSAII (Michael W. Deem and Ramdas Pophale) SiO2 
 PCOD9492082
Probable space group: C M M M
;
_chemical_formula_sum "Si O2"
_cell_formula_units_Z 88
_cell_length_a 19.763833
_cell_length_b 8.937621
_cell_length_c 28.103999
_cell_angle_alpha 90.000000
_cell_angle_beta 90.000000
_cell_angle_gamma 90.000000
_cell_volume 4964.336723
_symmetry_space_group_name_H-M "C M M M"
_symmetry_group_IT_number 65
_symmetry_cell_setting 'orthorhombic'
loop_
_space_group_symop_operation_xyz
x,y,z
-x,-y,z
x,-y,-z
-x,y,-z
-x,-y,-z
x,y,-z
-x,y,z
x,-y,z
1/2+x,1/2+y,z
1/2-x,1/2-y,z
1/2+x,1/2-y,-z
1/2-x,1/2+y,-z
1/2-x,1/2-y,-z
1/2+x,1/2+y,-z
1/2-x,1/2+y,z
1/2+x,1/2-y,z
loop_
_atom_site_type_symbol
_atom_site_label
_atom_site_fract_x
_atom_site_fract_y
_atom_site_fract_z
Si Si1 0.419890 0.321865 0.133233
Si Si2 0.580244 0.822469 0.765636
Si Si3 0.323571 0.821323 0.944760
Si Si4 0.322615 0.677898 0.689088
Si Si5 0.176847 0.178455 0.576953
Si Si6 0.420328 0.820337 0.500000
O O1 0.500000 0.292895 0.126489
O O2 0.409493 0.500000 0.134115
O O3 0.400229 0.251953 0.184123
O O4 0.377133 0.248338 0.091276
O O5 0.500000 0.797088 0.759049
O O6 0.621620 0.750394 0.722773
O O7 0.592131 0.000000 0.767724
O O8 0.250000 0.750000 0.935869
O O9 0.320088 0.000000 0.938809
O O10 0.341298 0.789737 0.000000
O O11 0.320004 0.500000 0.696373
O O12 0.250000 0.750000 0.700249
O O13 0.335843 0.705251 0.633042
O O14 0.250000 0.250000 0.565179
O O15 0.118887 0.252516 0.545239
O O16 0.179471 0.000000 0.568762
O O17 0.500000 0.782332 0.500000
O O18 0.414076 0.000000 0.500000
#
# Coordination Sequence:
#
# PCOD9492082 Si02
#       6
#    16  16  16  16  16   8
#     4  10  21  37  57  81 110 144 183 226 270 321
#     4  10  21  37  57  81 111 146 182 223 272 324
#     4  10  21  37  57  81 110 143 180 224 273 325
#     4  10  21  37  58  84 112 143 182 226 271 322
#     4  10  21  38  60  83 110 145 183 225 272 324
#     4  11  24  39  56  81 113 147 184 227 272 321
#
# _framework density 17.726438000000002
#
# number of rings (size 3 to 8) (size 9 to 14) (size 15 to 20)
#    0.000    1.909    0.000    3.273    0.000    8.000 
#    0.000    9.091    0.000    0.000    0.000    0.000 
#    0.000    0.000    0.000    0.000    0.000    0.000 
#
# Total GULP energy -245827.182674 kJ/mol
# GULP energy per Si atom -5586.981424 kJ/mol
# Density = 1.768609 g / cm^3
# Si number density = 17.726438 Si / 1000 Ang^3
#
#
#
# Elastic Constant Matrix: (Units=GPa)
#
#
# Indices 1 2 3 4 5 6 
#
# 1 115.0786 84.8409 99.0642 0.0000 0.0000 0.0000
# 2 84.8409 105.0295 86.8521 0.0000 0.0000 0.0000
# 3 99.0642 86.8521 123.5164 0.0000 0.0000 0.0000
# 4 0.0000 0.0000 0.0000 36.2513 0.0000 0.0000
# 5 0.0000 0.0000 0.0000 0.0000 43.0611 0.0000
# 6 0.0000 0.0000 0.0000 0.0000 0.0000 35.6492
#
#
#
# Elastic Compliance Matrix: (Units=1/GPa)
#
#
# Indices 1 2 3 4 5 6 
#
# 1 0.032914 -0.011368 -0.018405 0.000000 0.000000 0.000000
# 2 -0.011368 0.026675 -0.009639 0.000000 0.000000 0.000000
# 3 -0.018405 -0.009639 0.029635 0.000000 0.000000 0.000000
# 4 0.000000 0.000000 0.000000 0.027585 0.000000 0.000000
# 5 0.000000 0.000000 0.000000 0.000000 0.023223 0.000000
# 6 0.000000 0.000000 0.000000 0.000000 0.000000 0.028051
#
#
# Mechanical properties :
#
#
# Convention : Reuss Voigt Hill
#
# Bulk Modulus (GPa) = 96.15039 98.34877 97.24958
# Shear Modulus (GPa) = 19.97001 27.85012 23.91007
#
# Velocity S-wave (km/s) = 3.36008 3.96802 3.67664
# Velocity P-wave (km/s) = 8.33142 8.75188 8.54424
#
# Compressibility (1/GPa) = 0.01040037
#
# Stress axis : x y z
#
# Youngs Moduli (GPa) = 30.38190 37.48791 33.74355
#
# Poissons Ratio (x) = 0.42617 0.62104
# Poissons Ratio (y) = 0.34539 0.32527
# Poissons Ratio (z) = 0.55917 0.36136
#
# Static dielectric constant tensor:
#      x y z
#    x 1.570960 0.000000 0.000000 
#    y 0.000000 1.587790 0.000000 
#    z 0.000000 0.000000 1.586410 
# 
# From -- ./inp_files/71010.got.cif
#   From: 2010.05.17/outbox.cif.g08.bks.cpg/sg65_36_cif.got.tgz:71010.got - 2010.06.03 17:01:31.
