data_PCOD9493810
_publ_section_title
;
Structure prediction by ZEFSAII (Michael W. Deem and Ramdas Pophale) SiO2 
 PCOD9493810
Probable space group: C M M M
;
_chemical_formula_sum "Si O2"
_cell_formula_units_Z 56
_cell_length_a 10.166041
_cell_length_b 28.143919
_cell_length_c 11.459552
_cell_angle_alpha 90.000000
_cell_angle_beta 90.000000
_cell_angle_gamma 90.000000
_cell_volume 3278.718029
_symmetry_space_group_name_H-M "C M M M"
_symmetry_group_IT_number 65
_symmetry_cell_setting 'orthorhombic'
loop_
_space_group_symop_operation_xyz
x,y,z
-x,-y,z
x,-y,-z
-x,y,-z
-x,-y,-z
x,y,-z
-x,y,z
x,-y,z
1/2+x,1/2+y,z
1/2-x,1/2-y,z
1/2+x,1/2-y,-z
1/2-x,1/2+y,-z
1/2-x,1/2-y,-z
1/2+x,1/2+y,-z
1/2-x,1/2+y,z
1/2+x,1/2-y,z
loop_
_atom_site_type_symbol
_atom_site_label
_atom_site_fract_x
_atom_site_fract_y
_atom_site_fract_z
Si Si1 0.338966 0.797294 0.500000
Si Si2 0.000000 0.808853 0.142940
Si Si3 0.740249 0.850142 0.738568
Si Si4 0.000000 0.698096 0.137240
Si Si5 0.342397 0.054877 0.362102
O O1 0.500000 0.790707 0.500000
O O2 0.250000 0.750000 0.500000
O O3 0.294668 0.826203 0.385778
O O4 0.873945 0.832988 0.202259
O O5 0.000000 0.752957 0.178302
O O6 0.000000 0.812439 0.000000
O O7 0.625672 0.830456 0.820348
O O8 0.731013 0.906286 0.715043
O O9 0.000000 0.701112 0.000000
O O10 0.312412 0.061306 0.500000
O O11 0.500000 0.062543 0.349915
O O12 0.314562 0.000000 0.332400
#
# Coordination Sequence:
#
# PCOD9493810 Si02
#       5
#     8   8  16   8  16
#     4  12  24  36  57  91 128 158 189 240 310 368
#     4  11  26  43  58  83 118 167 211 240 286 352
#     4  12  22  38  61  87 123 153 197 249 297 350
#     4  11  22  39  62  83 112 161 211 248 282 340
#     4   9  17  34  60  89 118 150 190 238 297 362
#
# _framework density 17.079847000000001
#
# number of rings (size 3 to 8) (size 9 to 14) (size 15 to 20)
#    0.000    1.143    4.286    4.286    2.000    2.286 
#    0.000    0.714    0.000    6.857    0.000    0.000 
#    0.000    0.000    0.000    0.000    0.000    0.000 
#
# Total GULP energy -156280.235595 kJ/mol
# GULP energy per Si atom -5581.436986 kJ/mol
# Density = 1.704097 g / cm^3
# Si number density = 17.079847 Si / 1000 Ang^3
#
#
#
# Elastic Constant Matrix: (Units=GPa)
#
#
# Indices 1 2 3 4 5 6 
#
# 1 143.2212 58.7433 45.2165 0.0000 0.0000 0.0000
# 2 58.7433 143.2091 42.3586 0.0000 0.0000 0.0000
# 3 45.2165 42.3586 63.5858 0.0000 0.0000 0.0000
# 4 0.0000 0.0000 0.0000 12.7972 0.0000 0.0000
# 5 0.0000 0.0000 0.0000 0.0000 39.9587 0.0000
# 6 0.0000 0.0000 0.0000 0.0000 0.0000 10.8517
#
#
#
# Elastic Compliance Matrix: (Units=1/GPa)
#
#
# Indices 1 2 3 4 5 6 
#
# 1 0.009621 -0.002395 -0.005246 0.000000 0.000000 0.000000
# 2 -0.002395 0.009292 -0.004487 0.000000 0.000000 0.000000
# 3 -0.005246 -0.004487 0.022447 0.000000 0.000000 0.000000
# 4 0.000000 0.000000 0.000000 0.078142 0.000000 0.000000
# 5 0.000000 0.000000 0.000000 0.000000 0.025026 0.000000
# 6 0.000000 0.000000 0.000000 0.000000 0.000000 0.092151
#
#
# Mechanical properties :
#
#
# Convention : Reuss Voigt Hill
#
# Bulk Modulus (GPa) = 58.46785 71.40588 64.93686
# Shear Modulus (GPa) = 18.75214 26.30137 22.52675
#
# Velocity S-wave (km/s) = 3.31707 3.92842 3.63562
# Velocity P-wave (km/s) = 6.99835 7.90408 7.46497
#
# Compressibility (1/GPa) = 0.01710342
#
# Stress axis : x y z
#
# Youngs Moduli (GPa) = 103.94318 107.61561 44.54994
#
# Poissons Ratio (x) = 0.25770 0.23372
# Poissons Ratio (y) = 0.24890 0.19991
# Poissons Ratio (z) = 0.54530 0.48291
#
# Static dielectric constant tensor:
#      x y z
#    x 1.537110 0.000000 0.000000 
#    y 0.000000 1.591510 0.000000 
#    z 0.000000 0.000000 1.585810 
# 
# From -- ./inp_files/20522.got.cif
#   From: 2010.05.17/outbox.cif.g08.bks.cpg/sg65_11_cif.got.tgz:20522.got - 2010.06.03 17:01:31.
