data_PCOD9493425
_publ_section_title
;
Structure prediction by ZEFSAII (Michael W. Deem and Ramdas Pophale) SiO2 
 PCOD9493425
Probable space group: C M M M
;
_chemical_formula_sum "Si O2"
_cell_formula_units_Z 80
_cell_length_a 8.562080
_cell_length_b 19.005401
_cell_length_c 27.339624
_cell_angle_alpha 90.000000
_cell_angle_beta 90.000000
_cell_angle_gamma 90.000000
_cell_volume 4448.861197
_symmetry_space_group_name_H-M "C M M M"
_symmetry_group_IT_number 65
_symmetry_cell_setting 'orthorhombic'
loop_
_space_group_symop_operation_xyz
x,y,z
-x,-y,z
x,-y,-z
-x,y,-z
-x,-y,-z
x,y,-z
-x,y,z
x,-y,z
1/2+x,1/2+y,z
1/2-x,1/2-y,z
1/2+x,1/2-y,-z
1/2-x,1/2+y,-z
1/2-x,1/2-y,-z
1/2+x,1/2+y,-z
1/2-x,1/2+y,z
1/2+x,1/2-y,z
loop_
_atom_site_type_symbol
_atom_site_label
_atom_site_fract_x
_atom_site_fract_y
_atom_site_fract_z
Si Si1 0.814537 0.670425 0.302579
Si Si2 0.191000 0.080858 0.000000
Si Si3 0.189271 0.917476 0.606720
Si Si4 0.187168 0.830039 0.201087
Si Si5 0.682725 0.414473 0.500000
Si Si6 0.311383 0.329621 0.906562
O O1 0.750000 0.750000 0.306207
O O2 0.755870 0.626643 0.348772
O O3 0.755012 0.638505 0.250942
O O4 0.000000 0.673381 0.301577
O O5 0.241876 0.122311 0.048585
O O6 0.000000 0.081029 0.000000
O O7 0.241583 0.000000 0.000000
O O8 0.247447 0.892675 0.552865
O O9 0.000000 0.912741 0.606795
O O10 0.229087 0.000000 0.612089
O O11 0.250000 0.750000 0.200259
O O12 0.232127 0.858536 0.147453
O O13 0.000000 0.829539 0.204785
O O14 0.686547 0.500000 0.500000
O O15 0.500000 0.394274 0.500000
O O16 0.500000 0.326439 0.907745
O O17 0.250000 0.250000 0.911814
#
# Coordination Sequence:
#
# PCOD9493425 Si02
#       6
#    16   8  16  16   8  16
#     4  11  21  33  50  72 100 132 165 201 245 292
#     4   9  17  30  47  69  98 127 154 188 232 281
#     4   9  17  32  54  77 100 127 161 200 242 290
#     4   9  16  28  46  69  94 121 158 198 239 284
#     4   7  12  26  50  75  96 123 159 197 238 285
#     4   9  17  29  49  73  93 119 157 198 235 276
#
# _framework density 17.982129
#
# number of rings (size 3 to 8) (size 9 to 14) (size 15 to 20)
#    0.000    2.800    0.000    5.100    0.000    1.200 
#    0.000    2.000    0.000    6.600    0.000    0.000 
#    0.000    0.000    0.000    0.000    0.000    0.000 
#
# Total GULP energy -222781.126066 kJ/mol
# GULP energy per Si atom -5569.528152 kJ/mol
# Density = 1.794120 g / cm^3
# Si number density = 17.982129 Si / 1000 Ang^3
#
#
#
# Elastic Constant Matrix: (Units=GPa)
#
#
# Indices 1 2 3 4 5 6 
#
# 1 40.8652 21.9740 47.0274 0.0000 0.0000 0.0000
# 2 21.9740 55.1426 77.7830 0.0000 0.0000 0.0000
# 3 47.0274 77.7830 243.1786 0.0000 0.0000 0.0000
# 4 0.0000 0.0000 0.0000 -190.4153 0.0000 0.0000
# 5 0.0000 0.0000 0.0000 0.0000 23.4227 0.0000
# 6 0.0000 0.0000 0.0000 0.0000 0.0000 16.4963
#
#
#
# Elastic Compliance Matrix: (Units=1/GPa)
#
#
# Indices 1 2 3 4 5 6 
#
# 1 0.033131 -0.007589 -0.003980 0.000000 0.000000 0.000000
# 2 -0.007589 0.034782 -0.009658 0.000000 0.000000 0.000000
# 3 -0.003980 -0.009658 0.007971 0.000000 0.000000 0.000000
# 4 0.000000 0.000000 0.000000 -0.005252 0.000000 0.000000
# 5 0.000000 0.000000 0.000000 0.000000 0.042694 0.000000
# 6 0.000000 0.000000 0.000000 0.000000 0.000000 0.060619
#
#
# Mechanical properties :
#
#
# Convention : Reuss Voigt Hill
#
# Bulk Modulus (GPa) = 29.91199 70.30615 50.10907
# Shear Modulus (GPa) = 21.97394 -17.27246 2.35074
#
# Velocity S-wave (km/s) = 3.49949 -3.10261 1.14460
# Velocity P-wave (km/s) = 5.74447 5.13300 5.44732
#
# Compressibility (1/GPa) = 0.03343141
#
# Stress axis : x y z
#
# Youngs Moduli (GPa) = 30.18297 28.75048 125.45524
#
# Poissons Ratio (x) = 0.21818 0.49928
# Poissons Ratio (y) = 0.22906 1.21162
# Poissons Ratio (z) = 0.12012 0.27767
#
# Static dielectric constant tensor:
#      x y z
#    x 1.609950 0.000000 0.000000 
#    y 0.000000 1.574740 0.000000 
#    z 0.000000 0.000000 1.676400 
# 
# From -- ./inp_files/73002.got.cif
#   From: 2010.05.17/outbox.cif.g08.bks.cpg/sg65_37_cif.got.tgz:73002.got - 2010.06.03 17:01:31.
