data_PCOD9493451
_publ_section_title
;
Structure prediction by ZEFSAII (Michael W. Deem and Ramdas Pophale) SiO2 
 PCOD9493451
Probable space group: C M M M
;
_chemical_formula_sum "Si O2"
_cell_formula_units_Z 72
_cell_length_a 8.582642
_cell_length_b 23.733548
_cell_length_c 21.549647
_cell_angle_alpha 90.000000
_cell_angle_beta 90.000000
_cell_angle_gamma 90.000000
_cell_volume 4389.588659
_symmetry_space_group_name_H-M "C M M M"
_symmetry_group_IT_number 65
_symmetry_cell_setting 'orthorhombic'
loop_
_space_group_symop_operation_xyz
x,y,z
-x,-y,z
x,-y,-z
-x,y,-z
-x,-y,-z
x,y,-z
-x,y,z
x,-y,z
1/2+x,1/2+y,z
1/2-x,1/2-y,z
1/2+x,1/2-y,-z
1/2-x,1/2+y,-z
1/2-x,1/2-y,-z
1/2+x,1/2+y,-z
1/2-x,1/2+y,z
1/2+x,1/2-y,z
loop_
_atom_site_type_symbol
_atom_site_label
_atom_site_fract_x
_atom_site_fract_y
_atom_site_fract_z
Si Si1 0.814017 0.314196 0.235116
Si Si2 0.187597 0.814209 0.634346
Si Si3 0.313406 0.186913 0.000000
Si Si4 0.813660 0.118705 0.882291
Si Si5 0.312570 0.000000 0.926625
Si Si6 0.187640 0.814041 0.500000
O O1 0.750000 0.250000 0.228405
O O2 0.759537 0.337328 0.302292
O O3 0.748627 0.352907 0.180455
O O4 0.000000 0.311741 0.232634
O O5 0.250000 0.750000 0.632383
O O6 0.232779 0.839634 0.566948
O O7 0.000000 0.813904 0.639595
O O8 0.250000 0.250000 0.000000
O O9 0.250831 0.155215 0.060487
O O10 0.500000 0.186318 0.000000
O O11 0.752668 0.055696 0.893962
O O12 0.000000 0.119479 0.882585
O O13 0.500000 0.000000 0.924012
O O14 0.268050 0.000000 0.000000
O O15 0.250000 0.750000 0.500000
O O16 0.000000 0.811282 0.500000
#
# Coordination Sequence:
#
# PCOD9493451 Si02
#       6
#    16  16   8  16   8   8
#     4  11  21  34  50  72 103 138 173 212 258 306
#     4   9  15  25  40  62  92 129 169 207 248 296
#     4  12  24  39  56  79 106 134 166 206 250 300
#     4  12  24  39  58  79 102 132 169 209 252 303
#     4  11  23  41  63  83 104 129 162 207 256 302
#     4   8  14  22  36  58  88 125 166 207 244 288
#
# _framework density 16.402449000000001
#
# number of rings (size 3 to 8) (size 9 to 14) (size 15 to 20)
#    0.000    1.444    1.111    8.000    0.000    1.333 
#    0.000    0.000    0.000    0.000    0.000    0.000 
#    0.000    0.889    0.000    9.556    0.000    4.889 
#
# Total GULP energy -200859.760306 kJ/mol
# GULP energy per Si atom -5579.437786 kJ/mol
# Density = 1.636512 g / cm^3
# Si number density = 16.402449 Si / 1000 Ang^3
#
#
#
# Elastic Constant Matrix: (Units=GPa)
#
#
# Indices 1 2 3 4 5 6 
#
# 1 137.4444 43.0928 68.3940 0.0000 0.0000 0.0000
# 2 43.0928 93.4019 67.7408 0.0000 0.0000 0.0000
# 3 68.3940 67.7408 198.7364 0.0000 0.0000 0.0000
# 4 0.0000 0.0000 0.0000 -4.2686 0.0000 0.0000
# 5 0.0000 0.0000 0.0000 0.0000 12.3556 0.0000
# 6 0.0000 0.0000 0.0000 0.0000 0.0000 23.2850
#
#
#
# Elastic Compliance Matrix: (Units=1/GPa)
#
#
# Indices 1 2 3 4 5 6 
#
# 1 0.009230 -0.002597 -0.002291 0.000000 0.000000 0.000000
# 2 -0.002597 0.014953 -0.004203 0.000000 0.000000 0.000000
# 3 -0.002291 -0.004203 0.007253 0.000000 0.000000 0.000000
# 4 0.000000 0.000000 0.000000 -0.234266 0.000000 0.000000
# 5 0.000000 0.000000 0.000000 0.000000 0.080935 0.000000
# 6 0.000000 0.000000 0.000000 0.000000 0.000000 0.042946
#
#
# Mechanical properties :
#
#
# Convention : Reuss Voigt Hill
#
# Bulk Modulus (GPa) = 75.45148 87.55976 81.50562
# Shear Modulus (GPa) = -88.73202 22.96475 -32.88364
#
# Velocity S-wave (km/s) = -7.36303 3.74582 -4.48236
# Velocity P-wave (km/s) = 5.11719 8.49743 4.79691
#
# Compressibility (1/GPa) = 0.01325355
#
# Stress axis : x y z
#
# Youngs Moduli (GPa) = 108.34247 66.87712 137.87319
#
# Poissons Ratio (x) = 0.17365 0.31592
# Poissons Ratio (y) = 0.28132 0.57950
# Poissons Ratio (z) = 0.24825 0.28110
#
# Static dielectric constant tensor:
#      x y z
#    x 1.545880 0.000000 0.000000 
#    y 0.000000 1.519360 0.000000 
#    z 0.000000 0.000000 1.604600 
# 
# From -- ./inp_files/59329.got.cif
#   From: 2010.05.17/outbox.cif.g08.bks.cpg/sg65_30_cif.got.tgz:59329.got - 2010.06.03 17:01:31.
