data_PCOD9493756
_publ_section_title
;
Structure prediction by ZEFSAII (Michael W. Deem and Ramdas Pophale) SiO2 
 PCOD9493756
Probable space group: C M M M
;
_chemical_formula_sum "Si O2"
_cell_formula_units_Z 88
_cell_length_a 15.951683
_cell_length_b 7.551571
_cell_length_c 32.273807
_cell_angle_alpha 90.000000
_cell_angle_beta 90.000000
_cell_angle_gamma 90.000000
_cell_volume 3887.711400
_symmetry_space_group_name_H-M "C M M M"
_symmetry_group_IT_number 65
_symmetry_cell_setting 'orthorhombic'
loop_
_space_group_symop_operation_xyz
x,y,z
-x,-y,z
x,-y,-z
-x,y,-z
-x,-y,-z
x,y,-z
-x,y,z
x,-y,z
1/2+x,1/2+y,z
1/2-x,1/2-y,z
1/2+x,1/2-y,-z
1/2-x,1/2+y,-z
1/2-x,1/2-y,-z
1/2+x,1/2+y,-z
1/2-x,1/2+y,z
1/2+x,1/2-y,z
loop_
_atom_site_type_symbol
_atom_site_label
_atom_site_fract_x
_atom_site_fract_y
_atom_site_fract_z
Si Si1 0.149681 0.287107 0.044549
Si Si2 0.651109 0.787426 0.133667
Si Si3 0.404581 0.788713 0.310425
Si Si4 0.500000 0.282301 0.547749
Si Si5 0.399403 0.796547 0.777642
Si Si6 0.842625 0.791523 0.399791
O O1 0.138909 0.500000 0.044543
O O2 0.250000 0.250000 0.044498
O O3 0.117127 0.220951 0.089145
O O4 0.116984 0.220548 0.000000
O O5 0.750000 0.750000 0.133173
O O6 0.619813 0.714893 0.177662
O O7 0.635602 0.000000 0.133747
O O8 0.500000 0.721690 0.317645
O O9 0.370402 0.717433 0.266389
O O10 0.352770 0.760804 0.351835
O O11 0.410319 0.000000 0.304584
O O12 0.500000 0.500000 0.547820
O O13 0.500000 0.227764 0.500000
O O14 0.582047 0.218426 0.572420
O O15 0.500000 0.801760 0.773835
O O16 0.367429 0.000000 0.779797
O O17 0.750000 0.750000 0.415267
O O18 0.852582 0.000000 0.400564
#
# Coordination Sequence:
#
# PCOD9493756 Si02
#       6
#    16  16  16   8  16  16
#     4   8  13  21  34  53  76 103 137 180 229 279
#     4   9  16  26  41  60  84 112 146 189 235 283
#     4   9  17  32  54  76 102 136 176 220 263 311
#     4   9  20  40  63  85 115 153 187 225 272 319
#     4   8  15  28  46  67  91 125 162 193 234 291
#     4  11  22  37  59  87 116 148 186 226 271 320
#
# _framework density 22.635425999999999
#
# number of rings (size 3 to 8) (size 9 to 14) (size 15 to 20)
#    0.000    3.000    0.909    1.636    0.000    1.091 
#    0.000    2.727    0.000    6.000    0.000    3.818 
#    0.000    0.000    0.000   29.455    0.000   13.818 
#
# Total GULP energy -245179.359326 kJ/mol
# GULP energy per Si atom -5572.258167 kJ/mol
# Density = 2.258391 g / cm^3
# Si number density = 22.635426 Si / 1000 Ang^3
#
#
#
# Elastic Constant Matrix: (Units=GPa)
#
#
# Indices 1 2 3 4 5 6 
#
# 1 70.3221 -3.4753 71.6465 0.0000 0.0000 0.0000
# 2 -3.4753 59.3835 11.1603 0.0000 0.0000 0.0000
# 3 71.6465 11.1603 236.3312 0.0000 0.0000 0.0000
# 4 0.0000 0.0000 0.0000 6.8244 0.0000 0.0000
# 5 0.0000 0.0000 0.0000 0.0000 -63.7492 0.0000
# 6 0.0000 0.0000 0.0000 0.0000 0.0000 -1.7485
#
#
#
# Elastic Compliance Matrix: (Units=1/GPa)
#
#
# Indices 1 2 3 4 5 6 
#
# 1 0.020919 0.002438 -0.006457 0.000000 0.000000 0.000000
# 2 0.002438 0.017275 -0.001555 0.000000 0.000000 0.000000
# 3 -0.006457 -0.001555 0.006262 0.000000 0.000000 0.000000
# 4 0.000000 0.000000 0.000000 0.146533 0.000000 0.000000
# 5 0.000000 0.000000 0.000000 0.000000 -0.015686 0.000000
# 6 0.000000 0.000000 0.000000 0.000000 0.000000 -0.571904
#
#
# Mechanical properties :
#
#
# Convention : Reuss Voigt Hill
#
# Bulk Modulus (GPa) = 30.02268 58.29998 44.16133
# Shear Modulus (GPa) = -13.35649 7.37902 -2.98874
#
# Velocity S-wave (km/s) = -2.43177 1.80749 -1.15032
# Velocity P-wave (km/s) = 2.32544 5.49254 4.21757
#
# Compressibility (1/GPa) = 0.03330815
#
# Stress axis : x y z
#
# Youngs Moduli (GPa) = 47.80234 57.88857 159.68524
#
# Poissons Ratio (x) = -0.14112 1.03110
# Poissons Ratio (y) = -0.11653 0.24828
# Poissons Ratio (z) = 0.30866 0.09001
#
# Static dielectric constant tensor:
#      x y z
#    x 1.814350 0.000000 0.000000 
#    y 0.000000 1.665480 0.000000 
#    z 0.000000 0.000000 1.924590 
# 
# From -- ./inp_files/77855.got.cif
#   From: 2010.05.17/outbox.cif.g08.bks.cpg/sg65_39_cif.got.tgz:77855.got - 2010.06.03 17:01:31.
