data_PCOD9493192
_publ_section_title
;
Structure prediction by ZEFSAII (Michael W. Deem and Ramdas Pophale) SiO2 
 PCOD9493192
Probable space group: C M M M
;
_chemical_formula_sum "Si O2"
_cell_formula_units_Z 58
_cell_length_a 30.324492
_cell_length_b 11.056062
_cell_length_c 7.462888
_cell_angle_alpha 90.000000
_cell_angle_beta 90.000000
_cell_angle_gamma 90.000000
_cell_volume 2502.078457
_symmetry_space_group_name_H-M "C M M M"
_symmetry_group_IT_number 65
_symmetry_cell_setting 'orthorhombic'
loop_
_space_group_symop_operation_xyz
x,y,z
-x,-y,z
x,-y,-z
-x,y,-z
-x,-y,-z
x,y,-z
-x,y,z
x,-y,z
1/2+x,1/2+y,z
1/2-x,1/2-y,z
1/2+x,1/2-y,-z
1/2-x,1/2+y,-z
1/2-x,1/2-y,-z
1/2+x,1/2+y,-z
1/2-x,1/2+y,z
1/2+x,1/2-y,z
loop_
_atom_site_type_symbol
_atom_site_label
_atom_site_fract_x
_atom_site_fract_y
_atom_site_fract_z
Si Si1 0.084768 0.500000 0.777230
Si Si2 0.547075 0.355701 0.707731
Si Si3 0.000000 0.500000 0.500000
Si Si4 0.134749 0.259899 0.801058
Si Si5 0.777167 0.862977 0.706343
O O1 0.039854 0.500000 0.659825
O O2 0.115514 0.385364 0.729604
O O3 0.077464 0.500000 0.000000
O O4 0.550427 0.315703 0.500000
O O5 0.500000 0.308486 0.777163
O O6 0.545077 0.500000 0.707717
O O7 0.590260 0.317465 0.807255
O O8 0.172386 0.183034 0.706007
O O9 0.152081 0.283486 0.000000
O O10 0.762043 0.872909 0.500000
O O11 0.750000 0.750000 0.787101
O O12 0.773679 0.000000 0.782555
#
# Coordination Sequence:
#
# PCOD9493192 Si02
#       5
#     8  16   2  16  16
#     4  10  27  45  63 104 145 181 244 305 344 425
#     4   9  19  35  57  86 119 158 211 269 320 392
#     4  12  26  44  76  98 130 216 238 288 374 426
#     4  11  24  41  61  89 132 173 216 281 346 411
#     4  10  23  43  69 101 133 170 226 295 354 426
#
# _framework density 23.180726
#
# number of rings (size 3 to 8) (size 9 to 14) (size 15 to 20)
#    0.000    1.931    0.000    2.690    7.724    5.517 
#    0.000    1.379    0.000    0.000    0.000    0.000 
#    0.000    0.000    0.000    0.000    0.000    0.000 
#
# Total GULP energy -161445.466413 kJ/mol
# GULP energy per Si atom -5567.085049 kJ/mol
# Density = 2.312797 g / cm^3
# Si number density = 23.180726 Si / 1000 Ang^3
#
#
#
# Elastic Constant Matrix: (Units=GPa)
#
#
# Indices 1 2 3 4 5 6 
#
# 1 132.1111 73.1139 14.2519 0.0000 0.0000 0.0000
# 2 73.1139 169.1170 25.4981 0.0000 0.0000 0.0000
# 3 14.2519 25.4981 82.5547 0.0000 0.0000 0.0000
# 4 0.0000 0.0000 0.0000 10.5590 0.0000 0.0000
# 5 0.0000 0.0000 0.0000 0.0000 51.1269 0.0000
# 6 0.0000 0.0000 0.0000 0.0000 0.0000 -39.4766
#
#
#
# Elastic Compliance Matrix: (Units=1/GPa)
#
#
# Indices 1 2 3 4 5 6 
#
# 1 0.009963 -0.004246 -0.000409 0.000000 0.000000 0.000000
# 2 -0.004246 0.008011 -0.001741 0.000000 0.000000 0.000000
# 3 -0.000409 -0.001741 0.012722 0.000000 0.000000 0.000000
# 4 0.000000 0.000000 0.000000 0.094706 0.000000 0.000000
# 5 0.000000 0.000000 0.000000 0.000000 0.019559 0.000000
# 6 0.000000 0.000000 0.000000 0.000000 0.000000 -0.025331
#
#
# Mechanical properties :
#
#
# Convention : Reuss Voigt Hill
#
# Bulk Modulus (GPa) = 55.85227 67.72339 61.78783
# Shear Modulus (GPa) = 36.13003 22.50313 29.31658
#
# Velocity S-wave (km/s) = 3.95222 3.11910 3.56011
# Velocity P-wave (km/s) = 6.70622 6.50004 6.60393
#
# Compressibility (1/GPa) = 0.01790438
#
# Stress axis : x y z
#
# Youngs Moduli (GPa) = 100.36950 124.82575 78.60657
#
# Poissons Ratio (x) = 0.52998 0.03212
# Poissons Ratio (y) = 0.42614 0.13688
# Poissons Ratio (z) = 0.04102 0.21737
#
# Static dielectric constant tensor:
#      x y z
#    x 1.831490 0.000000 0.000000 
#    y 0.000000 2.262680 0.000000 
#    z 0.000000 0.000000 1.984960 
# 
# From -- ./inp_files/15455.got.cif
#   From: 2010.05.17/outbox.cif.g08.bks.cpg/sg65_8_cif.got.tgz:15455.got - 2010.06.03 17:01:31.
