data_PCOD9493812
_publ_section_title
;
Structure prediction by ZEFSAII (Michael W. Deem and Ramdas Pophale) SiO2 
 PCOD9493812
Probable space group: C M M M
;
_chemical_formula_sum "Si O2"
_cell_formula_units_Z 64
_cell_length_a 15.217479
_cell_length_b 8.937420
_cell_length_c 24.964047
_cell_angle_alpha 90.000000
_cell_angle_beta 90.000000
_cell_angle_gamma 90.000000
_cell_volume 3395.235241
_symmetry_space_group_name_H-M "C M M M"
_symmetry_group_IT_number 65
_symmetry_cell_setting 'orthorhombic'
loop_
_space_group_symop_operation_xyz
x,y,z
-x,-y,z
x,-y,-z
-x,y,-z
-x,-y,-z
x,y,-z
-x,y,z
x,-y,z
1/2+x,1/2+y,z
1/2-x,1/2-y,z
1/2+x,1/2-y,-z
1/2-x,1/2+y,-z
1/2-x,1/2-y,-z
1/2+x,1/2+y,-z
1/2-x,1/2+y,z
1/2+x,1/2-y,z
loop_
_atom_site_type_symbol
_atom_site_label
_atom_site_fract_x
_atom_site_fract_y
_atom_site_fract_z
Si Si1 0.500000 0.680680 0.794006
Si Si2 0.159110 0.319525 0.271895
Si Si3 0.607214 0.326971 0.500000
Si Si4 0.104790 0.677395 0.390638
Si Si5 0.500000 0.318915 0.081741
Si Si6 0.348068 0.681500 0.000000
O O1 0.500000 0.500000 0.790475
O O2 0.417081 0.749424 0.763601
O O3 0.500000 0.725162 0.856440
O O4 0.157374 0.500000 0.269270
O O5 0.250000 0.250000 0.253172
O O6 0.145395 0.274719 0.334263
O O7 0.629600 0.500000 0.500000
O O8 0.500000 0.311971 0.500000
O O9 0.638093 0.253821 0.444709
O O10 0.116841 0.500000 0.396241
O O11 0.000000 0.705969 0.386392
O O12 0.500000 0.500000 0.079497
O O13 0.589056 0.273654 0.050258
O O14 0.250000 0.750000 0.000000
O O15 0.339854 0.500000 0.000000
#
# Coordination Sequence:
#
# PCOD9493812 Si02
#       6
#     8  16   8  16   8   8
#     4  11  22  39  62  87 117 156 197 242 292 341
#     4  11  23  40  59  84 114 151 196 242 293 349
#     4   9  17  27  46  79 108 132 174 228 282 344
#     4   9  17  33  54  74 103 142 182 227 284 347
#     4   8  18  36  58  84 117 157 195 230 281 340
#     4   9  17  35  60  86 120 157 193 235 278 330
#
# _framework density 18.849945000000002
#
# number of rings (size 3 to 8) (size 9 to 14) (size 15 to 20)
#    0.000    2.375    1.250    2.250    0.000    4.500 
#    0.000    6.875    0.000    0.000    0.000    0.000 
#    0.000    0.000    0.000    0.000    0.000    0.000 
#
# Total GULP energy -178567.038088 kJ/mol
# GULP energy per Si atom -5580.219940 kJ/mol
# Density = 1.880704 g / cm^3
# Si number density = 18.849945 Si / 1000 Ang^3
#
#
#
# Elastic Constant Matrix: (Units=GPa)
#
#
# Indices 1 2 3 4 5 6 
#
# 1 148.2965 55.9717 95.6609 0.0000 0.0000 0.0000
# 2 55.9717 38.5123 47.6037 0.0000 0.0000 0.0000
# 3 95.6609 47.6037 163.6751 0.0000 0.0000 0.0000
# 4 0.0000 0.0000 0.0000 22.4524 0.0000 0.0000
# 5 0.0000 0.0000 0.0000 0.0000 -78.1077 0.0000
# 6 0.0000 0.0000 0.0000 0.0000 0.0000 25.9756
#
#
#
# Elastic Compliance Matrix: (Units=1/GPa)
#
#
# Indices 1 2 3 4 5 6 
#
# 1 0.016594 -0.018936 -0.004191 0.000000 0.000000 0.000000
# 2 -0.018936 0.062149 -0.007008 0.000000 0.000000 0.000000
# 3 -0.004191 -0.007008 0.010597 0.000000 0.000000 0.000000
# 4 0.000000 0.000000 0.000000 0.044539 0.000000 0.000000
# 5 0.000000 0.000000 0.000000 0.000000 -0.012803 0.000000
# 6 0.000000 0.000000 0.000000 0.000000 0.000000 0.038498
#
#
# Mechanical properties :
#
#
# Convention : Reuss Voigt Hill
#
# Bulk Modulus (GPa) = 34.40014 83.21739 58.80876
# Shear Modulus (GPa) = 21.78320 4.14724 12.96522
#
# Velocity S-wave (km/s) = 3.40312 1.48489 2.62546
# Velocity P-wave (km/s) = 5.80781 6.86899 6.36057
#
# Compressibility (1/GPa) = 0.02906965
#
# Stress axis : x y z
#
# Youngs Moduli (GPa) = 60.26353 16.09026 94.36356
#
# Poissons Ratio (x) = 0.30469 0.39546
# Poissons Ratio (y) = 1.14117 0.66132
# Poissons Ratio (z) = 0.25255 0.11276
#
# Static dielectric constant tensor:
#      x y z
#    x 1.584420 0.000000 0.000000 
#    y 0.000000 1.626020 0.000000 
#    z 0.000000 0.000000 1.658550 
# 
# From -- ./inp_files/69599.got.cif
#   From: 2010.05.17/outbox.cif.g08.bks.cpg/sg65_35_cif.got.tgz:69599.got - 2010.06.03 17:01:31.
