data_PCOD9493438
_publ_section_title
;
Structure prediction by ZEFSAII (Michael W. Deem and Ramdas Pophale) SiO2 
 PCOD9493438
Probable space group: C M M M
;
_chemical_formula_sum "Si O2"
_cell_formula_units_Z 104
_cell_length_a 15.164199
_cell_length_b 19.869242
_cell_length_c 16.895672
_cell_angle_alpha 90.000000
_cell_angle_beta 90.000000
_cell_angle_gamma 90.000000
_cell_volume 5090.685229
_symmetry_space_group_name_H-M "C M M M"
_symmetry_group_IT_number 65
_symmetry_cell_setting 'orthorhombic'
loop_
_space_group_symop_operation_xyz
x,y,z
-x,-y,z
x,-y,-z
-x,y,-z
-x,-y,-z
x,y,-z
-x,y,z
x,-y,z
1/2+x,1/2+y,z
1/2-x,1/2-y,z
1/2+x,1/2-y,-z
1/2-x,1/2+y,-z
1/2-x,1/2-y,-z
1/2+x,1/2+y,-z
1/2-x,1/2+y,z
1/2+x,1/2-y,z
loop_
_atom_site_type_symbol
_atom_site_label
_atom_site_fract_x
_atom_site_fract_y
_atom_site_fract_z
Si Si1 0.098088 0.213194 0.357253
Si Si2 0.095749 0.631762 0.676695
Si Si3 0.597215 0.500000 0.403776
Si Si4 0.268124 0.421634 0.908393
Si Si5 0.102525 0.815181 0.169541
Si Si6 0.898660 0.662161 0.136094
Si Si7 0.768610 0.887941 0.408588
O O1 0.097076 0.293683 0.361367
O O2 0.107330 0.194739 0.264350
O O3 0.183109 0.183605 0.400152
O O4 0.000000 0.189372 0.384842
O O5 0.102029 0.643179 0.770628
O O6 0.182762 0.598504 0.642916
O O7 0.000000 0.600447 0.659399
O O8 0.500000 0.500000 0.370547
O O9 0.592144 0.500000 0.500000
O O10 0.652898 0.564088 0.380338
O O11 0.265229 0.500000 0.882461
O O12 0.333659 0.374147 0.858711
O O13 0.172327 0.386309 0.903221
O O14 0.296717 0.420600 0.000000
O O15 0.125239 0.741717 0.132277
O O16 0.000000 0.829027 0.150008
O O17 0.000000 0.654538 0.108315
O O18 0.747889 0.901318 0.500000
#
# Coordination Sequence:
#
# PCOD9493438 Si02
#       7
#    16  16   8  16  16  16  16
#     4   9  18  34  56  81 109 140 178 230 283 327
#     4   9  19  36  56  80 110 140 176 229 286 332
#     4   9  20  38  53  67  97 141 183 222 266 320
#     4  11  24  38  54  83 123 156 179 221 287 345
#     4   9  19  38  62  84 109 148 195 236 276 329
#     4   9  19  39  64  83 106 147 196 241 279 324
#     4  11  21  33  52  77 108 147 185 224 275 332
#
# _framework density 20.429469999999998
#
# number of rings (size 3 to 8) (size 9 to 14) (size 15 to 20)
#    0.000    2.385    0.000    4.154    0.000    7.385 
#    5.538    5.000    0.000    1.385    0.000    0.000 
#    0.000    0.000    0.000    0.000    0.000    0.000 
#
# Total GULP energy -290176.944562 kJ/mol
# GULP energy per Si atom -5580.325857 kJ/mol
# Density = 2.038297 g / cm^3
# Si number density = 20.429470 Si / 1000 Ang^3
#
#
#
# Elastic Constant Matrix: (Units=GPa)
#
#
# Indices 1 2 3 4 5 6 
#
# 1 141.4798 55.8323 27.5478 0.0000 0.0000 0.0000
# 2 55.8323 85.0247 14.8174 0.0000 0.0000 0.0000
# 3 27.5478 14.8174 18.0893 0.0000 0.0000 0.0000
# 4 0.0000 0.0000 0.0000 23.6398 0.0000 0.0000
# 5 0.0000 0.0000 0.0000 0.0000 -19.0300 0.0000
# 6 0.0000 0.0000 0.0000 0.0000 0.0000 16.1094
#
#
#
# Elastic Compliance Matrix: (Units=1/GPa)
#
#
# Indices 1 2 3 4 5 6 
#
# 1 0.011856 -0.005411 -0.013623 0.000000 0.000000 0.000000
# 2 -0.005411 0.016190 -0.005020 0.000000 0.000000 0.000000
# 3 -0.013623 -0.005020 0.080140 0.000000 0.000000 0.000000
# 4 0.000000 0.000000 0.000000 0.042302 0.000000 0.000000
# 5 0.000000 0.000000 0.000000 0.000000 -0.052549 0.000000
# 6 0.000000 0.000000 0.000000 0.000000 0.000000 0.062076
#
#
# Mechanical properties :
#
#
# Convention : Reuss Voigt Hill
#
# Bulk Modulus (GPa) = 16.64551 48.99876 32.82214
# Shear Modulus (GPa) = 21.91542 13.90358 17.90950
#
# Velocity S-wave (km/s) = 3.27882 2.61159 2.96404
# Velocity P-wave (km/s) = 4.74338 5.75589 5.27399
#
# Compressibility (1/GPa) = 0.06007625
#
# Stress axis : x y z
#
# Youngs Moduli (GPa) = 84.34383 61.76785 12.47814
#
# Poissons Ratio (x) = 0.33425 0.16999
# Poissons Ratio (y) = 0.45642 0.06265
# Poissons Ratio (z) = 1.14902 0.31010
#
# Static dielectric constant tensor:
#      x y z
#    x 1.743910 0.000000 0.000000 
#    y 0.000000 1.807490 0.000000 
#    z 0.000000 0.000000 1.718790 
# 
# From -- ./inp_files/62835.got.cif
#   From: 2010.05.17/outbox.cif.g08.bks.cpg/sg65_32_cif.got.tgz:62835.got - 2010.06.03 17:01:31.
