data_PCOD9493381
_publ_section_title
;
Structure prediction by ZEFSAII (Michael W. Deem and Ramdas Pophale) SiO2 
 PCOD9493381
Probable space group: C M M M
;
_chemical_formula_sum "Si O2"
_cell_formula_units_Z 104
_cell_length_a 7.709603
_cell_length_b 28.450954
_cell_length_c 27.682228
_cell_angle_alpha 90.000000
_cell_angle_beta 90.000000
_cell_angle_gamma 90.000000
_cell_volume 6071.973811
_symmetry_space_group_name_H-M "C M M M"
_symmetry_group_IT_number 65
_symmetry_cell_setting 'orthorhombic'
loop_
_space_group_symop_operation_xyz
x,y,z
-x,-y,z
x,-y,-z
-x,y,-z
-x,-y,-z
x,y,-z
-x,y,z
x,-y,z
1/2+x,1/2+y,z
1/2-x,1/2-y,z
1/2+x,1/2-y,-z
1/2-x,1/2+y,-z
1/2-x,1/2-y,-z
1/2+x,1/2+y,-z
1/2-x,1/2+y,z
1/2+x,1/2-y,z
loop_
_atom_site_type_symbol
_atom_site_label
_atom_site_fract_x
_atom_site_fract_y
_atom_site_fract_z
Si Si1 0.700607 0.942955 0.000000
Si Si2 0.287336 0.946762 0.704470
Si Si3 0.298038 0.139994 0.645366
Si Si4 0.290798 0.804481 0.554128
Si Si5 0.209103 0.391528 0.799849
Si Si6 0.787073 0.445335 0.105701
Si Si7 0.798092 0.196269 0.261124
O O1 0.775278 0.930096 0.052306
O O2 0.500000 0.927030 0.000000
O O3 0.698662 0.000000 0.000000
O O4 0.500000 0.946357 0.704016
O O5 0.224407 0.909076 0.665094
O O6 0.235073 0.926438 0.756691
O O7 0.230773 0.000000 0.697113
O O8 0.500000 0.130964 0.634831
O O9 0.221547 0.163475 0.597543
O O10 0.291993 0.175638 0.690852
O O11 0.227226 0.815934 0.500000
O O12 0.500000 0.808335 0.553510
O O13 0.250000 0.750000 0.563880
O O14 0.270326 0.411662 0.851001
O O15 0.260510 0.339461 0.782785
O O16 0.000000 0.392456 0.800891
O O17 0.738204 0.500000 0.114332
O O18 0.000000 0.445045 0.104472
O O19 0.750000 0.250000 0.251214
O O20 0.000000 0.194140 0.271987
#
# Coordination Sequence:
#
# PCOD9493381 Si02
#       7
#     8  16  16  16  16  16  16
#     4   7  10  16  28  54  90 119 142 171 206 239
#     4   8  13  22  38  59  81 107 140 171 196 230
#     4   9  17  29  45  64  85 110 139 169 202 242
#     4   9  17  28  42  61  84 108 134 167 207 248
#     4   9  16  26  41  62  85 111 143 173 204 242
#     4   8  12  19  35  60  90 120 146 173 204 241
#     4  11  21  32  45  61  83 108 135 169 210 253
#
# _framework density 17.127873000000001
#
# number of rings (size 3 to 8) (size 9 to 14) (size 15 to 20)
#    0.000    3.154    0.000    4.154    0.000    3.692 
#    0.000    0.000    0.000   12.000    0.000    4.308 
#    0.000    1.846    0.000    9.385    0.000   10.154 
#
# Total GULP energy -289626.833369 kJ/mol
# GULP energy per Si atom -5569.746796 kJ/mol
# Density = 1.708889 g / cm^3
# Si number density = 17.127873 Si / 1000 Ang^3
#
#
#
# Elastic Constant Matrix: (Units=GPa)
#
#
# Indices 1 2 3 4 5 6 
#
# 1 29.0775 -0.6495 0.7698 0.0000 0.0000 0.0000
# 2 -0.6495 138.6765 90.8710 0.0000 0.0000 0.0000
# 3 0.7698 90.8710 146.3734 0.0000 0.0000 0.0000
# 4 0.0000 0.0000 0.0000 15.9299 0.0000 0.0000
# 5 0.0000 0.0000 0.0000 0.0000 -1.1953 0.0000
# 6 0.0000 0.0000 0.0000 0.0000 0.0000 11.0748
#
#
#
# Elastic Compliance Matrix: (Units=1/GPa)
#
#
# Indices 1 2 3 4 5 6 
#
# 1 0.034414 0.000472 -0.000474 0.000000 0.000000 0.000000
# 2 0.000472 0.012163 -0.007553 0.000000 0.000000 0.000000
# 3 -0.000474 -0.007553 0.011524 0.000000 0.000000 0.000000
# 4 0.000000 0.000000 0.000000 0.062775 0.000000 0.000000
# 5 0.000000 0.000000 0.000000 0.000000 -0.836616 0.000000
# 6 0.000000 0.000000 0.000000 0.000000 0.000000 0.090295
#
#
# Mechanical properties :
#
#
# Convention : Reuss Voigt Hill
#
# Bulk Modulus (GPa) = 23.26158 55.12333 39.19245
# Shear Modulus (GPa) = -8.38919 20.03762 5.82421
#
# Velocity S-wave (km/s) = -2.21554 3.42407 1.84603
# Velocity P-wave (km/s) = 2.65816 6.91994 5.24173
#
# Compressibility (1/GPa) = 0.04298934
#
# Stress axis : x y z
#
# Youngs Moduli (GPa) = 29.05796 82.21865 86.77899
#
# Poissons Ratio (x) = -0.03878 0.04112
# Poissons Ratio (y) = -0.01371 0.65547
# Poissons Ratio (z) = 0.01377 0.62102
#
# Static dielectric constant tensor:
#      x y z
#    x 1.644360 0.000000 0.000000 
#    y 0.000000 1.572770 0.000000 
#    z 0.000000 0.000000 1.607210 
# 
# From -- ./inp_files/77111.got.cif
#   From: 2010.05.17/outbox.cif.g08.bks.cpg/sg65_39_cif.got.tgz:77111.got - 2010.06.03 17:01:31.
