data_PCOD9493342
_publ_section_title
;
Structure prediction by ZEFSAII (Michael W. Deem and Ramdas Pophale) SiO2 
 PCOD9493342
Probable space group: C M M M
;
_chemical_formula_sum "Si O2"
_cell_formula_units_Z 120
_cell_length_a 20.665045
_cell_length_b 17.426511
_cell_length_c 19.847223
_cell_angle_alpha 90.000000
_cell_angle_beta 90.000000
_cell_angle_gamma 90.000000
_cell_volume 7147.374683
_symmetry_space_group_name_H-M "C M M M"
_symmetry_group_IT_number 65
_symmetry_cell_setting 'orthorhombic'
loop_
_space_group_symop_operation_xyz
x,y,z
-x,-y,z
x,-y,-z
-x,y,-z
-x,-y,-z
x,y,-z
-x,y,z
x,-y,z
1/2+x,1/2+y,z
1/2-x,1/2-y,z
1/2+x,1/2-y,-z
1/2-x,1/2+y,-z
1/2-x,1/2-y,-z
1/2+x,1/2+y,-z
1/2-x,1/2+y,z
1/2+x,1/2-y,z
loop_
_atom_site_type_symbol
_atom_site_label
_atom_site_fract_x
_atom_site_fract_y
_atom_site_fract_z
Si Si1 0.309206 0.190948 0.197421
Si Si2 0.260141 0.911247 0.077635
Si Si3 0.136328 0.137354 0.661778
Si Si4 0.675853 0.219430 0.422963
Si Si5 0.426331 0.306826 0.797421
Si Si6 0.713103 0.909266 0.325942
Si Si7 0.103961 0.089763 0.923333
Si Si8 0.077231 0.000000 0.423090
O O1 0.250000 0.250000 0.212556
O O2 0.292190 0.147354 0.128755
O O3 0.375215 0.238300 0.193184
O O4 0.311664 0.129492 0.257323
O O5 0.182183 0.904410 0.082015
O O6 0.276030 0.000000 0.093957
O O7 0.278212 0.896714 0.000000
O O8 0.138783 0.219271 0.623675
O O9 0.100532 0.146427 0.732960
O O10 0.210037 0.109206 0.672146
O O11 0.102162 0.074822 0.615354
O O12 0.652359 0.217226 0.500000
O O13 0.750000 0.250000 0.424521
O O14 0.679986 0.137101 0.387108
O O15 0.500000 0.282034 0.785078
O O16 0.424185 0.359045 0.864190
O O17 0.703215 0.000000 0.328616
O O18 0.087081 0.000000 0.914882
O O19 0.086018 0.112170 0.000000
O O20 0.101463 0.000000 0.500000
O O21 0.000000 0.000000 0.423656
#
# Coordination Sequence:
#
# PCOD9493342 Si02
#       8
#    16  16  16  16  16  16  16   8
#     4  12  20  36  57  81 112 146 187 235 286 340
#     4   9  18  33  57  87 112 142 187 237 284 333
#     4  11  20  38  56  81 115 151 191 231 274 333
#     4   9  18  33  54  82 114 145 179 227 282 331
#     4  12  25  37  55  81 113 151 193 234 278 335
#     4  11  20  34  57  84 111 143 184 237 293 339
#     4   9  19  36  56  82 117 153 188 226 274 330
#     4  11  24  38  54  82 121 163 194 220 269 344
#
# _framework density 16.789382
#
# number of rings (size 3 to 8) (size 9 to 14) (size 15 to 20)
#    0.000    1.533    4.667    2.400    0.933    3.200 
#    0.000    0.667    0.000    1.600    0.000    0.933 
#    0.000    1.067    0.000    0.000    0.000    0.000 
#
# Total GULP energy -334980.510636 kJ/mol
# GULP energy per Si atom -5583.008511 kJ/mol
# Density = 1.675117 g / cm^3
# Si number density = 16.789382 Si / 1000 Ang^3
#
#
#
# Elastic Constant Matrix: (Units=GPa)
#
#
# Indices 1 2 3 4 5 6 
#
# 1 61.7543 37.8397 33.0637 0.0000 0.0000 0.0000
# 2 37.8397 127.1376 71.1866 0.0000 0.0000 0.0000
# 3 33.0637 71.1866 120.5830 0.0000 0.0000 0.0000
# 4 0.0000 0.0000 0.0000 16.5391 0.0000 0.0000
# 5 0.0000 0.0000 0.0000 0.0000 5.7918 0.0000
# 6 0.0000 0.0000 0.0000 0.0000 0.0000 5.4194
#
#
#
# Elastic Compliance Matrix: (Units=1/GPa)
#
#
# Indices 1 2 3 4 5 6 
#
# 1 0.020515 -0.004416 -0.003018 0.000000 0.000000 0.000000
# 2 -0.004416 0.012700 -0.006286 0.000000 0.000000 0.000000
# 3 -0.003018 -0.006286 0.012832 0.000000 0.000000 0.000000
# 4 0.000000 0.000000 0.000000 0.060463 0.000000 0.000000
# 5 0.000000 0.000000 0.000000 0.000000 0.172657 0.000000
# 6 0.000000 0.000000 0.000000 0.000000 0.000000 0.184521
#
#
# Mechanical properties :
#
#
# Convention : Reuss Voigt Hill
#
# Bulk Modulus (GPa) = 53.74795 65.96168 59.85481
# Shear Modulus (GPa) = 10.05368 16.70907 13.38137
#
# Velocity S-wave (km/s) = 2.44972 3.15813 2.82621
# Velocity P-wave (km/s) = 6.33120 7.25751 6.81012
#
# Compressibility (1/GPa) = 0.01860536
#
# Stress axis : x y z
#
# Youngs Moduli (GPa) = 48.74482 78.74208 77.93073
#
# Poissons Ratio (x) = 0.34771 0.23522
# Poissons Ratio (y) = 0.21525 0.48991
# Poissons Ratio (z) = 0.14713 0.49501
#
# Static dielectric constant tensor:
#      x y z
#    x 1.545810 0.000000 0.000000 
#    y 0.000000 1.550210 0.000000 
#    z 0.000000 0.000000 1.575140 
# 
# From -- ./inp_files/56115.got.cif
#   From: 2010.05.17/outbox.cif.g08.bks.cpg/sg65_29_cif.got.tgz:56115.got - 2010.06.03 17:01:31.
