data_PCOD9493303
_publ_section_title
;
Structure prediction by ZEFSAII (Michael W. Deem and Ramdas Pophale) SiO2 
 PCOD9493303
Probable space group: C M M M
;
_chemical_formula_sum "Si O2"
_cell_formula_units_Z 96
_cell_length_a 8.542173
_cell_length_b 28.222445
_cell_length_c 25.033367
_cell_angle_alpha 90.000000
_cell_angle_beta 90.000000
_cell_angle_gamma 90.000000
_cell_volume 6035.069342
_symmetry_space_group_name_H-M "C M M M"
_symmetry_group_IT_number 65
_symmetry_cell_setting 'orthorhombic'
loop_
_space_group_symop_operation_xyz
x,y,z
-x,-y,z
x,-y,-z
-x,y,-z
-x,-y,-z
x,y,-z
-x,y,z
x,-y,z
1/2+x,1/2+y,z
1/2-x,1/2-y,z
1/2+x,1/2-y,-z
1/2-x,1/2+y,-z
1/2-x,1/2-y,-z
1/2+x,1/2+y,-z
1/2-x,1/2+y,z
1/2+x,1/2-y,z
loop_
_atom_site_type_symbol
_atom_site_label
_atom_site_fract_x
_atom_site_fract_y
_atom_site_fract_z
Si Si1 0.812418 0.695991 0.941894
Si Si2 0.310712 0.851614 0.275347
Si Si3 0.185686 0.196278 0.830423
Si Si4 0.309048 0.052881 0.332203
Si Si5 0.690984 0.102223 0.440545
Si Si6 0.311766 0.198348 0.384804
O O1 0.750000 0.750000 0.942611
O O2 0.745991 0.675518 0.886930
O O3 0.000000 0.696939 0.938636
O O4 0.768199 0.674927 0.000000
O O5 0.500000 0.850534 0.272151
O O6 0.241740 0.833642 0.220134
O O7 0.262146 0.904650 0.292745
O O8 0.264244 0.817515 0.324832
O O9 0.250000 0.250000 0.824957
O O10 0.000000 0.198947 0.831936
O O11 0.500000 0.052786 0.332088
O O12 0.260424 0.068092 0.392144
O O13 0.255712 0.000000 0.318820
O O14 0.744834 0.089896 0.500000
O O15 0.500000 0.101375 0.440908
O O16 0.737572 0.155632 0.423846
O O17 0.500000 0.199470 0.385632
O O18 0.250000 0.250000 0.398446
#
# Coordination Sequence:
#
# PCOD9493303 Si02
#       6
#    16  16  16  16  16  16
#     4   9  16  26  40  58  83 116 150 179 207 239
#     4   9  17  29  42  58  83 109 137 175 213 253
#     4  11  20  28  41  61  86 116 149 180 210 244
#     4   8  14  25  42  62  81 104 134 169 213 260
#     4   8  14  24  37  56  82 106 130 165 208 252
#     4   9  17  27  39  55  77 108 139 168 205 245
#
# _framework density 15.907026
#
# number of rings (size 3 to 8) (size 9 to 14) (size 15 to 20)
#    0.000    3.000    0.000    5.500    0.000    3.667 
#    0.000    1.667    0.000    0.500    0.000    0.000 
#    0.000    0.667    0.000   15.000    0.000    9.500 
#
# Total GULP energy -267295.892871 kJ/mol
# GULP energy per Si atom -5568.664435 kJ/mol
# Density = 1.587082 g / cm^3
# Si number density = 15.907026 Si / 1000 Ang^3
#
#
#
# Elastic Constant Matrix: (Units=GPa)
#
#
# Indices 1 2 3 4 5 6 
#
# 1 29.9598 9.5414 25.2642 0.0000 0.0000 0.0000
# 2 9.5414 69.4746 27.5651 0.0000 0.0000 0.0000
# 3 25.2642 27.5651 124.1247 0.0000 0.0000 0.0000
# 4 0.0000 0.0000 0.0000 11.4467 0.0000 0.0000
# 5 0.0000 0.0000 0.0000 0.0000 11.9780 0.0000
# 6 0.0000 0.0000 0.0000 0.0000 0.0000 11.5840
#
#
#
# Elastic Compliance Matrix: (Units=1/GPa)
#
#
# Indices 1 2 3 4 5 6 
#
# 1 0.040694 -0.002525 -0.007722 0.000000 0.000000 0.000000
# 2 -0.002525 0.015941 -0.003026 0.000000 0.000000 0.000000
# 3 -0.007722 -0.003026 0.010300 0.000000 0.000000 0.000000
# 4 0.000000 0.000000 0.000000 0.087362 0.000000 0.000000
# 5 0.000000 0.000000 0.000000 0.000000 0.083486 0.000000
# 6 0.000000 0.000000 0.000000 0.000000 0.000000 0.086326
#
#
# Mechanical properties :
#
#
# Convention : Reuss Voigt Hill
#
# Bulk Modulus (GPa) = 24.75924 38.70005 31.72965
# Shear Modulus (GPa) = 13.73176 17.74762 15.73969
#
# Velocity S-wave (km/s) = 2.94130 3.34385 3.14901
# Velocity P-wave (km/s) = 5.20901 6.26818 5.76298
#
# Compressibility (1/GPa) = 0.04038896
#
# Stress axis : x y z
#
# Youngs Moduli (GPa) = 24.57363 62.73039 97.08542
#
# Poissons Ratio (x) = 0.15839 0.74970
# Poissons Ratio (y) = 0.06205 0.29380
# Poissons Ratio (z) = 0.18976 0.18984
#
# Static dielectric constant tensor:
#      x y z
#    x 1.563530 0.000000 0.000000 
#    y 0.000000 1.521890 0.000000 
#    z 0.000000 0.000000 1.559310 
# 
# From -- ./inp_files/73691.got.cif
#   From: 2010.05.17/outbox.cif.g08.bks.cpg/sg65_37_cif.got.tgz:73691.got - 2010.06.03 17:01:31.
