data_PCOD9493906
_publ_section_title
;
Structure prediction by ZEFSAII (Michael W. Deem and Ramdas Pophale) SiO2 
 PCOD9493906
Probable space group: C M M M
;
_chemical_formula_sum "Si O2"
_cell_formula_units_Z 80
_cell_length_a 21.836120
_cell_length_b 7.837553
_cell_length_c 24.812562
_cell_angle_alpha 90.000000
_cell_angle_beta 90.000000
_cell_angle_gamma 90.000000
_cell_volume 4246.465228
_symmetry_space_group_name_H-M "C M M M"
_symmetry_group_IT_number 65
_symmetry_cell_setting 'orthorhombic'
loop_
_space_group_symop_operation_xyz
x,y,z
-x,-y,z
x,-y,-z
-x,y,-z
-x,-y,-z
x,y,-z
-x,y,z
x,-y,z
1/2+x,1/2+y,z
1/2-x,1/2-y,z
1/2+x,1/2-y,-z
1/2-x,1/2+y,-z
1/2-x,1/2-y,-z
1/2+x,1/2+y,-z
1/2-x,1/2+y,z
1/2+x,1/2-y,z
loop_
_atom_site_type_symbol
_atom_site_label
_atom_site_fract_x
_atom_site_fract_y
_atom_site_fract_z
Si Si1 0.000000 0.305545 0.065496
Si Si2 0.573912 0.306688 0.362353
Si Si3 0.425103 0.000000 0.562235
Si Si4 0.316366 0.298278 0.170043
Si Si5 0.069357 0.791827 0.238236
Si Si6 0.867456 0.294564 0.939299
O O1 0.065375 0.224750 0.078556
O O2 0.000000 0.500000 0.086540
O O3 0.000000 0.314982 0.000000
O O4 0.500000 0.315190 0.367298
O O5 0.597291 0.500000 0.370250
O O6 0.595504 0.167788 0.405214
O O7 0.584172 0.251107 0.300535
O O8 0.500000 0.000000 0.563077
O O9 0.406306 0.000000 0.500000
O O10 0.321093 0.500000 0.173166
O O11 0.250000 0.250000 0.192396
O O12 0.375920 0.226301 0.200748
O O13 0.320961 0.247444 0.107520
O O14 0.000000 0.733073 0.224832
O O15 0.067623 0.000000 0.235572
O O16 0.873284 0.500000 0.942322
O O17 0.853051 0.234220 0.000000
#
# Coordination Sequence:
#
# PCOD9493906 Si02
#       6
#     8  16   8  16  16  16
#     4   7  12  26  49  73  97 123 151 195 245 296
#     4   8  14  27  45  65  96 137 176 214 259 307
#     4   9  16  24  38  68 108 142 175 213 252 306
#     4  11  23  37  53  74 104 133 164 215 264 312
#     4   8  16  33  55  74  95 132 175 214 257 307
#     4   9  18  34  54  74  99 130 164 203 255 317
#
# _framework density 18.839196999999999
#
# number of rings (size 3 to 8) (size 9 to 14) (size 15 to 20)
#    0.000    3.200    0.000    3.000    1.400    1.200 
#    3.600    2.000    0.000    1.800    0.000    0.000 
#    0.000    0.800    0.400    0.000    0.000    0.000 
#
# Total GULP energy -222819.203204 kJ/mol
# GULP energy per Si atom -5570.480080 kJ/mol
# Density = 1.879632 g / cm^3
# Si number density = 18.839197 Si / 1000 Ang^3
#
#
#
# Elastic Constant Matrix: (Units=GPa)
#
#
# Indices 1 2 3 4 5 6 
#
# 1 88.9157 18.2537 60.9618 0.0000 0.0000 0.0000
# 2 18.2537 50.1211 36.4897 0.0000 0.0000 0.0000
# 3 60.9618 36.4897 105.6972 0.0000 0.0000 0.0000
# 4 0.0000 0.0000 0.0000 18.0421 0.0000 0.0000
# 5 0.0000 0.0000 0.0000 0.0000 3.6382 0.0000
# 6 0.0000 0.0000 0.0000 0.0000 0.0000 1.9619
#
#
#
# Elastic Compliance Matrix: (Units=1/GPa)
#
#
# Indices 1 2 3 4 5 6 
#
# 1 0.018675 0.001390 -0.011251 0.000000 0.000000 0.000000
# 2 0.001390 0.026753 -0.010037 0.000000 0.000000 0.000000
# 3 -0.011251 -0.010037 0.019415 0.000000 0.000000 0.000000
# 4 0.000000 0.000000 0.000000 0.055426 0.000000 0.000000
# 5 0.000000 0.000000 0.000000 0.000000 0.274858 0.000000
# 6 0.000000 0.000000 0.000000 0.000000 0.000000 0.509701
#
#
# Mechanical properties :
#
#
# Convention : Reuss Voigt Hill
#
# Bulk Modulus (GPa) = 39.92619 52.90492 46.41555
# Shear Modulus (GPa) = 5.24674 13.33038 9.28856
#
# Velocity S-wave (km/s) = 1.67065 2.66294 2.22287
# Velocity P-wave (km/s) = 4.99606 6.13175 5.59280
#
# Compressibility (1/GPa) = 0.02504622
#
# Stress axis : x y z
#
# Youngs Moduli (GPa) = 53.54767 37.37877 51.50628
#
# Poissons Ratio (x) = -0.05194 0.57948
# Poissons Ratio (y) = -0.07441 0.51699
# Poissons Ratio (z) = 0.60245 0.37519
#
# Static dielectric constant tensor:
#      x y z
#    x 1.679660 0.000000 0.000000 
#    y 0.000000 1.686530 0.000000 
#    z 0.000000 0.000000 1.655740 
# 
# From -- ./inp_files/71347.got.cif
#   From: 2010.05.17/outbox.cif.g08.bks.cpg/sg65_36_cif.got.tgz:71347.got - 2010.06.03 17:01:31.
