data_PCOD9493887
_publ_section_title
;
Structure prediction by ZEFSAII (Michael W. Deem and Ramdas Pophale) SiO2 
 PCOD9493887
Probable space group: C M M M
;
_chemical_formula_sum "Si O2"
_cell_formula_units_Z 64
_cell_length_a 7.733918
_cell_length_b 25.891961
_cell_length_c 15.126982
_cell_angle_alpha 90.000000
_cell_angle_beta 90.000000
_cell_angle_gamma 90.000000
_cell_volume 3029.122225
_symmetry_space_group_name_H-M "C M M M"
_symmetry_group_IT_number 65
_symmetry_cell_setting 'orthorhombic'
loop_
_space_group_symop_operation_xyz
x,y,z
-x,-y,z
x,-y,-z
-x,y,-z
-x,-y,-z
x,y,-z
-x,y,z
x,-y,z
1/2+x,1/2+y,z
1/2-x,1/2-y,z
1/2+x,1/2-y,-z
1/2-x,1/2+y,-z
1/2-x,1/2-y,-z
1/2+x,1/2+y,-z
1/2-x,1/2+y,z
1/2+x,1/2-y,z
loop_
_atom_site_type_symbol
_atom_site_label
_atom_site_fract_x
_atom_site_fract_y
_atom_site_fract_z
Si Si1 0.299792 0.000000 0.892121
Si Si2 0.708019 0.388564 0.600384
Si Si3 0.287421 0.887661 0.101998
Si Si4 0.795750 0.690117 0.248554
Si Si5 0.700363 0.500000 0.391820
O O1 0.225183 0.055564 0.866426
O O2 0.500000 0.000000 0.863380
O O3 0.299484 0.000000 0.000000
O O4 0.770092 0.380111 0.500000
O O5 0.500000 0.393688 0.596284
O O6 0.747731 0.341444 0.663943
O O7 0.777050 0.444439 0.633841
O O8 0.500000 0.889375 0.102649
O O9 0.224384 0.842357 0.165485
O O10 0.236887 0.880019 0.000000
O O11 0.750000 0.750000 0.250804
O O12 0.000000 0.687601 0.240222
O O13 0.500000 0.500000 0.362618
O O14 0.700679 0.500000 0.500000
#
# Coordination Sequence:
#
# PCOD9493887 Si02
#       5
#     8  16  16  16   8
#     4   7  10  21  44  72 100 127 156 195 247 306
#     4   9  18  35  58  80 104 135 168 204 250 306
#     4   8  15  29  49  73 101 132 164 201 250 306
#     4  11  23  36  51  73 102 136 177 221 258 297
#     4   7  12  27  53  81 104 129 162 197 243 308
#
# _framework density 21.128233999999999
#
# number of rings (size 3 to 8) (size 9 to 14) (size 15 to 20)
#    0.000    3.250    0.000    3.750    0.000    2.500 
#    0.000    1.875    0.000    4.500    0.000    0.000 
#    0.000   15.000    0.000    0.000    0.000    0.000 
#
# Total GULP energy -178408.536721 kJ/mol
# GULP energy per Si atom -5575.266773 kJ/mol
# Density = 2.108014 g / cm^3
# Si number density = 21.128234 Si / 1000 Ang^3
#
#
#
# Elastic Constant Matrix: (Units=GPa)
#
#
# Indices 1 2 3 4 5 6 
#
# 1 34.7509 12.6291 4.3451 0.0000 0.0000 0.0000
# 2 12.6291 255.1882 111.0044 0.0000 0.0000 0.0000
# 3 4.3451 111.0044 108.9015 0.0000 0.0000 0.0000
# 4 0.0000 0.0000 0.0000 38.4567 0.0000 0.0000
# 5 0.0000 0.0000 0.0000 0.0000 21.5040 0.0000
# 6 0.0000 0.0000 0.0000 0.0000 0.0000 -44.1453
#
#
#
# Elastic Compliance Matrix: (Units=1/GPa)
#
#
# Indices 1 2 3 4 5 6 
#
# 1 0.029322 -0.001693 0.000556 0.000000 0.000000 0.000000
# 2 -0.001693 0.007138 -0.007208 0.000000 0.000000 0.000000
# 3 0.000556 -0.007208 0.016508 0.000000 0.000000 0.000000
# 4 0.000000 0.000000 0.000000 0.026003 0.000000 0.000000
# 5 0.000000 0.000000 0.000000 0.000000 0.046503 0.000000
# 6 0.000000 0.000000 0.000000 0.000000 0.000000 -0.022652
#
#
# Mechanical properties :
#
#
# Convention : Reuss Voigt Hill
#
# Bulk Modulus (GPa) = 27.56579 72.75529 50.16054
# Shear Modulus (GPa) = 37.99253 21.22057 29.60655
#
# Velocity S-wave (km/s) = 4.24510 3.17262 3.74743
# Velocity P-wave (km/s) = 6.09123 6.92319 6.52049
#
# Compressibility (1/GPa) = 0.03627685
#
# Stress axis : x y z
#
# Youngs Moduli (GPa) = 34.10412 140.09567 60.57705
#
# Poissons Ratio (x) = 0.23715 -0.03365
# Poissons Ratio (y) = 0.05773 0.43666
# Poissons Ratio (z) = -0.01895 1.00985
#
# Static dielectric constant tensor:
#      x y z
#    x 1.779960 0.000000 0.000000 
#    y 0.000000 1.458290 0.000000 
#    z 0.000000 0.000000 1.785930 
# 
# From -- ./inp_files/36061.got.cif
#   From: 2010.05.17/outbox.cif.g08.bks.cpg/sg65_19_cif.got.tgz:36061.got - 2010.06.03 17:01:31.
