data_PCOD9493029
_publ_section_title
;
Structure prediction by ZEFSAII (Michael W. Deem and Ramdas Pophale) SiO2 
 PCOD9493029
Probable space group: C M M M
;
_chemical_formula_sum "Si O2"
_cell_formula_units_Z 64
_cell_length_a 8.761002
_cell_length_b 24.356405
_cell_length_c 15.791641
_cell_angle_alpha 90.000000
_cell_angle_beta 90.000000
_cell_angle_gamma 90.000000
_cell_volume 3369.723206
_symmetry_space_group_name_H-M "C M M M"
_symmetry_group_IT_number 65
_symmetry_cell_setting 'orthorhombic'
loop_
_space_group_symop_operation_xyz
x,y,z
-x,-y,z
x,-y,-z
-x,y,-z
-x,-y,-z
x,y,-z
-x,y,z
x,-y,z
1/2+x,1/2+y,z
1/2-x,1/2-y,z
1/2+x,1/2-y,-z
1/2-x,1/2+y,-z
1/2-x,1/2-y,-z
1/2+x,1/2+y,-z
1/2-x,1/2+y,z
1/2+x,1/2-y,z
loop_
_atom_site_type_symbol
_atom_site_label
_atom_site_fract_x
_atom_site_fract_y
_atom_site_fract_z
Si Si1 0.315535 0.310812 0.500000
Si Si2 0.817080 0.883118 0.849031
Si Si3 0.679510 0.000000 0.897814
Si Si4 0.683592 0.614461 0.658031
Si Si5 0.682234 0.810955 0.000000
Si Si6 0.682372 0.000000 0.400802
O O1 0.500000 0.308288 0.500000
O O2 0.250000 0.250000 0.500000
O O3 0.266875 0.344511 0.583562
O O4 0.758781 0.945090 0.863907
O O5 0.778098 0.866520 0.752806
O O6 0.000000 0.881545 0.859505
O O7 0.740335 0.844156 0.918092
O O8 0.500000 0.000000 0.875374
O O9 0.690974 0.000000 0.000000
O O10 0.500000 0.609522 0.653240
O O11 0.753237 0.554769 0.641413
O O12 0.750000 0.750000 0.000000
O O13 0.500000 0.809069 0.000000
O O14 0.500000 0.000000 0.395585
O O15 0.727328 0.000000 0.500000
#
# Coordination Sequence:
#
# PCOD9493029 Si02
#       6
#     8  16   8  16   8   8
#     4  10  22  41  62  85 117 156 200 246 295 352
#     4  11  23  40  64  94 123 157 204 254 303 362
#     4  11  22  37  60  91 126 162 198 241 304 367
#     4  10  22  40  63  89 121 161 201 244 302 362
#     4  12  26  45  66  89 120 162 204 252 306 360
#     4  11  22  35  58  93 127 159 200 249 301 354
#
# _framework density 18.992657000000001
#
# number of rings (size 3 to 8) (size 9 to 14) (size 15 to 20)
#    0.000    1.250    2.500    3.375    0.000    8.000 
#    0.000    2.500    0.000    0.000    0.000    0.000 
#    0.000    0.000    0.000    0.000    0.000    0.000 
#
# Total GULP energy -178960.229934 kJ/mol
# GULP energy per Si atom -5592.507185 kJ/mol
# Density = 1.894943 g / cm^3
# Si number density = 18.992657 Si / 1000 Ang^3
#
#
#
# Elastic Constant Matrix: (Units=GPa)
#
#
# Indices 1 2 3 4 5 6 
#
# 1 71.2686 51.3245 73.4248 0.0000 0.0000 0.0000
# 2 51.3245 168.9275 97.4921 0.0000 0.0000 0.0000
# 3 73.4248 97.4921 187.9389 0.0000 0.0000 0.0000
# 4 0.0000 0.0000 0.0000 -4.6339 0.0000 0.0000
# 5 0.0000 0.0000 0.0000 0.0000 21.5243 0.0000
# 6 0.0000 0.0000 0.0000 0.0000 0.0000 39.1639
#
#
#
# Elastic Compliance Matrix: (Units=1/GPa)
#
#
# Indices 1 2 3 4 5 6 
#
# 1 0.024329 -0.002721 -0.008094 0.000000 0.000000 0.000000
# 2 -0.002721 0.008754 -0.003478 0.000000 0.000000 0.000000
# 3 -0.008094 -0.003478 0.010287 0.000000 0.000000 0.000000
# 4 0.000000 0.000000 0.000000 -0.215801 0.000000 0.000000
# 5 0.000000 0.000000 0.000000 0.000000 0.046459 0.000000
# 6 0.000000 0.000000 0.000000 0.000000 0.000000 0.025534
#
#
# Mechanical properties :
#
#
# Convention : Reuss Voigt Hill
#
# Bulk Modulus (GPa) = 67.63499 96.95753 82.29626
# Shear Modulus (GPa) = -74.71058 24.93710 -24.88674
#
# Velocity S-wave (km/s) = -6.27869 3.62745 -3.62378
# Velocity P-wave (km/s) = 4.10782 8.28887 5.09073
#
# Compressibility (1/GPa) = 0.01478525
#
# Stress axis : x y z
#
# Youngs Moduli (GPa) = 41.10249 114.23998 97.20940
#
# Poissons Ratio (x) = 0.31083 0.78678
# Poissons Ratio (y) = 0.11183 0.33808
# Poissons Ratio (z) = 0.33267 0.39731
#
# Static dielectric constant tensor:
#      x y z
#    x 1.636020 0.000000 0.000000 
#    y 0.000000 1.602960 0.000000 
#    z 0.000000 0.000000 1.676680 
# 
# From -- ./inp_files/36110.got.cif
#   From: 2010.05.17/outbox.cif.g08.bks.cpg/sg65_19_cif.got.tgz:36110.got - 2010.06.03 17:01:31.
