data_PCOD9493299
_publ_section_title
;
Structure prediction by ZEFSAII (Michael W. Deem and Ramdas Pophale) SiO2 
 PCOD9493299
Probable space group: C M M M
;
_chemical_formula_sum "Si O2"
_cell_formula_units_Z 72
_cell_length_a 17.359164
_cell_length_b 15.881859
_cell_length_c 15.031449
_cell_angle_alpha 90.000000
_cell_angle_beta 90.000000
_cell_angle_gamma 90.000000
_cell_volume 4144.107282
_symmetry_space_group_name_H-M "C M M M"
_symmetry_group_IT_number 65
_symmetry_cell_setting 'orthorhombic'
loop_
_space_group_symop_operation_xyz
x,y,z
-x,-y,z
x,-y,-z
-x,y,-z
-x,-y,-z
x,y,-z
-x,y,z
x,-y,z
1/2+x,1/2+y,z
1/2-x,1/2-y,z
1/2+x,1/2-y,-z
1/2-x,1/2+y,-z
1/2-x,1/2-y,-z
1/2+x,1/2+y,-z
1/2-x,1/2+y,z
1/2+x,1/2-y,z
loop_
_atom_site_type_symbol
_atom_site_label
_atom_site_fract_x
_atom_site_fract_y
_atom_site_fract_z
Si Si1 0.500000 0.900918 0.103600
Si Si2 0.830307 0.097511 0.607854
Si Si3 0.146104 0.695861 0.142240
Si Si4 0.500000 0.601760 0.398913
Si Si5 0.250000 0.250000 0.300444
Si Si6 0.409497 0.330672 0.000000
Si Si7 0.752299 0.402533 0.000000
O O1 0.423949 0.868278 0.150655
O O2 0.500000 0.000000 0.099776
O O3 0.500000 0.869843 0.000000
O O4 0.832176 0.098032 0.500000
O O5 0.772687 0.167999 0.643020
O O6 0.916792 0.121927 0.641065
O O7 0.814070 0.000000 0.634551
O O8 0.180872 0.726135 0.234051
O O9 0.110689 0.772404 0.085008
O O10 0.211941 0.648588 0.083659
O O11 0.500000 0.500000 0.404847
O O12 0.500000 0.635533 0.500000
O O13 0.340411 0.398493 0.000000
O O14 0.500000 0.355180 0.000000
O O15 0.778261 0.500000 0.000000
#
# Coordination Sequence:
#
# PCOD9493299 Si02
#       7
#     8  16  16   8   8   8   8
#     4  11  20  33  58  80  99 143 197 236 269 315
#     4   9  19  37  59  83 110 143 184 224 270 336
#     4  11  20  36  52  78 108 139 183 234 272 321
#     4   7  12  29  56  78  99 131 175 221 256 308
#     4  12  23  33  56  82 118 148 174 225 295 330
#     4  11  19  38  58  70 106 150 185 220 268 325
#     4  11  21  35  55  75 105 144 183 223 278 336
#
# _framework density 17.374068000000001
#
# number of rings (size 3 to 8) (size 9 to 14) (size 15 to 20)
#    0.000    1.778    5.556    3.000    0.000    2.889 
#    0.000    0.000    0.000    0.000    0.000    0.000 
#    0.000    8.000    0.000    0.000    0.000    0.000 
#
# Total GULP energy -200588.290675 kJ/mol
# GULP energy per Si atom -5571.896963 kJ/mol
# Density = 1.733452 g / cm^3
# Si number density = 17.374068 Si / 1000 Ang^3
#
#
#
# Elastic Constant Matrix: (Units=GPa)
#
#
# Indices 1 2 3 4 5 6 
#
# 1 115.8877 36.0870 25.3253 0.0000 0.0000 0.0000
# 2 36.0870 84.1973 30.2848 0.0000 0.0000 0.0000
# 3 25.3253 30.2848 41.3342 0.0000 0.0000 0.0000
# 4 0.0000 0.0000 0.0000 12.8598 0.0000 0.0000
# 5 0.0000 0.0000 0.0000 0.0000 13.9638 0.0000
# 6 0.0000 0.0000 0.0000 0.0000 0.0000 15.5712
#
#
#
# Elastic Compliance Matrix: (Units=1/GPa)
#
#
# Indices 1 2 3 4 5 6 
#
# 1 0.010481 -0.002963 -0.004250 0.000000 0.000000 0.000000
# 2 -0.002963 0.016965 -0.010614 0.000000 0.000000 0.000000
# 3 -0.004250 -0.010614 0.034574 0.000000 0.000000 0.000000
# 4 0.000000 0.000000 0.000000 0.077762 0.000000 0.000000
# 5 0.000000 0.000000 0.000000 0.000000 0.071614 0.000000
# 6 0.000000 0.000000 0.000000 0.000000 0.000000 0.064221
#
#
# Mechanical properties :
#
#
# Convention : Reuss Voigt Hill
#
# Bulk Modulus (GPa) = 37.93067 47.20148 42.56607
# Shear Modulus (GPa) = 15.62208 18.46042 17.04125
#
# Velocity S-wave (km/s) = 3.00185 3.26318 3.13524
# Velocity P-wave (km/s) = 5.82186 6.43619 6.13672
#
# Compressibility (1/GPa) = 0.02636389
#
# Stress axis : x y z
#
# Youngs Moduli (GPa) = 95.41434 58.94587 28.92340
#
# Poissons Ratio (x) = 0.17467 0.12293
# Poissons Ratio (y) = 0.28273 0.30700
# Poissons Ratio (z) = 0.40554 0.62566
#
# Static dielectric constant tensor:
#      x y z
#    x 1.649600 0.000000 0.000000 
#    y 0.000000 1.581230 0.000000 
#    z 0.000000 0.000000 1.583430 
# 
# From -- ./inp_files/42234.got.cif
#   From: 2010.05.17/outbox.cif.g08.bks.cpg/sg65_22_cif.got.tgz:42234.got - 2010.06.03 17:01:31.
