data_PCOD9493944
_publ_section_title
;
Structure prediction by ZEFSAII (Michael W. Deem and Ramdas Pophale) SiO2 
 PCOD9493944
Probable space group: C M M M
;
_chemical_formula_sum "Si O2"
_cell_formula_units_Z 72
_cell_length_a 9.303629
_cell_length_b 17.621609
_cell_length_c 24.039754
_cell_angle_alpha 90.000000
_cell_angle_beta 90.000000
_cell_angle_gamma 90.000000
_cell_volume 3941.195367
_symmetry_space_group_name_H-M "C M M M"
_symmetry_group_IT_number 65
_symmetry_cell_setting 'orthorhombic'
loop_
_space_group_symop_operation_xyz
x,y,z
-x,-y,z
x,-y,-z
-x,y,-z
-x,-y,-z
x,y,-z
-x,y,z
x,-y,z
1/2+x,1/2+y,z
1/2-x,1/2-y,z
1/2+x,1/2-y,-z
1/2-x,1/2+y,-z
1/2-x,1/2-y,-z
1/2+x,1/2+y,-z
1/2-x,1/2+y,z
1/2+x,1/2-y,z
loop_
_atom_site_type_symbol
_atom_site_label
_atom_site_fract_x
_atom_site_fract_y
_atom_site_fract_z
Si Si1 0.333280 0.909466 0.000000
Si Si2 0.827247 0.169175 0.898568
Si Si3 0.832260 0.907613 0.561520
Si Si4 0.834421 0.592709 0.670797
Si Si5 0.669739 0.589276 0.219069
O O1 0.247335 0.880648 0.053803
O O2 0.500000 0.882048 0.000000
O O3 0.336129 0.000000 0.000000
O O4 0.750000 0.250000 0.901174
O O5 0.801240 0.133091 0.837869
O O6 0.000000 0.174244 0.907025
O O7 0.781756 0.882992 0.500000
O O8 0.743107 0.880781 0.614517
O O9 0.000000 0.887528 0.567412
O O10 0.825839 0.000000 0.561692
O O11 0.827618 0.500000 0.670571
O O12 0.756462 0.617339 0.727329
O O13 0.000000 0.615037 0.671028
O O14 0.500000 0.594801 0.231308
O O15 0.703118 0.500000 0.210536
#
# Coordination Sequence:
#
# PCOD9493944 Si02
#       5
#     8  16  16  16  16
#     4  11  24  41  62  87 113 141 174 213 256 303
#     4  11  23  39  59  82 110 142 176 215 259 307
#     4   8  13  21  33  50  77 117 161 201 244 298
#     4   9  16  24  37  60  89 121 158 204 255 302
#     4   9  18  33  52  72  96 131 173 212 252 303
#
# _framework density 18.268568999999999
#
# number of rings (size 3 to 8) (size 9 to 14) (size 15 to 20)
#    0.000    2.556    0.000    3.333    0.000    6.667 
#    0.000    4.444    0.000    0.000    0.000    0.000 
#    0.000    0.889    0.000    2.889    0.000    5.778 
#
# Total GULP energy -200785.758238 kJ/mol
# GULP energy per Si atom -5577.382173 kJ/mol
# Density = 1.822699 g / cm^3
# Si number density = 18.268569 Si / 1000 Ang^3
#
#
#
# Elastic Constant Matrix: (Units=GPa)
#
#
# Indices 1 2 3 4 5 6 
#
# 1 111.2730 36.4595 112.5342 0.0000 0.0000 0.0000
# 2 36.4595 35.7456 40.9890 0.0000 0.0000 0.0000
# 3 112.5342 40.9890 190.0079 0.0000 0.0000 0.0000
# 4 0.0000 0.0000 0.0000 -14.9999 0.0000 0.0000
# 5 0.0000 0.0000 0.0000 0.0000 48.6309 0.0000
# 6 0.0000 0.0000 0.0000 0.0000 0.0000 12.1816
#
#
#
# Elastic Compliance Matrix: (Units=1/GPa)
#
#
# Indices 1 2 3 4 5 6 
#
# 1 0.025571 -0.011580 -0.012647 0.000000 0.000000 0.000000
# 2 -0.011580 0.042414 -0.002291 0.000000 0.000000 0.000000
# 3 -0.012647 -0.002291 0.013247 0.000000 0.000000 0.000000
# 4 0.000000 0.000000 0.000000 -0.066667 0.000000 0.000000
# 5 0.000000 0.000000 0.000000 0.000000 0.020563 0.000000
# 6 0.000000 0.000000 0.000000 0.000000 0.000000 0.082091
#
#
# Mechanical properties :
#
#
# Convention : Reuss Voigt Hill
#
# Bulk Modulus (GPa) = 35.46529 79.66577 57.56553
# Shear Modulus (GPa) = 27.83109 18.96546 23.39827
#
# Velocity S-wave (km/s) = 3.90736 3.22552 3.58270
# Velocity P-wave (km/s) = 6.30968 7.58780 6.97807
#
# Compressibility (1/GPa) = 0.02819659
#
# Stress axis : x y z
#
# Youngs Moduli (GPa) = 39.10613 23.57701 75.48635
#
# Poissons Ratio (x) = 0.27303 0.95466
# Poissons Ratio (y) = 0.45286 0.17295
# Poissons Ratio (z) = 0.49457 0.05402
#
# Static dielectric constant tensor:
#      x y z
#    x 1.611410 0.000000 0.000000 
#    y 0.000000 1.615820 0.000000 
#    z 0.000000 0.000000 1.619040 
# 
# From -- ./inp_files/67003.got.cif
#   From: 2010.05.17/outbox.cif.g08.bks.cpg/sg65_34_cif.got.tgz:67003.got - 2010.06.03 17:01:31.
