data_PCOD9493902
_publ_section_title
;
Structure prediction by ZEFSAII (Michael W. Deem and Ramdas Pophale) SiO2 
 PCOD9493902
Probable space group: C M M M
;
_chemical_formula_sum "Si O2"
_cell_formula_units_Z 72
_cell_length_a 19.521168
_cell_length_b 28.314867
_cell_length_c 8.737490
_cell_angle_alpha 90.000000
_cell_angle_beta 90.000000
_cell_angle_gamma 90.000000
_cell_volume 4829.553893
_symmetry_space_group_name_H-M "C M M M"
_symmetry_group_IT_number 65
_symmetry_cell_setting 'orthorhombic'
loop_
_space_group_symop_operation_xyz
x,y,z
-x,-y,z
x,-y,-z
-x,y,-z
-x,-y,-z
x,y,-z
-x,y,z
x,-y,z
1/2+x,1/2+y,z
1/2-x,1/2-y,z
1/2+x,1/2-y,-z
1/2-x,1/2+y,-z
1/2-x,1/2-y,-z
1/2+x,1/2+y,-z
1/2-x,1/2+y,z
1/2+x,1/2-y,z
loop_
_atom_site_type_symbol
_atom_site_label
_atom_site_fract_x
_atom_site_fract_y
_atom_site_fract_z
Si Si1 0.500000 0.154980 0.682921
Si Si2 0.358048 0.727871 0.316136
Si Si3 0.218954 0.324778 0.316092
Si Si4 0.628318 0.098374 0.817640
Si Si5 0.500000 0.259554 0.181344
Si Si6 0.081262 0.500000 0.316038
O O1 0.500000 0.151761 0.500000
O O2 0.565765 0.128898 0.750268
O O3 0.500000 0.208946 0.734599
O O4 0.367632 0.728089 0.500000
O O5 0.295827 0.692364 0.280648
O O6 0.330401 0.780421 0.273685
O O7 0.429258 0.716728 0.234768
O O8 0.213340 0.330170 0.500000
O O9 0.194801 0.372382 0.235457
O O10 0.617967 0.046500 0.748429
O O11 0.624515 0.096325 0.000000
O O12 0.500000 0.253031 0.000000
O O13 0.083488 0.500000 0.500000
O O14 0.000000 0.500000 0.271618
#
# Coordination Sequence:
#
# PCOD9493902 Si02
#       6
#     8  16  16  16   8   8
#     4  12  22  33  47  64  92 132 170 199 234 289
#     4   9  18  32  50  69  93 128 166 198 233 285
#     4   9  18  33  51  69  92 128 166 197 235 289
#     4  12  23  34  50  72  97 123 159 209 252 284
#     4  12  22  30  45  73 100 125 161 206 249 283
#     4  11  23  37  53  69  92 131 168 201 238 284
#
# _framework density 14.908208999999999
#
# number of rings (size 3 to 8) (size 9 to 14) (size 15 to 20)
#    0.000    1.444    3.333    5.667    0.000    1.333 
#    0.000    2.222    0.000    0.000    0.000    0.000 
#    0.000    0.889    0.000    9.333    0.000    4.444 
#
# Total GULP energy -201003.891214 kJ/mol
# GULP energy per Si atom -5583.441423 kJ/mol
# Density = 1.487428 g / cm^3
# Si number density = 14.908209 Si / 1000 Ang^3
#
#
#
# Elastic Constant Matrix: (Units=GPa)
#
#
# Indices 1 2 3 4 5 6 
#
# 1 103.0584 45.5165 46.2409 0.0000 0.0000 0.0000
# 2 45.5165 91.8236 43.6394 0.0000 0.0000 0.0000
# 3 46.2409 43.6394 83.6843 0.0000 0.0000 0.0000
# 4 0.0000 0.0000 0.0000 8.5807 0.0000 0.0000
# 5 0.0000 0.0000 0.0000 0.0000 -3.6119 0.0000
# 6 0.0000 0.0000 0.0000 0.0000 0.0000 21.5505
#
#
#
# Elastic Compliance Matrix: (Units=1/GPa)
#
#
# Indices 1 2 3 4 5 6 
#
# 1 0.014109 -0.004372 -0.005516 0.000000 0.000000 0.000000
# 2 -0.004372 0.015834 -0.005841 0.000000 0.000000 0.000000
# 3 -0.005516 -0.005841 0.018044 0.000000 0.000000 0.000000
# 4 0.000000 0.000000 0.000000 0.116541 0.000000 0.000000
# 5 0.000000 0.000000 0.000000 0.000000 -0.276865 0.000000
# 6 0.000000 0.000000 0.000000 0.000000 0.000000 0.046403
#
#
# Mechanical properties :
#
#
# Convention : Reuss Voigt Hill
#
# Bulk Modulus (GPa) = 60.50439 61.03999 60.77219
# Shear Modulus (GPa) = -172.61668 14.84848 -78.88410
#
# Velocity S-wave (km/s) = -10.77208 3.15936 -7.28204
# Velocity P-wave (km/s) = 10.67915 7.37167 5.46364
#
# Compressibility (1/GPa) = 0.01652773
#
# Stress axis : x y z
#
# Youngs Moduli (GPa) = 70.87479 63.15640 55.42106
#
# Poissons Ratio (x) = 0.27614 0.30572
# Poissons Ratio (y) = 0.30989 0.32371
# Poissons Ratio (z) = 0.39096 0.36889
#
# Static dielectric constant tensor:
#      x y z
#    x 1.539500 0.000000 0.000000 
#    y 0.000000 1.481980 0.000000 
#    z 0.000000 0.000000 1.492180 
# 
# From -- ./inp_files/9533.got.cif
#   From: 2010.05.17/outbox.cif.g08.bks.cpg/sg65_5_cif.got.tgz:9533.got - 2010.06.03 17:01:31.
