data_PCOD9493958
_publ_section_title
;
Structure prediction by ZEFSAII (Michael W. Deem and Ramdas Pophale) SiO2 
 PCOD9493958
Probable space group: C M M M
;
_chemical_formula_sum "Si O2"
_cell_formula_units_Z 48
_cell_length_a 8.878254
_cell_length_b 34.283781
_cell_length_c 7.925641
_cell_angle_alpha 90.000000
_cell_angle_beta 90.000000
_cell_angle_gamma 90.000000
_cell_volume 2412.407525
_symmetry_space_group_name_H-M "C M M M"
_symmetry_group_IT_number 65
_symmetry_cell_setting 'orthorhombic'
loop_
_space_group_symop_operation_xyz
x,y,z
-x,-y,z
x,-y,-z
-x,y,-z
-x,-y,-z
x,y,-z
-x,y,z
x,-y,z
1/2+x,1/2+y,z
1/2-x,1/2-y,z
1/2+x,1/2-y,-z
1/2-x,1/2+y,-z
1/2-x,1/2-y,-z
1/2+x,1/2+y,-z
1/2-x,1/2+y,z
1/2+x,1/2-y,z
loop_
_atom_site_type_symbol
_atom_site_label
_atom_site_fract_x
_atom_site_fract_y
_atom_site_fract_z
Si Si1 0.679353 0.159822 0.809250
Si Si2 0.325845 0.000000 0.202774
Si Si3 0.179905 0.792964 0.500000
Si Si4 0.674696 0.418814 0.299610
O O1 0.500000 0.162373 0.782891
O O2 0.763089 0.184271 0.665760
O O3 0.731720 0.115067 0.790219
O O4 0.713550 0.173182 0.000000
O O5 0.243199 0.038823 0.265110
O O6 0.500000 0.000000 0.258758
O O7 0.323046 0.000000 0.000000
O O8 0.250000 0.750000 0.500000
O O9 0.000000 0.791339 0.500000
O O10 0.680581 0.411204 0.500000
O O11 0.500000 0.417539 0.246322
#
# Coordination Sequence:
#
# PCOD9493958 Si02
#       4
#    16   8   8  16
#     4  11  24  43  69 100 134 174 219 268 324 388
#     4  11  24  39  56  84 122 167 220 274 326 382
#     4  12  26  46  72 101 134 173 214 266 326 388
#     4  11  23  39  61  91 126 168 217 270 326 385
#
# _framework density 19.897137000000001
#
# number of rings (size 3 to 8) (size 9 to 14) (size 15 to 20)
#    0.000    0.833    1.667    5.500    0.000   12.667 
#    0.000    0.000    0.000    0.000    0.000    0.000 
#    0.000    0.000    0.000    0.000    0.000    0.000 
#
# Total GULP energy -134346.993537 kJ/mol
# GULP energy per Si atom -5597.791397 kJ/mol
# Density = 1.985185 g / cm^3
# Si number density = 19.897137 Si / 1000 Ang^3
#
#
#
# Elastic Constant Matrix: (Units=GPa)
#
#
# Indices 1 2 3 4 5 6 
#
# 1 146.3541 55.0230 82.0388 0.0000 0.0000 0.0000
# 2 55.0230 133.4233 58.1816 0.0000 0.0000 0.0000
# 3 82.0388 58.1816 124.4164 0.0000 0.0000 0.0000
# 4 0.0000 0.0000 0.0000 -5.2844 0.0000 0.0000
# 5 0.0000 0.0000 0.0000 0.0000 2560.7175 0.0000
# 6 0.0000 0.0000 0.0000 0.0000 0.0000 41.4960
#
#
#
# Elastic Compliance Matrix: (Units=1/GPa)
#
#
# Indices 1 2 3 4 5 6 
#
# 1 0.011155 -0.001750 -0.006537 0.000000 0.000000 0.000000
# 2 -0.001750 0.009689 -0.003377 0.000000 0.000000 0.000000
# 3 -0.006537 -0.003377 0.013928 0.000000 0.000000 0.000000
# 4 0.000000 0.000000 0.000000 -0.189235 0.000000 0.000000
# 5 0.000000 0.000000 0.000000 0.000000 0.000391 0.000000
# 6 0.000000 0.000000 0.000000 0.000000 0.000000 0.024099
#
#
# Mechanical properties :
#
#
# Convention : Reuss Voigt Hill
#
# Bulk Modulus (GPa) = 87.38788 88.29785 87.84287
# Shear Modulus (GPa) = -48.62344 533.31584 242.34620
#
# Velocity S-wave (km/s) = -4.94878 16.38958 11.04826
# Velocity P-wave (km/s) = 3.37064 20.06567 14.38736
#
# Compressibility (1/GPa) = 0.01144323
#
# Stress axis : x y z
#
# Youngs Moduli (GPa) = 89.64586 103.20747 71.80000
#
# Poissons Ratio (x) = 0.18057 0.46938
# Poissons Ratio (y) = 0.15684 0.24250
# Poissons Ratio (z) = 0.58605 0.34857
#
# Static dielectric constant tensor:
#      x y z
#    x 1.669230 0.000000 0.000000 
#    y 0.000000 1.664010 0.000000 
#    z 0.000000 0.000000 1.704090 
# 
# From -- ./inp_files/3108.got.cif
#   From: 2010.05.17/outbox.cif.g08.bks.cpg/sg65_2_cif.got.tgz:3108.got - 2010.06.03 17:01:31.
