data_PCOD9493017
_publ_section_title
;
Structure prediction by ZEFSAII (Michael W. Deem and Ramdas Pophale) SiO2 
 PCOD9493017
Probable space group: C M M M
;
_chemical_formula_sum "Si O2"
_cell_formula_units_Z 64
_cell_length_a 26.641221
_cell_length_b 15.166847
_cell_length_c 8.569034
_cell_angle_alpha 90.000000
_cell_angle_beta 90.000000
_cell_angle_gamma 90.000000
_cell_volume 3462.432351
_symmetry_space_group_name_H-M "C M M M"
_symmetry_group_IT_number 65
_symmetry_cell_setting 'orthorhombic'
loop_
_space_group_symop_operation_xyz
x,y,z
-x,-y,z
x,-y,-z
-x,y,-z
-x,-y,-z
x,y,-z
-x,y,z
x,-y,z
1/2+x,1/2+y,z
1/2-x,1/2-y,z
1/2+x,1/2-y,-z
1/2-x,1/2+y,-z
1/2-x,1/2-y,-z
1/2+x,1/2+y,-z
1/2-x,1/2+y,z
1/2+x,1/2-y,z
loop_
_atom_site_type_symbol
_atom_site_label
_atom_site_fract_x
_atom_site_fract_y
_atom_site_fract_z
Si Si1 0.330469 0.500000 0.312368
Si Si2 0.056439 0.500000 0.189734
Si Si3 0.606756 0.664610 0.812313
Si Si4 0.362098 0.858831 0.188478
Si Si5 0.714421 0.000000 0.686668
Si Si6 0.500000 0.396017 0.687397
O O1 0.332891 0.500000 0.500000
O O2 0.359145 0.585398 0.249291
O O3 0.272298 0.500000 0.263129
O O4 0.088716 0.585103 0.235512
O O5 0.000000 0.500000 0.249390
O O6 0.054456 0.500000 0.000000
O O7 0.630187 0.758303 0.761950
O O8 0.550373 0.649386 0.750785
O O9 0.605321 0.663138 0.000000
O O10 0.315094 0.913720 0.252829
O O11 0.358835 0.860924 0.000000
O O12 0.712684 0.000000 0.500000
O O13 0.500000 0.500000 0.733748
O O14 0.500000 0.392819 0.500000
#
# Coordination Sequence:
#
# PCOD9493017 Si02
#       6
#     8   8  16  16   8   8
#     4  11  24  41  59  83 116 155 198 242 294 351
#     4   8  14  28  53  79 108 145 180 222 281 338
#     4  11  23  38  61  90 117 152 198 245 291 344
#     4   9  20  37  58  86 117 149 190 243 293 341
#     4  10  22  40  62  84 114 156 195 239 292 353
#     4  11  23  39  59  84 122 163 192 234 293 349
#
# _framework density 18.484116
#
# number of rings (size 3 to 8) (size 9 to 14) (size 15 to 20)
#    0.000    2.000    1.250    2.625    1.750    5.500 
#    0.000    5.000    0.000    1.500    0.000    0.000 
#    0.000    0.000    0.000    0.000    0.000    0.000 
#
# Total GULP energy -178682.305986 kJ/mol
# GULP energy per Si atom -5583.822062 kJ/mol
# Density = 1.844205 g / cm^3
# Si number density = 18.484116 Si / 1000 Ang^3
#
#
#
# Elastic Constant Matrix: (Units=GPa)
#
#
# Indices 1 2 3 4 5 6 
#
# 1 192.4407 101.9110 38.2467 0.0000 0.0000 0.0000
# 2 101.9110 195.8856 39.0981 0.0000 0.0000 0.0000
# 3 38.2467 39.0981 36.9498 0.0000 0.0000 0.0000
# 4 0.0000 0.0000 0.0000 10.3295 0.0000 0.0000
# 5 0.0000 0.0000 0.0000 0.0000 32.9288 0.0000
# 6 0.0000 0.0000 0.0000 0.0000 0.0000 -15.6502
#
#
#
# Elastic Compliance Matrix: (Units=1/GPa)
#
#
# Indices 1 2 3 4 5 6 
#
# 1 0.007787 -0.003096 -0.004784 0.000000 0.000000 0.000000
# 2 -0.003096 0.007703 -0.004946 0.000000 0.000000 0.000000
# 3 -0.004784 -0.004946 0.037249 0.000000 0.000000 0.000000
# 4 0.000000 0.000000 0.000000 0.096810 0.000000 0.000000
# 5 0.000000 0.000000 0.000000 0.000000 0.030369 0.000000
# 6 0.000000 0.000000 0.000000 0.000000 0.000000 -0.063897
#
#
# Mechanical properties :
#
#
# Convention : Reuss Voigt Hill
#
# Bulk Modulus (GPa) = 36.91840 87.08750 62.00295
# Shear Modulus (GPa) = 33.17814 21.92298 27.55056
#
# Velocity S-wave (km/s) = 4.24129 3.44764 3.86489
# Velocity P-wave (km/s) = 6.63333 7.94137 7.31664
#
# Compressibility (1/GPa) = 0.02708677
#
# Stress axis : x y z
#
# Youngs Moduli (GPa) = 128.42052 129.81757 26.84633
#
# Poissons Ratio (x) = 0.40196 0.12843
# Poissons Ratio (y) = 0.39764 0.13278
# Poissons Ratio (z) = 0.61434 0.64207
#
# Static dielectric constant tensor:
#      x y z
#    x 1.612710 0.000000 0.000000 
#    y 0.000000 1.631800 0.000000 
#    z 0.000000 0.000000 1.628220 
# 
# From -- ./inp_files/13420.got.cif
#   From: 2010.05.17/outbox.cif.g08.bks.cpg/sg65_7_cif.got.tgz:13420.got - 2010.06.03 17:01:31.
