data_PCOD9493235
_publ_section_title
;
Structure prediction by ZEFSAII (Michael W. Deem and Ramdas Pophale) SiO2 
 PCOD9493235
Probable space group: C M M M
;
_chemical_formula_sum "Si O2"
_cell_formula_units_Z 100
_cell_length_a 8.894312
_cell_length_b 26.916657
_cell_length_c 23.188898
_cell_angle_alpha 90.000000
_cell_angle_beta 90.000000
_cell_angle_gamma 90.000000
_cell_volume 5551.541496
_symmetry_space_group_name_H-M "C M M M"
_symmetry_group_IT_number 65
_symmetry_cell_setting 'orthorhombic'
loop_
_space_group_symop_operation_xyz
x,y,z
-x,-y,z
x,-y,-z
-x,y,-z
-x,-y,-z
x,y,-z
-x,y,z
x,-y,z
1/2+x,1/2+y,z
1/2-x,1/2-y,z
1/2+x,1/2-y,-z
1/2-x,1/2+y,-z
1/2-x,1/2-y,-z
1/2+x,1/2+y,-z
1/2-x,1/2+y,z
1/2+x,1/2-y,z
loop_
_atom_site_type_symbol
_atom_site_label
_atom_site_fract_x
_atom_site_fract_y
_atom_site_fract_z
Si Si1 0.322808 0.699021 0.778498
Si Si2 0.823490 0.057400 0.179040
Si Si3 0.750000 0.250000 0.593322
Si Si4 0.319310 0.556784 0.315938
Si Si5 0.675167 0.154488 0.328199
Si Si6 0.000000 0.775533 0.500000
Si Si7 0.319327 0.694225 0.000000
Si Si8 0.678926 0.852849 0.886173
O O1 0.500000 0.702287 0.787846
O O2 0.250000 0.750000 0.758699
O O3 0.282625 0.662502 0.726800
O O4 0.237420 0.683596 0.836117
O O5 0.782374 0.059228 0.247018
O O6 0.728716 0.093600 0.138584
O O7 0.000000 0.072151 0.175191
O O8 0.810206 0.000000 0.161231
O O9 0.694502 0.202796 0.631305
O O10 0.627074 0.272397 0.550906
O O11 0.500000 0.563498 0.321198
O O12 0.284566 0.500000 0.334221
O O13 0.230688 0.600257 0.349297
O O14 0.500000 0.151784 0.311212
O O15 0.250000 0.750000 0.000000
O O16 0.260552 0.664383 0.055743
O O17 0.500000 0.697660 0.000000
O O18 0.500000 0.849916 0.892989
#
# Coordination Sequence:
#
# PCOD9493235 Si02
#       8
#    16  16   8  16  16   4   8  16
#     4  12  24  37  55  83 122 158 197 245 311 363
#     4   9  18  35  58  84 118 159 199 243 301 364
#     4  11  24  42  64  92 128 167 214 256 300 367
#     4   9  19  35  57  87 126 169 208 250 310 374
#     4  12  23  35  58  94 127 162 202 257 307 363
#     4  10  24  46  64  86 126 178 212 246 306 360
#     4  12  26  46  67  84 111 152 204 247 299 365
#     4  12  24  40  60  87 117 154 199 250 303 369
#
# _framework density 18.013013999999998
#
# number of rings (size 3 to 8) (size 9 to 14) (size 15 to 20)
#    0.000    1.120    3.200    5.520    2.240    0.640 
#    0.000    2.000    0.000    2.400    0.000    3.360 
#    0.000    0.000    0.000    0.000    0.000    0.000 
#
# Total GULP energy -278441.894447 kJ/mol
# GULP energy per Si atom -5568.837889 kJ/mol
# Density = 1.797202 g / cm^3
# Si number density = 18.013014 Si / 1000 Ang^3
#
#
#
# Elastic Constant Matrix: (Units=GPa)
#
#
# Indices 1 2 3 4 5 6 
#
# 1 114.8399 29.0274 12.4200 0.0000 0.0000 0.0000
# 2 29.0274 112.1414 10.8228 0.0000 0.0000 0.0000
# 3 12.4200 10.8228 50.3461 0.0000 0.0000 0.0000
# 4 0.0000 0.0000 0.0000 -0.2798 0.0000 0.0000
# 5 0.0000 0.0000 0.0000 0.0000 31.1202 0.0000
# 6 0.0000 0.0000 0.0000 0.0000 0.0000 -67.4597
#
#
#
# Elastic Compliance Matrix: (Units=1/GPa)
#
#
# Indices 1 2 3 4 5 6 
#
# 1 0.009483 -0.002276 -0.001850 0.000000 0.000000 0.000000
# 2 -0.002276 0.009653 -0.001513 0.000000 0.000000 0.000000
# 3 -0.001850 -0.001513 0.020644 0.000000 0.000000 0.000000
# 4 0.000000 0.000000 0.000000 -3.573442 0.000000 0.000000
# 5 0.000000 0.000000 0.000000 0.000000 0.032133 0.000000
# 6 0.000000 0.000000 0.000000 0.000000 0.000000 -0.014824
#
#
# Mechanical properties :
#
#
# Convention : Reuss Voigt Hill
#
# Bulk Modulus (GPa) = 35.08707 42.42975 38.75841
# Shear Modulus (GPa) = -1.43038 7.67996 3.12479
#
# Velocity S-wave (km/s) = -0.89208 2.06708 1.31852
# Velocity P-wave (km/s) = 4.29650 5.41325 4.88688
#
# Compressibility (1/GPa) = 0.02850053
#
# Stress axis : x y z
#
# Youngs Moduli (GPa) = 105.44975 103.59954 48.43956
#
# Poissons Ratio (x) = 0.23581 0.08962
# Poissons Ratio (y) = 0.24002 0.07331
# Poissons Ratio (z) = 0.19510 0.15680
#
# Static dielectric constant tensor:
#      x y z
#    x 1.614630 0.000000 0.000000 
#    y 0.000000 1.658570 0.000000 
#    z 0.000000 0.000000 1.591400 
# 
# From -- ./inp_files/60468.got.cif
#   From: 2010.05.17/outbox.cif.g08.bks.cpg/sg65_31_cif.got.tgz:60468.got - 2010.06.03 17:01:31.
