data_PCOD9493255
_publ_section_title
;
Structure prediction by ZEFSAII (Michael W. Deem and Ramdas Pophale) SiO2 
 PCOD9493255
Probable space group: C M M M
;
_chemical_formula_sum "Si O2"
_cell_formula_units_Z 60
_cell_length_a 15.003475
_cell_length_b 10.117071
_cell_length_c 18.024699
_cell_angle_alpha 90.000000
_cell_angle_beta 90.000000
_cell_angle_gamma 90.000000
_cell_volume 2735.991084
_symmetry_space_group_name_H-M "C M M M"
_symmetry_group_IT_number 65
_symmetry_cell_setting 'orthorhombic'
loop_
_space_group_symop_operation_xyz
x,y,z
-x,-y,z
x,-y,-z
-x,y,-z
-x,-y,-z
x,y,-z
-x,y,z
x,-y,z
1/2+x,1/2+y,z
1/2-x,1/2-y,z
1/2+x,1/2-y,-z
1/2-x,1/2+y,-z
1/2-x,1/2-y,-z
1/2+x,1/2+y,-z
1/2-x,1/2+y,z
1/2+x,1/2-y,z
loop_
_atom_site_type_symbol
_atom_site_label
_atom_site_fract_x
_atom_site_fract_y
_atom_site_fract_z
Si Si1 0.162750 0.500000 0.621739
Si Si2 0.638632 0.749485 0.000000
Si Si3 0.099343 0.756554 0.309430
Si Si4 0.000000 0.500000 0.500000
Si Si5 0.136446 0.000000 0.583522
Si Si6 0.667918 0.650052 0.845380
Si Si7 0.500000 0.000000 0.000000
O O1 0.161061 0.367776 0.671717
O O2 0.256854 0.500000 0.581230
O O3 0.079755 0.500000 0.564928
O O4 0.750000 0.750000 0.000000
O O5 0.617567 0.677348 0.922495
O O6 0.580473 0.883873 0.000000
O O7 0.114523 0.820581 0.229443
O O8 0.000000 0.701707 0.311739
O O9 0.108399 0.870028 0.371229
O O10 0.101605 0.000000 0.500000
O O11 0.700077 0.500000 0.845049
O O12 0.750000 0.750000 0.842673
#
# Coordination Sequence:
#
# PCOD9493255 Si02
#       7
#     8   8  16   2   8  16   2
#     4  12  26  48  72 102 134 190 242 307 378 444
#     4  10  27  48  85 117 162 208 271 330 402 479
#     4  12  27  46  68 105 147 193 245 312 370 454
#     4  12  24  48  74 106 142 166 260 310 368 454
#     4  12  27  44  73 101 139 186 241 301 385 457
#     4  11  25  47  77 112 156 205 259 323 392 467
#     4  12  28  52  80 134 160 224 268 344 404 496
#
# _framework density 21.929894999999998
#
# number of rings (size 3 to 8) (size 9 to 14) (size 15 to 20)
#    0.000    0.533    3.333    3.200   13.067    2.133 
#    0.000    0.667    0.000    0.000    0.000    0.000 
#    0.000    0.000    0.000    0.000    0.000    0.000 
#
# Total GULP energy -167148.736534 kJ/mol
# GULP energy per Si atom -5571.624551 kJ/mol
# Density = 2.187998 g / cm^3
# Si number density = 21.929895 Si / 1000 Ang^3
#
#
#
# Elastic Constant Matrix: (Units=GPa)
#
#
# Indices 1 2 3 4 5 6 
#
# 1 99.7338 10.1455 13.7233 0.0000 0.0000 0.0000
# 2 10.1455 174.5718 58.4328 0.0000 0.0000 0.0000
# 3 13.7233 58.4328 199.9313 0.0000 0.0000 0.0000
# 4 0.0000 0.0000 0.0000 19.8447 0.0000 0.0000
# 5 0.0000 0.0000 0.0000 0.0000 -7.5327 0.0000
# 6 0.0000 0.0000 0.0000 0.0000 0.0000 36.5614
#
#
#
# Elastic Compliance Matrix: (Units=1/GPa)
#
#
# Indices 1 2 3 4 5 6 
#
# 1 0.010147 -0.000395 -0.000581 0.000000 0.000000 0.000000
# 2 -0.000395 0.006365 -0.001833 0.000000 0.000000 0.000000
# 3 -0.000581 -0.001833 0.005577 0.000000 0.000000 0.000000
# 4 0.000000 0.000000 0.000000 0.050391 0.000000 0.000000
# 5 0.000000 0.000000 0.000000 0.000000 -0.132755 0.000000
# 6 0.000000 0.000000 0.000000 0.000000 0.000000 0.027351
#
#
# Mechanical properties :
#
#
# Convention : Reuss Voigt Hill
#
# Bulk Modulus (GPa) = 60.71482 70.98224 65.84853
# Shear Modulus (GPa) = -229.20300 35.90370 -96.64965
#
# Velocity S-wave (km/s) = -10.23441 4.05063 -6.64588
# Velocity P-wave (km/s) = 10.57882 7.36986 5.36641
#
# Compressibility (1/GPa) = 0.01647044
#
# Stress axis : x y z
#
# Youngs Moduli (GPa) = 98.55283 157.11301 179.29687
#
# Poissons Ratio (x) = 0.06210 0.10417
# Poissons Ratio (y) = 0.03895 0.32867
# Poissons Ratio (z) = 0.05726 0.28800
#
# Static dielectric constant tensor:
#      x y z
#    x 1.837850 0.000000 0.000000 
#    y 0.000000 1.650250 0.000000 
#    z 0.000000 0.000000 1.816400 
# 
# From -- ./inp_files/53998.got.cif
#   From: 2010.05.17/outbox.cif.g08.bks.cpg/sg65_27_cif.got.tgz:53998.got - 2010.06.03 17:01:31.
