data_PCOD9493601
_publ_section_title
;
Structure prediction by ZEFSAII (Michael W. Deem and Ramdas Pophale) SiO2 
 PCOD9493601
Probable space group: C M M M
;
_chemical_formula_sum "Si O2"
_cell_formula_units_Z 104
_cell_length_a 18.893168
_cell_length_b 19.668443
_cell_length_c 14.853898
_cell_angle_alpha 90.000000
_cell_angle_beta 90.000000
_cell_angle_gamma 90.000000
_cell_volume 5519.696582
_symmetry_space_group_name_H-M "C M M M"
_symmetry_group_IT_number 65
_symmetry_cell_setting 'orthorhombic'
loop_
_space_group_symop_operation_xyz
x,y,z
-x,-y,z
x,-y,-z
-x,y,-z
-x,-y,-z
x,y,-z
-x,y,z
x,-y,z
1/2+x,1/2+y,z
1/2-x,1/2-y,z
1/2+x,1/2-y,-z
1/2-x,1/2+y,-z
1/2-x,1/2-y,-z
1/2+x,1/2+y,-z
1/2-x,1/2+y,z
1/2+x,1/2-y,z
loop_
_atom_site_type_symbol
_atom_site_label
_atom_site_fract_x
_atom_site_fract_y
_atom_site_fract_z
Si Si1 0.418527 0.733979 0.396470
Si Si2 0.920945 0.582668 0.895037
Si Si3 0.415347 0.419113 0.101407
Si Si4 0.085171 0.000000 0.391559
Si Si5 0.345547 0.374086 0.717679
Si Si6 0.420179 0.102642 0.395702
Si Si7 0.808219 0.422946 0.752830
O O1 0.401907 0.715445 0.500000
O O2 0.500000 0.712807 0.379137
O O3 0.367809 0.695761 0.328741
O O4 0.415943 0.815330 0.389956
O O5 0.921028 0.500000 0.888748
O O6 0.856752 0.606597 0.833007
O O7 0.000000 0.605471 0.866306
O O8 0.911883 0.599909 0.000000
O O9 0.500000 0.410255 0.108060
O O10 0.401375 0.500000 0.110936
O O11 0.377880 0.381472 0.182787
O O12 0.393488 0.399022 0.000000
O O13 0.120430 0.934286 0.344043
O O14 0.096376 0.000000 0.500000
O O15 0.000000 0.000000 0.375651
O O16 0.261814 0.383119 0.726709
O O17 0.410302 0.084027 0.500000
O O18 0.500000 0.082548 0.368995
O O19 0.361058 0.074030 0.331286
O O20 0.785908 0.500000 0.777595
#
# Coordination Sequence:
#
# PCOD9493601 Si02
#       7
#    16  16  16   8  16  16  16
#     4   9  19  37  59  78  97 133 187 234 267 307
#     4   8  15  30  53  77 101 134 176 219 261 310
#     4   9  17  30  49  72 101 140 183 221 256 305
#     4  11  22  34  49  71 102 141 181 221 259 298
#     4  12  21  33  50  78 111 143 175 215 269 316
#     4   9  20  39  59  77  99 134 182 227 266 316
#     4  11  22  34  49  80 116 144 170 208 268 329
#
# _framework density 18.841615999999998
#
# number of rings (size 3 to 8) (size 9 to 14) (size 15 to 20)
#    0.000    2.231    1.538    4.154    0.000    4.923 
#    0.000    3.846    0.000    0.923    0.000    6.462 
#    0.000    0.000    0.000    0.000    0.000    0.000 
#
# Total GULP energy -290277.724537 kJ/mol
# GULP energy per Si atom -5582.263933 kJ/mol
# Density = 1.879873 g / cm^3
# Si number density = 18.841616 Si / 1000 Ang^3
#
#
#
# Elastic Constant Matrix: (Units=GPa)
#
#
# Indices 1 2 3 4 5 6 
#
# 1 121.3129 29.8833 74.3094 0.0000 0.0000 0.0000
# 2 29.8833 38.8833 25.0998 0.0000 0.0000 0.0000
# 3 74.3094 25.0998 107.7872 0.0000 0.0000 0.0000
# 4 0.0000 0.0000 0.0000 -17.1743 0.0000 0.0000
# 5 0.0000 0.0000 0.0000 0.0000 -38.9297 0.0000
# 6 0.0000 0.0000 0.0000 0.0000 0.0000 -34.7854
#
#
#
# Elastic Compliance Matrix: (Units=1/GPa)
#
#
# Indices 1 2 3 4 5 6 
#
# 1 0.015315 -0.005831 -0.009201 0.000000 0.000000 0.000000
# 2 -0.005831 0.032488 -0.003545 0.000000 0.000000 0.000000
# 3 -0.009201 -0.003545 0.016446 0.000000 0.000000 0.000000
# 4 0.000000 0.000000 0.000000 -0.058227 0.000000 0.000000
# 5 0.000000 0.000000 0.000000 0.000000 -0.025687 0.000000
# 6 0.000000 0.000000 0.000000 0.000000 0.000000 -0.028748
#
#
# Mechanical properties :
#
#
# Convention : Reuss Voigt Hill
#
# Bulk Modulus (GPa) = 36.90682 58.50760 47.70721
# Shear Modulus (GPa) = -2246.03555 -8.93182 -1127.48369
#
# Velocity S-wave (km/s) = -34.56369 -2.17963 -24.48877
# Velocity P-wave (km/s) = 39.66402 4.97849 27.82489
#
# Compressibility (1/GPa) = 0.02709526
#
# Stress axis : x y z
#
# Youngs Moduli (GPa) = 65.29384 30.78059 60.80473
#
# Poissons Ratio (x) = 0.17949 0.55944
# Poissons Ratio (y) = 0.38075 0.21556
# Poissons Ratio (z) = 0.60075 0.10912
#
# Static dielectric constant tensor:
#      x y z
#    x 1.639780 0.000000 0.000000 
#    y 0.000000 1.661590 0.000000 
#    z 0.000000 0.000000 1.651630 
# 
# From -- ./inp_files/42888.got.cif
#   From: 2010.05.17/outbox.cif.g08.bks.cpg/sg65_22_cif.got.tgz:42888.got - 2010.06.03 17:01:31.
