data_PCOD9493603
_publ_section_title
;
Structure prediction by ZEFSAII (Michael W. Deem and Ramdas Pophale) SiO2 
 PCOD9493603
Probable space group: C M M M
;
_chemical_formula_sum "Si O2"
_cell_formula_units_Z 88
_cell_length_a 7.800818
_cell_length_b 18.882573
_cell_length_c 31.369776
_cell_angle_alpha 90.000000
_cell_angle_beta 90.000000
_cell_angle_gamma 90.000000
_cell_volume 4620.752801
_symmetry_space_group_name_H-M "C M M M"
_symmetry_group_IT_number 65
_symmetry_cell_setting 'orthorhombic'
loop_
_space_group_symop_operation_xyz
x,y,z
-x,-y,z
x,-y,-z
-x,y,-z
-x,-y,-z
x,y,-z
-x,y,z
x,-y,z
1/2+x,1/2+y,z
1/2-x,1/2-y,z
1/2+x,1/2-y,-z
1/2-x,1/2+y,-z
1/2-x,1/2-y,-z
1/2+x,1/2+y,-z
1/2-x,1/2+y,z
1/2+x,1/2-y,z
loop_
_atom_site_type_symbol
_atom_site_label
_atom_site_fract_x
_atom_site_fract_y
_atom_site_fract_z
Si Si1 0.294745 0.919885 0.294669
Si Si2 0.500000 0.413534 0.549001
Si Si3 0.796714 0.832121 0.211621
Si Si4 0.289683 0.581583 0.870422
Si Si5 0.302726 0.086295 0.611027
Si Si6 0.206378 0.831876 0.952282
O O1 0.500000 0.924857 0.298284
O O2 0.255604 0.869263 0.255545
O O3 0.238422 0.893993 0.341471
O O4 0.228184 0.000000 0.286874
O O5 0.500000 0.500000 0.548959
O O6 0.500000 0.390349 0.500000
O O7 0.330720 0.391129 0.574988
O O8 0.750000 0.750000 0.210368
O O9 0.727937 0.874494 0.170578
O O10 0.000000 0.837083 0.209190
O O11 0.500000 0.582804 0.870530
O O12 0.237310 0.500000 0.867822
O O13 0.231587 0.618623 0.914132
O O14 0.500000 0.109637 0.604365
O O15 0.305912 0.000000 0.611335
O O16 0.250000 0.750000 0.943530
O O17 0.000000 0.837671 0.953287
O O18 0.270529 0.849267 0.000000
#
# Coordination Sequence:
#
# PCOD9493603 Si02
#       6
#    16   8  16  16  16  16
#     4   9  18  33  52  73  98 130 168 210 254 306
#     4   9  16  24  38  64  98 136 176 214 254 310
#     4  11  22  34  50  71  98 132 164 207 256 307
#     4   9  18  32  49  72  99 125 163 209 252 303
#     4   8  15  27  42  63  94 132 170 212 260 307
#     4   9  17  30  50  73  97 128 163 203 251 302
#
# _framework density 19.044515000000001
#
# number of rings (size 3 to 8) (size 9 to 14) (size 15 to 20)
#    0.000    2.818    0.000    2.727    1.273    1.818 
#    0.000    4.545    0.000    2.727    0.000    2.545 
#    0.000    0.727    0.364    0.000    0.000    0.000 
#
# Total GULP energy -245381.185008 kJ/mol
# GULP energy per Si atom -5576.845114 kJ/mol
# Density = 1.900117 g / cm^3
# Si number density = 19.044515 Si / 1000 Ang^3
#
#
#
# Elastic Constant Matrix: (Units=GPa)
#
#
# Indices 1 2 3 4 5 6 
#
# 1 47.2528 16.8966 46.7634 0.0000 0.0000 0.0000
# 2 16.8966 91.8868 99.5911 0.0000 0.0000 0.0000
# 3 46.7634 99.5911 211.9464 0.0000 0.0000 0.0000
# 4 0.0000 0.0000 0.0000 -18.5133 0.0000 0.0000
# 5 0.0000 0.0000 0.0000 0.0000-8153.0282 0.0000
# 6 0.0000 0.0000 0.0000 0.0000 0.0000 11.2022
#
#
#
# Elastic Compliance Matrix: (Units=1/GPa)
#
#
# Indices 1 2 3 4 5 6 
#
# 1 0.027500 0.003096 -0.007523 0.000000 0.000000 0.000000
# 2 0.003096 0.022526 -0.011268 0.000000 0.000000 0.000000
# 3 -0.007523 -0.011268 0.011673 0.000000 0.000000 0.000000
# 4 0.000000 0.000000 0.000000 -0.054015 0.000000 0.000000
# 5 0.000000 0.000000 0.000000 0.000000 -0.000123 0.000000
# 6 0.000000 0.000000 0.000000 0.000000 0.000000 0.089268
#
#
# Mechanical properties :
#
#
# Convention : Reuss Voigt Hill
#
# Bulk Modulus (GPa) = 32.99152 75.28758 54.13955
# Shear Modulus (GPa) = 36.14762 -1619.54554 -791.69896
#
# Velocity S-wave (km/s) = 4.36140 -29.19325 -20.41108
# Velocity P-wave (km/s) = 6.53631 33.11661 22.95633
#
# Compressibility (1/GPa) = 0.03031082
#
# Stress axis : x y z
#
# Youngs Moduli (GPa) = 36.36341 44.39233 85.67031
#
# Poissons Ratio (x) = -0.13746 0.64446
# Poissons Ratio (y) = -0.11260 0.96534
# Poissons Ratio (z) = 0.27354 0.50022
#
# Static dielectric constant tensor:
#      x y z
#    x 1.683590 0.000000 0.000000 
#    y 0.000000 1.614170 0.000000 
#    z 0.000000 0.000000 1.680870 
# 
# From -- ./inp_files/73217.got.cif
#   From: 2010.05.17/outbox.cif.g08.bks.cpg/sg65_37_cif.got.tgz:73217.got - 2010.06.03 17:01:31.
