data_PCOD9493345
_publ_section_title
;
Structure prediction by ZEFSAII (Michael W. Deem and Ramdas Pophale) SiO2 
 PCOD9493345
Probable space group: C M M M
;
_chemical_formula_sum "Si O2"
_cell_formula_units_Z 72
_cell_length_a 8.144432
_cell_length_b 29.733238
_cell_length_c 14.076896
_cell_angle_alpha 90.000000
_cell_angle_beta 90.000000
_cell_angle_gamma 90.000000
_cell_volume 3408.865852
_symmetry_space_group_name_H-M "C M M M"
_symmetry_group_IT_number 65
_symmetry_cell_setting 'orthorhombic'
loop_
_space_group_symop_operation_xyz
x,y,z
-x,-y,z
x,-y,-z
-x,y,-z
-x,-y,-z
x,y,-z
-x,y,z
x,-y,z
1/2+x,1/2+y,z
1/2-x,1/2-y,z
1/2+x,1/2-y,-z
1/2-x,1/2+y,-z
1/2-x,1/2-y,-z
1/2+x,1/2+y,-z
1/2-x,1/2+y,z
1/2+x,1/2-y,z
loop_
_atom_site_type_symbol
_atom_site_label
_atom_site_fract_x
_atom_site_fract_y
_atom_site_fract_z
Si Si1 0.808436 0.578891 0.000000
Si Si2 0.815041 0.367678 0.332758
Si Si3 0.689280 0.297352 0.204236
Si Si4 0.299292 0.948367 0.210175
Si Si5 0.192887 0.686803 0.000000
Si Si6 0.191958 0.802456 0.500000
O O1 0.740422 0.562672 0.102333
O O2 0.802144 0.632659 0.000000
O O3 0.000000 0.564111 0.000000
O O4 0.806940 0.336622 0.239613
O O5 0.739308 0.414045 0.292337
O O6 0.740538 0.334058 0.410713
O O7 0.000000 0.377159 0.364404
O O8 0.500000 0.305735 0.229649
O O9 0.750000 0.250000 0.245213
O O10 0.712584 0.296589 0.092160
O O11 0.500000 0.943258 0.208613
O O12 0.261010 0.000000 0.231677
O O13 0.500000 0.799937 0.000000
O O14 0.250000 0.750000 0.500000
O O15 0.000000 0.798116 0.500000
#
# Coordination Sequence:
#
# PCOD9493345 Si02
#       6
#     8  16  16  16   8   8
#     4   9  15  28  53  87 124 162 202 250 296 340
#     4  11  22  40  64  92 123 156 199 252 304 362
#     4  12  24  38  56  82 117 160 202 248 302 365
#     4   9  17  31  57  93 128 162 204 253 300 347
#     4  11  20  35  55  82 117 160 204 251 301 355
#     4  12  26  46  69  94 121 155 198 249 311 374
#
# _framework density 21.121395
#
# number of rings (size 3 to 8) (size 9 to 14) (size 15 to 20)
#    0.000    1.333    2.222    5.333    0.000    1.333 
#    0.000    0.556    0.000    6.000    0.000    1.556 
#    0.000    0.000    0.000    0.000    0.000    0.000 
#
# Total GULP energy -200810.342144 kJ/mol
# GULP energy per Si atom -5578.065060 kJ/mol
# Density = 2.107332 g / cm^3
# Si number density = 21.121395 Si / 1000 Ang^3
#
#
#
# Elastic Constant Matrix: (Units=GPa)
#
#
# Indices 1 2 3 4 5 6 
#
# 1 60.6563 20.6615 13.3608 0.0000 0.0000 0.0000
# 2 20.6615 167.9234 61.1253 0.0000 0.0000 0.0000
# 3 13.3608 61.1253 112.3940 0.0000 0.0000 0.0000
# 4 0.0000 0.0000 0.0000 9.7429 0.0000 0.0000
# 5 0.0000 0.0000 0.0000 0.0000 22.8416 0.0000
# 6 0.0000 0.0000 0.0000 0.0000 0.0000 14.0136
#
#
#
# Elastic Compliance Matrix: (Units=1/GPa)
#
#
# Indices 1 2 3 4 5 6 
#
# 1 0.017320 -0.001723 -0.001122 0.000000 0.000000 0.000000
# 2 -0.001723 0.007596 -0.003926 0.000000 0.000000 0.000000
# 3 -0.001122 -0.003926 0.011166 0.000000 0.000000 0.000000
# 4 0.000000 0.000000 0.000000 0.102638 0.000000 0.000000
# 5 0.000000 0.000000 0.000000 0.000000 0.043780 0.000000
# 6 0.000000 0.000000 0.000000 0.000000 0.000000 0.071359
#
#
# Mechanical properties :
#
#
# Convention : Reuss Voigt Hill
#
# Bulk Modulus (GPa) = 44.36506 59.02987 51.69746
# Shear Modulus (GPa) = 18.18739 25.70804 21.94771
#
# Velocity S-wave (km/s) = 2.93761 3.49256 3.22704
# Velocity P-wave (km/s) = 5.70583 6.65376 6.19795
#
# Compressibility (1/GPa) = 0.02254026
#
# Stress axis : x y z
#
# Youngs Moduli (GPa) = 57.73573 131.64276 89.55710
#
# Poissons Ratio (x) = 0.22678 0.10049
# Poissons Ratio (y) = 0.09946 0.35164
# Poissons Ratio (z) = 0.06478 0.51689
#
# Static dielectric constant tensor:
#      x y z
#    x 1.779990 0.000000 0.000000 
#    y 0.000000 1.784870 0.000000 
#    z 0.000000 0.000000 1.836300 
# 
# From -- ./inp_files/36624.got.cif
#   From: 2010.05.17/outbox.cif.g08.bks.cpg/sg65_19_cif.got.tgz:36624.got - 2010.06.03 17:01:31.
