data_PCOD9493930
_publ_section_title
;
Structure prediction by ZEFSAII (Michael W. Deem and Ramdas Pophale) SiO2 
 PCOD9493930
Probable space group: C M M M
;
_chemical_formula_sum "Si O2"
_cell_formula_units_Z 88
_cell_length_a 18.464034
_cell_length_b 8.453336
_cell_length_c 30.229598
_cell_angle_alpha 90.000000
_cell_angle_beta 90.000000
_cell_angle_gamma 90.000000
_cell_volume 4718.316771
_symmetry_space_group_name_H-M "C M M M"
_symmetry_group_IT_number 65
_symmetry_cell_setting 'orthorhombic'
loop_
_space_group_symop_operation_xyz
x,y,z
-x,-y,z
x,-y,-z
-x,y,-z
-x,-y,-z
x,y,-z
-x,y,z
x,-y,z
1/2+x,1/2+y,z
1/2-x,1/2-y,z
1/2+x,1/2-y,-z
1/2-x,1/2+y,-z
1/2-x,1/2-y,-z
1/2+x,1/2+y,-z
1/2-x,1/2+y,z
1/2+x,1/2-y,z
loop_
_atom_site_type_symbol
_atom_site_label
_atom_site_fract_x
_atom_site_fract_y
_atom_site_fract_z
Si Si1 0.831014 0.685726 0.802472
Si Si2 0.417515 0.311387 0.718665
Si Si3 0.668863 0.187195 0.365774
Si Si4 0.412577 0.182490 0.895453
Si Si5 0.416080 0.309056 0.449987
Si Si6 0.588004 0.500000 0.050896
O O1 0.827139 0.500000 0.792689
O O2 0.750000 0.750000 0.807583
O O3 0.871975 0.766757 0.761874
O O4 0.875598 0.705833 0.847835
O O5 0.500000 0.251787 0.722715
O O6 0.419512 0.500000 0.714941
O O7 0.379826 0.246146 0.674827
O O8 0.750000 0.250000 0.360637
O O9 0.634582 0.243978 0.411869
O O10 0.670634 0.000000 0.365136
O O11 0.500000 0.187994 0.891315
O O12 0.390542 0.334125 0.925414
O O13 0.394924 0.000000 0.910548
O O14 0.396098 0.259566 0.500000
O O15 0.500000 0.262358 0.442283
O O16 0.413686 0.500000 0.448685
O O17 0.500000 0.500000 0.051162
O O18 0.612253 0.500000 0.000000
#
# Coordination Sequence:
#
# PCOD9493930 Si02
#       6
#    16  16  16  16  16   8
#     4  11  23  38  58  86 117 154 193 239 289 346
#     4  11  24  41  62  86 115 151 190 234 287 347
#     4  12  25  40  59  83 116 154 191 238 287 342
#     4   9  19  35  56  84 117 154 196 246 298 352
#     4   9  19  38  63  88 115 148 188 235 288 346
#     4   9  18  32  56  88 118 152 195 247 300 352
#
# _framework density 18.65072
#
# number of rings (size 3 to 8) (size 9 to 14) (size 15 to 20)
#    0.000    1.727    0.000    4.909    2.545    5.818 
#    0.000    2.727    0.000    0.545    0.000    0.000 
#    0.000    0.000    0.000    0.000    0.000    0.000 
#
# Total GULP energy -245733.026559 kJ/mol
# GULP energy per Si atom -5584.841513 kJ/mol
# Density = 1.860827 g / cm^3
# Si number density = 18.650720 Si / 1000 Ang^3
#
#
#
# Elastic Constant Matrix: (Units=GPa)
#
#
# Indices 1 2 3 4 5 6 
#
# 1 76.7458 44.9319 50.1445 0.0000 0.0000 0.0000
# 2 44.9319 113.5861 69.4644 0.0000 0.0000 0.0000
# 3 50.1445 69.4644 110.0338 0.0000 0.0000 0.0000
# 4 0.0000 0.0000 0.0000 312.0683 0.0000 0.0000
# 5 0.0000 0.0000 0.0000 0.0000 -25.5962 0.0000
# 6 0.0000 0.0000 0.0000 0.0000 0.0000 24.8318
#
#
#
# Elastic Compliance Matrix: (Units=1/GPa)
#
#
# Indices 1 2 3 4 5 6 
#
# 1 0.019468 -0.003706 -0.006532 0.000000 0.000000 0.000000
# 2 -0.003706 0.015046 -0.007810 0.000000 0.000000 0.000000
# 3 -0.006532 -0.007810 0.016995 0.000000 0.000000 0.000000
# 4 0.000000 0.000000 0.000000 0.003204 0.000000 0.000000
# 5 0.000000 0.000000 0.000000 0.000000 -0.039068 0.000000
# 6 0.000000 0.000000 0.000000 0.000000 0.000000 0.040271
#
#
# Mechanical properties :
#
#
# Convention : Reuss Voigt Hill
#
# Bulk Modulus (GPa) = 64.87969 69.93860 67.40914
# Shear Modulus (GPa) = 51.46699 71.31575 61.39137
#
# Velocity S-wave (km/s) = 5.25881 6.19036 5.74350
# Velocity P-wave (km/s) = 8.46969 9.41672 8.95573
#
# Compressibility (1/GPa) = 0.01541314
#
# Stress axis : x y z
#
# Youngs Moduli (GPa) = 51.36658 66.46297 58.84050
#
# Poissons Ratio (x) = 0.24633 0.38435
# Poissons Ratio (y) = 0.19038 0.45952
# Poissons Ratio (z) = 0.33553 0.51904
#
# Static dielectric constant tensor:
#      x y z
#    x 1.642690 0.000000 0.000000 
#    y 0.000000 1.650580 0.000000 
#    z 0.000000 0.000000 1.614850 
# 
# From -- ./inp_files/77894.got.cif
#   From: 2010.05.17/outbox.cif.g08.bks.cpg/sg65_39_cif.got.tgz:77894.got - 2010.06.03 17:01:31.
