data_PCOD9493662
_publ_section_title
;
Structure prediction by ZEFSAII (Michael W. Deem and Ramdas Pophale) SiO2 
 PCOD9493662
Probable space group: C M M M
;
_chemical_formula_sum "Si O2"
_cell_formula_units_Z 72
_cell_length_a 8.699212
_cell_length_b 16.581736
_cell_length_c 25.136690
_cell_angle_alpha 90.000000
_cell_angle_beta 90.000000
_cell_angle_gamma 90.000000
_cell_volume 3625.918184
_symmetry_space_group_name_H-M "C M M M"
_symmetry_group_IT_number 65
_symmetry_cell_setting 'orthorhombic'
loop_
_space_group_symop_operation_xyz
x,y,z
-x,-y,z
x,-y,-z
-x,y,-z
-x,-y,-z
x,y,-z
-x,y,z
x,-y,z
1/2+x,1/2+y,z
1/2-x,1/2-y,z
1/2+x,1/2-y,-z
1/2-x,1/2+y,-z
1/2-x,1/2-y,-z
1/2+x,1/2+y,-z
1/2-x,1/2+y,z
1/2+x,1/2-y,z
loop_
_atom_site_type_symbol
_atom_site_label
_atom_site_fract_x
_atom_site_fract_y
_atom_site_fract_z
Si Si1 0.319693 0.500000 0.063725
Si Si2 0.186924 0.590179 0.777622
Si Si3 0.320130 0.402957 0.558296
Si Si4 0.683415 0.161531 0.333183
Si Si5 0.315216 0.164051 0.886027
O O1 0.500000 0.500000 0.078627
O O2 0.243336 0.582880 0.084945
O O3 0.307780 0.500000 0.000000
O O4 0.237320 0.500000 0.792094
O O5 0.238425 0.611135 0.718103
O O6 0.233360 0.650960 0.824144
O O7 0.000000 0.590251 0.777072
O O8 0.262257 0.375390 0.500000
O O9 0.500000 0.380293 0.562059
O O10 0.312297 0.500000 0.558639
O O11 0.234690 0.371486 0.609841
O O12 0.500000 0.163188 0.331765
O O13 0.750000 0.250000 0.326860
O O14 0.500000 0.166031 0.889210
O O15 0.250000 0.250000 0.905406
#
# Coordination Sequence:
#
# PCOD9493662 Si02
#       5
#     8  16  16  16  16
#     4  11  25  45  67  95 131 169 216 267 312 367
#     4   9  18  35  59  87 119 155 195 244 302 359
#     4   9  19  37  58  78 104 139 182 235 293 353
#     4  11  22  35  54  80 114 150 189 237 290 351
#     4  11  22  40  67  96 131 171 212 260 315 374
#
# _framework density 19.857039
#
# number of rings (size 3 to 8) (size 9 to 14) (size 15 to 20)
#    0.000    1.889    1.111    3.667    0.000    3.556 
#    0.000    4.444    0.000    0.000    0.000    0.000 
#    0.000    0.000    0.000    0.000    0.000    0.000 
#
# Total GULP energy -200925.620916 kJ/mol
# GULP energy per Si atom -5581.267248 kJ/mol
# Density = 1.981184 g / cm^3
# Si number density = 19.857039 Si / 1000 Ang^3
#
#
#
# Elastic Constant Matrix: (Units=GPa)
#
#
# Indices 1 2 3 4 5 6 
#
# 1 58.6782 42.0426 34.3267 0.0000 0.0000 0.0000
# 2 42.0426 127.4752 44.2546 0.0000 0.0000 0.0000
# 3 34.3267 44.2546 88.9548 0.0000 0.0000 0.0000
# 4 0.0000 0.0000 0.0000 -24.7115 0.0000 0.0000
# 5 0.0000 0.0000 0.0000 0.0000 22.3413 0.0000
# 6 0.0000 0.0000 0.0000 0.0000 0.0000 296.5871
#
#
#
# Elastic Compliance Matrix: (Units=1/GPa)
#
#
# Indices 1 2 3 4 5 6 
#
# 1 0.025302 -0.005990 -0.006784 0.000000 0.000000 0.000000
# 2 -0.005990 0.010900 -0.003111 0.000000 0.000000 0.000000
# 3 -0.006784 -0.003111 0.015407 0.000000 0.000000 0.000000
# 4 0.000000 0.000000 0.000000 -0.040467 0.000000 0.000000
# 5 0.000000 0.000000 0.000000 0.000000 0.044760 0.000000
# 6 0.000000 0.000000 0.000000 0.000000 0.000000 0.003372
#
#
# Mechanical properties :
#
#
# Convention : Reuss Voigt Hill
#
# Bulk Modulus (GPa) = 50.40415 57.37288 53.88851
# Shear Modulus (GPa) = 51.19854 69.14232 60.17043
#
# Velocity S-wave (km/s) = 5.08326 5.90725 5.51068
# Velocity P-wave (km/s) = 7.73895 8.68811 8.22723
#
# Compressibility (1/GPa) = 0.01983964
#
# Stress axis : x y z
#
# Youngs Moduli (GPa) = 39.52184 91.74013 64.90348
#
# Poissons Ratio (x) = 0.54951 0.44031
# Poissons Ratio (y) = 0.23673 0.20194
# Poissons Ratio (z) = 0.26812 0.28545
#
# Static dielectric constant tensor:
#      x y z
#    x 1.681130 0.000000 0.000000 
#    y 0.000000 1.756890 0.000000 
#    z 0.000000 0.000000 4.589950 
# 
# From -- ./inp_files/72493.got.cif
#   From: 2010.05.17/outbox.cif.g08.bks.cpg/sg65_37_cif.got.tgz:72493.got - 2010.06.03 17:01:31.
