data_PCOD9493363
_publ_section_title
;
Structure prediction by ZEFSAII (Michael W. Deem and Ramdas Pophale) SiO2 
 PCOD9493363
Probable space group: C M M M
;
_chemical_formula_sum "Si O2"
_cell_formula_units_Z 72
_cell_length_a 29.929717
_cell_length_b 15.875122
_cell_length_c 7.907488
_cell_angle_alpha 90.000000
_cell_angle_beta 90.000000
_cell_angle_gamma 90.000000
_cell_volume 3757.147312
_symmetry_space_group_name_H-M "C M M M"
_symmetry_group_IT_number 65
_symmetry_cell_setting 'orthorhombic'
loop_
_space_group_symop_operation_xyz
x,y,z
-x,-y,z
x,-y,-z
-x,y,-z
-x,-y,-z
x,y,-z
-x,y,z
x,-y,z
1/2+x,1/2+y,z
1/2-x,1/2-y,z
1/2+x,1/2-y,-z
1/2-x,1/2+y,-z
1/2-x,1/2-y,-z
1/2+x,1/2+y,-z
1/2-x,1/2+y,z
1/2+x,1/2-y,z
loop_
_atom_site_type_symbol
_atom_site_label
_atom_site_fract_x
_atom_site_fract_y
_atom_site_fract_z
Si Si1 0.054264 0.500000 0.807496
Si Si2 0.807529 0.404048 0.294974
Si Si3 0.205414 0.906970 0.298301
Si Si4 0.638923 0.260425 0.197493
Si Si5 0.448870 0.815523 0.208354
O O1 0.065073 0.409483 0.730195
O O2 0.000000 0.500000 0.817264
O O3 0.071774 0.500000 0.000000
O O4 0.809099 0.399446 0.500000
O O5 0.820283 0.500000 0.247068
O O6 0.756053 0.389626 0.238176
O O7 0.837572 0.329763 0.224213
O O8 0.209498 0.912664 0.500000
O O9 0.170437 0.833687 0.265118
O O10 0.191890 0.000000 0.234359
O O11 0.588603 0.249840 0.266262
O O12 0.634723 0.276781 0.000000
O O13 0.500000 0.798506 0.258404
O O14 0.448678 0.819102 0.000000
#
# Coordination Sequence:
#
# PCOD9493363 Si02
#       5
#     8  16  16  16  16
#     4   7  10  20  38  56  81 123 163 185 207 259
#     4   9  19  35  52  70  97 135 171 197 229 287
#     4   9  19  37  56  69  89 130 175 204 235 291
#     4  11  21  29  48  80 105 125 156 205 256 291
#     4   8  15  27  42  64  97 133 163 190 229 287
#
# _framework density 19.163474999999998
#
# number of rings (size 3 to 8) (size 9 to 14) (size 15 to 20)
#    0.000    3.000    0.000    4.000    1.556    4.444 
#    0.000    2.222    0.000    3.333    0.000    6.222 
#    0.000    0.000    0.000    0.000    0.000    0.000 
#
# Total GULP energy -200642.323418 kJ/mol
# GULP energy per Si atom -5573.397873 kJ/mol
# Density = 1.911986 g / cm^3
# Si number density = 19.163475 Si / 1000 Ang^3
#
#
#
# Elastic Constant Matrix: (Units=GPa)
#
#
# Indices 1 2 3 4 5 6 
#
# 1 95.8069 49.8286 -5.2277 0.0000 0.0000 0.0000
# 2 49.8286 55.6993 -9.7144 0.0000 0.0000 0.0000
# 3 -5.2277 -9.7144 11.5895 0.0000 0.0000 0.0000
# 4 0.0000 0.0000 0.0000 44.7118 0.0000 0.0000
# 5 0.0000 0.0000 0.0000 0.0000 25.1179 0.0000
# 6 0.0000 0.0000 0.0000 0.0000 0.0000 27.6949
#
#
#
# Elastic Compliance Matrix: (Units=1/GPa)
#
#
# Indices 1 2 3 4 5 6 
#
# 1 0.019993 -0.019106 -0.006996 0.000000 0.000000 0.000000
# 2 -0.019106 0.039286 0.024311 0.000000 0.000000 0.000000
# 3 -0.006996 0.024311 0.103507 0.000000 0.000000 0.000000
# 4 0.000000 0.000000 0.000000 0.022365 0.000000 0.000000
# 5 0.000000 0.000000 0.000000 0.000000 0.039812 0.000000
# 6 0.000000 0.000000 0.000000 0.000000 0.000000 0.036108
#
#
# Mechanical properties :
#
#
# Convention : Reuss Voigt Hill
#
# Bulk Modulus (GPa) = 6.28126 25.87431 16.07779
# Shear Modulus (GPa) = 15.73713 28.05217 21.89465
#
# Velocity S-wave (km/s) = 2.86878 3.83016 3.38379
# Velocity P-wave (km/s) = 3.77598 5.75251 4.86566
#
# Compressibility (1/GPa) = 0.15920371
#
# Stress axis : x y z
#
# Youngs Moduli (GPa) = 50.01839 25.45466 9.66119
#
# Poissons Ratio (x) = 0.48633 0.06759
# Poissons Ratio (y) = 0.95563 -0.23488
# Poissons Ratio (z) = 0.34995 -0.61884
#
# Static dielectric constant tensor:
#      x y z
#    x 1.702120 0.000000 0.000000 
#    y 0.000000 1.669820 0.000000 
#    z 0.000000 0.000000 1.705090 
# 
# From -- ./inp_files/7664.got.cif
#   From: 2010.05.17/outbox.cif.g08.bks.cpg/sg65_4_cif.got.tgz:7664.got - 2010.06.03 17:01:31.
