data_PCOD9493533
_publ_section_title
;
Structure prediction by ZEFSAII (Michael W. Deem and Ramdas Pophale) SiO2 
 PCOD9493533
Probable space group: C M M M
;
_chemical_formula_sum "Si O2"
_cell_formula_units_Z 64
_cell_length_a 11.144139
_cell_length_b 15.476787
_cell_length_c 20.925908
_cell_angle_alpha 90.000000
_cell_angle_beta 90.000000
_cell_angle_gamma 90.000000
_cell_volume 3609.205725
_symmetry_space_group_name_H-M "C M M M"
_symmetry_group_IT_number 65
_symmetry_cell_setting 'orthorhombic'
loop_
_space_group_symop_operation_xyz
x,y,z
-x,-y,z
x,-y,-z
-x,y,-z
-x,-y,-z
x,y,-z
-x,y,z
x,-y,z
1/2+x,1/2+y,z
1/2-x,1/2-y,z
1/2+x,1/2-y,-z
1/2-x,1/2+y,-z
1/2-x,1/2-y,-z
1/2+x,1/2+y,-z
1/2-x,1/2+y,z
1/2+x,1/2-y,z
loop_
_atom_site_type_symbol
_atom_site_label
_atom_site_fract_x
_atom_site_fract_y
_atom_site_fract_z
Si Si1 0.355751 0.500000 0.137468
Si Si2 0.249742 0.653672 0.368314
Si Si3 0.500000 0.102935 0.572922
Si Si4 0.644593 0.500000 0.284574
Si Si5 0.358427 0.684754 0.077100
Si Si6 0.858233 0.900746 0.500000
O O1 0.500000 0.500000 0.138809
O O2 0.315232 0.500000 0.210992
O O3 0.324151 0.589280 0.102406
O O4 0.250000 0.750000 0.341831
O O5 0.306156 0.583694 0.321294
O O6 0.319234 0.647208 0.435919
O O7 0.115767 0.630398 0.388292
O O8 0.500000 0.138108 0.500000
O O9 0.500000 0.000000 0.568013
O O10 0.500000 0.500000 0.287781
O O11 0.500000 0.703587 0.096701
O O12 0.250000 0.750000 0.096821
O O13 0.359936 0.683795 0.000000
O O14 0.000000 0.908005 0.500000
O O15 0.807136 0.000000 0.500000
#
# Coordination Sequence:
#
# PCOD9493533 Si02
#       6
#     8  16   8   8  16   8
#     4   9  19  36  60  80 111 157 197 230 268 328
#     4  12  25  38  59  83 107 141 182 231 283 345
#     4  11  22  40  58  79 111 139 171 228 293 346
#     4  11  24  43  58  78 111 151 193 234 274 327
#     4   9  17  32  59  93 123 152 189 234 281 328
#     4  11  21  37  59  84 109 133 172 232 288 334
#
# _framework density 17.732434000000001
#
# number of rings (size 3 to 8) (size 9 to 14) (size 15 to 20)
#    0.000    1.500    3.750    1.500    3.500    2.500 
#    0.000    0.625    5.500    3.000    0.000    0.000 
#    0.000    0.000    0.000    0.000    0.000    0.000 
#
# Total GULP energy -178519.823519 kJ/mol
# GULP energy per Si atom -5578.744485 kJ/mol
# Density = 1.769207 g / cm^3
# Si number density = 17.732434 Si / 1000 Ang^3
#
#
#
# Elastic Constant Matrix: (Units=GPa)
#
#
# Indices 1 2 3 4 5 6 
#
# 1 119.3101 53.6981 27.4107 0.0000 0.0000 0.0000
# 2 53.6981 149.7636 35.1839 0.0000 0.0000 0.0000
# 3 27.4107 35.1839 37.9407 0.0000 0.0000 0.0000
# 4 0.0000 0.0000 0.0000 -6.8254 0.0000 0.0000
# 5 0.0000 0.0000 0.0000 0.0000 13.1851 0.0000
# 6 0.0000 0.0000 0.0000 0.0000 0.0000 33.0162
#
#
#
# Elastic Compliance Matrix: (Units=1/GPa)
#
#
# Indices 1 2 3 4 5 6 
#
# 1 0.010790 -0.002605 -0.005380 0.000000 0.000000 0.000000
# 2 -0.002605 0.009166 -0.006618 0.000000 0.000000 0.000000
# 3 -0.005380 -0.006618 0.036381 0.000000 0.000000 0.000000
# 4 0.000000 0.000000 0.000000 -0.146511 0.000000 0.000000
# 5 0.000000 0.000000 0.000000 0.000000 0.075843 0.000000
# 6 0.000000 0.000000 0.000000 0.000000 0.000000 0.030288
#
#
# Mechanical properties :
#
#
# Convention : Reuss Voigt Hill
#
# Bulk Modulus (GPa) = 36.85774 59.95556 48.40665
# Shear Modulus (GPa) = 92.24170 20.58996 56.41583
#
# Velocity S-wave (km/s) = 7.22022 3.41126 5.64660
# Velocity P-wave (km/s) = 9.50470 7.02853 8.35881
#
# Compressibility (1/GPa) = 0.02713134
#
# Stress axis : x y z
#
# Youngs Moduli (GPa) = 92.67974 109.09949 27.48716
#
# Poissons Ratio (x) = 0.28419 0.14787
# Poissons Ratio (y) = 0.24142 0.18191
# Poissons Ratio (z) = 0.49858 0.72202
#
# Static dielectric constant tensor:
#      x y z
#    x 1.554690 0.000000 0.000000 
#    y 0.000000 1.624140 0.000000 
#    z 0.000000 0.000000 1.589730 
# 
# From -- ./inp_files/50993.got.cif
#   From: 2010.05.17/outbox.cif.g08.bks.cpg/sg65_26_cif.got.tgz:50993.got - 2010.06.03 17:01:31.
