data_PCOD9493107
_publ_section_title
;
Structure prediction by ZEFSAII (Michael W. Deem and Ramdas Pophale) SiO2 
 PCOD9493107
Probable space group: C M M M
;
_chemical_formula_sum "Si O2"
_cell_formula_units_Z 72
_cell_length_a 8.178690
_cell_length_b 22.755596
_cell_length_c 18.734947
_cell_angle_alpha 90.000000
_cell_angle_beta 90.000000
_cell_angle_gamma 90.000000
_cell_volume 3486.779074
_symmetry_space_group_name_H-M "C M M M"
_symmetry_group_IT_number 65
_symmetry_cell_setting 'orthorhombic'
loop_
_space_group_symop_operation_xyz
x,y,z
-x,-y,z
x,-y,-z
-x,y,-z
-x,-y,-z
x,y,-z
-x,y,z
x,-y,z
1/2+x,1/2+y,z
1/2-x,1/2-y,z
1/2+x,1/2-y,-z
1/2-x,1/2+y,-z
1/2-x,1/2-y,-z
1/2+x,1/2+y,-z
1/2-x,1/2+y,z
1/2+x,1/2-y,z
loop_
_atom_site_type_symbol
_atom_site_label
_atom_site_fract_x
_atom_site_fract_y
_atom_site_fract_z
Si Si1 0.191662 0.934167 0.655938
Si Si2 0.194762 0.313633 0.581503
Si Si3 0.803185 0.000000 0.083635
Si Si4 0.692282 0.097671 0.810437
Si Si5 0.802665 0.316947 0.922866
O O1 0.259640 0.874803 0.619787
O O2 0.218045 0.924981 0.740516
O O3 0.000000 0.935589 0.639759
O O4 0.259069 0.000000 0.637084
O O5 0.260213 0.316149 0.500000
O O6 0.250000 0.250000 0.612520
O O7 0.000000 0.311461 0.579399
O O8 0.721205 0.054092 0.123887
O O9 0.000000 0.000000 0.094913
O O10 0.771401 0.000000 0.000000
O O11 0.500000 0.101606 0.792427
O O12 0.755868 0.156707 0.847764
O O13 0.750000 0.250000 0.924632
O O14 0.000000 0.322239 0.922080
O O15 0.745728 0.343082 0.000000
#
# Coordination Sequence:
#
# PCOD9493107 Si02
#       5
#    16  16   8  16  16
#     4  11  24  41  62  90 129 170 209 258 314 375
#     4  10  22  42  69  99 130 165 209 259 311 373
#     4  11  23  37  55  81 112 149 196 249 305 363
#     4  11  22  37  58  82 113 153 197 249 303 362
#     4   9  19  35  54  78 107 142 188 241 299 360
#
# _framework density 20.649431
#
# number of rings (size 3 to 8) (size 9 to 14) (size 15 to 20)
#    0.000    1.667    1.111    3.000    0.000    7.556 
#    0.000    6.667    0.000    0.000    0.000    0.000 
#    0.000    0.000    0.000    0.000    0.000    0.000 
#
# Total GULP energy -200659.194679 kJ/mol
# GULP energy per Si atom -5573.866519 kJ/mol
# Density = 2.060243 g / cm^3
# Si number density = 20.649431 Si / 1000 Ang^3
#
#
#
# Elastic Constant Matrix: (Units=GPa)
#
#
# Indices 1 2 3 4 5 6 
#
# 1 31.3435 16.1362 2.9143 0.0000 0.0000 0.0000
# 2 16.1362 154.1100 52.5141 0.0000 0.0000 0.0000
# 3 2.9143 52.5141 59.5741 0.0000 0.0000 0.0000
# 4 0.0000 0.0000 0.0000 109.0556 0.0000 0.0000
# 5 0.0000 0.0000 0.0000 0.0000 24.9554 0.0000
# 6 0.0000 0.0000 0.0000 0.0000 0.0000 25.2371
#
#
#
# Elastic Compliance Matrix: (Units=1/GPa)
#
#
# Indices 1 2 3 4 5 6 
#
# 1 0.033905 -0.004266 0.002102 0.000000 0.000000 0.000000
# 2 -0.004266 0.009812 -0.008440 0.000000 0.000000 0.000000
# 3 0.002102 -0.008440 0.024123 0.000000 0.000000 0.000000
# 4 0.000000 0.000000 0.000000 0.009170 0.000000 0.000000
# 5 0.000000 0.000000 0.000000 0.000000 0.040071 0.000000
# 6 0.000000 0.000000 0.000000 0.000000 0.000000 0.039624
#
#
# Mechanical properties :
#
#
# Convention : Reuss Voigt Hill
#
# Bulk Modulus (GPa) = 21.44485 43.12853 32.28669
# Shear Modulus (GPa) = 25.84543 43.41383 34.62963
#
# Velocity S-wave (km/s) = 3.54167 4.59019 4.09959
# Velocity P-wave (km/s) = 5.20887 7.00175 6.17077
#
# Compressibility (1/GPa) = 0.04663124
#
# Stress axis : x y z
#
# Youngs Moduli (GPa) = 29.49376 101.91973 41.45433
#
# Poissons Ratio (x) = 0.43483 -0.08715
# Poissons Ratio (y) = 0.12583 0.34988
# Poissons Ratio (z) = -0.06200 0.86022
#
# Static dielectric constant tensor:
#      x y z
#    x 1.726150 0.000000 0.000000 
#    y 0.000000 1.935800 0.000000 
#    z 0.000000 0.000000 1.744520 
# 
# From -- ./inp_files/49504.got.cif
#   From: 2010.05.17/outbox.cif.g08.bks.cpg/sg65_25_cif.got.tgz:49504.got - 2010.06.03 17:01:31.
