data_PCOD9493908
_publ_section_title
;
Structure prediction by ZEFSAII (Michael W. Deem and Ramdas Pophale) SiO2 
 PCOD9493908
Probable space group: C M M M
;
_chemical_formula_sum "Si O2"
_cell_formula_units_Z 88
_cell_length_a 9.607031
_cell_length_b 17.675730
_cell_length_c 29.268103
_cell_angle_alpha 90.000000
_cell_angle_beta 90.000000
_cell_angle_gamma 90.000000
_cell_volume 4970.054211
_symmetry_space_group_name_H-M "C M M M"
_symmetry_group_IT_number 65
_symmetry_cell_setting 'orthorhombic'
loop_
_space_group_symop_operation_xyz
x,y,z
-x,-y,z
x,-y,-z
-x,y,-z
-x,-y,-z
x,y,-z
-x,y,z
x,-y,z
1/2+x,1/2+y,z
1/2-x,1/2-y,z
1/2+x,1/2-y,-z
1/2-x,1/2+y,-z
1/2-x,1/2-y,-z
1/2+x,1/2+y,-z
1/2-x,1/2+y,z
1/2+x,1/2-y,z
loop_
_atom_site_type_symbol
_atom_site_label
_atom_site_fract_x
_atom_site_fract_y
_atom_site_fract_z
Si Si1 0.337724 0.408051 0.811309
Si Si2 0.661712 0.592213 0.086862
Si Si3 0.164177 0.589327 0.724724
Si Si4 0.840479 0.908938 0.447385
Si Si5 0.166435 0.672173 0.370868
Si Si6 0.339737 0.907424 0.000000
O O1 0.500000 0.388786 0.805680
O O2 0.328282 0.500000 0.811332
O O3 0.293343 0.383271 0.862207
O O4 0.249158 0.381052 0.768306
O O5 0.500000 0.613609 0.079869
O O6 0.664294 0.500000 0.086793
O O7 0.758596 0.617649 0.045483
O O8 0.195358 0.500000 0.718924
O O9 0.194226 0.630688 0.677309
O O10 0.000000 0.596338 0.734176
O O11 0.814534 0.885818 0.500000
O O12 0.729846 0.875789 0.412465
O O13 0.000000 0.886175 0.435580
O O14 0.835867 0.000000 0.445867
O O15 0.250000 0.750000 0.370771
O O16 0.000000 0.681876 0.375499
O O17 0.500000 0.883705 0.000000
O O18 0.337840 0.000000 0.000000
#
# Coordination Sequence:
#
# PCOD9493908 Si02
#       6
#    16  16  16  16  16   8
#     4   8  14  24  39  59  80 106 145 189 231 279
#     4   8  13  21  31  44  67 100 137 177 221 270
#     4   9  18  32  49  69  93 121 155 198 246 292
#     4   9  19  37  60  84 108 134 166 204 245 290
#     4  11  23  37  53  75 104 137 171 206 247 294
#     4   9  15  19  25  41  65  97 138 179 220 269
#
# _framework density 17.706045
#
# number of rings (size 3 to 8) (size 9 to 14) (size 15 to 20)
#    0.000    3.000    0.000    3.000    0.000    5.091 
#    0.000    6.364    0.000    0.000    0.000    0.000 
#    0.000    0.000    0.000    0.818    0.000   11.636 
#
# Total GULP energy -245164.087420 kJ/mol
# GULP energy per Si atom -5571.911078 kJ/mol
# Density = 1.766575 g / cm^3
# Si number density = 17.706045 Si / 1000 Ang^3
#
#
#
# Elastic Constant Matrix: (Units=GPa)
#
#
# Indices 1 2 3 4 5 6 
#
# 1 100.2665 28.5397 107.7456 0.0000 0.0000 0.0000
# 2 28.5397 17.9320 35.2310 0.0000 0.0000 0.0000
# 3 107.7456 35.2310 173.5022 0.0000 0.0000 0.0000
# 4 0.0000 0.0000 0.0000 -9.3006 0.0000 0.0000
# 5 0.0000 0.0000 0.0000 0.0000 29.9983 0.0000
# 6 0.0000 0.0000 0.0000 0.0000 0.0000 11.4915
#
#
#
# Elastic Compliance Matrix: (Units=1/GPa)
#
#
# Indices 1 2 3 4 5 6 
#
# 1 0.034201 -0.021137 -0.016947 0.000000 0.000000 0.000000
# 2 -0.021137 0.105844 -0.008366 0.000000 0.000000 0.000000
# 3 -0.016947 -0.008366 0.017986 0.000000 0.000000 0.000000
# 4 0.000000 0.000000 0.000000 -0.107520 0.000000 0.000000
# 5 0.000000 0.000000 0.000000 0.000000 0.033335 0.000000
# 6 0.000000 0.000000 0.000000 0.000000 0.000000 0.087021
#
#
# Mechanical properties :
#
#
# Convention : Reuss Voigt Hill
#
# Bulk Modulus (GPa) = 15.35366 70.52595 42.93981
# Shear Modulus (GPa) = 17.51457 14.45014 15.98235
#
# Velocity S-wave (km/s) = 3.14854 2.85987 3.00767
# Velocity P-wave (km/s) = 4.68060 7.12904 6.03039
#
# Compressibility (1/GPa) = 0.06513104
#
# Stress axis : x y z
#
# Youngs Moduli (GPa) = 29.23931 9.44789 55.59728
#
# Poissons Ratio (x) = 0.19970 0.94219
# Poissons Ratio (y) = 0.61802 0.46515
# Poissons Ratio (z) = 0.49551 0.07905
#
# Static dielectric constant tensor:
#      x y z
#    x 1.588240 0.000000 0.000000 
#    y 0.000000 1.599490 0.000000 
#    z 0.000000 0.000000 1.606180 
# 
# From -- ./inp_files/76683.got.cif
#   From: 2010.05.17/outbox.cif.g08.bks.cpg/sg65_39_cif.got.tgz:76683.got - 2010.06.03 17:01:31.
