data_PCOD9493231
_publ_section_title
;
Structure prediction by ZEFSAII (Michael W. Deem and Ramdas Pophale) SiO2 
 PCOD9493231
Probable space group: C M M M
;
_chemical_formula_sum "Si O2"
_cell_formula_units_Z 42
_cell_length_a 10.102137
_cell_length_b 23.370914
_cell_length_c 7.791537
_cell_angle_alpha 90.000000
_cell_angle_beta 90.000000
_cell_angle_gamma 90.000000
_cell_volume 1839.552083
_symmetry_space_group_name_H-M "C M M M"
_symmetry_group_IT_number 65
_symmetry_cell_setting 'orthorhombic'
loop_
_space_group_symop_operation_xyz
x,y,z
-x,-y,z
x,-y,-z
-x,y,-z
-x,-y,-z
x,y,-z
-x,y,z
x,-y,z
1/2+x,1/2+y,z
1/2-x,1/2-y,z
1/2+x,1/2-y,-z
1/2-x,1/2+y,-z
1/2-x,1/2-y,-z
1/2+x,1/2+y,-z
1/2-x,1/2+y,z
1/2+x,1/2-y,z
loop_
_atom_site_type_symbol
_atom_site_label
_atom_site_fract_x
_atom_site_fract_y
_atom_site_fract_z
Si Si1 0.500000 0.159551 0.300967
Si Si2 0.500000 0.708960 0.791474
Si Si3 0.219290 0.500000 0.689608
Si Si4 0.000000 0.500000 0.000000
Si Si5 0.214524 0.118097 0.801082
O O1 0.500000 0.142990 0.500000
O O2 0.500000 0.227934 0.283767
O O3 0.631630 0.134855 0.215421
O O4 0.626659 0.671212 0.739213
O O5 0.500000 0.715725 0.000000
O O6 0.157110 0.500000 0.500000
O O7 0.302880 0.441902 0.707674
O O8 0.115471 0.500000 0.847247
O O9 0.180295 0.109909 0.000000
#
# Coordination Sequence:
#
# PCOD9493231 Si02
#       5
#     8   8   8   2  16
#     4  12  25  40  63  98 134 173 227 286 338 396
#     4  10  24  44  69  94 130 183 227 274 339 404
#     4  12  25  42  68 103 136 176 226 276 340 402
#     4  12  22  44  64  96 136 180 214 278 328 388
#     4  11  23  44  68  97 135 176 227 280 336 404
#
# _framework density 22.831643
#
# number of rings (size 3 to 8) (size 9 to 14) (size 15 to 20)
#    0.000    0.762    1.905    5.429    0.000    8.381 
#    0.000    3.810    0.000    0.000    0.000    0.000 
#    0.000    0.000    0.000    0.000    0.000    0.000 
#
# Total GULP energy -117311.257166 kJ/mol
# GULP energy per Si atom -5586.250341 kJ/mol
# Density = 2.277968 g / cm^3
# Si number density = 22.831643 Si / 1000 Ang^3
#
#
#
# Elastic Constant Matrix: (Units=GPa)
#
#
# Indices 1 2 3 4 5 6 
#
# 1 64.7682 14.3108 -12.7902 0.0000 0.0000 0.0000
# 2 14.3108 161.7970 3.8780 0.0000 0.0000 0.0000
# 3 -12.7902 3.8780 132.2402 0.0000 0.0000 0.0000
# 4 0.0000 0.0000 0.0000 41.9777 0.0000 0.0000
# 5 0.0000 0.0000 0.0000 0.0000 -30.8844 0.0000
# 6 0.0000 0.0000 0.0000 0.0000 0.0000 1483.0072
#
#
#
# Elastic Compliance Matrix: (Units=1/GPa)
#
#
# Indices 1 2 3 4 5 6 
#
# 1 0.016078 -0.001460 0.001598 0.000000 0.000000 0.000000
# 2 -0.001460 0.006318 -0.000327 0.000000 0.000000 0.000000
# 3 0.001598 -0.000327 0.007726 0.000000 0.000000 0.000000
# 4 0.000000 0.000000 0.000000 0.023822 0.000000 0.000000
# 5 0.000000 0.000000 0.000000 0.000000 -0.032379 0.000000
# 6 0.000000 0.000000 0.000000 0.000000 0.000000 0.000674
#
#
# Mechanical properties :
#
#
# Convention : Reuss Voigt Hill
#
# Bulk Modulus (GPa) = 33.62072 41.06694 37.34383
# Shear Modulus (GPa) = 153.69579 322.38055 238.03817
#
# Velocity S-wave (km/s) = 8.21360 11.89561 10.22176
# Velocity P-wave (km/s) = 10.23271 14.37706 12.47815
#
# Compressibility (1/GPa) = 0.02974356
#
# Stress axis : x y z
#
# Youngs Moduli (GPa) = 62.19723 158.28847 129.43115
#
# Poissons Ratio (x) = 0.23116 -0.20681
# Poissons Ratio (y) = 0.09083 0.04226
# Poissons Ratio (z) = -0.09938 0.05168
#
# Static dielectric constant tensor:
#      x y z
#    x 1.825880 0.000000 0.000000 
#    y 0.000000 1.849470 0.000000 
#    z 0.000000 0.000000 1.834610 
# 
# From -- ./inp_files/2738.got.cif
#   From: 2010.05.17/outbox.cif.g08.bks.cpg/sg65_2_cif.got.tgz:2738.got - 2010.06.03 17:01:31.
