data_PCOD9493746
_publ_section_title
;
Structure prediction by ZEFSAII (Michael W. Deem and Ramdas Pophale) SiO2 
 PCOD9493746
Probable space group: C M M M
;
_chemical_formula_sum "Si O2"
_cell_formula_units_Z 56
_cell_length_a 8.681104
_cell_length_b 19.444018
_cell_length_c 18.155793
_cell_angle_alpha 90.000000
_cell_angle_beta 90.000000
_cell_angle_gamma 90.000000
_cell_volume 3064.616928
_symmetry_space_group_name_H-M "C M M M"
_symmetry_group_IT_number 65
_symmetry_cell_setting 'orthorhombic'
loop_
_space_group_symop_operation_xyz
x,y,z
-x,-y,z
x,-y,-z
-x,y,-z
-x,-y,-z
x,y,-z
-x,y,z
x,-y,z
1/2+x,1/2+y,z
1/2-x,1/2-y,z
1/2+x,1/2-y,-z
1/2-x,1/2+y,-z
1/2-x,1/2-y,-z
1/2+x,1/2+y,-z
1/2-x,1/2+y,z
1/2+x,1/2-y,z
loop_
_atom_site_type_symbol
_atom_site_label
_atom_site_fract_x
_atom_site_fract_y
_atom_site_fract_z
Si Si1 0.183668 0.418260 0.083842
Si Si2 0.817225 0.174954 0.210234
Si Si3 0.184242 0.326537 0.629990
Si Si4 0.814933 0.080692 0.500000
O O1 0.209062 0.500000 0.091150
O O2 0.273708 0.376836 0.145466
O O3 0.000000 0.406211 0.092328
O O4 0.226136 0.398484 0.000000
O O5 0.750000 0.250000 0.191608
O O6 0.740459 0.154583 0.287940
O O7 0.000000 0.179650 0.220305
O O8 0.250000 0.250000 0.614363
O O9 0.248377 0.380125 0.570947
O O10 0.000000 0.324044 0.627267
O O11 0.000000 0.086263 0.500000
O O12 0.773777 0.000000 0.500000
#
# Coordination Sequence:
#
# PCOD9493746 Si02
#       4
#    16  16  16   8
#     4   9  19  37  59  82 111 148 188 230 279 335
#     4  11  22  37  58  84 114 147 187 233 280 330
#     4  11  22  39  62  85 113 148 188 230 277 334
#     4  11  24  41  60  85 117 149 186 231 276 325
#
# _framework density 18.273084000000001
#
# number of rings (size 3 to 8) (size 9 to 14) (size 15 to 20)
#    0.000    1.571    0.000    8.571    0.000    4.000 
#    0.000    1.429    0.000    0.000    0.000    0.000 
#    0.000    0.000    0.000    0.000    0.000    0.000 
#
# Total GULP energy -156507.857923 kJ/mol
# GULP energy per Si atom -5589.566354 kJ/mol
# Density = 1.823149 g / cm^3
# Si number density = 18.273084 Si / 1000 Ang^3
#
#
#
# Elastic Constant Matrix: (Units=GPa)
#
#
# Indices 1 2 3 4 5 6 
#
# 1 141.7903 67.1552 72.8887 0.0000 0.0000 0.0000
# 2 67.1552 86.1913 92.7338 0.0000 0.0000 0.0000
# 3 72.8887 92.7338 124.7369 0.0000 0.0000 0.0000
# 4 0.0000 0.0000 0.0000 51.2587 0.0000 0.0000
# 5 0.0000 0.0000 0.0000 0.0000 23.3005 0.0000
# 6 0.0000 0.0000 0.0000 0.0000 0.0000 27.1183
#
#
#
# Elastic Compliance Matrix: (Units=1/GPa)
#
#
# Indices 1 2 3 4 5 6 
#
# 1 0.011179 -0.008404 -0.000285 0.000000 0.000000 0.000000
# 2 -0.008404 0.064289 -0.042884 0.000000 0.000000 0.000000
# 3 -0.000285 -0.042884 0.040065 0.000000 0.000000 0.000000
# 4 0.000000 0.000000 0.000000 0.019509 0.000000 0.000000
# 5 0.000000 0.000000 0.000000 0.000000 0.042917 0.000000
# 6 0.000000 0.000000 0.000000 0.000000 0.000000 0.036875
#
#
# Mechanical properties :
#
#
# Convention : Reuss Voigt Hill
#
# Bulk Modulus (GPa) = 80.72453 90.91931 85.82192
# Shear Modulus (GPa) = 15.52261 28.33156 21.92708
#
# Velocity S-wave (km/s) = 2.91774 3.94185 3.46781
# Velocity P-wave (km/s) = 7.45812 8.40128 7.94371
#
# Compressibility (1/GPa) = 0.01238781
#
# Stress axis : x y z
#
# Youngs Moduli (GPa) = 89.45069 15.55465 24.95942
#
# Poissons Ratio (x) = 0.13072 0.00711
# Poissons Ratio (y) = 0.75173 1.07037
# Poissons Ratio (z) = 0.02548 0.66705
#
# Static dielectric constant tensor:
#      x y z
#    x 1.611040 0.000000 0.000000 
#    y 0.000000 1.601550 0.000000 
#    z 0.000000 0.000000 1.612090 
# 
# From -- ./inp_files/35491.got.cif
#   From: 2010.05.17/outbox.cif.g08.bks.cpg/sg65_18_cif.got.tgz:35491.got - 2010.06.03 17:01:31.
