data_PCOD9493945
_publ_section_title
;
Structure prediction by ZEFSAII (Michael W. Deem and Ramdas Pophale) SiO2 
 PCOD9493945
Probable space group: C M M M
;
_chemical_formula_sum "Si O2"
_cell_formula_units_Z 64
_cell_length_a 9.212042
_cell_length_b 17.790188
_cell_length_c 21.230053
_cell_angle_alpha 90.000000
_cell_angle_beta 90.000000
_cell_angle_gamma 90.000000
_cell_volume 3479.265136
_symmetry_space_group_name_H-M "C M M M"
_symmetry_group_IT_number 65
_symmetry_cell_setting 'orthorhombic'
loop_
_space_group_symop_operation_xyz
x,y,z
-x,-y,z
x,-y,-z
-x,y,-z
-x,-y,-z
x,y,-z
-x,y,z
x,-y,z
1/2+x,1/2+y,z
1/2-x,1/2-y,z
1/2+x,1/2-y,-z
1/2-x,1/2+y,-z
1/2-x,1/2-y,-z
1/2+x,1/2+y,-z
1/2-x,1/2+y,z
1/2+x,1/2-y,z
loop_
_atom_site_type_symbol
_atom_site_label
_atom_site_fract_x
_atom_site_fract_y
_atom_site_fract_z
Si Si1 0.171777 0.588559 0.252022
Si Si2 0.332848 0.591734 0.874168
Si Si3 0.167061 0.591848 0.000000
Si Si4 0.174410 0.669295 0.615710
Si Si5 0.331009 0.589839 0.500000
O O1 0.204337 0.500000 0.261870
O O2 0.259300 0.615831 0.191093
O O3 0.202758 0.632640 0.316034
O O4 0.000000 0.594450 0.238577
O O5 0.500000 0.614639 0.877175
O O6 0.328284 0.500000 0.874101
O O7 0.247442 0.616522 0.936417
O O8 0.169728 0.500000 0.000000
O O9 0.000000 0.615160 0.000000
O O10 0.250000 0.750000 0.612862
O O11 0.247105 0.620003 0.561089
O O12 0.000000 0.674112 0.606975
O O13 0.329766 0.500000 0.500000
O O14 0.500000 0.615184 0.500000
#
# Coordination Sequence:
#
# PCOD9493945 Si02
#       5
#    16  16   8  16   8
#     4   9  18  33  52  74 101 136 177 218 263 316
#     4   9  16  25  40  65  97 131 168 214 265 313
#     4   9  15  23  37  59  92 133 172 211 258 313
#     4  11  23  39  59  82 111 145 181 221 265 316
#     4  11  24  41  62  87 113 141 176 219 266 317
#
# _framework density 18.394689
#
# number of rings (size 3 to 8) (size 9 to 14) (size 15 to 20)
#    0.000    2.250    0.000    3.375    0.000    8.500 
#    0.000    2.500    0.000    0.000    0.000    0.875 
#    0.000    0.000    0.000    0.000    0.000    0.000 
#
# Total GULP energy -178634.283006 kJ/mol
# GULP energy per Si atom -5582.321344 kJ/mol
# Density = 1.835282 g / cm^3
# Si number density = 18.394689 Si / 1000 Ang^3
#
#
#
# Elastic Constant Matrix: (Units=GPa)
#
#
# Indices 1 2 3 4 5 6 
#
# 1 140.1546 44.4146 122.2029 0.0000 0.0000 0.0000
# 2 44.4146 43.1904 46.2823 0.0000 0.0000 0.0000
# 3 122.2029 46.2823 189.0962 0.0000 0.0000 0.0000
# 4 0.0000 0.0000 0.0000 -16.1542 0.0000 0.0000
# 5 0.0000 0.0000 0.0000 0.0000 45.9498 0.0000
# 6 0.0000 0.0000 0.0000 0.0000 0.0000 14.2486
#
#
#
# Elastic Compliance Matrix: (Units=1/GPa)
#
#
# Indices 1 2 3 4 5 6 
#
# 1 0.018322 -0.008341 -0.009799 0.000000 0.000000 0.000000
# 2 -0.008341 0.035182 -0.003221 0.000000 0.000000 0.000000
# 3 -0.009799 -0.003221 0.012409 0.000000 0.000000 0.000000
# 4 0.000000 0.000000 0.000000 -0.061903 0.000000 0.000000
# 5 0.000000 0.000000 0.000000 0.000000 0.021763 0.000000
# 6 0.000000 0.000000 0.000000 0.000000 0.000000 0.070182
#
#
# Mechanical properties :
#
#
# Convention : Reuss Voigt Hill
#
# Bulk Modulus (GPa) = 43.11857 88.69341 65.90599
# Shear Modulus (GPa) = 34.15124 19.44492 26.79808
#
# Velocity S-wave (km/s) = 4.31348 3.25483 3.82100
# Velocity P-wave (km/s) = 6.94981 7.90232 7.44132
#
# Compressibility (1/GPa) = 0.02319186
#
# Stress axis : x y z
#
# Youngs Moduli (GPa) = 54.57829 28.42376 80.58433
#
# Poissons Ratio (x) = 0.23708 0.78967
# Poissons Ratio (y) = 0.45523 0.25954
# Poissons Ratio (z) = 0.53483 0.09154
#
# Static dielectric constant tensor:
#      x y z
#    x 1.618260 0.000000 0.000000 
#    y 0.000000 1.614260 0.000000 
#    z 0.000000 0.000000 1.607610 
# 
# From -- ./inp_files/58781.got.cif
#   From: 2010.05.17/outbox.cif.g08.bks.cpg/sg65_30_cif.got.tgz:58781.got - 2010.06.03 17:01:31.
