data_PCOD9493973
_publ_section_title
;
Structure prediction by ZEFSAII (Michael W. Deem and Ramdas Pophale) SiO2 
 PCOD9493973
Probable space group: C M M M
;
_chemical_formula_sum "Si O2"
_cell_formula_units_Z 88
_cell_length_a 15.289089
_cell_length_b 14.172349
_cell_length_c 20.937059
_cell_angle_alpha 90.000000
_cell_angle_beta 90.000000
_cell_angle_gamma 90.000000
_cell_volume 4536.690208
_symmetry_space_group_name_H-M "C M M M"
_symmetry_group_IT_number 65
_symmetry_cell_setting 'orthorhombic'
loop_
_space_group_symop_operation_xyz
x,y,z
-x,-y,z
x,-y,-z
-x,y,-z
-x,-y,-z
x,y,-z
-x,y,z
x,-y,z
1/2+x,1/2+y,z
1/2-x,1/2-y,z
1/2+x,1/2-y,-z
1/2-x,1/2+y,-z
1/2-x,1/2-y,-z
1/2+x,1/2+y,-z
1/2-x,1/2+y,z
1/2+x,1/2-y,z
loop_
_atom_site_type_symbol
_atom_site_label
_atom_site_fract_x
_atom_site_fract_y
_atom_site_fract_z
Si Si1 0.500000 0.610180 0.908383
Si Si2 0.393228 0.793870 0.427330
Si Si3 0.353637 0.232224 0.069830
Si Si4 0.351320 0.744582 0.291665
Si Si5 0.000000 0.893339 0.243698
Si Si6 0.402096 0.000000 0.423072
Si Si7 0.397291 0.104786 0.192293
O O1 0.500000 0.500000 0.930588
O O2 0.414626 0.673697 0.925885
O O3 0.500000 0.604913 0.832257
O O4 0.367691 0.768928 0.500000
O O5 0.500000 0.796196 0.426586
O O6 0.360966 0.734402 0.367944
O O7 0.360195 0.899582 0.410353
O O8 0.250000 0.250000 0.069277
O O9 0.368343 0.168187 0.132216
O O10 0.376079 0.188522 0.000000
O O11 0.250000 0.750000 0.273976
O O12 0.413101 0.663163 0.263881
O O13 0.386024 0.840792 0.259273
O O14 0.000000 0.000000 0.268960
O O15 0.500000 0.000000 0.394363
O O16 0.412059 0.000000 0.500000
O O17 0.500000 0.095427 0.183183
O O18 0.356726 0.000000 0.193056
#
# Coordination Sequence:
#
# PCOD9493973 Si02
#       7
#     8  16  16  16   8   8  16
#     4  11  23  42  69  93 122 167 217 264 305 363
#     4   9  17  32  57  85 120 158 195 248 315 372
#     4  11  23  41  64  93 131 166 204 256 309 366
#     4  12  23  40  64  91 123 162 211 260 308 374
#     4  11  24  45  65  88 127 171 212 258 315 373
#     4   7  12  24  46  80 112 143 178 222 294 364
#     4  11  23  40  63  91 123 159 201 251 317 375
#
# _framework density 19.397402
#
# number of rings (size 3 to 8) (size 9 to 14) (size 15 to 20)
#    0.000    1.545    4.545    1.909    1.273    2.909 
#    0.000    2.727    0.000    1.091    0.000    0.000 
#    0.000    0.000    0.000    0.000    0.000    0.000 
#
# Total GULP energy -245012.031147 kJ/mol
# GULP energy per Si atom -5568.455253 kJ/mol
# Density = 1.935325 g / cm^3
# Si number density = 19.397402 Si / 1000 Ang^3
#
#
#
# Elastic Constant Matrix: (Units=GPa)
#
#
# Indices 1 2 3 4 5 6 
#
# 1 105.0604 39.9373 16.5477 0.0000 0.0000 0.0000
# 2 39.9373 104.1829 35.2583 0.0000 0.0000 0.0000
# 3 16.5477 35.2583 120.7656 0.0000 0.0000 0.0000
# 4 0.0000 0.0000 0.0000 4.5006 0.0000 0.0000
# 5 0.0000 0.0000 0.0000 0.0000 67.0402 0.0000
# 6 0.0000 0.0000 0.0000 0.0000 0.0000 -0.7603
#
#
#
# Elastic Compliance Matrix: (Units=1/GPa)
#
#
# Indices 1 2 3 4 5 6 
#
# 1 0.011152 -0.004170 -0.000311 0.000000 0.000000 0.000000
# 2 -0.004170 0.012210 -0.002993 0.000000 0.000000 0.000000
# 3 -0.000311 -0.002993 0.009197 0.000000 0.000000 0.000000
# 4 0.000000 0.000000 0.000000 0.222194 0.000000 0.000000
# 5 0.000000 0.000000 0.000000 0.000000 0.014916 0.000000
# 6 0.000000 0.000000 0.000000 0.000000 0.000000 -1.315334
#
#
# Mechanical properties :
#
#
# Convention : Reuss Voigt Hill
#
# Bulk Modulus (GPa) = 56.78170 57.05506 56.91838
# Shear Modulus (GPa) = -4.87878 30.04049 12.58085
#
# Velocity S-wave (km/s) = -1.58765 3.93960 2.54950
# Velocity P-wave (km/s) = 5.09662 7.08319 6.17038
#
# Compressibility (1/GPa) = 0.01761131
#
# Stress axis : x y z
#
# Youngs Moduli (GPa) = 89.66645 81.89952 108.73089
#
# Poissons Ratio (x) = 0.34152 0.03378
# Poissons Ratio (y) = 0.37391 0.32548
# Poissons Ratio (z) = 0.02786 0.24516
#
# Static dielectric constant tensor:
#      x y z
#    x 1.596700 0.000000 0.000000 
#    y 0.000000 1.732920 0.000000 
#    z 0.000000 0.000000 1.686720 
# 
# From -- ./inp_files/62529.got.cif
#   From: 2010.05.17/outbox.cif.g08.bks.cpg/sg65_32_cif.got.tgz:62529.got - 2010.06.03 17:01:31.
