data_PCOD9493114
_publ_section_title
;
Structure prediction by ZEFSAII (Michael W. Deem and Ramdas Pophale) SiO2 
 PCOD9493114
Probable space group: C M M M
;
_chemical_formula_sum "Si O2"
_cell_formula_units_Z 64
_cell_length_a 10.893975
_cell_length_b 33.700469
_cell_length_c 8.898111
_cell_angle_alpha 90.000000
_cell_angle_beta 90.000000
_cell_angle_gamma 90.000000
_cell_volume 3266.781882
_symmetry_space_group_name_H-M "C M M M"
_symmetry_group_IT_number 65
_symmetry_cell_setting 'orthorhombic'
loop_
_space_group_symop_operation_xyz
x,y,z
-x,-y,z
x,-y,-z
-x,y,-z
-x,-y,-z
x,y,-z
-x,y,z
x,-y,z
1/2+x,1/2+y,z
1/2-x,1/2-y,z
1/2+x,1/2-y,-z
1/2-x,1/2+y,-z
1/2-x,1/2-y,-z
1/2+x,1/2+y,-z
1/2-x,1/2+y,z
1/2+x,1/2-y,z
loop_
_atom_site_type_symbol
_atom_site_label
_atom_site_fract_x
_atom_site_fract_y
_atom_site_fract_z
Si Si1 0.500000 0.047187 0.820789
Si Si2 0.748621 0.924163 0.320863
Si Si3 0.643168 0.500000 0.834765
Si Si4 0.500000 0.804556 0.819986
Si Si5 0.242489 0.165944 0.680802
Si Si6 0.000000 0.782945 0.681921
O O1 0.616048 0.068444 0.749456
O O2 0.500000 0.000000 0.783219
O O3 0.500000 0.050795 0.000000
O O4 0.744241 0.927711 0.500000
O O5 0.824646 0.960259 0.253218
O O6 0.790846 0.879727 0.283708
O O7 0.500000 0.500000 0.854370
O O8 0.706139 0.500000 0.000000
O O9 0.627234 0.823269 0.756622
O O10 0.500000 0.759125 0.763666
O O11 0.500000 0.807319 0.000000
O O12 0.259722 0.169137 0.500000
O O13 0.125729 0.193463 0.720523
O O14 0.000000 0.777487 0.500000
#
# Coordination Sequence:
#
# PCOD9493114 Si02
#       6
#     8  16   8   8  16   8
#     4  11  22  37  58  84 121 161 201 245 304 373
#     4  11  23  39  64  93 121 155 208 263 304 353
#     4  11  25  42  59  84 123 169 207 243 304 375
#     4  12  25  41  64  96 131 165 206 252 309 377
#     4  10  23  42  66  95 126 163 209 260 314 371
#     4  10  22  43  69  93 124 164 206 255 315 376
#
# _framework density 19.591145000000001
#
# number of rings (size 3 to 8) (size 9 to 14) (size 15 to 20)
#    0.000    1.250    1.250    4.125    1.750   10.500 
#    0.000    0.000    0.000    0.000    0.000    0.000 
#    0.000    0.000    0.000    0.000    0.000    0.000 
#
# Total GULP energy -178793.209534 kJ/mol
# GULP energy per Si atom -5587.287798 kJ/mol
# Density = 1.954655 g / cm^3
# Si number density = 19.591145 Si / 1000 Ang^3
#
#
#
# Elastic Constant Matrix: (Units=GPa)
#
#
# Indices 1 2 3 4 5 6 
#
# 1 117.4026 50.7965 37.4830 0.0000 0.0000 0.0000
# 2 50.7965 151.2691 62.0114 0.0000 0.0000 0.0000
# 3 37.4830 62.0114 69.4627 0.0000 0.0000 0.0000
# 4 0.0000 0.0000 0.0000 34.5404 0.0000 0.0000
# 5 0.0000 0.0000 0.0000 0.0000 18.4077 0.0000
# 6 0.0000 0.0000 0.0000 0.0000 0.0000 139.6375
#
#
#
# Elastic Compliance Matrix: (Units=1/GPa)
#
#
# Indices 1 2 3 4 5 6 
#
# 1 0.010633 -0.001922 -0.004022 0.000000 0.000000 0.000000
# 2 -0.001922 0.010774 -0.008581 0.000000 0.000000 0.000000
# 3 -0.004022 -0.008581 0.024227 0.000000 0.000000 0.000000
# 4 0.000000 0.000000 0.000000 0.028952 0.000000 0.000000
# 5 0.000000 0.000000 0.000000 0.000000 0.054325 0.000000
# 6 0.000000 0.000000 0.000000 0.000000 0.000000 0.007161
#
#
# Mechanical properties :
#
#
# Convention : Reuss Voigt Hill
#
# Bulk Modulus (GPa) = 60.29843 70.96846 65.63344
# Shear Modulus (GPa) = 29.29961 51.04004 40.16982
#
# Velocity S-wave (km/s) = 3.87143 5.10971 4.53305
# Velocity P-wave (km/s) = 7.12946 8.43301 7.80848
#
# Compressibility (1/GPa) = 0.01658418
#
# Stress axis : x y z
#
# Youngs Moduli (GPa) = 94.04337 92.81762 41.27590
#
# Poissons Ratio (x) = 0.17838 0.16602
# Poissons Ratio (y) = 0.18074 0.35419
# Poissons Ratio (z) = 0.37826 0.79647
#
# Static dielectric constant tensor:
#      x y z
#    x 1.538390 0.000000 0.000000 
#    y 0.000000 1.735480 0.000000 
#    z 0.000000 0.000000 1.661330 
# 
# From -- ./inp_files/5022.got.cif
#   From: 2010.05.17/outbox.cif.g08.bks.cpg/sg65_3_cif.got.tgz:5022.got - 2010.06.03 17:01:31.
