data_PCOD9493687
_publ_section_title
;
Structure prediction by ZEFSAII (Michael W. Deem and Ramdas Pophale) SiO2 
 PCOD9493687
Probable space group: C M M M
;
_chemical_formula_sum "Si O2"
_cell_formula_units_Z 56
_cell_length_a 18.573957
_cell_length_b 7.978568
_cell_length_c 19.202955
_cell_angle_alpha 90.000000
_cell_angle_beta 90.000000
_cell_angle_gamma 90.000000
_cell_volume 2845.754628
_symmetry_space_group_name_H-M "C M M M"
_symmetry_group_IT_number 65
_symmetry_cell_setting 'orthorhombic'
loop_
_space_group_symop_operation_xyz
x,y,z
-x,-y,z
x,-y,-z
-x,y,-z
-x,-y,-z
x,y,-z
-x,y,z
x,-y,z
1/2+x,1/2+y,z
1/2-x,1/2-y,z
1/2+x,1/2-y,-z
1/2-x,1/2+y,-z
1/2-x,1/2-y,-z
1/2+x,1/2+y,-z
1/2-x,1/2+y,z
1/2+x,1/2-y,z
loop_
_atom_site_type_symbol
_atom_site_label
_atom_site_fract_x
_atom_site_fract_y
_atom_site_fract_z
Si Si1 0.918855 0.199509 0.500000
Si Si2 0.332768 0.800705 0.637683
Si Si3 0.415929 0.794634 0.226459
Si Si4 0.086976 0.299601 0.074774
O O1 0.876419 0.249978 0.569225
O O2 0.000000 0.270149 0.500000
O O3 0.923413 0.000000 0.500000
O O4 0.250000 0.750000 0.632224
O O5 0.369854 0.733761 0.708226
O O6 0.335849 0.000000 0.642083
O O7 0.500000 0.747940 0.234913
O O8 0.388643 0.735802 0.150315
O O9 0.414452 0.000000 0.225205
O O10 0.100578 0.500000 0.073803
O O11 0.000000 0.280384 0.075575
O O12 0.113024 0.230646 0.000000
#
# Coordination Sequence:
#
# PCOD9493687 Si02
#       4
#     8  16  16  16
#     4  11  24  41  60  81 103 125 156 201 250 301
#     4  11  22  36  54  75 103 137 171 206 246 294
#     4   8  14  25  43  68  95 125 164 207 249 294
#     4   7   9  15  31  58  91 122 153 196 248 293
#
# _framework density 19.678436999999999
#
# number of rings (size 3 to 8) (size 9 to 14) (size 15 to 20)
#    0.000    3.000    0.000    5.143    0.000    2.286 
#    0.000    0.000    0.000    0.857    0.000    0.000 
#    0.000    3.429    0.000   32.286    0.000   26.571 
#
# Total GULP energy -156006.254107 kJ/mol
# GULP energy per Si atom -5571.651932 kJ/mol
# Density = 1.963365 g / cm^3
# Si number density = 19.678437 Si / 1000 Ang^3
#
#
#
# Elastic Constant Matrix: (Units=GPa)
#
#
# Indices 1 2 3 4 5 6 
#
# 1 106.7821 8.2215 103.7580 0.0000 0.0000 0.0000
# 2 8.2215 23.5822 16.8557 0.0000 0.0000 0.0000
# 3 103.7580 16.8557 262.7219 0.0000 0.0000 0.0000
# 4 0.0000 0.0000 0.0000 -17.5427 0.0000 0.0000
# 5 0.0000 0.0000 0.0000 0.0000 -8.3111 0.0000
# 6 0.0000 0.0000 0.0000 0.0000 0.0000 -16.6906
#
#
#
# Elastic Compliance Matrix: (Units=1/GPa)
#
#
# Indices 1 2 3 4 5 6 
#
# 1 0.015222 -0.001058 -0.005944 0.000000 0.000000 0.000000
# 2 -0.001058 0.044516 -0.002438 0.000000 0.000000 0.000000
# 3 -0.005944 -0.002438 0.006310 0.000000 0.000000 0.000000
# 4 0.000000 0.000000 0.000000 -0.057004 0.000000 0.000000
# 5 0.000000 0.000000 0.000000 0.000000 -0.120322 0.000000
# 6 0.000000 0.000000 0.000000 0.000000 0.000000 -0.059914
#
#
# Mechanical properties :
#
#
# Convention : Reuss Voigt Hill
#
# Bulk Modulus (GPa) = 21.20086 72.30629 46.75358
# Shear Modulus (GPa) = -36.60647 9.10785 -13.74931
#
# Velocity S-wave (km/s) = -4.31772 2.15369 -2.64616
# Velocity P-wave (km/s) = 3.74965 6.55806 3.80449
#
# Compressibility (1/GPa) = 0.04716790
#
# Stress axis : x y z
#
# Youngs Moduli (GPa) = 65.69562 22.46358 158.47634
#
# Poissons Ratio (x) = 0.02378 0.94193
# Poissons Ratio (y) = 0.06954 0.38637
# Poissons Ratio (z) = 0.39047 0.05477
#
# Static dielectric constant tensor:
#      x y z
#    x 1.717900 0.000000 0.000000 
#    y 0.000000 1.693550 0.000000 
#    z 0.000000 0.000000 1.767530 
# 
# From -- ./inp_files/48764.got.cif
#   From: 2010.05.17/outbox.cif.g08.bks.cpg/sg65_25_cif.got.tgz:48764.got - 2010.06.03 17:01:31.
