data_PCOD9493773
_publ_section_title
;
Structure prediction by ZEFSAII (Michael W. Deem and Ramdas Pophale) SiO2 
 PCOD9493773
Probable space group: C M M M
;
_chemical_formula_sum "Si O2"
_cell_formula_units_Z 64
_cell_length_a 7.730852
_cell_length_b 18.250135
_cell_length_c 22.868816
_cell_angle_alpha 90.000000
_cell_angle_beta 90.000000
_cell_angle_gamma 90.000000
_cell_volume 3226.540500
_symmetry_space_group_name_H-M "C M M M"
_symmetry_group_IT_number 65
_symmetry_cell_setting 'orthorhombic'
loop_
_space_group_symop_operation_xyz
x,y,z
-x,-y,z
x,-y,-z
-x,y,-z
-x,-y,-z
x,y,-z
-x,y,z
x,-y,z
1/2+x,1/2+y,z
1/2-x,1/2-y,z
1/2+x,1/2-y,-z
1/2-x,1/2+y,-z
1/2-x,1/2-y,-z
1/2+x,1/2+y,-z
1/2-x,1/2+y,z
1/2+x,1/2-y,z
loop_
_atom_site_type_symbol
_atom_site_label
_atom_site_fract_x
_atom_site_fract_y
_atom_site_fract_z
Si Si1 0.500000 0.413246 0.569668
Si Si2 0.706689 0.163947 0.644071
Si Si3 0.289281 0.915971 0.234768
Si Si4 0.295124 0.582166 0.000000
Si Si5 0.795694 0.664738 0.119181
O O1 0.500000 0.500000 0.582516
O O2 0.500000 0.403102 0.500000
O O3 0.670352 0.376385 0.597683
O O4 0.500000 0.153515 0.634100
O O5 0.750000 0.250000 0.643729
O O6 0.752854 0.129915 0.707409
O O7 0.500000 0.917921 0.232353
O O8 0.222472 0.877075 0.175921
O O9 0.229791 0.000000 0.238734
O O10 0.249105 0.625786 0.058507
O O11 0.218749 0.500000 0.000000
O O12 0.500000 0.575599 0.000000
O O13 0.750000 0.750000 0.118406
O O14 0.000000 0.660378 0.124892
#
# Coordination Sequence:
#
# PCOD9493773 Si02
#       5
#     8  16  16   8  16
#     4  11  26  46  68 100 137 174 224 274 324 394
#     4  11  22  42  68  99 135 176 219 274 328 389
#     4   9  19  36  61  91 124 161 207 258 315 377
#     4  11  24  41  58  81 115 149 198 255 310 375
#     4  11  22  38  60  85 117 158 201 252 308 372
#
# _framework density 19.835486
#
# number of rings (size 3 to 8) (size 9 to 14) (size 15 to 20)
#    0.000    1.500    1.250    3.750    0.000    4.500 
#    4.500    1.250    0.000    0.000    0.000    0.000 
#    0.000    0.000    0.000    0.000    0.000    0.000 
#
# Total GULP energy -178842.620431 kJ/mol
# GULP energy per Si atom -5588.831888 kJ/mol
# Density = 1.979034 g / cm^3
# Si number density = 19.835486 Si / 1000 Ang^3
#
#
#
# Elastic Constant Matrix: (Units=GPa)
#
#
# Indices 1 2 3 4 5 6 
#
# 1 94.3948 49.3391 56.0255 0.0000 0.0000 0.0000
# 2 49.3391 213.1393 123.8629 0.0000 0.0000 0.0000
# 3 56.0255 123.8629 172.7072 0.0000 0.0000 0.0000
# 4 0.0000 0.0000 0.0000 61.4143 0.0000 0.0000
# 5 0.0000 0.0000 0.0000 0.0000 -123.7316 0.0000
# 6 0.0000 0.0000 0.0000 0.0000 0.0000 -42.2135
#
#
#
# Elastic Compliance Matrix: (Units=1/GPa)
#
#
# Indices 1 2 3 4 5 6 
#
# 1 0.013237 -0.000975 -0.003595 0.000000 0.000000 0.000000
# 2 -0.000975 0.008116 -0.005505 0.000000 0.000000 0.000000
# 3 -0.003595 -0.005505 0.010904 0.000000 0.000000 0.000000
# 4 0.000000 0.000000 0.000000 0.016283 0.000000 0.000000
# 5 0.000000 0.000000 0.000000 0.000000 -0.008082 0.000000
# 6 0.000000 0.000000 0.000000 0.000000 0.000000 -0.023689
#
#
# Mechanical properties :
#
#
# Convention : Reuss Voigt Hill
#
# Bulk Modulus (GPa) = 82.58608 104.29960 93.44284
# Shear Modulus (GPa) = 122.08680 -4.17190 58.95745
#
# Velocity S-wave (km/s) = 7.85387 -1.45183 5.45782
# Velocity P-wave (km/s) = 11.13420 7.06301 9.32353
#
# Compressibility (1/GPa) = 0.01210858
#
# Stress axis : x y z
#
# Youngs Moduli (GPa) = 75.54559 123.20626 91.70901
#
# Poissons Ratio (x) = 0.12016 0.32966
# Poissons Ratio (y) = 0.07368 0.50482
# Poissons Ratio (z) = 0.27156 0.67821
#
# Static dielectric constant tensor:
#      x y z
#    x 1.707610 0.000000 0.000000 
#    y 0.000000 1.602760 0.000000 
#    z 0.000000 0.000000 1.778610 
# 
# From -- ./inp_files/66754.got.cif
#   From: 2010.05.17/outbox.cif.g08.bks.cpg/sg65_34_cif.got.tgz:66754.got - 2010.06.03 17:01:31.
