data_PCOD9493041
_publ_section_title
;
Structure prediction by ZEFSAII (Michael W. Deem and Ramdas Pophale) SiO2 
 PCOD9493041
Probable space group: C M M M
;
_chemical_formula_sum "Si O2"
_cell_formula_units_Z 96
_cell_length_a 14.865728
_cell_length_b 20.149002
_cell_length_c 15.820187
_cell_angle_alpha 90.000000
_cell_angle_beta 90.000000
_cell_angle_gamma 90.000000
_cell_volume 4738.614018
_symmetry_space_group_name_H-M "C M M M"
_symmetry_group_IT_number 65
_symmetry_cell_setting 'orthorhombic'
loop_
_space_group_symop_operation_xyz
x,y,z
-x,-y,z
x,-y,-z
-x,y,-z
-x,-y,-z
x,y,-z
-x,y,z
x,-y,z
1/2+x,1/2+y,z
1/2-x,1/2-y,z
1/2+x,1/2-y,-z
1/2-x,1/2+y,-z
1/2-x,1/2-y,-z
1/2+x,1/2+y,-z
1/2-x,1/2+y,z
1/2+x,1/2-y,z
loop_
_atom_site_type_symbol
_atom_site_label
_atom_site_fract_x
_atom_site_fract_y
_atom_site_fract_z
Si Si1 0.260853 0.924477 0.122808
Si Si2 0.901640 0.225062 0.268989
Si Si3 0.603448 0.500000 0.601014
Si Si4 0.773422 0.106434 0.312561
Si Si5 0.846925 0.713718 0.092670
Si Si6 0.900065 0.345301 0.401023
Si Si7 0.398447 0.420114 0.000000
O O1 0.250930 0.924934 0.222923
O O2 0.328989 0.865432 0.099708
O O3 0.282527 0.000000 0.095132
O O4 0.164992 0.904278 0.080101
O O5 0.819625 0.176048 0.287552
O O6 0.893446 0.259537 0.177218
O O7 0.899311 0.280666 0.341609
O O8 0.000000 0.191203 0.272913
O O9 0.500000 0.500000 0.627613
O O10 0.607883 0.500000 0.500000
O O11 0.654179 0.563414 0.637969
O O12 0.683961 0.112813 0.368266
O O13 0.750000 0.750000 0.093087
O O14 0.887831 0.728013 0.000000
O O15 0.889054 0.328893 0.500000
O O16 0.000000 0.376201 0.391080
O O17 0.406835 0.500000 0.000000
O O18 0.500000 0.392727 0.000000
#
# Coordination Sequence:
#
# PCOD9493041 Si02
#       7
#    16  16   8  16  16  16   8
#     4  11  21  37  60  89 123 170 216 262 325 395
#     4  11  23  39  62  93 129 168 217 271 328 399
#     4  11  26  44  63  94 134 176 222 266 321 401
#     4  12  22  41  64  90 128 175 215 264 331 390
#     4  11  21  38  61  87 124 170 216 271 325 385
#     4  10  22  40  65  95 123 158 212 276 336 395
#     4   9  20  36  55  88 131 167 211 265 314 385
#
# _framework density 20.259087999999998
#
# number of rings (size 3 to 8) (size 9 to 14) (size 15 to 20)
#    0.000    1.167    5.000    1.500    0.000    3.667 
#    0.000    2.083    0.000    3.000    0.000    1.167 
#    0.000    0.000    0.000    0.000    0.000    0.000 
#
# Total GULP energy -268013.195750 kJ/mol
# GULP energy per Si atom -5583.608245 kJ/mol
# Density = 2.021298 g / cm^3
# Si number density = 20.259088 Si / 1000 Ang^3
#
#
#
# Elastic Constant Matrix: (Units=GPa)
#
#
# Indices 1 2 3 4 5 6 
#
# 1 113.4861 41.4922 64.2515 0.0000 0.0000 0.0000
# 2 41.4922 75.2204 29.5389 0.0000 0.0000 0.0000
# 3 64.2515 29.5389 163.0844 0.0000 0.0000 0.0000
# 4 0.0000 0.0000 0.0000 22.6125 0.0000 0.0000
# 5 0.0000 0.0000 0.0000 0.0000 96.9540 0.0000
# 6 0.0000 0.0000 0.0000 0.0000 0.0000 1.5908
#
#
#
# Elastic Compliance Matrix: (Units=1/GPa)
#
#
# Indices 1 2 3 4 5 6 
#
# 1 0.013260 -0.005666 -0.004198 0.000000 0.000000 0.000000
# 2 -0.005666 0.016733 -0.000799 0.000000 0.000000 0.000000
# 3 -0.004198 -0.000799 0.007930 0.000000 0.000000 0.000000
# 4 0.000000 0.000000 0.000000 0.044223 0.000000 0.000000
# 5 0.000000 0.000000 0.000000 0.000000 0.010314 0.000000
# 6 0.000000 0.000000 0.000000 0.000000 0.000000 0.628609
#
#
# Mechanical properties :
#
#
# Convention : Reuss Voigt Hill
#
# Bulk Modulus (GPa) = 60.24526 69.15069 64.69797
# Shear Modulus (GPa) = 6.68514 38.66536 22.67525
#
# Velocity S-wave (km/s) = 1.81851 4.37343 3.34917
# Velocity P-wave (km/s) = 5.84904 7.72721 6.85277
#
# Compressibility (1/GPa) = 0.01659882
#
# Stress axis : x y z
#
# Youngs Moduli (GPa) = 75.41602 59.76158 126.09858
#
# Poissons Ratio (x) = 0.33859 0.52934
# Poissons Ratio (y) = 0.42729 0.10071
# Poissons Ratio (z) = 0.31658 0.04773
#
# Static dielectric constant tensor:
#      x y z
#    x 1.724630 0.000000 0.000000 
#    y 0.000000 1.732460 0.000000 
#    z 0.000000 0.000000 1.702230 
# 
# From -- ./inp_files/40418.got.cif
#   From: 2010.05.17/outbox.cif.g08.bks.cpg/sg65_21_cif.got.tgz:40418.got - 2010.06.03 17:01:31.
