data_PCOD9493633
_publ_section_title
;
Structure prediction by ZEFSAII (Michael W. Deem and Ramdas Pophale) SiO2 
 PCOD9493633
Probable space group: C M M M
;
_chemical_formula_sum "Si O2"
_cell_formula_units_Z 72
_cell_length_a 10.293680
_cell_length_b 23.072665
_cell_length_c 19.797945
_cell_angle_alpha 90.000000
_cell_angle_beta 90.000000
_cell_angle_gamma 90.000000
_cell_volume 4702.064011
_symmetry_space_group_name_H-M "C M M M"
_symmetry_group_IT_number 65
_symmetry_cell_setting 'orthorhombic'
loop_
_space_group_symop_operation_xyz
x,y,z
-x,-y,z
x,-y,-z
-x,y,-z
-x,-y,-z
x,y,-z
-x,y,z
x,-y,z
1/2+x,1/2+y,z
1/2-x,1/2-y,z
1/2+x,1/2-y,-z
1/2-x,1/2+y,-z
1/2-x,1/2-y,-z
1/2+x,1/2+y,-z
1/2-x,1/2+y,z
1/2+x,1/2-y,z
loop_
_atom_site_type_symbol
_atom_site_label
_atom_site_fract_x
_atom_site_fract_y
_atom_site_fract_z
Si Si1 0.000000 0.815884 0.080678
Si Si2 0.000000 0.323005 0.079177
Si Si3 0.657189 0.930252 0.277846
Si Si4 0.348791 0.500000 0.080593
Si Si5 0.753886 0.119086 0.858665
Si Si6 0.655704 0.930493 0.427485
O O1 0.000000 0.746524 0.084875
O O2 0.124696 0.842183 0.118233
O O3 0.000000 0.831888 0.000000
O O4 0.873788 0.350118 0.113239
O O5 0.000000 0.337510 0.000000
O O6 0.500000 0.922506 0.271432
O O7 0.731167 0.895121 0.220040
O O8 0.699808 0.911067 0.353352
O O9 0.679614 0.000000 0.270907
O O10 0.500000 0.500000 0.103629
O O11 0.277842 0.443063 0.106960
O O12 0.349384 0.500000 0.000000
O O13 0.706842 0.907947 0.500000
O O14 0.500000 0.921564 0.427874
O O15 0.675138 0.000000 0.427798
#
# Coordination Sequence:
#
# PCOD9493633 Si02
#       6
#     8   8  16   8  16  16
#     4  11  24  41  55  67  92 132 178 220 253 292
#     4  11  24  39  55  73  92 124 174 224 261 290
#     4   9  16  27  42  70 106 131 155 198 248 293
#     4  11  22  35  51  73 102 133 164 200 247 313
#     4  12  21  35  54  75 101 130 164 207 258 304
#     4   7  10  18  35  59  93 134 163 183 222 285
#
# _framework density 15.312424
#
# number of rings (size 3 to 8) (size 9 to 14) (size 15 to 20)
#    0.000    2.111    3.333    4.667    0.000    2.222 
#    0.000    1.111    0.000    0.000    0.000    0.778 
#    0.000    9.778    0.000    0.000    0.000    0.000 
#
# Total GULP energy -200464.371202 kJ/mol
# GULP energy per Si atom -5568.454756 kJ/mol
# Density = 1.527757 g / cm^3
# Si number density = 15.312424 Si / 1000 Ang^3
#
#
#
# Elastic Constant Matrix: (Units=GPa)
#
#
# Indices 1 2 3 4 5 6 
#
# 1 89.2990 34.9839 54.3796 0.0000 0.0000 0.0000
# 2 34.9839 56.8310 46.9389 0.0000 0.0000 0.0000
# 3 54.3796 46.9389 181.4486 0.0000 0.0000 0.0000
# 4 0.0000 0.0000 0.0000 74.0000 0.0000 0.0000
# 5 0.0000 0.0000 0.0000 0.0000 18.6009 0.0000
# 6 0.0000 0.0000 0.0000 0.0000 0.0000 -6.8288
#
#
#
# Elastic Compliance Matrix: (Units=1/GPa)
#
#
# Indices 1 2 3 4 5 6 
#
# 1 0.015820 -0.007405 -0.002826 0.000000 0.000000 0.000000
# 2 -0.007405 0.025843 -0.004466 0.000000 0.000000 0.000000
# 3 -0.002826 -0.004466 0.007513 0.000000 0.000000 0.000000
# 4 0.000000 0.000000 0.000000 0.013514 0.000000 0.000000
# 5 0.000000 0.000000 0.000000 0.000000 0.053761 0.000000
# 6 0.000000 0.000000 0.000000 0.000000 0.000000 -0.146440
#
#
# Mechanical properties :
#
#
# Convention : Reuss Voigt Hill
#
# Bulk Modulus (GPa) = 50.54747 66.68705 58.61726
# Shear Modulus (GPa) = 833.56151 29.90616 431.73384
#
# Velocity S-wave (km/s) = 23.35704 4.42414 16.80958
# Velocity P-wave (km/s) = 27.57687 8.35122 20.37433
#
# Compressibility (1/GPa) = 0.01978338
#
# Stress axis : x y z
#
# Youngs Moduli (GPa) = 63.21158 38.69536 133.09525
#
# Poissons Ratio (x) = 0.28652 0.37609
# Poissons Ratio (y) = 0.46805 0.59443
# Poissons Ratio (z) = 0.17862 0.17282
#
# Static dielectric constant tensor:
#      x y z
#    x 1.500660 0.000000 0.000000 
#    y 0.000000 1.486300 0.000000 
#    z 0.000000 0.000000 1.551580 
# 
# From -- ./inp_files/59355.got.cif
#   From: 2010.05.17/outbox.cif.g08.bks.cpg/sg65_30_cif.got.tgz:59355.got - 2010.06.03 17:01:31.
