data_PCOD9493865
_publ_section_title
;
Structure prediction by ZEFSAII (Michael W. Deem and Ramdas Pophale) SiO2 
 PCOD9493865
Probable space group: C M M M
;
_chemical_formula_sum "Si O2"
_cell_formula_units_Z 64
_cell_length_a 16.236563
_cell_length_b 18.223198
_cell_length_c 10.720570
_cell_angle_alpha 90.000000
_cell_angle_beta 90.000000
_cell_angle_gamma 90.000000
_cell_volume 3172.024790
_symmetry_space_group_name_H-M "C M M M"
_symmetry_group_IT_number 65
_symmetry_cell_setting 'orthorhombic'
loop_
_space_group_symop_operation_xyz
x,y,z
-x,-y,z
x,-y,-z
-x,y,-z
-x,-y,-z
x,y,-z
-x,y,z
x,-y,z
1/2+x,1/2+y,z
1/2-x,1/2-y,z
1/2+x,1/2-y,-z
1/2-x,1/2+y,-z
1/2-x,1/2-y,-z
1/2+x,1/2+y,-z
1/2-x,1/2+y,z
1/2+x,1/2-y,z
loop_
_atom_site_type_symbol
_atom_site_label
_atom_site_fract_x
_atom_site_fract_y
_atom_site_fract_z
Si Si1 0.097414 0.154378 0.243386
Si Si2 0.849323 0.755609 0.000000
Si Si3 0.166002 0.500000 0.303804
Si Si4 0.901141 0.388948 0.500000
Si Si5 0.344150 0.724706 0.500000
Si Si6 0.000000 0.500000 0.838594
Si Si7 0.000000 0.642070 0.000000
Si Si8 0.835846 0.000000 0.152323
O O1 0.136642 0.178905 0.374789
O O2 0.000000 0.164609 0.255000
O O3 0.117798 0.071773 0.202203
O O4 0.129356 0.202303 0.127637
O O5 0.750000 0.750000 0.000000
O O6 0.915241 0.688497 0.000000
O O7 0.148612 0.572650 0.386863
O O8 0.088806 0.500000 0.216992
O O9 0.248017 0.500000 0.222937
O O10 0.894751 0.301404 0.500000
O O11 0.000000 0.409501 0.500000
O O12 0.250000 0.750000 0.500000
O O13 0.000000 0.416793 0.890678
O O14 0.829434 0.000000 0.000000
#
# Coordination Sequence:
#
# PCOD9493865 Si02
#       8
#    16   8   8   8   8   4   4   8
#     4  12  26  49  74 109 141 197 251 306 381 447
#     4  12  27  46  74 106 148 200 253 310 376 448
#     4  11  24  43  66 106 139 193 247 296 381 444
#     4  11  22  44  71 101 145 196 239 301 373 468
#     4  12  27  46  75 112 148 190 244 310 379 446
#     4  11  26  39  68 102 148 189 243 306 376 445
#     4  11  28  44  66 105 154 192 250 319 374 444
#     4  12  28  46  75 100 148 192 252 316 371 455
#
# _framework density 20.176386999999998
#
# number of rings (size 3 to 8) (size 9 to 14) (size 15 to 20)
#    0.000    0.375    3.750    4.125    8.750    2.000 
#    0.000    1.250    0.000    0.000    0.000    0.000 
#    0.000    0.000    0.000    0.000    0.000    0.000 
#
# Total GULP energy -178485.985563 kJ/mol
# GULP energy per Si atom -5577.687049 kJ/mol
# Density = 2.013047 g / cm^3
# Si number density = 20.176387 Si / 1000 Ang^3
#
#
#
# Elastic Constant Matrix: (Units=GPa)
#
#
# Indices 1 2 3 4 5 6 
#
# 1 177.5524 43.2751 79.2987 0.0000 0.0000 0.0000
# 2 43.2751 154.1525 78.4388 0.0000 0.0000 0.0000
# 3 79.2987 78.4388 158.6738 0.0000 0.0000 0.0000
# 4 0.0000 0.0000 0.0000 68.4414 0.0000 0.0000
# 5 0.0000 0.0000 0.0000 0.0000 4.4711 0.0000
# 6 0.0000 0.0000 0.0000 0.0000 0.0000 -11.2175
#
#
#
# Elastic Compliance Matrix: (Units=1/GPa)
#
#
# Indices 1 2 3 4 5 6 
#
# 1 0.007258 -0.000256 -0.003501 0.000000 0.000000 0.000000
# 2 -0.000256 0.008676 -0.004161 0.000000 0.000000 0.000000
# 3 -0.003501 -0.004161 0.010109 0.000000 0.000000 0.000000
# 4 0.000000 0.000000 0.000000 0.014611 0.000000 0.000000
# 5 0.000000 0.000000 0.000000 0.000000 0.223659 0.000000
# 6 0.000000 0.000000 0.000000 0.000000 0.000000 -0.089147
#
#
# Mechanical properties :
#
#
# Convention : Reuss Voigt Hill
#
# Bulk Modulus (GPa) = 97.96929 99.15598 98.56263
# Shear Modulus (GPa) = 25.71963 31.63008 28.67486
#
# Velocity S-wave (km/s) = 3.57422 3.96369 3.77398
# Velocity P-wave (km/s) = 8.10526 8.37848 8.24300
#
# Compressibility (1/GPa) = 0.01020728
#
# Stress axis : x y z
#
# Youngs Moduli (GPa) = 137.77821 115.25674 98.92579
#
# Poissons Ratio (x) = 0.02954 0.34630
# Poissons Ratio (y) = 0.03532 0.41162
# Poissons Ratio (z) = 0.48230 0.47958
#
# Static dielectric constant tensor:
#      x y z
#    x 1.699340 0.000000 0.000000 
#    y 0.000000 1.718060 0.000000 
#    z 0.000000 0.000000 1.853910 
# 
# From -- ./inp_files/24052.got.cif
#   From: 2010.05.17/outbox.cif.g08.bks.cpg/sg65_13_cif.got.tgz:24052.got - 2010.06.03 17:01:31.
