data_PCOD9493466
_publ_section_title
;
Structure prediction by ZEFSAII (Michael W. Deem and Ramdas Pophale) SiO2 
 PCOD9493466
Probable space group: C M M M
;
_chemical_formula_sum "Si O2"
_cell_formula_units_Z 72
_cell_length_a 30.253235
_cell_length_b 14.331598
_cell_length_c 7.757940
_cell_angle_alpha 90.000000
_cell_angle_beta 90.000000
_cell_angle_gamma 90.000000
_cell_volume 3363.665920
_symmetry_space_group_name_H-M "C M M M"
_symmetry_group_IT_number 65
_symmetry_cell_setting 'orthorhombic'
loop_
_space_group_symop_operation_xyz
x,y,z
-x,-y,z
x,-y,-z
-x,y,-z
-x,-y,-z
x,y,-z
-x,y,z
x,-y,z
1/2+x,1/2+y,z
1/2-x,1/2-y,z
1/2+x,1/2-y,-z
1/2-x,1/2+y,-z
1/2-x,1/2-y,-z
1/2+x,1/2+y,-z
1/2-x,1/2+y,z
1/2+x,1/2-y,z
loop_
_atom_site_type_symbol
_atom_site_label
_atom_site_fract_x
_atom_site_fract_y
_atom_site_fract_z
Si Si1 0.686643 0.202342 0.203707
Si Si2 0.000000 0.391304 0.710470
Si Si3 0.274954 0.604055 0.788738
Si Si4 0.448825 0.395035 0.208409
Si Si5 0.410980 0.202922 0.299626
O O1 0.695539 0.307861 0.269792
O O2 0.725053 0.132900 0.265774
O O3 0.636422 0.173223 0.230464
O O4 0.694008 0.207915 0.000000
O O5 0.044910 0.343855 0.776671
O O6 0.000000 0.500000 0.750367
O O7 0.000000 0.381139 0.500000
O O8 0.286738 0.500000 0.729342
O O9 0.276802 0.601295 0.000000
O O10 0.500000 0.378074 0.261450
O O11 0.436796 0.500000 0.262390
O O12 0.418140 0.313386 0.275709
O O13 0.447719 0.392685 0.000000
O O14 0.410367 0.179879 0.500000
#
# Coordination Sequence:
#
# PCOD9493466 Si02
#       5
#    16   8  16  16  16
#     4   9  18  32  52  78 103 131 170 214 260 312
#     4   9  20  38  54  69  98 144 189 219 252 305
#     4   8  15  31  54  76 100 132 169 210 259 315
#     4   9  18  33  53  75 100 133 171 212 260 311
#     4  11  21  34  53  77 106 141 179 220 263 306
#
# _framework density 21.405218000000001
#
# number of rings (size 3 to 8) (size 9 to 14) (size 15 to 20)
#    0.000    2.778    1.111    2.667    0.000    2.222 
#    0.000    5.556    0.000    6.000    0.000    0.000 
#    0.000    0.000    0.000    0.000    0.000    0.000 
#
# Total GULP energy -200813.176319 kJ/mol
# GULP energy per Si atom -5578.143787 kJ/mol
# Density = 2.135650 g / cm^3
# Si number density = 21.405218 Si / 1000 Ang^3
#
#
#
# Elastic Constant Matrix: (Units=GPa)
#
#
# Indices 1 2 3 4 5 6 
#
# 1 97.3036 10.3069 -0.7779 0.0000 0.0000 0.0000
# 2 10.3069 55.2172 -2.0085 0.0000 0.0000 0.0000
# 3 -0.7779 -2.0085 20.1565 0.0000 0.0000 0.0000
# 4 0.0000 0.0000 0.0000 9.4113 0.0000 0.0000
# 5 0.0000 0.0000 0.0000 0.0000 -91.8710 0.0000
# 6 0.0000 0.0000 0.0000 0.0000 0.0000 8.4396
#
#
#
# Elastic Compliance Matrix: (Units=1/GPa)
#
#
# Indices 1 2 3 4 5 6 
#
# 1 0.010485 -0.001950 0.000210 0.000000 0.000000 0.000000
# 2 -0.001950 0.018539 0.001772 0.000000 0.000000 0.000000
# 3 0.000210 0.001772 0.049797 0.000000 0.000000 0.000000
# 4 0.000000 0.000000 0.000000 0.106255 0.000000 0.000000
# 5 0.000000 0.000000 0.000000 0.000000 -0.010885 0.000000
# 6 0.000000 0.000000 0.000000 0.000000 0.000000 0.118488
#
#
# Mechanical properties :
#
#
# Convention : Reuss Voigt Hill
#
# Bulk Modulus (GPa) = 12.67646 20.85758 16.76702
# Shear Modulus (GPa) = 15.67846 -3.79356 5.94245
#
# Velocity S-wave (km/s) = 2.70934 -1.33271 1.66799
# Velocity P-wave (km/s) = 3.96514 2.71977 3.39996
#
# Compressibility (1/GPa) = 0.07888636
#
# Stress axis : x y z
#
# Youngs Moduli (GPa) = 95.37160 53.94135 20.08173
#
# Poissons Ratio (x) = 0.10516 -0.00423
# Poissons Ratio (y) = 0.18593 -0.03559
# Poissons Ratio (z) = -0.02007 -0.09559
#
# Static dielectric constant tensor:
#      x y z
#    x 1.781880 0.000000 0.000000 
#    y 0.000000 1.765870 0.000000 
#    z 0.000000 0.000000 1.802400 
# 
# From -- ./inp_files/7207.got.cif
#   From: 2010.05.17/outbox.cif.g08.bks.cpg/sg65_4_cif.got.tgz:7207.got - 2010.06.03 17:01:31.
