data_PCOD9493745
_publ_section_title
;
Structure prediction by ZEFSAII (Michael W. Deem and Ramdas Pophale) SiO2 
 PCOD9493745
Probable space group: C M M M
;
_chemical_formula_sum "Si O2"
_cell_formula_units_Z 72
_cell_length_a 7.601812
_cell_length_b 15.563980
_cell_length_c 26.779687
_cell_angle_alpha 90.000000
_cell_angle_beta 90.000000
_cell_angle_gamma 90.000000
_cell_volume 3168.423937
_symmetry_space_group_name_H-M "C M M M"
_symmetry_group_IT_number 65
_symmetry_cell_setting 'orthorhombic'
loop_
_space_group_symop_operation_xyz
x,y,z
-x,-y,z
x,-y,-z
-x,y,-z
-x,-y,-z
x,y,-z
-x,y,z
x,-y,z
1/2+x,1/2+y,z
1/2-x,1/2-y,z
1/2+x,1/2-y,-z
1/2-x,1/2+y,-z
1/2-x,1/2-y,-z
1/2+x,1/2+y,-z
1/2-x,1/2+y,z
1/2+x,1/2-y,z
loop_
_atom_site_type_symbol
_atom_site_label
_atom_site_fract_x
_atom_site_fract_y
_atom_site_fract_z
Si Si1 0.291258 0.104805 0.839461
Si Si2 0.786863 0.603071 0.053515
Si Si3 0.707172 0.343837 0.624101
Si Si4 0.783577 0.000000 0.557378
Si Si5 0.290256 0.097740 0.732773
O O1 0.500000 0.123714 0.840981
O O2 0.218228 0.135676 0.892909
O O3 0.219689 0.133969 0.785582
O O4 0.275154 0.000000 0.838400
O O5 0.753272 0.500000 0.053303
O O6 0.000000 0.612022 0.053670
O O7 0.721752 0.637613 0.000000
O O8 0.500000 0.355043 0.624723
O O9 0.750000 0.250000 0.604758
O O10 0.779393 0.417774 0.588563
O O11 0.762835 0.352688 0.681662
O O12 0.727628 0.000000 0.500000
O O13 0.000000 0.000000 0.556827
O O14 0.500000 0.091729 0.739508
O O15 0.222492 0.000000 0.725569
#
# Coordination Sequence:
#
# PCOD9493745 Si02
#       5
#    16  16  16   8  16
#     4   7  10  16  28  50  80 118 161 203 251 303
#     4   7   8  10  18  36  68 110 153 196 243 296
#     4  11  22  37  58  84 112 144 181 220 263 312
#     4   9  20  40  63  85 113 147 178 213 260 310
#     4   9  16  28  48  72 102 138 176 219 265 314
#
# _framework density 22.724231
#
# number of rings (size 3 to 8) (size 9 to 14) (size 15 to 20)
#    0.000    3.444    1.111    4.000    0.000    0.444 
#    0.000    0.000    0.000    4.667    0.000    0.000 
#    0.000    1.778    0.000   10.222    0.000   11.556 
#
# Total GULP energy -200603.526930 kJ/mol
# GULP energy per Si atom -5572.320193 kJ/mol
# Density = 2.267251 g / cm^3
# Si number density = 22.724231 Si / 1000 Ang^3
#
#
#
# Elastic Constant Matrix: (Units=GPa)
#
#
# Indices 1 2 3 4 5 6 
#
# 1 48.1620 -3.3910 11.2555 0.0000 0.0000 0.0000
# 2 -3.3910 82.2882 71.2805 0.0000 0.0000 0.0000
# 3 11.2555 71.2805 231.9652 0.0000 0.0000 0.0000
# 4 0.0000 0.0000 0.0000 -15.5426 0.0000 0.0000
# 5 0.0000 0.0000 0.0000 0.0000 8.2223 0.0000
# 6 0.0000 0.0000 0.0000 0.0000 0.0000 -30.5711
#
#
#
# Elastic Compliance Matrix: (Units=1/GPa)
#
#
# Indices 1 2 3 4 5 6 
#
# 1 0.021350 0.002422 -0.001780 0.000000 0.000000 0.000000
# 2 0.002422 0.016835 -0.005291 0.000000 0.000000 0.000000
# 3 -0.001780 -0.005291 0.006023 0.000000 0.000000 0.000000
# 4 0.000000 0.000000 0.000000 -0.064339 0.000000 0.000000
# 5 0.000000 0.000000 0.000000 0.000000 0.121621 0.000000
# 6 0.000000 0.000000 0.000000 0.000000 0.000000 -0.032711
#
#
# Mechanical properties :
#
#
# Convention : Reuss Voigt Hill
#
# Bulk Modulus (GPa) = 28.64513 57.85616 43.25064
# Shear Modulus (GPa) = 55.73267 11.30641 33.51954
#
# Velocity S-wave (km/s) = 4.95771 2.23300 3.84481
# Velocity P-wave (km/s) = 6.73831 5.67131 6.22770
#
# Compressibility (1/GPa) = 0.03490995
#
# Stress axis : x y z
#
# Youngs Moduli (GPa) = 46.83890 59.39909 166.02513
#
# Poissons Ratio (x) = -0.14385 0.29555
# Poissons Ratio (y) = -0.11344 0.87841
# Poissons Ratio (z) = 0.08338 0.31427
#
# Static dielectric constant tensor:
#      x y z
#    x 1.873780 0.000000 0.000000 
#    y 0.000000 1.851840 0.000000 
#    z 0.000000 0.000000 1.911640 
# 
# From -- ./inp_files/72546.got.cif
#   From: 2010.05.17/outbox.cif.g08.bks.cpg/sg65_37_cif.got.tgz:72546.got - 2010.06.03 17:01:31.
