data_PCOD9493140
_publ_section_title
;
Structure prediction by ZEFSAII (Michael W. Deem and Ramdas Pophale) SiO2 
 PCOD9493140
Probable space group: C M M M
;
_chemical_formula_sum "Si O2"
_cell_formula_units_Z 64
_cell_length_a 7.588114
_cell_length_b 15.140996
_cell_length_c 28.918036
_cell_angle_alpha 90.000000
_cell_angle_beta 90.000000
_cell_angle_gamma 90.000000
_cell_volume 3322.439533
_symmetry_space_group_name_H-M "C M M M"
_symmetry_group_IT_number 65
_symmetry_cell_setting 'orthorhombic'
loop_
_space_group_symop_operation_xyz
x,y,z
-x,-y,z
x,-y,-z
-x,y,-z
-x,-y,-z
x,y,-z
-x,y,z
x,-y,z
1/2+x,1/2+y,z
1/2-x,1/2-y,z
1/2+x,1/2-y,-z
1/2-x,1/2+y,-z
1/2-x,1/2-y,-z
1/2+x,1/2+y,-z
1/2-x,1/2+y,z
1/2+x,1/2-y,z
loop_
_atom_site_type_symbol
_atom_site_label
_atom_site_fract_x
_atom_site_fract_y
_atom_site_fract_z
Si Si1 0.209996 0.000000 0.303677
Si Si2 0.215389 0.000000 0.447159
Si Si3 0.289204 0.000000 0.195896
Si Si4 0.288806 0.354171 0.374369
Si Si5 0.500000 0.393987 0.947314
Si Si6 0.709487 0.151634 0.126312
O O1 0.240489 0.000000 0.249274
O O2 0.275912 0.911771 0.330179
O O3 0.000000 0.000000 0.310034
O O4 0.270823 0.912532 0.418584
O O5 0.275333 0.000000 0.500000
O O6 0.000000 0.000000 0.447581
O O7 0.231633 0.915775 0.166119
O O8 0.500000 0.000000 0.194742
O O9 0.500000 0.359066 0.374351
O O10 0.250000 0.250000 0.374483
O O11 0.500000 0.500000 0.947980
O O12 0.327622 0.364333 0.918981
O O13 0.500000 0.361202 0.000000
O O14 0.500000 0.140636 0.117373
O O15 0.750000 0.250000 0.142392
#
# Coordination Sequence:
#
# PCOD9493140 Si02
#       6
#     8   8   8  16   8  16
#     4   9  20  35  54  75 102 146 182 221 277 343
#     4   8  15  30  51  73 103 145 186 221 269 334
#     4  10  23  39  59  85 114 145 189 237 284 341
#     4   9  18  33  51  76 106 138 182 228 276 330
#     4  11  24  42  66  91 119 161 199 236 294 349
#     4  11  23  41  62  89 122 155 195 243 290 347
#
# _framework density 19.262955999999999
#
# number of rings (size 3 to 8) (size 9 to 14) (size 15 to 20)
#    0.000    2.250    2.500    1.500    1.750    3.500 
#    0.000    8.125    0.000    0.750    0.000    0.000 
#    0.000    0.000    0.000    0.000    0.000    0.000 
#
# Total GULP energy -178444.608361 kJ/mol
# GULP energy per Si atom -5576.394011 kJ/mol
# Density = 1.921911 g / cm^3
# Si number density = 19.262956 Si / 1000 Ang^3
#
#
#
# Elastic Constant Matrix: (Units=GPa)
#
#
# Indices 1 2 3 4 5 6 
#
# 1 75.5255 22.0414 38.5161 0.0000 0.0000 0.0000
# 2 22.0414 198.9021 110.7715 0.0000 0.0000 0.0000
# 3 38.5161 110.7715 202.4027 0.0000 0.0000 0.0000
# 4 0.0000 0.0000 0.0000 74.1619 0.0000 0.0000
# 5 0.0000 0.0000 0.0000 0.0000 -53.2186 0.0000
# 6 0.0000 0.0000 0.0000 0.0000 0.0000 19.9020
#
#
#
# Elastic Compliance Matrix: (Units=1/GPa)
#
#
# Indices 1 2 3 4 5 6 
#
# 1 0.014665 -0.000102 -0.002735 0.000000 0.000000 0.000000
# 2 -0.000102 0.007232 -0.003939 0.000000 0.000000 0.000000
# 3 -0.002735 -0.003939 0.007617 0.000000 0.000000 0.000000
# 4 0.000000 0.000000 0.000000 0.013484 0.000000 0.000000
# 5 0.000000 0.000000 0.000000 0.000000 -0.018790 0.000000
# 6 0.000000 0.000000 0.000000 0.000000 0.000000 0.050246
#
#
# Mechanical properties :
#
#
# Convention : Reuss Voigt Hill
#
# Bulk Modulus (GPa) = 62.64532 91.05427 76.84979
# Shear Modulus (GPa) = 53.57548 28.53581 41.05565
#
# Velocity S-wave (km/s) = 5.27950 3.85305 4.62164
# Velocity P-wave (km/s) = 8.35200 8.19551 8.27412
#
# Compressibility (1/GPa) = 0.01596289
#
# Stress axis : x y z
#
# Youngs Moduli (GPa) = 68.18941 138.26522 131.29044
#
# Poissons Ratio (x) = 0.01411 0.35906
# Poissons Ratio (y) = 0.00696 0.51713
# Poissons Ratio (z) = 0.18649 0.54460
#
# Static dielectric constant tensor:
#      x y z
#    x 1.711020 0.000000 0.000000 
#    y 0.000000 1.683420 0.000000 
#    z 0.000000 0.000000 1.665680 
# 
# From -- ./inp_files/66861.got.cif
#   From: 2010.05.17/outbox.cif.g08.bks.cpg/sg65_34_cif.got.tgz:66861.got - 2010.06.03 17:01:31.
