data_PCOD9493163
_publ_section_title
;
Structure prediction by ZEFSAII (Michael W. Deem and Ramdas Pophale) SiO2 
 PCOD9493163
Probable space group: C M M M
;
_chemical_formula_sum "Si O2"
_cell_formula_units_Z 72
_cell_length_a 27.234473
_cell_length_b 10.024504
_cell_length_c 14.751979
_cell_angle_alpha 90.000000
_cell_angle_beta 90.000000
_cell_angle_gamma 90.000000
_cell_volume 4027.468523
_symmetry_space_group_name_H-M "C M M M"
_symmetry_group_IT_number 65
_symmetry_cell_setting 'orthorhombic'
loop_
_space_group_symop_operation_xyz
x,y,z
-x,-y,z
x,-y,-z
-x,y,-z
-x,-y,-z
x,y,-z
-x,y,z
x,-y,z
1/2+x,1/2+y,z
1/2-x,1/2-y,z
1/2+x,1/2-y,-z
1/2-x,1/2+y,-z
1/2-x,1/2-y,-z
1/2+x,1/2+y,-z
1/2-x,1/2+y,z
1/2+x,1/2-y,z
loop_
_atom_site_type_symbol
_atom_site_label
_atom_site_fract_x
_atom_site_fract_y
_atom_site_fract_z
Si Si1 0.807633 0.500000 0.388620
Si Si2 0.297020 0.345162 0.000000
Si Si3 0.370767 0.254260 0.657437
Si Si4 0.058475 0.338761 0.500000
Si Si5 0.941488 0.655586 0.000000
Si Si6 0.614323 0.659399 0.862049
Si Si7 0.803030 0.000000 0.394585
O O1 0.810379 0.500000 0.500000
O O2 0.836381 0.373977 0.350798
O O3 0.751514 0.500000 0.354151
O O4 0.250000 0.250000 0.000000
O O5 0.332926 0.324905 0.087058
O O6 0.281460 0.500000 0.000000
O O7 0.415415 0.225720 0.588087
O O8 0.385752 0.292430 0.758843
O O9 0.335968 0.373877 0.626709
O O10 0.067093 0.500000 0.500000
O O11 0.000000 0.317384 0.500000
O O12 0.921822 0.742389 0.915832
O O13 0.924195 0.500000 0.000000
O O14 0.000000 0.652724 0.000000
O O15 0.602422 0.500000 0.868759
O O16 0.793013 0.000000 0.500000
#
# Coordination Sequence:
#
# PCOD9493163 Si02
#       7
#     8   8  16   8   8  16   8
#     4  11  22  38  60  91 124 173 217 250 313 359
#     4   9  20  40  58  84 121 160 200 240 293 360
#     4  12  21  41  61  92 127 167 211 257 307 370
#     4  11  24  43  64  88 123 168 211 263 322 370
#     4  10  23  43  69  97 118 148 204 264 316 371
#     4  10  23  41  63  89 126 166 199 250 311 366
#     4  11  22  36  62  89 130 167 209 264 301 359
#
# _framework density 17.877234000000001
#
# number of rings (size 3 to 8) (size 9 to 14) (size 15 to 20)
#    0.000    1.333    4.444    1.667    1.556    7.111 
#    0.000    3.333    0.000    0.000    0.000    0.000 
#    0.000    0.000    0.000    0.000    0.000    0.000 
#
# Total GULP energy -200803.904169 kJ/mol
# GULP energy per Si atom -5577.886227 kJ/mol
# Density = 1.783654 g / cm^3
# Si number density = 17.877234 Si / 1000 Ang^3
#
#
#
# Elastic Constant Matrix: (Units=GPa)
#
#
# Indices 1 2 3 4 5 6 
#
# 1 136.9970 83.2669 54.7531 0.0000 0.0000 0.0000
# 2 83.2669 179.5307 58.6187 0.0000 0.0000 0.0000
# 3 54.7531 58.6187 128.3307 0.0000 0.0000 0.0000
# 4 0.0000 0.0000 0.0000 26.1720 0.0000 0.0000
# 5 0.0000 0.0000 0.0000 0.0000 1.8386 0.0000
# 6 0.0000 0.0000 0.0000 0.0000 0.0000 -9.7457
#
#
#
# Elastic Compliance Matrix: (Units=1/GPa)
#
#
# Indices 1 2 3 4 5 6 
#
# 1 0.010939 -0.004172 -0.002762 0.000000 0.000000 0.000000
# 2 -0.004172 0.008137 -0.001937 0.000000 0.000000 0.000000
# 3 -0.002762 -0.001937 0.009855 0.000000 0.000000 0.000000
# 4 0.000000 0.000000 0.000000 0.038209 0.000000 0.000000
# 5 0.000000 0.000000 0.000000 0.000000 0.543907 0.000000
# 6 0.000000 0.000000 0.000000 0.000000 0.000000 -0.102609
#
#
# Mechanical properties :
#
#
# Convention : Reuss Voigt Hill
#
# Bulk Modulus (GPa) = 89.35880 93.12620 91.24250
# Shear Modulus (GPa) = 9.43559 20.20095 14.81827
#
# Velocity S-wave (km/s) = 2.29988 3.36517 2.88217
# Velocity P-wave (km/s) = 7.55948 8.20392 7.88829
#
# Compressibility (1/GPa) = 0.01119084
#
# Stress axis : x y z
#
# Youngs Moduli (GPa) = 91.41852 122.88892 101.46720
#
# Poissons Ratio (x) = 0.51266 0.28020
# Poissons Ratio (y) = 0.38137 0.19655
# Poissons Ratio (z) = 0.25245 0.23805
#
# Static dielectric constant tensor:
#      x y z
#    x 1.615340 0.000000 0.000000 
#    y 0.000000 1.576910 0.000000 
#    z 0.000000 0.000000 1.612030 
# 
# From -- ./inp_files/46622.got.cif
#   From: 2010.05.17/outbox.cif.g08.bks.cpg/sg65_24_cif.got.tgz:46622.got - 2010.06.03 17:01:31.
