data_PCOD9493229
_publ_section_title
;
Structure prediction by ZEFSAII (Michael W. Deem and Ramdas Pophale) SiO2 
 PCOD9493229
Probable space group: C M M M
;
_chemical_formula_sum "Si O2"
_cell_formula_units_Z 98
_cell_length_a 14.990827
_cell_length_b 15.077126
_cell_length_c 24.107992
_cell_angle_alpha 90.000000
_cell_angle_beta 90.000000
_cell_angle_gamma 90.000000
_cell_volume 5448.854300
_symmetry_space_group_name_H-M "C M M M"
_symmetry_group_IT_number 65
_symmetry_cell_setting 'orthorhombic'
loop_
_space_group_symop_operation_xyz
x,y,z
-x,-y,z
x,-y,-z
-x,y,-z
-x,-y,-z
x,y,-z
-x,y,z
x,-y,z
1/2+x,1/2+y,z
1/2-x,1/2-y,z
1/2+x,1/2-y,-z
1/2-x,1/2+y,-z
1/2-x,1/2-y,-z
1/2+x,1/2+y,-z
1/2-x,1/2+y,z
1/2+x,1/2-y,z
loop_
_atom_site_type_symbol
_atom_site_label
_atom_site_fract_x
_atom_site_fract_y
_atom_site_fract_z
Si Si1 0.344812 0.802000 0.062684
Si Si2 0.757277 0.150457 0.354577
Si Si3 0.897030 0.500000 0.066353
Si Si4 0.602396 0.397622 0.737228
Si Si5 0.500000 0.500000 0.500000
Si Si6 0.142423 0.249437 0.821027
Si Si7 0.813303 0.000000 0.438975
Si Si8 0.897514 0.398439 0.729984
O O1 0.250000 0.750000 0.059844
O O2 0.345308 0.907601 0.077982
O O3 0.391673 0.760220 0.116348
O O4 0.383183 0.794958 0.000000
O O5 0.750000 0.250000 0.375672
O O6 0.834687 0.146105 0.308348
O O7 0.669049 0.123320 0.320330
O O8 0.783221 0.083689 0.402969
O O9 0.000000 0.500000 0.088983
O O10 0.905730 0.500000 0.000000
O O11 0.500000 0.394737 0.718960
O O12 0.629101 0.500000 0.744324
O O13 0.611942 0.341247 0.792853
O O14 0.419284 0.500000 0.452327
O O15 0.250000 0.250000 0.822296
O O16 0.115563 0.329848 0.780364
O O17 0.770135 0.000000 0.500000
O O18 0.880784 0.500000 0.748324
O O19 0.000000 0.391595 0.711563
#
# Coordination Sequence:
#
# PCOD9493229 Si02
#       8
#    16  16   8  16   2  16   8  16
#     4   9  20  38  57  82 117 161 207 259 327 399
#     4  12  22  38  65  94 125 163 205 249 307 356
#     4   9  18  34  57  84 108 141 199 260 313 375
#     4  11  22  35  59  88 120 159 201 257 316 369
#     4   8  24  48  68 104 122 178 216 256 302 324
#     4  11  21  36  55  86 119 154 202 262 319 386
#     4  10  24  44  68  93 133 160 213 254 287 350
#     4  11  22  36  56  87 125 164 201 244 308 376
#
# _framework density 17.985433
#
# number of rings (size 3 to 8) (size 9 to 14) (size 15 to 20)
#    0.245    1.224    4.898    0.490    2.286    1.633 
#    4.408    0.000    0.000    0.980    0.000    1.143 
#    0.000    0.000    0.000    0.000    0.000    0.000 
#
# Total GULP energy -272873.147413 kJ/mol
# GULP energy per Si atom -5568.839743 kJ/mol
# Density = 1.794450 g / cm^3
# Si number density = 17.985433 Si / 1000 Ang^3
#
#
#
# Elastic Constant Matrix: (Units=GPa)
#
#
# Indices 1 2 3 4 5 6 
#
# 1 92.3061 34.5996 27.7789 0.0000 0.0000 0.0000
# 2 34.5996 134.8217 46.2583 0.0000 0.0000 0.0000
# 3 27.7789 46.2583 127.5543 0.0000 0.0000 0.0000
# 4 0.0000 0.0000 0.0000 28.2557 0.0000 0.0000
# 5 0.0000 0.0000 0.0000 0.0000 -40.1330 0.0000
# 6 0.0000 0.0000 0.0000 0.0000 0.0000 30.0200
#
#
#
# Elastic Compliance Matrix: (Units=1/GPa)
#
#
# Indices 1 2 3 4 5 6 
#
# 1 0.012321 -0.002560 -0.001755 0.000000 0.000000 0.000000
# 2 -0.002560 0.009003 -0.002708 0.000000 0.000000 0.000000
# 3 -0.001755 -0.002708 0.009204 0.000000 0.000000 0.000000
# 4 0.000000 0.000000 0.000000 0.035391 0.000000 0.000000
# 5 0.000000 0.000000 0.000000 0.000000 -0.024917 0.000000
# 6 0.000000 0.000000 0.000000 0.000000 0.000000 0.033311
#
#
# Mechanical properties :
#
#
# Convention : Reuss Voigt Hill
#
# Bulk Modulus (GPa) = 60.66690 63.55065 62.10878
# Shear Modulus (GPa) = 53.27506 20.03157 36.65331
#
# Velocity S-wave (km/s) = 5.44844 3.34093 4.51926
# Velocity P-wave (km/s) = 8.56651 7.09180 7.86380
#
# Compressibility (1/GPa) = 0.01648345
#
# Stress axis : x y z
#
# Youngs Moduli (GPa) = 81.16088 111.07252 108.64956
#
# Poissons Ratio (x) = 0.28433 0.19068
# Poissons Ratio (y) = 0.20776 0.29417
# Poissons Ratio (z) = 0.14243 0.30073
#
# Static dielectric constant tensor:
#      x y z
#    x 1.654790 0.000000 0.000000 
#    y 0.000000 1.627820 0.000000 
#    z 0.000000 0.000000 1.608350 
# 
# From -- ./inp_files/69943.got.cif
#   From: 2010.05.17/outbox.cif.g08.bks.cpg/sg65_35_cif.got.tgz:69943.got - 2010.06.03 17:01:31.
