data_PCOD9493168
_publ_section_title
;
Structure prediction by ZEFSAII (Michael W. Deem and Ramdas Pophale) SiO2 
 PCOD9493168
Probable space group: C M M M
;
_chemical_formula_sum "Si O2"
_cell_formula_units_Z 104
_cell_length_a 22.034765
_cell_length_b 28.737514
_cell_length_c 8.066186
_cell_angle_alpha 90.000000
_cell_angle_beta 90.000000
_cell_angle_gamma 90.000000
_cell_volume 5107.705529
_symmetry_space_group_name_H-M "C M M M"
_symmetry_group_IT_number 65
_symmetry_cell_setting 'orthorhombic'
loop_
_space_group_symop_operation_xyz
x,y,z
-x,-y,z
x,-y,-z
-x,y,-z
-x,-y,-z
x,y,-z
-x,y,z
x,-y,z
1/2+x,1/2+y,z
1/2-x,1/2-y,z
1/2+x,1/2-y,-z
1/2-x,1/2+y,-z
1/2-x,1/2-y,-z
1/2+x,1/2+y,-z
1/2-x,1/2+y,z
1/2+x,1/2-y,z
loop_
_atom_site_type_symbol
_atom_site_label
_atom_site_fract_x
_atom_site_fract_y
_atom_site_fract_z
Si Si1 0.431275 0.704336 0.198813
Si Si2 0.000000 0.444465 0.693650
Si Si3 0.252424 0.052599 0.696229
Si Si4 0.126033 0.402772 0.194875
Si Si5 0.072171 0.053041 0.808332
Si Si6 0.342053 0.374191 0.315230
Si Si7 0.430672 0.189681 0.797691
O O1 0.500000 0.690213 0.257184
O O2 0.375944 0.670402 0.241077
O O3 0.419635 0.757316 0.256212
O O4 0.435082 0.705352 0.000000
O O5 0.060585 0.425847 0.779080
O O6 0.000000 0.500000 0.701083
O O7 0.000000 0.430418 0.500000
O O8 0.237901 0.050503 0.500000
O O9 0.321901 0.067843 0.717258
O O10 0.211823 0.095230 0.767272
O O11 0.242663 0.000000 0.763592
O O12 0.116317 0.349758 0.257232
O O13 0.140779 0.401853 0.000000
O O14 0.104631 0.087645 0.686998
O O15 0.000000 0.054924 0.791966
O O16 0.091640 0.000000 0.781386
O O17 0.086258 0.065926 0.000000
O O18 0.322310 0.361359 0.500000
O O19 0.500000 0.177538 0.748519
O O20 0.429791 0.189078 0.000000
#
# Coordination Sequence:
#
# PCOD9493168 Si02
#       7
#    16   8  16  16  16  16  16
#     4   9  18  34  58  83 110 146 183 222 276 336
#     4  11  23  37  55  83 121 157 181 211 270 343
#     4  10  23  42  57  72 106 154 192 223 274 341
#     4  11  21  36  61  89 112 138 183 238 278 316
#     4   9  18  32  50  73 101 133 173 224 280 336
#     4  11  22  35  52  75 106 145 187 231 276 323
#     4   8  15  32  57  84 113 142 172 218 278 332
#
# _framework density 20.361394000000001
#
# number of rings (size 3 to 8) (size 9 to 14) (size 15 to 20)
#    0.000    2.231    0.769    3.923    0.000    7.385 
#    0.000    3.077    0.000    4.615    0.000    0.000 
#    0.000    0.000    0.000    0.000    0.000    0.000 
#
# Total GULP energy -289926.261013 kJ/mol
# GULP energy per Si atom -5575.505019 kJ/mol
# Density = 2.031505 g / cm^3
# Si number density = 20.361394 Si / 1000 Ang^3
#
#
#
# Elastic Constant Matrix: (Units=GPa)
#
#
# Indices 1 2 3 4 5 6 
#
# 1 76.4668 51.8644 -4.7778 0.0000 0.0000 0.0000
# 2 51.8644 92.9899 10.1866 0.0000 0.0000 0.0000
# 3 -4.7778 10.1866 12.6344 0.0000 0.0000 0.0000
# 4 0.0000 0.0000 0.0000 40.5851 0.0000 0.0000
# 5 0.0000 0.0000 0.0000 0.0000 22.8520 0.0000
# 6 0.0000 0.0000 0.0000 0.0000 0.0000 43.8203
#
#
#
# Elastic Compliance Matrix: (Units=1/GPa)
#
#
# Indices 1 2 3 4 5 6 
#
# 1 0.026286 -0.017276 0.023869 0.000000 0.000000 0.000000
# 2 -0.017276 0.023150 -0.025198 0.000000 0.000000 0.000000
# 3 0.023869 -0.025198 0.108491 0.000000 0.000000 0.000000
# 4 0.000000 0.000000 0.000000 0.024640 0.000000 0.000000
# 5 0.000000 0.000000 0.000000 0.000000 0.043760 0.000000
# 6 0.000000 0.000000 0.000000 0.000000 0.000000 0.022820
#
#
# Mechanical properties :
#
#
# Convention : Reuss Voigt Hill
#
# Bulk Modulus (GPa) = 8.28369 32.95970 20.62170
# Shear Modulus (GPa) = 15.30946 29.77266 22.54106
#
# Velocity S-wave (km/s) = 2.74503 3.82804 3.33084
# Velocity P-wave (km/s) = 3.75820 5.98005 4.99425
#
# Compressibility (1/GPa) = 0.12071919
#
# Stress axis : x y z
#
# Youngs Moduli (GPa) = 38.04243 43.19735 9.21732
#
# Poissons Ratio (x) = 0.74627 -0.22001
# Poissons Ratio (y) = 0.65721 0.23225
# Poissons Ratio (z) = -0.90804 1.08847
#
# Static dielectric constant tensor:
#      x y z
#    x 1.723150 0.000000 0.000000 
#    y 0.000000 1.752410 0.000000 
#    z 0.000000 0.000000 1.769020 
# 
# From -- ./inp_files/12764.got.cif
#   From: 2010.05.17/outbox.cif.g08.bks.cpg/sg65_7_cif.got.tgz:12764.got - 2010.06.03 17:01:31.
