data_PCOD9493788
_publ_section_title
;
Structure prediction by ZEFSAII (Michael W. Deem and Ramdas Pophale) SiO2 
 PCOD9493788
Probable space group: C M M M
;
_chemical_formula_sum "Si O2"
_cell_formula_units_Z 42
_cell_length_a 20.608077
_cell_length_b 7.619364
_cell_length_c 12.958248
_cell_angle_alpha 90.000000
_cell_angle_beta 90.000000
_cell_angle_gamma 90.000000
_cell_volume 2034.709803
_symmetry_space_group_name_H-M "C M M M"
_symmetry_group_IT_number 65
_symmetry_cell_setting 'orthorhombic'
loop_
_space_group_symop_operation_xyz
x,y,z
-x,-y,z
x,-y,-z
-x,y,-z
-x,-y,-z
x,y,-z
-x,y,z
x,-y,z
1/2+x,1/2+y,z
1/2-x,1/2-y,z
1/2+x,1/2-y,-z
1/2-x,1/2+y,-z
1/2-x,1/2-y,-z
1/2+x,1/2+y,-z
1/2-x,1/2+y,z
1/2+x,1/2-y,z
loop_
_atom_site_type_symbol
_atom_site_label
_atom_site_fract_x
_atom_site_fract_y
_atom_site_fract_z
Si Si1 0.000000 0.500000 0.500000
Si Si2 0.824513 0.290328 0.710830
Si Si3 0.609688 0.693952 0.500000
Si Si4 0.073596 0.285920 0.118028
O O1 0.943437 0.653569 0.500000
O O2 0.832092 0.500000 0.703693
O O3 0.750000 0.250000 0.734438
O O4 0.846260 0.213280 0.601698
O O5 0.873130 0.226415 0.800458
O O6 0.580229 0.500000 0.500000
O O7 0.074236 0.500000 0.118082
O O8 0.000000 0.233404 0.146517
O O9 0.086137 0.230537 0.000000
#
# Coordination Sequence:
#
# PCOD9493788 Si02
#       4
#     2  16   8  16
#     4  12  26  48  68 102 130 172 208 264 320 384
#     4  11  22  38  62  90 130 173 219 270 324 387
#     4  12  26  44  68  99 133 168 214 264 320 381
#     4   8  16  32  57  87 120 164 216 272 331 385
#
# _framework density 20.641763999999998
#
# number of rings (size 3 to 8) (size 9 to 14) (size 15 to 20)
#    0.000    1.905    1.905    3.143    2.667    0.762 
#    0.000    0.000    0.000    3.429    0.000   10.667 
#    0.000    0.000    0.000    0.000    0.000    0.000 
#
# Total GULP energy -117097.595417 kJ/mol
# GULP energy per Si atom -5576.075972 kJ/mol
# Density = 2.059478 g / cm^3
# Si number density = 20.641764 Si / 1000 Ang^3
#
#
#
# Elastic Constant Matrix: (Units=GPa)
#
#
# Indices 1 2 3 4 5 6 
#
# 1 197.0819 25.2634 134.0225 0.0000 0.0000 0.0000
# 2 25.2634 110.1973 17.5775 0.0000 0.0000 0.0000
# 3 134.0225 17.5775 168.2148 0.0000 0.0000 0.0000
# 4 0.0000 0.0000 0.0000 -18.4341 0.0000 0.0000
# 5 0.0000 0.0000 0.0000 0.0000 -5.0725 0.0000
# 6 0.0000 0.0000 0.0000 0.0000 0.0000 13.8446
#
#
#
# Elastic Compliance Matrix: (Units=1/GPa)
#
#
# Indices 1 2 3 4 5 6 
#
# 1 0.011219 -0.001166 -0.008817 0.000000 0.000000 0.000000
# 2 -0.001166 0.009350 -0.000048 0.000000 0.000000 0.000000
# 3 -0.008817 -0.000048 0.012975 0.000000 0.000000 0.000000
# 4 0.000000 0.000000 0.000000 -0.054247 0.000000 0.000000
# 5 0.000000 0.000000 0.000000 0.000000 -0.197142 0.000000
# 6 0.000000 0.000000 0.000000 0.000000 0.000000 0.072230
#
#
# Mechanical properties :
#
#
# Convention : Reuss Voigt Hill
#
# Bulk Modulus (GPa) = 74.17486 92.13564 83.15525
# Shear Modulus (GPa) = -41.30195 17.97632 -11.66282
#
# Velocity S-wave (km/s) = -4.47799 2.95425 -2.37957
# Velocity P-wave (km/s) = 3.04563 7.50795 5.72910
#
# Compressibility (1/GPa) = 0.01348166
#
# Stress axis : x y z
#
# Youngs Moduli (GPa) = 89.13169 106.95681 77.07333
#
# Poissons Ratio (x) = 0.12468 0.67956
# Poissons Ratio (y) = 0.10390 0.00372
# Poissons Ratio (z) = 0.78588 0.00516
#
# Static dielectric constant tensor:
#      x y z
#    x 1.691810 0.000000 0.000000 
#    y 0.000000 1.770610 0.000000 
#    z 0.000000 0.000000 1.714620 
# 
# From -- ./inp_files/19889.got.cif
#   From: 2010.05.17/outbox.cif.g08.bks.cpg/sg65_10_cif.got.tgz:19889.got - 2010.06.03 17:01:31.
