data_PCOD9493763
_publ_section_title
;
Structure prediction by ZEFSAII (Michael W. Deem and Ramdas Pophale) SiO2 
 PCOD9493763
Probable space group: C M M M
;
_chemical_formula_sum "Si O2"
_cell_formula_units_Z 64
_cell_length_a 15.878430
_cell_length_b 24.436203
_cell_length_c 8.530344
_cell_angle_alpha 90.000000
_cell_angle_beta 90.000000
_cell_angle_gamma 90.000000
_cell_volume 3309.846311
_symmetry_space_group_name_H-M "C M M M"
_symmetry_group_IT_number 65
_symmetry_cell_setting 'orthorhombic'
loop_
_space_group_symop_operation_xyz
x,y,z
-x,-y,z
x,-y,-z
-x,y,-z
-x,-y,-z
x,y,-z
-x,y,z
x,-y,z
1/2+x,1/2+y,z
1/2-x,1/2-y,z
1/2+x,1/2-y,-z
1/2-x,1/2+y,-z
1/2-x,1/2-y,-z
1/2+x,1/2+y,-z
1/2-x,1/2+y,z
1/2+x,1/2-y,z
loop_
_atom_site_type_symbol
_atom_site_label
_atom_site_fract_x
_atom_site_fract_y
_atom_site_fract_z
Si Si1 0.160095 0.383878 0.312073
Si Si2 0.500000 0.812705 0.690979
Si Si3 0.000000 0.813467 0.311599
Si Si4 0.902313 0.000000 0.190705
Si Si5 0.599257 0.000000 0.812203
Si Si6 0.158687 0.881263 0.188199
O O1 0.161453 0.383974 0.500000
O O2 0.083259 0.345319 0.258114
O O3 0.141375 0.445139 0.252833
O O4 0.249970 0.364369 0.249117
O O5 0.500000 0.813164 0.500000
O O6 0.500000 0.749741 0.740698
O O7 0.917202 0.844259 0.250127
O O8 0.000000 0.814969 0.500000
O O9 0.858605 0.056052 0.241551
O O10 0.000000 0.000000 0.239854
O O11 0.901574 0.000000 0.000000
O O12 0.500000 0.000000 0.769545
O O13 0.606472 0.000000 0.000000
O O14 0.157656 0.880485 0.000000
#
# Coordination Sequence:
#
# PCOD9493763 Si02
#       6
#    16   8   8   8   8  16
#     4  11  22  40  64  90 119 160 208 251 296 360
#     4   9  22  42  63  84 116 161 208 255 302 350
#     4  11  23  42  63  86 116 159 210 255 299 360
#     4   9  17  34  59  82 114 156 188 223 288 363
#     4  11  22  37  60  93 129 161 192 243 312 368
#     4  11  22  39  62  91 123 157 196 249 312 366
#
# _framework density 19.336244000000001
#
# number of rings (size 3 to 8) (size 9 to 14) (size 15 to 20)
#    0.000    1.500    2.500    3.000    0.000    2.500 
#    0.000   12.500    0.000    0.000    0.000    0.000 
#    0.000    0.000    0.000    0.000    0.000    0.000 
#
# Total GULP energy -178892.394270 kJ/mol
# GULP energy per Si atom -5590.387321 kJ/mol
# Density = 1.929223 g / cm^3
# Si number density = 19.336244 Si / 1000 Ang^3
#
#
#
# Elastic Constant Matrix: (Units=GPa)
#
#
# Indices 1 2 3 4 5 6 
#
# 1 207.2563 93.1601 42.7531 0.0000 0.0000 0.0000
# 2 93.1601 157.1604 29.4630 0.0000 0.0000 0.0000
# 3 42.7531 29.4630 49.8206 0.0000 0.0000 0.0000
# 4 0.0000 0.0000 0.0000 13.2064 0.0000 0.0000
# 5 0.0000 0.0000 0.0000 0.0000 35.1528 0.0000
# 6 0.0000 0.0000 0.0000 0.0000 0.0000 5.0894
#
#
#
# Elastic Compliance Matrix: (Units=1/GPa)
#
#
# Indices 1 2 3 4 5 6 
#
# 1 0.007268 -0.003530 -0.004149 0.000000 0.000000 0.000000
# 2 -0.003530 0.008871 -0.002217 0.000000 0.000000 0.000000
# 3 -0.004149 -0.002217 0.024943 0.000000 0.000000 0.000000
# 4 0.000000 0.000000 0.000000 0.075721 0.000000 0.000000
# 5 0.000000 0.000000 0.000000 0.000000 0.028447 0.000000
# 6 0.000000 0.000000 0.000000 0.000000 0.000000 0.196488
#
#
# Mechanical properties :
#
#
# Convention : Reuss Voigt Hill
#
# Bulk Modulus (GPa) = 46.96994 82.77664 64.87329
# Shear Modulus (GPa) = 13.56386 27.28045 20.42216
#
# Velocity S-wave (km/s) = 2.65141 3.76020 3.25339
# Velocity P-wave (km/s) = 5.80665 7.85838 6.90910
#
# Compressibility (1/GPa) = 0.02129021
#
# Stress axis : x y z
#
# Youngs Moduli (GPa) = 137.59718 112.72529 40.09083
#
# Poissons Ratio (x) = 0.39794 0.16633
# Poissons Ratio (y) = 0.48575 0.08887
# Poissons Ratio (z) = 0.57088 0.24989
#
# Static dielectric constant tensor:
#      x y z
#    x 1.661370 0.000000 0.000000 
#    y 0.000000 1.653900 0.000000 
#    z 0.000000 0.000000 1.659980 
# 
# From -- ./inp_files/6836.got.cif
#   From: 2010.05.17/outbox.cif.g08.bks.cpg/sg65_4_cif.got.tgz:6836.got - 2010.06.03 17:01:31.
