data_PCOD9493759
_publ_section_title
;
Structure prediction by ZEFSAII (Michael W. Deem and Ramdas Pophale) SiO2 
 PCOD9493759
Probable space group: C M M M
;
_chemical_formula_sum "Si O2"
_cell_formula_units_Z 88
_cell_length_a 24.131976
_cell_length_b 8.423892
_cell_length_c 23.500685
_cell_angle_alpha 90.000000
_cell_angle_beta 90.000000
_cell_angle_gamma 90.000000
_cell_volume 4777.340500
_symmetry_space_group_name_H-M "C M M M"
_symmetry_group_IT_number 65
_symmetry_cell_setting 'orthorhombic'
loop_
_space_group_symop_operation_xyz
x,y,z
-x,-y,z
x,-y,-z
-x,y,-z
-x,-y,-z
x,y,-z
-x,y,z
x,-y,z
1/2+x,1/2+y,z
1/2-x,1/2-y,z
1/2+x,1/2-y,-z
1/2-x,1/2+y,-z
1/2-x,1/2-y,-z
1/2+x,1/2+y,-z
1/2-x,1/2+y,z
1/2+x,1/2-y,z
loop_
_atom_site_type_symbol
_atom_site_label
_atom_site_fract_x
_atom_site_fract_y
_atom_site_fract_z
Si Si1 0.687009 0.691526 0.719032
Si Si2 0.390310 0.311856 0.382265
Si Si3 0.500000 0.685732 0.799019
Si Si4 0.883163 0.691403 0.827843
Si Si5 0.687378 0.808658 0.063060
Si Si6 0.435244 0.188664 0.500000
Si Si7 0.000000 0.315339 0.324157
O O1 0.685502 0.500000 0.721454
O O2 0.750000 0.750000 0.724531
O O3 0.659929 0.743075 0.658539
O O4 0.649465 0.756814 0.770749
O O5 0.385140 0.500000 0.388733
O O6 0.401480 0.240215 0.444204
O O7 0.445809 0.268842 0.348009
O O8 0.500000 0.500000 0.782975
O O9 0.556690 0.729133 0.830116
O O10 0.500000 0.794392 0.742976
O O11 0.888440 0.500000 0.827287
O O12 0.848849 0.742487 0.883429
O O13 0.750000 0.750000 0.070159
O O14 0.687730 0.000000 0.063412
O O15 0.667991 0.756589 0.000000
O O16 0.500000 0.250399 0.500000
O O17 0.439592 0.000000 0.500000
O O18 0.000000 0.500000 0.341151
#
# Coordination Sequence:
#
# PCOD9493759 Si02
#       7
#    16  16   8  16  16   8   8
#     4  11  24  40  60  86 118 153 194 240 290 346
#     4  11  23  39  60  86 118 154 192 238 290 345
#     4  12  24  38  56  84 120 155 191 236 292 352
#     4  11  22  37  60  87 117 153 194 241 293 346
#     4   9  19  36  58  85 116 152 195 241 289 342
#     4  11  23  37  58  89 119 150 193 241 286 344
#     4  12  22  35  59  87 117 152 190 235 289 346
#
# _framework density 18.420290999999999
#
# number of rings (size 3 to 8) (size 9 to 14) (size 15 to 20)
#    0.000    1.182    2.727    4.091    0.000    5.455 
#    0.000    0.909    0.000    2.727    0.000    0.000 
#    0.000    0.000    0.000    0.000    0.000    0.000 
#
# Total GULP energy -245749.188332 kJ/mol
# GULP energy per Si atom -5585.208826 kJ/mol
# Density = 1.837837 g / cm^3
# Si number density = 18.420291 Si / 1000 Ang^3
#
#
#
# Elastic Constant Matrix: (Units=GPa)
#
#
# Indices 1 2 3 4 5 6 
#
# 1 124.4313 20.3495 69.3819 0.0000 0.0000 0.0000
# 2 20.3495 39.4159 20.9967 0.0000 0.0000 0.0000
# 3 69.3819 20.9967 148.4608 0.0000 0.0000 0.0000
# 4 0.0000 0.0000 0.0000 21.8008 0.0000 0.0000
# 5 0.0000 0.0000 0.0000 0.0000 33.0246 0.0000
# 6 0.0000 0.0000 0.0000 0.0000 0.0000 19.0506
#
#
#
# Elastic Compliance Matrix: (Units=1/GPa)
#
#
# Indices 1 2 3 4 5 6 
#
# 1 0.011241 -0.003250 -0.004794 0.000000 0.000000 0.000000
# 2 -0.003250 0.028377 -0.002495 0.000000 0.000000 0.000000
# 3 -0.004794 -0.002495 0.009329 0.000000 0.000000 0.000000
# 4 0.000000 0.000000 0.000000 0.045870 0.000000 0.000000
# 5 0.000000 0.000000 0.000000 0.000000 0.030280 0.000000
# 6 0.000000 0.000000 0.000000 0.000000 0.000000 0.052492
#
#
# Mechanical properties :
#
#
# Convention : Reuss Voigt Hill
#
# Bulk Modulus (GPa) = 35.87997 59.30714 47.59356
# Shear Modulus (GPa) = 24.04356 28.21386 26.12871
#
# Velocity S-wave (km/s) = 3.61678 3.91790 3.77035
# Velocity P-wave (km/s) = 6.07966 7.26176 6.69684
#
# Compressibility (1/GPa) = 0.02787070
#
# Stress axis : x y z
#
# Youngs Moduli (GPa) = 88.95999 35.23961 107.19365
#
# Poissons Ratio (x) = 0.11452 0.51386
# Poissons Ratio (y) = 0.28911 0.26740
# Poissons Ratio (z) = 0.42645 0.08791
#
# Static dielectric constant tensor:
#      x y z
#    x 1.613350 0.000000 0.000000 
#    y 0.000000 1.631740 0.000000 
#    z 0.000000 0.000000 1.649450 
# 
# From -- ./inp_files/71071.got.cif
#   From: 2010.05.17/outbox.cif.g08.bks.cpg/sg65_36_cif.got.tgz:71071.got - 2010.06.03 17:01:31.
