data_PCOD9493721
_publ_section_title
;
Structure prediction by ZEFSAII (Michael W. Deem and Ramdas Pophale) SiO2 
 PCOD9493721
Probable space group: C M M M
;
_chemical_formula_sum "Si O2"
_cell_formula_units_Z 72
_cell_length_a 15.667494
_cell_length_b 8.553390
_cell_length_c 28.941463
_cell_angle_alpha 90.000000
_cell_angle_beta 90.000000
_cell_angle_gamma 90.000000
_cell_volume 3878.450854
_symmetry_space_group_name_H-M "C M M M"
_symmetry_group_IT_number 65
_symmetry_cell_setting 'orthorhombic'
loop_
_space_group_symop_operation_xyz
x,y,z
-x,-y,z
x,-y,-z
-x,y,-z
-x,-y,-z
x,y,-z
-x,y,z
x,-y,z
1/2+x,1/2+y,z
1/2-x,1/2-y,z
1/2+x,1/2-y,-z
1/2-x,1/2+y,-z
1/2-x,1/2-y,-z
1/2+x,1/2+y,-z
1/2-x,1/2+y,z
1/2+x,1/2-y,z
loop_
_atom_site_type_symbol
_atom_site_label
_atom_site_fract_x
_atom_site_fract_y
_atom_site_fract_z
Si Si1 0.500000 0.311710 0.276881
Si Si2 0.500000 0.187589 0.054101
Si Si3 0.343791 0.311286 0.553029
Si Si4 0.500000 0.690862 0.616341
Si Si5 0.343815 0.187012 0.783110
Si Si6 0.843570 0.813081 0.113533
O O1 0.500000 0.500000 0.274929
O O2 0.500000 0.261366 0.330400
O O3 0.583405 0.248652 0.250807
O O4 0.416603 0.254780 0.079286
O O5 0.500000 0.000000 0.058531
O O6 0.500000 0.228153 0.000000
O O7 0.363169 0.263466 0.500000
O O8 0.342305 0.500000 0.553758
O O9 0.250000 0.250000 0.564899
O O10 0.416314 0.257541 0.588305
O O11 0.500000 0.500000 0.615728
O O12 0.250000 0.250000 0.770080
O O13 0.361533 0.248583 0.834964
O O14 0.342736 0.000000 0.783754
O O15 0.750000 0.750000 0.100097
O O16 0.841726 0.000000 0.115220
#
# Coordination Sequence:
#
# PCOD9493721 Si02
#       6
#     8   8  16   8  16  16
#     4  11  22  37  55  80 114 149 186 227 278 334
#     4  11  24  41  60  85 119 157 194 233 279 331
#     4   9  17  32  54  78 103 135 177 222 268 319
#     4   9  19  34  53  76 105 143 180 217 265 326
#     4  11  22  39  61  85 112 145 188 233 280 331
#     4  11  22  39  63  89 116 148 189 235 283 333
#
# _framework density 18.564112999999999
#
# number of rings (size 3 to 8) (size 9 to 14) (size 15 to 20)
#    0.000    1.667    0.000    7.000    0.000    3.556 
#    0.000    5.000    0.000    2.667    0.000    0.000 
#    0.000    0.000    0.000    0.000    0.000    0.000 
#
# Total GULP energy -201209.301179 kJ/mol
# GULP energy per Si atom -5589.147255 kJ/mol
# Density = 1.852186 g / cm^3
# Si number density = 18.564113 Si / 1000 Ang^3
#
#
#
# Elastic Constant Matrix: (Units=GPa)
#
#
# Indices 1 2 3 4 5 6 
#
# 1 191.4801 66.4807 153.1316 0.0000 0.0000 0.0000
# 2 66.4807 111.1904 64.8750 0.0000 0.0000 0.0000
# 3 153.1316 64.8750 153.6056 0.0000 0.0000 0.0000
# 4 0.0000 0.0000 0.0000 19.2205 0.0000 0.0000
# 5 0.0000 0.0000 0.0000 0.0000 66.1096 0.0000
# 6 0.0000 0.0000 0.0000 0.0000 0.0000 35.1034
#
#
#
# Elastic Compliance Matrix: (Units=1/GPa)
#
#
# Indices 1 2 3 4 5 6 
#
# 1 0.025785 -0.000556 -0.025471 0.000000 0.000000 0.000000
# 2 -0.000556 0.011946 -0.004492 0.000000 0.000000 0.000000
# 3 -0.025471 -0.004492 0.033799 0.000000 0.000000 0.000000
# 4 0.000000 0.000000 0.000000 0.052028 0.000000 0.000000
# 5 0.000000 0.000000 0.000000 0.000000 0.015126 0.000000
# 6 0.000000 0.000000 0.000000 0.000000 0.000000 0.028487
#
#
# Mechanical properties :
#
#
# Convention : Reuss Voigt Hill
#
# Bulk Modulus (GPa) = 95.28555 113.91675 104.60115
# Shear Modulus (GPa) = 21.57898 35.53928 28.55913
#
# Velocity S-wave (km/s) = 3.41310 4.38014 3.92651
# Velocity P-wave (km/s) = 8.18362 9.33156 8.77638
#
# Compressibility (1/GPa) = 0.01049477
#
# Stress axis : x y z
#
# Youngs Moduli (GPa) = 38.78212 83.70656 29.58635
#
# Poissons Ratio (x) = 0.04652 0.75359
# Poissons Ratio (y) = 0.02155 0.13289
# Poissons Ratio (z) = 0.98781 0.37597
#
# Static dielectric constant tensor:
#      x y z
#    x 1.613790 0.000000 0.000000 
#    y 0.000000 1.626120 0.000000 
#    z 0.000000 0.000000 1.617830 
# 
# From -- ./inp_files/74636.got.cif
#   From: 2010.05.17/outbox.cif.g08.bks.cpg/sg65_38_cif.got.tgz:74636.got - 2010.06.03 17:01:31.
