data_PCOD9493195
_publ_section_title
;
Structure prediction by ZEFSAII (Michael W. Deem and Ramdas Pophale) SiO2 
 PCOD9493195
Probable space group: C M M M
;
_chemical_formula_sum "Si O2"
_cell_formula_units_Z 54
_cell_length_a 14.437422
_cell_length_b 18.555048
_cell_length_c 9.462356
_cell_angle_alpha 90.000000
_cell_angle_beta 90.000000
_cell_angle_gamma 90.000000
_cell_volume 2534.842713
_symmetry_space_group_name_H-M "C M M M"
_symmetry_group_IT_number 65
_symmetry_cell_setting 'orthorhombic'
loop_
_space_group_symop_operation_xyz
x,y,z
-x,-y,z
x,-y,-z
-x,y,-z
-x,-y,-z
x,y,-z
-x,y,z
x,-y,z
1/2+x,1/2+y,z
1/2-x,1/2-y,z
1/2+x,1/2-y,-z
1/2-x,1/2+y,-z
1/2-x,1/2-y,-z
1/2+x,1/2+y,-z
1/2-x,1/2+y,z
1/2+x,1/2-y,z
loop_
_atom_site_type_symbol
_atom_site_label
_atom_site_fract_x
_atom_site_fract_y
_atom_site_fract_z
Si Si1 0.356614 0.332922 0.500000
Si Si2 0.000000 0.500000 0.000000
Si Si3 0.188442 0.821583 0.000000
Si Si4 0.000000 0.738056 0.000000
Si Si5 0.605831 0.415732 0.220130
Si Si6 0.134467 0.338092 0.500000
Si Si7 0.000000 0.624568 0.751577
O O1 0.395405 0.373180 0.634989
O O2 0.245188 0.343906 0.500000
O O3 0.381952 0.248473 0.500000
O O4 0.000000 0.562153 0.129162
O O5 0.250000 0.750000 0.000000
O O6 0.186126 0.875481 0.131760
O O7 0.088705 0.786593 0.000000
O O8 0.000000 0.693696 0.145894
O O9 0.500000 0.412684 0.161627
O O10 0.627790 0.500000 0.235497
O O11 0.086565 0.371405 0.641041
#
# Coordination Sequence:
#
# PCOD9493195 Si02
#       7
#     8   2   8   4  16   8   8
#     4  11  24  41  68 107 134 179 222 294 354 438
#     4  10  24  50  72  92 130 186 264 268 358 418
#     4  12  26  41  70 101 140 185 241 297 355 427
#     4  11  22  41  69  98 135 180 234 298 355 406
#     4  11  24  45  69 101 142 186 232 290 369 440
#     4  10  24  41  70 101 144 170 239 289 362 410
#     4  10  23  45  68 100 130 193 229 301 341 428
#
# _framework density 21.303096
#
# number of rings (size 3 to 8) (size 9 to 14) (size 15 to 20)
#    0.000    1.185    1.481    3.111   12.444    3.556 
#    5.333    0.000    0.000    0.000    0.000    0.000 
#    0.000    0.000    0.000    0.000    0.000    0.000 
#
# Total GULP energy -150370.994715 kJ/mol
# GULP energy per Si atom -5569.296101 kJ/mol
# Density = 2.125461 g / cm^3
# Si number density = 21.303096 Si / 1000 Ang^3
#
#
#
# Elastic Constant Matrix: (Units=GPa)
#
#
# Indices 1 2 3 4 5 6 
#
# 1 93.6839 41.2147 17.2970 0.0000 0.0000 0.0000
# 2 41.2147 166.6137 62.9181 0.0000 0.0000 0.0000
# 3 17.2970 62.9181 167.7459 0.0000 0.0000 0.0000
# 4 0.0000 0.0000 0.0000 37.5690 0.0000 0.0000
# 5 0.0000 0.0000 0.0000 0.0000 19.5332 0.0000
# 6 0.0000 0.0000 0.0000 0.0000 0.0000 28.8314
#
#
#
# Elastic Compliance Matrix: (Units=1/GPa)
#
#
# Indices 1 2 3 4 5 6 
#
# 1 0.011981 -0.002909 -0.000144 0.000000 0.000000 0.000000
# 2 -0.002909 0.007699 -0.002588 0.000000 0.000000 0.000000
# 3 -0.000144 -0.002588 0.006947 0.000000 0.000000 0.000000
# 4 0.000000 0.000000 0.000000 0.026618 0.000000 0.000000
# 5 0.000000 0.000000 0.000000 0.000000 0.051195 0.000000
# 6 0.000000 0.000000 0.000000 0.000000 0.000000 0.034684
#
#
# Mechanical properties :
#
#
# Convention : Reuss Voigt Hill
#
# Bulk Modulus (GPa) = 65.17135 74.54478 69.85806
# Shear Modulus (GPa) = 32.15019 37.62762 34.88891
#
# Velocity S-wave (km/s) = 3.88903 4.20729 4.05129
# Velocity P-wave (km/s) = 7.12916 7.65965 7.39916
#
# Compressibility (1/GPa) = 0.01534417
#
# Stress axis : x y z
#
# Youngs Moduli (GPa) = 83.46788 129.89186 143.95023
#
# Poissons Ratio (x) = 0.37788 0.02076
# Poissons Ratio (y) = 0.24282 0.37249
# Poissons Ratio (z) = 0.01204 0.33612
#
# Static dielectric constant tensor:
#      x y z
#    x 1.767670 0.000000 0.000000 
#    y 0.000000 1.740800 0.000000 
#    z 0.000000 0.000000 1.867610 
# 
# From -- ./inp_files/6389.got.cif
#   From: 2010.05.17/outbox.cif.g08.bks.cpg/sg65_4_cif.got.tgz:6389.got - 2010.06.03 17:01:31.
