data_PCOD9493974
_publ_section_title
;
Structure prediction by ZEFSAII (Michael W. Deem and Ramdas Pophale) SiO2 
 PCOD9493974
Probable space group: C M M M
;
_chemical_formula_sum "Si O2"
_cell_formula_units_Z 72
_cell_length_a 7.574745
_cell_length_b 29.803560
_cell_length_c 16.344264
_cell_angle_alpha 90.000000
_cell_angle_beta 90.000000
_cell_angle_gamma 90.000000
_cell_volume 3689.788975
_symmetry_space_group_name_H-M "C M M M"
_symmetry_group_IT_number 65
_symmetry_cell_setting 'orthorhombic'
loop_
_space_group_symop_operation_xyz
x,y,z
-x,-y,z
x,-y,-z
-x,y,-z
-x,-y,-z
x,y,-z
-x,y,z
x,-y,z
1/2+x,1/2+y,z
1/2-x,1/2-y,z
1/2+x,1/2-y,-z
1/2-x,1/2+y,-z
1/2-x,1/2-y,-z
1/2+x,1/2+y,-z
1/2-x,1/2+y,z
1/2+x,1/2-y,z
loop_
_atom_site_type_symbol
_atom_site_label
_atom_site_fract_x
_atom_site_fract_y
_atom_site_fract_z
Si Si1 0.788562 0.196957 0.000000
Si Si2 0.205048 0.611803 0.319723
Si Si3 0.000000 0.053654 0.403451
Si Si4 0.214131 0.124248 0.868644
Si Si5 0.710853 0.798456 0.407359
Si Si6 0.714831 0.551040 0.000000
O O1 0.750000 0.250000 0.000000
O O2 0.727913 0.168480 0.920040
O O3 0.000000 0.192945 0.000000
O O4 0.330144 0.573747 0.356828
O O5 0.217604 0.618314 0.222552
O O6 0.272067 0.658599 0.358351
O O7 0.000000 0.604325 0.342300
O O8 0.000000 0.066700 0.500000
O O9 0.000000 0.000000 0.399235
O O10 0.000000 0.125429 0.864633
O O11 0.266287 0.080846 0.922027
O O12 0.782881 0.798854 0.500000
O O13 0.500000 0.801901 0.412020
O O14 0.750000 0.750000 0.369731
O O15 0.778347 0.500000 0.000000
O O16 0.500000 0.549715 0.000000
#
# Coordination Sequence:
#
# PCOD9493974 Si02
#       6
#     8  16   8  16  16   8
#     4   9  19  34  55  81 125 175 214 256 304 361
#     4  11  23  40  63  92 126 162 205 263 315 371
#     4  11  26  46  68  91 119 165 215 262 329 395
#     4   9  18  35  55  84 120 155 201 250 301 363
#     4   9  19  34  54  83 116 152 194 241 299 360
#     4   8  15  30  56  83 107 142 185 234 294 354
#
# _framework density 19.513311000000002
#
# number of rings (size 3 to 8) (size 9 to 14) (size 15 to 20)
#    0.000    2.444    1.111    2.000    1.556    4.444 
#    0.000    7.222    0.000    0.667    0.000    0.000 
#    0.000    0.000    0.000    0.000    0.000    0.000 
#
# Total GULP energy -200849.117282 kJ/mol
# GULP energy per Si atom -5579.142147 kJ/mol
# Density = 1.946890 g / cm^3
# Si number density = 19.513311 Si / 1000 Ang^3
#
#
#
# Elastic Constant Matrix: (Units=GPa)
#
#
# Indices 1 2 3 4 5 6 
#
# 1 80.5285 29.7930 25.1140 0.0000 0.0000 0.0000
# 2 29.7930 164.4263 72.6436 0.0000 0.0000 0.0000
# 3 25.1140 72.6436 121.8859 0.0000 0.0000 0.0000
# 4 0.0000 0.0000 0.0000 32.1502 0.0000 0.0000
# 5 0.0000 0.0000 0.0000 0.0000 18.1019 0.0000
# 6 0.0000 0.0000 0.0000 0.0000 0.0000 26.1798
#
#
#
# Elastic Compliance Matrix: (Units=1/GPa)
#
#
# Indices 1 2 3 4 5 6 
#
# 1 0.013598 -0.001664 -0.001810 0.000000 0.000000 0.000000
# 2 -0.001664 0.008459 -0.004699 0.000000 0.000000 0.000000
# 3 -0.001810 -0.004699 0.011378 0.000000 0.000000 0.000000
# 4 0.000000 0.000000 0.000000 0.031104 0.000000 0.000000
# 5 0.000000 0.000000 0.000000 0.000000 0.055243 0.000000
# 6 0.000000 0.000000 0.000000 0.000000 0.000000 0.038197
#
#
# Mechanical properties :
#
#
# Convention : Reuss Voigt Hill
#
# Bulk Modulus (GPa) = 58.51641 69.10465 63.81053
# Shear Modulus (GPa) = 27.77445 31.23906 29.50676
#
# Velocity S-wave (km/s) = 3.77684 4.00548 3.89284
# Velocity P-wave (km/s) = 7.00517 7.54207 7.27857
#
# Compressibility (1/GPa) = 0.01708922
#
# Stress axis : x y z
#
# Youngs Moduli (GPa) = 73.53941 118.21426 87.89075
#
# Poissons Ratio (x) = 0.19674 0.15908
# Poissons Ratio (y) = 0.12239 0.41298
# Poissons Ratio (z) = 0.13310 0.55546
#
# Static dielectric constant tensor:
#      x y z
#    x 1.723030 0.000000 0.000000 
#    y 0.000000 1.671090 0.000000 
#    z 0.000000 0.000000 1.650950 
# 
# From -- ./inp_files/37037.got.cif
#   From: 2010.05.17/outbox.cif.g08.bks.cpg/sg65_19_cif.got.tgz:37037.got - 2010.06.03 17:01:31.
