data_PCOD9493878
_publ_section_title
;
Structure prediction by ZEFSAII (Michael W. Deem and Ramdas Pophale) SiO2 
 PCOD9493878
Probable space group: C M M M
;
_chemical_formula_sum "Si O2"
_cell_formula_units_Z 104
_cell_length_a 7.604923
_cell_length_b 28.281818
_cell_length_c 27.901796
_cell_angle_alpha 90.000000
_cell_angle_beta 90.000000
_cell_angle_gamma 90.000000
_cell_volume 6001.147530
_symmetry_space_group_name_H-M "C M M M"
_symmetry_group_IT_number 65
_symmetry_cell_setting 'orthorhombic'
loop_
_space_group_symop_operation_xyz
x,y,z
-x,-y,z
x,-y,-z
-x,y,-z
-x,-y,-z
x,y,-z
-x,y,z
x,-y,z
1/2+x,1/2+y,z
1/2-x,1/2-y,z
1/2+x,1/2-y,-z
1/2-x,1/2+y,-z
1/2-x,1/2-y,-z
1/2+x,1/2+y,-z
1/2-x,1/2+y,z
1/2+x,1/2-y,z
loop_
_atom_site_type_symbol
_atom_site_label
_atom_site_fract_x
_atom_site_fract_y
_atom_site_fract_z
Si Si1 0.210498 0.102281 0.099895
Si Si2 0.714704 0.447207 0.196761
Si Si3 0.788807 0.806161 0.551544
Si Si4 0.292525 0.053191 0.000000
Si Si5 0.284976 0.648264 0.246309
Si Si6 0.710478 0.303860 0.148553
Si Si7 0.788483 0.194179 0.655834
O O1 0.271492 0.068450 0.143301
O O2 0.248511 0.081704 0.048027
O O3 0.275341 0.155257 0.112380
O O4 0.000000 0.103648 0.103817
O O5 0.500000 0.447721 0.196879
O O6 0.774688 0.500000 0.208333
O O7 0.767871 0.404959 0.232206
O O8 0.722100 0.824811 0.500000
O O9 0.750000 0.750000 0.551509
O O10 0.722422 0.822870 0.603518
O O11 0.000000 0.812106 0.551405
O O12 0.500000 0.048094 0.000000
O O13 0.214051 0.000000 0.000000
O O14 0.500000 0.649258 0.246967
O O15 0.227777 0.681719 0.202057
O O16 0.222131 0.666772 0.297509
O O17 0.500000 0.307594 0.149777
O O18 0.750000 0.250000 0.136240
O O19 0.750000 0.250000 0.660761
O O20 0.000000 0.189329 0.655164
#
# Coordination Sequence:
#
# PCOD9493878 Si02
#       7
#    16  16  16   8  16  16  16
#     4   9  18  32  49  67  84 106 136 161 185 228
#     4   8  13  23  41  62  80  98 123 157 193 225
#     4   8  13  20  29  42  62  91 126 157 184 217
#     4  11  23  35  48  69  92 107 124 159 202 235
#     4   8  14  23  35  55  80 101 125 158 192 228
#     4   9  17  29  45  64  85 108 134 162 191 227
#     4   9  15  22  33  49  72 100 126 155 189 222
#
# _framework density 17.330017999999999
#
# number of rings (size 3 to 8) (size 9 to 14) (size 15 to 20)
#    0.000    3.308    0.000    3.000    0.000    1.846 
#    0.000    0.385    0.000    0.923    0.000    0.000 
#    0.000    0.615    0.000    8.615    0.000    0.000 
#
# Total GULP energy -289509.807231 kJ/mol
# GULP energy per Si atom -5567.496293 kJ/mol
# Density = 1.729057 g / cm^3
# Si number density = 17.330018 Si / 1000 Ang^3
#
#
#
# Elastic Constant Matrix: (Units=GPa)
#
#
# Indices 1 2 3 4 5 6 
#
# 1 35.8032 2.6166 5.2500 0.0000 0.0000 0.0000
# 2 2.6166 119.8866 82.3525 0.0000 0.0000 0.0000
# 3 5.2500 82.3525 181.2274 0.0000 0.0000 0.0000
# 4 0.0000 0.0000 0.0000 17.1856 0.0000 0.0000
# 5 0.0000 0.0000 0.0000 0.0000 -3.6911 0.0000
# 6 0.0000 0.0000 0.0000 0.0000 0.0000 10.3173
#
#
#
# Elastic Compliance Matrix: (Units=1/GPa)
#
#
# Indices 1 2 3 4 5 6 
#
# 1 0.028050 -0.000079 -0.000777 0.000000 0.000000 0.000000
# 2 -0.000079 0.012127 -0.005508 0.000000 0.000000 0.000000
# 3 -0.000777 -0.005508 0.008043 0.000000 0.000000 0.000000
# 4 0.000000 0.000000 0.000000 0.058188 0.000000 0.000000
# 5 0.000000 0.000000 0.000000 0.000000 -0.270920 0.000000
# 6 0.000000 0.000000 0.000000 0.000000 0.000000 0.096924
#
#
# Mechanical properties :
#
#
# Convention : Reuss Voigt Hill
#
# Bulk Modulus (GPa) = 28.17472 57.48394 42.82933
# Shear Modulus (GPa) = -116.20159 21.20891 -47.49634
#
# Velocity S-wave (km/s) = -8.19742 3.50212 -5.24085
# Velocity P-wave (km/s) = 8.56177 7.04239 3.44302
#
# Compressibility (1/GPa) = 0.03549281
#
# Stress axis : x y z
#
# Youngs Moduli (GPa) = 35.65051 82.46292 124.32445
#
# Poissons Ratio (x) = 0.00648 0.09659
# Poissons Ratio (y) = 0.00280 0.68481
# Poissons Ratio (z) = 0.02770 0.45423
#
# Static dielectric constant tensor:
#      x y z
#    x 1.655770 0.000000 0.000000 
#    y 0.000000 1.610510 0.000000 
#    z 0.000000 0.000000 1.639740 
# 
# From -- ./inp_files/74037.got.cif
#   From: 2010.05.17/outbox.cif.g08.bks.cpg/sg65_38_cif.got.tgz:74037.got - 2010.06.03 17:01:31.
