data_PCOD9493567
_publ_section_title
;
Structure prediction by ZEFSAII (Michael W. Deem and Ramdas Pophale) SiO2 
 PCOD9493567
Probable space group: C M M M
;
_chemical_formula_sum "Si O2"
_cell_formula_units_Z 88
_cell_length_a 15.542458
_cell_length_b 12.091337
_cell_length_c 25.924939
_cell_angle_alpha 90.000000
_cell_angle_beta 90.000000
_cell_angle_gamma 90.000000
_cell_volume 4872.050389
_symmetry_space_group_name_H-M "C M M M"
_symmetry_group_IT_number 65
_symmetry_cell_setting 'orthorhombic'
loop_
_space_group_symop_operation_xyz
x,y,z
-x,-y,z
x,-y,-z
-x,y,-z
-x,-y,-z
x,y,-z
-x,y,z
x,-y,z
1/2+x,1/2+y,z
1/2-x,1/2-y,z
1/2+x,1/2-y,-z
1/2-x,1/2+y,-z
1/2-x,1/2-y,-z
1/2+x,1/2+y,-z
1/2-x,1/2+y,z
1/2+x,1/2-y,z
loop_
_atom_site_type_symbol
_atom_site_label
_atom_site_fract_x
_atom_site_fract_y
_atom_site_fract_z
Si Si1 0.103229 0.500000 0.330122
Si Si2 0.396032 0.128274 0.059115
Si Si3 0.102483 0.500000 0.214652
Si Si4 0.500000 0.633140 0.339303
Si Si5 0.150414 0.722018 0.389202
Si Si6 0.000000 0.867254 0.216118
Si Si7 0.396507 0.129686 0.500000
Si Si8 0.150896 0.271046 0.162743
O O1 0.138223 0.500000 0.272313
O O2 0.131340 0.609162 0.359214
O O3 0.000000 0.500000 0.329012
O O4 0.500000 0.129772 0.062729
O O5 0.361483 0.213245 0.101360
O O6 0.369687 0.000000 0.069426
O O7 0.372483 0.154203 0.000000
O O8 0.128312 0.390211 0.185620
O O9 0.000000 0.500000 0.217860
O O10 0.500000 0.500000 0.344366
O O11 0.416158 0.687401 0.366524
O O12 0.500000 0.660521 0.277656
O O13 0.250000 0.750000 0.381794
O O14 0.133170 0.694036 0.449054
O O15 0.916102 0.814567 0.188367
O O16 0.000000 0.000000 0.211408
O O17 0.500000 0.126939 0.500000
O O18 0.367442 0.000000 0.500000
O O19 0.250000 0.250000 0.174803
#
# Coordination Sequence:
#
# PCOD9493567 Si02
#       8
#     8  16   8   8  16   8   8  16
#     4  11  22  41  68  95 126 165 219 264 315 367
#     4   9  17  34  63  93 120 157 206 263 321 374
#     4  11  22  40  66  93 123 167 217 270 310 366
#     4  11  26  46  64  88 133 173 208 253 313 378
#     4  12  25  43  67 100 128 165 210 262 316 377
#     4  11  26  45  61  87 129 178 209 247 316 380
#     4  11  21  42  72  97 125 162 211 263 318 371
#     4  12  24  39  64  93 129 163 211 268 314 371
#
# _framework density 18.06221
#
# number of rings (size 3 to 8) (size 9 to 14) (size 15 to 20)
#    0.000    1.000    5.455    1.909    2.545    3.273 
#    0.000    0.909    0.000    1.091    0.000    0.000 
#    0.000    0.000    0.000    0.000    0.000    0.000 
#
# Total GULP energy -245737.042258 kJ/mol
# GULP energy per Si atom -5584.932779 kJ/mol
# Density = 1.802110 g / cm^3
# Si number density = 18.062210 Si / 1000 Ang^3
#
#
#
# Elastic Constant Matrix: (Units=GPa)
#
#
# Indices 1 2 3 4 5 6 
#
# 1 133.3514 56.1716 50.1823 0.0000 0.0000 0.0000
# 2 56.1716 112.3252 60.2420 0.0000 0.0000 0.0000
# 3 50.1823 60.2420 142.5873 0.0000 0.0000 0.0000
# 4 0.0000 0.0000 0.0000 34.4683 0.0000 0.0000
# 5 0.0000 0.0000 0.0000 0.0000 42.5386 0.0000
# 6 0.0000 0.0000 0.0000 0.0000 0.0000 17.4944
#
#
#
# Elastic Compliance Matrix: (Units=1/GPa)
#
#
# Indices 1 2 3 4 5 6 
#
# 1 0.009841 -0.003961 -0.001790 0.000000 0.000000 0.000000
# 2 -0.003961 0.013106 -0.004143 0.000000 0.000000 0.000000
# 3 -0.001790 -0.004143 0.009393 0.000000 0.000000 0.000000
# 4 0.000000 0.000000 0.000000 0.029012 0.000000 0.000000
# 5 0.000000 0.000000 0.000000 0.000000 0.023508 0.000000
# 6 0.000000 0.000000 0.000000 0.000000 0.000000 0.057161
#
#
# Mechanical properties :
#
#
# Convention : Reuss Voigt Hill
#
# Bulk Modulus (GPa) = 79.66814 80.16172 79.91493
# Shear Modulus (GPa) = 30.12155 33.67812 31.89983
#
# Velocity S-wave (km/s) = 4.08812 4.32274 4.20707
# Velocity P-wave (km/s) = 8.15396 8.33019 8.24255
#
# Compressibility (1/GPa) = 0.01255207
#
# Stress axis : x y z
#
# Youngs Moduli (GPa) = 101.61340 76.30302 106.45693
#
# Poissons Ratio (x) = 0.30227 0.19054
# Poissons Ratio (y) = 0.40254 0.44103
# Poissons Ratio (z) = 0.18187 0.31611
#
# Static dielectric constant tensor:
#      x y z
#    x 1.574850 0.000000 0.000000 
#    y 0.000000 1.587300 0.000000 
#    z 0.000000 0.000000 1.655770 
# 
# From -- ./inp_files/69856.got.cif
#   From: 2010.05.17/outbox.cif.g08.bks.cpg/sg65_35_cif.got.tgz:69856.got - 2010.06.03 17:01:31.
