data_PCOD9493461
_publ_section_title
;
Structure prediction by ZEFSAII (Michael W. Deem and Ramdas Pophale) SiO2 
 PCOD9493461
Probable space group: C M M M
;
_chemical_formula_sum "Si O2"
_cell_formula_units_Z 48
_cell_length_a 8.818139
_cell_length_b 18.983710
_cell_length_c 17.338823
_cell_angle_alpha 90.000000
_cell_angle_beta 90.000000
_cell_angle_gamma 90.000000
_cell_volume 2902.536197
_symmetry_space_group_name_H-M "C M M M"
_symmetry_group_IT_number 65
_symmetry_cell_setting 'orthorhombic'
loop_
_space_group_symop_operation_xyz
x,y,z
-x,-y,z
x,-y,-z
-x,y,-z
-x,-y,-z
x,y,-z
-x,y,z
x,-y,z
1/2+x,1/2+y,z
1/2-x,1/2-y,z
1/2+x,1/2-y,-z
1/2-x,1/2+y,-z
1/2-x,1/2-y,-z
1/2+x,1/2+y,-z
1/2-x,1/2+y,z
1/2+x,1/2-y,z
loop_
_atom_site_type_symbol
_atom_site_label
_atom_site_fract_x
_atom_site_fract_y
_atom_site_fract_z
Si Si1 0.181881 0.672468 0.852078
Si Si2 0.315316 0.080735 0.000000
Si Si3 0.681611 0.000000 0.410435
Si Si4 0.321504 0.578989 0.721713
O O1 0.250000 0.750000 0.860226
O O2 0.239332 0.635573 0.774114
O O3 0.000000 0.676347 0.851901
O O4 0.230960 0.623522 0.923892
O O5 0.500000 0.078992 0.000000
O O6 0.262009 0.000000 0.000000
O O7 0.749465 0.066171 0.362742
O O8 0.500000 0.000000 0.403717
O O9 0.723562 0.000000 0.500000
O O10 0.500000 0.593554 0.715937
O O11 0.302931 0.500000 0.757745
#
# Coordination Sequence:
#
# PCOD9493461 Si02
#       4
#    16   8   8  16
#     4  11  21  34  53  75 107 144 182 223 268 318
#     4   9  19  34  53  77 102 137 183 228 269 312
#     4   9  17  31  55  84 109 136 173 213 258 313
#     4   9  19  33  52  78 108 137 175 218 262 311
#
# _framework density 16.537261999999998
#
# number of rings (size 3 to 8) (size 9 to 14) (size 15 to 20)
#    1.000    1.333    0.000    3.500    0.000    2.667 
#    0.000    2.500    0.000    7.000    0.000    0.000 
#    0.000    0.000    0.000    0.000    0.000    0.000 
#
# Total GULP energy -133662.770461 kJ/mol
# GULP energy per Si atom -5569.282103 kJ/mol
# Density = 1.649962 g / cm^3
# Si number density = 16.537262 Si / 1000 Ang^3
#
#
#
# Elastic Constant Matrix: (Units=GPa)
#
#
# Indices 1 2 3 4 5 6 
#
# 1 70.3563 51.1068 46.9877 0.0000 0.0000 0.0000
# 2 51.1068 126.2798 80.7466 0.0000 0.0000 0.0000
# 3 46.9877 80.7466 146.4461 0.0000 0.0000 0.0000
# 4 0.0000 0.0000 0.0000 6.1293 0.0000 0.0000
# 5 0.0000 0.0000 0.0000 0.0000 9.0533 0.0000
# 6 0.0000 0.0000 0.0000 0.0000 0.0000 25.9212
#
#
#
# Elastic Compliance Matrix: (Units=1/GPa)
#
#
# Indices 1 2 3 4 5 6 
#
# 1 0.021047 -0.006487 -0.003176 0.000000 0.000000 0.000000
# 2 -0.006487 0.014231 -0.005765 0.000000 0.000000 0.000000
# 3 -0.003176 -0.005765 0.011026 0.000000 0.000000 0.000000
# 4 0.000000 0.000000 0.000000 0.163151 0.000000 0.000000
# 5 0.000000 0.000000 0.000000 0.000000 0.110457 0.000000
# 6 0.000000 0.000000 0.000000 0.000000 0.000000 0.038578
#
#
# Mechanical properties :
#
#
# Convention : Reuss Voigt Hill
#
# Bulk Modulus (GPa) = 64.73640 77.86271 71.29956
# Shear Modulus (GPa) = 12.67442 19.17016 15.92229
#
# Velocity S-wave (km/s) = 2.77143 3.40841 3.10629
# Velocity P-wave (km/s) = 7.03362 7.91676 7.48822
#
# Compressibility (1/GPa) = 0.01544726
#
# Stress axis : x y z
#
# Youngs Moduli (GPa) = 47.51340 70.27143 90.69283
#
# Poissons Ratio (x) = 0.45584 0.28806
# Poissons Ratio (y) = 0.30821 0.52285
# Poissons Ratio (z) = 0.15091 0.40512
#
# Static dielectric constant tensor:
#      x y z
#    x 1.548750 0.000000 0.000000 
#    y 0.000000 1.542400 0.000000 
#    z 0.000000 0.000000 1.546500 
# 
# From -- ./inp_files/35209.got.cif
#   From: 2010.05.17/outbox.cif.g08.bks.cpg/sg65_18_cif.got.tgz:35209.got - 2010.06.03 17:01:31.
