data_PCOD9493664
_publ_section_title
;
Structure prediction by ZEFSAII (Michael W. Deem and Ramdas Pophale) SiO2 
 PCOD9493664
Probable space group: C M M M
;
_chemical_formula_sum "Si O2"
_cell_formula_units_Z 72
_cell_length_a 32.546723
_cell_length_b 8.808624
_cell_length_c 13.774745
_cell_angle_alpha 90.000000
_cell_angle_beta 90.000000
_cell_angle_gamma 90.000000
_cell_volume 3949.107063
_symmetry_space_group_name_H-M "C M M M"
_symmetry_group_IT_number 65
_symmetry_cell_setting 'orthorhombic'
loop_
_space_group_symop_operation_xyz
x,y,z
-x,-y,z
x,-y,-z
-x,y,-z
-x,-y,-z
x,y,-z
-x,y,z
x,-y,z
1/2+x,1/2+y,z
1/2-x,1/2-y,z
1/2+x,1/2-y,-z
1/2-x,1/2+y,-z
1/2-x,1/2-y,-z
1/2+x,1/2+y,-z
1/2-x,1/2+y,z
1/2+x,1/2-y,z
loop_
_atom_site_type_symbol
_atom_site_label
_atom_site_fract_x
_atom_site_fract_y
_atom_site_fract_z
Si Si1 0.834397 0.816567 0.891098
Si Si2 0.619170 0.682861 0.610313
Si Si3 0.416451 0.819056 0.198059
Si Si4 0.292908 0.318399 0.306386
Si Si5 0.500000 0.680483 0.884434
O O1 0.878770 0.747870 0.865187
O O2 0.803848 0.770265 0.804365
O O3 0.837924 0.000000 0.886977
O O4 0.821746 0.773312 0.000000
O O5 0.608134 0.720483 0.500000
O O6 0.615739 0.500000 0.623220
O O7 0.592578 0.764190 0.692283
O O8 0.666924 0.722801 0.631156
O O9 0.459223 0.753129 0.160515
O O10 0.416239 0.000000 0.192260
O O11 0.289502 0.500000 0.308182
O O12 0.250000 0.250000 0.338991
O O13 0.500000 0.500000 0.866894
O O14 0.500000 0.705931 0.000000
#
# Coordination Sequence:
#
# PCOD9493664 Si02
#       5
#    16  16  16  16   8
#     4   9  18  34  53  71  99 143 186 218 256 315
#     4   9  19  38  60  77 100 140 183 218 259 317
#     4  11  22  35  54  83 114 137 167 219 271 311
#     4   9  18  31  48  74 105 136 174 220 267 314
#     4  11  23  39  60  83 110 147 183 210 244 301
#
# _framework density 18.23197
#
# number of rings (size 3 to 8) (size 9 to 14) (size 15 to 20)
#    0.000    2.333    0.000    4.333    0.000    8.889 
#    0.000    0.556    0.000    3.333    0.000    0.000 
#    0.000    0.000    0.000    0.000    0.000    0.000 
#
# Total GULP energy -200944.419257 kJ/mol
# GULP energy per Si atom -5581.789424 kJ/mol
# Density = 1.819047 g / cm^3
# Si number density = 18.231970 Si / 1000 Ang^3
#
#
#
# Elastic Constant Matrix: (Units=GPa)
#
#
# Indices 1 2 3 4 5 6 
#
# 1 69.6731 19.7728 -5.1248 0.0000 0.0000 0.0000
# 2 19.7728 30.8543 23.2068 0.0000 0.0000 0.0000
# 3 -5.1248 23.2068 66.4670 0.0000 0.0000 0.0000
# 4 0.0000 0.0000 0.0000 0.9585 0.0000 0.0000
# 5 0.0000 0.0000 0.0000 0.0000 5.4518 0.0000
# 6 0.0000 0.0000 0.0000 0.0000 0.0000 26.9632
#
#
#
# Elastic Compliance Matrix: (Units=1/GPa)
#
#
# Indices 1 2 3 4 5 6 
#
# 1 0.020474 -0.019403 0.008353 0.000000 0.000000 0.000000
# 2 -0.019403 0.062342 -0.023263 0.000000 0.000000 0.000000
# 3 0.008353 -0.023263 0.023811 0.000000 0.000000 0.000000
# 4 0.000000 0.000000 0.000000 1.043252 0.000000 0.000000
# 5 0.000000 0.000000 0.000000 0.000000 0.183427 0.000000
# 6 0.000000 0.000000 0.000000 0.000000 0.000000 0.037088
#
#
# Mechanical properties :
#
#
# Convention : Reuss Voigt Hill
#
# Bulk Modulus (GPa) = 26.31485 26.96710 26.64097
# Shear Modulus (GPa) = 3.44427 15.28399 9.36413
#
# Velocity S-wave (km/s) = 1.37595 2.89849 2.26876
# Velocity P-wave (km/s) = 4.12177 5.10146 4.63756
#
# Compressibility (1/GPa) = 0.03800136
#
# Stress axis : x y z
#
# Youngs Moduli (GPa) = 48.84304 16.04059 41.99695
#
# Poissons Ratio (x) = 0.31124 -0.35081
# Poissons Ratio (y) = 0.94772 0.97696
# Poissons Ratio (z) = -0.40800 0.37315
#
# Static dielectric constant tensor:
#      x y z
#    x 1.592530 0.000000 0.000000 
#    y 0.000000 1.610730 0.000000 
#    z 0.000000 0.000000 1.637300 
# 
# From -- ./inp_files/36602.got.cif
#   From: 2010.05.17/outbox.cif.g08.bks.cpg/sg65_19_cif.got.tgz:36602.got - 2010.06.03 17:01:31.
