data_PCOD9493820
_publ_section_title
;
Structure prediction by ZEFSAII (Michael W. Deem and Ramdas Pophale) SiO2 
 PCOD9493820
Probable space group: C M M M
;
_chemical_formula_sum "Si O2"
_cell_formula_units_Z 76
_cell_length_a 16.564542
_cell_length_b 14.822510
_cell_length_c 15.865646
_cell_angle_alpha 90.000000
_cell_angle_beta 90.000000
_cell_angle_gamma 90.000000
_cell_volume 3895.461750
_symmetry_space_group_name_H-M "C M M M"
_symmetry_group_IT_number 65
_symmetry_cell_setting 'orthorhombic'
loop_
_space_group_symop_operation_xyz
x,y,z
-x,-y,z
x,-y,-z
-x,y,-z
-x,-y,-z
x,y,-z
-x,y,z
x,-y,z
1/2+x,1/2+y,z
1/2-x,1/2-y,z
1/2+x,1/2-y,-z
1/2-x,1/2+y,-z
1/2-x,1/2-y,-z
1/2+x,1/2+y,-z
1/2-x,1/2+y,z
1/2+x,1/2-y,z
loop_
_atom_site_type_symbol
_atom_site_label
_atom_site_fract_x
_atom_site_fract_y
_atom_site_fract_z
Si Si1 0.911374 0.891148 0.263416
Si Si2 0.783350 0.500000 0.500000
Si Si3 0.333546 0.890575 0.184812
Si Si4 0.000000 0.389644 0.902543
Si Si5 0.169694 0.889956 0.093324
Si Si6 0.247498 0.650421 0.358912
O O1 0.887537 0.859684 0.169399
O O2 0.837655 0.869928 0.324814
O O3 0.000000 0.857601 0.288482
O O4 0.914625 0.000000 0.260048
O O5 0.779697 0.422090 0.426093
O O6 0.419120 0.862828 0.146919
O O7 0.260902 0.866955 0.120999
O O8 0.309732 0.851939 0.275881
O O9 0.332669 0.000000 0.193385
O O10 0.000000 0.500000 0.904368
O O11 0.000000 0.359803 0.000000
O O12 0.165684 0.000000 0.091424
O O13 0.150011 0.856793 0.000000
O O14 0.250000 0.750000 0.394941
#
# Coordination Sequence:
#
# PCOD9493820 Si02
#       6
#    16   4  16   8  16  16
#     4   9  17  33  55  83 119 155 193 242 294 352
#     4  12  22  44  69  91 116 136 196 254 292 383
#     4   9  16  31  51  79 120 155 195 244 293 342
#     4   9  16  26  52  90 118 160 217 249 277 327
#     4   8  13  22  43  76 114 154 195 238 283 336
#     4  11  22  39  63  90 115 154 192 239 311 370
#
# _framework density 19.509882000000001
#
# number of rings (size 3 to 8) (size 9 to 14) (size 15 to 20)
#    0.000    2.632    2.105    2.211    0.000    2.947 
#    1.895    3.158    0.000   17.053    0.000    0.000 
#    0.000    0.000    0.000    0.000    0.000    0.000 
#
# Total GULP energy -211559.460064 kJ/mol
# GULP energy per Si atom -5567.354212 kJ/mol
# Density = 1.946548 g / cm^3
# Si number density = 19.509882 Si / 1000 Ang^3
#
#
#
# Elastic Constant Matrix: (Units=GPa)
#
#
# Indices 1 2 3 4 5 6 
#
# 1 97.7496 0.6263 18.9177 0.0000 0.0000 0.0000
# 2 0.6263 78.5733 16.5826 0.0000 0.0000 0.0000
# 3 18.9177 16.5826 94.7419 0.0000 0.0000 0.0000
# 4 0.0000 0.0000 0.0000 -46.3002 0.0000 0.0000
# 5 0.0000 0.0000 0.0000 0.0000 -117.7131 0.0000
# 6 0.0000 0.0000 0.0000 0.0000 0.0000 -6.7239
#
#
#
# Elastic Compliance Matrix: (Units=1/GPa)
#
#
# Indices 1 2 3 4 5 6 
#
# 1 0.010652 0.000378 -0.002193 0.000000 0.000000 0.000000
# 2 0.000378 0.013229 -0.002391 0.000000 0.000000 0.000000
# 3 -0.002193 -0.002391 0.011411 0.000000 0.000000 0.000000
# 4 0.000000 0.000000 0.000000 -0.021598 0.000000 0.000000
# 5 0.000000 0.000000 0.000000 0.000000 -0.008495 0.000000
# 6 0.000000 0.000000 0.000000 0.000000 0.000000 -0.148722
#
#
# Mechanical properties :
#
#
# Convention : Reuss Voigt Hill
#
# Bulk Modulus (GPa) = 37.20229 38.14644 37.67436
# Shear Modulus (GPa) = -39.63496 -18.48491 -29.05994
#
# Velocity S-wave (km/s) = -4.51214 -3.08143 -3.86359
# Velocity P-wave (km/s) = 2.83480 2.63335 0.74214
#
# Compressibility (1/GPa) = 0.02688007
#
# Stress axis : x y z
#
# Youngs Moduli (GPa) = 93.87699 75.59410 87.63179
#
# Poissons Ratio (x) = -0.02857 0.19219
# Poissons Ratio (y) = -0.03548 0.20952
# Poissons Ratio (z) = 0.20589 0.18073
#
# Static dielectric constant tensor:
#      x y z
#    x 1.691000 0.000000 0.000000 
#    y 0.000000 1.725610 0.000000 
#    z 0.000000 0.000000 1.650850 
# 
# From -- ./inp_files/42413.got.cif
#   From: 2010.05.17/outbox.cif.g08.bks.cpg/sg65_22_cif.got.tgz:42413.got - 2010.06.03 17:01:31.
