data_PCOD9493141
_publ_section_title
;
Structure prediction by ZEFSAII (Michael W. Deem and Ramdas Pophale) SiO2 
 PCOD9493141
Probable space group: C M M M
;
_chemical_formula_sum "Si O2"
_cell_formula_units_Z 50
_cell_length_a 10.401864
_cell_length_b 30.401081
_cell_length_c 7.192483
_cell_angle_alpha 90.000000
_cell_angle_beta 90.000000
_cell_angle_gamma 90.000000
_cell_volume 2274.463867
_symmetry_space_group_name_H-M "C M M M"
_symmetry_group_IT_number 65
_symmetry_cell_setting 'orthorhombic'
loop_
_space_group_symop_operation_xyz
x,y,z
-x,-y,z
x,-y,-z
-x,y,-z
-x,-y,-z
x,y,-z
-x,y,z
x,-y,z
1/2+x,1/2+y,z
1/2-x,1/2-y,z
1/2+x,1/2-y,-z
1/2-x,1/2+y,-z
1/2-x,1/2-y,-z
1/2+x,1/2+y,-z
1/2-x,1/2+y,z
1/2+x,1/2-y,z
loop_
_atom_site_type_symbol
_atom_site_label
_atom_site_fract_x
_atom_site_fract_y
_atom_site_fract_z
Si Si1 0.721450 0.382470 0.724762
Si Si2 0.855970 0.215126 0.726393
Si Si3 0.500000 0.082889 0.275726
Si Si4 0.500000 0.550783 0.273731
Si Si5 0.000000 0.500000 0.000000
O O1 0.713922 0.382234 0.500000
O O2 0.674732 0.334600 0.786199
O O3 0.625531 0.421494 0.784788
O O4 0.868922 0.391582 0.772187
O O5 0.853441 0.214825 0.500000
O O6 0.750000 0.250000 0.787230
O O7 0.000000 0.227450 0.782047
O O8 0.500000 0.075622 0.500000
O O9 0.500000 0.038226 0.161970
O O10 0.500000 0.500000 0.213072
O O11 0.500000 0.549943 0.500000
#
# Coordination Sequence:
#
# PCOD9493141 Si02
#       5
#    16  16   8   8   2
#     4   9  17  31  49  77 112 150 198 245 292 354
#     4   9  16  25  41  71 116 158 193 242 296 348
#     4  10  23  39  62  86 115 159 201 241 300 361
#     4   9  16  26  45  71 102 141 188 242 292 339
#     4  12  26  44  60  88 124 152 194 258 300 354
#
# _framework density 21.983201999999999
#
# number of rings (size 3 to 8) (size 9 to 14) (size 15 to 20)
#    0.000    2.720    1.600    0.240    4.480    0.000 
#    0.000    0.000    0.000    1.920    0.000    1.120 
#    0.000    0.000    0.000    0.000    0.000    0.320 
#
# Total GULP energy -139455.452360 kJ/mol
# GULP energy per Si atom -5578.218094 kJ/mol
# Density = 2.193317 g / cm^3
# Si number density = 21.983202 Si / 1000 Ang^3
#
#
#
# Elastic Constant Matrix: (Units=GPa)
#
#
# Indices 1 2 3 4 5 6 
#
# 1 239.6204 129.9384 12.4910 0.0000 0.0000 0.0000
# 2 129.9384 198.2949 8.6437 0.0000 0.0000 0.0000
# 3 12.4910 8.6437 115.8216 0.0000 0.0000 0.0000
# 4 0.0000 0.0000 0.0000 19.7880 0.0000 0.0000
# 5 0.0000 0.0000 0.0000 0.0000 -29.1324 0.0000
# 6 0.0000 0.0000 0.0000 0.0000 0.0000 -1.2003
#
#
#
# Elastic Compliance Matrix: (Units=1/GPa)
#
#
# Indices 1 2 3 4 5 6 
#
# 1 0.006491 -0.004236 -0.000384 0.000000 0.000000 0.000000
# 2 -0.004236 0.007825 -0.000127 0.000000 0.000000 0.000000
# 3 -0.000384 -0.000127 0.008685 0.000000 0.000000 0.000000
# 4 0.000000 0.000000 0.000000 0.050536 0.000000 0.000000
# 5 0.000000 0.000000 0.000000 0.000000 -0.034326 0.000000
# 6 0.000000 0.000000 0.000000 0.000000 0.000000 -0.833124
#
#
# Mechanical properties :
#
#
# Convention : Reuss Voigt Hill
#
# Bulk Modulus (GPa) = 74.04451 95.09813 84.57132
# Shear Modulus (GPa) = -6.41093 24.73532 9.16220
#
# Velocity S-wave (km/s) = -1.70957 3.35803 2.04374
# Velocity P-wave (km/s) = 5.46430 7.64124 6.64256
#
# Compressibility (1/GPa) = 0.01350539
#
# Stress axis : x y z
#
# Youngs Moduli (GPa) = 154.07081 127.80308 115.14314
#
# Poissons Ratio (x) = 0.54142 0.04419
# Poissons Ratio (y) = 0.65270 0.01463
# Poissons Ratio (z) = 0.05914 0.01624
#
# Static dielectric constant tensor:
#      x y z
#    x 1.764000 0.000000 0.000000 
#    y 0.000000 1.724750 0.000000 
#    z 0.000000 0.000000 1.822080 
# 
# From -- ./inp_files/3165.got.cif
#   From: 2010.05.17/outbox.cif.g08.bks.cpg/sg65_2_cif.got.tgz:3165.got - 2010.06.03 17:01:31.
