data_PCOD9493156
_publ_section_title
;
Structure prediction by ZEFSAII (Michael W. Deem and Ramdas Pophale) SiO2 
 PCOD9493156
Probable space group: C M M M
;
_chemical_formula_sum "Si O2"
_cell_formula_units_Z 90
_cell_length_a 8.893340
_cell_length_b 24.033674
_cell_length_c 22.605089
_cell_angle_alpha 90.000000
_cell_angle_beta 90.000000
_cell_angle_gamma 90.000000
_cell_volume 4831.603457
_symmetry_space_group_name_H-M "C M M M"
_symmetry_group_IT_number 65
_symmetry_cell_setting 'orthorhombic'
loop_
_space_group_symop_operation_xyz
x,y,z
-x,-y,z
x,-y,-z
-x,y,-z
-x,-y,-z
x,y,-z
-x,y,z
x,-y,z
1/2+x,1/2+y,z
1/2-x,1/2-y,z
1/2+x,1/2-y,-z
1/2-x,1/2+y,-z
1/2-x,1/2-y,-z
1/2+x,1/2+y,-z
1/2-x,1/2+y,z
1/2+x,1/2-y,z
loop_
_atom_site_type_symbol
_atom_site_label
_atom_site_fract_x
_atom_site_fract_y
_atom_site_fract_z
Si Si1 0.171534 0.625304 0.883861
Si Si2 0.322667 0.689580 0.221026
Si Si3 0.178965 0.433468 0.567467
Si Si4 0.318234 0.000000 0.239593
Si Si5 0.818245 0.689318 0.000000
Si Si6 0.321253 0.600263 0.313806
Si Si7 0.000000 0.000000 0.000000
Si Si8 0.752582 0.000000 0.107409
O O1 0.266509 0.646176 0.828551
O O2 0.173166 0.559806 0.897019
O O3 0.000000 0.642537 0.872534
O O4 0.230162 0.656471 0.941828
O O5 0.500000 0.696100 0.214783
O O6 0.250000 0.750000 0.214108
O O7 0.289945 0.659522 0.283288
O O8 0.218006 0.417988 0.500000
O O9 0.204196 0.500000 0.573498
O O10 0.271092 0.403318 0.618416
O O11 0.000000 0.424409 0.575535
O O12 0.272738 0.053643 0.278020
O O13 0.500000 0.000000 0.226800
O O14 0.219570 0.000000 0.179094
O O15 0.750000 0.750000 0.000000
O O16 0.000000 0.691512 0.000000
O O17 0.500000 0.588742 0.307861
O O18 0.128431 0.000000 0.946142
#
# Coordination Sequence:
#
# PCOD9493156 Si02
#       8
#    16  16  16   8   8  16   2   8
#     4  11  23  42  67  92 121 155 202 256 312 378
#     4  11  25  42  62  90 123 161 207 261 318 376
#     4   9  18  33  55  87 129 172 214 257 306 372
#     4  12  23  37  64  95 124 164 207 258 313 384
#     4  10  23  41  60  83 111 149 195 249 296 355
#     4  11  23  37  59  92 129 166 206 261 319 376
#     4  12  32  44  62  92 136 172 204 260 312 366
#     4  12  26  44  66  94 125 167 206 247 321 381
#
# _framework density 18.627355000000001
#
# number of rings (size 3 to 8) (size 9 to 14) (size 15 to 20)
#    0.000    1.244    2.667    3.733    2.489    4.622 
#    1.600    3.778    0.000    0.533    0.000    0.000 
#    0.000    0.000    0.000    0.000    0.000    0.000 
#
# Total GULP energy -250867.342415 kJ/mol
# GULP energy per Si atom -5574.829831 kJ/mol
# Density = 1.858496 g / cm^3
# Si number density = 18.627355 Si / 1000 Ang^3
#
#
#
# Elastic Constant Matrix: (Units=GPa)
#
#
# Indices 1 2 3 4 5 6 
#
# 1 56.5449 29.8422 48.6922 0.0000 0.0000 0.0000
# 2 29.8422 109.2160 39.9024 0.0000 0.0000 0.0000
# 3 48.6922 39.9024 139.3251 0.0000 0.0000 0.0000
# 4 0.0000 0.0000 0.0000 7.7858 0.0000 0.0000
# 5 0.0000 0.0000 0.0000 0.0000 24.5735 0.0000
# 6 0.0000 0.0000 0.0000 0.0000 0.0000 0.0999
#
#
#
# Elastic Compliance Matrix: (Units=1/GPa)
#
#
# Indices 1 2 3 4 5 6 
#
# 1 0.027068 -0.004400 -0.008200 0.000000 0.000000 0.000000
# 2 -0.004400 0.010942 -0.001596 0.000000 0.000000 0.000000
# 3 -0.008200 -0.001596 0.010500 0.000000 0.000000 0.000000
# 4 0.000000 0.000000 0.000000 0.128440 0.000000 0.000000
# 5 0.000000 0.000000 0.000000 0.000000 0.040694 0.000000
# 6 0.000000 0.000000 0.000000 0.000000 0.000000 10.012459
#
#
# Mechanical properties :
#
#
# Convention : Reuss Voigt Hill
#
# Bulk Modulus (GPa) = 49.70591 60.21773 54.96182
# Shear Modulus (GPa) = 0.48708 18.93512 9.71110
#
# Velocity S-wave (km/s) = 0.51191 3.19175 2.28575
# Velocity P-wave (km/s) = 5.20497 6.78092 6.04452
#
# Compressibility (1/GPa) = 0.02011833
#
# Stress axis : x y z
#
# Youngs Moduli (GPa) = 36.94341 91.39486 95.23636
#
# Poissons Ratio (x) = 0.40217 0.78092
# Poissons Ratio (y) = 0.16256 0.15197
# Poissons Ratio (z) = 0.30293 0.14584
#
# Static dielectric constant tensor:
#      x y z
#    x 1.647900 0.000000 0.000000 
#    y 0.000000 1.633510 0.000000 
#    z 0.000000 0.000000 1.654670 
# 
# From -- ./inp_files/59954.got.cif
#   From: 2010.05.17/outbox.cif.g08.bks.cpg/sg65_30_cif.got.tgz:59954.got - 2010.06.03 17:01:31.
