data_PCOD9493362
_publ_section_title
;
Structure prediction by ZEFSAII (Michael W. Deem and Ramdas Pophale) SiO2 
 PCOD9493362
Probable space group: C M M M
;
_chemical_formula_sum "Si O2"
_cell_formula_units_Z 72
_cell_length_a 16.923269
_cell_length_b 15.698747
_cell_length_c 14.677907
_cell_angle_alpha 90.000000
_cell_angle_beta 90.000000
_cell_angle_gamma 90.000000
_cell_volume 3899.540003
_symmetry_space_group_name_H-M "C M M M"
_symmetry_group_IT_number 65
_symmetry_cell_setting 'orthorhombic'
loop_
_space_group_symop_operation_xyz
x,y,z
-x,-y,z
x,-y,-z
-x,y,-z
-x,-y,-z
x,y,-z
-x,y,z
x,-y,z
1/2+x,1/2+y,z
1/2-x,1/2-y,z
1/2+x,1/2-y,-z
1/2-x,1/2+y,-z
1/2-x,1/2-y,-z
1/2+x,1/2+y,-z
1/2-x,1/2+y,z
1/2+x,1/2-y,z
loop_
_atom_site_type_symbol
_atom_site_label
_atom_site_fract_x
_atom_site_fract_y
_atom_site_fract_z
Si Si1 0.409731 0.733264 0.215261
Si Si2 0.096698 0.684989 0.603849
Si Si3 0.089921 0.500000 0.389166
Si Si4 0.378659 0.903727 0.107228
Si Si5 0.188526 0.904053 0.893388
O O1 0.500000 0.701656 0.215288
O O2 0.382002 0.748444 0.318835
O O3 0.409894 0.825546 0.165996
O O4 0.353543 0.668674 0.163335
O O5 0.120943 0.703138 0.500000
O O6 0.126727 0.590966 0.633459
O O7 0.000000 0.679714 0.603364
O O8 0.085095 0.500000 0.500000
O O9 0.000000 0.500000 0.353793
O O10 0.283359 0.899082 0.113149
O O11 0.402247 0.000000 0.135713
O O12 0.399580 0.894156 0.000000
O O13 0.165048 0.000000 0.865651
O O14 0.168396 0.893215 0.000000
#
# Coordination Sequence:
#
# PCOD9493362 Si02
#       5
#    16  16   8  16  16
#     4  11  21  29  48  80 105 125 155 205 259 293
#     4   8  15  27  42  64  97 133 163 191 231 291
#     4   7  10  20  38  56  81 123 163 185 209 262
#     4   9  19  35  52  70  97 135 169 193 232 300
#     4   9  19  37  56  69  89 131 180 210 231 279
#
# _framework density 18.463715000000001
#
# number of rings (size 3 to 8) (size 9 to 14) (size 15 to 20)
#    0.000    3.000    0.000    4.000    1.556    4.444 
#    0.000    2.222    0.000    3.333    0.000    6.222 
#    0.000    0.000    0.000    0.000    0.000    0.000 
#
# Total GULP energy -200724.537261 kJ/mol
# GULP energy per Si atom -5575.681591 kJ/mol
# Density = 1.842169 g / cm^3
# Si number density = 18.463715 Si / 1000 Ang^3
#
#
#
# Elastic Constant Matrix: (Units=GPa)
#
#
# Indices 1 2 3 4 5 6 
#
# 1 34.7389 31.1707 25.0536 0.0000 0.0000 0.0000
# 2 31.1707 85.0261 52.6904 0.0000 0.0000 0.0000
# 3 25.0536 52.6904 74.7745 0.0000 0.0000 0.0000
# 4 0.0000 0.0000 0.0000 22.5975 0.0000 0.0000
# 5 0.0000 0.0000 0.0000 0.0000 23.8858 0.0000
# 6 0.0000 0.0000 0.0000 0.0000 0.0000 4.2821
#
#
#
# Elastic Compliance Matrix: (Units=1/GPa)
#
#
# Indices 1 2 3 4 5 6 
#
# 1 0.044385 -0.012525 -0.006045 0.000000 0.000000 0.000000
# 2 -0.012525 0.024413 -0.013006 0.000000 0.000000 0.000000
# 3 -0.006045 -0.013006 0.024564 0.000000 0.000000 0.000000
# 4 0.000000 0.000000 0.000000 0.044253 0.000000 0.000000
# 5 0.000000 0.000000 0.000000 0.000000 0.041866 0.000000
# 6 0.000000 0.000000 0.000000 0.000000 0.000000 0.233530
#
#
# Mechanical properties :
#
#
# Convention : Reuss Voigt Hill
#
# Bulk Modulus (GPa) = 33.10358 45.81876 39.46117
# Shear Modulus (GPa) = 10.28316 15.86139 13.07228
#
# Velocity S-wave (km/s) = 2.36252 2.93415 2.66371
# Velocity P-wave (km/s) = 5.04082 6.02896 5.55690
#
# Compressibility (1/GPa) = 0.03020822
#
# Stress axis : x y z
#
# Youngs Moduli (GPa) = 22.53019 40.96260 40.71042
#
# Poissons Ratio (x) = 0.51307 0.24611
# Poissons Ratio (y) = 0.28220 0.52947
# Poissons Ratio (z) = 0.13620 0.53275
#
# Static dielectric constant tensor:
#      x y z
#    x 1.624740 0.000000 0.000000 
#    y 0.000000 1.641770 0.000000 
#    z 0.000000 0.000000 1.655660 
# 
# From -- ./inp_files/39759.got.cif
#   From: 2010.05.17/outbox.cif.g08.bks.cpg/sg65_20_cif.got.tgz:39759.got - 2010.06.03 17:01:31.
