data_PCOD9493469
_publ_section_title
;
Structure prediction by ZEFSAII (Michael W. Deem and Ramdas Pophale) SiO2 
 PCOD9493469
Probable space group: C M M M
;
_chemical_formula_sum "Si O2"
_cell_formula_units_Z 64
_cell_length_a 36.270607
_cell_length_b 11.588110
_cell_length_c 8.507424
_cell_angle_alpha 90.000000
_cell_angle_beta 90.000000
_cell_angle_gamma 90.000000
_cell_volume 3575.736526
_symmetry_space_group_name_H-M "C M M M"
_symmetry_group_IT_number 65
_symmetry_cell_setting 'orthorhombic'
loop_
_space_group_symop_operation_xyz
x,y,z
-x,-y,z
x,-y,-z
-x,y,-z
-x,-y,-z
x,y,-z
-x,y,z
x,-y,z
1/2+x,1/2+y,z
1/2-x,1/2-y,z
1/2+x,1/2-y,-z
1/2-x,1/2+y,-z
1/2-x,1/2-y,-z
1/2+x,1/2+y,-z
1/2-x,1/2+y,z
1/2+x,1/2-y,z
loop_
_atom_site_type_symbol
_atom_site_label
_atom_site_fract_x
_atom_site_fract_y
_atom_site_fract_z
Si Si1 0.272254 0.865955 0.191670
Si Si2 0.000000 0.637397 0.680029
Si Si3 0.142913 0.630706 0.191132
Si Si4 0.957532 0.000000 0.687496
Si Si5 0.571345 0.261747 0.812015
O O1 0.250000 0.750000 0.242016
O O2 0.314973 0.847949 0.240054
O O3 0.261741 0.000000 0.238998
O O4 0.270639 0.867367 0.000000
O O5 0.036989 0.683021 0.760810
O O6 0.000000 0.500000 0.681072
O O7 0.000000 0.680496 0.500000
O O8 0.133126 0.500000 0.235946
O O9 0.110523 0.713717 0.247098
O O10 0.143317 0.635447 0.000000
O O11 0.937264 0.112646 0.747993
O O12 0.958341 0.000000 0.500000
O O13 0.000000 0.000000 0.744826
O O14 0.572523 0.264211 0.000000
#
# Coordination Sequence:
#
# PCOD9493469 Si02
#       5
#    16   8  16   8  16
#     4   8  13  23  39  61  93 136 172 196 238 302
#     4  11  23  36  51  74 103 133 167 211 256 305
#     4   8  15  28  45  68 100 132 162 202 251 297
#     4  11  23  39  55  69  98 138 168 206 260 314
#     4  11  21  34  54  76  98 129 172 215 255 302
#
# _framework density 17.898410999999999
#
# number of rings (size 3 to 8) (size 9 to 14) (size 15 to 20)
#    0.000    2.500    1.250    3.750    0.000    2.500 
#    2.250    0.000    0.000    0.000    0.000    0.000 
#    0.000    4.000    1.500    0.000    2.000    0.000 
#
# Total GULP energy -178296.449743 kJ/mol
# GULP energy per Si atom -5571.764054 kJ/mol
# Density = 1.785767 g / cm^3
# Si number density = 17.898411 Si / 1000 Ang^3
#
#
#
# Elastic Constant Matrix: (Units=GPa)
#
#
# Indices 1 2 3 4 5 6 
#
# 1 130.0238 106.5684 14.9142 0.0000 0.0000 0.0000
# 2 106.5684 160.8217 19.9879 0.0000 0.0000 0.0000
# 3 14.9142 19.9879 22.6239 0.0000 0.0000 0.0000
# 4 0.0000 0.0000 0.0000 12.9884 0.0000 0.0000
# 5 0.0000 0.0000 0.0000 0.0000 -6.2515 0.0000
# 6 0.0000 0.0000 0.0000 0.0000 0.0000 42.2764
#
#
#
# Elastic Compliance Matrix: (Units=1/GPa)
#
#
# Indices 1 2 3 4 5 6 
#
# 1 0.016872 -0.011007 -0.001398 0.000000 0.000000 0.000000
# 2 -0.011007 0.014165 -0.005259 0.000000 0.000000 0.000000
# 3 -0.001398 -0.005259 0.049769 0.000000 0.000000 0.000000
# 4 0.000000 0.000000 0.000000 0.076992 0.000000 0.000000
# 5 0.000000 0.000000 0.000000 0.000000 -0.159961 0.000000
# 6 0.000000 0.000000 0.000000 0.000000 0.000000 0.023654
#
#
# Mechanical properties :
#
#
# Convention : Reuss Voigt Hill
#
# Bulk Modulus (GPa) = 21.98834 66.26782 44.12808
# Shear Modulus (GPa) = 69.46435 21.26926 45.36681
#
# Velocity S-wave (km/s) = 6.23655 3.45096 5.04003
# Velocity P-wave (km/s) = 8.01069 7.27898 7.65359
#
# Compressibility (1/GPa) = 0.04547864
#
# Stress axis : x y z
#
# Youngs Moduli (GPa) = 59.26805 70.59511 20.09281
#
# Poissons Ratio (x) = 0.77702 0.02810
# Poissons Ratio (y) = 0.65235 0.10567
# Poissons Ratio (z) = 0.08288 0.37126
#
# Static dielectric constant tensor:
#      x y z
#    x 1.606780 0.000000 0.000000 
#    y 0.000000 1.606750 0.000000 
#    z 0.000000 0.000000 1.609350 
# 
# From -- ./inp_files/4975.got.cif
#   From: 2010.05.17/outbox.cif.g08.bks.cpg/sg65_3_cif.got.tgz:4975.got - 2010.06.03 17:01:31.
