data_PCOD9493563
_publ_section_title
;
Structure prediction by ZEFSAII (Michael W. Deem and Ramdas Pophale) SiO2 
 PCOD9493563
Probable space group: C M M M
;
_chemical_formula_sum "Si O2"
_cell_formula_units_Z 56
_cell_length_a 11.438500
_cell_length_b 15.077499
_cell_length_c 17.216226
_cell_angle_alpha 90.000000
_cell_angle_beta 90.000000
_cell_angle_gamma 90.000000
_cell_volume 2969.178724
_symmetry_space_group_name_H-M "C M M M"
_symmetry_group_IT_number 65
_symmetry_cell_setting 'orthorhombic'
loop_
_space_group_symop_operation_xyz
x,y,z
-x,-y,z
x,-y,-z
-x,y,-z
-x,-y,-z
x,y,-z
-x,y,z
x,-y,z
1/2+x,1/2+y,z
1/2-x,1/2-y,z
1/2+x,1/2-y,-z
1/2-x,1/2+y,-z
1/2-x,1/2-y,-z
1/2+x,1/2+y,-z
1/2-x,1/2+y,z
1/2+x,1/2-y,z
loop_
_atom_site_type_symbol
_atom_site_label
_atom_site_fract_x
_atom_site_fract_y
_atom_site_fract_z
Si Si1 0.636323 0.000000 0.240805
Si Si2 0.293686 0.500000 0.084530
Si Si3 0.000000 0.103104 0.759457
Si Si4 0.362870 0.606534 0.500000
Si Si5 0.231633 0.852797 0.667824
Si Si6 0.000000 0.855933 0.917177
O O1 0.670403 0.084958 0.293702
O O2 0.500000 0.000000 0.221677
O O3 0.713410 0.000000 0.161018
O O4 0.382596 0.583694 0.083178
O O5 0.231304 0.500000 0.000000
O O6 0.886783 0.114878 0.708276
O O7 0.000000 0.175943 0.828707
O O8 0.000000 0.000000 0.787419
O O9 0.367988 0.500000 0.500000
O O10 0.500000 0.637909 0.500000
O O11 0.292466 0.635478 0.576461
O O12 0.250000 0.750000 0.685108
O O13 0.000000 0.805979 0.000000
#
# Coordination Sequence:
#
# PCOD9493563 Si02
#       6
#     8   8   8   8  16   8
#     4  12  25  41  59  87 130 170 204 250 310 370
#     4   9  16  31  58  91 121 155 203 256 308 359
#     4  12  18  38  68  89 119 162 212 258 300 356
#     4  11  21  40  70  95 117 152 205 263 306 357
#     4  12  25  41  62  95 125 160 206 254 307 366
#     4   9  14  26  59  97 117 143 201 268 309 343
#
# _framework density 18.860434999999999
#
# number of rings (size 3 to 8) (size 9 to 14) (size 15 to 20)
#    0.000    1.000    8.571    1.286    2.000    0.286 
#    0.000    1.429    0.000    3.429    0.000    0.000 
#    0.000    0.000    0.000    0.000    0.000    0.000 
#
# Total GULP energy -155996.448362 kJ/mol
# GULP energy per Si atom -5571.301727 kJ/mol
# Density = 1.881751 g / cm^3
# Si number density = 18.860435 Si / 1000 Ang^3
#
#
#
# Elastic Constant Matrix: (Units=GPa)
#
#
# Indices 1 2 3 4 5 6 
#
# 1 102.5222 19.2006 42.1382 0.0000 0.0000 0.0000
# 2 19.2006 87.4114 16.6861 0.0000 0.0000 0.0000
# 3 42.1382 16.6861 167.6037 0.0000 0.0000 0.0000
# 4 0.0000 0.0000 0.0000 20.1423 0.0000 0.0000
# 5 0.0000 0.0000 0.0000 0.0000 50.2788 0.0000
# 6 0.0000 0.0000 0.0000 0.0000 0.0000 -4.6163
#
#
#
# Elastic Compliance Matrix: (Units=1/GPa)
#
#
# Indices 1 2 3 4 5 6 
#
# 1 0.011198 -0.001960 -0.002620 0.000000 0.000000 0.000000
# 2 -0.001960 0.012005 -0.000702 0.000000 0.000000 0.000000
# 3 -0.002620 -0.000702 0.006695 0.000000 0.000000 0.000000
# 4 0.000000 0.000000 0.000000 0.049647 0.000000 0.000000
# 5 0.000000 0.000000 0.000000 0.000000 0.019889 0.000000
# 6 0.000000 0.000000 0.000000 0.000000 0.000000 -0.216622
#
#
# Mechanical properties :
#
#
# Convention : Reuss Voigt Hill
#
# Bulk Modulus (GPa) = 51.72442 57.06525 54.39484
# Shear Modulus (GPa) = -49.91070 31.79511 -9.05779
#
# Velocity S-wave (km/s) = -5.14982 4.11032 -2.19385
# Velocity P-wave (km/s) = 2.80650 7.26970 4.74194
#
# Compressibility (1/GPa) = 0.01933323
#
# Stress axis : x y z
#
# Youngs Moduli (GPa) = 89.30220 83.30089 149.36145
#
# Poissons Ratio (x) = 0.16323 0.39137
# Poissons Ratio (y) = 0.17499 0.10493
# Poissons Ratio (z) = 0.23399 0.05852
#
# Static dielectric constant tensor:
#      x y z
#    x 1.630100 0.000000 0.000000 
#    y 0.000000 1.985950 0.000000 
#    z 0.000000 0.000000 1.727000 
# 
# From -- ./inp_files/50845.got.cif
#   From: 2010.05.17/outbox.cif.g08.bks.cpg/sg65_26_cif.got.tgz:50845.got - 2010.06.03 17:01:31.
