data_PCOD9493626
_publ_section_title
;
Structure prediction by ZEFSAII (Michael W. Deem and Ramdas Pophale) SiO2 
 PCOD9493626
Probable space group: C M M M
;
_chemical_formula_sum "Si O2"
_cell_formula_units_Z 88
_cell_length_a 7.637182
_cell_length_b 18.804057
_cell_length_c 30.144122
_cell_angle_alpha 90.000000
_cell_angle_beta 90.000000
_cell_angle_gamma 90.000000
_cell_volume 4328.997531
_symmetry_space_group_name_H-M "C M M M"
_symmetry_group_IT_number 65
_symmetry_cell_setting 'orthorhombic'
loop_
_space_group_symop_operation_xyz
x,y,z
-x,-y,z
x,-y,-z
-x,y,-z
-x,-y,-z
x,y,-z
-x,y,z
x,-y,z
1/2+x,1/2+y,z
1/2-x,1/2-y,z
1/2+x,1/2-y,-z
1/2-x,1/2+y,-z
1/2-x,1/2-y,-z
1/2+x,1/2+y,-z
1/2-x,1/2+y,z
1/2+x,1/2-y,z
loop_
_atom_site_type_symbol
_atom_site_label
_atom_site_fract_x
_atom_site_fract_y
_atom_site_fract_z
Si Si1 0.293006 0.332888 0.779005
Si Si2 0.786391 0.415567 0.500000
Si Si3 0.285161 0.581983 0.864718
Si Si4 0.710310 0.667212 0.049516
Si Si5 0.209554 0.580817 0.308749
Si Si6 0.207019 0.586483 0.404656
O O1 0.500000 0.339569 0.781789
O O2 0.250000 0.250000 0.780150
O O3 0.221416 0.374493 0.821866
O O4 0.241255 0.369454 0.732962
O O5 0.747219 0.500000 0.500000
O O6 0.721654 0.387633 0.452261
O O7 0.000000 0.410257 0.500000
O O8 0.500000 0.583539 0.864945
O O9 0.232623 0.500000 0.862113
O O10 0.225294 0.619022 0.910198
O O11 0.500000 0.659771 0.048277
O O12 0.750000 0.750000 0.058149
O O13 0.777162 0.649660 0.000000
O O14 0.275080 0.500000 0.300641
O O15 0.278884 0.608267 0.356515
O O16 0.000000 0.575648 0.313924
O O17 0.220034 0.500000 0.404501
O O18 0.000000 0.603755 0.405370
#
# Coordination Sequence:
#
# PCOD9493626 Si02
#       6
#    16   8  16  16  16  16
#     4  11  22  35  51  69  92 124 161 200 242 287
#     4   7   8  12  26  52  86 119 148 177 215 265
#     4   9  18  32  50  73  98 122 153 195 238 280
#     4   9  17  30  50  74  99 128 159 191 228 271
#     4   9  17  30  48  71  99 127 156 193 236 281
#     4   7  10  17  32  57  89 121 149 181 222 268
#
# _framework density 20.328033000000001
#
# number of rings (size 3 to 8) (size 9 to 14) (size 15 to 20)
#    0.000    3.182    0.000    3.818    0.000    1.455 
#    0.000    2.727    0.000    2.727    0.000    3.818 
#    0.000    3.636    0.000    0.000    0.000    0.000 
#
# Total GULP energy -245153.606925 kJ/mol
# GULP energy per Si atom -5571.672885 kJ/mol
# Density = 2.028177 g / cm^3
# Si number density = 20.328033 Si / 1000 Ang^3
#
#
#
# Elastic Constant Matrix: (Units=GPa)
#
#
# Indices 1 2 3 4 5 6 
#
# 1 39.6125 0.6446 10.4740 0.0000 0.0000 0.0000
# 2 0.6446 102.8411 121.0112 0.0000 0.0000 0.0000
# 3 10.4740 121.0112 258.5445 0.0000 0.0000 0.0000
# 4 0.0000 0.0000 0.0000 342.9003 0.0000 0.0000
# 5 0.0000 0.0000 0.0000 0.0000 10.1999 0.0000
# 6 0.0000 0.0000 0.0000 0.0000 0.0000 90.1723
#
#
#
# Elastic Compliance Matrix: (Units=1/GPa)
#
#
# Indices 1 2 3 4 5 6 
#
# 1 0.025776 0.002375 -0.002156 0.000000 0.000000 0.000000
# 2 0.002375 0.021863 -0.010329 0.000000 0.000000 0.000000
# 3 -0.002156 -0.010329 0.008790 0.000000 0.000000 0.000000
# 4 0.000000 0.000000 0.000000 0.002916 0.000000 0.000000
# 5 0.000000 0.000000 0.000000 0.000000 0.098040 0.000000
# 6 0.000000 0.000000 0.000000 0.000000 0.000000 0.011090
#
#
# Mechanical properties :
#
#
# Convention : Reuss Voigt Hill
#
# Bulk Modulus (GPa) = 27.61743 73.91753 50.76748
# Shear Modulus (GPa) = 24.90484 106.57906 65.74195
#
# Velocity S-wave (km/s) = 3.50401 7.24868 5.69304
# Velocity P-wave (km/s) = 5.47596 10.31984 8.26091
#
# Compressibility (1/GPa) = 0.03620902
#
# Stress axis : x y z
#
# Youngs Moduli (GPa) = 38.79585 45.73953 113.76988
#
# Poissons Ratio (x) = -0.10865 0.24529
# Poissons Ratio (y) = -0.09215 1.17514
# Poissons Ratio (z) = 0.08364 0.47245
#
# Static dielectric constant tensor:
#      x y z
#    x 1.776960 0.000000 0.000000 
#    y 0.000000 1.652150 0.000000 
#    z 0.000000 0.000000 1.792990 
# 
# From -- ./inp_files/76538.got.cif
#   From: 2010.05.17/outbox.cif.g08.bks.cpg/sg65_39_cif.got.tgz:76538.got - 2010.06.03 17:01:31.
