data_PCOD9493331
_publ_section_title
;
Structure prediction by ZEFSAII (Michael W. Deem and Ramdas Pophale) SiO2 
 PCOD9493331
Probable space group: C M M M
;
_chemical_formula_sum "Si O2"
_cell_formula_units_Z 72
_cell_length_a 21.947410
_cell_length_b 20.731534
_cell_length_c 8.019839
_cell_angle_alpha 90.000000
_cell_angle_beta 90.000000
_cell_angle_gamma 90.000000
_cell_volume 3649.054627
_symmetry_space_group_name_H-M "C M M M"
_symmetry_group_IT_number 65
_symmetry_cell_setting 'orthorhombic'
loop_
_space_group_symop_operation_xyz
x,y,z
-x,-y,z
x,-y,-z
-x,y,-z
-x,-y,-z
x,y,-z
-x,y,z
x,-y,z
1/2+x,1/2+y,z
1/2-x,1/2-y,z
1/2+x,1/2-y,-z
1/2-x,1/2+y,-z
1/2-x,1/2-y,-z
1/2+x,1/2+y,-z
1/2-x,1/2+y,z
1/2+x,1/2-y,z
loop_
_atom_site_type_symbol
_atom_site_label
_atom_site_fract_x
_atom_site_fract_y
_atom_site_fract_z
Si Si1 0.106196 0.367048 0.195748
Si Si2 0.703116 0.692281 0.196950
Si Si3 0.929620 0.500000 0.813508
Si Si4 0.568370 0.268942 0.306172
Si Si5 0.272424 0.923901 0.696223
O O1 0.085609 0.434379 0.273436
O O2 0.076832 0.307915 0.288619
O O3 0.178183 0.378983 0.209015
O O4 0.088632 0.362234 0.000000
O O5 0.750000 0.750000 0.259640
O O6 0.631617 0.708306 0.223168
O O7 0.714203 0.621902 0.277778
O O8 0.713912 0.687817 0.000000
O O9 0.000000 0.500000 0.839841
O O10 0.899254 0.500000 0.000000
O O11 0.570219 0.287600 0.500000
O O12 0.500000 0.285997 0.241060
O O13 0.286872 0.925018 0.500000
O O14 0.270039 0.000000 0.750677
#
# Coordination Sequence:
#
# PCOD9493331 Si02
#       5
#    16  16   8  16  16
#     4  11  20  33  54  80 114 155 199 242 288 345
#     4  11  23  39  63  92 118 155 204 250 299 353
#     4   9  18  30  45  69 105 151 196 237 282 333
#     4  11  24  40  59  86 120 157 196 243 301 358
#     4  11  23  38  59  87 121 158 196 243 301 358
#
# _framework density 19.731138000000001
#
# number of rings (size 3 to 8) (size 9 to 14) (size 15 to 20)
#    0.000    1.222    3.333    3.333    0.000    4.889 
#    0.000    0.000    0.000    3.333    0.000    4.667 
#    0.000    0.000    0.000    0.000    0.000    0.000 
#
# Total GULP energy -200409.136553 kJ/mol
# GULP energy per Si atom -5566.920460 kJ/mol
# Density = 1.968623 g / cm^3
# Si number density = 19.731138 Si / 1000 Ang^3
#
#
#
# Elastic Constant Matrix: (Units=GPa)
#
#
# Indices 1 2 3 4 5 6 
#
# 1 114.4715 29.3886 7.1366 0.0000 0.0000 0.0000
# 2 29.3886 56.4974 5.9818 0.0000 0.0000 0.0000
# 3 7.1366 5.9818 50.9948 0.0000 0.0000 0.0000
# 4 0.0000 0.0000 0.0000 28.3941 0.0000 0.0000
# 5 0.0000 0.0000 0.0000 0.0000 18.9836 0.0000
# 6 0.0000 0.0000 0.0000 0.0000 0.0000 -16.5823
#
#
#
# Elastic Compliance Matrix: (Units=1/GPa)
#
#
# Indices 1 2 3 4 5 6 
#
# 1 0.010115 -0.005176 -0.000808 0.000000 0.000000 0.000000
# 2 -0.005176 0.020571 -0.001689 0.000000 0.000000 0.000000
# 3 -0.000808 -0.001689 0.019921 0.000000 0.000000 0.000000
# 4 0.000000 0.000000 0.000000 0.035219 0.000000 0.000000
# 5 0.000000 0.000000 0.000000 0.000000 0.052677 0.000000
# 6 0.000000 0.000000 0.000000 0.000000 0.000000 -0.060305
#
#
# Mechanical properties :
#
#
# Convention : Reuss Voigt Hill
#
# Bulk Modulus (GPa) = 28.35991 34.10865 31.23428
# Shear Modulus (GPa) = 47.48451 18.12286 32.80368
#
# Velocity S-wave (km/s) = 4.91101 3.03395 4.08184
# Velocity P-wave (km/s) = 6.82362 5.44035 6.17086
#
# Compressibility (1/GPa) = 0.03526105
#
# Stress axis : x y z
#
# Youngs Moduli (GPa) = 98.86255 48.61171 50.19813
#
# Poissons Ratio (x) = 0.25162 0.04058
# Poissons Ratio (y) = 0.51171 0.08477
# Poissons Ratio (z) = 0.07992 0.08209
#
# Static dielectric constant tensor:
#      x y z
#    x 1.887250 0.000000 0.000000 
#    y 0.000000 1.682890 0.000000 
#    z 0.000000 0.000000 1.751430 
# 
# From -- ./inp_files/11436.got.cif
#   From: 2010.05.17/outbox.cif.g08.bks.cpg/sg65_6_cif.got.tgz:11436.got - 2010.06.03 17:01:31.
