data_PCOD9493022
_publ_section_title
;
Structure prediction by ZEFSAII (Michael W. Deem and Ramdas Pophale) SiO2 
 PCOD9493022
Probable space group: C M M M
;
_chemical_formula_sum "Si O2"
_cell_formula_units_Z 50
_cell_length_a 8.914996
_cell_length_b 18.992203
_cell_length_c 15.277795
_cell_angle_alpha 90.000000
_cell_angle_beta 90.000000
_cell_angle_gamma 90.000000
_cell_volume 2586.766182
_symmetry_space_group_name_H-M "C M M M"
_symmetry_group_IT_number 65
_symmetry_cell_setting 'orthorhombic'
loop_
_space_group_symop_operation_xyz
x,y,z
-x,-y,z
x,-y,-z
-x,y,-z
-x,-y,-z
x,y,-z
-x,y,z
x,-y,z
1/2+x,1/2+y,z
1/2-x,1/2-y,z
1/2+x,1/2-y,-z
1/2-x,1/2+y,-z
1/2-x,1/2-y,-z
1/2+x,1/2+y,-z
1/2-x,1/2+y,z
1/2+x,1/2-y,z
loop_
_atom_site_type_symbol
_atom_site_label
_atom_site_fract_x
_atom_site_fract_y
_atom_site_fract_z
Si Si1 0.000000 0.500000 0.000000
Si Si2 0.178997 0.672309 0.500000
Si Si3 0.321567 0.321926 0.182773
Si Si4 0.319926 0.417820 0.655588
Si Si5 0.665173 0.145596 0.000000
O O1 0.872304 0.437178 0.000000
O O2 0.250000 0.750000 0.500000
O O3 0.236119 0.628685 0.416124
O O4 0.000000 0.677776 0.500000
O O5 0.500000 0.314359 0.177405
O O6 0.250000 0.250000 0.218870
O O7 0.287154 0.385624 0.248940
O O8 0.252315 0.334824 0.087582
O O9 0.500000 0.412131 0.641211
O O10 0.279254 0.500000 0.649685
O O11 0.000000 0.318436 0.000000
#
# Coordination Sequence:
#
# PCOD9493022 Si02
#       5
#     2   8  16  16   8
#     4   8  24  40  62  92 120 162 208 248 328 356
#     4  12  25  42  65  93 123 161 205 254 305 366
#     4  11  23  40  63  93 124 164 209 254 305 363
#     4  10  23  42  65  92 126 162 201 251 309 366
#     4  10  22  40  62  88 124 161 204 252 308 360
#
# _framework density 19.329153000000002
#
# number of rings (size 3 to 8) (size 9 to 14) (size 15 to 20)
#    0.480    0.960    0.000    4.800    2.240    7.680 
#    0.000    0.800    0.000    0.000    0.000    0.000 
#    0.000    0.000    0.000    0.000    0.000    0.000 
#
# Total GULP energy -139460.867106 kJ/mol
# GULP energy per Si atom -5578.434684 kJ/mol
# Density = 1.928516 g / cm^3
# Si number density = 19.329153 Si / 1000 Ang^3
#
#
#
# Elastic Constant Matrix: (Units=GPa)
#
#
# Indices 1 2 3 4 5 6 
#
# 1 97.4661 70.3748 75.6304 0.0000 0.0000 0.0000
# 2 70.3748 178.9464 65.0384 0.0000 0.0000 0.0000
# 3 75.6304 65.0384 135.5314 0.0000 0.0000 0.0000
# 4 0.0000 0.0000 0.0000 -0.6664 0.0000 0.0000
# 5 0.0000 0.0000 0.0000 0.0000 21.0145 0.0000
# 6 0.0000 0.0000 0.0000 0.0000 0.0000 33.8749
#
#
#
# Elastic Compliance Matrix: (Units=1/GPa)
#
#
# Indices 1 2 3 4 5 6 
#
# 1 0.021097 -0.004867 -0.009437 0.000000 0.000000 0.000000
# 2 -0.004867 0.007892 -0.001071 0.000000 0.000000 0.000000
# 3 -0.009437 -0.001071 0.013159 0.000000 0.000000 0.000000
# 4 0.000000 0.000000 0.000000 -1.500552 0.000000 0.000000
# 5 0.000000 0.000000 0.000000 0.000000 0.047586 0.000000
# 6 0.000000 0.000000 0.000000 0.000000 0.000000 0.029520
#
#
# Mechanical properties :
#
#
# Convention : Reuss Voigt Hill
#
# Bulk Modulus (GPa) = 87.74449 92.67011 90.20730
# Shear Modulus (GPa) = -3.71265 24.23795 10.26265
#
# Velocity S-wave (km/s) = -1.38741 3.54497 2.30672
# Velocity P-wave (km/s) = 6.55186 8.05003 7.33927
#
# Compressibility (1/GPa) = 0.01139673
#
# Stress axis : x y z
#
# Youngs Moduli (GPa) = 47.39992 126.71708 75.99587
#
# Poissons Ratio (x) = 0.61672 0.71719
# Poissons Ratio (y) = 0.23069 0.08140
# Poissons Ratio (z) = 0.44732 0.13573
#
# Static dielectric constant tensor:
#      x y z
#    x 1.660540 0.000000 0.000000 
#    y 0.000000 1.663730 0.000000 
#    z 0.000000 0.000000 1.656370 
# 
# From -- ./inp_files/35142.got.cif
#   From: 2010.05.17/outbox.cif.g08.bks.cpg/sg65_18_cif.got.tgz:35142.got - 2010.06.03 17:01:31.
