data_PCOD9493079
_publ_section_title
;
Structure prediction by ZEFSAII (Michael W. Deem and Ramdas Pophale) SiO2 
 PCOD9493079
Probable space group: C M M M
;
_chemical_formula_sum "Si O2"
_cell_formula_units_Z 56
_cell_length_a 10.209563
_cell_length_b 27.023423
_cell_length_c 11.369013
_cell_angle_alpha 90.000000
_cell_angle_beta 90.000000
_cell_angle_gamma 90.000000
_cell_volume 3136.680441
_symmetry_space_group_name_H-M "C M M M"
_symmetry_group_IT_number 65
_symmetry_cell_setting 'orthorhombic'
loop_
_space_group_symop_operation_xyz
x,y,z
-x,-y,z
x,-y,-z
-x,y,-z
-x,-y,-z
x,y,-z
-x,y,z
x,-y,z
1/2+x,1/2+y,z
1/2-x,1/2-y,z
1/2+x,1/2-y,-z
1/2-x,1/2+y,-z
1/2-x,1/2-y,-z
1/2+x,1/2+y,-z
1/2-x,1/2+y,z
1/2+x,1/2-y,z
loop_
_atom_site_type_symbol
_atom_site_label
_atom_site_fract_x
_atom_site_fract_y
_atom_site_fract_z
Si Si1 0.500000 0.441758 0.132133
Si Si2 0.248759 0.103665 0.745584
Si Si3 0.156715 0.797736 0.861991
Si Si4 0.658789 0.940528 0.500000
Si Si5 0.500000 0.056529 0.860527
O O1 0.500000 0.500000 0.121008
O O2 0.626125 0.425729 0.203305
O O3 0.500000 0.419840 0.000000
O O4 0.211237 0.160176 0.774681
O O5 0.281321 0.086703 0.613668
O O6 0.374219 0.086157 0.818617
O O7 0.250000 0.750000 0.848522
O O8 0.000000 0.788945 0.842123
O O9 0.169314 0.813494 0.000000
O O10 0.500000 0.935439 0.500000
O O11 0.686582 0.000000 0.500000
O O12 0.500000 0.000000 0.811356
O O13 0.500000 0.052980 0.000000
#
# Coordination Sequence:
#
# PCOD9493079 Si02
#       5
#     8  16  16   8   8
#     4  11  22  37  60  92 129 163 201 262 334 396
#     4  12  23  40  63  90 130 172 213 265 320 377
#     4  10  22  41  66  97 130 164 208 265 329 392
#     4  11  24  43  64  89 128 179 230 269 302 365
#     4  11  22  35  58  92 125 165 215 262 320 392
#
# _framework density 17.853269000000001
#
# number of rings (size 3 to 8) (size 9 to 14) (size 15 to 20)
#    0.000    1.000    2.857    5.143    2.000    2.857 
#    0.000    2.143    0.000    0.000    0.000    0.000 
#    0.000    0.000    0.000    0.000    0.000    0.000 
#
# Total GULP energy -156327.308469 kJ/mol
# GULP energy per Si atom -5583.118160 kJ/mol
# Density = 1.781263 g / cm^3
# Si number density = 17.853269 Si / 1000 Ang^3
#
#
#
# Elastic Constant Matrix: (Units=GPa)
#
#
# Indices 1 2 3 4 5 6 
#
# 1 174.9234 67.1688 74.1296 0.0000 0.0000 0.0000
# 2 67.1688 136.1666 67.9296 0.0000 0.0000 0.0000
# 3 74.1296 67.9296 150.0780 0.0000 0.0000 0.0000
# 4 0.0000 0.0000 0.0000 32.0524 0.0000 0.0000
# 5 0.0000 0.0000 0.0000 0.0000 36.5039 0.0000
# 6 0.0000 0.0000 0.0000 0.0000 0.0000 40.7903
#
#
#
# Elastic Compliance Matrix: (Units=1/GPa)
#
#
# Indices 1 2 3 4 5 6 
#
# 1 0.007838 -0.002499 -0.002740 0.000000 0.000000 0.000000
# 2 -0.002499 0.010283 -0.003420 0.000000 0.000000 0.000000
# 3 -0.002740 -0.003420 0.009565 0.000000 0.000000 0.000000
# 4 0.000000 0.000000 0.000000 0.031199 0.000000 0.000000
# 5 0.000000 0.000000 0.000000 0.000000 0.027394 0.000000
# 6 0.000000 0.000000 0.000000 0.000000 0.000000 0.024516
#
#
# Mechanical properties :
#
#
# Convention : Reuss Voigt Hill
#
# Bulk Modulus (GPa) = 96.46261 97.73599 97.09930
# Shear Modulus (GPa) = 38.00319 38.66532 38.33425
#
# Velocity S-wave (km/s) = 4.61872 4.65879 4.63880
# Velocity P-wave (km/s) = 9.08799 9.15434 9.12123
#
# Compressibility (1/GPa) = 0.01036671
#
# Stress axis : x y z
#
# Youngs Moduli (GPa) = 127.58873 97.24944 104.55251
#
# Poissons Ratio (x) = 0.24305 0.28649
# Poissons Ratio (y) = 0.31887 0.35755
# Poissons Ratio (z) = 0.34961 0.33258
#
# Static dielectric constant tensor:
#      x y z
#    x 1.567460 0.000000 0.000000 
#    y 0.000000 1.631430 0.000000 
#    z 0.000000 0.000000 1.611840 
# 
# From -- ./inp_files/20506.got.cif
#   From: 2010.05.17/outbox.cif.g08.bks.cpg/sg65_11_cif.got.tgz:20506.got - 2010.06.03 17:01:31.
