data_PCOD9493395
_publ_section_title
;
Structure prediction by ZEFSAII (Michael W. Deem and Ramdas Pophale) SiO2 
 PCOD9493395
Probable space group: C M M M
;
_chemical_formula_sum "Si O2"
_cell_formula_units_Z 80
_cell_length_a 9.271168
_cell_length_b 26.164803
_cell_length_c 22.682511
_cell_angle_alpha 90.000000
_cell_angle_beta 90.000000
_cell_angle_gamma 90.000000
_cell_volume 5502.284602
_symmetry_space_group_name_H-M "C M M M"
_symmetry_group_IT_number 65
_symmetry_cell_setting 'orthorhombic'
loop_
_space_group_symop_operation_xyz
x,y,z
-x,-y,z
x,-y,-z
-x,y,-z
-x,-y,-z
x,y,-z
-x,y,z
x,-y,z
1/2+x,1/2+y,z
1/2-x,1/2-y,z
1/2+x,1/2-y,-z
1/2-x,1/2+y,-z
1/2-x,1/2-y,-z
1/2+x,1/2+y,-z
1/2-x,1/2+y,z
1/2+x,1/2-y,z
loop_
_atom_site_type_symbol
_atom_site_label
_atom_site_fract_x
_atom_site_fract_y
_atom_site_fract_z
Si Si1 0.834312 0.062355 0.500000
Si Si2 0.666521 0.937889 0.383995
Si Si3 0.827751 0.801954 0.931302
Si Si4 0.326642 0.593522 0.135409
Si Si5 0.327698 0.061353 0.251476
Si Si6 0.670067 0.000000 0.070726
O O1 0.757566 0.079650 0.560068
O O2 0.000000 0.077395 0.500000
O O3 0.827760 0.000000 0.500000
O O4 0.500000 0.922845 0.391647
O O5 0.713942 0.922932 0.318132
O O6 0.669570 0.000000 0.383970
O O7 0.750000 0.750000 0.912219
O O8 0.792342 0.851559 0.892941
O O9 0.000000 0.794559 0.928823
O O10 0.788627 0.811467 0.000000
O O11 0.500000 0.586360 0.134484
O O12 0.263774 0.588290 0.201053
O O13 0.248880 0.549421 0.097525
O O14 0.500000 0.070138 0.244548
O O15 0.305938 0.000000 0.245817
O O16 0.500000 0.000000 0.087183
O O17 0.680558 0.000000 0.000000
#
# Coordination Sequence:
#
# PCOD9493395 Si02
#       6
#     8  16  16  16  16   8
#     4   9  15  21  31  51  75 101 138 185 222 251
#     4   8  14  24  37  51  72 107 145 180 214 250
#     4   9  19  35  52  69  88 111 143 182 225 273
#     4  11  21  32  48  69  92 117 144 182 229 270
#     4   9  17  29  43  60  85 117 152 184 214 260
#     4  11  23  35  47  65  89 118 151 182 215 263
#
# _framework density 14.539414000000001
#
# number of rings (size 3 to 8) (size 9 to 14) (size 15 to 20)
#    0.000    2.600    1.000    3.000    0.000    5.200 
#    0.000    4.000    0.000    0.000    0.000    0.000 
#    0.000    0.000    0.000    0.900    0.000   11.900 
#
# Total GULP energy -222882.916497 kJ/mol
# GULP energy per Si atom -5572.072912 kJ/mol
# Density = 1.450632 g / cm^3
# Si number density = 14.539414 Si / 1000 Ang^3
#
#
#
# Elastic Constant Matrix: (Units=GPa)
#
#
# Indices 1 2 3 4 5 6 
#
# 1 72.2296 49.4666 75.1161 0.0000 0.0000 0.0000
# 2 49.4666 78.4194 58.8517 0.0000 0.0000 0.0000
# 3 75.1161 58.8517 137.2226 0.0000 0.0000 0.0000
# 4 0.0000 0.0000 0.0000 10.0729 0.0000 0.0000
# 5 0.0000 0.0000 0.0000 0.0000 23.7570 0.0000
# 6 0.0000 0.0000 0.0000 0.0000 0.0000 18.7903
#
#
#
# Elastic Compliance Matrix: (Units=1/GPa)
#
#
# Indices 1 2 3 4 5 6 
#
# 1 0.039193 -0.012714 -0.016002 0.000000 0.000000 0.000000
# 2 -0.012714 0.022929 -0.002874 0.000000 0.000000 0.000000
# 3 -0.016002 -0.002874 0.017279 0.000000 0.000000 0.000000
# 4 0.000000 0.000000 0.000000 0.099276 0.000000 0.000000
# 5 0.000000 0.000000 0.000000 0.000000 0.042093 0.000000
# 6 0.000000 0.000000 0.000000 0.000000 0.000000 0.053219
#
#
# Mechanical properties :
#
#
# Convention : Reuss Voigt Hill
#
# Bulk Modulus (GPa) = 61.64482 72.74893 67.19688
# Shear Modulus (GPa) = 14.59532 17.48652 16.04092
#
# Velocity S-wave (km/s) = 3.17179 3.47176 3.32516
# Velocity P-wave (km/s) = 7.47691 8.13726 7.81406
#
# Compressibility (1/GPa) = 0.01622196
#
# Stress axis : x y z
#
# Youngs Moduli (GPa) = 25.51469 43.61352 57.87247
#
# Poissons Ratio (x) = 0.55450 0.92606
# Poissons Ratio (y) = 0.32439 0.16632
# Poissons Ratio (z) = 0.40828 0.12534
#
# Static dielectric constant tensor:
#      x y z
#    x 1.484060 0.000000 0.000000 
#    y 0.000000 1.444280 0.000000 
#    z 0.000000 0.000000 1.496130 
# 
# From -- ./inp_files/67762.got.cif
#   From: 2010.05.17/outbox.cif.g08.bks.cpg/sg65_34_cif.got.tgz:67762.got - 2010.06.03 17:01:31.
