data_PCOD9493663
_publ_section_title
;
Structure prediction by ZEFSAII (Michael W. Deem and Ramdas Pophale) SiO2 
 PCOD9493663
Probable space group: C M M M
;
_chemical_formula_sum "Si O2"
_cell_formula_units_Z 96
_cell_length_a 24.205097
_cell_length_b 8.643937
_cell_length_c 26.090023
_cell_angle_alpha 90.000000
_cell_angle_beta 90.000000
_cell_angle_gamma 90.000000
_cell_volume 5458.745944
_symmetry_space_group_name_H-M "C M M M"
_symmetry_group_IT_number 65
_symmetry_cell_setting 'orthorhombic'
loop_
_space_group_symop_operation_xyz
x,y,z
-x,-y,z
x,-y,-z
-x,y,-z
-x,-y,-z
x,y,-z
-x,y,z
x,-y,z
1/2+x,1/2+y,z
1/2-x,1/2-y,z
1/2+x,1/2-y,-z
1/2-x,1/2+y,-z
1/2-x,1/2-y,-z
1/2+x,1/2+y,-z
1/2-x,1/2+y,z
1/2+x,1/2-y,z
loop_
_atom_site_type_symbol
_atom_site_label
_atom_site_fract_x
_atom_site_fract_y
_atom_site_fract_z
Si Si1 0.435347 0.813880 0.440754
Si Si2 0.311651 0.813365 0.942860
Si Si3 0.500000 0.819054 0.715873
Si Si4 0.618916 0.185657 0.155621
Si Si5 0.894723 0.184100 0.340435
Si Si6 0.811788 0.184795 0.748395
Si Si7 0.000000 0.818471 0.826906
O O1 0.423059 0.776458 0.500000
O O2 0.500000 0.770828 0.431362
O O3 0.396017 0.732638 0.399727
O O4 0.431971 0.000000 0.434951
O O5 0.250000 0.750000 0.936036
O O6 0.349177 0.762632 0.895614
O O7 0.309642 0.000000 0.941858
O O8 0.330935 0.766311 0.000000
O O9 0.554236 0.777083 0.684018
O O10 0.500000 0.714642 0.766219
O O11 0.500000 0.000000 0.729874
O O12 0.650002 0.250189 0.205828
O O13 0.556208 0.242722 0.153279
O O14 0.619921 0.000000 0.158545
O O15 0.841293 0.221566 0.305922
O O16 0.904594 0.000000 0.335914
O O17 0.750000 0.250000 0.751674
O O18 0.809792 0.000000 0.753577
O O19 0.000000 0.000000 0.837006
#
# Coordination Sequence:
#
# PCOD9493663 Si02
#       7
#    16  16   8  16  16  16   8
#     4   9  18  32  51  78 111 145 182 224 270 325
#     4   9  19  36  58  84 112 144 186 233 278 326
#     4  12  22  34  55  80 109 148 186 219 268 333
#     4  11  22  37  59  84 112 148 186 225 279 336
#     4  11  22  35  54  81 113 145 180 228 277 324
#     4  11  24  39  56  80 113 146 183 231 277 327
#     4  12  24  38  55  80 115 149 184 227 274 330
#
# _framework density 17.586458
#
# number of rings (size 3 to 8) (size 9 to 14) (size 15 to 20)
#    0.000    1.500    2.500    4.000    0.000    5.000 
#    0.000    1.250    0.000    3.000    0.000    0.000 
#    0.000    0.000    0.000    0.000    0.000    0.000 
#
# Total GULP energy -268041.324060 kJ/mol
# GULP energy per Si atom -5584.194251 kJ/mol
# Density = 1.754643 g / cm^3
# Si number density = 17.586458 Si / 1000 Ang^3
#
#
#
# Elastic Constant Matrix: (Units=GPa)
#
#
# Indices 1 2 3 4 5 6 
#
# 1 117.7039 36.1854 69.1985 0.0000 0.0000 0.0000
# 2 36.1854 49.9006 33.0379 0.0000 0.0000 0.0000
# 3 69.1985 33.0379 139.5282 0.0000 0.0000 0.0000
# 4 0.0000 0.0000 0.0000 20.5315 0.0000 0.0000
# 5 0.0000 0.0000 0.0000 0.0000 13.2299 0.0000
# 6 0.0000 0.0000 0.0000 0.0000 0.0000 25.3949
#
#
#
# Elastic Compliance Matrix: (Units=1/GPa)
#
#
# Indices 1 2 3 4 5 6 
#
# 1 0.013501 -0.006353 -0.005192 0.000000 0.000000 0.000000
# 2 -0.006353 0.026755 -0.003184 0.000000 0.000000 0.000000
# 3 -0.005192 -0.003184 0.010496 0.000000 0.000000 0.000000
# 4 0.000000 0.000000 0.000000 0.048706 0.000000 0.000000
# 5 0.000000 0.000000 0.000000 0.000000 0.075586 0.000000
# 6 0.000000 0.000000 0.000000 0.000000 0.000000 0.039378
#
#
# Mechanical properties :
#
#
# Convention : Reuss Voigt Hill
#
# Bulk Modulus (GPa) = 46.96177 64.88629 55.92403
# Shear Modulus (GPa) = 19.92206 23.07865 21.50036
#
# Velocity S-wave (km/s) = 3.36937 3.62649 3.50029
# Velocity P-wave (km/s) = 6.47288 7.38315 6.94295
#
# Compressibility (1/GPa) = 0.02129391
#
# Stress axis : x y z
#
# Youngs Moduli (GPa) = 74.06776 37.37608 95.27695
#
# Poissons Ratio (x) = 0.23746 0.49463
# Poissons Ratio (y) = 0.47057 0.30339
# Poissons Ratio (z) = 0.38452 0.11902
#
# Static dielectric constant tensor:
#      x y z
#    x 1.580250 0.000000 0.000000 
#    y 0.000000 1.591640 0.000000 
#    z 0.000000 0.000000 1.619060 
# 
# From -- ./inp_files/75738.got.cif
#   From: 2010.05.17/outbox.cif.g08.bks.cpg/sg65_38_cif.got.tgz:75738.got - 2010.06.03 17:01:31.
