data_PCOD9493918
_publ_section_title
;
Structure prediction by ZEFSAII (Michael W. Deem and Ramdas Pophale) SiO2 
 PCOD9493918
Probable space group: C M M M
;
_chemical_formula_sum "Si O2"
_cell_formula_units_Z 80
_cell_length_a 18.927379
_cell_length_b 9.141873
_cell_length_c 25.946417
_cell_angle_alpha 90.000000
_cell_angle_beta 90.000000
_cell_angle_gamma 90.000000
_cell_volume 4489.552514
_symmetry_space_group_name_H-M "C M M M"
_symmetry_group_IT_number 65
_symmetry_cell_setting 'orthorhombic'
loop_
_space_group_symop_operation_xyz
x,y,z
-x,-y,z
x,-y,-z
-x,y,-z
-x,-y,-z
x,y,-z
-x,y,z
x,-y,z
1/2+x,1/2+y,z
1/2-x,1/2-y,z
1/2+x,1/2-y,-z
1/2-x,1/2+y,-z
1/2-x,1/2-y,-z
1/2+x,1/2+y,-z
1/2-x,1/2+y,z
1/2+x,1/2-y,z
loop_
_atom_site_type_symbol
_atom_site_label
_atom_site_fract_x
_atom_site_fract_y
_atom_site_fract_z
Si Si1 0.917023 0.673600 0.207636
Si Si2 0.173914 0.175239 0.294601
Si Si3 0.414056 0.168337 0.500000
Si Si4 0.826106 0.825953 0.000000
Si Si5 0.417436 0.324852 0.395135
Si Si6 0.416453 0.827296 0.913339
O O1 0.906142 0.500000 0.216650
O O2 0.868571 0.766409 0.245217
O O3 0.902900 0.700926 0.147138
O O4 0.000000 0.704852 0.216935
O O5 0.250000 0.250000 0.296622
O O6 0.128971 0.214068 0.345667
O O7 0.180647 0.000000 0.292459
O O8 0.500000 0.173172 0.500000
O O9 0.392112 0.248205 0.447519
O O10 0.391841 0.000000 0.500000
O O11 0.750000 0.750000 0.000000
O O12 0.869555 0.770270 0.950412
O O13 0.680792 0.500000 0.000000
O O14 0.500000 0.285472 0.386308
O O15 0.414641 0.500000 0.402145
O O16 0.500000 0.802944 0.922721
O O17 0.402789 0.000000 0.923133
#
# Coordination Sequence:
#
# PCOD9493918 Si02
#       6
#    16  16   8   8  16  16
#     4   9  19  37  61  86 110 140 179 222 270 323
#     4  11  23  37  54  78 110 147 184 223 270 322
#     4   9  17  29  50  81 108 131 167 217 268 315
#     4  12  25  38  55  81 113 149 187 226 269 318
#     4   9  18  34  55  77 103 137 176 218 266 320
#     4   9  19  38  62  85 111 143 178 220 272 326
#
# _framework density 17.819147000000001
#
# number of rings (size 3 to 8) (size 9 to 14) (size 15 to 20)
#    0.000    2.300    0.000    3.900    0.000    7.200 
#    0.000    4.500    0.000    0.000    0.000    0.000 
#    0.000    0.000    0.000    0.000    0.000    0.000 
#
# Total GULP energy -223332.960452 kJ/mol
# GULP energy per Si atom -5583.324011 kJ/mol
# Density = 1.777859 g / cm^3
# Si number density = 17.819147 Si / 1000 Ang^3
#
#
#
# Elastic Constant Matrix: (Units=GPa)
#
#
# Indices 1 2 3 4 5 6 
#
# 1 101.3314 79.3324 93.9465 0.0000 0.0000 0.0000
# 2 79.3324 91.9324 90.1912 0.0000 0.0000 0.0000
# 3 93.9465 90.1912 131.0949 0.0000 0.0000 0.0000
# 4 0.0000 0.0000 0.0000 27.6750 0.0000 0.0000
# 5 0.0000 0.0000 0.0000 0.0000 -14.1234 0.0000
# 6 0.0000 0.0000 0.0000 0.0000 0.0000 24.2296
#
#
#
# Elastic Compliance Matrix: (Units=1/GPa)
#
#
# Indices 1 2 3 4 5 6 
#
# 1 0.037346 -0.018370 -0.014125 0.000000 0.000000 0.000000
# 2 -0.018370 0.042501 -0.016075 0.000000 0.000000 0.000000
# 3 -0.014125 -0.016075 0.028810 0.000000 0.000000 0.000000
# 4 0.000000 0.000000 0.000000 0.036134 0.000000 0.000000
# 5 0.000000 0.000000 0.000000 0.000000 -0.070805 0.000000
# 6 0.000000 0.000000 0.000000 0.000000 0.000000 0.041272
#
#
# Mechanical properties :
#
#
# Convention : Reuss Voigt Hill
#
# Bulk Modulus (GPa) = 86.83499 94.58878 90.71188
# Shear Modulus (GPa) = 23.12277 11.61549 17.36913
#
# Velocity S-wave (km/s) = 3.60618 2.55591 3.12548
# Velocity P-wave (km/s) = 8.13489 7.86817 8.00264
#
# Compressibility (1/GPa) = 0.01151609
#
# Stress axis : x y z
#
# Youngs Moduli (GPa) = 26.77645 23.52907 34.71018
#
# Poissons Ratio (x) = 0.43223 0.49028
# Poissons Ratio (y) = 0.49189 0.55797
# Poissons Ratio (z) = 0.37822 0.37823
#
# Static dielectric constant tensor:
#      x y z
#    x 1.586710 0.000000 0.000000 
#    y 0.000000 1.588810 0.000000 
#    z 0.000000 0.000000 1.590980 
# 
# From -- ./inp_files/67279.got.cif
#   From: 2010.05.17/outbox.cif.g08.bks.cpg/sg65_34_cif.got.tgz:67279.got - 2010.06.03 17:01:31.
