data_PCOD9493371
_publ_section_title
;
Structure prediction by ZEFSAII (Michael W. Deem and Ramdas Pophale) SiO2 
 PCOD9493371
Probable space group: C M M M
;
_chemical_formula_sum "Si O2"
_cell_formula_units_Z 80
_cell_length_a 36.798074
_cell_length_b 8.471126
_cell_length_c 18.844840
_cell_angle_alpha 90.000000
_cell_angle_beta 90.000000
_cell_angle_gamma 90.000000
_cell_volume 5874.334658
_symmetry_space_group_name_H-M "C M M M"
_symmetry_group_IT_number 65
_symmetry_cell_setting 'orthorhombic'
loop_
_space_group_symop_operation_xyz
x,y,z
-x,-y,z
x,-y,-z
-x,y,-z
-x,-y,-z
x,y,-z
-x,y,z
x,-y,z
1/2+x,1/2+y,z
1/2-x,1/2-y,z
1/2+x,1/2-y,-z
1/2-x,1/2+y,-z
1/2-x,1/2-y,-z
1/2+x,1/2+y,-z
1/2-x,1/2+y,z
1/2+x,1/2-y,z
loop_
_atom_site_type_symbol
_atom_site_label
_atom_site_fract_x
_atom_site_fract_y
_atom_site_fract_z
Si Si1 0.667932 0.185624 0.137790
Si Si2 0.086243 0.682849 0.914229
Si Si3 0.209186 0.187253 0.000000
Si Si4 0.041721 0.000000 0.913982
Si Si5 0.291290 0.313488 0.273799
Si Si6 0.791538 0.688992 0.576858
O O1 0.625061 0.204973 0.123658
O O2 0.683553 0.263280 0.208638
O O3 0.675609 0.000000 0.141962
O O4 0.688606 0.253497 0.069718
O O5 0.073567 0.500000 0.899649
O O6 0.061300 0.833824 0.894167
O O7 0.091546 0.690163 0.000000
O O8 0.250000 0.250000 0.000000
O O9 0.209630 0.000000 0.000000
O O10 0.000000 0.000000 0.889395
O O11 0.041540 0.000000 0.000000
O O12 0.288533 0.500000 0.277466
O O13 0.250000 0.250000 0.263778
O O14 0.306725 0.252084 0.349120
O O15 0.807621 0.737217 0.500000
O O16 0.791224 0.500000 0.579676
O O17 0.750000 0.750000 0.576393
#
# Coordination Sequence:
#
# PCOD9493371 Si02
#       6
#    16  16   8   8  16  16
#     4  11  21  34  47  60  82 111 146 186 222 264
#     4   9  18  31  48  66  86 114 145 176 219 266
#     4  12  24  34  46  60  78 107 146 191 231 267
#     4   9  18  30  48  70  92 110 137 179 217 265
#     4  11  21  31  43  60  82 109 143 187 229 263
#     4   9  16  27  43  60  78 102 133 173 221 269
#
# _framework density 13.618563999999999
#
# number of rings (size 3 to 8) (size 9 to 14) (size 15 to 20)
#    0.000    1.900    1.000    5.700    2.800    1.600 
#    0.000    2.000    0.000    0.000    0.000    0.000 
#    0.000    0.000    0.000    0.000    0.000    2.000 
#
# Total GULP energy -222892.724198 kJ/mol
# GULP energy per Si atom -5572.318105 kJ/mol
# Density = 1.358757 g / cm^3
# Si number density = 13.618564 Si / 1000 Ang^3
#
#
#
# Elastic Constant Matrix: (Units=GPa)
#
#
# Indices 1 2 3 4 5 6 
#
# 1 52.7982 49.1416 29.4250 0.0000 0.0000 0.0000
# 2 49.1416 120.3537 46.0571 0.0000 0.0000 0.0000
# 3 29.4250 46.0571 106.6294 0.0000 0.0000 0.0000
# 4 0.0000 0.0000 0.0000 12.6977 0.0000 0.0000
# 5 0.0000 0.0000 0.0000 0.0000 -2.3034 0.0000
# 6 0.0000 0.0000 0.0000 0.0000 0.0000 20.5129
#
#
#
# Elastic Compliance Matrix: (Units=1/GPa)
#
#
# Indices 1 2 3 4 5 6 
#
# 1 0.031780 -0.011525 -0.003792 0.000000 0.000000 0.000000
# 2 -0.011525 0.014134 -0.002924 0.000000 0.000000 0.000000
# 3 -0.003792 -0.002924 0.011688 0.000000 0.000000 0.000000
# 4 0.000000 0.000000 0.000000 0.078754 0.000000 0.000000
# 5 0.000000 0.000000 0.000000 0.000000 -0.434138 0.000000
# 6 0.000000 0.000000 0.000000 0.000000 0.000000 0.048750
#
#
# Mechanical properties :
#
#
# Convention : Reuss Voigt Hill
#
# Bulk Modulus (GPa) = 47.35070 58.78097 53.06584
# Shear Modulus (GPa) = -24.32977 16.52527 -3.90225
#
# Velocity S-wave (km/s) = -4.23130 3.48722 -1.69458
# Velocity P-wave (km/s) = 3.31252 7.71170 5.93478
#
# Compressibility (1/GPa) = 0.02111901
#
# Stress axis : x y z
#
# Youngs Moduli (GPa) = 31.46615 70.75235 85.55896
#
# Poissons Ratio (x) = 0.81543 0.32442
# Poissons Ratio (y) = 0.36265 0.25022
# Poissons Ratio (z) = 0.11931 0.20691
#
# Static dielectric constant tensor:
#      x y z
#    x 1.414890 0.000000 0.000000 
#    y 0.000000 1.462760 0.000000 
#    z 0.000000 0.000000 1.455040 
# 
# From -- ./inp_files/57896.got.cif
#   From: 2010.05.17/outbox.cif.g08.bks.cpg/sg65_29_cif.got.tgz:57896.got - 2010.06.03 17:01:31.
