data_PCOD9493439
_publ_section_title
;
Structure prediction by ZEFSAII (Michael W. Deem and Ramdas Pophale) SiO2 
 PCOD9493439
Probable space group: C M M M
;
_chemical_formula_sum "Si O2"
_cell_formula_units_Z 96
_cell_length_a 26.105013
_cell_length_b 23.695121
_cell_length_c 8.736972
_cell_angle_alpha 90.000000
_cell_angle_beta 90.000000
_cell_angle_gamma 90.000000
_cell_volume 5404.353997
_symmetry_space_group_name_H-M "C M M M"
_symmetry_group_IT_number 65
_symmetry_cell_setting 'orthorhombic'
loop_
_space_group_symop_operation_xyz
x,y,z
-x,-y,z
x,-y,-z
-x,y,-z
-x,-y,-z
x,y,-z
-x,y,z
x,-y,z
1/2+x,1/2+y,z
1/2-x,1/2-y,z
1/2+x,1/2-y,-z
1/2-x,1/2+y,-z
1/2-x,1/2-y,-z
1/2+x,1/2+y,-z
1/2-x,1/2+y,z
1/2+x,1/2-y,z
loop_
_atom_site_type_symbol
_atom_site_label
_atom_site_fract_x
_atom_site_fract_y
_atom_site_fract_z
Si Si1 0.559957 0.181498 0.683571
Si Si2 0.310267 0.746786 0.671559
Si Si3 0.343722 0.863971 0.817794
Si Si4 0.941666 0.813790 0.684312
Si Si5 0.749185 0.067381 0.678977
Si Si6 0.655975 0.365298 0.821274
O O1 0.567032 0.177501 0.500000
O O2 0.500000 0.172162 0.716773
O O3 0.596887 0.136369 0.765142
O O4 0.570652 0.247853 0.726298
O O5 0.331467 0.735118 0.500000
O O6 0.250000 0.750000 0.656973
O O7 0.326947 0.806370 0.735642
O O8 0.322617 0.697176 0.787844
O O9 0.302287 0.909547 0.760251
O O10 0.340660 0.860369 0.000000
O O11 0.941523 0.816233 0.500000
O O12 0.900597 0.858231 0.748626
O O13 0.000000 0.824644 0.736219
O O14 0.746183 0.083590 0.500000
O O15 0.801562 0.094001 0.745985
O O16 0.751243 0.000000 0.691873
O O17 0.652421 0.377572 0.000000
#
# Coordination Sequence:
#
# PCOD9493439 Si02
#       6
#    16  16  16  16  16  16
#     4   9  18  33  54  80 114 156 193 224 264 324
#     4  11  21  33  52  77 111 152 188 222 266 331
#     4  12  23  34  55  85 117 147 179 229 288 335
#     4   9  18  33  54  80 114 156 193 224 264 324
#     4  11  25  44  63  80 103 145 195 235 276 333
#     4  12  23  34  55  85 117 147 179 229 288 335
#
# _framework density 17.763455
#
# number of rings (size 3 to 8) (size 9 to 14) (size 15 to 20)
#    0.000    1.333    3.333    5.000    0.000    2.667 
#    0.000    1.667    0.000    1.000    0.000    7.000 
#    0.000    0.000    0.000    0.000    0.000    0.000 
#
# Total GULP energy -267685.490242 kJ/mol
# GULP energy per Si atom -5576.781047 kJ/mol
# Density = 1.772302 g / cm^3
# Si number density = 17.763455 Si / 1000 Ang^3
#
#
#
# Elastic Constant Matrix: (Units=GPa)
#
#
# Indices 1 2 3 4 5 6 
#
# 1 143.6255 29.4460 38.1880 0.0000 0.0000 0.0000
# 2 29.4460 39.8988 13.1859 0.0000 0.0000 0.0000
# 3 38.1880 13.1859 66.2031 0.0000 0.0000 0.0000
# 4 0.0000 0.0000 0.0000 59.1418 0.0000 0.0000
# 5 0.0000 0.0000 0.0000 0.0000 18.8456 0.0000
# 6 0.0000 0.0000 0.0000 0.0000 0.0000 10.4230
#
#
#
# Elastic Compliance Matrix: (Units=1/GPa)
#
#
# Indices 1 2 3 4 5 6 
#
# 1 0.009191 -0.005386 -0.004229 0.000000 0.000000 0.000000
# 2 -0.005386 0.029985 -0.002866 0.000000 0.000000 0.000000
# 3 -0.004229 -0.002866 0.018115 0.000000 0.000000 0.000000
# 4 0.000000 0.000000 0.000000 0.016909 0.000000 0.000000
# 5 0.000000 0.000000 0.000000 0.000000 0.053063 0.000000
# 6 0.000000 0.000000 0.000000 0.000000 0.000000 0.095942
#
#
# Mechanical properties :
#
#
# Convention : Reuss Voigt Hill
#
# Bulk Modulus (GPa) = 30.93018 45.70746 38.31882
# Shear Modulus (GPa) = 19.30934 28.94259 24.12596
#
# Velocity S-wave (km/s) = 3.30058 4.04088 3.68935
# Velocity P-wave (km/s) = 5.65466 6.89628 6.30610
#
# Compressibility (1/GPa) = 0.03233089
#
# Stress axis : x y z
#
# Youngs Moduli (GPa) = 108.80024 33.34990 55.20207
#
# Poissons Ratio (x) = 0.17961 0.23345
# Poissons Ratio (y) = 0.58595 0.15819
# Poissons Ratio (z) = 0.46013 0.09557
#
# Static dielectric constant tensor:
#      x y z
#    x 1.707130 0.000000 0.000000 
#    y 0.000000 1.573060 0.000000 
#    z 0.000000 0.000000 1.601080 
# 
# From -- ./inp_files/16339.got.cif
#   From: 2010.05.17/outbox.cif.g08.bks.cpg/sg65_9_cif.got.tgz:16339.got - 2010.06.03 17:01:31.
