data_PCOD9493857
_publ_section_title
;
Structure prediction by ZEFSAII (Michael W. Deem and Ramdas Pophale) SiO2 
 PCOD9493857
Probable space group: C M M M
;
_chemical_formula_sum "Si O2"
_cell_formula_units_Z 50
_cell_length_a 7.822748
_cell_length_b 15.633199
_cell_length_c 19.635757
_cell_angle_alpha 90.000000
_cell_angle_beta 90.000000
_cell_angle_gamma 90.000000
_cell_volume 2401.346581
_symmetry_space_group_name_H-M "C M M M"
_symmetry_group_IT_number 65
_symmetry_cell_setting 'orthorhombic'
loop_
_space_group_symop_operation_xyz
x,y,z
-x,-y,z
x,-y,-z
-x,y,-z
-x,-y,-z
x,y,-z
-x,y,z
x,-y,z
1/2+x,1/2+y,z
1/2-x,1/2-y,z
1/2+x,1/2-y,-z
1/2-x,1/2+y,-z
1/2-x,1/2-y,-z
1/2+x,1/2+y,-z
1/2-x,1/2+y,z
1/2+x,1/2-y,z
loop_
_atom_site_type_symbol
_atom_site_label
_atom_site_fract_x
_atom_site_fract_y
_atom_site_fract_z
Si Si1 0.704949 0.844713 0.707384
Si Si2 0.204594 0.401572 0.854058
Si Si3 0.500000 0.000000 0.500000
Si Si4 0.192640 0.000000 0.612416
Si Si5 0.702449 0.402161 0.000000
O O1 0.500000 0.856174 0.705871
O O2 0.750000 0.750000 0.683359
O O3 0.766072 0.855717 0.785722
O O4 0.785447 0.917190 0.660525
O O5 0.269820 0.500000 0.852902
O O6 0.000000 0.404980 0.850001
O O7 0.246787 0.362728 0.927709
O O8 0.652502 0.000000 0.558974
O O9 0.000000 0.000000 0.583541
O O10 0.776328 0.500000 0.000000
O O11 0.500000 0.407986 0.000000
#
# Coordination Sequence:
#
# PCOD9493857 Si02
#       5
#    16  16   2   8   8
#     4  11  22  41  67 101 139 177 228 282 332 400
#     4   9  17  32  55  81 119 172 220 275 337 392
#     4  12  26  52  80 106 148 172 222 264 332 414
#     4  12  25  47  79 107 140 182 218 272 332 398
#     4   9  17  27  44  77 120 158 218 282 332 390
#
# _framework density 20.821650999999999
#
# number of rings (size 3 to 8) (size 9 to 14) (size 15 to 20)
#    0.000    1.760    3.200    1.680    0.000    4.480 
#    0.000    1.600    0.000    0.000    0.000    0.000 
#    0.000    0.000    0.000    0.000    0.000    0.000 
#
# Total GULP energy -139327.984752 kJ/mol
# GULP energy per Si atom -5573.119390 kJ/mol
# Density = 2.077426 g / cm^3
# Si number density = 20.821651 Si / 1000 Ang^3
#
#
#
# Elastic Constant Matrix: (Units=GPa)
#
#
# Indices 1 2 3 4 5 6 
#
# 1 113.8509 17.3066 48.1760 0.0000 0.0000 0.0000
# 2 17.3066 110.1725 52.2992 0.0000 0.0000 0.0000
# 3 48.1760 52.2992 156.5032 0.0000 0.0000 0.0000
# 4 0.0000 0.0000 0.0000 -6.7637 0.0000 0.0000
# 5 0.0000 0.0000 0.0000 0.0000 4.9764 0.0000
# 6 0.0000 0.0000 0.0000 0.0000 0.0000 15.8800
#
#
#
# Elastic Compliance Matrix: (Units=1/GPa)
#
#
# Indices 1 2 3 4 5 6 
#
# 1 0.010100 -0.000132 -0.003065 0.000000 0.000000 0.000000
# 2 -0.000132 0.010790 -0.003565 0.000000 0.000000 0.000000
# 3 -0.003065 -0.003565 0.008525 0.000000 0.000000 0.000000
# 4 0.000000 0.000000 0.000000 -0.147848 0.000000 0.000000
# 5 0.000000 0.000000 0.000000 0.000000 0.200949 0.000000
# 6 0.000000 0.000000 0.000000 0.000000 0.000000 0.062972
#
#
# Mechanical properties :
#
#
# Convention : Reuss Voigt Hill
#
# Bulk Modulus (GPa) = 62.92915 68.45449 65.69182
# Shear Modulus (GPa) = 30.43052 20.33486 25.38269
#
# Velocity S-wave (km/s) = 3.82708 3.12848 3.49528
# Velocity P-wave (km/s) = 7.05814 6.78217 6.92153
#
# Compressibility (1/GPa) = 0.01589089
#
# Stress axis : x y z
#
# Youngs Moduli (GPa) = 99.00527 92.68074 117.30774
#
# Poissons Ratio (x) = 0.01219 0.35958
# Poissons Ratio (y) = 0.01303 0.41822
# Poissons Ratio (z) = 0.30347 0.33042
#
# Static dielectric constant tensor:
#      x y z
#    x 1.737920 0.000000 0.000000 
#    y 0.000000 1.749450 0.000000 
#    z 0.000000 0.000000 1.755230 
# 
# From -- ./inp_files/58498.got.cif
#   From: 2010.05.17/outbox.cif.g08.bks.cpg/sg65_30_cif.got.tgz:58498.got - 2010.06.03 17:01:31.
