data_PCOD9493077
_publ_section_title
;
Structure prediction by ZEFSAII (Michael W. Deem and Ramdas Pophale) SiO2 
 PCOD9493077
Probable space group: C M M M
;
_chemical_formula_sum "Si O2"
_cell_formula_units_Z 64
_cell_length_a 35.099424
_cell_length_b 8.839040
_cell_length_c 10.828794
_cell_angle_alpha 90.000000
_cell_angle_beta 90.000000
_cell_angle_gamma 90.000000
_cell_volume 3359.581498
_symmetry_space_group_name_H-M "C M M M"
_symmetry_group_IT_number 65
_symmetry_cell_setting 'orthorhombic'
loop_
_space_group_symop_operation_xyz
x,y,z
-x,-y,z
x,-y,-z
-x,y,-z
-x,-y,-z
x,y,-z
-x,y,z
x,-y,z
1/2+x,1/2+y,z
1/2-x,1/2-y,z
1/2+x,1/2-y,-z
1/2-x,1/2+y,-z
1/2-x,1/2-y,-z
1/2+x,1/2+y,-z
1/2-x,1/2+y,z
1/2+x,1/2-y,z
loop_
_atom_site_type_symbol
_atom_site_label
_atom_site_fract_x
_atom_site_fract_y
_atom_site_fract_z
Si Si1 0.843841 0.817226 0.357452
Si Si2 0.573856 0.319450 0.750078
Si Si3 0.954708 0.319245 0.000000
Si Si4 0.500000 0.832094 0.355853
Si Si5 0.792384 0.681678 0.139635
O O1 0.836093 0.770714 0.500000
O O2 0.887140 0.778008 0.318942
O O3 0.817075 0.746272 0.252361
O O4 0.840163 0.000000 0.352730
O O5 0.572980 0.500000 0.762171
O O6 0.537342 0.259893 0.677886
O O7 0.567700 0.244051 0.882583
O O8 0.954317 0.500000 0.000000
O O9 0.000000 0.271769 0.000000
O O10 0.500000 0.852079 0.500000
O O11 0.500000 0.000000 0.294573
O O12 0.790766 0.500000 0.148105
O O13 0.750000 0.750000 0.148303
O O14 0.806946 0.720073 0.000000
#
# Coordination Sequence:
#
# PCOD9493077 Si02
#       5
#    16  16   8   8  16
#     4  10  23  42  63  91 126 162 203 252 305 362
#     4  11  23  39  61  87 117 156 205 254 303 360
#     4  11  23  39  59  85 119 156 199 254 314 370
#     4  11  23  38  57  82 115 157 201 249 308 365
#     4  10  22  41  66  96 126 161 203 247 300 361
#
# _framework density 19.049993000000001
#
# number of rings (size 3 to 8) (size 9 to 14) (size 15 to 20)
#    0.000    1.500    1.250    3.000    1.750    7.000 
#    0.000    0.000    0.000    0.000    0.000    0.000 
#    0.000    0.000    0.000    0.000    0.000    0.000 
#
# Total GULP energy -178690.798777 kJ/mol
# GULP energy per Si atom -5584.087462 kJ/mol
# Density = 1.900663 g / cm^3
# Si number density = 19.049993 Si / 1000 Ang^3
#
#
#
# Elastic Constant Matrix: (Units=GPa)
#
#
# Indices 1 2 3 4 5 6 
#
# 1 111.7935 43.2812 87.6014 0.0000 0.0000 0.0000
# 2 43.2812 55.3324 57.0888 0.0000 0.0000 0.0000
# 3 87.6014 57.0888 198.1465 0.0000 0.0000 0.0000
# 4 0.0000 0.0000 0.0000 35.3175 0.0000 0.0000
# 5 0.0000 0.0000 0.0000 0.0000 133.7814 0.0000
# 6 0.0000 0.0000 0.0000 0.0000 0.0000 31.6925
#
#
#
# Elastic Compliance Matrix: (Units=1/GPa)
#
#
# Indices 1 2 3 4 5 6 
#
# 1 0.015458 -0.007172 -0.004767 0.000000 0.000000 0.000000
# 2 -0.007172 0.029045 -0.005197 0.000000 0.000000 0.000000
# 3 -0.004767 -0.005197 0.008652 0.000000 0.000000 0.000000
# 4 0.000000 0.000000 0.000000 0.028315 0.000000 0.000000
# 5 0.000000 0.000000 0.000000 0.000000 0.007475 0.000000
# 6 0.000000 0.000000 0.000000 0.000000 0.000000 0.031553
#
#
# Mechanical properties :
#
#
# Convention : Reuss Voigt Hill
#
# Bulk Modulus (GPa) = 52.96482 82.35725 67.66103
# Shear Modulus (GPa) = 31.04335 51.97834 41.51085
#
# Velocity S-wave (km/s) = 4.04118 5.22919 4.67309
# Velocity P-wave (km/s) = 7.04544 8.93226 8.04436
#
# Compressibility (1/GPa) = 0.01888046
#
# Stress axis : x y z
#
# Youngs Moduli (GPa) = 64.69312 34.42916 115.58097
#
# Poissons Ratio (x) = 0.24693 0.55103
# Poissons Ratio (y) = 0.46399 0.60073
# Poissons Ratio (z) = 0.30842 0.17894
#
# Static dielectric constant tensor:
#      x y z
#    x 1.636410 0.000000 0.000000 
#    y 0.000000 1.643150 0.000000 
#    z 0.000000 0.000000 1.793590 
# 
# From -- ./inp_files/33256.got.cif
#   From: 2010.05.17/outbox.cif.g08.bks.cpg/sg65_17_cif.got.tgz:33256.got - 2010.06.03 17:01:31.
