data_PCOD9493227
_publ_section_title
;
Structure prediction by ZEFSAII (Michael W. Deem and Ramdas Pophale) SiO2 
 PCOD9493227
Probable space group: C M M M
;
_chemical_formula_sum "Si O2"
_cell_formula_units_Z 58
_cell_length_a 18.184027
_cell_length_b 11.496230
_cell_length_c 15.447051
_cell_angle_alpha 90.000000
_cell_angle_beta 90.000000
_cell_angle_gamma 90.000000
_cell_volume 3229.171359
_symmetry_space_group_name_H-M "C M M M"
_symmetry_group_IT_number 65
_symmetry_cell_setting 'orthorhombic'
loop_
_space_group_symop_operation_xyz
x,y,z
-x,-y,z
x,-y,-z
-x,y,-z
-x,-y,-z
x,y,-z
-x,y,z
x,-y,z
1/2+x,1/2+y,z
1/2-x,1/2-y,z
1/2+x,1/2-y,-z
1/2-x,1/2+y,-z
1/2-x,1/2-y,-z
1/2+x,1/2+y,-z
1/2-x,1/2+y,z
1/2+x,1/2-y,z
loop_
_atom_site_type_symbol
_atom_site_label
_atom_site_fract_x
_atom_site_fract_y
_atom_site_fract_z
Si Si1 0.500000 0.000000 0.000000
Si Si2 0.163035 0.265275 0.754543
Si Si3 0.411798 0.634221 0.601088
Si Si4 0.083087 0.860740 0.903518
Si Si5 0.083231 0.500000 0.182738
O O1 0.563724 0.000000 0.079333
O O2 0.250000 0.250000 0.746473
O O3 0.126405 0.223021 0.665437
O O4 0.136669 0.179156 0.830059
O O5 0.129727 0.388465 0.785726
O O6 0.394429 0.654055 0.500000
O O7 0.500000 0.642145 0.610876
O O8 0.391308 0.500000 0.622380
O O9 0.000000 0.816765 0.885520
O O10 0.079927 0.000000 0.905426
O O11 0.102956 0.819515 0.000000
O O12 0.000000 0.500000 0.222461
#
# Coordination Sequence:
#
# PCOD9493227 Si02
#       5
#     2  16  16  16   8
#     4   8  24  48  68  76 124 180 238 244 288 374
#     4  12  25  36  59  89 128 160 203 256 313 366
#     4   9  19  39  68  94 116 154 202 250 310 374
#     4   9  19  36  59  85 111 149 199 252 307 364
#     4  10  24  44  63  86 119 178 221 247 301 374
#
# _framework density 17.961265000000001
#
# number of rings (size 3 to 8) (size 9 to 14) (size 15 to 20)
#    0.414    1.655    0.000    4.966    5.793    3.310 
#    0.000    0.690    0.000    2.483    0.000    0.000 
#    0.000    0.000    0.000    0.000    0.000    0.000 
#
# Total GULP energy -161447.693182 kJ/mol
# GULP energy per Si atom -5567.161834 kJ/mol
# Density = 1.792038 g / cm^3
# Si number density = 17.961265 Si / 1000 Ang^3
#
#
#
# Elastic Constant Matrix: (Units=GPa)
#
#
# Indices 1 2 3 4 5 6 
#
# 1 91.1469 52.7045 71.9128 0.0000 0.0000 0.0000
# 2 52.7045 86.0765 66.3579 0.0000 0.0000 0.0000
# 3 71.9128 66.3579 119.2607 0.0000 0.0000 0.0000
# 4 0.0000 0.0000 0.0000 24.4672 0.0000 0.0000
# 5 0.0000 0.0000 0.0000 0.0000 438.1382 0.0000
# 6 0.0000 0.0000 0.0000 0.0000 0.0000 13.6952
#
#
#
# Elastic Compliance Matrix: (Units=1/GPa)
#
#
# Indices 1 2 3 4 5 6 
#
# 1 0.022468 -0.005801 -0.010320 0.000000 0.000000 0.000000
# 2 -0.005801 0.021842 -0.008655 0.000000 0.000000 0.000000
# 3 -0.010320 -0.008655 0.019424 0.000000 0.000000 0.000000
# 4 0.000000 0.000000 0.000000 0.040871 0.000000 0.000000
# 5 0.000000 0.000000 0.000000 0.000000 0.002282 0.000000
# 6 0.000000 0.000000 0.000000 0.000000 0.000000 0.073018
#
#
# Mechanical properties :
#
#
# Convention : Reuss Voigt Hill
#
# Bulk Modulus (GPa) = 70.51709 75.38163 72.94936
# Shear Modulus (GPa) = 21.35059 102.29403 61.82231
#
# Velocity S-wave (km/s) = 3.45150 7.55488 5.87320
# Velocity P-wave (km/s) = 7.43167 10.87022 9.31105
#
# Compressibility (1/GPa) = 0.01418096
#
# Stress axis : x y z
#
# Youngs Moduli (GPa) = 44.50738 45.78340 51.48348
#
# Poissons Ratio (x) = 0.26560 0.53132
# Poissons Ratio (y) = 0.25820 0.44559
# Poissons Ratio (z) = 0.45932 0.39626
#
# Static dielectric constant tensor:
#      x y z
#    x 1.407220 0.000000 0.000000 
#    y 0.000000 1.664470 0.000000 
#    z 0.000000 0.000000 1.596400 
# 
# From -- ./inp_files/41823.got.cif
#   From: 2010.05.17/outbox.cif.g08.bks.cpg/sg65_21_cif.got.tgz:41823.got - 2010.06.03 17:01:31.
