data_PCOD9493011
_publ_section_title
;
Structure prediction by ZEFSAII (Michael W. Deem and Ramdas Pophale) SiO2 
 PCOD9493011
Probable space group: C M M M
;
_chemical_formula_sum "Si O2"
_cell_formula_units_Z 64
_cell_length_a 28.993844
_cell_length_b 14.268760
_cell_length_c 7.500608
_cell_angle_alpha 90.000000
_cell_angle_beta 90.000000
_cell_angle_gamma 90.000000
_cell_volume 3103.048045
_symmetry_space_group_name_H-M "C M M M"
_symmetry_group_IT_number 65
_symmetry_cell_setting 'orthorhombic'
loop_
_space_group_symop_operation_xyz
x,y,z
-x,-y,z
x,-y,-z
-x,y,-z
-x,-y,-z
x,y,-z
-x,y,z
x,-y,z
1/2+x,1/2+y,z
1/2-x,1/2-y,z
1/2+x,1/2-y,-z
1/2-x,1/2+y,-z
1/2-x,1/2-y,-z
1/2+x,1/2+y,-z
1/2-x,1/2+y,z
1/2+x,1/2-y,z
loop_
_atom_site_type_symbol
_atom_site_label
_atom_site_fract_x
_atom_site_fract_y
_atom_site_fract_z
Si Si1 0.369082 0.392907 0.717223
Si Si2 0.232851 0.114334 0.704779
Si Si3 0.947051 0.746189 0.711769
Si Si4 0.411135 0.111533 0.000000
Si Si5 0.804108 0.385430 0.000000
O O1 0.367577 0.394744 0.500000
O O2 0.375878 0.500000 0.776910
O O3 0.318154 0.358999 0.772371
O O4 0.410770 0.325906 0.768196
O O5 0.238952 0.143084 0.500000
O O6 0.274695 0.145187 0.828498
O O7 0.232160 0.000000 0.706229
O O8 0.941363 0.729578 0.500000
O O9 0.935257 0.655458 0.827182
O O10 0.000000 0.774717 0.742587
O O11 0.357323 0.141297 0.000000
O O12 0.413700 0.000000 0.000000
O O13 0.803712 0.500000 0.000000
#
# Coordination Sequence:
#
# PCOD9493011 Si02
#       5
#    16  16  16   8   8
#     4   8  15  31  57  88 121 154 182 212 261 328
#     4   8  14  27  49  78 113 148 178 211 256 318
#     4  10  22  40  61  85 113 145 184 232 283 334
#     4  11  25  43  60  79 107 143 189 247 296 331
#     4   9  18  32  52  77 102 138 186 228 275 328
#
# _framework density 20.624880999999998
#
# number of rings (size 3 to 8) (size 9 to 14) (size 15 to 20)
#    0.000    3.000    0.000    1.875    0.000    4.000 
#    0.000   10.625    0.000    6.000    0.000    0.000 
#    0.000    0.000    0.000    0.000    0.000    0.000 
#
# Total GULP energy -178741.487577 kJ/mol
# GULP energy per Si atom -5585.671487 kJ/mol
# Density = 2.057794 g / cm^3
# Si number density = 20.624881 Si / 1000 Ang^3
#
#
#
# Elastic Constant Matrix: (Units=GPa)
#
#
# Indices 1 2 3 4 5 6 
#
# 1 105.0508 29.1851 43.4890 0.0000 0.0000 0.0000
# 2 29.1851 79.5522 14.6344 0.0000 0.0000 0.0000
# 3 43.4890 14.6344 79.5783 0.0000 0.0000 0.0000
# 4 0.0000 0.0000 0.0000 11.6580 0.0000 0.0000
# 5 0.0000 0.0000 0.0000 0.0000 30.8489 0.0000
# 6 0.0000 0.0000 0.0000 0.0000 0.0000 35.8566
#
#
#
# Elastic Compliance Matrix: (Units=1/GPa)
#
#
# Indices 1 2 3 4 5 6 
#
# 1 0.013255 -0.003654 -0.006572 0.000000 0.000000 0.000000
# 2 -0.003654 0.014018 -0.000581 0.000000 0.000000 0.000000
# 3 -0.006572 -0.000581 0.016265 0.000000 0.000000 0.000000
# 4 0.000000 0.000000 0.000000 0.085778 0.000000 0.000000
# 5 0.000000 0.000000 0.000000 0.000000 0.032416 0.000000
# 6 0.000000 0.000000 0.000000 0.000000 0.000000 0.027889
#
#
# Mechanical properties :
#
#
# Convention : Reuss Voigt Hill
#
# Bulk Modulus (GPa) = 45.61249 48.75535 47.18392
# Shear Modulus (GPa) = 22.87895 27.46421 25.17158
#
# Velocity S-wave (km/s) = 3.33421 3.65308 3.49728
# Velocity P-wave (km/s) = 6.08160 6.44078 6.26377
#
# Compressibility (1/GPa) = 0.02192382
#
# Stress axis : x y z
#
# Youngs Moduli (GPa) = 75.44383 71.33820 61.48350
#
# Poissons Ratio (x) = 0.26066 0.40406
# Poissons Ratio (y) = 0.27566 0.03573
# Poissons Ratio (z) = 0.49580 0.04145
#
# Static dielectric constant tensor:
#      x y z
#    x 1.709760 0.000000 0.000000 
#    y 0.000000 1.737840 0.000000 
#    z 0.000000 0.000000 1.740730 
# 
# From -- ./inp_files/15661.got.cif
#   From: 2010.05.17/outbox.cif.g08.bks.cpg/sg65_8_cif.got.tgz:15661.got - 2010.06.03 17:01:31.
