data_PCOD9493024
_publ_section_title
;
Structure prediction by ZEFSAII (Michael W. Deem and Ramdas Pophale) SiO2 
 PCOD9493024
Probable space group: C M M M
;
_chemical_formula_sum "Si O2"
_cell_formula_units_Z 100
_cell_length_a 27.718572
_cell_length_b 19.931644
_cell_length_c 9.677289
_cell_angle_alpha 90.000000
_cell_angle_beta 90.000000
_cell_angle_gamma 90.000000
_cell_volume 5346.476782
_symmetry_space_group_name_H-M "C M M M"
_symmetry_group_IT_number 65
_symmetry_cell_setting 'orthorhombic'
loop_
_space_group_symop_operation_xyz
x,y,z
-x,-y,z
x,-y,-z
-x,y,-z
-x,-y,-z
x,y,-z
-x,y,z
x,-y,z
1/2+x,1/2+y,z
1/2-x,1/2-y,z
1/2+x,1/2-y,-z
1/2-x,1/2+y,-z
1/2-x,1/2-y,-z
1/2+x,1/2+y,-z
1/2-x,1/2+y,z
1/2+x,1/2-y,z
loop_
_atom_site_type_symbol
_atom_site_label
_atom_site_fract_x
_atom_site_fract_y
_atom_site_fract_z
Si Si1 0.056463 0.580817 0.500000
Si Si2 0.223768 0.579117 0.335578
Si Si3 0.600232 0.000000 0.000000
Si Si4 0.941898 0.871961 0.340989
Si Si5 0.558814 0.500000 0.840400
Si Si6 0.616601 0.885348 0.230815
Si Si7 0.280266 0.316967 0.160369
Si Si8 0.390204 0.269511 0.155552
O O1 0.061248 0.500000 0.500000
O O2 0.082995 0.607802 0.635273
O O3 0.000000 0.597753 0.500000
O O4 0.224298 0.590586 0.500000
O O5 0.230554 0.500000 0.310327
O O6 0.171669 0.600138 0.275964
O O7 0.263466 0.623537 0.258758
O O8 0.601762 0.941099 0.879895
O O9 0.925722 0.879189 0.500000
O O10 0.922824 0.804675 0.270171
O O11 0.000000 0.872080 0.341623
O O12 0.925915 0.934223 0.244851
O O13 0.500000 0.500000 0.842834
O O14 0.575198 0.500000 0.000000
O O15 0.612662 0.810240 0.173285
O O16 0.250000 0.250000 0.194904
O O17 0.336370 0.299088 0.170735
O O18 0.269195 0.333871 0.000000
O O19 0.407654 0.285447 0.000000
#
# Coordination Sequence:
#
# PCOD9493024 Si02
#       8
#     8  16   4  16   8  16  16  16
#     4  11  24  44  64  87 128 167 205 262 324 377
#     4  11  23  39  63  92 124 158 211 260 303 375
#     4  12  24  38  71  96 124 160 224 266 315 378
#     4  10  22  40  64  94 126 165 211 260 316 378
#     4   9  17  35  65  94 121 159 207 254 306 369
#     4  12  23  41  65  96 121 166 213 262 317 381
#     4  10  22  40  62  89 123 161 201 249 315 372
#     4  11  24  41  62  91 129 165 208 263 318 383
#
# _framework density 18.703906
#
# number of rings (size 3 to 8) (size 9 to 14) (size 15 to 20)
#    0.000    1.280    4.800    0.720    2.240    3.840 
#    1.440    0.800    0.000    0.000    0.000    0.000 
#    0.000    0.000    0.000    0.000    0.000    0.000 
#
# Total GULP energy -278848.363942 kJ/mol
# GULP energy per Si atom -5576.967279 kJ/mol
# Density = 1.866133 g / cm^3
# Si number density = 18.703906 Si / 1000 Ang^3
#
#
#
# Elastic Constant Matrix: (Units=GPa)
#
#
# Indices 1 2 3 4 5 6 
#
# 1 27.1106 12.9612 29.8985 0.0000 0.0000 0.0000
# 2 12.9612 120.8498 73.3560 0.0000 0.0000 0.0000
# 3 29.8985 73.3560 155.8971 0.0000 0.0000 0.0000
# 4 0.0000 0.0000 0.0000 27.0999 0.0000 0.0000
# 5 0.0000 0.0000 0.0000 0.0000 14.1080 0.0000
# 6 0.0000 0.0000 0.0000 0.0000 0.0000 25.9542
#
#
#
# Elastic Compliance Matrix: (Units=1/GPa)
#
#
# Indices 1 2 3 4 5 6 
#
# 1 0.046811 0.000600 -0.009260 0.000000 0.000000 0.000000
# 2 0.000600 0.011591 -0.005569 0.000000 0.000000 0.000000
# 3 -0.009260 -0.005569 0.010811 0.000000 0.000000 0.000000
# 4 0.000000 0.000000 0.000000 0.036900 0.000000 0.000000
# 5 0.000000 0.000000 0.000000 0.000000 0.070882 0.000000
# 6 0.000000 0.000000 0.000000 0.000000 0.000000 0.038529
#
#
# Mechanical properties :
#
#
# Convention : Reuss Voigt Hill
#
# Bulk Modulus (GPa) = 24.53663 59.58764 42.06214
# Shear Modulus (GPa) = 19.41236 25.94186 22.67711
#
# Velocity S-wave (km/s) = 3.22511 3.72825 3.48577
# Velocity P-wave (km/s) = 5.19763 7.10357 6.22399
#
# Compressibility (1/GPa) = 0.04075539
#
# Stress axis : x y z
#
# Youngs Moduli (GPa) = 21.36231 86.27538 92.49901
#
# Poissons Ratio (x) = -0.05180 0.85656
# Poissons Ratio (y) = -0.01283 0.51514
# Poissons Ratio (z) = 0.19782 0.48048
#
# Static dielectric constant tensor:
#      x y z
#    x 1.634340 0.000000 0.000000 
#    y 0.000000 1.627350 0.000000 
#    z 0.000000 0.000000 1.633090 
# 
# From -- ./inp_files/16540.got.cif
#   From: 2010.05.17/outbox.cif.g08.bks.cpg/sg65_9_cif.got.tgz:16540.got - 2010.06.03 17:01:31.
