data_PCOD9493291
_publ_section_title
;
Structure prediction by ZEFSAII (Michael W. Deem and Ramdas Pophale) SiO2 
 PCOD9493291
Probable space group: C M M M
;
_chemical_formula_sum "Si O2"
_cell_formula_units_Z 72
_cell_length_a 16.813350
_cell_length_b 24.505127
_cell_length_c 10.649943
_cell_angle_alpha 90.000000
_cell_angle_beta 90.000000
_cell_angle_gamma 90.000000
_cell_volume 4387.917916
_symmetry_space_group_name_H-M "C M M M"
_symmetry_group_IT_number 65
_symmetry_cell_setting 'orthorhombic'
loop_
_space_group_symop_operation_xyz
x,y,z
-x,-y,z
x,-y,-z
-x,y,-z
-x,-y,-z
x,y,-z
-x,y,z
x,-y,z
1/2+x,1/2+y,z
1/2-x,1/2-y,z
1/2+x,1/2-y,-z
1/2-x,1/2+y,-z
1/2-x,1/2-y,-z
1/2+x,1/2+y,-z
1/2-x,1/2+y,z
1/2+x,1/2-y,z
loop_
_atom_site_type_symbol
_atom_site_label
_atom_site_fract_x
_atom_site_fract_y
_atom_site_fract_z
Si Si1 0.412281 0.834481 0.500000
Si Si2 0.092003 0.649995 0.000000
Si Si3 0.090055 0.204740 0.500000
Si Si4 0.095655 0.500000 0.347992
Si Si5 0.905800 0.218973 0.000000
Si Si6 0.806840 0.194971 0.250163
Si Si7 0.167757 0.613676 0.740718
O O1 0.500000 0.860062 0.500000
O O2 0.417448 0.769979 0.500000
O O3 0.369476 0.852219 0.626059
O O4 0.100510 0.715308 0.000000
O O5 0.129296 0.627038 0.126078
O O6 0.000000 0.636143 0.000000
O O7 0.139241 0.192069 0.625509
O O8 0.000000 0.181899 0.500000
O O9 0.099266 0.500000 0.500000
O O10 0.143300 0.447635 0.295695
O O11 0.000000 0.500000 0.315004
O O12 0.860596 0.199534 0.125399
O O13 0.000000 0.205036 0.000000
O O14 0.750000 0.250000 0.254760
O O15 0.755440 0.139398 0.247935
#
# Coordination Sequence:
#
# PCOD9493291 Si02
#       7
#     8   8   8   8   8  16  16
#     4  11  19  32  52  78 111 153 194 229 283 348
#     4  11  21  34  54  84 119 155 192 233 285 342
#     4  11  22  34  52  83 118 150 187 238 300 359
#     4  11  24  41  59  83 116 159 205 237 279 345
#     4  11  22  38  58  85 122 160 189 226 294 369
#     4  12  21  36  56  86 117 152 194 242 292 349
#     4  12  23  36  57  81 113 157 198 242 284 329
#
# _framework density 16.408693
#
# number of rings (size 3 to 8) (size 9 to 14) (size 15 to 20)
#    0.000    0.556    5.556    4.667    0.000    4.000 
#    0.000    1.111    0.000    0.000    0.000    4.667 
#    0.000    0.000    0.000    0.000    0.000    0.000 
#
# Total GULP energy -200870.413403 kJ/mol
# GULP energy per Si atom -5579.733706 kJ/mol
# Density = 1.637135 g / cm^3
# Si number density = 16.408693 Si / 1000 Ang^3
#
#
#
# Elastic Constant Matrix: (Units=GPa)
#
#
# Indices 1 2 3 4 5 6 
#
# 1 140.7631 68.5751 94.7927 0.0000 0.0000 0.0000
# 2 68.5751 85.2286 38.9620 0.0000 0.0000 0.0000
# 3 94.7927 38.9620 184.1980 0.0000 0.0000 0.0000
# 4 0.0000 0.0000 0.0000 -3.5323 0.0000 0.0000
# 5 0.0000 0.0000 0.0000 0.0000 -15.0782 0.0000
# 6 0.0000 0.0000 0.0000 0.0000 0.0000 20.9983
#
#
#
# Elastic Compliance Matrix: (Units=1/GPa)
#
#
# Indices 1 2 3 4 5 6 
#
# 1 0.016288 -0.010266 -0.006211 0.000000 0.000000 0.000000
# 2 -0.010266 0.019460 0.001167 0.000000 0.000000 0.000000
# 3 -0.006211 0.001167 0.008378 0.000000 0.000000 0.000000
# 4 0.000000 0.000000 0.000000 -0.283103 0.000000 0.000000
# 5 0.000000 0.000000 0.000000 0.000000 -0.066321 0.000000
# 6 0.000000 0.000000 0.000000 0.000000 0.000000 0.047623
#
#
# Mechanical properties :
#
#
# Convention : Reuss Voigt Hill
#
# Bulk Modulus (GPa) = 74.03866 90.53879 82.28873
# Shear Modulus (GPa) = -22.46643 14.33488 -4.06577
#
# Velocity S-wave (km/s) = -3.70426 2.95890 -1.57582
# Velocity P-wave (km/s) = 5.18886 8.18356 6.85182
#
# Compressibility (1/GPa) = 0.01350646
#
# Stress axis : x y z
#
# Youngs Moduli (GPa) = 61.39611 51.38825 119.35742
#
# Poissons Ratio (x) = 0.52755 0.74127
# Poissons Ratio (y) = 0.63029 -0.13928
# Poissons Ratio (z) = 0.38130 -0.05997
#
# Static dielectric constant tensor:
#      x y z
#    x 1.594420 0.000000 0.000000 
#    y 0.000000 1.554450 0.000000 
#    z 0.000000 0.000000 1.559000 
# 
# From -- ./inp_files/9355.got.cif
#   From: 2010.05.17/outbox.cif.g08.bks.cpg/sg65_5_cif.got.tgz:9355.got - 2010.06.03 17:01:31.
