data_PCOD9493097
_publ_section_title
;
Structure prediction by ZEFSAII (Michael W. Deem and Ramdas Pophale) SiO2 
 PCOD9493097
Probable space group: C M M M
;
_chemical_formula_sum "Si O2"
_cell_formula_units_Z 64
_cell_length_a 34.126911
_cell_length_b 8.528261
_cell_length_c 11.266938
_cell_angle_alpha 90.000000
_cell_angle_beta 90.000000
_cell_angle_gamma 90.000000
_cell_volume 3279.165736
_symmetry_space_group_name_H-M "C M M M"
_symmetry_group_IT_number 65
_symmetry_cell_setting 'orthorhombic'
loop_
_space_group_symop_operation_xyz
x,y,z
-x,-y,z
x,-y,-z
-x,y,-z
-x,-y,-z
x,y,-z
-x,y,z
x,-y,z
1/2+x,1/2+y,z
1/2-x,1/2-y,z
1/2+x,1/2-y,-z
1/2-x,1/2+y,-z
1/2-x,1/2-y,-z
1/2+x,1/2+y,-z
1/2-x,1/2+y,z
1/2+x,1/2-y,z
loop_
_atom_site_type_symbol
_atom_site_label
_atom_site_fract_x
_atom_site_fract_y
_atom_site_fract_z
Si Si1 0.546901 0.687253 0.000000
Si Si2 0.423108 0.185493 0.243565
Si Si3 0.793879 0.310801 0.500000
Si Si4 0.705071 0.311540 0.000000
Si Si5 0.166652 0.690627 0.248837
Si Si6 0.500000 0.312998 0.631181
O O1 0.566492 0.768834 0.110696
O O2 0.553335 0.500000 0.000000
O O3 0.500000 0.711878 0.000000
O O4 0.378748 0.239160 0.265110
O O5 0.459302 0.259740 0.312768
O O6 0.424099 0.000000 0.263122
O O7 0.795536 0.500000 0.500000
O O8 0.750000 0.250000 0.500000
O O9 0.812542 0.261202 0.372831
O O10 0.750000 0.250000 0.000000
O O11 0.684440 0.254241 0.876179
O O12 0.704888 0.500000 0.000000
O O13 0.168374 0.500000 0.240522
O O14 0.500000 0.500000 0.633437
O O15 0.500000 0.248602 0.500000
#
# Coordination Sequence:
#
# PCOD9493097 Si02
#       6
#     8  16   8   8  16   8
#     4  11  22  37  58  84 122 161 198 249 310 363
#     4  11  23  39  64  92 121 159 209 259 307 366
#     4  10  22  42  66  93 126 161 201 250 309 374
#     4  12  25  42  67  96 129 168 211 257 315 379
#     4  10  23  42  65  95 130 164 207 262 316 373
#     4  11  25  42  59  84 123 167 209 257 308 365
#
# _framework density 19.517158999999999
#
# number of rings (size 3 to 8) (size 9 to 14) (size 15 to 20)
#    0.000    1.250    1.250    4.125    1.750    9.500 
#    0.000    0.000    0.000    0.000    0.000    0.000 
#    0.000    0.000    0.000    0.000    0.000    0.000 
#
# Total GULP energy -178570.300152 kJ/mol
# GULP energy per Si atom -5580.321880 kJ/mol
# Density = 1.947274 g / cm^3
# Si number density = 19.517159 Si / 1000 Ang^3
#
#
#
# Elastic Constant Matrix: (Units=GPa)
#
#
# Indices 1 2 3 4 5 6 
#
# 1 185.2576 24.0707 102.1119 0.0000 0.0000 0.0000
# 2 24.0707 23.4990 16.1477 0.0000 0.0000 0.0000
# 3 102.1119 16.1477 188.7041 0.0000 0.0000 0.0000
# 4 0.0000 0.0000 0.0000 25.6951 0.0000 0.0000
# 5 0.0000 0.0000 0.0000 0.0000 20.5399 0.0000
# 6 0.0000 0.0000 0.0000 0.0000 0.0000 27.4093
#
#
#
# Elastic Compliance Matrix: (Units=1/GPa)
#
#
# Indices 1 2 3 4 5 6 
#
# 1 0.008377 -0.005807 -0.004036 0.000000 0.000000 0.000000
# 2 -0.005807 0.049240 -0.001071 0.000000 0.000000 0.000000
# 3 -0.004036 -0.001071 0.007575 0.000000 0.000000 0.000000
# 4 0.000000 0.000000 0.000000 0.038918 0.000000 0.000000
# 5 0.000000 0.000000 0.000000 0.000000 0.048686 0.000000
# 6 0.000000 0.000000 0.000000 0.000000 0.000000 0.036484
#
#
# Mechanical properties :
#
#
# Convention : Reuss Voigt Hill
#
# Bulk Modulus (GPa) = 23.06123 75.79124 49.42624
# Shear Modulus (GPa) = 22.16678 31.73755 26.95216
#
# Velocity S-wave (km/s) = 3.37376 4.03691 3.72014
# Velocity P-wave (km/s) = 5.19787 7.78757 6.62058
#
# Compressibility (1/GPa) = 0.04336282
#
# Stress axis : x y z
#
# Youngs Moduli (GPa) = 119.37313 20.30878 132.01402
#
# Poissons Ratio (x) = 0.11794 0.53282
# Poissons Ratio (y) = 0.69326 0.14138
# Poissons Ratio (z) = 0.48180 0.02175
#
# Static dielectric constant tensor:
#      x y z
#    x 1.614940 0.000000 0.000000 
#    y 0.000000 1.667870 0.000000 
#    z 0.000000 0.000000 1.674050 
# 
# From -- ./inp_files/33282.got.cif
#   From: 2010.05.17/outbox.cif.g08.bks.cpg/sg65_17_cif.got.tgz:33282.got - 2010.06.03 17:01:31.
