data_PCOD9493573
_publ_section_title
;
Structure prediction by ZEFSAII (Michael W. Deem and Ramdas Pophale) SiO2 
 PCOD9493573
Probable space group: C M M M
;
_chemical_formula_sum "Si O2"
_cell_formula_units_Z 112
_cell_length_a 17.490989
_cell_length_b 26.176854
_cell_length_c 13.984121
_cell_angle_alpha 90.000000
_cell_angle_beta 90.000000
_cell_angle_gamma 90.000000
_cell_volume 6402.756571
_symmetry_space_group_name_H-M "C M M M"
_symmetry_group_IT_number 65
_symmetry_cell_setting 'orthorhombic'
loop_
_space_group_symop_operation_xyz
x,y,z
-x,-y,z
x,-y,-z
-x,y,-z
-x,-y,-z
x,y,-z
-x,y,z
x,-y,z
1/2+x,1/2+y,z
1/2-x,1/2-y,z
1/2+x,1/2-y,-z
1/2-x,1/2+y,-z
1/2-x,1/2-y,-z
1/2+x,1/2+y,-z
1/2-x,1/2+y,z
1/2+x,1/2-y,z
loop_
_atom_site_type_symbol
_atom_site_label
_atom_site_fract_x
_atom_site_fract_y
_atom_site_fract_z
Si Si1 0.851438 0.700062 0.889590
Si Si2 0.267049 0.054941 0.762667
Si Si3 0.416324 0.732963 0.733784
Si Si4 0.387150 0.055581 0.614239
Si Si5 0.412968 0.914364 0.112247
Si Si6 0.877764 0.668093 0.385913
Si Si7 0.270824 0.665165 0.739646
O O1 0.899746 0.743928 0.838663
O O2 0.897859 0.646591 0.881490
O O3 0.774753 0.691756 0.827313
O O4 0.835526 0.709682 0.000000
O O5 0.301355 0.054302 0.655489
O O6 0.344494 0.061245 0.826537
O O7 0.218572 0.106261 0.770768
O O8 0.231577 0.000000 0.784535
O O9 0.500000 0.709586 0.727238
O O10 0.412679 0.782617 0.664999
O O11 0.347268 0.694571 0.713399
O O12 0.391381 0.055862 0.500000
O O13 0.413433 0.112747 0.643575
O O14 0.419359 0.000000 0.645318
O O15 0.500000 0.926668 0.142388
O O16 0.405640 0.928417 0.000000
O O17 0.881914 0.672293 0.500000
O O18 0.790752 0.667043 0.346462
#
# Coordination Sequence:
#
# PCOD9493573 Si02
#       7
#    16  16  16  16  16  16  16
#     4   9  17  31  50  69  92 123 155 186 224 274
#     4   9  17  30  48  66  86 117 155 192 230 274
#     4  11  22  32  45  68  96 123 153 194 242 285
#     4   8  14  26  45  68  91 115 148 188 220 248
#     4   9  17  28  43  67  98 126 151 181 219 267
#     4   9  17  31  51  71  94 126 159 189 224 270
#     4   9  19  33  48  69  93 118 153 195 236 279
#
# _framework density 17.492464999999999
#
# number of rings (size 3 to 8) (size 9 to 14) (size 15 to 20)
#    0.000    2.857    0.000    3.000    0.000    4.000 
#    0.000    0.714    0.000    3.000    0.000    6.000 
#    0.000    0.000    0.000   32.857    0.000    0.143 
#
# Total GULP energy -311817.761818 kJ/mol
# GULP energy per Si atom -5568.174318 kJ/mol
# Density = 1.745265 g / cm^3
# Si number density = 17.492465 Si / 1000 Ang^3
#
#
#
# Elastic Constant Matrix: (Units=GPa)
#
#
# Indices 1 2 3 4 5 6 
#
# 1 88.5082 49.4736 15.0166 0.0000 0.0000 0.0000
# 2 49.4736 112.9628 18.2786 0.0000 0.0000 0.0000
# 3 15.0166 18.2786 57.3125 0.0000 0.0000 0.0000
# 4 0.0000 0.0000 0.0000 12.6489 0.0000 0.0000
# 5 0.0000 0.0000 0.0000 0.0000 -7.8190 0.0000
# 6 0.0000 0.0000 0.0000 0.0000 0.0000 -25.5935
#
#
#
# Elastic Compliance Matrix: (Units=1/GPa)
#
#
# Indices 1 2 3 4 5 6 
#
# 1 0.015166 -0.006326 -0.001956 0.000000 0.000000 0.000000
# 2 -0.006326 0.011973 -0.002161 0.000000 0.000000 0.000000
# 3 -0.001956 -0.002161 0.018650 0.000000 0.000000 0.000000
# 4 0.000000 0.000000 0.000000 0.079059 0.000000 0.000000
# 5 0.000000 0.000000 0.000000 0.000000 -0.127893 0.000000
# 6 0.000000 0.000000 0.000000 0.000000 0.000000 -0.039072
#
#
# Mechanical properties :
#
#
# Convention : Reuss Voigt Hill
#
# Bulk Modulus (GPa) = 40.15614 47.14680 43.65147
# Shear Modulus (GPa) = -386.64563 7.58158 -189.53203
#
# Velocity S-wave (km/s) = -14.88339 2.08413 -10.42046
# Velocity P-wave (km/s) = 16.50296 5.72736 10.94407
#
# Compressibility (1/GPa) = 0.02490279
#
# Stress axis : x y z
#
# Youngs Moduli (GPa) = 65.93619 83.52428 53.61941
#
# Poissons Ratio (x) = 0.52835 0.10489
# Poissons Ratio (y) = 0.41709 0.11587
# Poissons Ratio (z) = 0.12899 0.18050
#
# Static dielectric constant tensor:
#      x y z
#    x 1.573550 0.000000 0.000000 
#    y 0.000000 1.655080 0.000000 
#    z 0.000000 0.000000 1.629180 
# 
# From -- ./inp_files/41407.got.cif
#   From: 2010.05.17/outbox.cif.g08.bks.cpg/sg65_21_cif.got.tgz:41407.got - 2010.06.03 17:01:31.
