data_PCOD9493317
_publ_section_title
;
Structure prediction by ZEFSAII (Michael W. Deem and Ramdas Pophale) SiO2 
 PCOD9493317
Probable space group: C M M M
;
_chemical_formula_sum "Si O2"
_cell_formula_units_Z 80
_cell_length_a 23.141106
_cell_length_b 10.244473
_cell_length_c 21.676977
_cell_angle_alpha 90.000000
_cell_angle_beta 90.000000
_cell_angle_gamma 90.000000
_cell_volume 5138.927026
_symmetry_space_group_name_H-M "C M M M"
_symmetry_group_IT_number 65
_symmetry_cell_setting 'orthorhombic'
loop_
_space_group_symop_operation_xyz
x,y,z
-x,-y,z
x,-y,-z
-x,y,-z
-x,-y,-z
x,y,-z
-x,y,z
x,-y,z
1/2+x,1/2+y,z
1/2-x,1/2-y,z
1/2+x,1/2-y,-z
1/2-x,1/2+y,-z
1/2-x,1/2-y,-z
1/2+x,1/2+y,-z
1/2-x,1/2+y,z
1/2+x,1/2-y,z
loop_
_atom_site_type_symbol
_atom_site_label
_atom_site_fract_x
_atom_site_fract_y
_atom_site_fract_z
Si Si1 0.326517 0.000000 0.572920
Si Si2 0.000000 0.848341 0.573648
Si Si3 0.429483 0.848242 0.000000
Si Si4 0.688006 0.500000 0.427250
Si Si5 0.068116 0.155821 0.248468
Si Si6 0.619922 0.258615 0.629373
Si Si7 0.929864 0.851283 0.105923
O O1 0.352489 0.125775 0.606141
O O2 0.341449 0.000000 0.500000
O O3 0.257067 0.000000 0.577010
O O4 0.942529 0.781438 0.598483
O O5 0.000000 0.846744 0.500000
O O6 0.000000 0.000000 0.594407
O O7 0.411151 0.761875 0.940804
O O8 0.500000 0.850912 0.000000
O O9 0.410670 0.000000 0.000000
O O10 0.671848 0.500000 0.500000
O O11 0.660739 0.625471 0.394671
O O12 0.107343 0.229298 0.297880
O O13 0.084821 0.176670 0.177179
O O14 0.000000 0.190482 0.255802
O O15 0.072363 0.000000 0.260416
O O16 0.000000 0.854596 0.103370
O O17 0.910864 0.000000 0.089939
#
# Coordination Sequence:
#
# PCOD9493317 Si02
#       7
#     8   8   8   8  16  16  16
#     4  11  26  41  51  73 103 131 167 212 268 317
#     4  11  20  31  53  79  97 124 167 210 254 302
#     4   9  15  23  35  59  89 127 168 199 224 268
#     4  11  22  39  61  75  91 129 175 216 256 309
#     4   9  16  30  49  72  95 126 167 207 247 298
#     4  12  21  36  56  76 101 130 165 213 259 310
#     4   8  14  24  41  60  87 122 163 202 235 275
#
# _framework density 15.567453
#
# number of rings (size 3 to 8) (size 9 to 14) (size 15 to 20)
#    0.000    2.000    3.000    3.900    0.000    3.200 
#    1.800    1.000    0.000    0.000    0.000    0.000 
#    0.000    0.000    0.000    5.400    0.000    0.700 
#
# Total GULP energy -223057.334658 kJ/mol
# GULP energy per Si atom -5576.433366 kJ/mol
# Density = 1.553202 g / cm^3
# Si number density = 15.567453 Si / 1000 Ang^3
#
#
#
# Elastic Constant Matrix: (Units=GPa)
#
#
# Indices 1 2 3 4 5 6 
#
# 1 48.2663 39.7265 31.8072 0.0000 0.0000 0.0000
# 2 39.7265 142.0864 82.0274 0.0000 0.0000 0.0000
# 3 31.8072 82.0274 132.2189 0.0000 0.0000 0.0000
# 4 0.0000 0.0000 0.0000 21.6444 0.0000 0.0000
# 5 0.0000 0.0000 0.0000 0.0000 3.2547 0.0000
# 6 0.0000 0.0000 0.0000 0.0000 0.0000 -100.6600
#
#
#
# Elastic Compliance Matrix: (Units=1/GPa)
#
#
# Indices 1 2 3 4 5 6 
#
# 1 0.027600 -0.006051 -0.002886 0.000000 0.000000 0.000000
# 2 -0.006051 0.012292 -0.006170 0.000000 0.000000 0.000000
# 3 -0.002886 -0.006170 0.012085 0.000000 0.000000 0.000000
# 4 0.000000 0.000000 0.000000 0.046201 0.000000 0.000000
# 5 0.000000 0.000000 0.000000 0.000000 0.307248 0.000000
# 6 0.000000 0.000000 0.000000 0.000000 0.000000 -0.009934
#
#
# Mechanical properties :
#
#
# Convention : Reuss Voigt Hill
#
# Bulk Modulus (GPa) = 45.94751 69.96599 57.95675
# Shear Modulus (GPa) = 11.54840 -3.88481 3.83180
#
# Velocity S-wave (km/s) = 2.72661 -1.58142 1.57059
# Velocity P-wave (km/s) = 6.28424 6.45808 6.37176
#
# Compressibility (1/GPa) = 0.02176397
#
# Stress axis : x y z
#
# Youngs Moduli (GPa) = 36.23137 81.35493 82.74523
#
# Poissons Ratio (x) = 0.49227 0.23878
# Poissons Ratio (y) = 0.21923 0.51055
# Poissons Ratio (z) = 0.10455 0.50197
#
# Static dielectric constant tensor:
#      x y z
#    x 1.484380 0.000000 0.000000 
#    y 0.000000 1.537910 0.000000 
#    z 0.000000 0.000000 1.541180 
# 
# From -- ./inp_files/70901.got.cif
#   From: 2010.05.17/outbox.cif.g08.bks.cpg/sg65_36_cif.got.tgz:70901.got - 2010.06.03 17:01:31.
