data_PCOD9493775
_publ_section_title
;
Structure prediction by ZEFSAII (Michael W. Deem and Ramdas Pophale) SiO2 
 PCOD9493775
Probable space group: C M M M
;
_chemical_formula_sum "Si O2"
_cell_formula_units_Z 72
_cell_length_a 14.707209
_cell_length_b 8.336263
_cell_length_c 27.266184
_cell_angle_alpha 90.000000
_cell_angle_beta 90.000000
_cell_angle_gamma 90.000000
_cell_volume 3342.920380
_symmetry_space_group_name_H-M "C M M M"
_symmetry_group_IT_number 65
_symmetry_cell_setting 'orthorhombic'
loop_
_space_group_symop_operation_xyz
x,y,z
-x,-y,z
x,-y,-z
-x,y,-z
-x,-y,-z
x,y,-z
-x,y,z
x,-y,z
1/2+x,1/2+y,z
1/2-x,1/2-y,z
1/2+x,1/2-y,-z
1/2-x,1/2+y,-z
1/2-x,1/2-y,-z
1/2+x,1/2+y,-z
1/2-x,1/2+y,z
1/2+x,1/2-y,z
loop_
_atom_site_type_symbol
_atom_site_label
_atom_site_fract_x
_atom_site_fract_y
_atom_site_fract_z
Si Si1 0.855036 0.807483 0.735525
Si Si2 0.500000 0.691402 0.444326
Si Si3 0.644633 0.305515 0.052859
Si Si4 0.146496 0.689892 0.631276
Si Si5 0.355273 0.305664 0.158547
O O1 0.750000 0.750000 0.735848
O O2 0.892306 0.744483 0.684191
O O3 0.893559 0.753851 0.788508
O O4 0.858273 0.000000 0.733875
O O5 0.500000 0.500000 0.446218
O O6 0.500000 0.754193 0.500000
O O7 0.586825 0.746072 0.413202
O O8 0.641107 0.500000 0.052866
O O9 0.750000 0.250000 0.052850
O O10 0.606320 0.251798 0.105719
O O11 0.606361 0.251702 0.000000
O O12 0.146530 0.500000 0.630504
O O13 0.250000 0.750000 0.627583
O O14 0.358393 0.500000 0.158639
O O15 0.250000 0.250000 0.158465
#
# Coordination Sequence:
#
# PCOD9493775 Si02
#       5
#    16   8  16  16  16
#     4   9  15  25  42  65  94 128 170 218 268 321
#     4  11  25  45  67  91 119 151 188 229 274 325
#     4   8  12  17  24  36  59  95 141 192 246 303
#     4  11  22  38  61  88 119 154 192 233 279 330
#     4   8  13  19  29  47  72 106 150 201 254 308
#
# _framework density 21.538055
#
# number of rings (size 3 to 8) (size 9 to 14) (size 15 to 20)
#    0.000    2.778    0.000    4.333    0.000    2.222 
#    0.000    0.000    0.000    0.000    0.000    0.000 
#    0.000    0.000    0.000    1.000    0.000   26.000 
#
# Total GULP energy -200629.494095 kJ/mol
# GULP energy per Si atom -5573.041503 kJ/mol
# Density = 2.148903 g / cm^3
# Si number density = 21.538055 Si / 1000 Ang^3
#
#
#
# Elastic Constant Matrix: (Units=GPa)
#
#
# Indices 1 2 3 4 5 6 
#
# 1 89.7793 9.2965 61.4508 0.0000 0.0000 0.0000
# 2 9.2965 60.4929 46.3220 0.0000 0.0000 0.0000
# 3 61.4508 46.3220 301.2134 0.0000 0.0000 0.0000
# 4 0.0000 0.0000 0.0000 24.2126 0.0000 0.0000
# 5 0.0000 0.0000 0.0000 0.0000 205.8102 0.0000
# 6 0.0000 0.0000 0.0000 0.0000 0.0000 5.1997
#
#
#
# Elastic Compliance Matrix: (Units=1/GPa)
#
#
# Indices 1 2 3 4 5 6 
#
# 1 0.012946 0.000037 -0.002647 0.000000 0.000000 0.000000
# 2 0.000037 0.018737 -0.002889 0.000000 0.000000 0.000000
# 3 -0.002647 -0.002889 0.004304 0.000000 0.000000 0.000000
# 4 0.000000 0.000000 0.000000 0.041301 0.000000 0.000000
# 5 0.000000 0.000000 0.000000 0.000000 0.004859 0.000000
# 6 0.000000 0.000000 0.000000 0.000000 0.000000 0.192320
#
#
# Mechanical properties :
#
#
# Convention : Reuss Voigt Hill
#
# Bulk Modulus (GPa) = 40.01537 76.18046 58.09792
# Shear Modulus (GPa) = 17.01864 69.33891 43.17877
#
# Velocity S-wave (km/s) = 2.81404 5.68010 4.48232
# Velocity P-wave (km/s) = 5.40164 8.85805 7.33630
#
# Compressibility (1/GPa) = 0.02499040
#
# Stress axis : x y z
#
# Youngs Moduli (GPa) = 77.24219 53.36902 232.33069
#
# Poissons Ratio (x) = -0.00199 0.61496
# Poissons Ratio (y) = -0.00288 0.67123
# Poissons Ratio (z) = 0.20445 0.15419
#
# Static dielectric constant tensor:
#      x y z
#    x 0.980220 0.000000 0.000000 
#    y 0.000000 1.721130 0.000000 
#    z 0.000000 0.000000 1.864910 
# 
# From -- ./inp_files/72555.got.cif
#   From: 2010.05.17/outbox.cif.g08.bks.cpg/sg65_37_cif.got.tgz:72555.got - 2010.06.03 17:01:31.
