data_PCOD9493869
_publ_section_title
;
Structure prediction by ZEFSAII (Michael W. Deem and Ramdas Pophale) SiO2 
 PCOD9493869
Probable space group: C M M M
;
_chemical_formula_sum "Si O2"
_cell_formula_units_Z 88
_cell_length_a 19.260445
_cell_length_b 28.673231
_cell_length_c 7.329018
_cell_angle_alpha 90.000000
_cell_angle_beta 90.000000
_cell_angle_gamma 90.000000
_cell_volume 4047.517534
_symmetry_space_group_name_H-M "C M M M"
_symmetry_group_IT_number 65
_symmetry_cell_setting 'orthorhombic'
loop_
_space_group_symop_operation_xyz
x,y,z
-x,-y,z
x,-y,-z
-x,y,-z
-x,-y,-z
x,y,-z
-x,y,z
x,-y,z
1/2+x,1/2+y,z
1/2-x,1/2-y,z
1/2+x,1/2-y,-z
1/2-x,1/2+y,-z
1/2-x,1/2-y,-z
1/2+x,1/2+y,-z
1/2-x,1/2+y,z
1/2+x,1/2-y,z
loop_
_atom_site_type_symbol
_atom_site_label
_atom_site_fract_x
_atom_site_fract_y
_atom_site_fract_z
Si Si1 0.576638 0.500000 0.783200
Si Si2 0.303384 0.318713 0.721744
Si Si3 0.334986 0.051502 0.277447
Si Si4 0.922921 0.748289 0.722602
Si Si5 0.353662 0.843964 0.278523
Si Si6 0.816916 0.920630 0.712732
O O1 0.500000 0.500000 0.706528
O O2 0.619875 0.544991 0.729590
O O3 0.572973 0.500000 0.000000
O O4 0.301896 0.314000 0.500000
O O5 0.357076 0.279271 0.783924
O O6 0.222315 0.323325 0.776110
O O7 0.332125 0.369117 0.781531
O O8 0.338753 0.050608 0.500000
O O9 0.364917 0.102208 0.220216
O O10 0.254213 0.056500 0.217892
O O11 0.360846 0.000000 0.218209
O O12 0.922387 0.749946 0.500000
O O13 0.909094 0.694723 0.776204
O O14 0.000000 0.763895 0.780016
O O15 0.352520 0.845461 0.500000
O O16 0.801667 0.913552 0.500000
#
# Coordination Sequence:
#
# PCOD9493869 Si02
#       6
#     8  16  16  16  16  16
#     4  11  23  33  39  53  83 117 138 159 202 254
#     4   8  14  23  37  55  72  94 131 175 209 237
#     4   8  12  20  37  57  73  90 123 171 208 231
#     4   9  15  21  29  45  75 109 133 158 202 256
#     4   8  13  20  31  48  71 100 130 164 207 247
#     4   9  16  28  45  61  75  98 139 181 206 231
#
# _framework density 21.741720999999998
#
# number of rings (size 3 to 8) (size 9 to 14) (size 15 to 20)
#    0.000    3.364    0.909    3.000    0.000    3.636 
#    0.000    1.818    0.000    0.545    0.000    3.818 
#    0.000   11.636    0.000    1.455    0.000   17.455 
#
# Total GULP energy -245065.688979 kJ/mol
# GULP energy per Si atom -5569.674750 kJ/mol
# Density = 2.169224 g / cm^3
# Si number density = 21.741721 Si / 1000 Ang^3
#
#
#
# Elastic Constant Matrix: (Units=GPa)
#
#
# Indices 1 2 3 4 5 6 
#
# 1 25.9243 23.2631 -3.9205 0.0000 0.0000 0.0000
# 2 23.2631 144.8742 2.3834 0.0000 0.0000 0.0000
# 3 -3.9205 2.3834 76.7615 0.0000 0.0000 0.0000
# 4 0.0000 0.0000 0.0000 -88.0382 0.0000 0.0000
# 5 0.0000 0.0000 0.0000 0.0000 14.5735 0.0000
# 6 0.0000 0.0000 0.0000 0.0000 0.0000 18.0279
#
#
#
# Elastic Compliance Matrix: (Units=1/GPa)
#
#
# Indices 1 2 3 4 5 6 
#
# 1 0.045563 -0.007358 0.002556 0.000000 0.000000 0.000000
# 2 -0.007358 0.008094 -0.000627 0.000000 0.000000 0.000000
# 3 0.002556 -0.000627 0.013177 0.000000 0.000000 0.000000
# 4 0.000000 0.000000 0.000000 -0.011359 0.000000 0.000000
# 5 0.000000 0.000000 0.000000 0.000000 0.068618 0.000000
# 6 0.000000 0.000000 0.000000 0.000000 0.000000 0.055470
#
#
# Mechanical properties :
#
#
# Convention : Reuss Voigt Hill
#
# Bulk Modulus (GPa) = 17.86503 32.33465 25.09984
# Shear Modulus (GPa) = 23.91409 3.96825 13.94117
#
# Velocity S-wave (km/s) = 3.32010 1.35246 2.53497
# Velocity P-wave (km/s) = 4.78875 4.16453 4.48751
#
# Compressibility (1/GPa) = 0.05597527
#
# Stress axis : x y z
#
# Youngs Moduli (GPa) = 21.94750 123.54196 75.88771
#
# Poissons Ratio (x) = 0.90906 -0.19394
# Poissons Ratio (y) = 0.16150 0.04759
# Poissons Ratio (z) = -0.05609 0.07748
#
# Static dielectric constant tensor:
#      x y z
#    x 1.754260 0.000000 0.000000 
#    y 0.000000 1.804250 0.000000 
#    z 0.000000 0.000000 1.851250 
# 
# From -- ./inp_files/10058.got.cif
#   From: 2010.05.17/outbox.cif.g08.bks.cpg/sg65_6_cif.got.tgz:10058.got - 2010.06.03 17:01:31.
