data_PCOD9493147
_publ_section_title
;
Structure prediction by ZEFSAII (Michael W. Deem and Ramdas Pophale) SiO2 
 PCOD9493147
Probable space group: C M M M
;
_chemical_formula_sum "Si O2"
_cell_formula_units_Z 100
_cell_length_a 20.279171
_cell_length_b 7.690935
_cell_length_c 31.768316
_cell_angle_alpha 90.000000
_cell_angle_beta 90.000000
_cell_angle_gamma 90.000000
_cell_volume 4954.770375
_symmetry_space_group_name_H-M "C M M M"
_symmetry_group_IT_number 65
_symmetry_cell_setting 'orthorhombic'
loop_
_space_group_symop_operation_xyz
x,y,z
-x,-y,z
x,-y,-z
-x,y,-z
-x,-y,-z
x,y,-z
-x,y,z
x,-y,z
1/2+x,1/2+y,z
1/2-x,1/2-y,z
1/2+x,1/2-y,-z
1/2-x,1/2+y,-z
1/2-x,1/2-y,-z
1/2+x,1/2+y,-z
1/2-x,1/2+y,z
1/2+x,1/2-y,z
loop_
_atom_site_type_symbol
_atom_site_label
_atom_site_fract_x
_atom_site_fract_y
_atom_site_fract_z
Si Si1 0.612987 0.702640 0.752982
Si Si2 0.500000 0.000000 0.762224
Si Si3 0.924807 0.292852 0.091768
Si Si4 0.924692 0.207033 0.000000
Si Si5 0.676387 0.208176 0.162093
Si Si6 0.575584 0.292630 0.408034
Si Si7 0.575261 0.792869 0.500000
Si Si8 0.826189 0.792254 0.336611
O O1 0.590186 0.500000 0.748351
O O2 0.662022 0.710670 0.792553
O O3 0.649331 0.757039 0.709834
O O4 0.556904 0.844826 0.761748
O O5 0.929572 0.500000 0.097367
O O6 0.877652 0.226801 0.128473
O O7 0.000000 0.222120 0.093822
O O8 0.896486 0.262019 0.044957
O O9 0.000000 0.278398 0.000000
O O10 0.927282 0.000000 0.000000
O O11 0.750000 0.250000 0.147756
O O12 0.669858 0.000000 0.165691
O O13 0.500000 0.222957 0.405553
O O14 0.570760 0.500000 0.402512
O O15 0.603355 0.262159 0.455028
O O16 0.623853 0.221683 0.372146
O O17 0.500000 0.721909 0.500000
O O18 0.572836 0.000000 0.500000
O O19 0.750000 0.750000 0.343862
O O20 0.831039 0.000000 0.338421
#
# Coordination Sequence:
#
# PCOD9493147 Si02
#       8
#    16   4  16   8  16  16   8  16
#     4  11  25  44  67  95 131 167 206 259 311 370
#     4  12  26  44  68 102 128 158 216 256 316 366
#     4   9  19  35  59  84 116 155 201 254 310 371
#     4   9  17  31  52  83 118 149 191 247 312 377
#     4  11  23  40  63  90 124 167 213 256 311 380
#     4   9  18  35  58  82 113 153 197 246 303 366
#     4   9  17  31  50  83 116 145 187 243 306 365
#     4  10  23  40  61  88 120 162 208 249 305 372
#
# _framework density 20.182569999999998
#
# number of rings (size 3 to 8) (size 9 to 14) (size 15 to 20)
#    0.000    2.080    0.800    1.680    3.360    5.120 
#    0.000    0.800    0.000    0.000    0.000    0.000 
#    0.000    0.000    0.000    0.000    0.000    0.000 
#
# Total GULP energy -278410.810369 kJ/mol
# GULP energy per Si atom -5568.216207 kJ/mol
# Density = 2.013663 g / cm^3
# Si number density = 20.182570 Si / 1000 Ang^3
#
#
#
# Elastic Constant Matrix: (Units=GPa)
#
#
# Indices 1 2 3 4 5 6 
#
# 1 95.5884 13.6394 56.2315 0.0000 0.0000 0.0000
# 2 13.6394 70.9519 0.4812 0.0000 0.0000 0.0000
# 3 56.2315 0.4812 159.8664 0.0000 0.0000 0.0000
# 4 0.0000 0.0000 0.0000 14.6925 0.0000 0.0000
# 5 0.0000 0.0000 0.0000 0.0000 153.3627 0.0000
# 6 0.0000 0.0000 0.0000 0.0000 0.0000 27.8111
#
#
#
# Elastic Compliance Matrix: (Units=1/GPa)
#
#
# Indices 1 2 3 4 5 6 
#
# 1 0.013651 -0.002592 -0.004794 0.000000 0.000000 0.000000
# 2 -0.002592 0.014586 0.000868 0.000000 0.000000 0.000000
# 3 -0.004794 0.000868 0.007939 0.000000 0.000000 0.000000
# 4 0.000000 0.000000 0.000000 0.068062 0.000000 0.000000
# 5 0.000000 0.000000 0.000000 0.000000 0.006520 0.000000
# 6 0.000000 0.000000 0.000000 0.000000 0.000000 0.035957
#
#
# Mechanical properties :
#
#
# Convention : Reuss Voigt Hill
#
# Bulk Modulus (GPa) = 43.21393 51.90119 47.55756
# Shear Modulus (GPa) = 29.85688 56.24357 43.05022
#
# Velocity S-wave (km/s) = 3.85039 5.28468 4.62349
# Velocity P-wave (km/s) = 6.42070 7.93781 7.21922
#
# Compressibility (1/GPa) = 0.02314069
#
# Stress axis : x y z
#
# Youngs Moduli (GPa) = 73.25214 68.55704 125.96283
#
# Poissons Ratio (x) = 0.17768 0.60386
# Poissons Ratio (y) = 0.18985 -0.10930
# Poissons Ratio (z) = 0.35117 -0.05949
#
# Static dielectric constant tensor:
#      x y z
#    x 1.701630 0.000000 0.000000 
#    y 0.000000 1.741420 0.000000 
#    z 0.000000 0.000000 1.736120 
# 
# From -- ./inp_files/75551.got.cif
#   From: 2010.05.17/outbox.cif.g08.bks.cpg/sg65_38_cif.got.tgz:75551.got - 2010.06.03 17:01:31.
