data_PCOD9493789
_publ_section_title
;
Structure prediction by ZEFSAII (Michael W. Deem and Ramdas Pophale) SiO2 
 PCOD9493789
Probable space group: C M M M
;
_chemical_formula_sum "Si O2"
_cell_formula_units_Z 72
_cell_length_a 7.711863
_cell_length_b 16.113326
_cell_length_c 26.469382
_cell_angle_alpha 90.000000
_cell_angle_beta 90.000000
_cell_angle_gamma 90.000000
_cell_volume 3289.185001
_symmetry_space_group_name_H-M "C M M M"
_symmetry_group_IT_number 65
_symmetry_cell_setting 'orthorhombic'
loop_
_space_group_symop_operation_xyz
x,y,z
-x,-y,z
x,-y,-z
-x,y,-z
-x,-y,-z
x,y,-z
-x,y,z
x,-y,z
1/2+x,1/2+y,z
1/2-x,1/2-y,z
1/2+x,1/2-y,-z
1/2-x,1/2+y,-z
1/2-x,1/2-y,-z
1/2+x,1/2+y,-z
1/2-x,1/2+y,z
1/2+x,1/2-y,z
loop_
_atom_site_type_symbol
_atom_site_label
_atom_site_fract_x
_atom_site_fract_y
_atom_site_fract_z
Si Si1 0.204345 0.159239 0.876700
Si Si2 0.791086 0.152553 0.554359
Si Si3 0.205190 0.500000 0.056567
Si Si4 0.299795 0.599544 0.662097
Si Si5 0.287690 0.597522 0.229264
O O1 0.250000 0.250000 0.896779
O O2 0.249356 0.082564 0.912444
O O3 0.277858 0.145033 0.820134
O O4 0.000000 0.156867 0.870709
O O5 0.727888 0.118284 0.500000
O O6 0.750000 0.250000 0.553919
O O7 0.720337 0.120230 0.607757
O O8 0.000000 0.139374 0.554600
O O9 0.000000 0.500000 0.052029
O O10 0.281702 0.500000 0.000000
O O11 0.500000 0.629714 0.660337
O O12 0.304292 0.500000 0.666006
O O13 0.224025 0.628430 0.715831
O O14 0.500000 0.600686 0.231273
O O15 0.243213 0.500000 0.222885
#
# Coordination Sequence:
#
# PCOD9493789 Si02
#       5
#    16  16   8  16  16
#     4  11  22  38  62  92 123 158 199 241 288 345
#     4   9  17  28  42  62  89 124 165 210 261 314
#     4  11  25  45  67  91 121 157 196 241 290 338
#     4   8  14  25  44  70  97 127 166 215 265 314
#     4   8  14  28  50  76 106 141 179 221 277 336
#
# _framework density 21.889921999999999
#
# number of rings (size 3 to 8) (size 9 to 14) (size 15 to 20)
#    0.000    2.778    1.111    2.333    0.000    2.667 
#    0.000    2.222    0.000    2.000    0.000    3.111 
#    0.000    0.000    0.000    0.000    0.000    0.000 
#
# Total GULP energy -200656.446074 kJ/mol
# GULP energy per Si atom -5573.790169 kJ/mol
# Density = 2.184010 g / cm^3
# Si number density = 21.889922 Si / 1000 Ang^3
#
#
#
# Elastic Constant Matrix: (Units=GPa)
#
#
# Indices 1 2 3 4 5 6 
#
# 1 43.9688 2.7248 14.9642 0.0000 0.0000 0.0000
# 2 2.7248 92.7735 76.5604 0.0000 0.0000 0.0000
# 3 14.9642 76.5604 214.4905 0.0000 0.0000 0.0000
# 4 0.0000 0.0000 0.0000 -28.6834 0.0000 0.0000
# 5 0.0000 0.0000 0.0000 0.0000 -220.9848 0.0000
# 6 0.0000 0.0000 0.0000 0.0000 0.0000 15.2754
#
#
#
# Elastic Compliance Matrix: (Units=1/GPa)
#
#
# Indices 1 2 3 4 5 6 
#
# 1 0.023353 0.000934 -0.001963 0.000000 0.000000 0.000000
# 2 0.000934 0.015317 -0.005532 0.000000 0.000000 0.000000
# 3 -0.001963 -0.005532 0.006774 0.000000 0.000000 0.000000
# 4 0.000000 0.000000 0.000000 -0.034863 0.000000 0.000000
# 5 0.000000 0.000000 0.000000 0.000000 -0.004525 0.000000
# 6 0.000000 0.000000 0.000000 0.000000 0.000000 0.065465
#
#
# Mechanical properties :
#
#
# Convention : Reuss Voigt Hill
#
# Bulk Modulus (GPa) = 30.93888 59.97019 45.45453
# Shear Modulus (GPa) = 52.40143 -29.74635 11.32754
#
# Velocity S-wave (km/s) = 4.89802 -3.69033 2.27728
# Velocity P-wave (km/s) = 6.79352 3.04920 5.26544
#
# Compressibility (1/GPa) = 0.03232179
#
# Stress axis : x y z
#
# Youngs Moduli (GPa) = 42.82022 65.28646 147.62583
#
# Poissons Ratio (x) = -0.06095 0.28972
# Poissons Ratio (y) = -0.03998 0.81673
# Poissons Ratio (z) = 0.08404 0.36119
#
# Static dielectric constant tensor:
#      x y z
#    x 1.824060 0.000000 0.000000 
#    y 0.000000 1.752930 0.000000 
#    z 0.000000 0.000000 1.900340 
# 
# From -- ./inp_files/72469.got.cif
#   From: 2010.05.17/outbox.cif.g08.bks.cpg/sg65_37_cif.got.tgz:72469.got - 2010.06.03 17:01:31.
