data_PCOD9493487
_publ_section_title
;
Structure prediction by ZEFSAII (Michael W. Deem and Ramdas Pophale) SiO2 
 PCOD9493487
Probable space group: C M M M
;
_chemical_formula_sum "Si O2"
_cell_formula_units_Z 58
_cell_length_a 19.520148
_cell_length_b 10.508138
_cell_length_c 14.690396
_cell_angle_alpha 90.000000
_cell_angle_beta 90.000000
_cell_angle_gamma 90.000000
_cell_volume 3013.300035
_symmetry_space_group_name_H-M "C M M M"
_symmetry_group_IT_number 65
_symmetry_cell_setting 'orthorhombic'
loop_
_space_group_symop_operation_xyz
x,y,z
-x,-y,z
x,-y,-z
-x,y,-z
-x,-y,-z
x,y,-z
-x,y,z
x,-y,z
1/2+x,1/2+y,z
1/2-x,1/2-y,z
1/2+x,1/2-y,-z
1/2-x,1/2+y,-z
1/2-x,1/2-y,-z
1/2+x,1/2+y,-z
1/2-x,1/2+y,z
1/2+x,1/2-y,z
loop_
_atom_site_type_symbol
_atom_site_label
_atom_site_fract_x
_atom_site_fract_y
_atom_site_fract_z
Si Si1 0.712288 0.000000 0.602418
Si Si2 0.578921 0.153313 0.897838
Si Si3 0.000000 0.349123 0.600739
Si Si4 0.633210 0.500000 0.639100
Si Si5 0.636008 0.220358 0.290655
Si Si6 0.500000 0.500000 0.500000
O O1 0.689377 0.874225 0.658924
O O2 0.679883 0.000000 0.500000
O O3 0.793335 0.000000 0.589696
O O4 0.500000 0.195167 0.880101
O O5 0.627668 0.192436 0.815802
O O6 0.577533 0.000000 0.898105
O O7 0.598007 0.195497 0.000000
O O8 0.066040 0.314846 0.657476
O O9 0.000000 0.500000 0.590125
O O10 0.000000 0.285358 0.500000
O O11 0.639884 0.629514 0.695803
O O12 0.563042 0.500000 0.579517
#
# Coordination Sequence:
#
# PCOD9493487 Si02
#       6
#     8  16   8   8  16   2
#     4  12  26  45  67  92 128 177 219 270 314 383
#     4   9  17  34  63  98 130 165 215 271 323 373
#     4  11  21  34  58  95 124 164 218 262 310 357
#     4  12  30  44  64  91 134 173 220 252 340 388
#     4  12  23  41  66  95 133 169 215 276 313 384
#     4  12  28  52  60  86 134 186 204 274 312 404
#
# _framework density 19.248000000000001
#
# number of rings (size 3 to 8) (size 9 to 14) (size 15 to 20)
#    0.000    0.966    4.828    3.310    5.793    1.103 
#    0.000    0.690    0.000    6.621    0.000    0.000 
#    0.000    0.000    0.000    0.000    0.000    0.000 
#
# Total GULP energy -161486.784163 kJ/mol
# GULP energy per Si atom -5568.509799 kJ/mol
# Density = 1.920419 g / cm^3
# Si number density = 19.248000 Si / 1000 Ang^3
#
#
#
# Elastic Constant Matrix: (Units=GPa)
#
#
# Indices 1 2 3 4 5 6 
#
# 1 109.9669 25.5683 42.6902 0.0000 0.0000 0.0000
# 2 25.5683 120.7929 55.1380 0.0000 0.0000 0.0000
# 3 42.6902 55.1380 174.5094 0.0000 0.0000 0.0000
# 4 0.0000 0.0000 0.0000 4.1686 0.0000 0.0000
# 5 0.0000 0.0000 0.0000 0.0000 16.9180 0.0000
# 6 0.0000 0.0000 0.0000 0.0000 0.0000 73.7856
#
#
#
# Elastic Compliance Matrix: (Units=1/GPa)
#
#
# Indices 1 2 3 4 5 6 
#
# 1 0.010192 -0.001191 -0.002117 0.000000 0.000000 0.000000
# 2 -0.001191 0.009813 -0.002809 0.000000 0.000000 0.000000
# 3 -0.002117 -0.002809 0.007136 0.000000 0.000000 0.000000
# 4 0.000000 0.000000 0.000000 0.239887 0.000000 0.000000
# 5 0.000000 0.000000 0.000000 0.000000 0.059108 0.000000
# 6 0.000000 0.000000 0.000000 0.000000 0.000000 0.013553
#
#
# Mechanical properties :
#
#
# Convention : Reuss Voigt Hill
#
# Bulk Modulus (GPa) = 67.08371 72.45135 69.76753
# Shear Modulus (GPa) = 14.00978 37.76595 25.88787
#
# Velocity S-wave (km/s) = 2.70081 4.43433 3.67135
# Velocity P-wave (km/s) = 6.68235 7.99628 7.36866
#
# Compressibility (1/GPa) = 0.01490675
#
# Stress axis : x y z
#
# Youngs Moduli (GPa) = 98.11197 101.90521 140.13802
#
# Poissons Ratio (x) = 0.12138 0.29668
# Poissons Ratio (y) = 0.11686 0.39367
# Poissons Ratio (z) = 0.20771 0.28627
#
# Static dielectric constant tensor:
#      x y z
#    x 1.695020 0.000000 0.000000 
#    y 0.000000 1.293420 0.000000 
#    z 0.000000 0.000000 1.684420 
# 
# From -- ./inp_files/41861.got.cif
#   From: 2010.05.17/outbox.cif.g08.bks.cpg/sg65_21_cif.got.tgz:41861.got - 2010.06.03 17:01:31.
