data_PCOD9493719
_publ_section_title
;
Structure prediction by ZEFSAII (Michael W. Deem and Ramdas Pophale) SiO2 
 PCOD9493719
Probable space group: C M M M
;
_chemical_formula_sum "Si O2"
_cell_formula_units_Z 88
_cell_length_a 17.823798
_cell_length_b 8.779742
_cell_length_c 30.189492
_cell_angle_alpha 90.000000
_cell_angle_beta 90.000000
_cell_angle_gamma 90.000000
_cell_volume 4724.303727
_symmetry_space_group_name_H-M "C M M M"
_symmetry_group_IT_number 65
_symmetry_cell_setting 'orthorhombic'
loop_
_space_group_symop_operation_xyz
x,y,z
-x,-y,z
x,-y,-z
-x,y,-z
-x,-y,-z
x,y,-z
-x,y,z
x,-y,z
1/2+x,1/2+y,z
1/2-x,1/2-y,z
1/2+x,1/2-y,-z
1/2-x,1/2+y,-z
1/2-x,1/2-y,-z
1/2+x,1/2+y,-z
1/2-x,1/2+y,z
1/2+x,1/2-y,z
loop_
_atom_site_type_symbol
_atom_site_label
_atom_site_fract_x
_atom_site_fract_y
_atom_site_fract_z
Si Si1 0.590553 0.321402 0.644053
Si Si2 0.666702 0.180607 0.728573
Si Si3 0.588954 0.684814 0.452407
Si Si4 0.833238 0.819549 0.180681
Si Si5 0.912783 0.314457 0.000000
Si Si6 0.090626 0.321861 0.903540
O O1 0.500000 0.314864 0.643474
O O2 0.611413 0.500000 0.649113
O O3 0.621590 0.228687 0.685165
O O4 0.618334 0.264718 0.595577
O O5 0.750000 0.250000 0.724400
O O6 0.633574 0.249590 0.774017
O O7 0.671266 0.000000 0.732699
O O8 0.620813 0.737539 0.500000
O O9 0.500000 0.721240 0.453028
O O10 0.593607 0.500000 0.451798
O O11 0.750000 0.750000 0.176229
O O12 0.878677 0.772904 0.137253
O O13 0.828404 0.000000 0.185236
O O14 0.880934 0.268618 0.047817
O O15 0.912935 0.500000 0.000000
O O16 0.000000 0.265975 0.000000
O O17 0.111523 0.500000 0.897694
O O18 0.000000 0.315595 0.904497
#
# Coordination Sequence:
#
# PCOD9493719 Si02
#       6
#    16  16  16  16   8  16
#     4   9  17  30  50  77 106 132 162 203 246 289
#     4  11  22  37  55  72  95 129 168 207 251 303
#     4   7  10  19  39  68  99 129 160 194 235 284
#     4  11  22  37  55  74  99 130 167 208 252 300
#     4   7  12  26  50  77 104 135 167 199 238 287
#     4   9  17  32  55  81 107 135 168 204 244 290
#
# _framework density 18.627082999999999
#
# number of rings (size 3 to 8) (size 9 to 14) (size 15 to 20)
#    0.000    2.818    0.000    7.091    0.000    1.455 
#    0.000    0.909    0.000    2.727    0.000    2.545 
#    0.000    0.000    0.000    0.000    0.000    0.000 
#
# Total GULP energy -245078.970611 kJ/mol
# GULP energy per Si atom -5569.976605 kJ/mol
# Density = 1.858469 g / cm^3
# Si number density = 18.627083 Si / 1000 Ang^3
#
#
#
# Elastic Constant Matrix: (Units=GPa)
#
#
# Indices 1 2 3 4 5 6 
#
# 1 5.9875 16.2087 26.9592 0.0000 0.0000 0.0000
# 2 16.2087 103.6497 71.5780 0.0000 0.0000 0.0000
# 3 26.9592 71.5780 212.7796 0.0000 0.0000 0.0000
# 4 0.0000 0.0000 0.0000 19.6917 0.0000 0.0000
# 5 0.0000 0.0000 0.0000 0.0000 125.5365 0.0000
# 6 0.0000 0.0000 0.0000 0.0000 0.0000 13.1472
#
#
#
# Elastic Compliance Matrix: (Units=1/GPa)
#
#
# Indices 1 2 3 4 5 6 
#
# 1 0.517817 -0.046463 -0.049978 0.000000 0.000000 0.000000
# 2 -0.046463 0.016736 0.000257 0.000000 0.000000 0.000000
# 3 -0.049978 0.000257 0.010945 0.000000 0.000000 0.000000
# 4 0.000000 0.000000 0.000000 0.050783 0.000000 0.000000
# 5 0.000000 0.000000 0.000000 0.000000 0.007966 0.000000
# 6 0.000000 0.000000 0.000000 0.000000 0.000000 0.076062
#
#
# Mechanical properties :
#
#
# Convention : Reuss Voigt Hill
#
# Bulk Modulus (GPa) = 2.83180 61.32316 32.07748
# Shear Modulus (GPa) = 5.04853 45.51982 25.28418
#
# Velocity S-wave (km/s) = 1.64809 4.94879 3.68827
# Velocity P-wave (km/s) = 2.26830 8.10228 5.94946
#
# Compressibility (1/GPa) = 0.35313202
#
# Stress axis : x y z
#
# Youngs Moduli (GPa) = 1.93118 59.75014 91.36183
#
# Poissons Ratio (x) = 2.77615 4.56605
# Poissons Ratio (y) = 0.08973 -0.02346
# Poissons Ratio (z) = 0.09652 -0.01534
#
# Static dielectric constant tensor:
#      x y z
#    x 1.632310 0.000000 0.000000 
#    y 0.000000 1.627080 0.000000 
#    z 0.000000 0.000000 1.709510 
# 
# From -- ./inp_files/77823.got.cif
#   From: 2010.05.17/outbox.cif.g08.bks.cpg/sg65_39_cif.got.tgz:77823.got - 2010.06.03 17:01:31.
