data_PCOD9493699
_publ_section_title
;
Structure prediction by ZEFSAII (Michael W. Deem and Ramdas Pophale) SiO2 
 PCOD9493699
Probable space group: C M M M
;
_chemical_formula_sum "Si O2"
_cell_formula_units_Z 80
_cell_length_a 18.988414
_cell_length_b 7.740856
_cell_length_c 27.167225
_cell_angle_alpha 90.000000
_cell_angle_beta 90.000000
_cell_angle_gamma 90.000000
_cell_volume 3993.217449
_symmetry_space_group_name_H-M "C M M M"
_symmetry_group_IT_number 65
_symmetry_cell_setting 'orthorhombic'
loop_
_space_group_symop_operation_xyz
x,y,z
-x,-y,z
x,-y,-z
-x,y,-z
-x,-y,-z
x,y,-z
-x,y,z
x,-y,z
1/2+x,1/2+y,z
1/2-x,1/2-y,z
1/2+x,1/2-y,-z
1/2-x,1/2+y,-z
1/2-x,1/2-y,-z
1/2+x,1/2+y,-z
1/2-x,1/2+y,z
1/2+x,1/2-y,z
loop_
_atom_site_type_symbol
_atom_site_label
_atom_site_fract_x
_atom_site_fract_y
_atom_site_fract_z
Si Si1 0.081837 0.711246 0.810467
Si Si2 0.832554 0.708273 0.393188
Si Si3 0.079489 0.204906 0.000000
Si Si4 0.581708 0.210646 0.299346
Si Si5 0.168296 0.704056 0.903381
Si Si6 0.166718 0.292313 0.500000
O O1 0.082635 0.500000 0.810563
O O2 0.104169 0.766257 0.755502
O O3 0.131216 0.776993 0.854241
O O4 0.000000 0.760982 0.818311
O O5 0.839489 0.500000 0.393569
O O6 0.750000 0.750000 0.389479
O O7 0.873043 0.774355 0.345284
O O8 0.859646 0.771680 0.446801
O O9 0.123141 0.252248 0.048515
O O10 0.000000 0.279254 0.000000
O O11 0.073372 0.000000 0.000000
O O12 0.500000 0.258124 0.305410
O O13 0.584767 0.000000 0.299534
O O14 0.165667 0.500000 0.898103
O O15 0.250000 0.750000 0.908694
O O16 0.158614 0.500000 0.500000
O O17 0.250000 0.250000 0.500000
#
# Coordination Sequence:
#
# PCOD9493699 Si02
#       6
#    16  16   8  16  16   8
#     4   8  15  29  49  71  94 124 162 198 234 284
#     4   9  16  26  42  63  87 117 152 191 233 278
#     4  11  24  41  60  81 105 133 166 203 242 287
#     4   8  14  26  44  66  92 121 154 193 237 283
#     4  11  22  36  55  79 107 135 165 203 245 287
#     4   8  14  24  37  57  85 115 149 186 228 278
#
# _framework density 20.03397
#
# number of rings (size 3 to 8) (size 9 to 14) (size 15 to 20)
#    0.000    2.900    0.000    3.000    0.000    2.400 
#    0.000    0.500    0.000    4.800    0.000    5.600 
#    0.000    8.000    0.000    0.000    0.000    0.000 
#
# Total GULP energy -222985.198018 kJ/mol
# GULP energy per Si atom -5574.629950 kJ/mol
# Density = 1.998837 g / cm^3
# Si number density = 20.033970 Si / 1000 Ang^3
#
#
#
# Elastic Constant Matrix: (Units=GPa)
#
#
# Indices 1 2 3 4 5 6 
#
# 1 114.0135 5.8015 124.1523 0.0000 0.0000 0.0000
# 2 5.8015 33.4016 10.2486 0.0000 0.0000 0.0000
# 3 124.1523 10.2486 252.2000 0.0000 0.0000 0.0000
# 4 0.0000 0.0000 0.0000 -2.8358 0.0000 0.0000
# 5 0.0000 0.0000 0.0000 0.0000 43.0215 0.0000
# 6 0.0000 0.0000 0.0000 0.0000 0.0000 1.0426
#
#
#
# Elastic Compliance Matrix: (Units=1/GPa)
#
#
# Indices 1 2 3 4 5 6 
#
# 1 0.018911 -0.000434 -0.009292 0.000000 0.000000 0.000000
# 2 -0.000434 0.030327 -0.001019 0.000000 0.000000 0.000000
# 3 -0.009292 -0.001019 0.008581 0.000000 0.000000 0.000000
# 4 0.000000 0.000000 0.000000 -0.352634 0.000000 0.000000
# 5 0.000000 0.000000 0.000000 0.000000 0.023244 0.000000
# 6 0.000000 0.000000 0.000000 0.000000 0.000000 0.959166
#
#
# Mechanical properties :
#
#
# Convention : Reuss Voigt Hill
#
# Bulk Modulus (GPa) = 27.52574 75.55778 51.54176
# Shear Modulus (GPa) = 6.93295 25.53983 16.23639
#
# Velocity S-wave (km/s) = 1.86229 3.57434 2.84992
# Velocity P-wave (km/s) = 4.28876 7.40482 6.05082
#
# Compressibility (1/GPa) = 0.03632963
#
# Stress axis : x y z
#
# Youngs Moduli (GPa) = 52.87879 32.97427 116.54046
#
# Poissons Ratio (x) = 0.01430 1.08288
# Poissons Ratio (y) = 0.02293 0.11875
# Poissons Ratio (z) = 0.49135 0.03360
#
# Static dielectric constant tensor:
#      x y z
#    x 2.009530 0.000000 0.000000 
#    y 0.000000 1.727350 0.000000 
#    z 0.000000 0.000000 1.915070 
# 
# From -- ./inp_files/75100.got.cif
#   From: 2010.05.17/outbox.cif.g08.bks.cpg/sg65_38_cif.got.tgz:75100.got - 2010.06.03 17:01:31.
