data_PCOD9493844
_publ_section_title
;
Structure prediction by ZEFSAII (Michael W. Deem and Ramdas Pophale) SiO2 
 PCOD9493844
Probable space group: C M M M
;
_chemical_formula_sum "Si O2"
_cell_formula_units_Z 56
_cell_length_a 8.362704
_cell_length_b 21.414488
_cell_length_c 14.972088
_cell_angle_alpha 90.000000
_cell_angle_beta 90.000000
_cell_angle_gamma 90.000000
_cell_volume 2681.246801
_symmetry_space_group_name_H-M "C M M M"
_symmetry_group_IT_number 65
_symmetry_cell_setting 'orthorhombic'
loop_
_space_group_symop_operation_xyz
x,y,z
-x,-y,z
x,-y,-z
-x,y,-z
-x,-y,-z
x,y,-z
-x,y,z
x,-y,z
1/2+x,1/2+y,z
1/2-x,1/2-y,z
1/2+x,1/2-y,-z
1/2-x,1/2+y,-z
1/2-x,1/2-y,-z
1/2+x,1/2+y,-z
1/2-x,1/2+y,z
1/2+x,1/2-y,z
loop_
_atom_site_type_symbol
_atom_site_label
_atom_site_fract_x
_atom_site_fract_y
_atom_site_fract_z
Si Si1 0.309130 0.926085 0.000000
Si Si2 0.689461 0.128844 0.314557
Si Si3 0.187098 0.820006 0.133479
Si Si4 0.305328 0.000000 0.393792
Si Si5 0.191720 0.819372 0.500000
O O1 0.258765 0.880563 0.082187
O O2 0.500000 0.930303 0.000000
O O3 0.251200 0.000000 0.000000
O O4 0.500000 0.131373 0.295578
O O5 0.777716 0.166393 0.237337
O O6 0.728991 0.154480 0.411502
O O7 0.742233 0.058091 0.332271
O O8 0.250000 0.750000 0.110409
O O9 0.000000 0.819425 0.115031
O O10 0.500000 0.000000 0.400105
O O11 0.250901 0.000000 0.500000
O O12 0.250000 0.750000 0.500000
O O13 0.000000 0.827462 0.500000
#
# Coordination Sequence:
#
# PCOD9493844 Si02
#       5
#     8  16  16   8   8
#     4  11  26  49  76 105 137 177 220 267 332 405
#     4  11  22  40  65  94 129 173 222 272 328 397
#     4  12  26  46  71 102 138 177 223 278 337 398
#     4   9  18  36  62  91 124 171 220 266 327 393
#     4  12  24  39  58  87 125 170 218 274 331 389
#
# _framework density 20.885804
#
# number of rings (size 3 to 8) (size 9 to 14) (size 15 to 20)
#    0.000    0.857    1.429    6.429    2.000    1.143 
#    0.000    2.857    0.000    0.000    0.000    0.000 
#    0.000    0.000    0.000    0.000    0.000    0.000 
#
# Total GULP energy -156175.872887 kJ/mol
# GULP energy per Si atom -5577.709746 kJ/mol
# Density = 2.083827 g / cm^3
# Si number density = 20.885804 Si / 1000 Ang^3
#
#
#
# Elastic Constant Matrix: (Units=GPa)
#
#
# Indices 1 2 3 4 5 6 
#
# 1 70.9052 35.9490 3.7003 0.0000 0.0000 0.0000
# 2 35.9490 197.7528 42.4309 0.0000 0.0000 0.0000
# 3 3.7003 42.4309 104.4529 0.0000 0.0000 0.0000
# 4 0.0000 0.0000 0.0000 24.2242 0.0000 0.0000
# 5 0.0000 0.0000 0.0000 0.0000 35.8246 0.0000
# 6 0.0000 0.0000 0.0000 0.0000 0.0000 20.7977
#
#
#
# Elastic Compliance Matrix: (Units=1/GPa)
#
#
# Indices 1 2 3 4 5 6 
#
# 1 0.015576 -0.002972 0.000656 0.000000 0.000000 0.000000
# 2 -0.002972 0.006107 -0.002375 0.000000 0.000000 0.000000
# 3 0.000656 -0.002375 0.010515 0.000000 0.000000 0.000000
# 4 0.000000 0.000000 0.000000 0.041281 0.000000 0.000000
# 5 0.000000 0.000000 0.000000 0.000000 0.027914 0.000000
# 6 0.000000 0.000000 0.000000 0.000000 0.000000 0.048082
#
#
# Mechanical properties :
#
#
# Convention : Reuss Voigt Hill
#
# Bulk Modulus (GPa) = 43.83238 59.69681 51.76460
# Shear Modulus (GPa) = 30.03652 35.57136 32.80394
#
# Velocity S-wave (km/s) = 3.79638 4.13138 3.96742
# Velocity P-wave (km/s) = 6.34421 7.16954 6.76946
#
# Compressibility (1/GPa) = 0.02281418
#
# Stress axis : x y z
#
# Youngs Moduli (GPa) = 64.20123 163.75167 95.09854
#
# Poissons Ratio (x) = 0.48670 -0.06234
# Poissons Ratio (y) = 0.19082 0.22590
# Poissons Ratio (z) = -0.04209 0.38898
#
# Static dielectric constant tensor:
#      x y z
#    x 1.740720 0.000000 0.000000 
#    y 0.000000 1.447930 0.000000 
#    z 0.000000 0.000000 1.709570 
# 
# From -- ./inp_files/35577.got.cif
#   From: 2010.05.17/outbox.cif.g08.bks.cpg/sg65_18_cif.got.tgz:35577.got - 2010.06.03 17:01:31.
