data_PCOD9493627
_publ_section_title
;
Structure prediction by ZEFSAII (Michael W. Deem and Ramdas Pophale) SiO2 
 PCOD9493627
Probable space group: C M M M
;
_chemical_formula_sum "Si O2"
_cell_formula_units_Z 80
_cell_length_a 7.706213
_cell_length_b 18.866367
_cell_length_c 27.212643
_cell_angle_alpha 90.000000
_cell_angle_beta 90.000000
_cell_angle_gamma 90.000000
_cell_volume 3956.398343
_symmetry_space_group_name_H-M "C M M M"
_symmetry_group_IT_number 65
_symmetry_cell_setting 'orthorhombic'
loop_
_space_group_symop_operation_xyz
x,y,z
-x,-y,z
x,-y,-z
-x,y,-z
-x,-y,-z
x,y,-z
-x,y,z
x,-y,z
1/2+x,1/2+y,z
1/2-x,1/2-y,z
1/2+x,1/2-y,-z
1/2-x,1/2+y,-z
1/2-x,1/2-y,-z
1/2+x,1/2+y,-z
1/2-x,1/2+y,z
1/2+x,1/2-y,z
loop_
_atom_site_type_symbol
_atom_site_label
_atom_site_fract_x
_atom_site_fract_y
_atom_site_fract_z
Si Si1 0.291353 0.332212 0.054968
Si Si2 0.291942 0.080772 0.340919
Si Si3 0.294022 0.085930 0.552822
Si Si4 0.287072 0.418301 0.149496
Si Si5 0.794544 0.167508 0.244179
O O1 0.500000 0.338895 0.053638
O O2 0.250000 0.250000 0.065076
O O3 0.228048 0.381354 0.099087
O O4 0.225537 0.349253 0.000000
O O5 0.500000 0.076030 0.346136
O O6 0.224094 0.108449 0.393883
O O7 0.257380 0.130349 0.294901
O O8 0.227665 0.000000 0.332250
O O9 0.220317 0.110095 0.500000
O O10 0.500000 0.102460 0.551704
O O11 0.280325 0.000000 0.553650
O O12 0.500000 0.416971 0.149312
O O13 0.234515 0.500000 0.152560
O O14 0.224232 0.374338 0.196743
O O15 0.750000 0.250000 0.243038
O O16 0.000000 0.161699 0.241182
#
# Coordination Sequence:
#
# PCOD9493627 Si02
#       5
#    16  16  16  16  16
#     4   9  17  30  50  74  99 128 160 194 232 277
#     4   9  17  30  50  76 103 128 158 198 240 286
#     4   7  10  19  39  68  98 125 153 187 230 280
#     4   9  18  32  50  73  98 123 156 199 244 288
#     4  11  22  35  51  69  94 129 166 204 246 293
#
# _framework density 20.220412
#
# number of rings (size 3 to 8) (size 9 to 14) (size 15 to 20)
#    0.000    3.000    0.000    3.600    0.000    1.600 
#    0.000    3.000    0.000    4.200    0.000    5.600 
#    0.000    0.000    0.000    0.000    0.000    0.000 
#
# Total GULP energy -222968.964257 kJ/mol
# GULP energy per Si atom -5574.224106 kJ/mol
# Density = 2.017439 g / cm^3
# Si number density = 20.220412 Si / 1000 Ang^3
#
#
#
# Elastic Constant Matrix: (Units=GPa)
#
#
# Indices 1 2 3 4 5 6 
#
# 1 33.6422 1.9245 10.7282 0.0000 0.0000 0.0000
# 2 1.9245 123.7174 130.2363 0.0000 0.0000 0.0000
# 3 10.7282 130.2363 245.5259 0.0000 0.0000 0.0000
# 4 0.0000 0.0000 0.0000 600.1369 0.0000 0.0000
# 5 0.0000 0.0000 0.0000 0.0000 11.6286 0.0000
# 6 0.0000 0.0000 0.0000 0.0000 0.0000 -119.3564
#
#
#
# Elastic Compliance Matrix: (Units=1/GPa)
#
#
# Indices 1 2 3 4 5 6 
#
# 1 0.030382 0.002094 -0.002438 0.000000 0.000000 0.000000
# 2 0.002094 0.018448 -0.009877 0.000000 0.000000 0.000000
# 3 -0.002438 -0.009877 0.009418 0.000000 0.000000 0.000000
# 4 0.000000 0.000000 0.000000 0.001666 0.000000 0.000000
# 5 0.000000 0.000000 0.000000 0.000000 0.085995 0.000000
# 6 0.000000 0.000000 0.000000 0.000000 0.000000 -0.008378
#
#
# Mechanical properties :
#
#
# Convention : Reuss Voigt Hill
#
# Bulk Modulus (GPa) = 26.45044 76.51816 51.48430
# Shear Modulus (GPa) = 29.31252 115.81490 72.56371
#
# Velocity S-wave (km/s) = 3.81156 7.57632 5.99702
# Velocity P-wave (km/s) = 5.69913 10.69852 8.57142
#
# Compressibility (1/GPa) = 0.03780655
#
# Stress axis : x y z
#
# Youngs Moduli (GPa) = 32.91381 54.20760 106.17425
#
# Poissons Ratio (x) = -0.11353 0.25890
# Poissons Ratio (y) = -0.06893 1.04866
# Poissons Ratio (z) = 0.08026 0.53540
#
# Static dielectric constant tensor:
#      x y z
#    x 1.756840 0.000000 0.000000 
#    y 0.000000 1.646740 0.000000 
#    z 0.000000 0.000000 1.774220 
# 
# From -- ./inp_files/68829.got.cif
#   From: 2010.05.17/outbox.cif.g08.bks.cpg/sg65_35_cif.got.tgz:68829.got - 2010.06.03 17:01:31.
