data_PCOD9493406
_publ_section_title
;
Structure prediction by ZEFSAII (Michael W. Deem and Ramdas Pophale) SiO2 
 PCOD9493406
Probable space group: C M M M
;
_chemical_formula_sum "Si O2"
_cell_formula_units_Z 72
_cell_length_a 16.420025
_cell_length_b 27.770365
_cell_length_c 8.828911
_cell_angle_alpha 90.000000
_cell_angle_beta 90.000000
_cell_angle_gamma 90.000000
_cell_volume 4025.895900
_symmetry_space_group_name_H-M "C M M M"
_symmetry_group_IT_number 65
_symmetry_cell_setting 'orthorhombic'
loop_
_space_group_symop_operation_xyz
x,y,z
-x,-y,z
x,-y,-z
-x,y,-z
-x,-y,-z
x,y,-z
-x,y,z
x,-y,z
1/2+x,1/2+y,z
1/2-x,1/2-y,z
1/2+x,1/2-y,-z
1/2-x,1/2+y,-z
1/2-x,1/2-y,-z
1/2+x,1/2+y,-z
1/2-x,1/2+y,z
1/2+x,1/2-y,z
loop_
_atom_site_type_symbol
_atom_site_label
_atom_site_fract_x
_atom_site_fract_y
_atom_site_fract_z
Si Si1 0.678002 0.558144 0.177195
Si Si2 0.329949 0.109783 0.320420
Si Si3 0.500000 0.894329 0.174593
Si Si4 0.500000 0.223102 0.825448
Si Si5 0.500000 0.555966 0.184517
Si Si6 0.675035 0.216040 0.184183
O O1 0.676350 0.500000 0.183540
O O2 0.753344 0.578055 0.270386
O O3 0.588255 0.576258 0.229583
O O4 0.688460 0.571668 0.000000
O O5 0.336494 0.112686 0.500000
O O6 0.415973 0.090912 0.253946
O O7 0.316093 0.162952 0.251514
O O8 0.500000 0.835512 0.176725
O O9 0.500000 0.909475 0.000000
O O10 0.412253 0.236882 0.760759
O O11 0.500000 0.239456 0.000000
O O12 0.500000 0.500000 0.232547
O O13 0.500000 0.556051 0.000000
O O14 0.750000 0.250000 0.223678
O O15 0.671346 0.211915 0.000000
#
# Coordination Sequence:
#
# PCOD9493406 Si02
#       6
#    16  16   8   8   8  16
#     4   9  17  32  54  76  98 128 168 210 248 290
#     4  11  21  32  49  75 106 134 161 200 253 306
#     4   9  17  33  54  71  92 127 172 210 240 289
#     4   7  12  25  46  69  88 112 153 202 242 275
#     4   7  12  26  50  75  94 120 165 212 244 277
#     4   9  17  31  51  71  93 126 168 207 240 283
#
# _framework density 17.884218000000001
#
# number of rings (size 3 to 8) (size 9 to 14) (size 15 to 20)
#    0.000    3.000    0.000    5.000    0.000    0.889 
#    0.000    2.222    0.000    9.333    0.000    0.000 
#    0.000    0.000    0.000    0.000    0.000    0.000 
#
# Total GULP energy -200420.526757 kJ/mol
# GULP energy per Si atom -5567.236854 kJ/mol
# Density = 1.784351 g / cm^3
# Si number density = 17.884218 Si / 1000 Ang^3
#
#
#
# Elastic Constant Matrix: (Units=GPa)
#
#
# Indices 1 2 3 4 5 6 
#
# 1 190.9134 32.1807 48.8752 0.0000 0.0000 0.0000
# 2 32.1807 12.3930 14.2789 0.0000 0.0000 0.0000
# 3 48.8752 14.2789 51.7793 0.0000 0.0000 0.0000
# 4 0.0000 0.0000 0.0000 -4.0658 0.0000 0.0000
# 5 0.0000 0.0000 0.0000 0.0000 3.7272 0.0000
# 6 0.0000 0.0000 0.0000 0.0000 0.0000 28.0645
#
#
#
# Elastic Compliance Matrix: (Units=1/GPa)
#
#
# Indices 1 2 3 4 5 6 
#
# 1 0.009670 -0.021390 -0.003229 0.000000 0.000000 0.000000
# 2 -0.021390 0.165579 -0.025471 0.000000 0.000000 0.000000
# 3 -0.003229 -0.025471 0.029385 0.000000 0.000000 0.000000
# 4 0.000000 0.000000 0.000000 -0.245953 0.000000 0.000000
# 5 0.000000 0.000000 0.000000 0.000000 0.268295 0.000000
# 6 0.000000 0.000000 0.000000 0.000000 0.000000 0.035632
#
#
# Mechanical properties :
#
#
# Convention : Reuss Voigt Hill
#
# Bulk Modulus (GPa) = 9.57355 49.52837 29.55096
# Shear Modulus (GPa) = 12.57526 16.19524 14.38525
#
# Velocity S-wave (km/s) = 2.65457 3.01252 2.83919
# Velocity P-wave (km/s) = 3.84192 6.31303 5.22564
#
# Compressibility (1/GPa) = 0.10445448
#
# Stress axis : x y z
#
# Youngs Moduli (GPa) = 103.41080 6.03942 34.03108
#
# Poissons Ratio (x) = 0.12918 0.10990
# Poissons Ratio (y) = 2.21191 0.86680
# Poissons Ratio (z) = 0.33395 0.15383
#
# Static dielectric constant tensor:
#      x y z
#    x 1.667280 0.000000 0.000000 
#    y 0.000000 1.591540 0.000000 
#    z 0.000000 0.000000 1.595390 
# 
# From -- ./inp_files/7741.got.cif
#   From: 2010.05.17/outbox.cif.g08.bks.cpg/sg65_4_cif.got.tgz:7741.got - 2010.06.03 17:01:31.
