data_PCOD9493816
_publ_section_title
;
Structure prediction by ZEFSAII (Michael W. Deem and Ramdas Pophale) SiO2 
 PCOD9493816
Probable space group: C M M M
;
_chemical_formula_sum "Si O2"
_cell_formula_units_Z 80
_cell_length_a 24.763146
_cell_length_b 20.035070
_cell_length_c 8.784188
_cell_angle_alpha 90.000000
_cell_angle_beta 90.000000
_cell_angle_gamma 90.000000
_cell_volume 4358.111170
_symmetry_space_group_name_H-M "C M M M"
_symmetry_group_IT_number 65
_symmetry_cell_setting 'orthorhombic'
loop_
_space_group_symop_operation_xyz
x,y,z
-x,-y,z
x,-y,-z
-x,y,-z
-x,-y,-z
x,y,-z
-x,y,z
x,-y,z
1/2+x,1/2+y,z
1/2-x,1/2-y,z
1/2+x,1/2-y,-z
1/2-x,1/2+y,-z
1/2-x,1/2-y,-z
1/2+x,1/2+y,-z
1/2-x,1/2+y,z
1/2+x,1/2-y,z
loop_
_atom_site_type_symbol
_atom_site_label
_atom_site_fract_x
_atom_site_fract_y
_atom_site_fract_z
Si Si1 0.000000 0.578780 0.685073
Si Si2 0.769459 0.000000 0.666789
Si Si3 0.335004 0.000000 0.824925
Si Si4 0.937735 0.000000 0.314068
Si Si5 0.813262 0.751734 0.181791
Si Si6 0.115961 0.631808 0.682211
Si Si7 0.642035 0.614701 0.675728
O O1 0.053645 0.619352 0.730776
O O2 0.000000 0.500000 0.735735
O O3 0.000000 0.575557 0.500000
O O4 0.729082 0.000000 0.805630
O O5 0.807361 0.064385 0.672210
O O6 0.741437 0.000000 0.500000
O O7 0.355531 0.935167 0.738706
O O8 0.351918 0.000000 0.000000
O O9 0.906534 0.067356 0.265787
O O10 0.933922 0.000000 0.500000
O O11 0.000000 0.000000 0.270137
O O12 0.750000 0.750000 0.234203
O O13 0.850229 0.693012 0.249976
O O14 0.841091 0.821040 0.230085
O O15 0.812534 0.744923 0.000000
O O16 0.116992 0.636956 0.500000
O O17 0.630258 0.634490 0.500000
#
# Coordination Sequence:
#
# PCOD9493816 Si02
#       7
#     8   8   8   8  16  16  16
#     4   9  18  38  64  88 112 139 186 243 286 330
#     4   9  18  33  55  82 111 146 193 240 280 333
#     4  12  23  34  52  84 118 147 185 230 288 347
#     4   8  15  32  59  87 112 139 182 236 280 327
#     4  11  24  40  56  81 120 158 190 232 288 347
#     4  11  22  39  63  85 110 149 195 240 283 335
#     4   9  18  34  57  84 111 145 189 235 282 333
#
# _framework density 18.356577999999999
#
# number of rings (size 3 to 8) (size 9 to 14) (size 15 to 20)
#    0.000    2.000    1.000    4.500    0.000    5.600 
#    1.800    4.000    0.000    0.600    0.000    0.000 
#    0.000    0.000    0.000    0.000    0.000    0.000 
#
# Total GULP energy -223091.062701 kJ/mol
# GULP energy per Si atom -5577.276568 kJ/mol
# Density = 1.831480 g / cm^3
# Si number density = 18.356578 Si / 1000 Ang^3
#
#
#
# Elastic Constant Matrix: (Units=GPa)
#
#
# Indices 1 2 3 4 5 6 
#
# 1 150.2840 80.6879 37.8391 0.0000 0.0000 0.0000
# 2 80.6879 158.9272 41.9267 0.0000 0.0000 0.0000
# 3 37.8391 41.9267 49.0467 0.0000 0.0000 0.0000
# 4 0.0000 0.0000 0.0000 -3.6076 0.0000 0.0000
# 5 0.0000 0.0000 0.0000 0.0000 7.1310 0.0000
# 6 0.0000 0.0000 0.0000 0.0000 0.0000 15.3981
#
#
#
# Elastic Compliance Matrix: (Units=1/GPa)
#
#
# Indices 1 2 3 4 5 6 
#
# 1 0.009794 -0.003846 -0.004268 0.000000 0.000000 0.000000
# 2 -0.003846 0.009635 -0.005269 0.000000 0.000000 0.000000
# 3 -0.004268 -0.005269 0.028185 0.000000 0.000000 0.000000
# 4 0.000000 0.000000 0.000000 -0.277195 0.000000 0.000000
# 5 0.000000 0.000000 0.000000 0.000000 0.140232 0.000000
# 6 0.000000 0.000000 0.000000 0.000000 0.000000 0.064943
#
#
# Mechanical properties :
#
#
# Convention : Reuss Voigt Hill
#
# Bulk Modulus (GPa) = 47.96628 75.46280 61.71454
# Shear Modulus (GPa) = 537.10730 16.97127 277.03928
#
# Velocity S-wave (km/s) = 17.12401 3.04391 12.29832
# Velocity P-wave (km/s) = 20.42456 7.31796 15.34137
#
# Compressibility (1/GPa) = 0.02084798
#
# Stress axis : x y z
#
# Youngs Moduli (GPa) = 102.10547 103.78800 35.47960
#
# Poissons Ratio (x) = 0.39922 0.15142
# Poissons Ratio (y) = 0.39275 0.18694
# Poissons Ratio (z) = 0.43576 0.54684
#
# Static dielectric constant tensor:
#      x y z
#    x 1.662870 0.000000 0.000000 
#    y 0.000000 1.459080 0.000000 
#    z 0.000000 0.000000 1.635840 
# 
# From -- ./inp_files/13903.got.cif
#   From: 2010.05.17/outbox.cif.g08.bks.cpg/sg65_7_cif.got.tgz:13903.got - 2010.06.03 17:01:31.
