data_PCOD9493385
_publ_section_title
;
Structure prediction by ZEFSAII (Michael W. Deem and Ramdas Pophale) SiO2 
 PCOD9493385
Probable space group: C M M M
;
_chemical_formula_sum "Si O2"
_cell_formula_units_Z 104
_cell_length_a 8.312131
_cell_length_b 28.379109
_cell_length_c 27.589413
_cell_angle_alpha 90.000000
_cell_angle_beta 90.000000
_cell_angle_gamma 90.000000
_cell_volume 6508.090681
_symmetry_space_group_name_H-M "C M M M"
_symmetry_group_IT_number 65
_symmetry_cell_setting 'orthorhombic'
loop_
_space_group_symop_operation_xyz
x,y,z
-x,-y,z
x,-y,-z
-x,y,-z
-x,-y,-z
x,y,-z
-x,y,z
x,-y,z
1/2+x,1/2+y,z
1/2-x,1/2-y,z
1/2+x,1/2-y,-z
1/2-x,1/2+y,-z
1/2-x,1/2-y,-z
1/2+x,1/2+y,-z
1/2-x,1/2+y,z
1/2+x,1/2-y,z
loop_
_atom_site_type_symbol
_atom_site_label
_atom_site_fract_x
_atom_site_fract_y
_atom_site_fract_z
Si Si1 0.691975 0.554779 0.000000
Si Si2 0.803772 0.553000 0.703169
Si Si3 0.805351 0.303625 0.554254
Si Si4 0.193933 0.554632 0.103559
Si Si5 0.809224 0.197453 0.745808
Si Si6 0.305485 0.892741 0.800255
Si Si7 0.694194 0.145097 0.650041
O O1 0.753879 0.574009 0.948852
O O2 0.747649 0.500000 0.000000
O O3 0.500000 0.555828 0.000000
O O4 0.746740 0.500000 0.694614
O O5 0.758292 0.572202 0.756371
O O6 0.749972 0.592850 0.665229
O O7 0.000000 0.552159 0.702086
O O8 0.752408 0.317886 0.500000
O O9 0.750000 0.250000 0.562188
O O10 0.746920 0.335751 0.598527
O O11 0.000000 0.304255 0.554711
O O12 0.250334 0.500000 0.108474
O O13 0.250101 0.586076 0.148669
O O14 0.000000 0.553434 0.104928
O O15 0.750000 0.250000 0.756348
O O16 0.755106 0.158776 0.785283
O O17 0.741072 0.179532 0.694110
O O18 0.000000 0.197414 0.742653
O O19 0.500000 0.891135 0.800717
O O20 0.500000 0.143977 0.648438
#
# Coordination Sequence:
#
# PCOD9493385 Si02
#       7
#     8  16  16  16  16  16  16
#     4   9  17  27  39  59  90 125 156 187 223 259
#     4   8  13  23  41  63  85 111 143 174 206 249
#     4   9  17  28  42  61  84 109 138 175 219 263
#     4   9  16  27  45  67  91 120 153 186 218 257
#     4  11  21  32  46  64  88 115 143 176 215 260
#     4   9  17  29  45  66  89 114 146 181 217 256
#     4   9  17  29  45  64  86 113 144 177 213 255
#
# _framework density 15.980109000000001
#
# number of rings (size 3 to 8) (size 9 to 14) (size 15 to 20)
#    0.000    2.846    0.000    3.462    0.000    5.231 
#    0.000    0.000    0.000   11.538    0.000    3.769 
#    0.000    0.000    0.000    9.385    0.000   10.154 
#
# Total GULP energy -289705.565672 kJ/mol
# GULP energy per Si atom -5571.260878 kJ/mol
# Density = 1.594374 g / cm^3
# Si number density = 15.980109 Si / 1000 Ang^3
#
#
#
# Elastic Constant Matrix: (Units=GPa)
#
#
# Indices 1 2 3 4 5 6 
#
# 1 8.6892 12.0564 15.3183 0.0000 0.0000 0.0000
# 2 12.0564 121.8111 85.4434 0.0000 0.0000 0.0000
# 3 15.3183 85.4434 160.6546 0.0000 0.0000 0.0000
# 4 0.0000 0.0000 0.0000 21.4812 0.0000 0.0000
# 5 0.0000 0.0000 0.0000 0.0000 12.5954 0.0000
# 6 0.0000 0.0000 0.0000 0.0000 0.0000 16.5540
#
#
#
# Elastic Compliance Matrix: (Units=1/GPa)
#
#
# Indices 1 2 3 4 5 6 
#
# 1 0.142278 -0.007283 -0.009692 0.000000 0.000000 0.000000
# 2 -0.007283 0.013467 -0.006468 0.000000 0.000000 0.000000
# 3 -0.009692 -0.006468 0.010589 0.000000 0.000000 0.000000
# 4 0.000000 0.000000 0.000000 0.046552 0.000000 0.000000
# 5 0.000000 0.000000 0.000000 0.000000 0.079394 0.000000
# 6 0.000000 0.000000 0.000000 0.000000 0.000000 0.060408
#
#
# Mechanical properties :
#
#
# Convention : Reuss Voigt Hill
#
# Bulk Modulus (GPa) = 8.37200 57.42125 32.89662
# Shear Modulus (GPa) = 11.37937 22.01523 16.69730
#
# Velocity S-wave (km/s) = 2.67141 3.71572 3.23597
# Velocity P-wave (km/s) = 3.84260 7.37697 5.88155
#
# Compressibility (1/GPa) = 0.11944577
#
# Stress axis : x y z
#
# Youngs Moduli (GPa) = 7.02851 74.25411 94.44028
#
# Poissons Ratio (x) = 0.54082 0.91536
# Poissons Ratio (y) = 0.05119 0.61084
# Poissons Ratio (z) = 0.06812 0.48028
#
# Static dielectric constant tensor:
#      x y z
#    x 1.556640 0.000000 0.000000 
#    y 0.000000 1.525500 0.000000 
#    z 0.000000 0.000000 1.546740 
# 
# From -- ./inp_files/73789.got.cif
#   From: 2010.05.17/outbox.cif.g08.bks.cpg/sg65_37_cif.got.tgz:73789.got - 2010.06.03 17:01:31.
