data_PCOD9493424
_publ_section_title
;
Structure prediction by ZEFSAII (Michael W. Deem and Ramdas Pophale) SiO2 
 PCOD9493424
Probable space group: C M M M
;
_chemical_formula_sum "Si O2"
_cell_formula_units_Z 120
_cell_length_a 23.506894
_cell_length_b 23.449833
_cell_length_c 12.808825
_cell_angle_alpha 90.000000
_cell_angle_beta 90.000000
_cell_angle_gamma 90.000000
_cell_volume 7060.643684
_symmetry_space_group_name_H-M "C M M M"
_symmetry_group_IT_number 65
_symmetry_cell_setting 'orthorhombic'
loop_
_space_group_symop_operation_xyz
x,y,z
-x,-y,z
x,-y,-z
-x,y,-z
-x,-y,-z
x,y,-z
-x,y,z
x,-y,z
1/2+x,1/2+y,z
1/2-x,1/2-y,z
1/2+x,1/2-y,-z
1/2-x,1/2+y,-z
1/2-x,1/2-y,-z
1/2+x,1/2+y,-z
1/2-x,1/2+y,z
1/2+x,1/2-y,z
loop_
_atom_site_type_symbol
_atom_site_label
_atom_site_fract_x
_atom_site_fract_y
_atom_site_fract_z
Si Si1 0.817644 0.258811 0.617839
Si Si2 0.852802 0.144870 0.274931
Si Si3 0.255378 0.567227 0.373946
Si Si4 0.432477 0.833986 0.123857
Si Si5 0.361796 0.881490 0.311265
Si Si6 0.432091 0.932877 0.500000
Si Si7 0.935684 0.060894 0.375483
Si Si8 0.435191 0.698742 0.875522
O O1 0.838965 0.253139 0.500000
O O2 0.750000 0.250000 0.616957
O O3 0.840795 0.207713 0.685408
O O4 0.835896 0.320020 0.658865
O O5 0.797837 0.105821 0.303210
O O6 0.900369 0.114165 0.342487
O O7 0.885603 0.157135 0.166404
O O8 0.256839 0.583739 0.500000
O O9 0.269787 0.500000 0.370227
O O10 0.192475 0.577107 0.326718
O O11 0.500000 0.845844 0.139704
O O12 0.393387 0.871886 0.200537
O O13 0.424398 0.766192 0.148049
O O14 0.420255 0.842204 0.000000
O O15 0.406555 0.902389 0.398004
O O16 0.500000 0.929349 0.500000
O O17 0.415613 0.000000 0.500000
O O18 0.936834 0.059021 0.500000
O O19 0.000000 0.064339 0.337322
O O20 0.911062 0.000000 0.338608
O O21 0.500000 0.685505 0.836965
O O22 0.436612 0.694820 0.000000
#
# Coordination Sequence:
#
# PCOD9493424 Si02
#       8
#    16  16  16  16  16   8  16  16
#     4  11  21  33  49  79 119 154 177 221 286 346
#     4  12  20  32  55  80 108 145 191 230 279 339
#     4  11  23  38  58  82 112 154 197 232 272 337
#     4   9  19  37  60  85 114 149 189 234 287 346
#     4  12  20  37  59  84 116 149 190 235 283 344
#     4  11  24  40  59  84 116 156 195 234 282 341
#     4   9  18  32  48  70 104 142 180 224 270 321
#     4   9  19  36  56  80 112 149 190 235 287 346
#
# _framework density 16.995618
#
# number of rings (size 3 to 8) (size 9 to 14) (size 15 to 20)
#    0.000    1.533    4.000    4.000    0.000    1.067 
#    0.000    0.667    0.000    6.400    0.000    9.333 
#    0.000    0.000    0.000    0.000    0.000    0.000 
#
# Total GULP energy -334077.774266 kJ/mol
# GULP energy per Si atom -5567.962904 kJ/mol
# Density = 1.695694 g / cm^3
# Si number density = 16.995618 Si / 1000 Ang^3
#
#
#
# Elastic Constant Matrix: (Units=GPa)
#
#
# Indices 1 2 3 4 5 6 
#
# 1 76.8462 32.0019 45.6162 0.0000 0.0000 0.0000
# 2 32.0019 74.1071 21.1027 0.0000 0.0000 0.0000
# 3 45.6162 21.1027 76.2439 0.0000 0.0000 0.0000
# 4 0.0000 0.0000 0.0000 19.7038 0.0000 0.0000
# 5 0.0000 0.0000 0.0000 0.0000 27.7409 0.0000
# 6 0.0000 0.0000 0.0000 0.0000 0.0000 43.5801
#
#
#
# Elastic Compliance Matrix: (Units=1/GPa)
#
#
# Indices 1 2 3 4 5 6 
#
# 1 0.022699 -0.006443 -0.011797 0.000000 0.000000 0.000000
# 2 -0.006443 0.016477 -0.000706 0.000000 0.000000 0.000000
# 3 -0.011797 -0.000706 0.020370 0.000000 0.000000 0.000000
# 4 0.000000 0.000000 0.000000 0.050752 0.000000 0.000000
# 5 0.000000 0.000000 0.000000 0.000000 0.036048 0.000000
# 6 0.000000 0.000000 0.000000 0.000000 0.000000 0.022946
#
#
# Mechanical properties :
#
#
# Convention : Reuss Voigt Hill
#
# Bulk Modulus (GPa) = 46.18180 47.18208 46.68194
# Shear Modulus (GPa) = 23.32072 26.77005 25.04538
#
# Velocity S-wave (km/s) = 3.70829 3.97308 3.84296
# Velocity P-wave (km/s) = 6.75033 6.99062 6.87152
#
# Compressibility (1/GPa) = 0.02165355
#
# Stress axis : x y z
#
# Youngs Moduli (GPa) = 44.05469 60.68991 49.09298
#
# Poissons Ratio (x) = 0.39101 0.57917
# Poissons Ratio (y) = 0.28383 0.03465
# Poissons Ratio (z) = 0.51973 0.04284
#
# Static dielectric constant tensor:
#      x y z
#    x 1.615080 0.000000 0.000000 
#    y 0.000000 1.585480 0.000000 
#    z 0.000000 0.000000 1.568330 
# 
# From -- ./inp_files/44797.got.cif
#   From: 2010.05.17/outbox.cif.g08.bks.cpg/sg65_23_cif.got.tgz:44797.got - 2010.06.03 17:01:31.
