data_PCOD9493436
_publ_section_title
;
Structure prediction by ZEFSAII (Michael W. Deem and Ramdas Pophale) SiO2 
 PCOD9493436
Probable space group: C M M M
;
_chemical_formula_sum "Si O2"
_cell_formula_units_Z 72
_cell_length_a 19.076719
_cell_length_b 8.713560
_cell_length_c 24.295008
_cell_angle_alpha 90.000000
_cell_angle_beta 90.000000
_cell_angle_gamma 90.000000
_cell_volume 4038.465294
_symmetry_space_group_name_H-M "C M M M"
_symmetry_group_IT_number 65
_symmetry_cell_setting 'orthorhombic'
loop_
_space_group_symop_operation_xyz
x,y,z
-x,-y,z
x,-y,-z
-x,y,-z
-x,-y,-z
x,y,-z
-x,y,z
x,-y,z
1/2+x,1/2+y,z
1/2-x,1/2-y,z
1/2+x,1/2-y,-z
1/2-x,1/2+y,-z
1/2-x,1/2-y,-z
1/2+x,1/2+y,-z
1/2-x,1/2+y,z
1/2+x,1/2-y,z
loop_
_atom_site_type_symbol
_atom_site_label
_atom_site_fract_x
_atom_site_fract_y
_atom_site_fract_z
Si Si1 0.828583 0.314857 0.104413
Si Si2 0.671575 0.681997 0.661459
Si Si3 0.829010 0.316092 0.774086
Si Si4 0.919490 0.312469 0.000000
Si Si5 0.582960 0.816118 0.437513
O O1 0.823610 0.500000 0.102455
O O2 0.750000 0.250000 0.098484
O O3 0.857732 0.275239 0.165371
O O4 0.877688 0.263250 0.054541
O O5 0.676571 0.500000 0.665371
O O6 0.750000 0.750000 0.656047
O O7 0.639186 0.746969 0.718512
O O8 0.626725 0.732613 0.609151
O O9 0.827232 0.500000 0.769160
O O10 0.750000 0.250000 0.775210
O O11 0.919765 0.500000 0.000000
O O12 0.000000 0.261902 0.000000
O O13 0.603413 0.772454 0.500000
O O14 0.500000 0.785489 0.431532
O O15 0.592712 0.000000 0.432349
#
# Coordination Sequence:
#
# PCOD9493436 Si02
#       5
#    16  16  16   8  16
#     4   9  17  29  49  73  94 123 162 202 242 287
#     4  11  21  33  52  77 105 135 167 206 251 296
#     4   9  16  28  46  70  98 126 161 202 246 293
#     4   9  17  30  47  69  98 127 158 198 242 289
#     4   9  19  37  58  77 100 132 168 206 249 297
#
# _framework density 17.828555000000001
#
# number of rings (size 3 to 8) (size 9 to 14) (size 15 to 20)
#    0.000    2.556    0.000    5.000    0.000    2.222 
#    0.000    2.222    0.000    5.333    0.000    0.000 
#    0.000    0.000    0.000    0.000    0.000    0.000 
#
# Total GULP energy -200659.570862 kJ/mol
# GULP energy per Si atom -5573.876968 kJ/mol
# Density = 1.778798 g / cm^3
# Si number density = 17.828555 Si / 1000 Ang^3
#
#
#
# Elastic Constant Matrix: (Units=GPa)
#
#
# Indices 1 2 3 4 5 6 
#
# 1 57.2259 30.4784 75.9476 0.0000 0.0000 0.0000
# 2 30.4784 63.6844 68.5421 0.0000 0.0000 0.0000
# 3 75.9476 68.5421 212.9645 0.0000 0.0000 0.0000
# 4 0.0000 0.0000 0.0000 23.5395 0.0000 0.0000
# 5 0.0000 0.0000 0.0000 0.0000 165.0143 0.0000
# 6 0.0000 0.0000 0.0000 0.0000 0.0000 19.6001
#
#
#
# Elastic Compliance Matrix: (Units=1/GPa)
#
#
# Indices 1 2 3 4 5 6 
#
# 1 0.034169 -0.004954 -0.010591 0.000000 0.000000 0.000000
# 2 -0.004954 0.024743 -0.006197 0.000000 0.000000 0.000000
# 3 -0.010591 -0.006197 0.010467 0.000000 0.000000 0.000000
# 4 0.000000 0.000000 0.000000 0.042482 0.000000 0.000000
# 5 0.000000 0.000000 0.000000 0.000000 0.006060 0.000000
# 6 0.000000 0.000000 0.000000 0.000000 0.000000 0.051020
#
#
# Mechanical properties :
#
#
# Convention : Reuss Voigt Hill
#
# Bulk Modulus (GPa) = 38.61690 75.97898 57.29794
# Shear Modulus (GPa) = 22.61879 52.22458 37.42168
#
# Velocity S-wave (km/s) = 3.56572 5.41814 4.58643
# Velocity P-wave (km/s) = 6.21769 9.04713 7.76242
#
# Compressibility (1/GPa) = 0.02589540
#
# Stress axis : x y z
#
# Youngs Moduli (GPa) = 29.26645 40.41603 95.53888
#
# Poissons Ratio (x) = 0.20022 1.01184
# Poissons Ratio (y) = 0.14498 0.59203
# Poissons Ratio (z) = 0.30996 0.25045
#
# Static dielectric constant tensor:
#      x y z
#    x 1.623610 0.000000 0.000000 
#    y 0.000000 1.599810 0.000000 
#    z 0.000000 0.000000 1.654280 
# 
# From -- ./inp_files/70334.got.cif
#   From: 2010.05.17/outbox.cif.g08.bks.cpg/sg65_36_cif.got.tgz:70334.got - 2010.06.03 17:01:31.
