data_PCOD9493384
_publ_section_title
;
Structure prediction by ZEFSAII (Michael W. Deem and Ramdas Pophale) SiO2 
 PCOD9493384
Probable space group: C M M M
;
_chemical_formula_sum "Si O2"
_cell_formula_units_Z 96
_cell_length_a 28.545750
_cell_length_b 7.742046
_cell_length_c 24.665378
_cell_angle_alpha 90.000000
_cell_angle_beta 90.000000
_cell_angle_gamma 90.000000
_cell_volume 5451.110438
_symmetry_space_group_name_H-M "C M M M"
_symmetry_group_IT_number 65
_symmetry_cell_setting 'orthorhombic'
loop_
_space_group_symop_operation_xyz
x,y,z
-x,-y,z
x,-y,-z
-x,y,-z
-x,-y,-z
x,y,-z
-x,y,z
x,-y,z
1/2+x,1/2+y,z
1/2-x,1/2-y,z
1/2+x,1/2-y,-z
1/2-x,1/2+y,-z
1/2-x,1/2-y,-z
1/2+x,1/2+y,-z
1/2-x,1/2+y,z
1/2+x,1/2-y,z
loop_
_atom_site_type_symbol
_atom_site_label
_atom_site_fract_x
_atom_site_fract_y
_atom_site_fract_z
Si Si1 0.303553 0.299295 0.765558
Si Si2 0.695968 0.208420 0.438972
Si Si3 0.053173 0.288348 0.270478
Si Si4 0.861177 0.298981 0.661972
Si Si5 0.553771 0.789083 0.938394
Si Si6 0.610408 0.791404 0.835498
O O1 0.305453 0.500000 0.752506
O O2 0.250000 0.250000 0.775842
O O3 0.325403 0.207167 0.712789
O O4 0.338245 0.264346 0.815873
O O5 0.685635 0.271483 0.500000
O O6 0.750000 0.250000 0.426588
O O7 0.662672 0.277229 0.391454
O O8 0.692362 0.000000 0.439688
O O9 0.053374 0.500000 0.271263
O O10 0.090024 0.225545 0.315545
O O11 0.074726 0.237935 0.212365
O O12 0.000000 0.231271 0.277480
O O13 0.870285 0.500000 0.650016
O O14 0.500000 0.738783 0.925460
O O15 0.590145 0.729895 0.892818
O O16 0.554300 0.000000 0.938092
O O17 0.564270 0.734256 0.000000
O O18 0.610725 0.000000 0.836504
#
# Coordination Sequence:
#
# PCOD9493384 Si02
#       6
#    16  16  16  16  16  16
#     4  11  21  32  46  64  87 113 143 180 221 264
#     4   9  17  28  42  61  85 112 141 175 215 258
#     4   8  13  22  39  62  85 112 145 175 204 244
#     4   9  17  29  45  65  88 114 144 177 214 256
#     4   8  13  22  41  71 100 122 147 180 215 253
#     4   9  16  27  44  66  91 118 147 178 213 253
#
# _framework density 17.611091999999999
#
# number of rings (size 3 to 8) (size 9 to 14) (size 15 to 20)
#    0.000    3.000    0.000    4.000    0.000    4.000 
#    0.000    0.000    0.000   14.000    0.000    4.667 
#    0.000    0.000    0.000   10.167    0.000   11.000 
#
# Total GULP energy -267493.573441 kJ/mol
# GULP energy per Si atom -5572.782780 kJ/mol
# Density = 1.757101 g / cm^3
# Si number density = 17.611092 Si / 1000 Ang^3
#
#
#
# Elastic Constant Matrix: (Units=GPa)
#
#
# Indices 1 2 3 4 5 6 
#
# 1 159.4674 -2.2188 84.1773 0.0000 0.0000 0.0000
# 2 -2.2188 28.0011 -2.9137 0.0000 0.0000 0.0000
# 3 84.1773 -2.9137 107.1522 0.0000 0.0000 0.0000
# 4 0.0000 0.0000 0.0000 1.7149 0.0000 0.0000
# 5 0.0000 0.0000 0.0000 0.0000 21.3918 0.0000
# 6 0.0000 0.0000 0.0000 0.0000 0.0000 12.9542
#
#
#
# Elastic Compliance Matrix: (Units=1/GPa)
#
#
# Indices 1 2 3 4 5 6 
#
# 1 0.010714 -0.000027 -0.008417 0.000000 0.000000 0.000000
# 2 -0.000027 0.035814 0.000995 0.000000 0.000000 0.000000
# 3 -0.008417 0.000995 0.015972 0.000000 0.000000 0.000000
# 4 0.000000 0.000000 0.000000 0.583131 0.000000 0.000000
# 5 0.000000 0.000000 0.000000 0.000000 0.046747 0.000000
# 6 0.000000 0.000000 0.000000 0.000000 0.000000 0.077195
#
#
# Mechanical properties :
#
#
# Convention : Reuss Voigt Hill
#
# Bulk Modulus (GPa) = 21.00764 50.30113 35.65438
# Shear Modulus (GPa) = 6.24735 21.58390 13.91563
#
# Velocity S-wave (km/s) = 1.88550 3.50463 2.81403
# Velocity P-wave (km/s) = 4.08591 6.70826 5.55407
#
# Compressibility (1/GPa) = 0.04760173
#
# Stress axis : x y z
#
# Youngs Moduli (GPa) = 93.33866 27.92180 62.60938
#
# Poissons Ratio (x) = 0.00075 0.52700
# Poissons Ratio (y) = 0.00251 -0.06230
# Poissons Ratio (z) = 0.78565 -0.02778
#
# Static dielectric constant tensor:
#      x y z
#    x 1.595770 0.000000 0.000000 
#    y 0.000000 1.664230 0.000000 
#    z 0.000000 0.000000 1.608110 
# 
# From -- ./inp_files/71689.got.cif
#   From: 2010.05.17/outbox.cif.g08.bks.cpg/sg65_36_cif.got.tgz:71689.got - 2010.06.03 17:01:31.
