data_PCOD9493959
_publ_section_title
;
Structure prediction by ZEFSAII (Michael W. Deem and Ramdas Pophale) SiO2 
 PCOD9493959
Probable space group: C M M M
;
_chemical_formula_sum "Si O2"
_cell_formula_units_Z 68
_cell_length_a 17.391981
_cell_length_b 22.112333
_cell_length_c 8.308266
_cell_angle_alpha 90.000000
_cell_angle_beta 90.000000
_cell_angle_gamma 90.000000
_cell_volume 3195.170302
_symmetry_space_group_name_H-M "C M M M"
_symmetry_group_IT_number 65
_symmetry_cell_setting 'orthorhombic'
loop_
_space_group_symop_operation_xyz
x,y,z
-x,-y,z
x,-y,-z
-x,y,-z
-x,-y,-z
x,y,-z
-x,y,z
x,-y,z
1/2+x,1/2+y,z
1/2-x,1/2-y,z
1/2+x,1/2-y,-z
1/2-x,1/2+y,-z
1/2-x,1/2-y,-z
1/2+x,1/2+y,-z
1/2-x,1/2+y,z
1/2+x,1/2-y,z
loop_
_atom_site_type_symbol
_atom_site_label
_atom_site_fract_x
_atom_site_fract_y
_atom_site_fract_z
Si Si1 0.000000 0.000000 0.755662
Si Si2 0.335410 0.500000 0.811777
Si Si3 0.741611 0.886514 0.309404
Si Si4 0.140822 0.788280 0.310452
Si Si5 0.587674 0.159179 0.190071
Si Si6 0.500000 0.639242 0.817842
O O1 0.910819 0.000000 0.696882
O O2 0.000000 0.067244 0.828712
O O3 0.284445 0.559047 0.779052
O O4 0.360793 0.500000 0.000000
O O5 0.754180 0.893313 0.500000
O O6 0.781383 0.822682 0.260726
O O7 0.651625 0.882533 0.272189
O O8 0.145863 0.773893 0.500000
O O9 0.114882 0.727912 0.221430
O O10 0.074117 0.836972 0.275946
O O11 0.500000 0.152409 0.249551
O O12 0.588464 0.147586 0.000000
O O13 0.500000 0.664179 0.000000
#
# Coordination Sequence:
#
# PCOD9493959 Si02
#       6
#     4   8  16  16  16   8
#     4  12  25  40  65  96 131 174 215 256 309 366
#     4  12  24  43  67  94 128 168 213 260 307 371
#     4  11  25  43  63  93 129 167 210 259 316 377
#     4  11  23  39  61  93 131 169 208 257 314 374
#     4  11  24  42  66  95 124 162 211 263 318 377
#     4  12  22  37  60  93 130 170 217 259 301 368
#
# _framework density 21.282122000000001
#
# number of rings (size 3 to 8) (size 9 to 14) (size 15 to 20)
#    0.000    0.706    3.529    4.588    0.000    7.059 
#    0.000    2.941    0.000    3.529    0.000    0.000 
#    0.000    0.000    0.000    0.000    0.000    0.000 
#
# Total GULP energy -189976.418276 kJ/mol
# GULP energy per Si atom -5587.541714 kJ/mol
# Density = 2.123368 g / cm^3
# Si number density = 21.282122 Si / 1000 Ang^3
#
#
#
# Elastic Constant Matrix: (Units=GPa)
#
#
# Indices 1 2 3 4 5 6 
#
# 1 168.3216 31.5476 11.4398 0.0000 0.0000 0.0000
# 2 31.5476 62.6505 3.7240 0.0000 0.0000 0.0000
# 3 11.4398 3.7240 35.4223 0.0000 0.0000 0.0000
# 4 0.0000 0.0000 0.0000 -9.5169 0.0000 0.0000
# 5 0.0000 0.0000 0.0000 0.0000 19.1186 0.0000
# 6 0.0000 0.0000 0.0000 0.0000 0.0000 13.8703
#
#
#
# Elastic Compliance Matrix: (Units=1/GPa)
#
#
# Indices 1 2 3 4 5 6 
#
# 1 0.006674 -0.003253 -0.001813 0.000000 0.000000 0.000000
# 2 -0.003253 0.017647 -0.000805 0.000000 0.000000 0.000000
# 3 -0.001813 -0.000805 0.028901 0.000000 0.000000 0.000000
# 4 0.000000 0.000000 0.000000 -0.105076 0.000000 0.000000
# 5 0.000000 0.000000 0.000000 0.000000 0.052305 0.000000
# 6 0.000000 0.000000 0.000000 0.000000 0.000000 0.072097
#
#
# Mechanical properties :
#
#
# Convention : Reuss Voigt Hill
#
# Bulk Modulus (GPa) = 24.10784 39.97968 32.04376
# Shear Modulus (GPa) = 50.95985 19.33993 35.14989
#
# Velocity S-wave (km/s) = 4.89866 3.01780 4.06842
# Velocity P-wave (km/s) = 6.58393 5.56500 6.09579
#
# Compressibility (1/GPa) = 0.04148029
#
# Stress axis : x y z
#
# Youngs Moduli (GPa) = 149.83701 56.66564 34.60082
#
# Poissons Ratio (x) = 0.18433 0.06274
# Poissons Ratio (y) = 0.48740 0.02785
# Poissons Ratio (z) = 0.27171 0.04560
#
# Static dielectric constant tensor:
#      x y z
#    x 1.785120 0.000000 0.000000 
#    y 0.000000 1.741890 0.000000 
#    z 0.000000 0.000000 1.740090 
# 
# From -- ./inp_files/8984.got.cif
#   From: 2010.05.17/outbox.cif.g08.bks.cpg/sg65_5_cif.got.tgz:8984.got - 2010.06.03 17:01:31.
