data_PCOD9493356
_publ_section_title
;
Structure prediction by ZEFSAII (Michael W. Deem and Ramdas Pophale) SiO2 
 PCOD9493356
Probable space group: C M M M
;
_chemical_formula_sum "Si O2"
_cell_formula_units_Z 82
_cell_length_a 22.075623
_cell_length_b 23.735162
_cell_length_c 7.920385
_cell_angle_alpha 90.000000
_cell_angle_beta 90.000000
_cell_angle_gamma 90.000000
_cell_volume 4150.032154
_symmetry_space_group_name_H-M "C M M M"
_symmetry_group_IT_number 65
_symmetry_cell_setting 'orthorhombic'
loop_
_space_group_symop_operation_xyz
x,y,z
-x,-y,z
x,-y,-z
-x,y,-z
-x,-y,-z
x,y,-z
-x,y,z
x,-y,z
1/2+x,1/2+y,z
1/2-x,1/2-y,z
1/2+x,1/2-y,-z
1/2-x,1/2+y,-z
1/2-x,1/2-y,-z
1/2+x,1/2+y,-z
1/2-x,1/2+y,z
1/2+x,1/2-y,z
loop_
_atom_site_type_symbol
_atom_site_label
_atom_site_fract_x
_atom_site_fract_y
_atom_site_fract_z
Si Si1 0.929800 0.500000 0.800191
Si Si2 0.615640 0.662845 0.299204
Si Si3 0.500000 0.591409 0.808046
Si Si4 0.866091 0.615796 0.298035
Si Si5 0.933264 0.277659 0.705397
Si Si6 0.500000 0.500000 0.500000
Si Si7 0.754423 0.815773 0.799175
O O1 0.890002 0.445243 0.753454
O O2 0.000000 0.500000 0.729930
O O3 0.936012 0.500000 0.000000
O O4 0.604050 0.659754 0.500000
O O5 0.562105 0.627576 0.213477
O O6 0.609952 0.727719 0.240045
O O7 0.685944 0.651467 0.266571
O O8 0.500000 0.548427 0.651423
O O9 0.500000 0.568436 0.000000
O O10 0.864621 0.615786 0.500000
O O11 0.915140 0.661227 0.234546
O O12 0.803148 0.644766 0.242278
O O13 0.932096 0.279128 0.500000
O O14 0.000000 0.261727 0.759331
O O15 0.750000 0.750000 0.732922
O O16 0.759400 0.811509 0.000000
#
# Coordination Sequence:
#
# PCOD9493356 Si02
#       7
#     8  16   8  16  16   2  16
#     4  11  25  45  66  91 131 178 221 274 336 398
#     4  11  20  38  65  97 134 171 218 274 338 404
#     4  12  25  45  73 104 137 176 225 282 341 405
#     4  11  22  39  64  93 124 171 227 277 329 396
#     4   9  17  30  56  92 128 162 208 267 333 397
#     4  12  26  52  72  98 128 180 214 266 334 414
#     4  11  23  38  59  94 138 178 218 272 338 407
#
# _framework density 19.758883000000001
#
# number of rings (size 3 to 8) (size 9 to 14) (size 15 to 20)
#    0.000    1.268    3.902    2.780    0.000    2.341 
#    0.000    0.976    0.000    0.000    0.000    0.000 
#    0.000    0.000    0.000    0.000    0.000    0.000 
#
# Total GULP energy -228290.535137 kJ/mol
# GULP energy per Si atom -5568.061833 kJ/mol
# Density = 1.971391 g / cm^3
# Si number density = 19.758883 Si / 1000 Ang^3
#
#
#
# Elastic Constant Matrix: (Units=GPa)
#
#
# Indices 1 2 3 4 5 6 
#
# 1 121.5700 44.8172 10.5001 0.0000 0.0000 0.0000
# 2 44.8172 121.2039 27.2991 0.0000 0.0000 0.0000
# 3 10.5001 27.2991 87.6103 0.0000 0.0000 0.0000
# 4 0.0000 0.0000 0.0000 15.2886 0.0000 0.0000
# 5 0.0000 0.0000 0.0000 0.0000 18.3394 0.0000
# 6 0.0000 0.0000 0.0000 0.0000 0.0000 17.6132
#
#
#
# Elastic Compliance Matrix: (Units=1/GPa)
#
#
# Indices 1 2 3 4 5 6 
#
# 1 0.009524 -0.003511 -0.000047 0.000000 0.000000 0.000000
# 2 -0.003511 0.010168 -0.002747 0.000000 0.000000 0.000000
# 3 -0.000047 -0.002747 0.012276 0.000000 0.000000 0.000000
# 4 0.000000 0.000000 0.000000 0.065408 0.000000 0.000000
# 5 0.000000 0.000000 0.000000 0.000000 0.054528 0.000000
# 6 0.000000 0.000000 0.000000 0.000000 0.000000 0.056775
#
#
# Mechanical properties :
#
#
# Convention : Reuss Voigt Hill
#
# Bulk Modulus (GPa) = 51.66362 55.06856 53.36609
# Shear Modulus (GPa) = 21.95459 26.76609 24.36034
#
# Velocity S-wave (km/s) = 3.33697 3.68453 3.51505
# Velocity P-wave (km/s) = 6.40710 6.78467 6.59859
#
# Compressibility (1/GPa) = 0.01935598
#
# Stress axis : x y z
#
# Youngs Moduli (GPa) = 104.99606 98.35136 81.46012
#
# Poissons Ratio (x) = 0.34532 0.00386
# Poissons Ratio (y) = 0.36865 0.22380
# Poissons Ratio (z) = 0.00498 0.27021
#
# Static dielectric constant tensor:
#      x y z
#    x 1.734370 0.000000 0.000000 
#    y 0.000000 1.759440 0.000000 
#    z 0.000000 0.000000 1.706550 
# 
# From -- ./inp_files/11635.got.cif
#   From: 2010.05.17/outbox.cif.g08.bks.cpg/sg65_6_cif.got.tgz:11635.got - 2010.06.03 17:01:31.
