data_PCOD9493969
_publ_section_title
;
Structure prediction by ZEFSAII (Michael W. Deem and Ramdas Pophale) SiO2 
 PCOD9493969
Probable space group: C M M M
;
_chemical_formula_sum "Si O2"
_cell_formula_units_Z 52
_cell_length_a 9.964682
_cell_length_b 16.860610
_cell_length_c 17.092520
_cell_angle_alpha 90.000000
_cell_angle_beta 90.000000
_cell_angle_gamma 90.000000
_cell_volume 2871.724831
_symmetry_space_group_name_H-M "C M M M"
_symmetry_group_IT_number 65
_symmetry_cell_setting 'orthorhombic'
loop_
_space_group_symop_operation_xyz
x,y,z
-x,-y,z
x,-y,-z
-x,y,-z
-x,-y,-z
x,y,-z
-x,y,z
x,-y,z
1/2+x,1/2+y,z
1/2-x,1/2-y,z
1/2+x,1/2-y,-z
1/2-x,1/2+y,-z
1/2-x,1/2-y,-z
1/2+x,1/2+y,-z
1/2-x,1/2+y,z
1/2+x,1/2-y,z
loop_
_atom_site_type_symbol
_atom_site_label
_atom_site_fract_x
_atom_site_fract_y
_atom_site_fract_z
Si Si1 0.714181 0.908224 0.408416
Si Si2 0.000000 0.688803 0.312307
Si Si3 0.267137 0.000000 0.908483
Si Si4 0.500000 0.623891 0.335192
Si Si5 0.500000 0.500000 0.803874
Si Si6 0.000000 0.585001 0.834248
O O1 0.695571 0.890269 0.500000
O O2 0.627272 0.849574 0.355858
O O3 0.868289 0.899155 0.383730
O O4 0.674286 0.000000 0.395545
O O5 0.000000 0.782677 0.319166
O O6 0.000000 0.657571 0.223559
O O7 0.365847 0.073681 0.885696
O O8 0.133851 0.000000 0.856594
O O9 0.237251 0.000000 0.000000
O O10 0.500000 0.575127 0.254336
O O11 0.000000 0.500000 0.786769
#
# Coordination Sequence:
#
# PCOD9493969 Si02
#       6
#    16   8   8   8   4   8
#     4  11  23  40  59  81 116 158 200 245 291 335
#     4  12  23  37  59  91 114 149 201 246 283 333
#     4   9  19  35  63  89 108 148 188 223 271 351
#     4  12  25  38  59  82 121 158 193 238 294 343
#     4  12  21  38  59  80 118 152 188 228 283 350
#     4   8  18  35  61  84 115 144 181 237 276 342
#
# _framework density 18.107583000000002
#
# number of rings (size 3 to 8) (size 9 to 14) (size 15 to 20)
#    0.923    0.308    1.538    6.231    0.000    6.154 
#    0.000    0.000    0.000    5.538    0.000    0.000 
#    0.000    0.000    0.000    0.000    0.000    0.000 
#
# Total GULP energy -145109.209914 kJ/mol
# GULP energy per Si atom -5581.123458 kJ/mol
# Density = 1.806637 g / cm^3
# Si number density = 18.107583 Si / 1000 Ang^3
#
#
#
# Elastic Constant Matrix: (Units=GPa)
#
#
# Indices 1 2 3 4 5 6 
#
# 1 104.4486 10.2119 18.4691 0.0000 0.0000 0.0000
# 2 10.2119 103.3913 39.0892 0.0000 0.0000 0.0000
# 3 18.4691 39.0892 87.5598 0.0000 0.0000 0.0000
# 4 0.0000 0.0000 0.0000 4.8042 0.0000 0.0000
# 5 0.0000 0.0000 0.0000 0.0000 34.7208 0.0000
# 6 0.0000 0.0000 0.0000 0.0000 0.0000 22.2771
#
#
#
# Elastic Compliance Matrix: (Units=1/GPa)
#
#
# Indices 1 2 3 4 5 6 
#
# 1 0.009949 -0.000228 -0.001997 0.000000 0.000000 0.000000
# 2 -0.000228 0.011641 -0.005149 0.000000 0.000000 0.000000
# 3 -0.001997 -0.005149 0.014141 0.000000 0.000000 0.000000
# 4 0.000000 0.000000 0.000000 0.208150 0.000000 0.000000
# 5 0.000000 0.000000 0.000000 0.000000 0.028801 0.000000
# 6 0.000000 0.000000 0.000000 0.000000 0.000000 0.044889
#
#
# Mechanical properties :
#
#
# Convention : Reuss Voigt Hill
#
# Bulk Modulus (GPa) = 47.65533 47.88222 47.76878
# Shear Modulus (GPa) = 14.73566 27.53573 21.13569
#
# Velocity S-wave (km/s) = 2.85578 3.90381 3.42018
# Velocity P-wave (km/s) = 6.10320 6.84253 6.48341
#
# Compressibility (1/GPa) = 0.02098401
#
# Stress axis : x y z
#
# Youngs Moduli (GPa) = 100.50788 85.90226 70.71831
#
# Poissons Ratio (x) = 0.01956 0.14122
# Poissons Ratio (y) = 0.02289 0.36412
# Poissons Ratio (z) = 0.20071 0.44230
#
# Static dielectric constant tensor:
#      x y z
#    x 1.654350 0.000000 0.000000 
#    y 0.000000 1.606990 0.000000 
#    z 0.000000 0.000000 1.589540 
# 
# From -- ./inp_files/58527.got.cif
#   From: 2010.05.17/outbox.cif.g08.bks.cpg/sg65_30_cif.got.tgz:58527.got - 2010.06.03 17:01:31.
