data_PCOD9493286
_publ_section_title
;
Structure prediction by ZEFSAII (Michael W. Deem and Ramdas Pophale) SiO2 
 PCOD9493286
Probable space group: C M M M
;
_chemical_formula_sum "Si O2"
_cell_formula_units_Z 72
_cell_length_a 28.202949
_cell_length_b 19.983511
_cell_length_c 8.644631
_cell_angle_alpha 90.000000
_cell_angle_beta 90.000000
_cell_angle_gamma 90.000000
_cell_volume 4872.061659
_symmetry_space_group_name_H-M "C M M M"
_symmetry_group_IT_number 65
_symmetry_cell_setting 'orthorhombic'
loop_
_space_group_symop_operation_xyz
x,y,z
-x,-y,z
x,-y,-z
-x,y,-z
-x,-y,-z
x,y,-z
-x,y,z
x,-y,z
1/2+x,1/2+y,z
1/2-x,1/2-y,z
1/2+x,1/2-y,-z
1/2-x,1/2+y,-z
1/2-x,1/2-y,-z
1/2+x,1/2+y,-z
1/2-x,1/2+y,z
1/2+x,1/2-y,z
loop_
_atom_site_type_symbol
_atom_site_label
_atom_site_fract_x
_atom_site_fract_y
_atom_site_fract_z
Si Si1 0.847694 0.500000 0.181832
Si Si2 0.824905 0.720411 0.813130
Si Si3 0.401360 0.127552 0.683598
Si Si4 0.000000 0.421490 0.185335
Si Si5 0.727545 0.353119 0.811311
Si Si6 0.233949 0.000000 0.182915
O O1 0.869821 0.434959 0.259420
O O2 0.791072 0.500000 0.193333
O O3 0.860322 0.500000 0.000000
O O4 0.872999 0.692446 0.742235
O O5 0.780055 0.673318 0.767475
O O6 0.809594 0.795464 0.767548
O O7 0.828092 0.717459 0.000000
O O8 0.404638 0.127874 0.500000
O O9 0.453061 0.115074 0.754354
O O10 0.000000 0.500000 0.236530
O O11 0.000000 0.421635 0.000000
O O12 0.717824 0.428074 0.753178
O O13 0.728120 0.355144 0.000000
O O14 0.221707 0.000000 0.000000
#
# Coordination Sequence:
#
# PCOD9493286 Si02
#       6
#     8  16  16   8  16   8
#     4  11  19  30  48  65  87 123 161 191 224 269
#     4   9  16  29  46  64  88 122 159 190 224 270
#     4  12  23  33  46  66  94 120 150 193 236 271
#     4  11  23  37  53  67  84 117 158 191 224 266
#     4   8  14  24  43  68  90 116 158 200 225 256
#     4   9  14  23  44  70  89 114 158 204 230 251
#
# _framework density 14.778138
#
# number of rings (size 3 to 8) (size 9 to 14) (size 15 to 20)
#    0.000    2.111    3.333    4.000    0.000    0.444 
#    0.000    2.222    0.000    0.000    0.000    0.000 
#    0.000    0.889    0.000   10.444    0.000    2.000 
#
# Total GULP energy -200702.304460 kJ/mol
# GULP energy per Si atom -5575.064013 kJ/mol
# Density = 1.474450 g / cm^3
# Si number density = 14.778138 Si / 1000 Ang^3
#
#
#
# Elastic Constant Matrix: (Units=GPa)
#
#
# Indices 1 2 3 4 5 6 
#
# 1 81.8418 56.3190 32.5893 0.0000 0.0000 0.0000
# 2 56.3190 135.9136 26.1326 0.0000 0.0000 0.0000
# 3 32.5893 26.1326 46.7891 0.0000 0.0000 0.0000
# 4 0.0000 0.0000 0.0000 5.7565 0.0000 0.0000
# 5 0.0000 0.0000 0.0000 0.0000 -270.6918 0.0000
# 6 0.0000 0.0000 0.0000 0.0000 0.0000 23.0809
#
#
#
# Elastic Compliance Matrix: (Units=1/GPa)
#
#
# Indices 1 2 3 4 5 6 
#
# 1 0.021201 -0.006661 -0.011047 0.000000 0.000000 0.000000
# 2 -0.006661 0.010336 -0.001133 0.000000 0.000000 0.000000
# 3 -0.011047 -0.001133 0.029699 0.000000 0.000000 0.000000
# 4 0.000000 0.000000 0.000000 0.173716 0.000000 0.000000
# 5 0.000000 0.000000 0.000000 0.000000 -0.003694 0.000000
# 6 0.000000 0.000000 0.000000 0.000000 0.000000 0.043326
#
#
# Mechanical properties :
#
#
# Convention : Reuss Voigt Hill
#
# Bulk Modulus (GPa) = 42.45438 54.95850 48.70644
# Shear Modulus (GPa) = 15.61926 -38.40396 -11.39235
#
# Velocity S-wave (km/s) = 3.25455 -5.10328 -2.77951
# Velocity P-wave (km/s) = 6.55080 1.59537 4.76751
#
# Compressibility (1/GPa) = 0.02355469
#
# Stress axis : x y z
#
# Youngs Moduli (GPa) = 47.16666 96.75167 33.67067
#
# Poissons Ratio (x) = 0.64450 0.37195
# Poissons Ratio (y) = 0.31419 0.03815
# Poissons Ratio (z) = 0.52103 0.10962
#
# Static dielectric constant tensor:
#      x y z
#    x 1.466490 0.000000 0.000000 
#    y 0.000000 1.516190 0.000000 
#    z 0.000000 0.000000 1.489580 
# 
# From -- ./inp_files/11328.got.cif
#   From: 2010.05.17/outbox.cif.g08.bks.cpg/sg65_6_cif.got.tgz:11328.got - 2010.06.03 17:01:31.
