data_PCOD9493428
_publ_section_title
;
Structure prediction by ZEFSAII (Michael W. Deem and Ramdas Pophale) SiO2 
 PCOD9493428
Probable space group: C M M M
;
_chemical_formula_sum "Si O2"
_cell_formula_units_Z 96
_cell_length_a 8.220756
_cell_length_b 24.375004
_cell_length_c 26.225242
_cell_angle_alpha 90.000000
_cell_angle_beta 90.000000
_cell_angle_gamma 90.000000
_cell_volume 5255.039178
_symmetry_space_group_name_H-M "C M M M"
_symmetry_group_IT_number 65
_symmetry_cell_setting 'orthorhombic'
loop_
_space_group_symop_operation_xyz
x,y,z
-x,-y,z
x,-y,-z
-x,y,-z
-x,-y,-z
x,y,-z
-x,y,z
x,-y,z
1/2+x,1/2+y,z
1/2-x,1/2-y,z
1/2+x,1/2-y,-z
1/2-x,1/2+y,-z
1/2-x,1/2-y,-z
1/2+x,1/2+y,-z
1/2-x,1/2+y,z
1/2+x,1/2-y,z
loop_
_atom_site_type_symbol
_atom_site_label
_atom_site_fract_x
_atom_site_fract_y
_atom_site_fract_z
Si Si1 0.803307 0.188412 0.058050
Si Si2 0.800944 0.500000 0.308197
Si Si3 0.805990 0.116472 0.848377
Si Si4 0.801211 0.381904 0.346851
Si Si5 0.696587 0.811719 0.442083
Si Si6 0.194848 0.312728 0.248178
Si Si7 0.806442 0.500000 0.809572
O O1 0.750000 0.250000 0.072241
O O2 0.744089 0.144876 0.099707
O O3 0.000000 0.187400 0.057855
O O4 0.747249 0.177771 0.000000
O O5 0.748904 0.444101 0.335808
O O6 0.745409 0.500000 0.249186
O O7 0.000000 0.500000 0.307570
O O8 0.756915 0.154502 0.800862
O O9 0.746155 0.055238 0.837735
O O10 0.000000 0.114912 0.851235
O O11 0.746393 0.354816 0.399739
O O12 0.749789 0.343840 0.299456
O O13 0.000000 0.382046 0.347313
O O14 0.753039 0.822968 0.500000
O O15 0.500000 0.812736 0.442390
O O16 0.750000 0.750000 0.428449
O O17 0.250000 0.250000 0.247670
O O18 0.000000 0.314518 0.247382
O O19 0.000000 0.500000 0.806261
#
# Coordination Sequence:
#
# PCOD9493428 Si02
#       7
#    16   8  16  16  16  16   8
#     4   9  19  36  57  80 107 140 175 213 262 314
#     4   9  16  31  52  72  95 133 172 207 254 307
#     4  11  22  36  55  80 108 137 175 221 263 311
#     4   9  17  30  49  72 100 133 172 212 257 312
#     4   9  17  30  49  73 100 131 168 211 257 307
#     4  11  21  33  50  75 106 139 173 214 266 319
#     4  11  21  37  58  77 103 144 181 214 261 315
#
# _framework density 18.268179
#
# number of rings (size 3 to 8) (size 9 to 14) (size 15 to 20)
#    0.000    2.167    1.667    2.250    0.000    2.667 
#    0.000    1.667    0.000    5.000    0.000    0.000 
#    0.000    2.667    0.000    0.000    0.000    0.000 
#
# Total GULP energy -267917.559613 kJ/mol
# GULP energy per Si atom -5581.615825 kJ/mol
# Density = 1.822660 g / cm^3
# Si number density = 18.268179 Si / 1000 Ang^3
#
#
#
# Elastic Constant Matrix: (Units=GPa)
#
#
# Indices 1 2 3 4 5 6 
#
# 1 15.9036 15.2026 15.0069 0.0000 0.0000 0.0000
# 2 15.2026 202.8799 121.0667 0.0000 0.0000 0.0000
# 3 15.0069 121.0667 149.2351 0.0000 0.0000 0.0000
# 4 0.0000 0.0000 0.0000 24.1993 0.0000 0.0000
# 5 0.0000 0.0000 0.0000 0.0000 14.1761 0.0000
# 6 0.0000 0.0000 0.0000 0.0000 0.0000 19.9358
#
#
#
# Elastic Compliance Matrix: (Units=1/GPa)
#
#
# Indices 1 2 3 4 5 6 
#
# 1 0.069896 -0.002022 -0.005388 0.000000 0.000000 0.000000
# 2 -0.002022 0.009613 -0.007595 0.000000 0.000000 0.000000
# 3 -0.005388 -0.007595 0.013404 0.000000 0.000000 0.000000
# 4 0.000000 0.000000 0.000000 0.041323 0.000000 0.000000
# 5 0.000000 0.000000 0.000000 0.000000 0.070541 0.000000
# 6 0.000000 0.000000 0.000000 0.000000 0.000000 0.050161
#
#
# Mechanical properties :
#
#
# Convention : Reuss Voigt Hill
#
# Bulk Modulus (GPa) = 15.89768 74.50787 45.20278
# Shear Modulus (GPa) = 16.34431 26.11175 21.22803
#
# Velocity S-wave (km/s) = 2.99438 3.78479 3.41254
# Velocity P-wave (km/s) = 4.54712 7.74426 6.35020
#
# Compressibility (1/GPa) = 0.06290226
#
# Stress axis : x y z
#
# Youngs Moduli (GPa) = 14.30695 104.02771 74.60411
#
# Poissons Ratio (x) = 0.21038 0.40197
# Poissons Ratio (y) = 0.02893 0.56662
# Poissons Ratio (z) = 0.07709 0.79009
#
# Static dielectric constant tensor:
#      x y z
#    x 1.644190 0.000000 0.000000 
#    y 0.000000 1.591330 0.000000 
#    z 0.000000 0.000000 1.635870 
# 
# From -- ./inp_files/67881.got.cif
#   From: 2010.05.17/outbox.cif.g08.bks.cpg/sg65_34_cif.got.tgz:67881.got - 2010.06.03 17:01:31.
