data_PCOD9493782
_publ_section_title
;
Structure prediction by ZEFSAII (Michael W. Deem and Ramdas Pophale) SiO2 
 PCOD9493782
Probable space group: C M M M
;
_chemical_formula_sum "Si O2"
_cell_formula_units_Z 48
_cell_length_a 8.115671
_cell_length_b 15.845346
_cell_length_c 17.970106
_cell_angle_alpha 90.000000
_cell_angle_beta 90.000000
_cell_angle_gamma 90.000000
_cell_volume 2310.876833
_symmetry_space_group_name_H-M "C M M M"
_symmetry_group_IT_number 65
_symmetry_cell_setting 'orthorhombic'
loop_
_space_group_symop_operation_xyz
x,y,z
-x,-y,z
x,-y,-z
-x,y,-z
-x,-y,-z
x,y,-z
-x,y,z
x,-y,z
1/2+x,1/2+y,z
1/2-x,1/2-y,z
1/2+x,1/2-y,-z
1/2-x,1/2+y,-z
1/2-x,1/2-y,-z
1/2+x,1/2+y,-z
1/2-x,1/2+y,z
1/2+x,1/2-y,z
loop_
_atom_site_type_symbol
_atom_site_label
_atom_site_fract_x
_atom_site_fract_y
_atom_site_fract_z
Si Si1 0.701115 0.599462 0.160715
Si Si2 0.696124 0.659189 0.680989
Si Si3 0.305772 0.397023 0.000000
Si Si4 0.696411 0.000000 0.584269
O O1 0.500000 0.603999 0.158660
O O2 0.741349 0.500000 0.168368
O O3 0.761548 0.645734 0.234603
O O4 0.763589 0.630537 0.080009
O O5 0.500000 0.656742 0.685393
O O6 0.750000 0.750000 0.652182
O O7 0.750485 0.582556 0.629391
O O8 0.297434 0.500000 0.000000
O O9 0.500000 0.375440 0.000000
O O10 0.500000 0.000000 0.580609
O O11 0.762984 0.000000 0.500000
#
# Coordination Sequence:
#
# PCOD9493782 Si02
#       4
#    16  16   8   8
#     4   8  13  25  47  77 111 150 194 238 283 333
#     4  11  22  38  61  90 123 157 196 238 287 346
#     4   7  10  18  39  72 108 145 190 238 280 325
#     4  11  25  45  67  90 115 146 188 239 297 357
#
# _framework density 20.771335000000001
#
# number of rings (size 3 to 8) (size 9 to 14) (size 15 to 20)
#    0.000    2.667    1.667    3.500    0.000    2.000 
#    0.000    0.833    0.000    0.000    0.000    4.667 
#    0.000    0.000    0.000    0.000    0.000    0.000 
#
# Total GULP energy -133885.741737 kJ/mol
# GULP energy per Si atom -5578.572572 kJ/mol
# Density = 2.072406 g / cm^3
# Si number density = 20.771335 Si / 1000 Ang^3
#
#
#
# Elastic Constant Matrix: (Units=GPa)
#
#
# Indices 1 2 3 4 5 6 
#
# 1 28.6173 13.3683 23.2345 0.0000 0.0000 0.0000
# 2 13.3683 128.9498 82.1189 0.0000 0.0000 0.0000
# 3 23.2345 82.1189 177.5729 0.0000 0.0000 0.0000
# 4 0.0000 0.0000 0.0000 -10.2137 0.0000 0.0000
# 5 0.0000 0.0000 0.0000 0.0000 -16.6805 0.0000
# 6 0.0000 0.0000 0.0000 0.0000 0.0000 17.5728
#
#
#
# Elastic Compliance Matrix: (Units=1/GPa)
#
#
# Indices 1 2 3 4 5 6 
#
# 1 0.039213 -0.001131 -0.004608 0.000000 0.000000 0.000000
# 2 -0.001131 0.011025 -0.004950 0.000000 0.000000 0.000000
# 3 -0.004608 -0.004950 0.008524 0.000000 0.000000 0.000000
# 4 0.000000 0.000000 0.000000 -0.097908 0.000000 0.000000
# 5 0.000000 0.000000 0.000000 0.000000 -0.059950 0.000000
# 6 0.000000 0.000000 0.000000 0.000000 0.000000 0.056906
#
#
# Mechanical properties :
#
#
# Convention : Reuss Voigt Hill
#
# Bulk Modulus (GPa) = 26.74980 63.62039 45.18509
# Shear Modulus (GPa) = -598.74852 12.56361 -293.09245
#
# Velocity S-wave (km/s) = -16.99656 2.46204 -11.89162
# Velocity P-wave (km/s) = 19.29433 6.22717 12.91304
#
# Compressibility (1/GPa) = 0.03738346
#
# Stress axis : x y z
#
# Youngs Moduli (GPa) = 25.50154 90.70466 117.31906
#
# Poissons Ratio (x) = 0.10257 0.54059
# Poissons Ratio (y) = 0.02884 0.58078
# Poissons Ratio (z) = 0.11751 0.44903
#
# Static dielectric constant tensor:
#      x y z
#    x 1.722650 0.000000 0.000000 
#    y 0.000000 1.710750 0.000000 
#    z 0.000000 0.000000 1.799790 
# 
# From -- ./inp_files/48472.got.cif
#   From: 2010.05.17/outbox.cif.g08.bks.cpg/sg65_25_cif.got.tgz:48472.got - 2010.06.03 17:01:31.
