data_PCOD9493741
_publ_section_title
;
Structure prediction by ZEFSAII (Michael W. Deem and Ramdas Pophale) SiO2 
 PCOD9493741
Probable space group: C M M M
;
_chemical_formula_sum "Si O2"
_cell_formula_units_Z 56
_cell_length_a 8.155417
_cell_length_b 18.707033
_cell_length_c 18.612600
_cell_angle_alpha 90.000000
_cell_angle_beta 90.000000
_cell_angle_gamma 90.000000
_cell_volume 2839.606284
_symmetry_space_group_name_H-M "C M M M"
_symmetry_group_IT_number 65
_symmetry_cell_setting 'orthorhombic'
loop_
_space_group_symop_operation_xyz
x,y,z
-x,-y,z
x,-y,-z
-x,y,-z
-x,-y,-z
x,y,-z
-x,y,z
x,-y,z
1/2+x,1/2+y,z
1/2-x,1/2-y,z
1/2+x,1/2-y,-z
1/2-x,1/2+y,-z
1/2-x,1/2-y,-z
1/2+x,1/2+y,-z
1/2-x,1/2+y,z
1/2+x,1/2-y,z
loop_
_atom_site_type_symbol
_atom_site_label
_atom_site_fract_x
_atom_site_fract_y
_atom_site_fract_z
Si Si1 0.304123 0.081537 0.500000
Si Si2 0.301969 0.668382 0.080600
Si Si3 0.804220 0.832011 0.359614
Si Si4 0.299242 0.417811 0.780542
O O1 0.500000 0.078636 0.500000
O O2 0.250007 0.123993 0.429293
O O3 0.239749 0.000000 0.500000
O O4 0.500000 0.665974 0.080092
O O5 0.250000 0.750000 0.094575
O O6 0.244602 0.617465 0.144613
O O7 0.244778 0.648939 0.000000
O O8 0.750000 0.750000 0.363358
O O9 0.743167 0.870802 0.287157
O O10 0.000000 0.833056 0.357402
O O11 0.500000 0.417199 0.780500
O O12 0.247631 0.500000 0.773761
#
# Coordination Sequence:
#
# PCOD9493741 Si02
#       4
#     8  16  16  16
#     4  11  24  41  60  83 111 139 172 217 266 317
#     4   9  17  30  50  75 103 136 173 214 259 308
#     4  11  22  37  58  81 108 142 180 220 263 314
#     4   9  18  32  51  77 106 136 174 219 264 310
#
# _framework density 19.721043999999999
#
# number of rings (size 3 to 8) (size 9 to 14) (size 15 to 20)
#    0.000    2.143    0.000    3.429    0.000    2.857 
#    0.000    4.286    0.000    4.286    0.000    4.000 
#    0.000    0.000    0.000    0.000    0.000    0.000 
#
# Total GULP energy -156394.601386 kJ/mol
# GULP energy per Si atom -5585.521478 kJ/mol
# Density = 1.967616 g / cm^3
# Si number density = 19.721044 Si / 1000 Ang^3
#
#
#
# Elastic Constant Matrix: (Units=GPa)
#
#
# Indices 1 2 3 4 5 6 
#
# 1 21.9181 17.3496 19.3671 0.0000 0.0000 0.0000
# 2 17.3496 202.9414 140.0901 0.0000 0.0000 0.0000
# 3 19.3671 140.0901 196.1658 0.0000 0.0000 0.0000
# 4 0.0000 0.0000 0.0000 0.9421 0.0000 0.0000
# 5 0.0000 0.0000 0.0000 0.0000 -2.3610 0.0000
# 6 0.0000 0.0000 0.0000 0.0000 0.0000 11.6915
#
#
#
# Elastic Compliance Matrix: (Units=1/GPa)
#
#
# Indices 1 2 3 4 5 6 
#
# 1 0.050287 -0.001720 -0.003737 0.000000 0.000000 0.000000
# 2 -0.001720 0.009777 -0.006813 0.000000 0.000000 0.000000
# 3 -0.003737 -0.006813 0.010332 0.000000 0.000000 0.000000
# 4 0.000000 0.000000 0.000000 1.061445 0.000000 0.000000
# 5 0.000000 0.000000 0.000000 0.000000 -0.423557 0.000000
# 6 0.000000 0.000000 0.000000 0.000000 0.000000 0.085532
#
#
# Mechanical properties :
#
#
# Convention : Reuss Voigt Hill
#
# Bulk Modulus (GPa) = 21.80619 86.07100 53.93860
# Shear Modulus (GPa) = 5.99779 18.33576 12.16677
#
# Velocity S-wave (km/s) = 1.74583 3.05250 2.48653
# Velocity P-wave (km/s) = 3.89168 7.49417 5.97109
#
# Compressibility (1/GPa) = 0.04585854
#
# Stress axis : x y z
#
# Youngs Moduli (GPa) = 19.88571 102.27838 96.78877
#
# Poissons Ratio (x) = 0.17588 0.36167
# Poissons Ratio (y) = 0.03420 0.65938
# Poissons Ratio (z) = 0.07431 0.69678
#
# Static dielectric constant tensor:
#      x y z
#    x 1.691650 0.000000 0.000000 
#    y 0.000000 1.661770 0.000000 
#    z 0.000000 0.000000 1.690160 
# 
# From -- ./inp_files/35500.got.cif
#   From: 2010.05.17/outbox.cif.g08.bks.cpg/sg65_18_cif.got.tgz:35500.got - 2010.06.03 17:01:31.
