data_PCOD9493548
_publ_section_title
;
Structure prediction by ZEFSAII (Michael W. Deem and Ramdas Pophale) SiO2 
 PCOD9493548
Probable space group: C M M M
;
_chemical_formula_sum "Si O2"
_cell_formula_units_Z 80
_cell_length_a 21.537435
_cell_length_b 16.856535
_cell_length_c 11.899415
_cell_angle_alpha 90.000000
_cell_angle_beta 90.000000
_cell_angle_gamma 90.000000
_cell_volume 4320.041288
_symmetry_space_group_name_H-M "C M M M"
_symmetry_group_IT_number 65
_symmetry_cell_setting 'orthorhombic'
loop_
_space_group_symop_operation_xyz
x,y,z
-x,-y,z
x,-y,-z
-x,y,-z
-x,-y,-z
x,y,-z
-x,y,z
x,-y,z
1/2+x,1/2+y,z
1/2-x,1/2-y,z
1/2+x,1/2-y,-z
1/2-x,1/2+y,-z
1/2-x,1/2-y,-z
1/2+x,1/2+y,-z
1/2-x,1/2+y,z
1/2+x,1/2-y,z
loop_
_atom_site_type_symbol
_atom_site_label
_atom_site_fract_x
_atom_site_fract_y
_atom_site_fract_z
Si Si1 0.238346 0.654498 0.627793
Si Si2 0.874944 0.325560 0.224935
Si Si3 0.332746 0.408408 0.000000
Si Si4 0.926393 0.000000 0.627710
Si Si5 0.207315 0.671898 0.000000
Si Si6 0.500000 0.095556 0.134800
Si Si7 0.136689 0.142593 0.755328
O O1 0.243473 0.625710 0.500000
O O2 0.250000 0.750000 0.626254
O O3 0.171233 0.637818 0.681557
O O4 0.294232 0.626357 0.706737
O O5 0.834483 0.327211 0.110511
O O6 0.883489 0.233710 0.262034
O O7 0.939003 0.368700 0.195278
O O8 0.359923 0.369850 0.111748
O O9 0.348816 0.500000 0.000000
O O10 0.258227 0.397416 0.000000
O O11 0.905168 0.921781 0.693833
O O12 0.901026 0.000000 0.500000
O O13 0.000000 0.000000 0.621615
O O14 0.250000 0.750000 0.000000
O O15 0.500000 0.000000 0.142573
O O16 0.500000 0.115577 0.000000
#
# Coordination Sequence:
#
# PCOD9493548 Si02
#       7
#    16  16   8   8   8   8  16
#     4   9  18  35  62  92 119 152 204 264 312 365
#     4  11  21  38  65  90 122 165 213 259 318 380
#     4  12  22  34  56  95 129 161 201 253 322 372
#     4  11  26  45  61  87 133 175 211 256 306 374
#     4  12  18  35  59  93 126 159 200 264 320 371
#     4  11  26  44  61  90 129 168 215 263 318 388
#     4  11  21  38  63  93 125 163 209 259 314 377
#
# _framework density 18.518342000000001
#
# number of rings (size 3 to 8) (size 9 to 14) (size 15 to 20)
#    0.000    1.200    6.000    1.200    1.400    1.600 
#    1.800    1.500    0.000    0.600    0.000    0.000 
#    0.000    0.000    0.000    0.000    0.000    0.000 
#
# Total GULP energy -223287.375710 kJ/mol
# GULP energy per Si atom -5582.184393 kJ/mol
# Density = 1.847619 g / cm^3
# Si number density = 18.518342 Si / 1000 Ang^3
#
#
#
# Elastic Constant Matrix: (Units=GPa)
#
#
# Indices 1 2 3 4 5 6 
#
# 1 118.9242 37.0800 44.9395 0.0000 0.0000 0.0000
# 2 37.0800 61.9825 21.3276 0.0000 0.0000 0.0000
# 3 44.9395 21.3276 131.9554 0.0000 0.0000 0.0000
# 4 0.0000 0.0000 0.0000 14.1782 0.0000 0.0000
# 5 0.0000 0.0000 0.0000 0.0000 250.8890 0.0000
# 6 0.0000 0.0000 0.0000 0.0000 0.0000 29.4484
#
#
#
# Elastic Compliance Matrix: (Units=1/GPa)
#
#
# Indices 1 2 3 4 5 6 
#
# 1 0.011308 -0.005760 -0.002920 0.000000 0.000000 0.000000
# 2 -0.005760 0.020018 -0.001274 0.000000 0.000000 0.000000
# 3 -0.002920 -0.001274 0.008779 0.000000 0.000000 0.000000
# 4 0.000000 0.000000 0.000000 0.070531 0.000000 0.000000
# 5 0.000000 0.000000 0.000000 0.000000 0.003986 0.000000
# 6 0.000000 0.000000 0.000000 0.000000 0.000000 0.033958
#
#
# Mechanical properties :
#
#
# Convention : Reuss Voigt Hill
#
# Bulk Modulus (GPa) = 49.51331 57.72848 53.62090
# Shear Modulus (GPa) = 28.53572 72.87080 50.70326
#
# Velocity S-wave (km/s) = 3.92974 6.27981 5.23827
# Velocity P-wave (km/s) = 6.88375 9.15548 8.09965
#
# Compressibility (1/GPa) = 0.02019659
#
# Stress axis : x y z
#
# Youngs Moduli (GPa) = 88.43153 49.95563 113.91211
#
# Poissons Ratio (x) = 0.28775 0.33264
# Poissons Ratio (y) = 0.50938 0.14509
# Poissons Ratio (z) = 0.25824 0.06363
#
# Static dielectric constant tensor:
#      x y z
#    x 1.625480 0.000000 0.000000 
#    y 0.000000 1.663300 0.000000 
#    z 0.000000 0.000000 1.723520 
# 
# From -- ./inp_files/28636.got.cif
#   From: 2010.05.17/outbox.cif.g08.bks.cpg/sg65_15_cif.got.tgz:28636.got - 2010.06.03 17:01:31.
