data_PCOD9493901
_publ_section_title
;
Structure prediction by ZEFSAII (Michael W. Deem and Ramdas Pophale) SiO2 
 PCOD9493901
Probable space group: C M M M
;
_chemical_formula_sum "Si O2"
_cell_formula_units_Z 64
_cell_length_a 8.836971
_cell_length_b 18.709263
_cell_length_c 21.613844
_cell_angle_alpha 90.000000
_cell_angle_beta 90.000000
_cell_angle_gamma 90.000000
_cell_volume 3573.486308
_symmetry_space_group_name_H-M "C M M M"
_symmetry_group_IT_number 65
_symmetry_cell_setting 'orthorhombic'
loop_
_space_group_symop_operation_xyz
x,y,z
-x,-y,z
x,-y,-z
-x,y,-z
-x,-y,-z
x,y,-z
-x,y,z
x,-y,z
1/2+x,1/2+y,z
1/2-x,1/2-y,z
1/2+x,1/2-y,-z
1/2-x,1/2+y,-z
1/2-x,1/2-y,-z
1/2+x,1/2+y,-z
1/2-x,1/2+y,z
1/2+x,1/2-y,z
loop_
_atom_site_type_symbol
_atom_site_label
_atom_site_fract_x
_atom_site_fract_y
_atom_site_fract_z
Si Si1 0.675516 0.586795 0.000000
Si Si2 0.318018 0.083052 0.128780
Si Si3 0.316823 0.584598 0.635572
Si Si4 0.323161 0.586758 0.500000
Si Si5 0.318056 0.171128 0.250286
O O1 0.752477 0.610433 0.936223
O O2 0.688169 0.500000 0.000000
O O3 0.500000 0.606034 0.000000
O O4 0.500000 0.083956 0.124820
O O5 0.271649 0.129143 0.187899
O O6 0.271002 0.000000 0.137307
O O7 0.500000 0.591977 0.637292
O O8 0.283902 0.500000 0.642508
O O9 0.261266 0.608620 0.567006
O O10 0.242517 0.628575 0.690338
O O11 0.319631 0.500000 0.500000
O O12 0.500000 0.607349 0.500000
O O13 0.500000 0.173945 0.252049
O O14 0.250000 0.250000 0.249821
#
# Coordination Sequence:
#
# PCOD9493901 Si02
#       5
#     8  16  16   8  16
#     4   9  17  29  50  81 108 127 157 205 252 297
#     4   9  18  34  55  76 100 132 167 205 253 307
#     4   9  17  32  56  82 106 134 169 210 257 309
#     4   7  12  26  50  79 106 131 163 205 254 307
#     4  11  23  37  52  73 104 140 178 217 258 305
#
# _framework density 17.909680999999999
#
# number of rings (size 3 to 8) (size 9 to 14) (size 15 to 20)
#    0.000    2.750    0.000    3.375    0.000    5.000 
#    0.000    4.375    0.000    2.250    0.000    0.000 
#    0.000    0.000    0.000    0.000    0.000    0.000 
#
# Total GULP energy -178369.535452 kJ/mol
# GULP energy per Si atom -5574.047983 kJ/mol
# Density = 1.786892 g / cm^3
# Si number density = 17.909681 Si / 1000 Ang^3
#
#
#
# Elastic Constant Matrix: (Units=GPa)
#
#
# Indices 1 2 3 4 5 6 
#
# 1 26.9080 35.1693 55.4138 0.0000 0.0000 0.0000
# 2 35.1693 73.7361 90.6004 0.0000 0.0000 0.0000
# 3 55.4138 90.6004 235.6425 0.0000 0.0000 0.0000
# 4 0.0000 0.0000 0.0000 -6.5962 0.0000 0.0000
# 5 0.0000 0.0000 0.0000 0.0000 28.2302 0.0000
# 6 0.0000 0.0000 0.0000 0.0000 0.0000 10.2086
#
#
#
# Elastic Compliance Matrix: (Units=1/GPa)
#
#
# Indices 1 2 3 4 5 6 
#
# 1 0.111904 -0.039880 -0.010982 0.000000 0.000000 0.000000
# 2 -0.039880 0.039918 -0.005970 0.000000 0.000000 0.000000
# 3 -0.010982 -0.005970 0.009122 0.000000 0.000000 0.000000
# 4 0.000000 0.000000 0.000000 -0.151603 0.000000 0.000000
# 5 0.000000 0.000000 0.000000 0.000000 0.035423 0.000000
# 6 0.000000 0.000000 0.000000 0.000000 0.000000 0.097957
#
#
# Mechanical properties :
#
#
# Convention : Reuss Voigt Hill
#
# Bulk Modulus (GPa) = 21.15059 77.62818 49.38938
# Shear Modulus (GPa) = 18.37265 16.70873 17.54069
#
# Velocity S-wave (km/s) = 3.20636 3.05773 3.13293
# Velocity P-wave (km/s) = 5.05400 7.47694 6.38152
#
# Compressibility (1/GPa) = 0.04728001
#
# Stress axis : x y z
#
# Youngs Moduli (GPa) = 8.93624 25.05145 109.63092
#
# Poissons Ratio (x) = 0.99905 1.20400
# Poissons Ratio (y) = 0.35637 0.65445
# Poissons Ratio (z) = 0.09814 0.14955
#
# Static dielectric constant tensor:
#      x y z
#    x 1.598080 0.000000 0.000000 
#    y 0.000000 1.585030 0.000000 
#    z 0.000000 0.000000 1.625950 
# 
# From -- ./inp_files/58789.got.cif
#   From: 2010.05.17/outbox.cif.g08.bks.cpg/sg65_30_cif.got.tgz:58789.got - 2010.06.03 17:01:31.
