data_PCOD9493979
_publ_section_title
;
Structure prediction by ZEFSAII (Michael W. Deem and Ramdas Pophale) SiO2 
 PCOD9493979
Probable space group: C M M M
;
_chemical_formula_sum "Si O2"
_cell_formula_units_Z 50
_cell_length_a 15.464739
_cell_length_b 9.457836
_cell_length_c 17.190170
_cell_angle_alpha 90.000000
_cell_angle_beta 90.000000
_cell_angle_gamma 90.000000
_cell_volume 2514.285237
_symmetry_space_group_name_H-M "C M M M"
_symmetry_group_IT_number 65
_symmetry_cell_setting 'orthorhombic'
loop_
_space_group_symop_operation_xyz
x,y,z
-x,-y,z
x,-y,-z
-x,y,-z
-x,-y,-z
x,y,-z
-x,y,z
x,-y,z
1/2+x,1/2+y,z
1/2-x,1/2-y,z
1/2+x,1/2-y,-z
1/2-x,1/2+y,-z
1/2-x,1/2-y,-z
1/2+x,1/2+y,-z
1/2-x,1/2+y,z
1/2+x,1/2-y,z
loop_
_atom_site_type_symbol
_atom_site_label
_atom_site_fract_x
_atom_site_fract_y
_atom_site_fract_z
Si Si1 0.644761 0.757648 0.000000
Si Si2 0.500000 0.500000 0.000000
Si Si3 0.834422 0.831332 0.309782
Si Si4 0.500000 0.671602 0.411405
Si Si5 0.602904 0.844876 0.828106
O O1 0.750000 0.750000 0.000000
O O2 0.578478 0.623034 0.000000
O O3 0.622877 0.833232 0.918931
O O4 0.750000 0.750000 0.337635
O O5 0.915426 0.787945 0.363049
O O6 0.853735 0.777572 0.222391
O O7 0.825187 0.000000 0.311817
O O8 0.500000 0.500000 0.413937
O O9 0.500000 0.723384 0.500000
O O10 0.500000 0.833116 0.818014
O O11 0.631327 0.000000 0.799196
#
# Coordination Sequence:
#
# PCOD9493979 Si02
#       5
#     8   2  16   8  16
#     4  12  27  43  67  95 139 187 231 293 345 407
#     4  12  28  44  66 106 132 180 240 304 344 442
#     4  11  23  40  66  97 130 171 218 268 329 399
#     4   9  20  41  67  94 128 170 211 260 324 397
#     4  11  23  42  65  93 133 176 227 281 337 396
#
# _framework density 19.886367
#
# number of rings (size 3 to 8) (size 9 to 14) (size 15 to 20)
#    0.000    1.120    3.200    2.400    4.480    1.920 
#    0.000    0.000    0.000    6.720    0.000    0.000 
#    0.000    0.000    0.000    0.000    0.000    0.000 
#
# Total GULP energy -139307.320105 kJ/mol
# GULP energy per Si atom -5572.292804 kJ/mol
# Density = 1.984110 g / cm^3
# Si number density = 19.886367 Si / 1000 Ang^3
#
#
#
# Elastic Constant Matrix: (Units=GPa)
#
#
# Indices 1 2 3 4 5 6 
#
# 1 166.2381 65.9474 45.7376 0.0000 0.0000 0.0000
# 2 65.9474 104.3553 27.9371 0.0000 0.0000 0.0000
# 3 45.7376 27.9371 111.8494 0.0000 0.0000 0.0000
# 4 0.0000 0.0000 0.0000 5.6335 0.0000 0.0000
# 5 0.0000 0.0000 0.0000 0.0000 -3.8752 0.0000
# 6 0.0000 0.0000 0.0000 0.0000 0.0000 33.5168
#
#
#
# Elastic Compliance Matrix: (Units=1/GPa)
#
#
# Indices 1 2 3 4 5 6 
#
# 1 0.008547 -0.004785 -0.002300 0.000000 0.000000 0.000000
# 2 -0.004785 0.012949 -0.001277 0.000000 0.000000 0.000000
# 3 -0.002300 -0.001277 0.010200 0.000000 0.000000 0.000000
# 4 0.000000 0.000000 0.000000 0.177508 0.000000 0.000000
# 5 0.000000 0.000000 0.000000 0.000000 -0.258053 0.000000
# 6 0.000000 0.000000 0.000000 0.000000 0.000000 0.029836
#
#
# Mechanical properties :
#
#
# Convention : Reuss Voigt Hill
#
# Bulk Modulus (GPa) = 66.79794 73.52077 70.15935
# Shear Modulus (GPa) = 1851.08778 23.24308 937.16543
#
# Velocity S-wave (km/s) = 30.54265 3.42247 21.73208
# Velocity P-wave (km/s) = 35.74167 7.25730 25.78891
#
# Compressibility (1/GPa) = 0.01497052
#
# Stress axis : x y z
#
# Youngs Moduli (GPa) = 117.00647 77.22759 98.03898
#
# Poissons Ratio (x) = 0.36956 0.22545
# Poissons Ratio (y) = 0.55992 0.12524
# Poissons Ratio (z) = 0.26907 0.09865
#
# Static dielectric constant tensor:
#      x y z
#    x 1.721650 0.000000 0.000000 
#    y 0.000000 1.722690 0.000000 
#    z 0.000000 0.000000 1.679620 
# 
# From -- ./inp_files/52334.got.cif
#   From: 2010.05.17/outbox.cif.g08.bks.cpg/sg65_27_cif.got.tgz:52334.got - 2010.06.03 17:01:31.
