data_PCOD9493761
_publ_section_title
;
Structure prediction by ZEFSAII (Michael W. Deem and Ramdas Pophale) SiO2 
 PCOD9493761
Probable space group: C M M M
;
_chemical_formula_sum "Si O2"
_cell_formula_units_Z 64
_cell_length_a 8.972830
_cell_length_b 16.143360
_cell_length_c 22.857890
_cell_angle_alpha 90.000000
_cell_angle_beta 90.000000
_cell_angle_gamma 90.000000
_cell_volume 3311.002508
_symmetry_space_group_name_H-M "C M M M"
_symmetry_group_IT_number 65
_symmetry_cell_setting 'orthorhombic'
loop_
_space_group_symop_operation_xyz
x,y,z
-x,-y,z
x,-y,-z
-x,y,-z
-x,-y,-z
x,y,-z
-x,y,z
x,-y,z
1/2+x,1/2+y,z
1/2-x,1/2-y,z
1/2+x,1/2-y,-z
1/2-x,1/2+y,-z
1/2-x,1/2-y,-z
1/2+x,1/2+y,-z
1/2-x,1/2+y,z
1/2+x,1/2-y,z
loop_
_atom_site_type_symbol
_atom_site_label
_atom_site_fract_x
_atom_site_fract_y
_atom_site_fract_z
Si Si1 0.320981 0.336192 0.138909
Si Si2 0.818820 0.000000 0.067122
Si Si3 0.675612 0.660921 0.500000
Si Si4 0.831360 0.400938 0.385246
Si Si5 0.320496 0.098645 0.744379
O O1 0.500000 0.330500 0.138040
O O2 0.250000 0.250000 0.118002
O O3 0.273662 0.416220 0.100712
O O4 0.263172 0.353934 0.204432
O O5 0.000000 0.000000 0.067132
O O6 0.768214 0.000000 0.000000
O O7 0.500000 0.665982 0.500000
O O8 0.750000 0.750000 0.500000
O O9 0.731444 0.618296 0.559349
O O10 0.841566 0.500000 0.379931
O O11 0.778566 0.372263 0.321183
O O12 0.000000 0.369042 0.395632
O O13 0.500000 0.107998 0.749689
O O14 0.287804 0.000000 0.749926
#
# Coordination Sequence:
#
# PCOD9493761 Si02
#       5
#    16   8   8  16  16
#     4  11  22  37  60  90 122 160 201 246 298 351
#     4   9  20  40  63  87 121 162 201 244 295 351
#     4  12  25  38  53  75 107 147 189 240 291 342
#     4   9  19  37  60  83 109 145 185 230 288 349
#     4   9  18  35  60  87 116 150 190 239 293 350
#
# _framework density 19.329491999999998
#
# number of rings (size 3 to 8) (size 9 to 14) (size 15 to 20)
#    0.000    2.125    1.250    3.750    0.000    4.500 
#    0.000    2.500    0.000    5.250    0.000    0.000 
#    0.000    0.000    0.000    0.000    0.000    0.000 
#
# Total GULP energy -178622.509882 kJ/mol
# GULP energy per Si atom -5581.953434 kJ/mol
# Density = 1.928550 g / cm^3
# Si number density = 19.329492 Si / 1000 Ang^3
#
#
#
# Elastic Constant Matrix: (Units=GPa)
#
#
# Indices 1 2 3 4 5 6 
#
# 1 57.7966 34.7436 52.9515 0.0000 0.0000 0.0000
# 2 34.7436 106.9426 64.6738 0.0000 0.0000 0.0000
# 3 52.9515 64.6738 155.5836 0.0000 0.0000 0.0000
# 4 0.0000 0.0000 0.0000 -3.2068 0.0000 0.0000
# 5 0.0000 0.0000 0.0000 0.0000 21.6948 0.0000
# 6 0.0000 0.0000 0.0000 0.0000 0.0000 28.1591
#
#
#
# Elastic Compliance Matrix: (Units=1/GPa)
#
#
# Indices 1 2 3 4 5 6 
#
# 1 0.026490 -0.004213 -0.007264 0.000000 0.000000 0.000000
# 2 -0.004213 0.013161 -0.004037 0.000000 0.000000 0.000000
# 3 -0.007264 -0.004037 0.010578 0.000000 0.000000 0.000000
# 4 0.000000 0.000000 0.000000 -0.311840 0.000000 0.000000
# 5 0.000000 0.000000 0.000000 0.000000 0.046094 0.000000
# 6 0.000000 0.000000 0.000000 0.000000 0.000000 0.035513
#
#
# Mechanical properties :
#
#
# Convention : Reuss Voigt Hill
#
# Bulk Modulus (GPa) = 52.08271 69.45120 60.76695
# Shear Modulus (GPa) = -35.06899 20.52634 -7.27133
#
# Velocity S-wave (km/s) = -4.26405 3.26224 -1.94163
# Velocity P-wave (km/s) = 1.66143 7.08504 5.14578
#
# Compressibility (1/GPa) = 0.01920023
#
# Stress axis : x y z
#
# Youngs Moduli (GPa) = 37.75002 75.98287 94.53684
#
# Poissons Ratio (x) = 0.32011 0.68675
# Poissons Ratio (y) = 0.15904 0.38164
# Poissons Ratio (z) = 0.27423 0.30674
#
# Static dielectric constant tensor:
#      x y z
#    x 1.637640 0.000000 0.000000 
#    y 0.000000 1.485730 0.000000 
#    z 0.000000 0.000000 1.726180 
# 
# From -- ./inp_files/66793.got.cif
#   From: 2010.05.17/outbox.cif.g08.bks.cpg/sg65_34_cif.got.tgz:66793.got - 2010.06.03 17:01:31.
