data_PCOD9493388
_publ_section_title
;
Structure prediction by ZEFSAII (Michael W. Deem and Ramdas Pophale) SiO2 
 PCOD9493388
Probable space group: C M M M
;
_chemical_formula_sum "Si O2"
_cell_formula_units_Z 72
_cell_length_a 8.494289
_cell_length_b 29.338156
_cell_length_c 19.125435
_cell_angle_alpha 90.000000
_cell_angle_beta 90.000000
_cell_angle_gamma 90.000000
_cell_volume 4766.187992
_symmetry_space_group_name_H-M "C M M M"
_symmetry_group_IT_number 65
_symmetry_cell_setting 'orthorhombic'
loop_
_space_group_symop_operation_xyz
x,y,z
-x,-y,z
x,-y,-z
-x,y,-z
-x,-y,-z
x,y,-z
-x,y,z
x,-y,z
1/2+x,1/2+y,z
1/2-x,1/2-y,z
1/2+x,1/2-y,-z
1/2-x,1/2+y,-z
1/2-x,1/2-y,-z
1/2+x,1/2+y,-z
1/2-x,1/2+y,z
1/2+x,1/2-y,z
loop_
_atom_site_type_symbol
_atom_site_label
_atom_site_fract_x
_atom_site_fract_y
_atom_site_fract_z
Si Si1 0.312587 0.801496 0.500000
Si Si2 0.190222 0.802116 0.924855
Si Si3 0.310125 0.051459 0.418325
Si Si4 0.811622 0.144360 0.365118
Si Si5 0.190590 0.198101 0.228152
O O1 0.500000 0.801009 0.500000
O O2 0.250000 0.750000 0.500000
O O3 0.254460 0.827867 0.431190
O O4 0.250000 0.750000 0.925089
O O5 0.240677 0.820176 0.848725
O O6 0.000000 0.802097 0.924977
O O7 0.241909 0.822531 0.000000
O O8 0.265384 0.058290 0.500000
O O9 0.500000 0.053776 0.415466
O O10 0.239792 0.092112 0.373455
O O11 0.262764 0.000000 0.398345
O O12 0.755972 0.167560 0.293092
O O13 0.000000 0.147038 0.367416
O O14 0.250000 0.250000 0.236007
O O15 0.000000 0.199329 0.229226
#
# Coordination Sequence:
#
# PCOD9493388 Si02
#       5
#     8  16  16  16  16
#     4  12  24  36  47  60  83 116 154 187 213 247
#     4   8  13  23  39  57  79 109 142 173 206 243
#     4   9  18  33  51  68  85 107 138 178 222 265
#     4  11  21  32  46  66  89 113 144 179 218 259
#     4   9  18  29  41  61  88 116 146 178 209 247
#
# _framework density 15.106411
#
# number of rings (size 3 to 8) (size 9 to 14) (size 15 to 20)
#    0.000    2.444    1.111    3.000    0.000    4.000 
#    0.000    1.111    0.000    0.000    0.000    0.000 
#    0.000    0.889    0.000   11.111    0.000    1.778 
#
# Total GULP energy -200513.005921 kJ/mol
# GULP energy per Si atom -5569.805720 kJ/mol
# Density = 1.507203 g / cm^3
# Si number density = 15.106411 Si / 1000 Ang^3
#
#
#
# Elastic Constant Matrix: (Units=GPa)
#
#
# Indices 1 2 3 4 5 6 
#
# 1 22.7618 19.2468 24.4477 0.0000 0.0000 0.0000
# 2 19.2468 91.0537 68.7252 0.0000 0.0000 0.0000
# 3 24.4477 68.7252 166.1694 0.0000 0.0000 0.0000
# 4 0.0000 0.0000 0.0000 4.4934 0.0000 0.0000
# 5 0.0000 0.0000 0.0000 0.0000 7.1451 0.0000
# 6 0.0000 0.0000 0.0000 0.0000 0.0000 22.2735
#
#
#
# Elastic Compliance Matrix: (Units=1/GPa)
#
#
# Indices 1 2 3 4 5 6 
#
# 1 0.056078 -0.008180 -0.004867 0.000000 0.000000 0.000000
# 2 -0.008180 0.017160 -0.005894 0.000000 0.000000 0.000000
# 3 -0.004867 -0.005894 0.009172 0.000000 0.000000 0.000000
# 4 0.000000 0.000000 0.000000 0.222549 0.000000 0.000000
# 5 0.000000 0.000000 0.000000 0.000000 0.139956 0.000000
# 6 0.000000 0.000000 0.000000 0.000000 0.000000 0.044896
#
#
# Mechanical properties :
#
#
# Convention : Reuss Voigt Hill
#
# Bulk Modulus (GPa) = 22.45797 56.09158 39.27477
# Shear Modulus (GPa) = 9.21599 17.95341 13.58470
#
# Velocity S-wave (km/s) = 2.47264 3.45115 3.00203
# Velocity P-wave (km/s) = 4.80112 7.28644 6.17021
#
# Compressibility (1/GPa) = 0.04452762
#
# Stress axis : x y z
#
# Youngs Moduli (GPa) = 17.83237 58.27518 109.03228
#
# Poissons Ratio (x) = 0.47668 0.53070
# Poissons Ratio (y) = 0.14587 0.64260
# Poissons Ratio (z) = 0.08680 0.34345
#
# Static dielectric constant tensor:
#      x y z
#    x 1.511310 0.000000 0.000000 
#    y 0.000000 1.468240 0.000000 
#    z 0.000000 0.000000 1.548870 
# 
# From -- ./inp_files/49695.got.cif
#   From: 2010.05.17/outbox.cif.g08.bks.cpg/sg65_25_cif.got.tgz:49695.got - 2010.06.03 17:01:31.
