data_PCOD9493859
_publ_section_title
;
Structure prediction by ZEFSAII (Michael W. Deem and Ramdas Pophale) SiO2 
 PCOD9493859
Probable space group: C M M M
;
_chemical_formula_sum "Si O2"
_cell_formula_units_Z 34
_cell_length_a 16.216225
_cell_length_b 15.288433
_cell_length_c 7.572677
_cell_angle_alpha 90.000000
_cell_angle_beta 90.000000
_cell_angle_gamma 90.000000
_cell_volume 1877.423151
_symmetry_space_group_name_H-M "C M M M"
_symmetry_group_IT_number 65
_symmetry_cell_setting 'orthorhombic'
loop_
_space_group_symop_operation_xyz
x,y,z
-x,-y,z
x,-y,-z
-x,y,-z
-x,-y,-z
x,y,-z
-x,y,z
x,-y,z
1/2+x,1/2+y,z
1/2-x,1/2-y,z
1/2+x,1/2-y,-z
1/2-x,1/2+y,-z
1/2-x,1/2-y,-z
1/2+x,1/2+y,-z
1/2-x,1/2+y,z
1/2+x,1/2-y,z
loop_
_atom_site_type_symbol
_atom_site_label
_atom_site_fract_x
_atom_site_fract_y
_atom_site_fract_z
Si Si1 0.406395 0.894980 0.500000
Si Si2 0.145865 0.000000 0.295954
Si Si3 0.500000 0.500000 0.000000
Si Si4 0.222586 0.649528 0.795066
O O1 0.500000 0.862365 0.500000
O O2 0.355603 0.865498 0.670885
O O3 0.407320 0.000000 0.500000
O O4 0.072551 0.000000 0.155245
O O5 0.204706 0.915741 0.264650
O O6 0.118227 0.000000 0.500000
O O7 0.250000 0.750000 0.778823
O O8 0.203955 0.631173 0.000000
#
# Coordination Sequence:
#
# PCOD9493859 Si02
#       4
#     8   8   2  16
#     4  11  23  40  64  95 126 162 214 261 309 379
#     4  12  23  43  67  93 128 165 211 265 316 375
#     4  12  26  44  64  98 126 166 218 264 304 386
#     4  11  22  41  68  91 125 172 208 253 323 376
#
# _framework density 18.109929000000001
#
# number of rings (size 3 to 8) (size 9 to 14) (size 15 to 20)
#    0.000    0.706    7.059    1.059    0.000    0.941 
#    4.235    2.353    0.000    0.000    0.000    0.000 
#    0.000    0.000    0.000    0.000    0.000    0.000 
#
# Total GULP energy -94741.681519 kJ/mol
# GULP energy per Si atom -5573.040089 kJ/mol
# Density = 1.806871 g / cm^3
# Si number density = 18.109929 Si / 1000 Ang^3
#
#
#
# Elastic Constant Matrix: (Units=GPa)
#
#
# Indices 1 2 3 4 5 6 
#
# 1 181.5666 35.4271 112.1000 0.0000 0.0000 0.0000
# 2 35.4271 78.5598 45.4407 0.0000 0.0000 0.0000
# 3 112.1000 45.4407 220.1998 0.0000 0.0000 0.0000
# 4 0.0000 0.0000 0.0000 29.5420 0.0000 0.0000
# 5 0.0000 0.0000 0.0000 0.0000 49.7749 0.0000
# 6 0.0000 0.0000 0.0000 0.0000 0.0000 10.6550
#
#
#
# Elastic Compliance Matrix: (Units=1/GPa)
#
#
# Indices 1 2 3 4 5 6 
#
# 1 0.008176 -0.001453 -0.003862 0.000000 0.000000 0.000000
# 2 -0.001453 0.014713 -0.002296 0.000000 0.000000 0.000000
# 3 -0.003862 -0.002296 0.006981 0.000000 0.000000 0.000000
# 4 0.000000 0.000000 0.000000 0.033850 0.000000 0.000000
# 5 0.000000 0.000000 0.000000 0.000000 0.020090 0.000000
# 6 0.000000 0.000000 0.000000 0.000000 0.000000 0.093853
#
#
# Mechanical properties :
#
#
# Convention : Reuss Voigt Hill
#
# Bulk Modulus (GPa) = 68.27552 96.25130 82.26341
# Shear Modulus (GPa) = 25.28208 37.15162 31.21685
#
# Velocity S-wave (km/s) = 3.74041 4.53421 4.15630
# Velocity P-wave (km/s) = 7.51243 8.98197 8.27987
#
# Compressibility (1/GPa) = 0.01464654
#
# Stress axis : x y z
#
# Youngs Moduli (GPa) = 122.31371 67.96860 143.23637
#
# Poissons Ratio (x) = 0.09875 0.55322
# Poissons Ratio (y) = 0.17770 0.32894
# Poissons Ratio (z) = 0.47241 0.15609
#
# Static dielectric constant tensor:
#      x y z
#    x 1.584880 0.000000 0.000000 
#    y 0.000000 1.617280 0.000000 
#    z 0.000000 0.000000 1.622050 
# 
# From -- ./inp_files/5370.got.cif
#   From: 2010.05.17/outbox.cif.g08.bks.cpg/sg65_3_cif.got.tgz:5370.got - 2010.06.03 17:01:31.
