data_PCOD9493311
_publ_section_title
;
Structure prediction by ZEFSAII (Michael W. Deem and Ramdas Pophale) SiO2 
 PCOD9493311
Probable space group: C M M M
;
_chemical_formula_sum "Si O2"
_cell_formula_units_Z 112
_cell_length_a 15.042367
_cell_length_b 32.014703
_cell_length_c 14.474682
_cell_angle_alpha 90.000000
_cell_angle_beta 90.000000
_cell_angle_gamma 90.000000
_cell_volume 6970.672659
_symmetry_space_group_name_H-M "C M M M"
_symmetry_group_IT_number 65
_symmetry_cell_setting 'orthorhombic'
loop_
_space_group_symop_operation_xyz
x,y,z
-x,-y,z
x,-y,-z
-x,y,-z
-x,-y,-z
x,y,-z
-x,y,z
x,-y,z
1/2+x,1/2+y,z
1/2-x,1/2-y,z
1/2+x,1/2-y,-z
1/2-x,1/2+y,-z
1/2-x,1/2-y,-z
1/2+x,1/2+y,-z
1/2-x,1/2+y,z
1/2+x,1/2-y,z
loop_
_atom_site_type_symbol
_atom_site_label
_atom_site_fract_x
_atom_site_fract_y
_atom_site_fract_z
Si Si1 0.353826 0.801486 0.395090
Si Si2 0.108025 0.547178 0.394384
Si Si3 0.103843 0.621808 0.737405
Si Si4 0.639191 0.295036 0.604552
Si Si5 0.222580 0.653760 0.109143
Si Si6 0.399512 0.766625 0.107773
Si Si7 0.098377 0.177393 0.799810
O O1 0.379597 0.813857 0.500000
O O2 0.385241 0.835238 0.321129
O O3 0.385326 0.753837 0.380292
O O4 0.246510 0.798729 0.391774
O O5 0.136710 0.554899 0.500000
O O6 0.134769 0.500000 0.367994
O O7 0.136640 0.583877 0.326836
O O8 0.000000 0.547868 0.394931
O O9 0.160131 0.624217 0.830453
O O10 0.000000 0.616100 0.757401
O O11 0.611796 0.306120 0.500000
O O12 0.604260 0.322219 0.689001
O O13 0.176326 0.699335 0.123376
O O14 0.320580 0.653987 0.152069
O O15 0.223036 0.645668 0.000000
O O16 0.500000 0.784187 0.121947
O O17 0.390274 0.725739 0.169122
O O18 0.393874 0.753734 0.000000
O O19 0.000000 0.164005 0.829858
#
# Coordination Sequence:
#
# PCOD9493311 Si02
#       7
#    16  16  16  16  16  16  16
#     4   9  17  29  44  64  91 123 158 194 233 277
#     4   8  15  29  49  75 106 133 154 181 222 273
#     4  11  20  30  49  73  96 126 161 193 228 276
#     4   9  18  31  44  59  86 122 157 197 242 283
#     4  11  22  34  46  62  89 120 154 204 252 281
#     4   9  18  31  46  63  82 111 156 206 250 289
#     4  11  21  32  47  63  81 115 163 205 246 293
#
# _framework density 16.067316000000002
#
# number of rings (size 3 to 8) (size 9 to 14) (size 15 to 20)
#    0.000    2.286    1.429    3.857    2.000    5.714 
#    0.000    1.429    0.000    0.429    0.000    2.000 
#    0.000    0.571    0.000    2.857    0.000    0.143 
#
# Total GULP energy -312445.177782 kJ/mol
# GULP energy per Si atom -5579.378175 kJ/mol
# Density = 1.603075 g / cm^3
# Si number density = 16.067316 Si / 1000 Ang^3
#
#
#
# Elastic Constant Matrix: (Units=GPa)
#
#
# Indices 1 2 3 4 5 6 
#
# 1 80.2507 18.6300 44.5876 0.0000 0.0000 0.0000
# 2 18.6300 40.3753 41.3851 0.0000 0.0000 0.0000
# 3 44.5876 41.3851 104.8866 0.0000 0.0000 0.0000
# 4 0.0000 0.0000 0.0000 18.3223 0.0000 0.0000
# 5 0.0000 0.0000 0.0000 0.0000 13.3102 0.0000
# 6 0.0000 0.0000 0.0000 0.0000 0.0000 -7.1507
#
#
#
# Elastic Compliance Matrix: (Units=1/GPa)
#
#
# Indices 1 2 3 4 5 6 
#
# 1 0.016326 -0.000704 -0.006662 0.000000 0.000000 0.000000
# 2 -0.000704 0.041617 -0.016122 0.000000 0.000000 0.000000
# 3 -0.006662 -0.016122 0.018727 0.000000 0.000000 0.000000
# 4 0.000000 0.000000 0.000000 0.054578 0.000000 0.000000
# 5 0.000000 0.000000 0.000000 0.000000 0.075130 0.000000
# 6 0.000000 0.000000 0.000000 0.000000 0.000000 -0.139846
#
#
# Mechanical properties :
#
#
# Convention : Reuss Voigt Hill
#
# Bulk Modulus (GPa) = 33.67631 48.30202 40.98916
# Shear Modulus (GPa) = 40.51620 12.95703 26.73662
#
# Velocity S-wave (km/s) = 5.02705 2.84284 4.08369
# Velocity P-wave (km/s) = 7.39595 6.39556 6.91387
#
# Compressibility (1/GPa) = 0.02969447
#
# Stress axis : x y z
#
# Youngs Moduli (GPa) = 61.25172 24.02842 53.39759
#
# Poissons Ratio (x) = 0.01692 0.35576
# Poissons Ratio (y) = 0.04313 0.86086
# Poissons Ratio (z) = 0.40808 0.38738
#
# Static dielectric constant tensor:
#      x y z
#    x 1.566620 0.000000 0.000000 
#    y 0.000000 1.509210 0.000000 
#    z 0.000000 0.000000 1.570350 
# 
# From -- ./inp_files/41396.got.cif
#   From: 2010.05.17/outbox.cif.g08.bks.cpg/sg65_21_cif.got.tgz:41396.got - 2010.06.03 17:01:31.
