data_PCOD9493213
_publ_section_title
;
Structure prediction by ZEFSAII (Michael W. Deem and Ramdas Pophale) SiO2 
 PCOD9493213
Probable space group: C M M M
;
_chemical_formula_sum "Si O2"
_cell_formula_units_Z 56
_cell_length_a 14.994834
_cell_length_b 9.974779
_cell_length_c 19.576838
_cell_angle_alpha 90.000000
_cell_angle_beta 90.000000
_cell_angle_gamma 90.000000
_cell_volume 2928.110700
_symmetry_space_group_name_H-M "C M M M"
_symmetry_group_IT_number 65
_symmetry_cell_setting 'orthorhombic'
loop_
_space_group_symop_operation_xyz
x,y,z
-x,-y,z
x,-y,-z
-x,y,-z
-x,-y,-z
x,y,-z
-x,y,z
x,-y,z
1/2+x,1/2+y,z
1/2-x,1/2-y,z
1/2+x,1/2-y,-z
1/2-x,1/2+y,-z
1/2-x,1/2-y,-z
1/2+x,1/2+y,-z
1/2-x,1/2+y,z
1/2+x,1/2-y,z
loop_
_atom_site_type_symbol
_atom_site_label
_atom_site_fract_x
_atom_site_fract_y
_atom_site_fract_z
Si Si1 0.702303 0.500000 0.077954
Si Si2 0.000000 0.837208 0.422036
Si Si3 0.601062 0.000000 0.123479
Si Si4 0.896796 0.203149 0.824924
Si Si5 0.665822 0.655443 0.329114
O O1 0.809893 0.500000 0.078197
O O2 0.664258 0.627165 0.119922
O O3 0.670349 0.500000 0.000000
O O4 0.912906 0.798683 0.379357
O O5 0.000000 0.789481 0.500000
O O6 0.000000 0.000000 0.423221
O O7 0.608441 0.863382 0.166594
O O8 0.500000 0.000000 0.092567
O O9 0.867582 0.164006 0.749052
O O10 0.000000 0.164368 0.835892
O O11 0.687155 0.500000 0.343680
O O12 0.750000 0.750000 0.336998
#
# Coordination Sequence:
#
# PCOD9493213 Si02
#       5
#     8   8   8  16  16
#     4  12  25  41  64  91 123 161 208 260 311 373
#     4   9  20  40  65  95 129 171 212 250 307 370
#     4  10  24  42  61  88 122 164 204 260 309 377
#     4  11  23  41  63  90 122 160 211 259 312 366
#     4  11  22  38  64  95 126 168 207 261 305 365
#
# _framework density 19.124959
#
# number of rings (size 3 to 8) (size 9 to 14) (size 15 to 20)
#    0.000    1.286    2.857    3.000    2.000    4.286 
#    0.000    3.571    0.000    0.857    0.000    0.000 
#    0.000    0.000    0.000    0.000    0.000    0.000 
#
# Total GULP energy -156415.318890 kJ/mol
# GULP energy per Si atom -5586.261389 kJ/mol
# Density = 1.908143 g / cm^3
# Si number density = 19.124959 Si / 1000 Ang^3
#
#
#
# Elastic Constant Matrix: (Units=GPa)
#
#
# Indices 1 2 3 4 5 6 
#
# 1 167.4613 51.9888 72.0495 0.0000 0.0000 0.0000
# 2 51.9888 112.3316 31.9940 0.0000 0.0000 0.0000
# 3 72.0495 31.9940 154.7468 0.0000 0.0000 0.0000
# 4 0.0000 0.0000 0.0000 -15.2427 0.0000 0.0000
# 5 0.0000 0.0000 0.0000 0.0000 69.9568 0.0000
# 6 0.0000 0.0000 0.0000 0.0000 0.0000 -2.9905
#
#
#
# Elastic Compliance Matrix: (Units=1/GPa)
#
#
# Indices 1 2 3 4 5 6 
#
# 1 0.008271 -0.002902 -0.003251 0.000000 0.000000 0.000000
# 2 -0.002902 0.010477 -0.000815 0.000000 0.000000 0.000000
# 3 -0.003251 -0.000815 0.008144 0.000000 0.000000 0.000000
# 4 0.000000 0.000000 0.000000 -0.065605 0.000000 0.000000
# 5 0.000000 0.000000 0.000000 0.000000 0.014295 0.000000
# 6 0.000000 0.000000 0.000000 0.000000 0.000000 -0.334387
#
#
# Mechanical properties :
#
#
# Convention : Reuss Voigt Hill
#
# Bulk Modulus (GPa) = 77.17991 82.95604 80.06797
# Shear Modulus (GPa) = -14.68215 28.91187 7.11486
#
# Velocity S-wave (km/s) = -2.77374 3.89232 1.93087
# Velocity P-wave (km/s) = 5.49409 7.97936 6.85037
#
# Compressibility (1/GPa) = 0.01295674
#
# Stress axis : x y z
#
# Youngs Moduli (GPa) = 120.90076 95.44268 122.78449
#
# Poissons Ratio (x) = 0.27699 0.39918
# Poissons Ratio (y) = 0.35087 0.10007
# Poissons Ratio (z) = 0.39305 0.07779
#
# Static dielectric constant tensor:
#      x y z
#    x 1.677480 0.000000 0.000000 
#    y 0.000000 1.668690 0.000000 
#    z 0.000000 0.000000 1.625400 
# 
# From -- ./inp_files/52462.got.cif
#   From: 2010.05.17/outbox.cif.g08.bks.cpg/sg65_27_cif.got.tgz:52462.got - 2010.06.03 17:01:31.
