data_PCOD9493365
_publ_section_title
;
Structure prediction by ZEFSAII (Michael W. Deem and Ramdas Pophale) SiO2 
 PCOD9493365
Probable space group: C M M M
;
_chemical_formula_sum "Si O2"
_cell_formula_units_Z 116
_cell_length_a 17.093867
_cell_length_b 14.872944
_cell_length_c 24.983718
_cell_angle_alpha 90.000000
_cell_angle_beta 90.000000
_cell_angle_gamma 90.000000
_cell_volume 6351.763693
_symmetry_space_group_name_H-M "C M M M"
_symmetry_group_IT_number 65
_symmetry_cell_setting 'orthorhombic'
loop_
_space_group_symop_operation_xyz
x,y,z
-x,-y,z
x,-y,-z
-x,y,-z
-x,-y,-z
x,y,-z
-x,y,z
x,-y,z
1/2+x,1/2+y,z
1/2-x,1/2-y,z
1/2+x,1/2-y,-z
1/2-x,1/2+y,-z
1/2-x,1/2-y,-z
1/2+x,1/2+y,-z
1/2-x,1/2+y,z
1/2+x,1/2-y,z
loop_
_atom_site_type_symbol
_atom_site_label
_atom_site_fract_x
_atom_site_fract_y
_atom_site_fract_z
Si Si1 0.123592 0.895720 0.242823
Si Si2 0.811893 0.394159 0.760167
Si Si3 0.125905 0.103527 0.634046
Si Si4 0.910850 0.735585 0.833703
Si Si5 0.859516 0.000000 0.000000
Si Si6 0.314082 0.894806 0.639095
Si Si7 0.089473 0.731484 0.561905
Si Si8 0.406530 0.323234 0.942919
O O1 0.217894 0.885772 0.237579
O O2 0.101872 0.877000 0.304625
O O3 0.087693 0.824964 0.202590
O O4 0.104236 0.000000 0.231669
O O5 0.830111 0.500000 0.765890
O O6 0.855551 0.334979 0.803855
O O7 0.835061 0.365504 0.699697
O O8 0.220402 0.111569 0.633663
O O9 0.093315 0.172861 0.591539
O O10 0.105660 0.000000 0.622530
O O11 0.880994 0.766961 0.891885
O O12 0.000000 0.701125 0.838845
O O13 0.866646 0.919410 0.954001
O O14 0.355897 0.834873 0.595317
O O15 0.334693 0.000000 0.633711
O O16 0.113445 0.738728 0.500000
O O17 0.000000 0.698847 0.563765
O O18 0.500000 0.341425 0.936649
O O19 0.396777 0.273064 0.000000
#
# Coordination Sequence:
#
# PCOD9493365 Si02
#       8
#    16  16  16  16   4  16  16  16
#     4   9  19  34  53  76 104 136 164 201 256 310
#     4   9  19  37  55  72 101 141 175 201 245 309
#     4   9  19  37  57  76  98 130 174 211 241 293
#     4  11  21  29  48  82 109 129 165 217 259 297
#     4   8  13  28  48  64  96 146 178 204 249 306
#     4   9  19  37  60  78  94 127 176 220 251 289
#     4  11  24  37  50  74 107 137 163 200 258 317
#     4   8  15  27  44  67  99 136 171 206 250 296
#
# _framework density 18.262644000000002
#
# number of rings (size 3 to 8) (size 9 to 14) (size 15 to 20)
#    0.414    2.207    0.000    3.724    0.966    7.172 
#    0.000    5.517    0.000    2.069    0.000    3.862 
#    0.000    0.000    0.000    0.000    0.000    0.000 
#
# Total GULP energy -322905.925898 kJ/mol
# GULP energy per Si atom -5567.343550 kJ/mol
# Density = 1.822108 g / cm^3
# Si number density = 18.262644 Si / 1000 Ang^3
#
#
#
# Elastic Constant Matrix: (Units=GPa)
#
#
# Indices 1 2 3 4 5 6 
#
# 1 33.2622 24.7942 33.3342 0.0000 0.0000 0.0000
# 2 24.7942 52.4205 54.3669 0.0000 0.0000 0.0000
# 3 33.3342 54.3669 125.3925 0.0000 0.0000 0.0000
# 4 0.0000 0.0000 0.0000 -66.5791 0.0000 0.0000
# 5 0.0000 0.0000 0.0000 0.0000 23.0385 0.0000
# 6 0.0000 0.0000 0.0000 0.0000 0.0000-1355.4956
#
#
#
# Elastic Compliance Matrix: (Units=1/GPa)
#
#
# Indices 1 2 3 4 5 6 
#
# 1 0.048324 -0.017323 -0.005336 0.000000 0.000000 0.000000
# 2 -0.017323 0.040874 -0.013117 0.000000 0.000000 0.000000
# 3 -0.005336 -0.013117 0.015080 0.000000 0.000000 0.000000
# 4 0.000000 0.000000 0.000000 -0.015020 0.000000 0.000000
# 5 0.000000 0.000000 0.000000 0.000000 0.043406 0.000000
# 6 0.000000 0.000000 0.000000 0.000000 0.000000 -0.000738
#
#
# Mechanical properties :
#
#
# Convention : Reuss Voigt Hill
#
# Bulk Modulus (GPa) = 30.55508 48.45177 39.50342
# Shear Modulus (GPa) = 23.32244 -273.23524 -124.95640
#
# Velocity S-wave (km/s) = 3.57747 -12.24496 -8.28072
# Velocity P-wave (km/s) = 5.81650 13.16551 8.35162
#
# Compressibility (1/GPa) = 0.03272779
#
# Stress axis : x y z
#
# Youngs Moduli (GPa) = 20.69361 24.46567 66.31108
#
# Poissons Ratio (x) = 0.42381 0.35382
# Poissons Ratio (y) = 0.35847 0.86978
# Poissons Ratio (z) = 0.11042 0.32091
#
# Static dielectric constant tensor:
#      x y z
#    x 1.654760 0.000000 0.000000 
#    y 0.000000 1.668820 0.000000 
#    z 0.000000 0.000000 1.628410 
# 
# From -- ./inp_files/70606.got.cif
#   From: 2010.05.17/outbox.cif.g08.bks.cpg/sg65_36_cif.got.tgz:70606.got - 2010.06.03 17:01:31.
