data_PCOD9493836
_publ_section_title
;
Structure prediction by ZEFSAII (Michael W. Deem and Ramdas Pophale) SiO2 
 PCOD9493836
Probable space group: C M M M
;
_chemical_formula_sum "Si O2"
_cell_formula_units_Z 56
_cell_length_a 7.343568
_cell_length_b 17.903146
_cell_length_c 21.169554
_cell_angle_alpha 90.000000
_cell_angle_beta 90.000000
_cell_angle_gamma 90.000000
_cell_volume 2783.224139
_symmetry_space_group_name_H-M "C M M M"
_symmetry_group_IT_number 65
_symmetry_cell_setting 'orthorhombic'
loop_
_space_group_symop_operation_xyz
x,y,z
-x,-y,z
x,-y,-z
-x,y,-z
-x,-y,-z
x,y,-z
-x,y,z
x,-y,z
1/2+x,1/2+y,z
1/2-x,1/2-y,z
1/2+x,1/2-y,-z
1/2-x,1/2+y,-z
1/2-x,1/2-y,-z
1/2+x,1/2+y,-z
1/2-x,1/2+y,z
1/2+x,1/2-y,z
loop_
_atom_site_type_symbol
_atom_site_label
_atom_site_fract_x
_atom_site_fract_y
_atom_site_fract_z
Si Si1 0.714837 0.337925 0.835202
Si Si2 0.219297 0.089508 0.432129
Si Si3 0.721497 0.412990 0.705007
Si Si4 0.000000 0.410685 0.926788
O O1 0.500000 0.352818 0.841117
O O2 0.750000 0.250000 0.839098
O O3 0.777361 0.367554 0.766485
O O4 0.826575 0.379047 0.889480
O O5 0.287183 0.118854 0.500000
O O6 0.283876 0.116879 0.363636
O O7 0.000000 0.098235 0.432820
O O8 0.253661 0.000000 0.431629
O O9 0.500000 0.412194 0.703567
O O10 0.775476 0.500000 0.711364
O O11 0.000000 0.500000 0.923773
O O12 0.000000 0.387605 0.000000
#
# Coordination Sequence:
#
# PCOD9493836 Si02
#       4
#    16  16  16   8
#     4  11  22  40  62  90 123 162 201 244 296 351
#     4   7   9  15  31  61 100 138 181 236 291 339
#     4   8  14  25  46  75 107 146 193 244 293 344
#     4  11  26  46  68  96 124 152 194 243 294 360
#
# _framework density 20.120550999999999
#
# number of rings (size 3 to 8) (size 9 to 14) (size 15 to 20)
#    0.000    3.000    1.429    3.429    0.000    2.857 
#    0.000    1.429    0.000    0.857    0.000    1.000 
#    0.000    5.714    0.000    0.571    0.000    0.000 
#
# Total GULP energy -156131.203859 kJ/mol
# GULP energy per Si atom -5576.114424 kJ/mol
# Density = 2.007476 g / cm^3
# Si number density = 20.120551 Si / 1000 Ang^3
#
#
#
# Elastic Constant Matrix: (Units=GPa)
#
#
# Indices 1 2 3 4 5 6 
#
# 1 103.1918 14.8763 58.6691 0.0000 0.0000 0.0000
# 2 14.8763 52.0520 66.2006 0.0000 0.0000 0.0000
# 3 58.6691 66.2006 249.9945 0.0000 0.0000 0.0000
# 4 0.0000 0.0000 0.0000 -16.4024 0.0000 0.0000
# 5 0.0000 0.0000 0.0000 0.0000 38.6133 0.0000
# 6 0.0000 0.0000 0.0000 0.0000 0.0000 68.6852
#
#
#
# Elastic Compliance Matrix: (Units=1/GPa)
#
#
# Indices 1 2 3 4 5 6 
#
# 1 0.011184 0.000214 -0.002681 0.000000 0.000000 0.000000
# 2 0.000214 0.028971 -0.007722 0.000000 0.000000 0.000000
# 3 -0.002681 -0.007722 0.006674 0.000000 0.000000 0.000000
# 4 0.000000 0.000000 0.000000 -0.060967 0.000000 0.000000
# 5 0.000000 0.000000 0.000000 0.000000 0.025898 0.000000
# 6 0.000000 0.000000 0.000000 0.000000 0.000000 0.014559
#
#
# Mechanical properties :
#
#
# Convention : Reuss Voigt Hill
#
# Bulk Modulus (GPa) = 37.80613 76.08116 56.94365
# Shear Modulus (GPa) = 90.06309 35.87870 62.97090
#
# Velocity S-wave (km/s) = 6.69768 4.22736 5.60042
# Velocity P-wave (km/s) = 8.86806 7.85635 8.37749
#
# Compressibility (1/GPa) = 0.02645073
#
# Stress axis : x y z
#
# Youngs Moduli (GPa) = 89.41066 34.51669 149.83032
#
# Poissons Ratio (x) = -0.00738 0.40175
# Poissons Ratio (y) = -0.01911 1.15700
# Poissons Ratio (z) = 0.23974 0.26654
#
# Static dielectric constant tensor:
#      x y z
#    x 1.817950 0.000000 0.000000 
#    y 0.000000 1.655050 0.000000 
#    z 0.000000 0.000000 1.741070 
# 
# From -- ./inp_files/58565.got.cif
#   From: 2010.05.17/outbox.cif.g08.bks.cpg/sg65_30_cif.got.tgz:58565.got - 2010.06.03 17:01:31.
