data_PCOD9493480
_publ_section_title
;
Structure prediction by ZEFSAII (Michael W. Deem and Ramdas Pophale) SiO2 
 PCOD9493480
Probable space group: C M M M
;
_chemical_formula_sum "Si O2"
_cell_formula_units_Z 80
_cell_length_a 14.894521
_cell_length_b 17.208497
_cell_length_c 16.810082
_cell_angle_alpha 90.000000
_cell_angle_beta 90.000000
_cell_angle_gamma 90.000000
_cell_volume 4308.631116
_symmetry_space_group_name_H-M "C M M M"
_symmetry_group_IT_number 65
_symmetry_cell_setting 'orthorhombic'
loop_
_space_group_symop_operation_xyz
x,y,z
-x,-y,z
x,-y,-z
-x,y,-z
-x,-y,-z
x,y,-z
-x,y,z
x,-y,z
1/2+x,1/2+y,z
1/2-x,1/2-y,z
1/2+x,1/2-y,-z
1/2-x,1/2+y,-z
1/2-x,1/2-y,-z
1/2+x,1/2+y,-z
1/2-x,1/2+y,z
1/2+x,1/2-y,z
loop_
_atom_site_type_symbol
_atom_site_label
_atom_site_fract_x
_atom_site_fract_y
_atom_site_fract_z
Si Si1 0.897612 0.905656 0.592990
Si Si2 0.133409 0.910460 0.000000
Si Si3 0.605245 0.165372 0.172889
Si Si4 0.743848 0.589144 0.278865
Si Si5 0.849018 0.409062 0.000000
Si Si6 0.099189 0.152389 0.168696
O O1 0.883319 0.887869 0.500000
O O2 0.814678 0.876912 0.647290
O O3 0.000000 0.879679 0.613439
O O4 0.898177 0.000000 0.601124
O O5 0.241278 0.907481 0.000000
O O6 0.098765 0.867831 0.076959
O O7 0.106117 0.000000 0.000000
O O8 0.500000 0.153407 0.190082
O O9 0.668778 0.128106 0.240168
O O10 0.621970 0.131820 0.083211
O O11 0.624553 0.257423 0.175556
O O12 0.765757 0.500000 0.296940
O O13 0.670358 0.596430 0.209184
O O14 0.878182 0.500000 0.000000
O O15 0.000000 0.140457 0.202602
#
# Coordination Sequence:
#
# PCOD9493480 Si02
#       6
#    16   8  16  16   8  16
#     4   8  15  30  54  85 117 143 169 209 266 331
#     4  11  22  35  54  81 108 137 176 233 291 333
#     4  11  24  39  55  75 104 148 194 231 270 316
#     4  11  21  34  56  84 110 138 176 224 273 317
#     4  11  22  37  56  77 100 137 190 241 279 309
#     4  11  23  37  54  77 108 145 179 217 275 338
#
# _framework density 18.567383
#
# number of rings (size 3 to 8) (size 9 to 14) (size 15 to 20)
#    0.000    1.600    2.000    4.200    0.000    7.200 
#    0.000    0.000    0.000    3.000    0.000    5.600 
#    0.000    0.000    0.000    0.000    0.000    0.000 
#
# Total GULP energy -223087.777143 kJ/mol
# GULP energy per Si atom -5577.194429 kJ/mol
# Density = 1.852512 g / cm^3
# Si number density = 18.567383 Si / 1000 Ang^3
#
#
#
# Elastic Constant Matrix: (Units=GPa)
#
#
# Indices 1 2 3 4 5 6 
#
# 1 110.1372 37.8794 47.2335 0.0000 0.0000 0.0000
# 2 37.8794 45.1662 6.9737 0.0000 0.0000 0.0000
# 3 47.2335 6.9737 112.7775 0.0000 0.0000 0.0000
# 4 0.0000 0.0000 0.0000 -17.8831 0.0000 0.0000
# 5 0.0000 0.0000 0.0000 0.0000 41.4103 0.0000
# 6 0.0000 0.0000 0.0000 0.0000 0.0000 53.2799
#
#
#
# Elastic Compliance Matrix: (Units=1/GPa)
#
#
# Indices 1 2 3 4 5 6 
#
# 1 0.015864 -0.012397 -0.005878 0.000000 0.000000 0.000000
# 2 -0.012397 0.032042 0.003211 0.000000 0.000000 0.000000
# 3 -0.005878 0.003211 0.011130 0.000000 0.000000 0.000000
# 4 0.000000 0.000000 0.000000 -0.055919 0.000000 0.000000
# 5 0.000000 0.000000 0.000000 0.000000 0.024149 0.000000
# 6 0.000000 0.000000 0.000000 0.000000 0.000000 0.018769
#
#
# Mechanical properties :
#
#
# Convention : Reuss Voigt Hill
#
# Bulk Modulus (GPa) = 34.59231 50.25044 42.42137
# Shear Modulus (GPa) = 58.27634 27.09437 42.68535
#
# Velocity S-wave (km/s) = 5.60843 3.82415 4.79993
# Velocity P-wave (km/s) = 7.78528 6.82799 7.32229
#
# Compressibility (1/GPa) = 0.02890816
#
# Stress axis : x y z
#
# Youngs Moduli (GPa) = 63.03598 31.20934 89.84628
#
# Poissons Ratio (x) = 0.38690 0.52808
# Poissons Ratio (y) = 0.78146 -0.28848
# Poissons Ratio (z) = 0.37050 -0.10021
#
# Static dielectric constant tensor:
#      x y z
#    x 1.666900 0.000000 0.000000 
#    y 0.000000 1.630880 0.000000 
#    z 0.000000 0.000000 1.644890 
# 
# From -- ./inp_files/52901.got.cif
#   From: 2010.05.17/outbox.cif.g08.bks.cpg/sg65_27_cif.got.tgz:52901.got - 2010.06.03 17:01:31.
