data_PCOD9493734
_publ_section_title
;
Structure prediction by ZEFSAII (Michael W. Deem and Ramdas Pophale) SiO2 
 PCOD9493734
Probable space group: C M M M
;
_chemical_formula_sum "Si O2"
_cell_formula_units_Z 80
_cell_length_a 17.983503
_cell_length_b 8.907899
_cell_length_c 26.896166
_cell_angle_alpha 90.000000
_cell_angle_beta 90.000000
_cell_angle_gamma 90.000000
_cell_volume 4308.637455
_symmetry_space_group_name_H-M "C M M M"
_symmetry_group_IT_number 65
_symmetry_cell_setting 'orthorhombic'
loop_
_space_group_symop_operation_xyz
x,y,z
-x,-y,z
x,-y,-z
-x,y,-z
-x,-y,-z
x,y,-z
-x,y,z
x,-y,z
1/2+x,1/2+y,z
1/2-x,1/2-y,z
1/2+x,1/2-y,-z
1/2-x,1/2+y,-z
1/2-x,1/2-y,-z
1/2+x,1/2+y,-z
1/2-x,1/2+y,z
1/2+x,1/2-y,z
loop_
_atom_site_type_symbol
_atom_site_label
_atom_site_fract_x
_atom_site_fract_y
_atom_site_fract_z
Si Si1 0.590677 0.325927 0.898502
Si Si2 0.332060 0.319969 0.500000
Si Si3 0.914070 0.182845 0.789888
Si Si4 0.909521 0.673515 0.000000
Si Si5 0.668508 0.681139 0.689166
Si Si6 0.588840 0.176654 0.404776
O O1 0.500000 0.320116 0.897721
O O2 0.611818 0.500000 0.901871
O O3 0.613329 0.264688 0.844272
O O4 0.616767 0.245766 0.948448
O O5 0.328781 0.500000 0.500000
O O6 0.250000 0.250000 0.500000
O O7 0.374207 0.259685 0.548653
O O8 0.882523 0.246896 0.645576
O O9 0.000000 0.230163 0.782679
O O10 0.914817 0.000000 0.792195
O O11 0.891138 0.500000 0.000000
O O12 0.000000 0.688754 0.000000
O O13 0.670616 0.500000 0.686154
O O14 0.750000 0.750000 0.683263
O O15 0.635010 0.725521 0.742834
O O16 0.500000 0.187632 0.408117
O O17 0.609315 0.000000 0.405391
#
# Coordination Sequence:
#
# PCOD9493734 Si02
#       6
#    16   8  16   8  16  16
#     4   8  13  23  40  61  86 120 163 207 251 303
#     4  12  25  42  65  91 121 155 191 228 269 318
#     4   8  15  29  50  74  98 129 173 221 264 311
#     4   9  15  21  31  55  92 127 156 193 249 311
#     4  11  22  37  57  81 111 145 183 225 271 324
#     4  11  24  42  63  88 118 149 184 228 275 322
#
# _framework density 18.567354999999999
#
# number of rings (size 3 to 8) (size 9 to 14) (size 15 to 20)
#    0.000    2.300    0.000    5.100    0.000    4.800 
#    0.000    2.000    0.000    4.800    0.000    0.700 
#    0.000    0.000    0.000    0.000    0.000    0.000 
#
# Total GULP energy -223183.805523 kJ/mol
# GULP energy per Si atom -5579.595138 kJ/mol
# Density = 1.852509 g / cm^3
# Si number density = 18.567355 Si / 1000 Ang^3
#
#
#
# Elastic Constant Matrix: (Units=GPa)
#
#
# Indices 1 2 3 4 5 6 
#
# 1 53.0948 38.7150 44.3861 0.0000 0.0000 0.0000
# 2 38.7150 99.0314 76.1559 0.0000 0.0000 0.0000
# 3 44.3861 76.1559 188.1191 0.0000 0.0000 0.0000
# 4 0.0000 0.0000 0.0000 -309.3235 0.0000 0.0000
# 5 0.0000 0.0000 0.0000 0.0000 -31.7644 0.0000
# 6 0.0000 0.0000 0.0000 0.0000 0.0000 16.0480
#
#
#
# Elastic Compliance Matrix: (Units=1/GPa)
#
#
# Indices 1 2 3 4 5 6 
#
# 1 0.027540 -0.008377 -0.003107 0.000000 0.000000 0.000000
# 2 -0.008377 0.017211 -0.004991 0.000000 0.000000 0.000000
# 3 -0.003107 -0.004991 0.008069 0.000000 0.000000 0.000000
# 4 0.000000 0.000000 0.000000 -0.003233 0.000000 0.000000
# 5 0.000000 0.000000 0.000000 0.000000 -0.031482 0.000000
# 6 0.000000 0.000000 0.000000 0.000000 0.000000 0.062313
#
#
# Mechanical properties :
#
#
# Convention : Reuss Voigt Hill
#
# Bulk Modulus (GPa) = 50.32628 73.19547 61.76087
# Shear Modulus (GPa) = 41.66985 -52.94208 -5.63611
#
# Velocity S-wave (km/s) = 4.74249 -5.34560 -1.74416
# Velocity P-wave (km/s) = 7.55989 1.18600 5.41103
#
# Compressibility (1/GPa) = 0.01987034
#
# Stress axis : x y z
#
# Youngs Moduli (GPa) = 36.31116 58.10308 123.92848
#
# Poissons Ratio (x) = 0.48675 0.38499
# Poissons Ratio (y) = 0.30419 0.61850
# Poissons Ratio (z) = 0.11280 0.28998
#
# Static dielectric constant tensor:
#      x y z
#    x 1.616380 0.000000 0.000000 
#    y 0.000000 1.625450 0.000000 
#    z 0.000000 0.000000 1.651150 
# 
# From -- ./inp_files/70790.got.cif
#   From: 2010.05.17/outbox.cif.g08.bks.cpg/sg65_36_cif.got.tgz:70790.got - 2010.06.03 17:01:31.
