data_PCOD9493421
_publ_section_title
;
Structure prediction by ZEFSAII (Michael W. Deem and Ramdas Pophale) SiO2 
 PCOD9493421
Probable space group: C M M M
;
_chemical_formula_sum "Si O2"
_cell_formula_units_Z 76
_cell_length_a 28.632168
_cell_length_b 7.507246
_cell_length_c 18.722415
_cell_angle_alpha 90.000000
_cell_angle_beta 90.000000
_cell_angle_gamma 90.000000
_cell_volume 4024.359302
_symmetry_space_group_name_H-M "C M M M"
_symmetry_group_IT_number 65
_symmetry_cell_setting 'orthorhombic'
loop_
_space_group_symop_operation_xyz
x,y,z
-x,-y,z
x,-y,-z
-x,y,-z
-x,-y,-z
x,y,-z
-x,y,z
x,-y,z
1/2+x,1/2+y,z
1/2-x,1/2-y,z
1/2+x,1/2-y,-z
1/2-x,1/2+y,-z
1/2-x,1/2-y,-z
1/2+x,1/2+y,-z
1/2-x,1/2+y,z
1/2+x,1/2-y,z
loop_
_atom_site_type_symbol
_atom_site_label
_atom_site_fract_x
_atom_site_fract_y
_atom_site_fract_z
Si Si1 0.554038 0.718808 0.343293
Si Si2 0.117291 0.795340 0.786204
Si Si3 0.445078 0.214996 0.078749
Si Si4 0.671649 0.500000 0.000000
Si Si5 0.803667 0.299859 0.116885
Si Si6 0.443327 0.705520 0.500000
O O1 0.500000 0.771618 0.330119
O O2 0.553783 0.500000 0.343883
O O3 0.588422 0.778472 0.280757
O O4 0.569155 0.780809 0.422446
O O5 0.083004 0.787628 0.854785
O O6 0.164525 0.704990 0.812569
O O7 0.128330 0.000000 0.770162
O O8 0.500000 0.257336 0.084855
O O9 0.440662 0.000000 0.079443
O O10 0.429067 0.279057 0.000000
O O11 0.823906 0.844115 0.937795
O O12 0.805318 0.500000 0.086974
O O13 0.750000 0.250000 0.130378
O O14 0.427410 0.500000 0.500000
O O15 0.500000 0.703786 0.500000
#
# Coordination Sequence:
#
# PCOD9493421 Si02
#       6
#    16  16  16   4  16   8
#     4   8  14  25  45  73 109 148 185 226 269 322
#     4  11  21  33  48  75 107 140 180 221 275 329
#     4   9  19  34  47  62  89 130 179 223 259 304
#     4  12  24  44  62  86 105 138 177 236 284 338
#     4  12  25  41  60  83 109 139 180 228 284 333
#     4   7  10  20  40  70 104 141 184 226 268 314
#
# _framework density 18.884995
#
# number of rings (size 3 to 8) (size 9 to 14) (size 15 to 20)
#    0.000    2.211    2.105    3.789    1.474    1.684 
#    0.000    1.053    0.000    0.000    0.000    3.684 
#    0.000   11.789    0.000    0.000    0.000    0.000 
#
# Total GULP energy -211615.076214 kJ/mol
# GULP energy per Si atom -5568.817795 kJ/mol
# Density = 1.884201 g / cm^3
# Si number density = 18.884995 Si / 1000 Ang^3
#
#
#
# Elastic Constant Matrix: (Units=GPa)
#
#
# Indices 1 2 3 4 5 6 
#
# 1 66.6649 13.2702 60.5992 0.0000 0.0000 0.0000
# 2 13.2702 105.3455 21.3622 0.0000 0.0000 0.0000
# 3 60.5992 21.3622 154.1922 0.0000 0.0000 0.0000
# 4 0.0000 0.0000 0.0000 19.7899 0.0000 0.0000
# 5 0.0000 0.0000 0.0000 0.0000 -1.2183 0.0000
# 6 0.0000 0.0000 0.0000 0.0000 0.0000 8.5533
#
#
#
# Elastic Compliance Matrix: (Units=1/GPa)
#
#
# Indices 1 2 3 4 5 6 
#
# 1 0.023465 -0.001117 -0.009067 0.000000 0.000000 0.000000
# 2 -0.001117 0.009820 -0.000921 0.000000 0.000000 0.000000
# 3 -0.009067 -0.000921 0.010177 0.000000 0.000000 0.000000
# 4 0.000000 0.000000 0.000000 0.050531 0.000000 0.000000
# 5 0.000000 0.000000 0.000000 0.000000 -0.820800 0.000000
# 6 0.000000 0.000000 0.000000 0.000000 0.000000 0.116913
#
#
# Mechanical properties :
#
#
# Convention : Reuss Voigt Hill
#
# Bulk Modulus (GPa) = 47.05874 57.40732 52.23303
# Shear Modulus (GPa) = -8.61179 20.82304 6.10563
#
# Velocity S-wave (km/s) = -2.13776 3.32418 1.80002
# Velocity P-wave (km/s) = 4.34503 6.72294 5.66027
#
# Compressibility (1/GPa) = 0.02125004
#
# Stress axis : x y z
#
# Youngs Moduli (GPa) = 42.61667 101.83135 98.26468
#
# Poissons Ratio (x) = 0.11376 0.89099
# Poissons Ratio (y) = 0.04761 0.09055
# Poissons Ratio (z) = 0.38642 0.09383
#
# Static dielectric constant tensor:
#      x y z
#    x 1.661140 0.000000 0.000000 
#    y 0.000000 1.723640 0.000000 
#    z 0.000000 0.000000 1.671240 
# 
# From -- ./inp_files/57891.got.cif
#   From: 2010.05.17/outbox.cif.g08.bks.cpg/sg65_29_cif.got.tgz:57891.got - 2010.06.03 17:01:31.
