data_PCOD9493004
_publ_section_title
;
Structure prediction by ZEFSAII (Michael W. Deem and Ramdas Pophale) SiO2 
 PCOD9493004
Probable space group: C M M M
;
_chemical_formula_sum "Si O2"
_cell_formula_units_Z 56
_cell_length_a 7.823253
_cell_length_b 14.559300
_cell_length_c 21.595235
_cell_angle_alpha 90.000000
_cell_angle_beta 90.000000
_cell_angle_gamma 90.000000
_cell_volume 2459.720749
_symmetry_space_group_name_H-M "C M M M"
_symmetry_group_IT_number 65
_symmetry_cell_setting 'orthorhombic'
loop_
_space_group_symop_operation_xyz
x,y,z
-x,-y,z
x,-y,-z
-x,y,-z
-x,-y,-z
x,y,-z
-x,y,z
x,-y,z
1/2+x,1/2+y,z
1/2-x,1/2-y,z
1/2+x,1/2-y,-z
1/2-x,1/2+y,-z
1/2-x,1/2-y,-z
1/2+x,1/2+y,-z
1/2-x,1/2+y,z
1/2+x,1/2-y,z
loop_
_atom_site_type_symbol
_atom_site_label
_atom_site_fract_x
_atom_site_fract_y
_atom_site_fract_z
Si Si1 0.301932 0.603431 0.192945
Si Si2 0.750000 0.750000 0.892333
Si Si3 0.704207 0.500000 0.570056
Si Si4 0.211297 0.389576 0.000000
Si Si5 0.699628 0.145384 0.328839
O O1 0.500000 0.623617 0.174857
O O2 0.259166 0.500000 0.173977
O O3 0.183600 0.677814 0.159909
O O4 0.291728 0.610316 0.266918
O O5 0.712290 0.668057 0.942125
O O6 0.500000 0.500000 0.567154
O O7 0.771813 0.500000 0.500000
O O8 0.759399 0.586763 0.610740
O O9 0.244970 0.500000 0.000000
O O10 0.000000 0.377924 0.000000
O O11 0.500000 0.137310 0.315615
O O12 0.750000 0.250000 0.338802
#
# Coordination Sequence:
#
# PCOD9493004 Si02
#       5
#    16   8   8   8  16
#     4  11  23  39  62  93 132 171 217 278 342 405
#     4  11  22  38  64  92 125 174 226 278 345 412
#     4  11  25  47  73 101 139 184 229 282 341 403
#     4  10  22  40  60  88 128 172 223 283 340 405
#     4  12  25  42  68 100 137 180 227 280 339 405
#
# _framework density 22.766812000000002
#
# number of rings (size 3 to 8) (size 9 to 14) (size 15 to 20)
#    0.000    0.857    2.857    4.714    0.000    2.857 
#    0.000    0.000    0.000    6.857    0.000    0.000 
#    0.000    0.000    0.000    0.000    0.000    0.000 
#
# Total GULP energy -155955.951511 kJ/mol
# GULP energy per Si atom -5569.855411 kJ/mol
# Density = 2.271499 g / cm^3
# Si number density = 22.766812 Si / 1000 Ang^3
#
#
#
# Elastic Constant Matrix: (Units=GPa)
#
#
# Indices 1 2 3 4 5 6 
#
# 1 108.8957 26.6128 15.9617 0.0000 0.0000 0.0000
# 2 26.6128 231.4717 69.7665 0.0000 0.0000 0.0000
# 3 15.9617 69.7665 170.7203 0.0000 0.0000 0.0000
# 4 0.0000 0.0000 0.0000 40.2637 0.0000 0.0000
# 5 0.0000 0.0000 0.0000 0.0000 -435.3292 0.0000
# 6 0.0000 0.0000 0.0000 0.0000 0.0000 6.7573
#
#
#
# Elastic Compliance Matrix: (Units=1/GPa)
#
#
# Indices 1 2 3 4 5 6 
#
# 1 0.009486 -0.000939 -0.000503 0.000000 0.000000 0.000000
# 2 -0.000939 0.005020 -0.001964 0.000000 0.000000 0.000000
# 3 -0.000503 -0.001964 0.006707 0.000000 0.000000 0.000000
# 4 0.000000 0.000000 0.000000 0.024836 0.000000 0.000000
# 5 0.000000 0.000000 0.000000 0.000000 -0.002297 0.000000
# 6 0.000000 0.000000 0.000000 0.000000 0.000000 0.147988
#
#
# Mechanical properties :
#
#
# Convention : Reuss Voigt Hill
#
# Bulk Modulus (GPa) = 69.43656 81.75217 75.59436
# Shear Modulus (GPa) = 24.58786 -51.07852 -13.24533
#
# Velocity S-wave (km/s) = 3.28988 -4.74175 -2.41463
# Velocity P-wave (km/s) = 6.70793 2.45101 5.04994
#
# Compressibility (1/GPa) = 0.01440164
#
# Stress axis : x y z
#
# Youngs Moduli (GPa) = 105.41481 199.20318 149.09669
#
# Poissons Ratio (x) = 0.18705 0.07503
# Poissons Ratio (y) = 0.09898 0.29278
# Poissons Ratio (z) = 0.05305 0.39117
#
# Static dielectric constant tensor:
#      x y z
#    x 1.813020 0.000000 0.000000 
#    y 0.000000 1.811000 0.000000 
#    z 0.000000 0.000000 1.823670 
# 
# From -- ./inp_files/58633.got.cif
#   From: 2010.05.17/outbox.cif.g08.bks.cpg/sg65_30_cif.got.tgz:58633.got - 2010.06.03 17:01:31.
