data_PCOD9493128
_publ_section_title
;
Structure prediction by ZEFSAII (Michael W. Deem and Ramdas Pophale) SiO2 
 PCOD9493128
Probable space group: C M M M
;
_chemical_formula_sum "Si O2"
_cell_formula_units_Z 56
_cell_length_a 11.414489
_cell_length_b 21.051794
_cell_length_c 12.166957
_cell_angle_alpha 90.000000
_cell_angle_beta 90.000000
_cell_angle_gamma 90.000000
_cell_volume 2923.664663
_symmetry_space_group_name_H-M "C M M M"
_symmetry_group_IT_number 65
_symmetry_cell_setting 'orthorhombic'
loop_
_space_group_symop_operation_xyz
x,y,z
-x,-y,z
x,-y,-z
-x,y,-z
-x,-y,-z
x,y,-z
-x,y,z
x,-y,z
1/2+x,1/2+y,z
1/2-x,1/2-y,z
1/2+x,1/2-y,-z
1/2-x,1/2+y,-z
1/2-x,1/2-y,-z
1/2+x,1/2+y,-z
1/2-x,1/2+y,z
1/2+x,1/2-y,z
loop_
_atom_site_type_symbol
_atom_site_label
_atom_site_fract_x
_atom_site_fract_y
_atom_site_fract_z
Si Si1 0.000000 0.244777 0.621197
Si Si2 0.500000 0.407841 0.626451
Si Si3 0.139942 0.500000 0.871882
Si Si4 0.140290 0.575595 0.500000
Si Si5 0.250000 0.750000 0.264981
Si Si6 0.741956 0.607190 0.271261
O O1 0.000000 0.168513 0.615259
O O2 0.124547 0.260201 0.675225
O O3 0.000000 0.272741 0.500000
O O4 0.500000 0.431590 0.500000
O O5 0.615950 0.421641 0.695552
O O6 0.190082 0.561250 0.810026
O O7 0.000000 0.500000 0.862063
O O8 0.171661 0.500000 0.000000
O O9 0.171792 0.500000 0.500000
O O10 0.192771 0.606865 0.609990
O O11 0.000000 0.578794 0.500000
O O12 0.268188 0.678085 0.219548
#
# Coordination Sequence:
#
# PCOD9493128 Si02
#       6
#     8   8   8   8   8  16
#     4   9  18  30  45  79 126 170 202 233 291 364
#     4   9  18  35  54  87 133 167 191 235 298 374
#     4  11  26  48  69  88 116 160 214 269 320 367
#     4  11  22  34  55  93 133 165 206 259 309 367
#     4  10  23  32  57  88 126 166 207 251 306 372
#     4  11  22  39  60  93 128 165 209 253 310 373
#
# _framework density 19.154042
#
# number of rings (size 3 to 8) (size 9 to 14) (size 15 to 20)
#    0.000    1.714    2.857    1.286    8.000    0.571 
#    0.000    3.571    0.000    0.000    0.000    0.000 
#    0.000    0.000    0.000    0.000    0.000    0.000 
#
# Total GULP energy -155979.221906 kJ/mol
# GULP energy per Si atom -5570.686497 kJ/mol
# Density = 1.911045 g / cm^3
# Si number density = 19.154042 Si / 1000 Ang^3
#
#
#
# Elastic Constant Matrix: (Units=GPa)
#
#
# Indices 1 2 3 4 5 6 
#
# 1 123.3626 6.4138 38.6817 0.0000 0.0000 0.0000
# 2 6.4138 143.4450 36.5991 0.0000 0.0000 0.0000
# 3 38.6817 36.5991 94.3666 0.0000 0.0000 0.0000
# 4 0.0000 0.0000 0.0000 -5.4948 0.0000 0.0000
# 5 0.0000 0.0000 0.0000 0.0000 -206.5412 0.0000
# 6 0.0000 0.0000 0.0000 0.0000 0.0000 23.6455
#
#
#
# Elastic Compliance Matrix: (Units=1/GPa)
#
#
# Indices 1 2 3 4 5 6 
#
# 1 0.009351 0.000621 -0.004074 0.000000 0.000000 0.000000
# 2 0.000621 0.007778 -0.003271 0.000000 0.000000 0.000000
# 3 -0.004074 -0.003271 0.013536 0.000000 0.000000 0.000000
# 4 0.000000 0.000000 0.000000 -0.181989 0.000000 0.000000
# 5 0.000000 0.000000 0.000000 0.000000 -0.004842 0.000000
# 6 0.000000 0.000000 0.000000 0.000000 0.000000 0.042291
#
#
# Mechanical properties :
#
#
# Convention : Reuss Voigt Hill
#
# Bulk Modulus (GPa) = 58.08234 58.28480 58.18357
# Shear Modulus (GPa) = -52.80600 -19.04613 -35.92607
#
# Velocity S-wave (km/s) = -5.25633 -3.15678 -4.33556
# Velocity P-wave (km/s) = 2.53949 4.14832 2.31944
#
# Compressibility (1/GPa) = 0.01721694
#
# Stress axis : x y z
#
# Youngs Moduli (GPa) = 106.93591 128.56425 73.87810
#
# Poissons Ratio (x) = -0.07989 0.30100
# Poissons Ratio (y) = -0.06645 0.24169
# Poissons Ratio (z) = 0.43568 0.42059
#
# Static dielectric constant tensor:
#      x y z
#    x 1.599680 0.000000 0.000000 
#    y 0.000000 1.708240 0.000000 
#    z 0.000000 0.000000 1.628940 
# 
# From -- ./inp_files/22168.got.cif
#   From: 2010.05.17/outbox.cif.g08.bks.cpg/sg65_12_cif.got.tgz:22168.got - 2010.06.03 17:01:31.
