data_PCOD9493018
_publ_section_title
;
Structure prediction by ZEFSAII (Michael W. Deem and Ramdas Pophale) SiO2 
 PCOD9493018
Probable space group: C M M M
;
_chemical_formula_sum "Si O2"
_cell_formula_units_Z 104
_cell_length_a 22.233517
_cell_length_b 8.689780
_cell_length_c 26.778145
_cell_angle_alpha 90.000000
_cell_angle_beta 90.000000
_cell_angle_gamma 90.000000
_cell_volume 5173.654671
_symmetry_space_group_name_H-M "C M M M"
_symmetry_group_IT_number 65
_symmetry_cell_setting 'orthorhombic'
loop_
_space_group_symop_operation_xyz
x,y,z
-x,-y,z
x,-y,-z
-x,y,-z
-x,-y,-z
x,y,-z
-x,y,z
x,-y,z
1/2+x,1/2+y,z
1/2-x,1/2-y,z
1/2+x,1/2-y,-z
1/2-x,1/2+y,-z
1/2-x,1/2-y,-z
1/2+x,1/2+y,-z
1/2-x,1/2+y,z
1/2+x,1/2-y,z
loop_
_atom_site_type_symbol
_atom_site_label
_atom_site_fract_x
_atom_site_fract_y
_atom_site_fract_z
Si Si1 0.376171 0.319036 0.290385
Si Si2 0.185811 0.684381 0.382526
Si Si3 0.500000 0.318381 0.844075
Si Si4 0.114219 0.320389 0.100352
Si Si5 0.318094 0.186819 0.000000
Si Si6 0.933448 0.313301 0.558800
Si Si7 0.000000 0.316945 0.268837
Si Si8 0.814932 0.321443 0.799931
O O1 0.376927 0.500000 0.298705
O O2 0.327822 0.240335 0.326451
O O3 0.441490 0.245702 0.296900
O O4 0.359185 0.278096 0.233814
O O5 0.188299 0.500000 0.384566
O O6 0.250000 0.750000 0.399716
O O7 0.126679 0.739568 0.413029
O O8 0.500000 0.500000 0.834936
O O9 0.557841 0.269302 0.876690
O O10 0.500000 0.237419 0.789396
O O11 0.096196 0.500000 0.094186
O O12 0.143968 0.265650 0.048921
O O13 0.165080 0.314660 0.142903
O O14 0.250000 0.250000 0.000000
O O15 0.314364 0.000000 0.000000
O O16 0.928742 0.276589 0.500000
O O17 0.933814 0.500000 0.563001
O O18 0.000000 0.259914 0.576269
O O19 0.000000 0.500000 0.269044
O O20 0.817564 0.500000 0.783899
O O21 0.750000 0.250000 0.793388
#
# Coordination Sequence:
#
# PCOD9493018 Si02
#       8
#    16  16   8  16   8  16   8  16
#     4  12  25  41  61  89 124 162 206 256 307 366
#     4  11  23  39  61  91 129 171 214 265 322 379
#     4  12  24  39  63  92 121 153 197 246 297 352
#     4  10  22  40  62  86 119 158 198 244 299 360
#     4  10  22  41  64  91 119 156 198 242 297 354
#     4   8  16  34  61  92 123 161 215 271 320 376
#     4  12  24  42  65  91 123 161 205 250 309 375
#     4  11  22  37  59  85 116 158 202 249 303 362
#
# _framework density 20.101844
#
# number of rings (size 3 to 8) (size 9 to 14) (size 15 to 20)
#    0.000    1.385    1.538    5.077    1.077    1.846 
#    0.000    1.538    0.000    1.385    0.000    4.308 
#    0.000    0.000    0.000    0.000    0.000    0.000 
#
# Total GULP energy -290548.323039 kJ/mol
# GULP energy per Si atom -5587.467751 kJ/mol
# Density = 2.005609 g / cm^3
# Si number density = 20.101844 Si / 1000 Ang^3
#
#
#
# Elastic Constant Matrix: (Units=GPa)
#
#
# Indices 1 2 3 4 5 6 
#
# 1 138.9545 37.8496 28.1750 0.0000 0.0000 0.0000
# 2 37.8496 77.7011 8.1362 0.0000 0.0000 0.0000
# 3 28.1750 8.1362 62.9700 0.0000 0.0000 0.0000
# 4 0.0000 0.0000 0.0000 6.3339 0.0000 0.0000
# 5 0.0000 0.0000 0.0000 0.0000 30.0868 0.0000
# 6 0.0000 0.0000 0.0000 0.0000 0.0000 35.6036
#
#
#
# Elastic Compliance Matrix: (Units=1/GPa)
#
#
# Indices 1 2 3 4 5 6 
#
# 1 0.009002 -0.004018 -0.003509 0.000000 0.000000 0.000000
# 2 -0.004018 0.014840 -0.000120 0.000000 0.000000 0.000000
# 3 -0.003509 -0.000120 0.017466 0.000000 0.000000 0.000000
# 4 0.000000 0.000000 0.000000 0.157881 0.000000 0.000000
# 5 0.000000 0.000000 0.000000 0.000000 0.033237 0.000000
# 6 0.000000 0.000000 0.000000 0.000000 0.000000 0.028087
#
#
# Mechanical properties :
#
#
# Convention : Reuss Voigt Hill
#
# Bulk Modulus (GPa) = 38.43898 47.54969 42.99434
# Shear Modulus (GPa) = 17.57603 28.10249 22.83926
#
# Velocity S-wave (km/s) = 2.96015 3.74305 3.37438
# Velocity P-wave (km/s) = 5.55400 6.51047 6.05117
#
# Compressibility (1/GPa) = 0.02601526
#
# Stress axis : x y z
#
# Youngs Moduli (GPa) = 111.08027 67.38758 57.25393
#
# Poissons Ratio (x) = 0.27075 0.20090
# Poissons Ratio (y) = 0.44630 0.00685
# Poissons Ratio (z) = 0.38977 0.00806
#
# Static dielectric constant tensor:
#      x y z
#    x 1.710260 0.000000 0.000000 
#    y 0.000000 1.688550 0.000000 
#    z 0.000000 0.000000 1.710800 
# 
# From -- ./inp_files/75564.got.cif
#   From: 2010.05.17/outbox.cif.g08.bks.cpg/sg65_38_cif.got.tgz:75564.got - 2010.06.03 17:01:31.
