data_PCOD9493708
_publ_section_title
;
Structure prediction by ZEFSAII (Michael W. Deem and Ramdas Pophale) SiO2 
 PCOD9493708
Probable space group: C M M M
;
_chemical_formula_sum "Si O2"
_cell_formula_units_Z 72
_cell_length_a 18.553100
_cell_length_b 8.551862
_cell_length_c 23.780989
_cell_angle_alpha 90.000000
_cell_angle_beta 90.000000
_cell_angle_gamma 90.000000
_cell_volume 3773.176158
_symmetry_space_group_name_H-M "C M M M"
_symmetry_group_IT_number 65
_symmetry_cell_setting 'orthorhombic'
loop_
_space_group_symop_operation_xyz
x,y,z
-x,-y,z
x,-y,-z
-x,y,-z
-x,-y,-z
x,y,-z
-x,y,z
x,-y,z
1/2+x,1/2+y,z
1/2-x,1/2-y,z
1/2+x,1/2-y,-z
1/2-x,1/2+y,-z
1/2-x,1/2-y,-z
1/2+x,1/2+y,-z
1/2-x,1/2+y,z
1/2+x,1/2-y,z
loop_
_atom_site_type_symbol
_atom_site_label
_atom_site_fract_x
_atom_site_fract_y
_atom_site_fract_z
Si Si1 0.830615 0.812889 0.669699
Si Si2 0.417170 0.309331 0.220013
Si Si3 0.831365 0.188000 0.108356
Si Si4 0.583784 0.188618 0.563754
Si Si5 0.583967 0.812209 0.000000
O O1 0.750000 0.750000 0.674975
O O2 0.878753 0.757967 0.722552
O O3 0.866463 0.758385 0.611714
O O4 0.828861 0.000000 0.670881
O O5 0.500000 0.256643 0.216923
O O6 0.417991 0.500000 0.220244
O O7 0.371548 0.260896 0.165568
O O8 0.750000 0.250000 0.106946
O O9 0.875724 0.248807 0.054974
O O10 0.830009 0.000000 0.107022
O O11 0.603541 0.236250 0.500000
O O12 0.500000 0.232985 0.573099
O O13 0.587543 0.000000 0.566076
O O14 0.500000 0.764167 0.000000
O O15 0.587227 0.000000 0.000000
#
# Coordination Sequence:
#
# PCOD9493708 Si02
#       5
#    16  16  16  16   8
#     4  11  22  36  56  82 114 149 186 230 278 330
#     4   9  19  36  58  84 112 144 185 232 279 330
#     4  11  22  38  61  86 116 152 189 229 277 333
#     4   9  19  37  59  82 110 144 183 229 280 334
#     4  11  24  41  60  85 117 149 188 237 282 329
#
# _framework density 19.082066999999999
#
# number of rings (size 3 to 8) (size 9 to 14) (size 15 to 20)
#    0.000    1.889    0.000    4.667    0.000    4.000 
#    0.000    4.444    0.000    8.000    0.000    0.000 
#    0.000    0.000    0.000    0.000    0.000    0.000 
#
# Total GULP energy -201187.992375 kJ/mol
# GULP energy per Si atom -5588.555344 kJ/mol
# Density = 1.903864 g / cm^3
# Si number density = 19.082067 Si / 1000 Ang^3
#
#
#
# Elastic Constant Matrix: (Units=GPa)
#
#
# Indices 1 2 3 4 5 6 
#
# 1 202.4532 41.5112 127.1977 0.0000 0.0000 0.0000
# 2 41.5112 36.4911 36.9146 0.0000 0.0000 0.0000
# 3 127.1977 36.9146 182.7039 0.0000 0.0000 0.0000
# 4 0.0000 0.0000 0.0000 -1.8611 0.0000 0.0000
# 5 0.0000 0.0000 0.0000 0.0000 46.4931 0.0000
# 6 0.0000 0.0000 0.0000 0.0000 0.0000 -20.8532
#
#
#
# Elastic Compliance Matrix: (Units=1/GPa)
#
#
# Indices 1 2 3 4 5 6 
#
# 1 0.009498 -0.005173 -0.005567 0.000000 0.000000 0.000000
# 2 -0.005173 0.037261 -0.003927 0.000000 0.000000 0.000000
# 3 -0.005567 -0.003927 0.010143 0.000000 0.000000 0.000000
# 4 0.000000 0.000000 0.000000 -0.537329 0.000000 0.000000
# 5 0.000000 0.000000 0.000000 0.000000 0.021509 0.000000
# 6 0.000000 0.000000 0.000000 0.000000 0.000000 -0.047954
#
#
# Mechanical properties :
#
#
# Convention : Reuss Voigt Hill
#
# Bulk Modulus (GPa) = 36.27492 92.54393 64.40942
# Shear Modulus (GPa) = -10.67577 19.15743 4.24083
#
# Velocity S-wave (km/s) = -2.36787 3.17195 1.49239
# Velocity P-wave (km/s) = 3.40228 7.87516 6.06604
#
# Compressibility (1/GPa) = 0.02756726
#
# Stress axis : x y z
#
# Youngs Moduli (GPa) = 105.28767 26.83775 98.59297
#
# Poissons Ratio (x) = 0.13882 0.54889
# Poissons Ratio (y) = 0.54461 0.38720
# Poissons Ratio (z) = 0.58616 0.10540
#
# Static dielectric constant tensor:
#      x y z
#    x 1.629210 0.000000 0.000000 
#    y 0.000000 1.650800 0.000000 
#    z 0.000000 0.000000 1.639070 
# 
# From -- ./inp_files/70337.got.cif
#   From: 2010.05.17/outbox.cif.g08.bks.cpg/sg65_36_cif.got.tgz:70337.got - 2010.06.03 17:01:31.
