data_PCOD9493883
_publ_section_title
;
Structure prediction by ZEFSAII (Michael W. Deem and Ramdas Pophale) SiO2 
 PCOD9493883
Probable space group: C M M M
;
_chemical_formula_sum "Si O2"
_cell_formula_units_Z 72
_cell_length_a 26.274978
_cell_length_b 7.614239
_cell_length_c 17.546686
_cell_angle_alpha 90.000000
_cell_angle_beta 90.000000
_cell_angle_gamma 90.000000
_cell_volume 3510.459525
_symmetry_space_group_name_H-M "C M M M"
_symmetry_group_IT_number 65
_symmetry_cell_setting 'orthorhombic'
loop_
_space_group_symop_operation_xyz
x,y,z
-x,-y,z
x,-y,-z
-x,y,-z
-x,-y,-z
x,y,-z
-x,y,z
x,-y,z
1/2+x,1/2+y,z
1/2-x,1/2-y,z
1/2+x,1/2-y,-z
1/2-x,1/2+y,-z
1/2-x,1/2-y,-z
1/2+x,1/2+y,-z
1/2-x,1/2+y,z
1/2+x,1/2-y,z
loop_
_atom_site_type_symbol
_atom_site_label
_atom_site_fract_x
_atom_site_fract_y
_atom_site_fract_z
Si Si1 0.445017 0.714091 0.373625
Si Si2 0.585873 0.710358 0.205095
Si Si3 0.500000 0.792938 0.084943
Si Si4 0.167034 0.214332 0.581501
Si Si5 0.805330 0.789704 0.251319
O O1 0.500000 0.773432 0.402937
O O2 0.445380 0.500000 0.376164
O O3 0.439004 0.768588 0.285125
O O4 0.392641 0.765248 0.413587
O O5 0.587587 0.500000 0.209802
O O6 0.549986 0.750112 0.134342
O O7 0.644419 0.774330 0.206823
O O8 0.500000 0.000000 0.077187
O O9 0.500000 0.713870 0.000000
O O10 0.188065 0.274976 0.500000
O O11 0.191327 0.276507 0.660849
O O12 0.169319 0.000000 0.582138
O O13 0.750000 0.750000 0.218700
O O14 0.809428 0.000000 0.255195
#
# Coordination Sequence:
#
# PCOD9493883 Si02
#       5
#    16  16   8  16  16
#     4   8  12  20  38  61  86 119 160 203 239 275
#     4   9  17  32  52  72  98 132 167 200 234 283
#     4  11  23  35  51  81 112 129 146 184 239 291
#     4   8  14  23  35  58  93 127 161 204 250 290
#     4   9  18  31  49  72  97 129 171 213 248 284
#
# _framework density 20.510134000000001
#
# number of rings (size 3 to 8) (size 9 to 14) (size 15 to 20)
#    0.000    3.222    1.111    3.000    0.000    2.667 
#    0.000    2.222    0.000    0.667    0.000    0.000 
#    0.000    4.444    0.000    0.000    0.000    0.000 
#
# Total GULP energy -200620.898144 kJ/mol
# GULP energy per Si atom -5572.802726 kJ/mol
# Density = 2.046345 g / cm^3
# Si number density = 20.510134 Si / 1000 Ang^3
#
#
#
# Elastic Constant Matrix: (Units=GPa)
#
#
# Indices 1 2 3 4 5 6 
#
# 1 165.4257 1.7588 48.6257 0.0000 0.0000 0.0000
# 2 1.7588 39.6540 2.9557 0.0000 0.0000 0.0000
# 3 48.6257 2.9557 110.9498 0.0000 0.0000 0.0000
# 4 0.0000 0.0000 0.0000 23.7685 0.0000 0.0000
# 5 0.0000 0.0000 0.0000 0.0000 -31.5564 0.0000
# 6 0.0000 0.0000 0.0000 0.0000 0.0000 14.5502
#
#
#
# Elastic Compliance Matrix: (Units=1/GPa)
#
#
# Indices 1 2 3 4 5 6 
#
# 1 0.006939 -0.000081 -0.003039 0.000000 0.000000 0.000000
# 2 -0.000081 0.025269 -0.000638 0.000000 0.000000 0.000000
# 3 -0.003039 -0.000638 0.010362 0.000000 0.000000 0.000000
# 4 0.000000 0.000000 0.000000 0.042073 0.000000 0.000000
# 5 0.000000 0.000000 0.000000 0.000000 -0.031689 0.000000
# 6 0.000000 0.000000 0.000000 0.000000 0.000000 0.068727
#
#
# Mechanical properties :
#
#
# Convention : Reuss Voigt Hill
#
# Bulk Modulus (GPa) = 28.52685 46.96776 37.74731
# Shear Modulus (GPa) = 35.49075 18.86508 27.17792
#
# Velocity S-wave (km/s) = 4.16432 3.03610 3.64414
# Velocity P-wave (km/s) = 6.08777 5.93633 6.01253
#
# Compressibility (1/GPa) = 0.03505469
#
# Stress axis : x y z
#
# Youngs Moduli (GPa) = 144.10928 39.57376 96.50659
#
# Poissons Ratio (x) = 0.00322 0.29329
# Poissons Ratio (y) = 0.01171 0.06153
# Poissons Ratio (z) = 0.43796 0.02523
#
# Static dielectric constant tensor:
#      x y z
#    x 1.805570 0.000000 0.000000 
#    y 0.000000 1.783150 0.000000 
#    z 0.000000 0.000000 1.738440 
# 
# From -- ./inp_files/57133.got.cif
#   From: 2010.05.17/outbox.cif.g08.bks.cpg/sg65_29_cif.got.tgz:57133.got - 2010.06.03 17:01:31.
