data_PCOD9493300
_publ_section_title
;
Structure prediction by ZEFSAII (Michael W. Deem and Ramdas Pophale) SiO2 
 PCOD9493300
Probable space group: C M M M
;
_chemical_formula_sum "Si O2"
_cell_formula_units_Z 64
_cell_length_a 13.945740
_cell_length_b 19.906243
_cell_length_c 12.521310
_cell_angle_alpha 90.000000
_cell_angle_beta 90.000000
_cell_angle_gamma 90.000000
_cell_volume 3476.006927
_symmetry_space_group_name_H-M "C M M M"
_symmetry_group_IT_number 65
_symmetry_cell_setting 'orthorhombic'
loop_
_space_group_symop_operation_xyz
x,y,z
-x,-y,z
x,-y,-z
-x,y,-z
-x,-y,-z
x,y,-z
-x,y,z
x,-y,z
1/2+x,1/2+y,z
1/2-x,1/2-y,z
1/2+x,1/2-y,-z
1/2-x,1/2+y,-z
1/2-x,1/2-y,-z
1/2+x,1/2+y,-z
1/2-x,1/2+y,z
1/2+x,1/2-y,z
loop_
_atom_site_type_symbol
_atom_site_label
_atom_site_fract_x
_atom_site_fract_y
_atom_site_fract_z
Si Si1 0.353935 0.849874 0.500000
Si Si2 0.329157 0.922785 0.282071
Si Si3 0.500000 0.731635 0.876406
Si Si4 0.327546 0.688038 0.271268
Si Si5 0.500000 0.893432 0.124534
Si Si6 0.368482 0.302340 0.500000
O O1 0.371589 0.891042 0.392089
O O2 0.397000 0.775876 0.500000
O O3 0.242354 0.827701 0.500000
O O4 0.238293 0.876766 0.252193
O O5 0.407390 0.918294 0.188968
O O6 0.303025 0.000000 0.301757
O O7 0.596717 0.706169 0.819440
O O8 0.500000 0.812482 0.869120
O O9 0.500000 0.712153 0.000000
O O10 0.250000 0.750000 0.286410
O O11 0.389773 0.676335 0.379184
O O12 0.500000 0.912825 0.000000
#
# Coordination Sequence:
#
# PCOD9493300 Si02
#       6
#     8  16   8  16   8   8
#     4   9  15  31  54  83 113 146 182 227 277 334
#     4  11  22  36  57  85 118 152 182 225 285 341
#     4  11  24  38  60  89 108 141 199 245 273 318
#     4  11  19  38  60  84 115 147 186 232 280 332
#     4  11  23  39  57  81 114 150 194 236 273 331
#     4   9  14  31  59  85 112 142 186 228 276 334
#
# _framework density 18.411930999999999
#
# number of rings (size 3 to 8) (size 9 to 14) (size 15 to 20)
#    0.000    1.500    7.500    0.750    0.000    3.500 
#    0.000    4.375    0.000    0.750    0.000    5.250 
#    0.000    0.000    0.000    0.000    0.000    0.000 
#
# Total GULP energy -178262.368983 kJ/mol
# GULP energy per Si atom -5570.699031 kJ/mol
# Density = 1.837002 g / cm^3
# Si number density = 18.411931 Si / 1000 Ang^3
#
#
#
# Elastic Constant Matrix: (Units=GPa)
#
#
# Indices 1 2 3 4 5 6 
#
# 1 93.4344 31.3969 48.6872 0.0000 0.0000 0.0000
# 2 31.3969 106.9051 30.8071 0.0000 0.0000 0.0000
# 3 48.6872 30.8071 144.6234 0.0000 0.0000 0.0000
# 4 0.0000 0.0000 0.0000 6.5417 0.0000 0.0000
# 5 0.0000 0.0000 0.0000 0.0000 36.1949 0.0000
# 6 0.0000 0.0000 0.0000 0.0000 0.0000 14.0848
#
#
#
# Elastic Compliance Matrix: (Units=1/GPa)
#
#
# Indices 1 2 3 4 5 6 
#
# 1 0.013767 -0.002885 -0.004020 0.000000 0.000000 0.000000
# 2 -0.002885 0.010570 -0.001281 0.000000 0.000000 0.000000
# 3 -0.004020 -0.001281 0.008541 0.000000 0.000000 0.000000
# 4 0.000000 0.000000 0.000000 0.152867 0.000000 0.000000
# 5 0.000000 0.000000 0.000000 0.000000 0.027628 0.000000
# 6 0.000000 0.000000 0.000000 0.000000 0.000000 0.070999
#
#
# Mechanical properties :
#
#
# Convention : Reuss Voigt Hill
#
# Bulk Modulus (GPa) = 60.57971 62.97170 61.77571
# Shear Modulus (GPa) = 16.32684 26.96904 21.64794
#
# Velocity S-wave (km/s) = 2.98107 3.83137 3.43265
# Velocity P-wave (km/s) = 6.69499 7.33814 7.02393
#
# Compressibility (1/GPa) = 0.01650718
#
# Stress axis : x y z
#
# Youngs Moduli (GPa) = 72.63821 94.60466 117.08727
#
# Poissons Ratio (x) = 0.27291 0.47070
# Poissons Ratio (y) = 0.20954 0.14993
# Poissons Ratio (z) = 0.29201 0.12114
#
# Static dielectric constant tensor:
#      x y z
#    x 1.668340 0.000000 0.000000 
#    y 0.000000 1.623600 0.000000 
#    z 0.000000 0.000000 1.664830 
# 
# From -- ./inp_files/24018.got.cif
#   From: 2010.05.17/outbox.cif.g08.bks.cpg/sg65_13_cif.got.tgz:24018.got - 2010.06.03 17:01:31.
