data_PCOD9493049
_publ_section_title
;
Structure prediction by ZEFSAII (Michael W. Deem and Ramdas Pophale) SiO2 
 PCOD9493049
Probable space group: C M M M
;
_chemical_formula_sum "Si O2"
_cell_formula_units_Z 72
_cell_length_a 14.812644
_cell_length_b 27.779412
_cell_length_c 9.941993
_cell_angle_alpha 90.000000
_cell_angle_beta 90.000000
_cell_angle_gamma 90.000000
_cell_volume 4090.996305
_symmetry_space_group_name_H-M "C M M M"
_symmetry_group_IT_number 65
_symmetry_cell_setting 'orthorhombic'
loop_
_space_group_symop_operation_xyz
x,y,z
-x,-y,z
x,-y,-z
-x,y,-z
-x,-y,-z
x,y,-z
-x,y,z
x,-y,z
1/2+x,1/2+y,z
1/2-x,1/2-y,z
1/2+x,1/2-y,-z
1/2-x,1/2+y,-z
1/2-x,1/2-y,-z
1/2+x,1/2+y,-z
1/2-x,1/2+y,z
1/2+x,1/2-y,z
loop_
_atom_site_type_symbol
_atom_site_label
_atom_site_fract_x
_atom_site_fract_y
_atom_site_fract_z
Si Si1 0.606959 0.946425 0.500000
Si Si2 0.500000 0.185219 0.160348
Si Si3 0.000000 0.945435 0.661274
Si Si4 0.161176 0.618953 0.252242
Si Si5 0.137171 0.861024 0.663652
Si Si6 0.109765 0.556930 0.000000
Si Si7 0.500000 0.300079 0.837949
O O1 0.500000 0.951341 0.500000
O O2 0.633558 0.915273 0.626513
O O3 0.647771 0.000000 0.500000
O O4 0.588196 0.160891 0.226093
O O5 0.500000 0.242529 0.174539
O O6 0.500000 0.174535 0.000000
O O7 0.086947 0.912148 0.693087
O O8 0.000000 0.949587 0.500000
O O9 0.000000 0.000000 0.716614
O O10 0.260178 0.637813 0.287548
O O11 0.153072 0.583929 0.125397
O O12 0.130543 0.852938 0.500000
O O13 0.083883 0.822546 0.755019
O O14 0.126807 0.500000 0.000000
O O15 0.000000 0.562852 0.000000
O O16 0.500000 0.311707 0.000000
#
# Coordination Sequence:
#
# PCOD9493049 Si02
#       7
#     8   8   8  16  16   8   8
#     4  11  22  36  56  90 132 166 204 243 296 365
#     4  11  23  43  64  89 121 157 212 258 309 368
#     4   8  16  34  59  81 111 156 197 236 285 349
#     4  12  21  39  61  90 126 165 202 255 304 361
#     4  10  22  41  61  91 128 157 198 252 311 367
#     4  11  22  38  60  86 126 174 210 245 298 355
#     4  10  24  44  69  88 111 160 206 261 315 365
#
# _framework density 17.599626000000001
#
# number of rings (size 3 to 8) (size 9 to 14) (size 15 to 20)
#    0.000    1.444    4.444    1.667    1.556    4.444 
#    4.000    3.333    0.000    1.333    0.000    0.000 
#    0.000    0.000    0.000    0.000    0.000    0.000 
#
# Total GULP energy -200723.739155 kJ/mol
# GULP energy per Si atom -5575.659421 kJ/mol
# Density = 1.755957 g / cm^3
# Si number density = 17.599626 Si / 1000 Ang^3
#
#
#
# Elastic Constant Matrix: (Units=GPa)
#
#
# Indices 1 2 3 4 5 6 
#
# 1 156.8376 72.1488 64.4433 0.0000 0.0000 0.0000
# 2 72.1488 156.6261 76.0156 0.0000 0.0000 0.0000
# 3 64.4433 76.0156 161.0630 0.0000 0.0000 0.0000
# 4 0.0000 0.0000 0.0000 40.9475 0.0000 0.0000
# 5 0.0000 0.0000 0.0000 0.0000 26.0309 0.0000
# 6 0.0000 0.0000 0.0000 0.0000 0.0000 8.8222
#
#
#
# Elastic Compliance Matrix: (Units=1/GPa)
#
#
# Indices 1 2 3 4 5 6 
#
# 1 0.008574 -0.002963 -0.002032 0.000000 0.000000 0.000000
# 2 -0.002963 0.009306 -0.003206 0.000000 0.000000 0.000000
# 3 -0.002032 -0.003206 0.008535 0.000000 0.000000 0.000000
# 4 0.000000 0.000000 0.000000 0.024422 0.000000 0.000000
# 5 0.000000 0.000000 0.000000 0.000000 0.038416 0.000000
# 6 0.000000 0.000000 0.000000 0.000000 0.000000 0.113350
#
#
# Mechanical properties :
#
#
# Convention : Reuss Voigt Hill
#
# Bulk Modulus (GPa) = 99.88439 99.97135 99.92787
# Shear Modulus (GPa) = 22.48774 32.62138 27.55456
#
# Velocity S-wave (km/s) = 3.57843 4.30993 3.96110
# Velocity P-wave (km/s) = 8.59944 9.03846 8.82168
#
# Compressibility (1/GPa) = 0.01001157
#
# Stress axis : x y z
#
# Youngs Moduli (GPa) = 116.62877 107.45940 117.16423
#
# Poissons Ratio (x) = 0.31845 0.23808
# Poissons Ratio (y) = 0.34562 0.37566
# Poissons Ratio (z) = 0.23699 0.34455
#
# Static dielectric constant tensor:
#      x y z
#    x -0.217210 0.000000 0.000000 
#    y 0.000000 1.602260 0.000000 
#    z 0.000000 0.000000 1.560650 
# 
# From -- ./inp_files/7454.got.cif
#   From: 2010.05.17/outbox.cif.g08.bks.cpg/sg65_4_cif.got.tgz:7454.got - 2010.06.03 17:01:31.
