data_PCOD9493911
_publ_section_title
;
Structure prediction by ZEFSAII (Michael W. Deem and Ramdas Pophale) SiO2 
 PCOD9493911
Probable space group: C M M M
;
_chemical_formula_sum "Si O2"
_cell_formula_units_Z 96
_cell_length_a 15.005662
_cell_length_b 9.712629
_cell_length_c 31.367155
_cell_angle_alpha 90.000000
_cell_angle_beta 90.000000
_cell_angle_gamma 90.000000
_cell_volume 4571.588060
_symmetry_space_group_name_H-M "C M M M"
_symmetry_group_IT_number 65
_symmetry_cell_setting 'orthorhombic'
loop_
_space_group_symop_operation_xyz
x,y,z
-x,-y,z
x,-y,-z
-x,y,-z
-x,-y,-z
x,y,-z
-x,y,z
x,-y,z
1/2+x,1/2+y,z
1/2-x,1/2-y,z
1/2+x,1/2-y,-z
1/2-x,1/2+y,-z
1/2-x,1/2-y,-z
1/2+x,1/2+y,-z
1/2-x,1/2+y,z
1/2+x,1/2-y,z
loop_
_atom_site_type_symbol
_atom_site_label
_atom_site_fract_x
_atom_site_fract_y
_atom_site_fract_z
Si Si1 0.108785 0.157604 0.548416
Si Si2 0.664259 0.162159 0.873075
Si Si3 0.392997 0.656476 0.951982
Si Si4 0.890963 0.657434 0.626979
Si Si5 0.390809 0.344125 0.292975
Si Si6 0.603253 0.848875 0.780412
O O1 0.136448 0.190568 0.500000
O O2 0.138111 0.265261 0.583978
O O3 0.000000 0.158520 0.548713
O O4 0.135364 0.000000 0.558433
O O5 0.750000 0.250000 0.861003
O O6 0.631784 0.233418 0.916427
O O7 0.604519 0.176763 0.830975
O O8 0.679440 0.000000 0.879734
O O9 0.500000 0.651866 0.953404
O O10 0.362378 0.500000 0.941463
O O11 0.361404 0.689795 0.000000
O O12 0.860474 0.500000 0.629315
O O13 0.864404 0.747199 0.667807
O O14 0.000000 0.655078 0.626772
O O15 0.500000 0.351063 0.293420
O O16 0.358461 0.500000 0.297256
O O17 0.360631 0.272348 0.249031
O O18 0.500000 0.859817 0.767657
O O19 0.645278 0.000000 0.773069
#
# Coordination Sequence:
#
# PCOD9493911 Si02
#       6
#    16  16  16  16  16  16
#     4   8  13  20  28  38  56  86 125 169 216 266
#     4  11  23  37  54  77 106 139 172 207 248 295
#     4   9  19  37  60  84 109 137 170 209 251 294
#     4   9  15  21  30  45  67  95 128 171 221 270
#     4   9  16  25  39  59  80 104 138 181 229 279
#     4   9  18  33  51  70  93 121 156 199 245 291
#
# _framework density 20.999265999999999
#
# number of rings (size 3 to 8) (size 9 to 14) (size 15 to 20)
#    0.000    2.833    0.000    3.000    0.000    7.333 
#    0.000    4.167    0.000    0.000    0.000    0.000 
#    0.000    0.000    0.000    0.000    0.000    0.833 
#
# Total GULP energy -267750.712303 kJ/mol
# GULP energy per Si atom -5578.139840 kJ/mol
# Density = 2.095147 g / cm^3
# Si number density = 20.999266 Si / 1000 Ang^3
#
#
#
# Elastic Constant Matrix: (Units=GPa)
#
#
# Indices 1 2 3 4 5 6 
#
# 1 26.0709 12.1568 -1.5598 0.0000 0.0000 0.0000
# 2 12.1568 208.3099 129.5078 0.0000 0.0000 0.0000
# 3 -1.5598 129.5078 146.3717 0.0000 0.0000 0.0000
# 4 0.0000 0.0000 0.0000 44.6598 0.0000 0.0000
# 5 0.0000 0.0000 0.0000 0.0000 -26.9422 0.0000
# 6 0.0000 0.0000 0.0000 0.0000 0.0000 9.0940
#
#
#
# Elastic Compliance Matrix: (Units=1/GPa)
#
#
# Indices 1 2 3 4 5 6 
#
# 1 0.041495 -0.005993 0.005745 0.000000 0.000000 0.000000
# 2 -0.005993 0.011535 -0.010270 0.000000 0.000000 0.000000
# 3 0.005745 -0.010270 0.015980 0.000000 0.000000 0.000000
# 4 0.000000 0.000000 0.000000 0.022392 0.000000 0.000000
# 5 0.000000 0.000000 0.000000 0.000000 -0.037117 0.000000
# 6 0.000000 0.000000 0.000000 0.000000 0.000000 0.109963
#
#
# Mechanical properties :
#
#
# Convention : Reuss Voigt Hill
#
# Bulk Modulus (GPa) = 20.84470 73.44022 47.14246
# Shear Modulus (GPa) = 24.84141 21.40551 23.12346
#
# Velocity S-wave (km/s) = 3.44316 3.19618 3.32197
# Velocity P-wave (km/s) = 5.07494 6.97635 6.10019
#
# Compressibility (1/GPa) = 0.04797383
#
# Stress axis : x y z
#
# Youngs Moduli (GPa) = 24.09905 86.68981 62.57781
#
# Poissons Ratio (x) = 0.51957 -0.35951
# Poissons Ratio (y) = 0.14443 0.64269
# Poissons Ratio (z) = -0.13845 0.89032
#
# Static dielectric constant tensor:
#      x y z
#    x 1.838370 0.000000 0.000000 
#    y 0.000000 1.731500 0.000000 
#    z 0.000000 0.000000 1.758760 
# 
# From -- ./inp_files/75358.got.cif
#   From: 2010.05.17/outbox.cif.g08.bks.cpg/sg65_38_cif.got.tgz:75358.got - 2010.06.03 17:01:31.
