data_PCOD9493545
_publ_section_title
;
Structure prediction by ZEFSAII (Michael W. Deem and Ramdas Pophale) SiO2 
 PCOD9493545
Probable space group: C M M M
;
_chemical_formula_sum "Si O2"
_cell_formula_units_Z 48
_cell_length_a 8.487075
_cell_length_b 29.215839
_cell_length_c 10.499971
_cell_angle_alpha 90.000000
_cell_angle_beta 90.000000
_cell_angle_gamma 90.000000
_cell_volume 2603.541485
_symmetry_space_group_name_H-M "C M M M"
_symmetry_group_IT_number 65
_symmetry_cell_setting 'orthorhombic'
loop_
_space_group_symop_operation_xyz
x,y,z
-x,-y,z
x,-y,-z
-x,y,-z
-x,-y,-z
x,y,-z
-x,y,z
x,-y,z
1/2+x,1/2+y,z
1/2-x,1/2-y,z
1/2+x,1/2-y,-z
1/2-x,1/2+y,-z
1/2-x,1/2-y,-z
1/2+x,1/2+y,-z
1/2-x,1/2+y,z
1/2+x,1/2-y,z
loop_
_atom_site_type_symbol
_atom_site_label
_atom_site_fract_x
_atom_site_fract_y
_atom_site_fract_z
Si Si1 0.189627 0.646644 0.749368
Si Si2 0.308251 0.051061 0.148036
Si Si3 0.687376 0.301923 0.500000
Si Si4 0.811369 0.801758 0.000000
O O1 0.242182 0.593779 0.766663
O O2 0.253921 0.671350 0.624718
O O3 0.247188 0.673055 0.874781
O O4 0.000000 0.647684 0.745834
O O5 0.500000 0.050801 0.149031
O O6 0.255895 0.000000 0.186112
O O7 0.261902 0.058605 0.000000
O O8 0.500000 0.300287 0.500000
O O9 0.750000 0.250000 0.500000
O O10 0.750000 0.750000 0.000000
O O11 0.000000 0.802378 0.000000
#
# Coordination Sequence:
#
# PCOD9493545 Si02
#       4
#    16  16   8   8
#     4  11  21  38  62  89 117 152 196 243 290 343
#     4   8  14  28  55  90 121 149 187 236 284 334
#     4  12  26  44  61  82 115 157 198 243 297 358
#     4  12  24  38  57  84 117 151 192 243 295 348
#
# _framework density 18.436426999999998
#
# number of rings (size 3 to 8) (size 9 to 14) (size 15 to 20)
#    0.000    1.667    1.667    6.000    0.000    0.000 
#    0.000    0.833    0.000   10.000    0.000    0.000 
#    0.000    0.000    0.000    0.000    0.000    0.000 
#
# Total GULP energy -134041.384560 kJ/mol
# GULP energy per Si atom -5585.057690 kJ/mol
# Density = 1.839446 g / cm^3
# Si number density = 18.436427 Si / 1000 Ang^3
#
#
#
# Elastic Constant Matrix: (Units=GPa)
#
#
# Indices 1 2 3 4 5 6 
#
# 1 92.5032 52.5337 47.1590 0.0000 0.0000 0.0000
# 2 52.5337 222.3646 111.1098 0.0000 0.0000 0.0000
# 3 47.1590 111.1098 161.2175 0.0000 0.0000 0.0000
# 4 0.0000 0.0000 0.0000 29.7747 0.0000 0.0000
# 5 0.0000 0.0000 0.0000 0.0000 34.7653 0.0000
# 6 0.0000 0.0000 0.0000 0.0000 0.0000 20.8945
#
#
#
# Elastic Compliance Matrix: (Units=1/GPa)
#
#
# Indices 1 2 3 4 5 6 
#
# 1 0.013166 -0.001809 -0.002604 0.000000 0.000000 0.000000
# 2 -0.001809 0.007108 -0.004369 0.000000 0.000000 0.000000
# 3 -0.002604 -0.004369 0.009976 0.000000 0.000000 0.000000
# 4 0.000000 0.000000 0.000000 0.033586 0.000000 0.000000
# 5 0.000000 0.000000 0.000000 0.000000 0.028764 0.000000
# 6 0.000000 0.000000 0.000000 0.000000 0.000000 0.047859
#
#
# Mechanical properties :
#
#
# Convention : Reuss Voigt Hill
#
# Bulk Modulus (GPa) = 78.84186 99.74338 89.29262
# Shear Modulus (GPa) = 30.81618 34.77242 32.79430
#
# Velocity S-wave (km/s) = 4.09281 4.34760 4.22213
# Velocity P-wave (km/s) = 8.07415 8.91184 8.50332
#
# Compressibility (1/GPa) = 0.01268362
#
# Stress axis : x y z
#
# Youngs Moduli (GPa) = 75.95582 140.69032 100.24016
#
# Poissons Ratio (x) = 0.25451 0.26107
# Poissons Ratio (y) = 0.13741 0.43800
# Poissons Ratio (z) = 0.19782 0.61474
#
# Static dielectric constant tensor:
#      x y z
#    x 1.634490 0.000000 0.000000 
#    y 0.000000 1.647670 0.000000 
#    z 0.000000 0.000000 1.589850 
# 
# From -- ./inp_files/3076.got.cif
#   From: 2010.05.17/outbox.cif.g08.bks.cpg/sg65_2_cif.got.tgz:3076.got - 2010.06.03 17:01:31.
