data_PCOD9493260
_publ_section_title
;
Structure prediction by ZEFSAII (Michael W. Deem and Ramdas Pophale) SiO2 
 PCOD9493260
Probable space group: C M M M
;
_chemical_formula_sum "Si O2"
_cell_formula_units_Z 72
_cell_length_a 25.676077
_cell_length_b 14.450743
_cell_length_c 12.879860
_cell_angle_alpha 90.000000
_cell_angle_beta 90.000000
_cell_angle_gamma 90.000000
_cell_volume 4778.922518
_symmetry_space_group_name_H-M "C M M M"
_symmetry_group_IT_number 65
_symmetry_cell_setting 'orthorhombic'
loop_
_space_group_symop_operation_xyz
x,y,z
-x,-y,z
x,-y,-z
-x,y,-z
-x,-y,-z
x,y,-z
-x,y,z
x,-y,z
1/2+x,1/2+y,z
1/2-x,1/2-y,z
1/2+x,1/2-y,-z
1/2-x,1/2+y,-z
1/2-x,1/2-y,-z
1/2+x,1/2+y,-z
1/2-x,1/2+y,z
1/2+x,1/2-y,z
loop_
_atom_site_type_symbol
_atom_site_label
_atom_site_fract_x
_atom_site_fract_y
_atom_site_fract_z
Si Si1 0.937737 0.109932 0.000000
Si Si2 0.269099 0.644236 0.882829
Si Si3 0.845022 0.398678 0.125837
Si Si4 0.377689 0.697110 0.805438
Si Si5 0.938297 0.891187 0.378054
O O1 0.912658 0.156989 0.898891
O O2 0.000000 0.121960 0.000000
O O3 0.926804 0.000000 0.000000
O O4 0.250000 0.750000 0.891257
O O5 0.216261 0.597385 0.844994
O O6 0.321361 0.647073 0.816403
O O7 0.281965 0.611976 0.000000
O O8 0.868410 0.500000 0.149309
O O9 0.869410 0.307039 0.176243
O O10 0.846336 0.385913 0.000000
O O11 0.404676 0.671429 0.697932
O O12 0.927804 0.875610 0.500000
O O13 0.000000 0.875901 0.360766
O O14 0.928250 0.000000 0.355697
#
# Coordination Sequence:
#
# PCOD9493260 Si02
#       5
#     8  16  16  16  16
#     4  11  22  30  40  67  99 119 140 186 252 297
#     4   8  14  26  42  66  96 124 155 187 220 266
#     4   9  17  29  46  69 100 134 162 186 217 270
#     4  11  17  30  49  70  96 125 155 191 233 282
#     4   9  19  35  52  69  89 118 159 200 238 285
#
# _framework density 15.066158
#
# number of rings (size 3 to 8) (size 9 to 14) (size 15 to 20)
#    0.000    2.556    2.222    3.333    0.000    3.556 
#    0.000    0.000    0.000   10.000    0.000    1.556 
#    0.000    0.000    0.000    0.000    0.000    0.000 
#
# Total GULP energy -200450.155058 kJ/mol
# GULP energy per Si atom -5568.059863 kJ/mol
# Density = 1.503187 g / cm^3
# Si number density = 15.066158 Si / 1000 Ang^3
#
#
#
# Elastic Constant Matrix: (Units=GPa)
#
#
# Indices 1 2 3 4 5 6 
#
# 1 76.7600 55.9394 50.0491 0.0000 0.0000 0.0000
# 2 55.9394 124.3465 51.9333 0.0000 0.0000 0.0000
# 3 50.0491 51.9333 67.8815 0.0000 0.0000 0.0000
# 4 0.0000 0.0000 0.0000 13.6956 0.0000 0.0000
# 5 0.0000 0.0000 0.0000 0.0000 25.3713 0.0000
# 6 0.0000 0.0000 0.0000 0.0000 0.0000 19.8381
#
#
#
# Elastic Compliance Matrix: (Units=1/GPa)
#
#
# Indices 1 2 3 4 5 6 
#
# 1 0.027642 -0.005765 -0.015969 0.000000 0.000000 0.000000
# 2 -0.005765 0.013021 -0.005711 0.000000 0.000000 0.000000
# 3 -0.015969 -0.005711 0.030875 0.000000 0.000000 0.000000
# 4 0.000000 0.000000 0.000000 0.073016 0.000000 0.000000
# 5 0.000000 0.000000 0.000000 0.000000 0.039415 0.000000
# 6 0.000000 0.000000 0.000000 0.000000 0.000000 0.050408
#
#
# Mechanical properties :
#
#
# Convention : Reuss Voigt Hill
#
# Bulk Modulus (GPa) = 60.07393 64.98129 62.52761
# Shear Modulus (GPa) = 16.95973 19.18539 18.07256
#
# Velocity S-wave (km/s) = 3.35876 3.57236 3.46720
# Velocity P-wave (km/s) = 7.41631 7.76144 7.59084
#
# Compressibility (1/GPa) = 0.01664616
#
# Stress axis : x y z
#
# Youngs Moduli (GPa) = 36.17741 76.79978 32.38886
#
# Poissons Ratio (x) = 0.44279 0.51723
# Poissons Ratio (y) = 0.20858 0.18497
# Poissons Ratio (z) = 0.57773 0.43859
#
# Static dielectric constant tensor:
#      x y z
#    x 1.510750 0.000000 0.000000 
#    y 0.000000 1.550360 0.000000 
#    z 0.000000 0.000000 1.473790 
# 
# From -- ./inp_files/30307.got.cif
#   From: 2010.05.17/outbox.cif.g08.bks.cpg/sg65_16_cif.got.tgz:30307.got - 2010.06.03 17:01:31.
