data_PCOD9493304
_publ_section_title
;
Structure prediction by ZEFSAII (Michael W. Deem and Ramdas Pophale) SiO2 
 PCOD9493304
Probable space group: C M M M
;
_chemical_formula_sum "Si O2"
_cell_formula_units_Z 112
_cell_length_a 17.055833
_cell_length_b 14.849639
_cell_length_c 23.699892
_cell_angle_alpha 90.000000
_cell_angle_beta 90.000000
_cell_angle_gamma 90.000000
_cell_volume 6002.541867
_symmetry_space_group_name_H-M "C M M M"
_symmetry_group_IT_number 65
_symmetry_cell_setting 'orthorhombic'
loop_
_space_group_symop_operation_xyz
x,y,z
-x,-y,z
x,-y,-z
-x,y,-z
-x,-y,-z
x,y,-z
-x,y,z
x,-y,z
1/2+x,1/2+y,z
1/2-x,1/2-y,z
1/2+x,1/2-y,-z
1/2-x,1/2+y,-z
1/2-x,1/2-y,-z
1/2+x,1/2+y,-z
1/2-x,1/2+y,z
1/2+x,1/2-y,z
loop_
_atom_site_type_symbol
_atom_site_label
_atom_site_fract_x
_atom_site_fract_y
_atom_site_fract_z
Si Si1 0.138375 0.603746 0.347507
Si Si2 0.639997 0.604512 0.751919
Si Si3 0.095333 0.100717 0.065535
Si Si4 0.323203 0.397137 0.624397
Si Si5 0.409970 0.258168 0.157687
Si Si6 0.175205 0.605489 0.779323
Si Si7 0.411644 0.753190 0.436572
O O1 0.113255 0.500000 0.353384
O O2 0.230472 0.608777 0.363956
O O3 0.135072 0.627729 0.281231
O O4 0.095390 0.669463 0.389912
O O5 0.618352 0.500000 0.761757
O O6 0.636389 0.621772 0.685013
O O7 0.592300 0.673557 0.789323
O O8 0.731539 0.615652 0.769612
O O9 0.121239 0.181177 0.105904
O O10 0.000000 0.100237 0.068190
O O11 0.121297 0.000000 0.083760
O O12 0.116898 0.112852 0.000000
O O13 0.341029 0.500000 0.608244
O O14 0.351688 0.324991 0.579851
O O15 0.500000 0.231206 0.146635
O O16 0.357883 0.172811 0.174255
O O17 0.160514 0.500000 0.791184
O O18 0.396831 0.787422 0.500000
O O19 0.500000 0.716273 0.434832
#
# Coordination Sequence:
#
# PCOD9493304 Si02
#       7
#    16  16  16  16  16  16  16
#     4   9  19  37  58  75  92 123 170 212 241 280
#     4   9  18  33  52  74 101 130 159 196 246 300
#     4   8  15  29  47  68  99 137 172 207 248 290
#     4   9  19  36  56  75  95 125 165 202 237 288
#     4  11  20  28  47  79 106 127 161 209 250 287
#     4   9  19  35  52  71 100 137 167 193 238 300
#     4  11  24  37  49  71 102 131 158 195 250 307
#
# _framework density 18.658761999999999
#
# number of rings (size 3 to 8) (size 9 to 14) (size 15 to 20)
#    0.000    2.571    0.000    4.286    0.000    8.000 
#    0.000    5.714    0.000    2.143    0.000    4.000 
#    0.000    0.000    0.000    0.000    0.000    0.000 
#
# Total GULP energy -312492.284745 kJ/mol
# GULP energy per Si atom -5580.219370 kJ/mol
# Density = 1.861629 g / cm^3
# Si number density = 18.658762 Si / 1000 Ang^3
#
#
#
# Elastic Constant Matrix: (Units=GPa)
#
#
# Indices 1 2 3 4 5 6 
#
# 1 16.1185 23.4937 15.7990 0.0000 0.0000 0.0000
# 2 23.4937 84.4643 55.4550 0.0000 0.0000 0.0000
# 3 15.7990 55.4550 69.0335 0.0000 0.0000 0.0000
# 4 0.0000 0.0000 0.0000 27.1548 0.0000 0.0000
# 5 0.0000 0.0000 0.0000 0.0000 16.1335 0.0000
# 6 0.0000 0.0000 0.0000 0.0000 0.0000 -12.8820
#
#
#
# Elastic Compliance Matrix: (Units=1/GPa)
#
#
# Indices 1 2 3 4 5 6 
#
# 1 0.104390 -0.028250 -0.001197 0.000000 0.000000 0.000000
# 2 -0.028250 0.032697 -0.019800 0.000000 0.000000 0.000000
# 3 -0.001197 -0.019800 0.030666 0.000000 0.000000 0.000000
# 4 0.000000 0.000000 0.000000 0.036826 0.000000 0.000000
# 5 0.000000 0.000000 0.000000 0.000000 0.061983 0.000000
# 6 0.000000 0.000000 0.000000 0.000000 0.000000 -0.077627
#
#
# Mechanical properties :
#
#
# Convention : Reuss Voigt Hill
#
# Bulk Modulus (GPa) = 14.43890 39.90131 27.17010
# Shear Modulus (GPa) = 16.10226 11.07249 13.58737
#
# Velocity S-wave (km/s) = 2.94085 2.43866 2.70145
# Velocity P-wave (km/s) = 4.39166 5.41855 4.93190
#
# Compressibility (1/GPa) = 0.06925735
#
# Stress axis : x y z
#
# Youngs Moduli (GPa) = 9.57942 30.58388 32.60993
#
# Poissons Ratio (x) = 0.86399 0.03905
# Poissons Ratio (y) = 0.27062 0.64569
# Poissons Ratio (z) = 0.01147 0.60557
#
# Static dielectric constant tensor:
#      x y z
#    x 1.665380 0.000000 0.000000 
#    y 0.000000 1.642340 0.000000 
#    z 0.000000 0.000000 1.644460 
# 
# From -- ./inp_files/70029.got.cif
#   From: 2010.05.17/outbox.cif.g08.bks.cpg/sg65_36_cif.got.tgz:70029.got - 2010.06.03 17:01:31.
