data_PCOD9493809
_publ_section_title
;
Structure prediction by ZEFSAII (Michael W. Deem and Ramdas Pophale) SiO2 
 PCOD9493809
Probable space group: C M M M
;
_chemical_formula_sum "Si O2"
_cell_formula_units_Z 88
_cell_length_a 16.987876
_cell_length_b 19.028231
_cell_length_c 14.302827
_cell_angle_alpha 90.000000
_cell_angle_beta 90.000000
_cell_angle_gamma 90.000000
_cell_volume 4623.377796
_symmetry_space_group_name_H-M "C M M M"
_symmetry_group_IT_number 65
_symmetry_cell_setting 'orthorhombic'
loop_
_space_group_symop_operation_xyz
x,y,z
-x,-y,z
x,-y,-z
-x,y,-z
-x,-y,-z
x,y,-z
-x,y,z
x,-y,z
1/2+x,1/2+y,z
1/2-x,1/2-y,z
1/2+x,1/2-y,-z
1/2-x,1/2+y,-z
1/2-x,1/2-y,-z
1/2+x,1/2+y,-z
1/2-x,1/2+y,z
1/2+x,1/2-y,z
loop_
_atom_site_type_symbol
_atom_site_label
_atom_site_fract_x
_atom_site_fract_y
_atom_site_fract_z
Si Si1 0.408135 0.706988 0.893456
Si Si2 0.694898 0.918454 0.708592
Si Si3 0.000000 0.080235 0.386161
Si Si4 0.289835 0.579202 0.107689
Si Si5 0.840690 0.840811 0.388294
Si Si6 0.407989 0.209532 0.292684
O O1 0.500000 0.686319 0.888686
O O2 0.353361 0.639911 0.874386
O O3 0.395649 0.765365 0.814443
O O4 0.392107 0.731094 0.000000
O O5 0.720746 0.914863 0.817255
O O6 0.766969 0.881848 0.653869
O O7 0.619422 0.869910 0.693797
O O8 0.686147 0.000000 0.682325
O O9 0.079215 0.119522 0.356941
O O10 0.000000 0.080092 0.500000
O O11 0.000000 0.000000 0.354062
O O12 0.323506 0.500000 0.118524
O O13 0.263687 0.586224 0.000000
O O14 0.836131 0.841873 0.500000
O O15 0.853173 0.761664 0.352678
O O16 0.500000 0.219365 0.316430
#
# Coordination Sequence:
#
# PCOD9493809 Si02
#       6
#    16  16   8  16  16  16
#     4   9  18  33  54  83 118 154 192 233 281 341
#     4  11  24  40  59  86 118 154 198 243 290 344
#     4   9  18  34  58  86 116 148 180 221 282 352
#     4   9  18  33  54  83 119 155 190 231 283 344
#     4  11  22  39  61  88 119 150 190 239 294 352
#     4  11  23  40  61  86 116 153 199 244 290 344
#
# _framework density 19.033702999999999
#
# number of rings (size 3 to 8) (size 9 to 14) (size 15 to 20)
#    0.000    1.909    2.727    1.091    0.000    4.000 
#    0.000    3.636    0.000    0.000    0.000    7.636 
#    0.000    0.000    0.000    0.000    0.000    0.000 
#
# Total GULP energy -245650.850171 kJ/mol
# GULP energy per Si atom -5582.973868 kJ/mol
# Density = 1.899038 g / cm^3
# Si number density = 19.033703 Si / 1000 Ang^3
#
#
#
# Elastic Constant Matrix: (Units=GPa)
#
#
# Indices 1 2 3 4 5 6 
#
# 1 39.4452 39.1591 13.2532 0.0000 0.0000 0.0000
# 2 39.1591 126.5902 22.5199 0.0000 0.0000 0.0000
# 3 13.2532 22.5199 55.9198 0.0000 0.0000 0.0000
# 4 0.0000 0.0000 0.0000 14.5455 0.0000 0.0000
# 5 0.0000 0.0000 0.0000 0.0000 13.4304 0.0000
# 6 0.0000 0.0000 0.0000 0.0000 0.0000 19.3618
#
#
#
# Elastic Compliance Matrix: (Units=1/GPa)
#
#
# Indices 1 2 3 4 5 6 
#
# 1 0.037636 -0.010831 -0.004558 0.000000 0.000000 0.000000
# 2 -0.010831 0.011626 -0.002115 0.000000 0.000000 0.000000
# 3 -0.004558 -0.002115 0.019815 0.000000 0.000000 0.000000
# 4 0.000000 0.000000 0.000000 0.068750 0.000000 0.000000
# 5 0.000000 0.000000 0.000000 0.000000 0.074458 0.000000
# 6 0.000000 0.000000 0.000000 0.000000 0.000000 0.051648
#
#
# Mechanical properties :
#
#
# Convention : Reuss Voigt Hill
#
# Bulk Modulus (GPa) = 29.35274 41.31331 35.33302
# Shear Modulus (GPa) = 16.11359 19.26909 17.69134
#
# Velocity S-wave (km/s) = 2.91276 3.18522 3.05204
# Velocity P-wave (km/s) = 5.17370 5.93970 5.56988
#
# Compressibility (1/GPa) = 0.03406837
#
# Stress axis : x y z
#
# Youngs Moduli (GPa) = 26.57043 86.01181 50.46745
#
# Poissons Ratio (x) = 0.93162 0.23002
# Poissons Ratio (y) = 0.28779 0.10674
# Poissons Ratio (z) = 0.12110 0.18192
#
# Static dielectric constant tensor:
#      x y z
#    x 1.632270 0.000000 0.000000 
#    y 0.000000 1.657600 0.000000 
#    z 0.000000 0.000000 1.675750 
# 
# From -- ./inp_files/42534.got.cif
#   From: 2010.05.17/outbox.cif.g08.bks.cpg/sg65_22_cif.got.tgz:42534.got - 2010.06.03 17:01:31.
