data_PCOD9493117
_publ_section_title
;
Structure prediction by ZEFSAII (Michael W. Deem and Ramdas Pophale) SiO2 
 PCOD9493117
Probable space group: C M M M
;
_chemical_formula_sum "Si O2"
_cell_formula_units_Z 56
_cell_length_a 17.921947
_cell_length_b 9.644391
_cell_length_c 16.379312
_cell_angle_alpha 90.000000
_cell_angle_beta 90.000000
_cell_angle_gamma 90.000000
_cell_volume 2831.102892
_symmetry_space_group_name_H-M "C M M M"
_symmetry_group_IT_number 65
_symmetry_cell_setting 'orthorhombic'
loop_
_space_group_symop_operation_xyz
x,y,z
-x,-y,z
x,-y,-z
-x,y,-z
-x,-y,-z
x,y,-z
-x,y,z
x,-y,z
1/2+x,1/2+y,z
1/2-x,1/2-y,z
1/2+x,1/2-y,-z
1/2-x,1/2+y,-z
1/2-x,1/2-y,-z
1/2+x,1/2+y,-z
1/2-x,1/2+y,z
1/2+x,1/2-y,z
loop_
_atom_site_type_symbol
_atom_site_label
_atom_site_fract_x
_atom_site_fract_y
_atom_site_fract_z
Si Si1 0.584353 0.712701 0.673883
Si Si2 0.372553 0.000000 0.598685
Si Si3 0.803324 0.000000 0.402982
Si Si4 0.587938 0.659740 0.133667
Si Si5 0.672382 0.167497 0.000000
O O1 0.500000 0.661244 0.655950
O O2 0.650505 0.629004 0.631272
O O3 0.595238 0.696587 0.770896
O O4 0.591201 0.866486 0.639690
O O5 0.381277 0.000000 0.500000
O O6 0.283858 0.000000 0.618273
O O7 0.807557 0.000000 0.500000
O O8 0.500000 0.661258 0.113900
O O9 0.614588 0.500000 0.120147
O O10 0.628814 0.772401 0.078522
O O11 0.750000 0.250000 0.000000
O O12 0.678817 0.000000 0.000000
#
# Coordination Sequence:
#
# PCOD9493117 Si02
#       5
#    16   8   8  16   8
#     4  11  23  41  66  95 127 170 222 272 325 389
#     4  11  25  41  59  92 135 176 217 275 340 389
#     4  11  23  41  63  90 127 172 221 269 330 397
#     4  10  22  44  69  95 130 170 213 268 331 389
#     4  12  27  44  67 101 135 171 215 262 315 386
#
# _framework density 19.780276000000001
#
# number of rings (size 3 to 8) (size 9 to 14) (size 15 to 20)
#    0.000    1.143    1.429    4.286    2.000   10.286 
#    0.000    0.000    0.000    0.000    0.000    0.000 
#    0.000    0.000    0.000    0.000    0.000    0.000 
#
# Total GULP energy -156493.726664 kJ/mol
# GULP energy per Si atom -5589.061667 kJ/mol
# Density = 1.973526 g / cm^3
# Si number density = 19.780276 Si / 1000 Ang^3
#
#
#
# Elastic Constant Matrix: (Units=GPa)
#
#
# Indices 1 2 3 4 5 6 
#
# 1 110.8556 46.0843 58.6927 0.0000 0.0000 0.0000
# 2 46.0843 183.3648 47.8937 0.0000 0.0000 0.0000
# 3 58.6927 47.8937 67.1947 0.0000 0.0000 0.0000
# 4 0.0000 0.0000 0.0000 39.9928 0.0000 0.0000
# 5 0.0000 0.0000 0.0000 0.0000 9.2554 0.0000
# 6 0.0000 0.0000 0.0000 0.0000 0.0000 35.7334
#
#
#
# Elastic Compliance Matrix: (Units=1/GPa)
#
#
# Indices 1 2 3 4 5 6 
#
# 1 0.016816 -0.000479 -0.014347 0.000000 0.000000 0.000000
# 2 -0.000479 0.006715 -0.004368 0.000000 0.000000 0.000000
# 3 -0.014347 -0.004368 0.030527 0.000000 0.000000 0.000000
# 4 0.000000 0.000000 0.000000 0.025005 0.000000 0.000000
# 5 0.000000 0.000000 0.000000 0.000000 0.108045 0.000000
# 6 0.000000 0.000000 0.000000 0.000000 0.000000 0.027985
#
#
# Mechanical properties :
#
#
# Convention : Reuss Voigt Hill
#
# Bulk Modulus (GPa) = 63.81402 74.08405 68.94903
# Shear Modulus (GPa) = 19.32729 30.91261 25.11995
#
# Velocity S-wave (km/s) = 3.12925 3.95751 3.56750
# Velocity P-wave (km/s) = 6.73704 7.64313 7.20434
#
# Compressibility (1/GPa) = 0.01567054
#
# Stress axis : x y z
#
# Youngs Moduli (GPa) = 59.46821 148.92484 32.75829
#
# Poissons Ratio (x) = 0.07133 0.46997
# Poissons Ratio (y) = 0.02848 0.14308
# Poissons Ratio (z) = 0.85317 0.65046
#
# Static dielectric constant tensor:
#      x y z
#    x 1.693190 0.000000 0.000000 
#    y 0.000000 1.785930 0.000000 
#    z 0.000000 0.000000 1.666790 
# 
# From -- ./inp_files/35516.got.cif
#   From: 2010.05.17/outbox.cif.g08.bks.cpg/sg65_18_cif.got.tgz:35516.got - 2010.06.03 17:01:31.
