data_PCOD9493642
_publ_section_title
;
Structure prediction by ZEFSAII (Michael W. Deem and Ramdas Pophale) SiO2 
 PCOD9493642
Probable space group: C M M M
;
_chemical_formula_sum "Si O2"
_cell_formula_units_Z 72
_cell_length_a 18.671552
_cell_length_b 9.258148
_cell_length_c 24.007507
_cell_angle_alpha 90.000000
_cell_angle_beta 90.000000
_cell_angle_gamma 90.000000
_cell_volume 4150.033493
_symmetry_space_group_name_H-M "C M M M"
_symmetry_group_IT_number 65
_symmetry_cell_setting 'orthorhombic'
loop_
_space_group_symop_operation_xyz
x,y,z
-x,-y,z
x,-y,-z
-x,y,-z
-x,-y,-z
x,y,-z
-x,y,z
x,-y,z
1/2+x,1/2+y,z
1/2-x,1/2-y,z
1/2+x,1/2-y,-z
1/2-x,1/2+y,-z
1/2-x,1/2-y,-z
1/2+x,1/2+y,-z
1/2-x,1/2+y,z
1/2+x,1/2-y,z
loop_
_atom_site_type_symbol
_atom_site_label
_atom_site_fract_x
_atom_site_fract_y
_atom_site_fract_z
Si Si1 0.917687 0.824319 0.732690
Si Si2 0.673547 0.326395 0.840801
Si Si3 0.412544 0.165782 0.500000
Si Si4 0.412685 0.333209 0.389915
Si Si5 0.085464 0.330366 0.935192
O O1 0.868331 0.783769 0.784234
O O2 0.891710 0.776861 0.671359
O O3 0.000000 0.776391 0.741352
O O4 0.919323 0.000000 0.730331
O O5 0.680215 0.500000 0.842164
O O6 0.750000 0.250000 0.841856
O O7 0.627907 0.270065 0.893079
O O8 0.500000 0.171041 0.500000
O O9 0.388807 0.243975 0.443431
O O10 0.390784 0.000000 0.500000
O O11 0.500000 0.332275 0.389219
O O12 0.390566 0.500000 0.395959
O O13 0.101457 0.500000 0.924513
O O14 0.000000 0.311271 0.928360
O O15 0.102716 0.300919 0.000000
#
# Coordination Sequence:
#
# PCOD9493642 Si02
#       5
#    16  16   8  16  16
#     4   8  15  29  49  71  93 121 162 208 247 288
#     4  11  22  35  52  75 104 136 170 208 250 295
#     4   9  15  21  31  55  92 123 146 181 233 287
#     4   8  13  23  40  60  83 115 154 192 233 284
#     4   9  19  37  59  81 105 132 163 202 248 297
#
# _framework density 17.349257999999999
#
# number of rings (size 3 to 8) (size 9 to 14) (size 15 to 20)
#    0.000    3.000    0.000    3.667    0.000    3.556 
#    0.000    3.333    0.000    5.333    0.000    0.778 
#    0.000    0.000    0.000    0.000    0.000    0.000 
#
# Total GULP energy -200592.072831 kJ/mol
# GULP energy per Si atom -5572.002023 kJ/mol
# Density = 1.730977 g / cm^3
# Si number density = 17.349258 Si / 1000 Ang^3
#
#
#
# Elastic Constant Matrix: (Units=GPa)
#
#
# Indices 1 2 3 4 5 6 
#
# 1 43.3101 37.5484 61.9829 0.0000 0.0000 0.0000
# 2 37.5484 73.2430 79.7263 0.0000 0.0000 0.0000
# 3 61.9829 79.7263 166.5062 0.0000 0.0000 0.0000
# 4 0.0000 0.0000 0.0000 12.7988 0.0000 0.0000
# 5 0.0000 0.0000 0.0000 0.0000 -5.8998 0.0000
# 6 0.0000 0.0000 0.0000 0.0000 0.0000 9.7905
#
#
#
# Elastic Compliance Matrix: (Units=1/GPa)
#
#
# Indices 1 2 3 4 5 6 
#
# 1 0.054140 -0.012150 -0.014337 0.000000 0.000000 0.000000
# 2 -0.012150 0.031242 -0.010436 0.000000 0.000000 0.000000
# 3 -0.014337 -0.010436 0.016340 0.000000 0.000000 0.000000
# 4 0.000000 0.000000 0.000000 0.078133 0.000000 0.000000
# 5 0.000000 0.000000 0.000000 0.000000 -0.169498 0.000000
# 6 0.000000 0.000000 0.000000 0.000000 0.000000 0.102140
#
#
# Mechanical properties :
#
#
# Convention : Reuss Voigt Hill
#
# Bulk Modulus (GPa) = 35.87219 71.28606 53.57913
# Shear Modulus (GPa) = 25.55784 10.25801 17.90792
#
# Velocity S-wave (km/s) = 3.84231 2.43423 3.21627
# Velocity P-wave (km/s) = 6.35656 7.00562 6.68897
#
# Compressibility (1/GPa) = 0.02787675
#
# Stress axis : x y z
#
# Youngs Moduli (GPa) = 18.47046 32.00806 61.20015
#
# Poissons Ratio (x) = 0.38889 0.87740
# Poissons Ratio (y) = 0.22441 0.63871
# Poissons Ratio (z) = 0.26480 0.33405
#
# Static dielectric constant tensor:
#      x y z
#    x 1.566610 0.000000 0.000000 
#    y 0.000000 1.577810 0.000000 
#    z 0.000000 0.000000 1.601330 
# 
# From -- ./inp_files/64347.got.cif
#   From: 2010.05.17/outbox.cif.g08.bks.cpg/sg65_33_cif.got.tgz:64347.got - 2010.06.03 17:01:31.
