data_PCOD9493975
_publ_section_title
;
Structure prediction by ZEFSAII (Michael W. Deem and Ramdas Pophale) SiO2 
 PCOD9493975
Probable space group: C M M M
;
_chemical_formula_sum "Si O2"
_cell_formula_units_Z 50
_cell_length_a 8.037577
_cell_length_b 16.194448
_cell_length_c 18.458460
_cell_angle_alpha 90.000000
_cell_angle_beta 90.000000
_cell_angle_gamma 90.000000
_cell_volume 2402.629254
_symmetry_space_group_name_H-M "C M M M"
_symmetry_group_IT_number 65
_symmetry_cell_setting 'orthorhombic'
loop_
_space_group_symop_operation_xyz
x,y,z
-x,-y,z
x,-y,-z
-x,y,-z
-x,-y,-z
x,y,-z
-x,y,z
x,-y,z
1/2+x,1/2+y,z
1/2-x,1/2-y,z
1/2+x,1/2-y,-z
1/2-x,1/2+y,-z
1/2-x,1/2-y,-z
1/2+x,1/2+y,-z
1/2-x,1/2+y,z
1/2+x,1/2-y,z
loop_
_atom_site_type_symbol
_atom_site_label
_atom_site_fract_x
_atom_site_fract_y
_atom_site_fract_z
Si Si1 0.802988 0.905571 0.156565
Si Si2 0.000000 0.500000 0.500000
Si Si3 0.189308 0.000000 0.384469
Si Si4 0.802123 0.654832 0.000000
Si Si5 0.308250 0.159084 0.698365
O O1 0.765805 0.884752 0.073575
O O2 0.711951 0.848906 0.214912
O O3 0.000000 0.897632 0.168735
O O4 0.752033 0.000000 0.170339
O O5 0.151604 0.500000 0.437904
O O6 0.208012 0.083248 0.336556
O O7 0.000000 0.000000 0.414839
O O8 0.750000 0.750000 0.000000
O O9 0.000000 0.647230 0.000000
O O10 0.500000 0.148918 0.678492
O O11 0.250000 0.250000 0.675245
#
# Coordination Sequence:
#
# PCOD9493975 Si02
#       5
#    16   2   8   8  16
#     4  11  23  40  63  93 130 180 233 293 356 422
#     4  12  26  52  80 114 148 196 230 280 364 430
#     4  12  25  49  79 111 150 190 234 292 351 425
#     4  12  25  40  57  83 127 175 233 297 359 418
#     4  12  24  43  72 107 145 188 243 295 352 423
#
# _framework density 20.810533
#
# number of rings (size 3 to 8) (size 9 to 14) (size 15 to 20)
#    0.000    0.320    3.200    6.960    0.000    3.840 
#    0.000    0.800    0.000    0.000    0.000    0.000 
#    0.000    0.000    0.000    0.000    0.000    0.000 
#
# Total GULP energy -139584.269304 kJ/mol
# GULP energy per Si atom -5583.370772 kJ/mol
# Density = 2.076317 g / cm^3
# Si number density = 20.810533 Si / 1000 Ang^3
#
#
#
# Elastic Constant Matrix: (Units=GPa)
#
#
# Indices 1 2 3 4 5 6 
#
# 1 129.3786 35.8745 24.4361 0.0000 0.0000 0.0000
# 2 35.8745 133.6999 26.9681 0.0000 0.0000 0.0000
# 3 24.4361 26.9681 95.4851 0.0000 0.0000 0.0000
# 4 0.0000 0.0000 0.0000 -6.5659 0.0000 0.0000
# 5 0.0000 0.0000 0.0000 0.0000 30.0014 0.0000
# 6 0.0000 0.0000 0.0000 0.0000 0.0000 28.8999
#
#
#
# Elastic Compliance Matrix: (Units=1/GPa)
#
#
# Indices 1 2 3 4 5 6 
#
# 1 0.008586 -0.001973 -0.001640 0.000000 0.000000 0.000000
# 2 -0.001973 0.008385 -0.001863 0.000000 0.000000 0.000000
# 3 -0.001640 -0.001863 0.011419 0.000000 0.000000 0.000000
# 4 0.000000 0.000000 0.000000 -0.152303 0.000000 0.000000
# 5 0.000000 0.000000 0.000000 0.000000 0.033332 0.000000
# 6 0.000000 0.000000 0.000000 0.000000 0.000000 0.034602
#
#
# Mechanical properties :
#
#
# Convention : Reuss Voigt Hill
#
# Bulk Modulus (GPa) = 57.34930 59.23568 58.29249
# Shear Modulus (GPa) = -127.50430 28.55275 -49.47577
#
# Velocity S-wave (km/s) = -7.83595 3.70812 -4.88119
# Velocity P-wave (km/s) = 7.36559 6.84540 1.92254
#
# Compressibility (1/GPa) = 0.01743700
#
# Stress axis : x y z
#
# Youngs Moduli (GPa) = 116.46726 119.26546 87.57505
#
# Poissons Ratio (x) = 0.23531 0.14363
# Poissons Ratio (y) = 0.22979 0.16317
# Poissons Ratio (z) = 0.19101 0.22221
#
# Static dielectric constant tensor:
#      x y z
#    x 1.734840 0.000000 0.000000 
#    y 0.000000 1.737220 0.000000 
#    z 0.000000 0.000000 1.747620 
# 
# From -- ./inp_files/48549.got.cif
#   From: 2010.05.17/outbox.cif.g08.bks.cpg/sg65_25_cif.got.tgz:48549.got - 2010.06.03 17:01:31.
