data_PCOD9493743
_publ_section_title
;
Structure prediction by ZEFSAII (Michael W. Deem and Ramdas Pophale) SiO2 
 PCOD9493743
Probable space group: C M M M
;
_chemical_formula_sum "Si O2"
_cell_formula_units_Z 80
_cell_length_a 16.173498
_cell_length_b 9.943385
_cell_length_c 25.737219
_cell_angle_alpha 90.000000
_cell_angle_beta 90.000000
_cell_angle_gamma 90.000000
_cell_volume 4139.041992
_symmetry_space_group_name_H-M "C M M M"
_symmetry_group_IT_number 65
_symmetry_cell_setting 'orthorhombic'
loop_
_space_group_symop_operation_xyz
x,y,z
-x,-y,z
x,-y,-z
-x,y,-z
-x,-y,-z
x,y,-z
-x,y,z
x,-y,z
1/2+x,1/2+y,z
1/2-x,1/2-y,z
1/2+x,1/2-y,-z
1/2-x,1/2+y,-z
1/2-x,1/2-y,-z
1/2+x,1/2+y,-z
1/2-x,1/2+y,z
1/2+x,1/2-y,z
loop_
_atom_site_type_symbol
_atom_site_label
_atom_site_fract_x
_atom_site_fract_y
_atom_site_fract_z
Si Si1 0.100515 0.655889 0.236184
Si Si2 0.406042 0.772652 0.878967
Si Si3 0.101449 0.843232 0.330457
Si Si4 0.683814 0.000000 0.941191
Si Si5 0.380775 0.500000 0.060254
Si Si6 0.902161 0.162946 0.444220
O O1 0.128203 0.500000 0.236970
O O2 0.121296 0.724694 0.181097
O O3 0.129588 0.745366 0.284569
O O4 0.000000 0.653685 0.239266
O O5 0.500000 0.826636 0.879673
O O6 0.348397 0.870391 0.911387
O O7 0.406408 0.630005 0.907153
O O8 0.130313 0.795098 0.387738
O O9 0.000000 0.841936 0.331315
O O10 0.124731 0.000000 0.322269
O O11 0.781891 0.000000 0.942031
O O12 0.651826 0.000000 0.000000
O O13 0.409156 0.500000 0.000000
O O14 0.866904 0.209723 0.500000
O O15 0.000000 0.196695 0.444862
O O16 0.897655 0.000000 0.443751
#
# Coordination Sequence:
#
# PCOD9493743 Si02
#       6
#    16  16  16   8   8  16
#     4   9  17  29  43  63  91 121 157 202 249 295
#     4  11  22  37  58  83 107 135 174 217 256 302
#     4   8  13  20  34  55  79 112 152 197 248 292
#     4  11  23  41  61  79 105 141 174 203 250 320
#     4  11  25  41  57  81 111 137 164 209 266 312
#     4   7   9  14  25  44  71 104 147 194 234 280
#
# _framework density 19.328144000000002
#
# number of rings (size 3 to 8) (size 9 to 14) (size 15 to 20)
#    0.000    2.800    1.000    3.600    1.400    4.000 
#    0.000    0.000    0.000    0.600    0.000    4.200 
#    0.000    0.000    0.000    0.000    0.000    6.000 
#
# Total GULP energy -222871.602484 kJ/mol
# GULP energy per Si atom -5571.790062 kJ/mol
# Density = 1.928415 g / cm^3
# Si number density = 19.328144 Si / 1000 Ang^3
#
#
#
# Elastic Constant Matrix: (Units=GPa)
#
#
# Indices 1 2 3 4 5 6 
#
# 1 29.9475 6.6415 18.3940 0.0000 0.0000 0.0000
# 2 6.6415 100.6945 85.3478 0.0000 0.0000 0.0000
# 3 18.3940 85.3478 241.3580 0.0000 0.0000 0.0000
# 4 0.0000 0.0000 0.0000 24.5469 0.0000 0.0000
# 5 0.0000 0.0000 0.0000 0.0000 -144.9709 0.0000
# 6 0.0000 0.0000 0.0000 0.0000 0.0000 12.5480
#
#
#
# Elastic Compliance Matrix: (Units=1/GPa)
#
#
# Indices 1 2 3 4 5 6 
#
# 1 0.035032 -0.000068 -0.002646 0.000000 0.000000 0.000000
# 2 -0.000068 0.014182 -0.005010 0.000000 0.000000 0.000000
# 3 -0.002646 -0.005010 0.006116 0.000000 0.000000 0.000000
# 4 0.000000 0.000000 0.000000 0.040738 0.000000 0.000000
# 5 0.000000 0.000000 0.000000 0.000000 -0.006898 0.000000
# 6 0.000000 0.000000 0.000000 0.000000 0.000000 0.079694
#
#
# Mechanical properties :
#
#
# Convention : Reuss Voigt Hill
#
# Bulk Modulus (GPa) = 25.07336 65.86296 45.46816
# Shear Modulus (GPa) = 25.30289 -4.13410 10.58439
#
# Velocity S-wave (km/s) = 3.62210 -1.46408 2.34266
# Velocity P-wave (km/s) = 5.52209 5.59394 5.55813
#
# Compressibility (1/GPa) = 0.03988297
#
# Stress axis : x y z
#
# Youngs Moduli (GPa) = 28.54540 70.51355 163.49630
#
# Poissons Ratio (x) = 0.00480 0.43257
# Poissons Ratio (y) = 0.00194 0.81906
# Poissons Ratio (z) = 0.07552 0.35325
#
# Static dielectric constant tensor:
#      x y z
#    x 1.680450 0.000000 0.000000 
#    y 0.000000 1.613850 0.000000 
#    z 0.000000 0.000000 1.715810 
# 
# From -- ./inp_files/70858.got.cif
#   From: 2010.05.17/outbox.cif.g08.bks.cpg/sg65_36_cif.got.tgz:70858.got - 2010.06.03 17:01:31.
