data_PCOD9493354
_publ_section_title
;
Structure prediction by ZEFSAII (Michael W. Deem and Ramdas Pophale) SiO2 
 PCOD9493354
Probable space group: C M M M
;
_chemical_formula_sum "Si O2"
_cell_formula_units_Z 112
_cell_length_a 23.429085
_cell_length_b 15.316415
_cell_length_c 15.105742
_cell_angle_alpha 90.000000
_cell_angle_beta 90.000000
_cell_angle_gamma 90.000000
_cell_volume 5420.689307
_symmetry_space_group_name_H-M "C M M M"
_symmetry_group_IT_number 65
_symmetry_cell_setting 'orthorhombic'
loop_
_space_group_symop_operation_xyz
x,y,z
-x,-y,z
x,-y,-z
-x,y,-z
-x,-y,-z
x,y,-z
-x,y,z
x,-y,z
1/2+x,1/2+y,z
1/2-x,1/2-y,z
1/2+x,1/2-y,-z
1/2-x,1/2+y,-z
1/2-x,1/2-y,-z
1/2+x,1/2+y,-z
1/2-x,1/2+y,z
1/2+x,1/2-y,z
loop_
_atom_site_type_symbol
_atom_site_label
_atom_site_fract_x
_atom_site_fract_y
_atom_site_fract_z
Si Si1 0.351342 0.399987 0.340402
Si Si2 0.568116 0.756020 0.395250
Si Si3 0.237102 0.647329 0.404146
Si Si4 0.865921 0.402706 0.283159
Si Si5 0.440233 0.400877 0.105497
Si Si6 0.815142 0.838431 0.848483
Si Si7 0.191745 0.364370 0.102049
O O1 0.368962 0.500000 0.322954
O O2 0.401324 0.336092 0.372344
O O3 0.297855 0.399139 0.405502
O O4 0.321267 0.354604 0.255559
O O5 0.579227 0.775597 0.500000
O O6 0.500000 0.751037 0.383586
O O7 0.594899 0.828155 0.328216
O O8 0.208533 0.637168 0.500000
O O9 0.250000 0.750000 0.391487
O O10 0.195327 0.611408 0.329997
O O11 0.887779 0.500000 0.302730
O O12 0.851165 0.397216 0.178331
O O13 0.500000 0.358669 0.138815
O O14 0.439880 0.500000 0.138977
O O15 0.378392 0.363947 0.122330
O O16 0.444318 0.403244 0.000000
O O17 0.808786 0.739552 0.880546
O O18 0.758610 0.888947 0.881801
O O19 0.176740 0.383954 0.000000
#
# Coordination Sequence:
#
# PCOD9493354 Si02
#       7
#    16  16  16  16  16  16  16
#     4  12  24  39  65 100 141 182 219 268 331 404
#     4  11  26  49  74 100 134 179 228 279 340 406
#     4  11  21  38  65  97 135 178 218 269 333 397
#     4  12  25  44  69 101 136 171 224 288 342 402
#     4   9  18  32  51  79 116 158 207 262 315 372
#     4  11  20  38  60  87 131 180 228 276 323 387
#     4  11  23  40  65  96 133 179 226 279 346 409
#
# _framework density 20.661577999999999
#
# number of rings (size 3 to 8) (size 9 to 14) (size 15 to 20)
#    0.000    1.000    4.286    3.857    0.000    4.857 
#    0.000    1.429    0.000    0.429    0.000    1.000 
#    0.000    0.000    0.000    0.000    0.000    0.000 
#
# Total GULP energy -312325.523161 kJ/mol
# GULP energy per Si atom -5577.241485 kJ/mol
# Density = 2.061455 g / cm^3
# Si number density = 20.661578 Si / 1000 Ang^3
#
#
#
# Elastic Constant Matrix: (Units=GPa)
#
#
# Indices 1 2 3 4 5 6 
#
# 1 147.2007 36.8588 41.0623 0.0000 0.0000 0.0000
# 2 36.8588 82.7130 29.4536 0.0000 0.0000 0.0000
# 3 41.0623 29.4536 147.1409 0.0000 0.0000 0.0000
# 4 0.0000 0.0000 0.0000 0.0947 0.0000 0.0000
# 5 0.0000 0.0000 0.0000 0.0000 27.4763 0.0000
# 6 0.0000 0.0000 0.0000 0.0000 0.0000 -11.0562
#
#
#
# Elastic Compliance Matrix: (Units=1/GPa)
#
#
# Indices 1 2 3 4 5 6 
#
# 1 0.007996 -0.002981 -0.001635 0.000000 0.000000 0.000000
# 2 -0.002981 0.014129 -0.001996 0.000000 0.000000 0.000000
# 3 -0.001635 -0.001996 0.007652 0.000000 0.000000 0.000000
# 4 0.000000 0.000000 0.000000 10.561878 0.000000 0.000000
# 5 0.000000 0.000000 0.000000 0.000000 0.036395 0.000000
# 6 0.000000 0.000000 0.000000 0.000000 0.000000 -0.090447
#
#
# Mechanical properties :
#
#
# Convention : Reuss Voigt Hill
#
# Bulk Modulus (GPa) = 60.41203 65.75601 63.08402
# Shear Modulus (GPa) = 0.47365 21.28164 10.87764
#
# Velocity S-wave (km/s) = 0.47931 3.21286 2.29698
# Velocity P-wave (km/s) = 5.44138 6.75704 6.13458
#
# Compressibility (1/GPa) = 0.01655300
#
# Stress axis : x y z
#
# Youngs Moduli (GPa) = 125.06418 70.77481 130.68457
#
# Poissons Ratio (x) = 0.21098 0.21363
# Poissons Ratio (y) = 0.37282 0.26090
# Poissons Ratio (z) = 0.20444 0.14129
#
# Static dielectric constant tensor:
#      x y z
#    x 1.770310 0.000000 0.000000 
#    y 0.000000 1.752330 0.000000 
#    z 0.000000 0.000000 6.824700 
# 
# From -- ./inp_files/45797.got.cif
#   From: 2010.05.17/outbox.cif.g08.bks.cpg/sg65_23_cif.got.tgz:45797.got - 2010.06.03 17:01:31.
