data_PCOD9493614
_publ_section_title
;
Structure prediction by ZEFSAII (Michael W. Deem and Ramdas Pophale) SiO2 
 PCOD9493614
Probable space group: C M M M
;
_chemical_formula_sum "Si O2"
_cell_formula_units_Z 112
_cell_length_a 15.177393
_cell_length_b 16.057397
_cell_length_c 23.878352
_cell_angle_alpha 90.000000
_cell_angle_beta 90.000000
_cell_angle_gamma 90.000000
_cell_volume 5819.379432
_symmetry_space_group_name_H-M "C M M M"
_symmetry_group_IT_number 65
_symmetry_cell_setting 'orthorhombic'
loop_
_space_group_symop_operation_xyz
x,y,z
-x,-y,z
x,-y,-z
-x,y,-z
-x,-y,-z
x,y,-z
-x,y,z
x,-y,z
1/2+x,1/2+y,z
1/2-x,1/2-y,z
1/2+x,1/2-y,-z
1/2-x,1/2+y,-z
1/2-x,1/2-y,-z
1/2+x,1/2+y,-z
1/2-x,1/2+y,z
1/2+x,1/2-y,z
loop_
_atom_site_type_symbol
_atom_site_label
_atom_site_fract_x
_atom_site_fract_y
_atom_site_fract_z
Si Si1 0.400026 0.253470 0.639475
Si Si2 0.626805 0.907436 0.435657
Si Si3 0.206121 0.594431 0.153468
Si Si4 0.397214 0.796040 0.239465
Si Si5 0.661492 0.594068 0.435891
Si Si6 0.598096 0.648504 0.851273
Si Si7 0.102006 0.296241 0.065675
O O1 0.500000 0.277987 0.652003
O O2 0.399473 0.170422 0.601779
O O3 0.361358 0.229237 0.699708
O O4 0.361478 0.330958 0.605395
O O5 0.598026 0.896631 0.500000
O O6 0.732800 0.908437 0.436972
O O7 0.599080 0.000000 0.416247
O O8 0.175907 0.500000 0.149390
O O9 0.164259 0.637583 0.208306
O O10 0.312209 0.597526 0.153915
O O11 0.167676 0.647071 0.101470
O O12 0.500000 0.825246 0.243967
O O13 0.399097 0.715620 0.199225
O O14 0.631039 0.611084 0.500000
O O15 0.630787 0.500000 0.420506
O O16 0.500000 0.609101 0.850414
O O17 0.605600 0.704326 0.907483
O O18 0.000000 0.324593 0.074056
O O19 0.121390 0.296462 0.000000
#
# Coordination Sequence:
#
# PCOD9493614 Si02
#       7
#    16  16  16  16  16  16  16
#     4  11  22  34  53  81 108 136 173 219 274 333
#     4   9  19  35  52  72 101 138 180 221 260 310
#     4  11  22  34  54  83 112 145 181 222 280 338
#     4   9  20  38  55  73 102 139 181 228 271 319
#     4   9  19  36  56  78 106 140 178 222 272 328
#     4   9  19  37  57  77 106 143 183 226 269 320
#     4   9  18  34  58  85 111 145 190 234 272 316
#
# _framework density 19.246037999999999
#
# number of rings (size 3 to 8) (size 9 to 14) (size 15 to 20)
#    0.000    2.429    0.000    4.714    0.000    8.571 
#    0.000    5.714    0.000    2.571    0.000    3.000 
#    0.000    0.000    0.000    0.000    0.000    0.000 
#
# Total GULP energy -312274.079396 kJ/mol
# GULP energy per Si atom -5576.322846 kJ/mol
# Density = 1.920223 g / cm^3
# Si number density = 19.246038 Si / 1000 Ang^3
#
#
#
# Elastic Constant Matrix: (Units=GPa)
#
#
# Indices 1 2 3 4 5 6 
#
# 1 88.2708 32.7051 33.6689 0.0000 0.0000 0.0000
# 2 32.7051 87.5123 54.1488 0.0000 0.0000 0.0000
# 3 33.6689 54.1488 116.4931 0.0000 0.0000 0.0000
# 4 0.0000 0.0000 0.0000 5.0723 0.0000 0.0000
# 5 0.0000 0.0000 0.0000 0.0000 18.6876 0.0000
# 6 0.0000 0.0000 0.0000 0.0000 0.0000 33.7246
#
#
#
# Elastic Compliance Matrix: (Units=1/GPa)
#
#
# Indices 1 2 3 4 5 6 
#
# 1 0.013537 -0.003703 -0.002191 0.000000 0.000000 0.000000
# 2 -0.003703 0.017053 -0.006857 0.000000 0.000000 0.000000
# 3 -0.002191 -0.006857 0.012405 0.000000 0.000000 0.000000
# 4 0.000000 0.000000 0.000000 0.197150 0.000000 0.000000
# 5 0.000000 0.000000 0.000000 0.000000 0.053511 0.000000
# 6 0.000000 0.000000 0.000000 0.000000 0.000000 0.029652
#
#
# Mechanical properties :
#
#
# Convention : Reuss Voigt Hill
#
# Bulk Modulus (GPa) = 57.16558 59.25796 58.21177
# Shear Modulus (GPa) = 14.09880 22.94711 18.52295
#
# Velocity S-wave (km/s) = 2.70951 3.45672 3.10567
# Velocity P-wave (km/s) = 6.28933 6.84021 6.57054
#
# Compressibility (1/GPa) = 0.01749304
#
# Stress axis : x y z
#
# Youngs Moduli (GPa) = 73.87404 58.63911 80.61567
#
# Poissons Ratio (x) = 0.21715 0.17663
# Poissons Ratio (y) = 0.27357 0.55275
# Poissons Ratio (z) = 0.16186 0.40206
#
# Static dielectric constant tensor:
#      x y z
#    x 1.718030 0.000000 0.000000 
#    y 0.000000 1.635070 0.000000 
#    z 0.000000 0.000000 1.666490 
# 
# From -- ./inp_files/70019.got.cif
#   From: 2010.05.17/outbox.cif.g08.bks.cpg/sg65_36_cif.got.tgz:70019.got - 2010.06.03 17:01:31.
