data_PCOD9493513
_publ_section_title
;
Structure prediction by ZEFSAII (Michael W. Deem and Ramdas Pophale) SiO2 
 PCOD9493513
Probable space group: C M M M
;
_chemical_formula_sum "Si O2"
_cell_formula_units_Z 100
_cell_length_a 9.472209
_cell_length_b 28.494023
_cell_length_c 20.590684
_cell_angle_alpha 90.000000
_cell_angle_beta 90.000000
_cell_angle_gamma 90.000000
_cell_volume 5557.453226
_symmetry_space_group_name_H-M "C M M M"
_symmetry_group_IT_number 65
_symmetry_cell_setting 'orthorhombic'
loop_
_space_group_symop_operation_xyz
x,y,z
-x,-y,z
x,-y,-z
-x,y,-z
-x,-y,-z
x,y,-z
-x,y,z
x,-y,z
1/2+x,1/2+y,z
1/2-x,1/2-y,z
1/2+x,1/2-y,-z
1/2-x,1/2+y,-z
1/2-x,1/2-y,-z
1/2+x,1/2+y,-z
1/2-x,1/2+y,z
1/2+x,1/2-y,z
loop_
_atom_site_type_symbol
_atom_site_label
_atom_site_fract_x
_atom_site_fract_y
_atom_site_fract_z
Si Si1 0.500000 0.174066 0.000000
Si Si2 0.777437 0.304671 0.888655
Si Si3 0.835018 0.556285 0.815711
Si Si4 0.171193 0.890425 0.701712
Si Si5 0.835516 0.297978 0.262736
Si Si6 0.654280 0.603810 0.077610
Si Si7 0.171133 0.053916 0.427782
O O1 0.381274 0.176902 0.056935
O O2 0.750000 0.250000 0.902993
O O3 0.832261 0.306255 0.815209
O O4 0.653650 0.342512 0.896376
O O5 0.825494 0.500000 0.814999
O O6 0.738304 0.578385 0.759299
O O7 0.774868 0.576737 0.883127
O O8 0.000000 0.569567 0.807087
O O9 0.247000 0.840303 0.706597
O O10 0.209318 0.914217 0.632970
O O11 0.000000 0.887421 0.707908
O O12 0.750000 0.250000 0.274752
O O13 0.000000 0.295829 0.282860
O O14 0.500000 0.582765 0.092028
O O15 0.673841 0.602502 0.000000
O O16 0.217991 0.069175 0.500000
O O17 0.000000 0.053189 0.428897
O O18 0.217607 0.000000 0.417829
#
# Coordination Sequence:
#
# PCOD9493513 Si02
#       7
#     4  16  16  16  16  16  16
#     4  12  22  36  54  84 105 156 181 234 292 380
#     4  11  24  35  56  79 112 146 185 233 294 354
#     4  11  25  42  59  80 109 147 193 241 289 345
#     4  11  21  35  62  92 119 154 194 236 285 344
#     4  11  23  39  57  83 117 156 196 243 290 345
#     4  11  25  40  58  81 108 143 187 241 297 354
#     4   8  15  30  55  91 130 160 189 231 285 344
#
# _framework density 17.993853000000001
#
# number of rings (size 3 to 8) (size 9 to 14) (size 15 to 20)
#    0.000    1.440    3.200    2.640    2.240    3.200 
#    0.000    1.600    0.000    2.400    0.000    5.600 
#    0.000    0.000    0.000    0.000    0.000    0.000 
#
# Total GULP energy -278396.252245 kJ/mol
# GULP energy per Si atom -5567.925045 kJ/mol
# Density = 1.795290 g / cm^3
# Si number density = 17.993853 Si / 1000 Ang^3
#
#
#
# Elastic Constant Matrix: (Units=GPa)
#
#
# Indices 1 2 3 4 5 6 
#
# 1 127.4228 54.6335 47.1135 0.0000 0.0000 0.0000
# 2 54.6335 105.8477 61.5366 0.0000 0.0000 0.0000
# 3 47.1135 61.5366 95.8160 0.0000 0.0000 0.0000
# 4 0.0000 0.0000 0.0000 14.0608 0.0000 0.0000
# 5 0.0000 0.0000 0.0000 0.0000 16.5137 0.0000
# 6 0.0000 0.0000 0.0000 0.0000 0.0000 8.8781
#
#
#
# Elastic Compliance Matrix: (Units=1/GPa)
#
#
# Indices 1 2 3 4 5 6 
#
# 1 0.010493 -0.003856 -0.002683 0.000000 0.000000 0.000000
# 2 -0.003856 0.016494 -0.008697 0.000000 0.000000 0.000000
# 3 -0.002683 -0.008697 0.017341 0.000000 0.000000 0.000000
# 4 0.000000 0.000000 0.000000 0.071120 0.000000 0.000000
# 5 0.000000 0.000000 0.000000 0.000000 0.060556 0.000000
# 6 0.000000 0.000000 0.000000 0.000000 0.000000 0.112637
#
#
# Mechanical properties :
#
#
# Convention : Reuss Voigt Hill
#
# Bulk Modulus (GPa) = 72.16911 72.85042 72.50976
# Shear Modulus (GPa) = 15.44482 18.94403 17.19443
#
# Velocity S-wave (km/s) = 2.93292 3.24822 3.09459
# Velocity P-wave (km/s) = 7.18777 7.39203 7.29062
#
# Compressibility (1/GPa) = 0.01385634
#
# Stress axis : x y z
#
# Youngs Moduli (GPa) = 95.29856 60.62751 57.66542
#
# Poissons Ratio (x) = 0.23380 0.15471
# Poissons Ratio (y) = 0.36751 0.50151
# Poissons Ratio (z) = 0.25568 0.52728
#
# Static dielectric constant tensor:
#      x y z
#    x 1.602170 0.000000 0.000000 
#    y 0.000000 1.656610 0.000000 
#    z 0.000000 0.000000 1.593420 
# 
# From -- ./inp_files/60392.got.cif
#   From: 2010.05.17/outbox.cif.g08.bks.cpg/sg65_31_cif.got.tgz:60392.got - 2010.06.03 17:01:31.
