data_PCOD9493937
_publ_section_title
;
Structure prediction by ZEFSAII (Michael W. Deem and Ramdas Pophale) SiO2 
 PCOD9493937
Probable space group: C M M M
;
_chemical_formula_sum "Si O2"
_cell_formula_units_Z 72
_cell_length_a 9.727331
_cell_length_b 25.098681
_cell_length_c 15.760437
_cell_angle_alpha 90.000000
_cell_angle_beta 90.000000
_cell_angle_gamma 90.000000
_cell_volume 3847.803172
_symmetry_space_group_name_H-M "C M M M"
_symmetry_group_IT_number 65
_symmetry_cell_setting 'orthorhombic'
loop_
_space_group_symop_operation_xyz
x,y,z
-x,-y,z
x,-y,-z
-x,y,-z
-x,-y,-z
x,y,-z
-x,y,z
x,-y,z
1/2+x,1/2+y,z
1/2-x,1/2-y,z
1/2+x,1/2-y,-z
1/2-x,1/2+y,-z
1/2-x,1/2-y,-z
1/2+x,1/2+y,-z
1/2-x,1/2+y,z
1/2+x,1/2-y,z
loop_
_atom_site_type_symbol
_atom_site_label
_atom_site_fract_x
_atom_site_fract_y
_atom_site_fract_z
Si Si1 0.329366 0.306797 0.000000
Si Si2 0.239498 0.438841 0.714445
Si Si3 0.500000 0.291544 0.598009
Si Si4 0.833828 0.345772 0.163228
Si Si5 0.000000 0.564835 0.593790
Si Si6 0.500000 0.419464 0.599205
Si Si7 0.250000 0.250000 0.711395
O O1 0.250000 0.250000 0.000000
O O2 0.264016 0.335030 0.917492
O O3 0.000000 0.196641 0.000000
O O4 0.210051 0.500000 0.739373
O O5 0.223888 0.399222 0.792599
O O6 0.373812 0.437782 0.656803
O O7 0.128462 0.418245 0.647428
O O8 0.500000 0.272767 0.500000
O O9 0.500000 0.355542 0.596672
O O10 0.368708 0.272235 0.650764
O O11 0.808663 0.296738 0.228165
O O12 0.000000 0.349371 0.145521
O O13 0.000000 0.500000 0.589414
O O14 0.000000 0.586425 0.500000
O O15 0.500000 0.437560 0.500000
#
# Coordination Sequence:
#
# PCOD9493937 Si02
#       7
#     8  16   8  16   8   8   8
#     4  12  28  46  75 106 135 163 207 273 331 404
#     4  11  23  40  64  94 133 177 224 274 328 392
#     4  11  24  40  60  93 135 181 225 273 324 381
#     4  12  25  44  70 100 131 170 217 270 337 395
#     4   9  18  35  59  89 125 169 224 276 313 359
#     4  11  23  38  60  94 133 179 233 283 332 386
#     4  12  23  41  66  92 130 172 222 267 323 388
#
# _framework density 18.711974000000001
#
# number of rings (size 3 to 8) (size 9 to 14) (size 15 to 20)
#    0.000    0.778    5.556    2.333    3.111    1.778 
#    0.000    1.667    0.000    2.000    0.000    0.000 
#    0.000    0.000    0.000    0.000    0.000    0.000 
#
# Total GULP energy -200840.861750 kJ/mol
# GULP energy per Si atom -5578.912826 kJ/mol
# Density = 1.866939 g / cm^3
# Si number density = 18.711974 Si / 1000 Ang^3
#
#
#
# Elastic Constant Matrix: (Units=GPa)
#
#
# Indices 1 2 3 4 5 6 
#
# 1 163.3722 28.4724 68.4325 0.0000 0.0000 0.0000
# 2 28.4724 106.9228 67.0466 0.0000 0.0000 0.0000
# 3 68.4325 67.0466 158.9818 0.0000 0.0000 0.0000
# 4 0.0000 0.0000 0.0000 10.1470 0.0000 0.0000
# 5 0.0000 0.0000 0.0000 0.0000 34.1508 0.0000
# 6 0.0000 0.0000 0.0000 0.0000 0.0000 16.0627
#
#
#
# Elastic Compliance Matrix: (Units=1/GPa)
#
#
# Indices 1 2 3 4 5 6 
#
# 1 0.007467 0.000037 -0.003230 0.000000 0.000000 0.000000
# 2 0.000037 0.012715 -0.005378 0.000000 0.000000 0.000000
# 3 -0.003230 -0.005378 0.009948 0.000000 0.000000 0.000000
# 4 0.000000 0.000000 0.000000 0.098551 0.000000 0.000000
# 5 0.000000 0.000000 0.000000 0.000000 0.029282 0.000000
# 6 0.000000 0.000000 0.000000 0.000000 0.000000 0.062256
#
#
# Mechanical properties :
#
#
# Convention : Reuss Voigt Hill
#
# Bulk Modulus (GPa) = 76.99039 84.13109 80.56074
# Shear Modulus (GPa) = 20.68750 29.76046 25.22398
#
# Velocity S-wave (km/s) = 3.32863 3.99237 3.67551
# Velocity P-wave (km/s) = 7.48380 8.14314 7.82042
#
# Compressibility (1/GPa) = 0.01298863
#
# Stress axis : x y z
#
# Youngs Moduli (GPa) = 133.91406 78.64647 100.51903
#
# Poissons Ratio (x) = -0.00289 0.32466
# Poissons Ratio (y) = -0.00492 0.54060
# Poissons Ratio (z) = 0.43252 0.42297
#
# Static dielectric constant tensor:
#      x y z
#    x 1.603850 0.000000 0.000000 
#    y 0.000000 1.654110 0.000000 
#    z 0.000000 0.000000 1.805080 
# 
# From -- ./inp_files/36742.got.cif
#   From: 2010.05.17/outbox.cif.g08.bks.cpg/sg65_19_cif.got.tgz:36742.got - 2010.06.03 17:01:31.
