data_PCOD9493380
_publ_section_title
;
Structure prediction by ZEFSAII (Michael W. Deem and Ramdas Pophale) SiO2 
 PCOD9493380
Probable space group: C M M M
;
_chemical_formula_sum "Si O2"
_cell_formula_units_Z 104
_cell_length_a 8.494285
_cell_length_b 24.307642
_cell_length_c 29.752305
_cell_angle_alpha 90.000000
_cell_angle_beta 90.000000
_cell_angle_gamma 90.000000
_cell_volume 6143.138082
_symmetry_space_group_name_H-M "C M M M"
_symmetry_group_IT_number 65
_symmetry_cell_setting 'orthorhombic'
loop_
_space_group_symop_operation_xyz
x,y,z
-x,-y,z
x,-y,-z
-x,y,-z
-x,-y,-z
x,y,-z
-x,y,z
x,-y,z
1/2+x,1/2+y,z
1/2-x,1/2-y,z
1/2+x,1/2-y,-z
1/2-x,1/2+y,-z
1/2-x,1/2-y,-z
1/2+x,1/2+y,-z
1/2-x,1/2+y,z
1/2+x,1/2-y,z
loop_
_atom_site_type_symbol
_atom_site_label
_atom_site_fract_x
_atom_site_fract_y
_atom_site_fract_z
Si Si1 0.184094 0.433714 0.107418
Si Si2 0.690276 0.812040 0.449973
Si Si3 0.814677 0.188243 0.720702
Si Si4 0.687838 0.119658 0.364045
Si Si5 0.500000 0.566491 0.948688
Si Si6 0.680061 0.500000 0.754298
Si Si7 0.183737 0.388430 0.206179
Si Si8 0.320439 0.500000 0.646606
O O1 0.194690 0.500000 0.116733
O O2 0.333407 0.419309 0.075652
O O3 0.206224 0.399324 0.153260
O O4 0.000000 0.424942 0.091860
O O5 0.739241 0.831163 0.500000
O O6 0.500000 0.811595 0.449109
O O7 0.750000 0.750000 0.444363
O O8 0.746271 0.848390 0.408332
O O9 0.750000 0.250000 0.717366
O O10 0.748847 0.149353 0.681018
O O11 0.773902 0.160169 0.768468
O O12 0.000000 0.190182 0.715272
O O13 0.500000 0.122794 0.362766
O O14 0.738078 0.056425 0.366924
O O15 0.500000 0.500000 0.949785
O O16 0.500000 0.586844 0.000000
O O17 0.500000 0.500000 0.771228
O O18 0.764979 0.445515 0.771070
O O19 0.677567 0.500000 0.700757
O O20 0.000000 0.378884 0.214228
O O21 0.500000 0.500000 0.630501
#
# Coordination Sequence:
#
# PCOD9493380 Si02
#       8
#    16  16  16  16   8   8  16   8
#     4   9  18  30  47  73 104 141 183 225 270 323
#     4   9  19  36  58  83 106 132 171 218 268 321
#     4  12  25  39  54  76 107 144 178 217 264 320
#     4  11  22  37  58  80 106 140 176 218 266 319
#     4   9  18  30  46  70 104 146 186 226 273 324
#     4  11  21  31  51  78 103 141 182 222 262 307
#     4  11  21  34  53  77 106 141 181 225 267 317
#     4  11  23  37  52  78 108 139 180 219 262 315
#
# _framework density 16.929458
#
# number of rings (size 3 to 8) (size 9 to 14) (size 15 to 20)
#    0.000    1.615    2.308    3.231    2.154    3.385 
#    0.000    1.923    0.000    2.308    0.000    0.000 
#    0.000    0.615    0.308    0.000    0.000    0.000 
#
# Total GULP energy -290059.239959 kJ/mol
# GULP energy per Si atom -5578.062307 kJ/mol
# Density = 1.689093 g / cm^3
# Si number density = 16.929458 Si / 1000 Ang^3
#
#
#
# Elastic Constant Matrix: (Units=GPa)
#
#
# Indices 1 2 3 4 5 6 
#
# 1 98.9842 36.5736 58.2132 0.0000 0.0000 0.0000
# 2 36.5736 88.7669 41.8628 0.0000 0.0000 0.0000
# 3 58.2132 41.8628 93.1492 0.0000 0.0000 0.0000
# 4 0.0000 0.0000 0.0000 5.3131 0.0000 0.0000
# 5 0.0000 0.0000 0.0000 0.0000 19.7692 0.0000
# 6 0.0000 0.0000 0.0000 0.0000 0.0000 24.7583
#
#
#
# Elastic Compliance Matrix: (Units=1/GPa)
#
#
# Indices 1 2 3 4 5 6 
#
# 1 0.016379 -0.002438 -0.009140 0.000000 0.000000 0.000000
# 2 -0.002438 0.014658 -0.005064 0.000000 0.000000 0.000000
# 3 -0.009140 -0.005064 0.018724 0.000000 0.000000 0.000000
# 4 0.000000 0.000000 0.000000 0.188214 0.000000 0.000000
# 5 0.000000 0.000000 0.000000 0.000000 0.050584 0.000000
# 6 0.000000 0.000000 0.000000 0.000000 0.000000 0.040390
#
#
# Mechanical properties :
#
#
# Convention : Reuss Voigt Hill
#
# Bulk Modulus (GPa) = 60.69395 61.57771 61.13583
# Shear Modulus (GPa) = 13.59712 19.58484 16.59098
#
# Velocity S-wave (km/s) = 2.83709 3.40494 3.13390
# Velocity P-wave (km/s) = 6.83089 7.20488 7.02037
#
# Compressibility (1/GPa) = 0.01647611
#
# Stress axis : x y z
#
# Youngs Moduli (GPa) = 61.05445 68.22146 53.40864
#
# Poissons Ratio (x) = 0.16631 0.48817
# Poissons Ratio (y) = 0.14884 0.27047
# Poissons Ratio (z) = 0.55806 0.34548
#
# Static dielectric constant tensor:
#      x y z
#    x 1.587310 0.000000 0.000000 
#    y 0.000000 1.527390 0.000000 
#    z 0.000000 0.000000 1.582290 
# 
# From -- ./inp_files/73429.got.cif
#   From: 2010.05.17/outbox.cif.g08.bks.cpg/sg65_37_cif.got.tgz:73429.got - 2010.06.03 17:01:31.
