data_PCOD9493367
_publ_section_title
;
Structure prediction by ZEFSAII (Michael W. Deem and Ramdas Pophale) SiO2 
 PCOD9493367
Probable space group: C M M M
;
_chemical_formula_sum "Si O2"
_cell_formula_units_Z 96
_cell_length_a 25.839955
_cell_length_b 26.061255
_cell_length_c 8.957959
_cell_angle_alpha 90.000000
_cell_angle_beta 90.000000
_cell_angle_gamma 90.000000
_cell_volume 6032.483588
_symmetry_space_group_name_H-M "C M M M"
_symmetry_group_IT_number 65
_symmetry_cell_setting 'orthorhombic'
loop_
_space_group_symop_operation_xyz
x,y,z
-x,-y,z
x,-y,-z
-x,y,-z
-x,-y,-z
x,y,-z
-x,y,z
x,-y,z
1/2+x,1/2+y,z
1/2-x,1/2-y,z
1/2+x,1/2-y,-z
1/2-x,1/2+y,-z
1/2-x,1/2-y,-z
1/2+x,1/2+y,-z
1/2-x,1/2+y,z
1/2+x,1/2-y,z
loop_
_atom_site_type_symbol
_atom_site_label
_atom_site_fract_x
_atom_site_fract_y
_atom_site_fract_z
Si Si1 0.745292 0.312118 0.829036
Si Si2 0.139133 0.806354 0.322472
Si Si3 0.061014 0.113007 0.818962
Si Si4 0.937219 0.000000 0.827184
Si Si5 0.359635 0.806247 0.819303
Si Si6 0.559986 0.106104 0.179515
Si Si7 0.562882 0.000000 0.671925
O O1 0.750000 0.250000 0.830374
O O2 0.696293 0.325026 0.728446
O O3 0.802712 0.328521 0.780546
O O4 0.735558 0.328598 0.000000
O O5 0.135474 0.805017 0.500000
O O6 0.096289 0.843641 0.252770
O O7 0.133021 0.748948 0.256254
O O8 0.000000 0.120185 0.784841
O O9 0.077415 0.055716 0.764715
O O10 0.065600 0.114236 0.000000
O O11 0.000000 0.000000 0.828668
O O12 0.920234 0.000000 0.000000
O O13 0.404058 0.846291 0.777721
O O14 0.359747 0.799087 0.000000
O O15 0.500000 0.114415 0.223944
O O16 0.578895 0.052497 0.248169
O O17 0.561261 0.101759 0.000000
O O18 0.500000 0.000000 0.678300
O O19 0.578690 0.000000 0.500000
#
# Coordination Sequence:
#
# PCOD9493367 Si02
#       7
#    16  16  16   8  16  16   8
#     4   8  15  30  49  65  85 117 159 199 228 263
#     4  11  21  30  44  69  99 126 152 185 229 281
#     4   9  17  31  51  71  92 120 154 191 230 273
#     4   7  12  26  49  72  87 108 151 196 224 255
#     4   9  18  32  49  69  92 121 158 196 231 269
#     4   9  17  30  49  71  93 118 151 191 232 272
#     4   9  17  29  45  66  93 124 155 184 220 271
#
# _framework density 15.913843
#
# number of rings (size 3 to 8) (size 9 to 14) (size 15 to 20)
#    0.000    3.000    0.000    3.750    0.000    5.667 
#    0.000    2.083    0.000    2.500    0.000    3.500 
#    0.000    0.000    0.000    0.000    0.000    0.000 
#
# Total GULP energy -267215.966184 kJ/mol
# GULP energy per Si atom -5566.999295 kJ/mol
# Density = 1.587762 g / cm^3
# Si number density = 15.913843 Si / 1000 Ang^3
#
#
#
# Elastic Constant Matrix: (Units=GPa)
#
#
# Indices 1 2 3 4 5 6 
#
# 1 99.8407 74.5637 44.3375 0.0000 0.0000 0.0000
# 2 74.5637 113.8597 46.4850 0.0000 0.0000 0.0000
# 3 44.3375 46.4850 44.1560 0.0000 0.0000 0.0000
# 4 0.0000 0.0000 0.0000 3.3532 0.0000 0.0000
# 5 0.0000 0.0000 0.0000 0.0000 1.8248 0.0000
# 6 0.0000 0.0000 0.0000 0.0000 0.0000 -2.9833
#
#
#
# Elastic Compliance Matrix: (Units=1/GPa)
#
#
# Indices 1 2 3 4 5 6 
#
# 1 0.023072 -0.009911 -0.012734 0.000000 0.000000 0.000000
# 2 -0.009911 0.019660 -0.010746 0.000000 0.000000 0.000000
# 3 -0.012734 -0.010746 0.046745 0.000000 0.000000 0.000000
# 4 0.000000 0.000000 0.000000 0.298219 0.000000 0.000000
# 5 0.000000 0.000000 0.000000 0.000000 0.548004 0.000000
# 6 0.000000 0.000000 0.000000 0.000000 0.000000 -0.335204
#
#
# Mechanical properties :
#
#
# Convention : Reuss Voigt Hill
#
# Bulk Modulus (GPa) = 44.05717 65.40319 54.73018
# Shear Modulus (GPa) = 7.40913 6.60364 7.00638
#
# Velocity S-wave (km/s) = 2.16007 2.03927 2.10054
# Velocity P-wave (km/s) = 5.82804 6.83611 6.35210
#
# Compressibility (1/GPa) = 0.02269778
#
# Stress axis : x y z
#
# Youngs Moduli (GPa) = 43.34187 50.86447 21.39248
#
# Poissons Ratio (x) = 0.50411 0.27241
# Poissons Ratio (y) = 0.42955 0.22987
# Poissons Ratio (z) = 0.55190 0.54657
#
# Static dielectric constant tensor:
#      x y z
#    x 1.542020 0.000000 0.000000 
#    y 0.000000 1.523870 0.000000 
#    z 0.000000 0.000000 1.527500 
# 
# From -- ./inp_files/14355.got.cif
#   From: 2010.05.17/outbox.cif.g08.bks.cpg/sg65_8_cif.got.tgz:14355.got - 2010.06.03 17:01:31.
