data_PCOD9493214
_publ_section_title
;
Structure prediction by ZEFSAII (Michael W. Deem and Ramdas Pophale) SiO2 
 PCOD9493214
Probable space group: C M M M
;
_chemical_formula_sum "Si O2"
_cell_formula_units_Z 68
_cell_length_a 17.946019
_cell_length_b 9.780954
_cell_length_c 18.960633
_cell_angle_alpha 90.000000
_cell_angle_beta 90.000000
_cell_angle_gamma 90.000000
_cell_volume 3328.144483
_symmetry_space_group_name_H-M "C M M M"
_symmetry_group_IT_number 65
_symmetry_cell_setting 'orthorhombic'
loop_
_space_group_symop_operation_xyz
x,y,z
-x,-y,z
x,-y,-z
-x,y,-z
-x,-y,-z
x,y,-z
-x,y,z
x,-y,z
1/2+x,1/2+y,z
1/2-x,1/2-y,z
1/2+x,1/2-y,-z
1/2-x,1/2+y,-z
1/2-x,1/2-y,-z
1/2+x,1/2+y,-z
1/2-x,1/2+y,z
1/2+x,1/2-y,z
loop_
_atom_site_type_symbol
_atom_site_label
_atom_site_fract_x
_atom_site_fract_y
_atom_site_fract_z
Si Si1 0.686199 0.000000 0.737081
Si Si2 0.913983 0.000000 0.654472
Si Si3 0.333440 0.781016 0.384845
Si Si4 0.148765 0.000000 0.194144
Si Si5 0.620094 0.000000 0.500000
Si Si6 0.911636 0.500000 0.875393
Si Si7 0.338601 0.724320 0.921827
O O1 0.677474 0.133265 0.687590
O O2 0.624757 0.000000 0.797712
O O3 0.767473 0.000000 0.773379
O O4 0.873823 0.862819 0.627268
O O5 0.904947 0.000000 0.739100
O O6 0.000000 0.000000 0.633924
O O7 0.250000 0.750000 0.412047
O O8 0.375397 0.880255 0.438558
O O9 0.139274 0.871399 0.142840
O O10 0.880794 0.366576 0.914056
O O11 0.000000 0.500000 0.872270
O O12 0.250000 0.750000 0.916173
O O13 0.352636 0.666052 0.000000
#
# Coordination Sequence:
#
# PCOD9493214 Si02
#       7
#     8   8  16   8   4   8  16
#     4  11  22  39  67 100 131 181 226 276 335 414
#     4  12  27  43  69 106 140 171 223 286 340 396
#     4  11  22  43  70 102 139 179 225 279 331 394
#     4  12  22  41  69  97 132 173 230 279 346 395
#     4  10  24  42  71 102 133 186 236 266 314 400
#     4  12  26  42  66  99 138 180 225 290 354 402
#     4  11  23  40  65  95 131 179 233 283 336 412
#
# _framework density 20.431804
#
# number of rings (size 3 to 8) (size 9 to 14) (size 15 to 20)
#    0.000    0.706    4.706    3.176    0.000    7.059 
#    0.000    3.529    0.000    2.118    0.000    0.000 
#    0.000    0.000    0.000    0.000    0.000    0.000 
#
# Total GULP energy -189695.574965 kJ/mol
# GULP energy per Si atom -5579.281617 kJ/mol
# Density = 2.038530 g / cm^3
# Si number density = 20.431804 Si / 1000 Ang^3
#
#
#
# Elastic Constant Matrix: (Units=GPa)
#
#
# Indices 1 2 3 4 5 6 
#
# 1 97.0974 42.1051 4.6318 0.0000 0.0000 0.0000
# 2 42.1051 184.9671 57.0699 0.0000 0.0000 0.0000
# 3 4.6318 57.0699 111.4958 0.0000 0.0000 0.0000
# 4 0.0000 0.0000 0.0000 20.8335 0.0000 0.0000
# 5 0.0000 0.0000 0.0000 0.0000 -23.2548 0.0000
# 6 0.0000 0.0000 0.0000 0.0000 0.0000 40.1601
#
#
#
# Elastic Compliance Matrix: (Units=1/GPa)
#
#
# Indices 1 2 3 4 5 6 
#
# 1 0.011525 -0.002940 0.001026 0.000000 0.000000 0.000000
# 2 -0.002940 0.007170 -0.003548 0.000000 0.000000 0.000000
# 3 0.001026 -0.003548 0.010742 0.000000 0.000000 0.000000
# 4 0.000000 0.000000 0.000000 0.048000 0.000000 0.000000
# 5 0.000000 0.000000 0.000000 0.000000 -0.043002 0.000000
# 6 0.000000 0.000000 0.000000 0.000000 0.000000 0.024900
#
#
# Mechanical properties :
#
#
# Convention : Reuss Voigt Hill
#
# Bulk Modulus (GPa) = 54.01416 66.79710 60.40563
# Shear Modulus (GPa) = 65.41848 26.86466 46.14157
#
# Velocity S-wave (km/s) = 5.66458 3.63001 4.75733
# Velocity P-wave (km/s) = 8.32328 7.09458 7.73337
#
# Compressibility (1/GPa) = 0.01851366
#
# Stress axis : x y z
#
# Youngs Moduli (GPa) = 86.76849 139.46307 93.08893
#
# Poissons Ratio (x) = 0.41003 -0.09552
# Poissons Ratio (y) = 0.25511 0.33029
# Poissons Ratio (z) = -0.08904 0.49482
#
# Static dielectric constant tensor:
#      x y z
#    x 1.696370 0.000000 0.000000 
#    y 0.000000 1.710870 0.000000 
#    z 0.000000 0.000000 1.713700 
# 
# From -- ./inp_files/63412.got.cif
#   From: 2010.05.17/outbox.cif.g08.bks.cpg/sg65_32_cif.got.tgz:63412.got - 2010.06.03 17:01:31.
