data_PCOD9493236
_publ_section_title
;
Structure prediction by ZEFSAII (Michael W. Deem and Ramdas Pophale) SiO2 
 PCOD9493236
Probable space group: C M M M
;
_chemical_formula_sum "Si O2"
_cell_formula_units_Z 84
_cell_length_a 15.886441
_cell_length_b 22.780677
_cell_length_c 11.912614
_cell_angle_alpha 90.000000
_cell_angle_beta 90.000000
_cell_angle_gamma 90.000000
_cell_volume 4311.221241
_symmetry_space_group_name_H-M "C M M M"
_symmetry_group_IT_number 65
_symmetry_cell_setting 'orthorhombic'
loop_
_space_group_symop_operation_xyz
x,y,z
-x,-y,z
x,-y,-z
-x,y,-z
-x,-y,-z
x,y,-z
-x,y,z
x,-y,z
1/2+x,1/2+y,z
1/2-x,1/2-y,z
1/2+x,1/2-y,-z
1/2-x,1/2+y,-z
1/2-x,1/2-y,-z
1/2+x,1/2+y,-z
1/2-x,1/2+y,z
1/2+x,1/2-y,z
loop_
_atom_site_type_symbol
_atom_site_label
_atom_site_fract_x
_atom_site_fract_y
_atom_site_fract_z
Si Si1 0.000000 0.000000 0.161959
Si Si2 0.848251 0.095257 0.134793
Si Si3 0.101530 0.672724 0.632137
Si Si4 0.902196 0.218379 0.774434
Si Si5 0.333723 0.936517 0.224728
Si Si6 0.156255 0.275405 0.000000
Si Si7 0.093399 0.600992 0.000000
O O1 0.925829 0.051345 0.156723
O O2 0.859020 0.156272 0.202032
O O3 0.760873 0.068478 0.177317
O O4 0.847121 0.105941 0.000000
O O5 0.117555 0.668870 0.500000
O O6 0.129997 0.735934 0.681083
O O7 0.143611 0.618902 0.698227
O O8 0.000000 0.669410 0.650733
O O9 0.000000 0.206401 0.751347
O O10 0.891425 0.253732 0.890159
O O11 0.391605 0.933409 0.114027
O O12 0.344981 0.000000 0.281207
O O13 0.250000 0.250000 0.000000
O O14 0.158329 0.345233 0.000000
O O15 0.000000 0.626660 0.000000
#
# Coordination Sequence:
#
# PCOD9493236 Si02
#       7
#     4  16  16  16  16   8   8
#     4  12  25  40  64 100 145 188 215 246 304 407
#     4  12  23  39  62  98 139 176 214 257 312 388
#     4  10  24  46  68  92 123 164 221 276 324 387
#     4  11  22  37  62  92 123 167 211 262 321 377
#     4  12  25  40  62  93 132 172 213 266 324 384
#     4  12  22  35  57  91 129 163 210 259 321 386
#     4  12  23  38  58  88 134 176 207 259 332 402
#
# _framework density 19.484037000000001
#
# number of rings (size 3 to 8) (size 9 to 14) (size 15 to 20)
#    0.000    0.571    5.714    3.714    0.000    2.286 
#    0.000    2.857    0.000    0.000    0.000    2.667 
#    0.000    0.000    0.000    0.000    0.000    0.000 
#
# Total GULP energy -234189.124286 kJ/mol
# GULP energy per Si atom -5575.931531 kJ/mol
# Density = 1.943969 g / cm^3
# Si number density = 19.484037 Si / 1000 Ang^3
#
#
#
# Elastic Constant Matrix: (Units=GPa)
#
#
# Indices 1 2 3 4 5 6 
#
# 1 81.1637 33.2357 29.7943 0.0000 0.0000 0.0000
# 2 33.2357 168.5616 50.2969 0.0000 0.0000 0.0000
# 3 29.7943 50.2969 91.1771 0.0000 0.0000 0.0000
# 4 0.0000 0.0000 0.0000 2.1726 0.0000 0.0000
# 5 0.0000 0.0000 0.0000 0.0000 15.7351 0.0000
# 6 0.0000 0.0000 0.0000 0.0000 0.0000 24.3553
#
#
#
# Elastic Compliance Matrix: (Units=1/GPa)
#
#
# Indices 1 2 3 4 5 6 
#
# 1 0.014404 -0.001719 -0.003759 0.000000 0.000000 0.000000
# 2 -0.001719 0.007307 -0.003469 0.000000 0.000000 0.000000
# 3 -0.003759 -0.003469 0.014110 0.000000 0.000000 0.000000
# 4 0.000000 0.000000 0.000000 0.460277 0.000000 0.000000
# 5 0.000000 0.000000 0.000000 0.000000 0.063552 0.000000
# 6 0.000000 0.000000 0.000000 0.000000 0.000000 0.041059
#
#
# Mechanical properties :
#
#
# Convention : Reuss Voigt Hill
#
# Bulk Modulus (GPa) = 55.78007 63.06181 59.42094
# Shear Modulus (GPa) = 8.00542 23.62430 15.81486
#
# Velocity S-wave (km/s) = 2.02919 3.48587 2.85210
# Velocity P-wave (km/s) = 5.84645 6.97408 6.43501
#
# Compressibility (1/GPa) = 0.01792755
#
# Stress axis : x y z
#
# Youngs Moduli (GPa) = 69.42339 136.86439 70.87356
#
# Poissons Ratio (x) = 0.23520 0.26641
# Poissons Ratio (y) = 0.11930 0.24586
# Poissons Ratio (z) = 0.26096 0.47478
#
# Static dielectric constant tensor:
#      x y z
#    x 1.693820 0.000000 0.000000 
#    y 0.000000 1.715410 0.000000 
#    z 0.000000 0.000000 1.646820 
# 
# From -- ./inp_files/24844.got.cif
#   From: 2010.05.17/outbox.cif.g08.bks.cpg/sg65_13_cif.got.tgz:24844.got - 2010.06.03 17:01:31.
