data_PCOD9493685
_publ_section_title
;
Structure prediction by ZEFSAII (Michael W. Deem and Ramdas Pophale) SiO2 
 PCOD9493685
Probable space group: C M M M
;
_chemical_formula_sum "Si O2"
_cell_formula_units_Z 88
_cell_length_a 18.883370
_cell_length_b 7.635480
_cell_length_c 30.111001
_cell_angle_alpha 90.000000
_cell_angle_beta 90.000000
_cell_angle_gamma 90.000000
_cell_volume 4341.512342
_symmetry_space_group_name_H-M "C M M M"
_symmetry_group_IT_number 65
_symmetry_cell_setting 'orthorhombic'
loop_
_space_group_symop_operation_xyz
x,y,z
-x,-y,z
x,-y,-z
-x,y,-z
-x,-y,-z
x,y,-z
-x,y,z
x,-y,z
1/2+x,1/2+y,z
1/2-x,1/2-y,z
1/2+x,1/2-y,-z
1/2-x,1/2+y,-z
1/2-x,1/2-y,-z
1/2+x,1/2+y,-z
1/2-x,1/2+y,z
1/2+x,1/2-y,z
loop_
_atom_site_type_symbol
_atom_site_label
_atom_site_fract_x
_atom_site_fract_y
_atom_site_fract_z
Si Si1 0.333004 0.210367 0.951203
Si Si2 0.417678 0.785240 0.865683
Si Si3 0.913711 0.296285 0.769311
Si Si4 0.080413 0.709688 0.673192
Si Si5 0.082018 0.215077 0.500000
Si Si6 0.832720 0.792923 0.414128
O O1 0.250000 0.250000 0.947031
O O2 0.374289 0.276813 0.908203
O O3 0.341710 0.000000 0.951612
O O4 0.356547 0.275609 0.000000
O O5 0.500000 0.737677 0.870521
O O6 0.391613 0.722116 0.817135
O O7 0.415076 0.000000 0.864561
O O8 0.891335 0.500000 0.769510
O O9 0.894001 0.219889 0.721250
O O10 0.000000 0.293832 0.769619
O O11 0.075244 0.500000 0.678480
O O12 0.131812 0.741392 0.632305
O O13 0.000000 0.774338 0.664104
O O14 0.123167 0.277895 0.456100
O O15 0.000000 0.268298 0.500000
O O16 0.082615 0.000000 0.500000
O O17 0.750000 0.750000 0.416508
O O18 0.838786 0.000000 0.416878
#
# Coordination Sequence:
#
# PCOD9493685 Si02
#       6
#    16  16  16  16   8  16
#     4   9  17  28  42  61  86 116 148 184 227 274
#     4   8  13  23  42  67  90 113 147 190 232 271
#     4   7  11  22  42  67  93 120 149 185 230 276
#     4   9  17  31  52  76 100 127 162 200 236 281
#     4   9  19  36  57  79 100 125 160 199 238 284
#     4  11  22  36  54  75 103 135 164 197 239 283
#
# _framework density 20.269435000000001
#
# number of rings (size 3 to 8) (size 9 to 14) (size 15 to 20)
#    0.000    3.182    0.000    3.545    0.000    1.455 
#    0.000    4.091    0.000    7.091    0.000    5.091 
#    0.000    0.000    0.000    0.000    0.000    0.000 
#
# Total GULP energy -245175.653978 kJ/mol
# GULP energy per Si atom -5572.173954 kJ/mol
# Density = 2.022330 g / cm^3
# Si number density = 20.269435 Si / 1000 Ang^3
#
#
#
# Elastic Constant Matrix: (Units=GPa)
#
#
# Indices 1 2 3 4 5 6 
#
# 1 96.5951 0.9290 111.0423 0.0000 0.0000 0.0000
# 2 0.9290 40.5200 10.8427 0.0000 0.0000 0.0000
# 3 111.0423 10.8427 264.8183 0.0000 0.0000 0.0000
# 4 0.0000 0.0000 0.0000 28.0088 0.0000 0.0000
# 5 0.0000 0.0000 0.0000 0.0000 12.6947 0.0000
# 6 0.0000 0.0000 0.0000 0.0000 0.0000 -24.3284
#
#
#
# Elastic Compliance Matrix: (Units=1/GPa)
#
#
# Indices 1 2 3 4 5 6 
#
# 1 0.020118 0.001816 -0.008510 0.000000 0.000000 0.000000
# 2 0.001816 0.025116 -0.001790 0.000000 0.000000 0.000000
# 3 -0.008510 -0.001790 0.007418 0.000000 0.000000 0.000000
# 4 0.000000 0.000000 0.000000 0.035703 0.000000 0.000000
# 5 0.000000 0.000000 0.000000 0.000000 0.078773 0.000000
# 6 0.000000 0.000000 0.000000 0.000000 0.000000 -0.041104
#
#
# Mechanical properties :
#
#
# Convention : Reuss Voigt Hill
#
# Bulk Modulus (GPa) = 28.02351 71.95128 49.98740
# Shear Modulus (GPa) = 32.28156 21.88296 27.08226
#
# Velocity S-wave (km/s) = 3.99510 3.28930 3.65925
# Velocity P-wave (km/s) = 5.92761 7.07110 6.52446
#
# Compressibility (1/GPa) = 0.03568432
#
# Stress axis : x y z
#
# Youngs Moduli (GPa) = 49.70687 39.81452 134.80959
#
# Poissons Ratio (x) = -0.07230 1.14724
# Poissons Ratio (y) = -0.09027 0.24129
# Poissons Ratio (z) = 0.42301 0.07126
#
# Static dielectric constant tensor:
#      x y z
#    x 1.648170 0.000000 0.000000 
#    y 0.000000 1.772210 0.000000 
#    z 0.000000 0.000000 1.783550 
# 
# From -- ./inp_files/75367.got.cif
#   From: 2010.05.17/outbox.cif.g08.bks.cpg/sg65_38_cif.got.tgz:75367.got - 2010.06.03 17:01:31.
