data_PCOD9493510
_publ_section_title
;
Structure prediction by ZEFSAII (Michael W. Deem and Ramdas Pophale) SiO2 
 PCOD9493510
Probable space group: C M M M
;
_chemical_formula_sum "Si O2"
_cell_formula_units_Z 72
_cell_length_a 19.862443
_cell_length_b 22.766466
_cell_length_c 8.574813
_cell_angle_alpha 90.000000
_cell_angle_beta 90.000000
_cell_angle_gamma 90.000000
_cell_volume 3877.510144
_symmetry_space_group_name_H-M "C M M M"
_symmetry_group_IT_number 65
_symmetry_cell_setting 'orthorhombic'
loop_
_space_group_symop_operation_xyz
x,y,z
-x,-y,z
x,-y,-z
-x,y,-z
-x,-y,-z
x,y,-z
-x,y,z
x,-y,z
1/2+x,1/2+y,z
1/2-x,1/2-y,z
1/2+x,1/2-y,-z
1/2-x,1/2+y,-z
1/2-x,1/2-y,-z
1/2+x,1/2+y,-z
1/2-x,1/2+y,z
1/2+x,1/2-y,z
loop_
_atom_site_type_symbol
_atom_site_label
_atom_site_fract_x
_atom_site_fract_y
_atom_site_fract_z
Si Si1 0.576908 0.222867 0.310195
Si Si2 0.921438 0.500000 0.187209
Si Si3 0.839123 0.388668 0.687276
Si Si4 0.922130 0.856991 0.688297
Si Si5 0.800634 0.932050 0.186459
O O1 0.577074 0.222776 0.500000
O O2 0.500000 0.209374 0.261661
O O3 0.627897 0.172580 0.258079
O O4 0.593079 0.289598 0.263028
O O5 0.883970 0.557444 0.251144
O O6 0.000000 0.500000 0.232544
O O7 0.916865 0.500000 0.000000
O O8 0.840148 0.389558 0.500000
O O9 0.763376 0.398213 0.744307
O O10 0.917298 0.859629 0.500000
O O11 0.869287 0.901420 0.760753
O O12 0.000000 0.869283 0.729806
O O13 0.797987 0.000000 0.238979
O O14 0.795795 0.931333 0.000000
#
# Coordination Sequence:
#
# PCOD9493510 Si02
#       5
#    16   8  16  16  16
#     4   8  16  33  57  86 116 143 179 234 290 333
#     4  11  23  37  53  79 118 157 190 229 281 333
#     4  11  21  35  59  85 111 148 195 238 275 329
#     4   9  19  38  63  87 111 141 183 236 288 340
#     4  11  24  40  56  77 115 156 188 232 288 342
#
# _framework density 18.568615999999999
#
# number of rings (size 3 to 8) (size 9 to 14) (size 15 to 20)
#    0.000    2.111    1.111    3.667    0.000    4.889 
#    0.000    8.889    0.000    2.667    0.000    0.000 
#    0.000    0.000    0.000    0.000    0.000    0.000 
#
# Total GULP energy -201017.204822 kJ/mol
# GULP energy per Si atom -5583.811245 kJ/mol
# Density = 1.852635 g / cm^3
# Si number density = 18.568616 Si / 1000 Ang^3
#
#
#
# Elastic Constant Matrix: (Units=GPa)
#
#
# Indices 1 2 3 4 5 6 
#
# 1 108.9684 57.8385 26.6980 0.0000 0.0000 0.0000
# 2 57.8385 79.2203 15.9885 0.0000 0.0000 0.0000
# 3 26.6980 15.9885 27.5040 0.0000 0.0000 0.0000
# 4 0.0000 0.0000 0.0000 -25.7412 0.0000 0.0000
# 5 0.0000 0.0000 0.0000 0.0000 22.8537 0.0000
# 6 0.0000 0.0000 0.0000 0.0000 0.0000 70.8263
#
#
#
# Elastic Compliance Matrix: (Units=1/GPa)
#
#
# Indices 1 2 3 4 5 6 
#
# 1 0.017409 -0.010536 -0.010774 0.000000 0.000000 0.000000
# 2 -0.010536 0.020677 -0.001793 0.000000 0.000000 0.000000
# 3 -0.010774 -0.001793 0.047859 0.000000 0.000000 0.000000
# 4 0.000000 0.000000 0.000000 -0.038848 0.000000 0.000000
# 5 0.000000 0.000000 0.000000 0.000000 0.043757 0.000000
# 6 0.000000 0.000000 0.000000 0.000000 0.000000 0.014119
#
#
# Mechanical properties :
#
#
# Convention : Reuss Voigt Hill
#
# Bulk Modulus (GPa) = 25.16401 46.30474 35.73438
# Shear Modulus (GPa) = 30.40918 21.26559 25.83739
#
# Velocity S-wave (km/s) = 4.05120 3.38782 3.73427
# Velocity P-wave (km/s) = 5.95519 6.34778 6.15461
#
# Compressibility (1/GPa) = 0.03973929
#
# Stress axis : x y z
#
# Youngs Moduli (GPa) = 57.44206 48.36301 20.89478
#
# Poissons Ratio (x) = 0.50954 0.22512
# Poissons Ratio (y) = 0.60519 0.03746
# Poissons Ratio (z) = 0.61889 0.08671
#
# Static dielectric constant tensor:
#      x y z
#    x 1.615860 0.000000 0.000000 
#    y 0.000000 1.631480 0.000000 
#    z 0.000000 0.000000 1.632330 
# 
# From -- ./inp_files/9223.got.cif
#   From: 2010.05.17/outbox.cif.g08.bks.cpg/sg65_5_cif.got.tgz:9223.got - 2010.06.03 17:01:31.
