data_PCOD9493160
_publ_section_title
;
Structure prediction by ZEFSAII (Michael W. Deem and Ramdas Pophale) SiO2 
 PCOD9493160
Probable space group: C M M M
;
_chemical_formula_sum "Si O2"
_cell_formula_units_Z 62
_cell_length_a 16.551625
_cell_length_b 23.699468
_cell_length_c 7.852376
_cell_angle_alpha 90.000000
_cell_angle_beta 90.000000
_cell_angle_gamma 90.000000
_cell_volume 3080.209971
_symmetry_space_group_name_H-M "C M M M"
_symmetry_group_IT_number 65
_symmetry_cell_setting 'orthorhombic'
loop_
_space_group_symop_operation_xyz
x,y,z
-x,-y,z
x,-y,-z
-x,y,-z
-x,-y,-z
x,y,-z
-x,y,z
x,-y,z
1/2+x,1/2+y,z
1/2-x,1/2-y,z
1/2+x,1/2-y,-z
1/2-x,1/2+y,-z
1/2-x,1/2-y,-z
1/2+x,1/2+y,-z
1/2-x,1/2+y,z
1/2+x,1/2-y,z
loop_
_atom_site_type_symbol
_atom_site_label
_atom_site_fract_x
_atom_site_fract_y
_atom_site_fract_z
Si Si1 0.377265 0.000000 0.685560
Si Si2 0.500000 0.296075 0.693501
Si Si3 0.500000 0.000000 0.000000
Si Si4 0.673204 0.567330 0.000000
Si Si5 0.500000 0.614225 0.000000
Si Si6 0.839741 0.727603 0.795627
Si Si7 0.772640 0.387546 0.690472
O O1 0.322241 0.944944 0.688998
O O2 0.417409 0.000000 0.500000
O O3 0.431532 0.000000 0.850176
O O4 0.500000 0.317508 0.500000
O O5 0.417819 0.259201 0.720673
O O6 0.500000 0.344722 0.835532
O O7 0.707102 0.601451 0.836522
O O8 0.694850 0.500000 0.000000
O O9 0.578168 0.575338 0.000000
O O10 0.750000 0.750000 0.745397
O O11 0.833325 0.662613 0.740946
O O12 0.845766 0.732434 0.000000
O O13 0.739628 0.376799 0.500000
#
# Coordination Sequence:
#
# PCOD9493160 Si02
#       7
#     8   8   2   8   4  16  16
#     4  10  23  41  61  92 125 162 213 263 315 385
#     4  12  26  46  68  97 142 183 223 283 345 399
#     4  12  22  36  62  86 124 168 194 248 316 376
#     4  12  24  43  69  98 134 177 220 278 345 403
#     4  12  27  44  65 100 136 170 228 282 334 412
#     4  11  23  42  69  99 133 176 226 277 336 403
#     4  11  23  42  69  96 128 171 221 272 328 402
#
# _framework density 20.128499000000001
#
# number of rings (size 3 to 8) (size 9 to 14) (size 15 to 20)
#    0.000    0.774    3.871    3.484    0.000    6.194 
#    0.000    1.290    0.000    2.323    0.000    0.000 
#    0.000    0.000    0.000    0.000    0.000    0.000 
#
# Total GULP energy -172902.619946 kJ/mol
# GULP energy per Si atom -5577.503869 kJ/mol
# Density = 2.008269 g / cm^3
# Si number density = 20.128499 Si / 1000 Ang^3
#
#
#
# Elastic Constant Matrix: (Units=GPa)
#
#
# Indices 1 2 3 4 5 6 
#
# 1 92.7988 -3.2816 47.9179 0.0000 0.0000 0.0000
# 2 -3.2816 65.1056 -0.6581 0.0000 0.0000 0.0000
# 3 47.9179 -0.6581 174.4263 0.0000 0.0000 0.0000
# 4 0.0000 0.0000 0.0000 49.4686 0.0000 0.0000
# 5 0.0000 0.0000 0.0000 0.0000 -7.9042 0.0000
# 6 0.0000 0.0000 0.0000 0.0000 0.0000 31.9997
#
#
#
# Elastic Compliance Matrix: (Units=1/GPa)
#
#
# Indices 1 2 3 4 5 6 
#
# 1 0.012581 0.000599 -0.003454 0.000000 0.000000 0.000000
# 2 0.000599 0.015389 -0.000107 0.000000 0.000000 0.000000
# 3 -0.003454 -0.000107 0.006682 0.000000 0.000000 0.000000
# 4 0.000000 0.000000 0.000000 0.020215 0.000000 0.000000
# 5 0.000000 0.000000 0.000000 0.000000 -0.126516 0.000000
# 6 0.000000 0.000000 0.000000 0.000000 0.000000 0.031250
#
#
# Mechanical properties :
#
#
# Convention : Reuss Voigt Hill
#
# Bulk Modulus (GPa) = 34.80861 46.69856 40.75358
# Shear Modulus (GPa) = -200.79548 33.93632 -83.42958
#
# Velocity S-wave (km/s) = -9.99867 4.11053 -6.44503
# Velocity P-wave (km/s) = 10.76880 6.76603 5.92402
#
# Compressibility (1/GPa) = 0.02872853
#
# Stress axis : x y z
#
# Youngs Moduli (GPa) = 79.48727 64.98240 149.66673
#
# Poissons Ratio (x) = -0.03894 0.51693
# Poissons Ratio (y) = -0.04763 0.01595
# Poissons Ratio (z) = 0.27454 0.00692
#
# Static dielectric constant tensor:
#      x y z
#    x 1.703690 0.000000 0.000000 
#    y 0.000000 1.692500 0.000000 
#    z 0.000000 0.000000 1.744710 
# 
# From -- ./inp_files/6882.got.cif
#   From: 2010.05.17/outbox.cif.g08.bks.cpg/sg65_4_cif.got.tgz:6882.got - 2010.06.03 17:01:31.
