data_PCOD9493182
_publ_section_title
;
Structure prediction by ZEFSAII (Michael W. Deem and Ramdas Pophale) SiO2 
 PCOD9493182
Probable space group: C M M M
;
_chemical_formula_sum "Si O2"
_cell_formula_units_Z 112
_cell_length_a 14.430278
_cell_length_b 14.719092
_cell_length_c 27.786916
_cell_angle_alpha 90.000000
_cell_angle_beta 90.000000
_cell_angle_gamma 90.000000
_cell_volume 5901.957338
_symmetry_space_group_name_H-M "C M M M"
_symmetry_group_IT_number 65
_symmetry_cell_setting 'orthorhombic'
loop_
_space_group_symop_operation_xyz
x,y,z
-x,-y,z
x,-y,-z
-x,y,-z
-x,-y,-z
x,y,-z
-x,y,z
x,-y,z
1/2+x,1/2+y,z
1/2-x,1/2-y,z
1/2+x,1/2-y,-z
1/2-x,1/2+y,-z
1/2-x,1/2-y,-z
1/2+x,1/2+y,-z
1/2-x,1/2+y,z
1/2+x,1/2-y,z
loop_
_atom_site_type_symbol
_atom_site_label
_atom_site_fract_x
_atom_site_fract_y
_atom_site_fract_z
Si Si1 0.395920 0.139236 0.779349
Si Si2 0.397071 0.108630 0.054966
Si Si3 0.240974 0.642029 0.861470
Si Si4 0.392408 0.237808 0.557783
Si Si5 0.263161 0.396367 0.594469
Si Si6 0.245789 0.859906 0.705388
Si Si7 0.894369 0.139699 0.790009
O O1 0.500000 0.107180 0.780386
O O2 0.335365 0.106320 0.823996
O O3 0.342113 0.114527 0.730863
O O4 0.396272 0.249602 0.785411
O O5 0.500000 0.141154 0.073237
O O6 0.306591 0.127176 0.087079
O O7 0.403209 0.000000 0.053133
O O8 0.386917 0.142208 0.000000
O O9 0.250000 0.750000 0.857141
O O10 0.339047 0.611264 0.838556
O O11 0.386428 0.233424 0.500000
O O12 0.500000 0.232821 0.572148
O O13 0.345071 0.331719 0.574872
O O14 0.330780 0.156124 0.579225
O O15 0.266715 0.500000 0.576721
O O16 0.268037 0.396270 0.652307
O O17 0.250000 0.750000 0.701778
O O18 0.166116 0.887298 0.743413
O O19 0.000000 0.108543 0.789362
#
# Coordination Sequence:
#
# PCOD9493182 Si02
#       7
#    16  16  16  16  16  16  16
#     4   8  14  25  44  69 100 137 173 210 256 313
#     4   9  18  32  49  69  94 126 164 208 263 323
#     4   9  16  27  47  72  98 126 168 215 261 306
#     4  10  23  43  64  87 116 152 194 238 288 346
#     4  11  22  38  61  89 120 151 189 239 290 339
#     4   9  16  30  48  75 105 141 185 217 260 318
#     4   8  15  27  45  69 100 139 178 212 251 307
#
# _framework density 18.976755000000001
#
# number of rings (size 3 to 8) (size 9 to 14) (size 15 to 20)
#    0.000    2.857    1.429    3.429    0.000    3.714 
#    0.000    4.286    0.000    2.571    0.000    1.000 
#    0.000    0.000    0.000    0.000    0.000    0.000 
#
# Total GULP energy -311946.524114 kJ/mol
# GULP energy per Si atom -5570.473645 kJ/mol
# Density = 1.893356 g / cm^3
# Si number density = 18.976755 Si / 1000 Ang^3
#
#
#
# Elastic Constant Matrix: (Units=GPa)
#
#
# Indices 1 2 3 4 5 6 
#
# 1 169.0467 29.0346 56.7562 0.0000 0.0000 0.0000
# 2 29.0346 92.3043 11.6720 0.0000 0.0000 0.0000
# 3 56.7562 11.6720 87.0251 0.0000 0.0000 0.0000
# 4 0.0000 0.0000 0.0000 -462.3812 0.0000 0.0000
# 5 0.0000 0.0000 0.0000 0.0000 45.8757 0.0000
# 6 0.0000 0.0000 0.0000 0.0000 0.0000 -4.6738
#
#
#
# Elastic Compliance Matrix: (Units=1/GPa)
#
#
# Indices 1 2 3 4 5 6 
#
# 1 0.007876 -0.001859 -0.004887 0.000000 0.000000 0.000000
# 2 -0.001859 0.011460 -0.000324 0.000000 0.000000 0.000000
# 3 -0.004887 -0.000324 0.014722 0.000000 0.000000 0.000000
# 4 0.000000 0.000000 0.000000 -0.002163 0.000000 0.000000
# 5 0.000000 0.000000 0.000000 0.000000 0.021798 0.000000
# 6 0.000000 0.000000 0.000000 0.000000 0.000000 -0.213957
#
#
# Mechanical properties :
#
#
# Convention : Reuss Voigt Hill
#
# Bulk Modulus (GPa) = 50.21204 60.36687 55.28945
# Shear Modulus (GPa) = -35.84610 -67.50831 -51.67720
#
# Velocity S-wave (km/s) = -4.35092 -5.97088 -5.22408
# Velocity P-wave (km/s) = 1.12985 3.95667 2.68129
#
# Compressibility (1/GPa) = 0.01991554
#
# Stress axis : x y z
#
# Youngs Moduli (GPa) = 126.97378 87.26300 67.92723
#
# Poissons Ratio (x) = 0.16225 0.33196
# Poissons Ratio (y) = 0.23609 0.02203
# Poissons Ratio (z) = 0.62052 0.02830
#
# Static dielectric constant tensor:
#      x y z
#    x 1.667800 0.000000 0.000000 
#    y 0.000000 1.697260 0.000000 
#    z 0.000000 0.000000 1.668780 
# 
# From -- ./inp_files/74911.got.cif
#   From: 2010.05.17/outbox.cif.g08.bks.cpg/sg65_38_cif.got.tgz:74911.got - 2010.06.03 17:01:31.
