data_PCOD9493483
_publ_section_title
;
Structure prediction by ZEFSAII (Michael W. Deem and Ramdas Pophale) SiO2 
 PCOD9493483
Probable space group: C M M M
;
_chemical_formula_sum "Si O2"
_cell_formula_units_Z 96
_cell_length_a 25.944550
_cell_length_b 23.941493
_cell_length_c 8.565013
_cell_angle_alpha 90.000000
_cell_angle_beta 90.000000
_cell_angle_gamma 90.000000
_cell_volume 5320.168636
_symmetry_space_group_name_H-M "C M M M"
_symmetry_group_IT_number 65
_symmetry_cell_setting 'orthorhombic'
loop_
_space_group_symop_operation_xyz
x,y,z
-x,-y,z
x,-y,-z
-x,y,-z
-x,-y,-z
x,y,-z
-x,y,z
x,-y,z
1/2+x,1/2+y,z
1/2-x,1/2-y,z
1/2+x,1/2-y,-z
1/2-x,1/2+y,-z
1/2-x,1/2-y,-z
1/2+x,1/2+y,-z
1/2-x,1/2+y,z
1/2+x,1/2-y,z
loop_
_atom_site_type_symbol
_atom_site_label
_atom_site_fract_x
_atom_site_fract_y
_atom_site_fract_z
Si Si1 0.689758 0.242737 0.686163
Si Si2 0.242712 0.934968 0.314372
Si Si3 0.152021 0.858539 0.186413
Si Si4 0.558887 0.563587 0.809839
Si Si5 0.059054 0.565373 0.687872
Si Si6 0.657941 0.124228 0.816299
O O1 0.687683 0.234758 0.500000
O O2 0.750000 0.250000 0.730424
O O3 0.660399 0.298924 0.734048
O O4 0.667200 0.188175 0.768060
O O5 0.234760 0.929120 0.500000
O O6 0.200851 0.897254 0.227283
O O7 0.299258 0.912662 0.272200
O O8 0.237489 0.000000 0.272003
O O9 0.101122 0.891751 0.241305
O O10 0.149232 0.850918 0.000000
O O11 0.500000 0.575605 0.761677
O O12 0.571897 0.500000 0.760685
O O13 0.559503 0.563529 0.000000
O O14 0.063505 0.570556 0.500000
O O15 0.067867 0.500000 0.726319
O O16 0.101647 0.603117 0.768210
O O17 0.000000 0.579108 0.730567
O O18 0.665815 0.117555 0.000000
#
# Coordination Sequence:
#
# PCOD9493483 Si02
#       6
#    16  16  16  16  16  16
#     4  11  23  40  60  78 107 154 197 231 282 347
#     4  11  23  37  54  79 114 152 186 225 279 344
#     4  11  21  34  57  86 113 142 186 239 286 330
#     4   8  15  30  53  82 116 150 180 216 271 334
#     4   9  19  38  63  88 117 155 193 229 278 342
#     4  12  24  37  58  86 115 146 188 240 289 334
#
# _framework density 18.044540000000001
#
# number of rings (size 3 to 8) (size 9 to 14) (size 15 to 20)
#    0.000    1.667    1.667    5.000    0.000    5.333 
#    0.000    1.667    0.000    5.000    0.000    5.833 
#    0.000    0.000    0.000    0.000    0.000    0.000 
#
# Total GULP energy -268188.108952 kJ/mol
# GULP energy per Si atom -5587.252270 kJ/mol
# Density = 1.800347 g / cm^3
# Si number density = 18.044540 Si / 1000 Ang^3
#
#
#
# Elastic Constant Matrix: (Units=GPa)
#
#
# Indices 1 2 3 4 5 6 
#
# 1 78.0223 22.6700 2.5840 0.0000 0.0000 0.0000
# 2 22.6700 57.3729 3.4917 0.0000 0.0000 0.0000
# 3 2.5840 3.4917 17.1471 0.0000 0.0000 0.0000
# 4 0.0000 0.0000 0.0000 47.7460 0.0000 0.0000
# 5 0.0000 0.0000 0.0000 0.0000 18.3986 0.0000
# 6 0.0000 0.0000 0.0000 0.0000 0.0000 10.8460
#
#
#
# Elastic Compliance Matrix: (Units=1/GPa)
#
#
# Indices 1 2 3 4 5 6 
#
# 1 0.014497 -0.005666 -0.001031 0.000000 0.000000 0.000000
# 2 -0.005666 0.019863 -0.003191 0.000000 0.000000 0.000000
# 3 -0.001031 -0.003191 0.059124 0.000000 0.000000 0.000000
# 4 0.000000 0.000000 0.000000 0.020944 0.000000 0.000000
# 5 0.000000 0.000000 0.000000 0.000000 0.054352 0.000000
# 6 0.000000 0.000000 0.000000 0.000000 0.000000 0.092200
#
#
# Mechanical properties :
#
#
# Convention : Reuss Voigt Hill
#
# Bulk Modulus (GPa) = 13.56690 23.33709 18.45199
# Shear Modulus (GPa) = 16.37603 23.65122 20.01362
#
# Velocity S-wave (km/s) = 3.01580 3.62431 3.33396
# Velocity P-wave (km/s) = 4.43414 5.52044 5.00684
#
# Compressibility (1/GPa) = 0.07370883
#
# Stress axis : x y z
#
# Youngs Moduli (GPa) = 68.97898 50.34559 16.91364
#
# Poissons Ratio (x) = 0.28524 0.01744
# Poissons Ratio (y) = 0.39081 0.05397
# Poissons Ratio (z) = 0.07111 0.16065
#
# Static dielectric constant tensor:
#      x y z
#    x 1.606650 0.000000 0.000000 
#    y 0.000000 1.592010 0.000000 
#    z 0.000000 0.000000 1.614660 
# 
# From -- ./inp_files/14289.got.cif
#   From: 2010.05.17/outbox.cif.g08.bks.cpg/sg65_8_cif.got.tgz:14289.got - 2010.06.03 17:01:31.
