data_PCOD9493819
_publ_section_title
;
Structure prediction by ZEFSAII (Michael W. Deem and Ramdas Pophale) SiO2 
 PCOD9493819
Probable space group: C M M M
;
_chemical_formula_sum "Si O2"
_cell_formula_units_Z 72
_cell_length_a 27.740859
_cell_length_b 10.362850
_cell_length_c 14.055231
_cell_angle_alpha 90.000000
_cell_angle_beta 90.000000
_cell_angle_gamma 90.000000
_cell_volume 4040.518546
_symmetry_space_group_name_H-M "C M M M"
_symmetry_group_IT_number 65
_symmetry_cell_setting 'orthorhombic'
loop_
_space_group_symop_operation_xyz
x,y,z
-x,-y,z
x,-y,-z
-x,y,-z
-x,-y,-z
x,y,-z
-x,y,z
x,-y,z
1/2+x,1/2+y,z
1/2-x,1/2-y,z
1/2+x,1/2-y,-z
1/2-x,1/2+y,-z
1/2-x,1/2-y,-z
1/2+x,1/2+y,-z
1/2-x,1/2+y,z
1/2+x,1/2-y,z
loop_
_atom_site_type_symbol
_atom_site_label
_atom_site_fract_x
_atom_site_fract_y
_atom_site_fract_z
Si Si1 0.399511 0.265962 0.295704
Si Si2 0.736652 0.000000 0.322159
Si Si3 0.250000 0.250000 0.191309
Si Si4 0.368534 0.000000 0.609560
Si Si5 0.656758 0.500000 0.608830
Si Si6 0.149166 0.844858 0.110080
Si Si7 0.500000 0.655185 0.388509
O O1 0.386165 0.126566 0.335670
O O2 0.364331 0.373021 0.342009
O O3 0.388361 0.281513 0.183852
O O4 0.452756 0.298996 0.332310
O O5 0.736945 0.127262 0.256478
O O6 0.786002 0.000000 0.380664
O O7 0.689321 0.000000 0.385646
O O8 0.202550 0.210255 0.132336
O O9 0.384807 0.000000 0.500000
O O10 0.641068 0.500000 0.500000
O O11 0.150149 0.000000 0.126323
O O12 0.137162 0.821961 0.000000
O O13 0.500000 0.500000 0.389603
O O14 0.500000 0.697840 0.500000
#
# Coordination Sequence:
#
# PCOD9493819 Si02
#       7
#    16   8   8   8   8  16   8
#     4  12  23  42  61  91 124 157 208 260 303 366
#     4  12  21  36  59  84 128 162 207 240 305 364
#     4  12  19  38  57  86 120 166 205 254 297 360
#     4  12  25  39  58  89 133 169 194 245 312 373
#     4  12  21  37  62  85 119 167 210 251 300 365
#     4  11  22  39  63  89 120 160 205 260 313 355
#     4  11  22  39  68  94 115 156 211 262 307 357
#
# _framework density 17.819493999999999
#
# number of rings (size 3 to 8) (size 9 to 14) (size 15 to 20)
#    0.000    0.333    7.778    2.667    0.000    0.444 
#    0.000    6.667    0.000    2.000    0.000    1.556 
#    0.000    0.000    0.000    0.000    0.000    0.000 
#
# Total GULP energy -201242.016533 kJ/mol
# GULP energy per Si atom -5590.056015 kJ/mol
# Density = 1.777894 g / cm^3
# Si number density = 17.819494 Si / 1000 Ang^3
#
#
#
# Elastic Constant Matrix: (Units=GPa)
#
#
# Indices 1 2 3 4 5 6 
#
# 1 128.8218 30.8998 49.6114 0.0000 0.0000 0.0000
# 2 30.8998 139.6710 60.6917 0.0000 0.0000 0.0000
# 3 49.6114 60.6917 160.9815 0.0000 0.0000 0.0000
# 4 0.0000 0.0000 0.0000 10.0864 0.0000 0.0000
# 5 0.0000 0.0000 0.0000 0.0000 13.3276 0.0000
# 6 0.0000 0.0000 0.0000 0.0000 0.0000 15.7478
#
#
#
# Elastic Compliance Matrix: (Units=1/GPa)
#
#
# Indices 1 2 3 4 5 6 
#
# 1 0.008908 -0.000930 -0.002395 0.000000 0.000000 0.000000
# 2 -0.000930 0.008660 -0.002978 0.000000 0.000000 0.000000
# 3 -0.002395 -0.002978 0.008073 0.000000 0.000000 0.000000
# 4 0.000000 0.000000 0.000000 0.099144 0.000000 0.000000
# 5 0.000000 0.000000 0.000000 0.000000 0.075032 0.000000
# 6 0.000000 0.000000 0.000000 0.000000 0.000000 0.063501
#
#
# Mechanical properties :
#
#
# Convention : Reuss Voigt Hill
#
# Bulk Modulus (GPa) = 76.71982 79.09778 77.90880
# Shear Modulus (GPa) = 17.84009 27.05044 22.44527
#
# Velocity S-wave (km/s) = 3.16754 3.90041 3.55292
# Velocity P-wave (km/s) = 7.51832 8.04792 7.78762
#
# Compressibility (1/GPa) = 0.01303444
#
# Stress axis : x y z
#
# Youngs Moduli (GPa) = 112.25892 115.47952 123.87560
#
# Poissons Ratio (x) = 0.10742 0.29663
# Poissons Ratio (y) = 0.10443 0.36891
# Poissons Ratio (z) = 0.26881 0.34390
#
# Static dielectric constant tensor:
#      x y z
#    x 1.601230 0.000000 0.000000 
#    y 0.000000 1.588540 0.000000 
#    z 0.000000 0.000000 1.611060 
# 
# From -- ./inp_files/46608.got.cif
#   From: 2010.05.17/outbox.cif.g08.bks.cpg/sg65_24_cif.got.tgz:46608.got - 2010.06.03 17:01:31.
