data_PCOD9493330
_publ_section_title
;
Structure prediction by ZEFSAII (Michael W. Deem and Ramdas Pophale) SiO2 
 PCOD9493330
Probable space group: C M M M
;
_chemical_formula_sum "Si O2"
_cell_formula_units_Z 96
_cell_length_a 15.697918
_cell_length_b 23.235891
_cell_length_c 14.783877
_cell_angle_alpha 90.000000
_cell_angle_beta 90.000000
_cell_angle_gamma 90.000000
_cell_volume 5392.494705
_symmetry_space_group_name_H-M "C M M M"
_symmetry_group_IT_number 65
_symmetry_cell_setting 'orthorhombic'
loop_
_space_group_symop_operation_xyz
x,y,z
-x,-y,z
x,-y,-z
-x,y,-z
-x,-y,-z
x,y,-z
-x,y,z
x,-y,z
1/2+x,1/2+y,z
1/2-x,1/2-y,z
1/2+x,1/2-y,-z
1/2-x,1/2+y,-z
1/2-x,1/2-y,-z
1/2+x,1/2+y,-z
1/2-x,1/2+y,z
1/2+x,1/2-y,z
loop_
_atom_site_type_symbol
_atom_site_label
_atom_site_fract_x
_atom_site_fract_y
_atom_site_fract_z
Si Si1 0.399470 0.242932 0.206733
Si Si2 0.667975 0.136096 0.892211
Si Si3 0.841064 0.875629 0.207818
Si Si4 0.500000 0.431191 0.894444
Si Si5 0.000000 0.434582 0.109714
Si Si6 0.147523 0.744739 0.401648
Si Si7 0.599818 0.378548 0.400039
O O1 0.500000 0.246515 0.188055
O O2 0.353210 0.201373 0.136593
O O3 0.360572 0.306960 0.206195
O O4 0.385208 0.218112 0.308380
O O5 0.751130 0.115187 0.839488
O O6 0.585059 0.099431 0.864682
O O7 0.680452 0.131754 0.000000
O O8 0.847010 0.895999 0.312141
O O9 0.916763 0.905880 0.153543
O O10 0.500000 0.500000 0.887399
O O11 0.500000 0.415025 0.000000
O O12 0.000000 0.500000 0.142470
O O13 0.000000 0.435828 0.000000
O O14 0.127515 0.717856 0.500000
O O15 0.250000 0.750000 0.395502
O O16 0.108821 0.809106 0.403315
O O17 0.625381 0.399973 0.500000
O O18 0.500000 0.392280 0.385552
#
# Coordination Sequence:
#
# PCOD9493330 Si02
#       7
#    16  16  16   8   8  16  16
#     4  11  20  33  52  78 112 146 179 220 269 327
#     4  11  23  37  55  81 110 142 183 229 272 321
#     4  11  20  37  56  81 113 151 180 216 275 333
#     4  11  24  39  54  78 111 145 187 231 269 323
#     4   9  20  41  63  79  97 129 182 240 282 314
#     4   9  16  26  42  69 105 141 175 214 261 318
#     4   9  16  29  51  76 104 141 180 215 260 318
#
# _framework density 17.802520999999999
#
# number of rings (size 3 to 8) (size 9 to 14) (size 15 to 20)
#    0.000    1.833    2.500    4.500    0.000    3.667 
#    0.000    1.667    0.000    1.000    0.000    0.000 
#    0.000    4.667    0.000    0.000    0.000    0.000 
#
# Total GULP energy -267724.597431 kJ/mol
# GULP energy per Si atom -5577.595780 kJ/mol
# Density = 1.776200 g / cm^3
# Si number density = 17.802521 Si / 1000 Ang^3
#
#
#
# Elastic Constant Matrix: (Units=GPa)
#
#
# Indices 1 2 3 4 5 6 
#
# 1 133.1371 18.4851 66.9451 0.0000 0.0000 0.0000
# 2 18.4851 34.8980 27.1218 0.0000 0.0000 0.0000
# 3 66.9451 27.1218 139.7624 0.0000 0.0000 0.0000
# 4 0.0000 0.0000 0.0000 -8.1849 0.0000 0.0000
# 5 0.0000 0.0000 0.0000 0.0000 -233.0040 0.0000
# 6 0.0000 0.0000 0.0000 0.0000 0.0000 -5.3828
#
#
#
# Elastic Compliance Matrix: (Units=1/GPa)
#
#
# Indices 1 2 3 4 5 6 
#
# 1 0.009995 -0.001853 -0.004428 0.000000 0.000000 0.000000
# 2 -0.001853 0.034088 -0.005727 0.000000 0.000000 0.000000
# 3 -0.004428 -0.005727 0.010387 0.000000 0.000000 0.000000
# 4 0.000000 0.000000 0.000000 -0.122177 0.000000 0.000000
# 5 0.000000 0.000000 0.000000 0.000000 -0.004292 0.000000
# 6 0.000000 0.000000 0.000000 0.000000 0.000000 -0.185777
#
#
# Mechanical properties :
#
#
# Convention : Reuss Voigt Hill
#
# Bulk Modulus (GPa) = 32.83710 59.21131 46.02420
# Shear Modulus (GPa) = -22.36052 -36.29796 -29.32924
#
# Velocity S-wave (km/s) = -3.54790 -4.52034 -4.06332
# Velocity P-wave (km/s) = 1.30453 2.46731 1.97350
#
# Compressibility (1/GPa) = 0.03045336
#
# Stress axis : x y z
#
# Youngs Moduli (GPa) = 100.05240 29.33623 96.27113
#
# Poissons Ratio (x) = 0.05436 0.42627
# Poissons Ratio (y) = 0.18539 0.55138
# Poissons Ratio (z) = 0.44302 0.16802
#
# Static dielectric constant tensor:
#      x y z
#    x 1.602360 0.000000 0.000000 
#    y 0.000000 1.591450 0.000000 
#    z 0.000000 0.000000 1.654680 
# 
# From -- ./inp_files/40670.got.cif
#   From: 2010.05.17/outbox.cif.g08.bks.cpg/sg65_21_cif.got.tgz:40670.got - 2010.06.03 17:01:31.
