data_PCOD9493838
_publ_section_title
;
Structure prediction by ZEFSAII (Michael W. Deem and Ramdas Pophale) SiO2 
 PCOD9493838
Probable space group: C M M M
;
_chemical_formula_sum "Si O2"
_cell_formula_units_Z 96
_cell_length_a 11.931263
_cell_length_b 17.604398
_cell_length_c 25.800077
_cell_angle_alpha 90.000000
_cell_angle_beta 90.000000
_cell_angle_gamma 90.000000
_cell_volume 5419.117898
_symmetry_space_group_name_H-M "C M M M"
_symmetry_group_IT_number 65
_symmetry_cell_setting 'orthorhombic'
loop_
_space_group_symop_operation_xyz
x,y,z
-x,-y,z
x,-y,-z
-x,y,-z
-x,-y,-z
x,y,-z
-x,y,z
x,-y,z
1/2+x,1/2+y,z
1/2-x,1/2-y,z
1/2+x,1/2-y,-z
1/2-x,1/2+y,-z
1/2-x,1/2-y,-z
1/2+x,1/2+y,-z
1/2-x,1/2+y,z
1/2+x,1/2-y,z
loop_
_atom_site_type_symbol
_atom_site_label
_atom_site_fract_x
_atom_site_fract_y
_atom_site_fract_z
Si Si1 0.000000 0.588385 0.169657
Si Si2 0.870799 0.090841 0.747412
Si Si3 0.239206 0.660133 0.844783
Si Si4 0.773708 0.339403 0.340285
Si Si5 0.500000 0.089223 0.294272
Si Si6 0.366504 0.590461 0.058680
Si Si7 0.868103 0.590939 0.439802
O O1 0.888088 0.631126 0.152201
O O2 0.000000 0.500000 0.152833
O O3 0.000000 0.588614 0.232226
O O4 0.796830 0.123002 0.794312
O O5 0.822424 0.119663 0.692928
O O6 0.000000 0.114136 0.754184
O O7 0.864137 0.000000 0.748927
O O8 0.250000 0.750000 0.839212
O O9 0.302885 0.633549 0.896294
O O10 0.750000 0.250000 0.337252
O O11 0.889897 0.367288 0.313936
O O12 0.789010 0.366599 0.399353
O O13 0.500000 0.000000 0.311651
O O14 0.500000 0.602486 0.063578
O O15 0.347136 0.500000 0.064287
O O16 0.333445 0.612300 0.000000
O O17 0.845395 0.608764 0.500000
O O18 0.856412 0.500000 0.433182
O O19 0.000000 0.608974 0.429740
#
# Coordination Sequence:
#
# PCOD9493838 Si02
#       7
#     8  16  16  16   8  16  16
#     4  11  24  40  61  89 123 164 204 239 297 372
#     4  11  24  40  60  85 118 159 201 242 290 359
#     4  12  25  37  61  89 126 157 193 253 306 351
#     4  12  24  35  60  88 124 154 193 251 305 347
#     4  11  22  40  63  83 115 166 208 237 287 366
#     4   9  19  39  66  88 112 155 205 244 287 356
#     4   9  18  35  61  88 113 150 203 250 289 350
#
# _framework density 17.715060999999999
#
# number of rings (size 3 to 8) (size 9 to 14) (size 15 to 20)
#    0.000    1.333    2.500    5.000    3.500    2.000 
#    0.000    0.417    0.000    2.000    0.000    2.333 
#    0.000    0.000    0.000    0.000    0.000    0.000 
#
# Total GULP energy -268174.676159 kJ/mol
# GULP energy per Si atom -5586.972420 kJ/mol
# Density = 1.767474 g / cm^3
# Si number density = 17.715061 Si / 1000 Ang^3
#
#
#
# Elastic Constant Matrix: (Units=GPa)
#
#
# Indices 1 2 3 4 5 6 
#
# 1 97.4743 58.4328 39.6712 0.0000 0.0000 0.0000
# 2 58.4328 96.9952 42.1121 0.0000 0.0000 0.0000
# 3 39.6712 42.1121 102.8246 0.0000 0.0000 0.0000
# 4 0.0000 0.0000 0.0000 -98.4974 0.0000 0.0000
# 5 0.0000 0.0000 0.0000 0.0000 32.8320 0.0000
# 6 0.0000 0.0000 0.0000 0.0000 0.0000 20.2894
#
#
#
# Elastic Compliance Matrix: (Units=1/GPa)
#
#
# Indices 1 2 3 4 5 6 
#
# 1 0.016708 -0.008838 -0.002826 0.000000 0.000000 0.000000
# 2 -0.008838 0.017215 -0.003640 0.000000 0.000000 0.000000
# 3 -0.002826 -0.003640 0.012307 0.000000 0.000000 0.000000
# 4 0.000000 0.000000 0.000000 -0.010153 0.000000 0.000000
# 5 0.000000 0.000000 0.000000 0.000000 0.030458 0.000000
# 6 0.000000 0.000000 0.000000 0.000000 0.000000 0.049287
#
#
# Mechanical properties :
#
#
# Convention : Reuss Voigt Hill
#
# Bulk Modulus (GPa) = 64.02381 64.19181 64.10781
# Shear Modulus (GPa) = 32.97341 1.39666 17.18504
#
# Velocity S-wave (km/s) = 4.31898 0.88888 3.11799
# Velocity P-wave (km/s) = 7.81606 6.11293 7.01636
#
# Compressibility (1/GPa) = 0.01561919
#
# Stress axis : x y z
#
# Youngs Moduli (GPa) = 59.85319 58.09003 81.25645
#
# Poissons Ratio (x) = 0.51340 0.22966
# Poissons Ratio (y) = 0.52898 0.29581
# Poissons Ratio (z) = 0.16917 0.21148
#
# Static dielectric constant tensor:
#      x y z
#    x 1.595450 0.000000 0.000000 
#    y 0.000000 1.571030 0.000000 
#    z 0.000000 0.000000 1.606330 
# 
# From -- ./inp_files/69057.got.cif
#   From: 2010.05.17/outbox.cif.g08.bks.cpg/sg65_35_cif.got.tgz:69057.got - 2010.06.03 17:01:31.
