data_PCOD9493509
_publ_section_title
;
Structure prediction by ZEFSAII (Michael W. Deem and Ramdas Pophale) SiO2 
 PCOD9493509
Probable space group: C M M M
;
_chemical_formula_sum "Si O2"
_cell_formula_units_Z 88
_cell_length_a 22.409558
_cell_length_b 23.546404
_cell_length_c 8.432900
_cell_angle_alpha 90.000000
_cell_angle_beta 90.000000
_cell_angle_gamma 90.000000
_cell_volume 4449.742014
_symmetry_space_group_name_H-M "C M M M"
_symmetry_group_IT_number 65
_symmetry_cell_setting 'orthorhombic'
loop_
_space_group_symop_operation_xyz
x,y,z
-x,-y,z
x,-y,-z
-x,y,-z
-x,-y,-z
x,y,-z
-x,y,z
x,-y,z
1/2+x,1/2+y,z
1/2-x,1/2-y,z
1/2+x,1/2-y,-z
1/2-x,1/2+y,-z
1/2-x,1/2-y,-z
1/2+x,1/2+y,-z
1/2-x,1/2+y,z
1/2+x,1/2-y,z
loop_
_atom_site_type_symbol
_atom_site_label
_atom_site_fract_x
_atom_site_fract_y
_atom_site_fract_z
Si Si1 0.500000 0.565932 0.189276
Si Si2 0.071235 0.564221 0.184874
Si Si3 0.743406 0.437314 0.306803
Si Si4 0.316666 0.266686 0.813886
Si Si5 0.122806 0.881096 0.310827
Si Si6 0.657925 0.848621 0.684488
O O1 0.500000 0.500000 0.249203
O O2 0.440460 0.599399 0.242229
O O3 0.500000 0.563588 0.000000
O O4 0.088601 0.500000 0.228874
O O5 0.102766 0.609461 0.294427
O O6 0.000000 0.567933 0.194105
O O7 0.088023 0.573405 0.000000
O O8 0.746540 0.437082 0.500000
O O9 0.761870 0.500000 0.252057
O O10 0.675531 0.424268 0.260916
O O11 0.785910 0.385975 0.254314
O O12 0.250000 0.250000 0.751636
O O13 0.350934 0.319378 0.736078
O O14 0.351438 0.208375 0.782334
O O15 0.310993 0.279056 0.000000
O O16 0.117917 0.882948 0.500000
O O17 0.667578 0.834262 0.500000
#
# Coordination Sequence:
#
# PCOD9493509 Si02
#       6
#     8  16  16  16  16  16
#     4  11  25  45  67  95 133 171 210 259 318 383
#     4   9  19  37  58  81 115 157 197 239 293 355
#     4   9  18  32  54  87 122 152 187 241 305 361
#     4  11  23  40  62  87 122 161 199 245 306 372
#     4  11  22  40  66  92 123 162 210 260 309 367
#     4  11  21  35  58  87 120 154 198 250 300 358
#
# _framework density 19.776427000000002
#
# number of rings (size 3 to 8) (size 9 to 14) (size 15 to 20)
#    0.000    1.727    1.818    3.545    0.000    3.636 
#    1.636    0.909    0.000    4.364    0.000    0.000 
#    0.000    0.000    0.000    0.000    0.000    0.000 
#
# Total GULP energy -245646.483796 kJ/mol
# GULP energy per Si atom -5582.874632 kJ/mol
# Density = 1.973142 g / cm^3
# Si number density = 19.776427 Si / 1000 Ang^3
#
#
#
# Elastic Constant Matrix: (Units=GPa)
#
#
# Indices 1 2 3 4 5 6 
#
# 1 93.3252 44.9357 22.0792 0.0000 0.0000 0.0000
# 2 44.9357 113.8935 16.2559 0.0000 0.0000 0.0000
# 3 22.0792 16.2559 31.8675 0.0000 0.0000 0.0000
# 4 0.0000 0.0000 0.0000 21.9822 0.0000 0.0000
# 5 0.0000 0.0000 0.0000 0.0000 23.0533 0.0000
# 6 0.0000 0.0000 0.0000 0.0000 0.0000 13.6449
#
#
#
# Elastic Compliance Matrix: (Units=1/GPa)
#
#
# Indices 1 2 3 4 5 6 
#
# 1 0.014861 -0.004739 -0.007879 0.000000 0.000000 0.000000
# 2 -0.004739 0.010981 -0.002318 0.000000 0.000000 0.000000
# 3 -0.007879 -0.002318 0.038021 0.000000 0.000000 0.000000
# 4 0.000000 0.000000 0.000000 0.045491 0.000000 0.000000
# 5 0.000000 0.000000 0.000000 0.000000 0.043378 0.000000
# 6 0.000000 0.000000 0.000000 0.000000 0.000000 0.073287
#
#
# Mechanical properties :
#
#
# Convention : Reuss Voigt Hill
#
# Bulk Modulus (GPa) = 29.41939 45.06974 37.24457
# Shear Modulus (GPa) = 18.71108 22.12379 20.41743
#
# Velocity S-wave (km/s) = 3.07926 3.34832 3.21660
# Velocity P-wave (km/s) = 5.24888 6.14715 5.71569
#
# Compressibility (1/GPa) = 0.03399119
#
# Stress axis : x y z
#
# Youngs Moduli (GPa) = 67.29060 91.06965 26.30097
#
# Poissons Ratio (x) = 0.43155 0.20723
# Poissons Ratio (y) = 0.31887 0.06097
# Poissons Ratio (z) = 0.53019 0.21111
#
# Static dielectric constant tensor:
#      x y z
#    x 1.709420 0.000000 0.000000 
#    y 0.000000 1.693090 0.000000 
#    z 0.000000 0.000000 1.697500 
# 
# From -- ./inp_files/11729.got.cif
#   From: 2010.05.17/outbox.cif.g08.bks.cpg/sg65_6_cif.got.tgz:11729.got - 2010.06.03 17:01:31.
