data_PCOD9493293
_publ_section_title
;
Structure prediction by ZEFSAII (Michael W. Deem and Ramdas Pophale) SiO2 
 PCOD9493293
Probable space group: C M M M
;
_chemical_formula_sum "Si O2"
_cell_formula_units_Z 72
_cell_length_a 26.057535
_cell_length_b 11.669219
_cell_length_c 12.710896
_cell_angle_alpha 90.000000
_cell_angle_beta 90.000000
_cell_angle_gamma 90.000000
_cell_volume 3865.015906
_symmetry_space_group_name_H-M "C M M M"
_symmetry_group_IT_number 65
_symmetry_cell_setting 'orthorhombic'
loop_
_space_group_symop_operation_xyz
x,y,z
-x,-y,z
x,-y,-z
-x,y,-z
-x,-y,-z
x,y,-z
-x,y,z
x,-y,z
1/2+x,1/2+y,z
1/2-x,1/2-y,z
1/2+x,1/2-y,-z
1/2-x,1/2+y,-z
1/2-x,1/2-y,-z
1/2+x,1/2+y,-z
1/2-x,1/2+y,z
1/2+x,1/2-y,z
loop_
_atom_site_type_symbol
_atom_site_label
_atom_site_fract_x
_atom_site_fract_y
_atom_site_fract_z
Si Si1 0.374277 0.300840 0.730925
Si Si2 0.196153 0.373060 0.618061
Si Si3 0.731395 0.628035 0.178438
Si Si4 0.060669 0.000000 0.374227
Si Si5 0.060861 0.632957 0.124101
O O1 0.344750 0.223567 0.645261
O O2 0.328866 0.360330 0.797875
O O3 0.411412 0.390808 0.676215
O O4 0.405881 0.216971 0.806172
O O5 0.217021 0.360219 0.500000
O O6 0.172048 0.500000 0.623947
O O7 0.239068 0.371295 0.708796
O O8 0.742072 0.500000 0.132209
O O9 0.750000 0.750000 0.127915
O O10 0.067282 0.000000 0.500000
O O11 0.000000 0.000000 0.351166
O O12 0.073448 0.500000 0.146386
O O13 0.000000 0.648509 0.142930
O O14 0.069933 0.652380 0.000000
#
# Coordination Sequence:
#
# PCOD9493293 Si02
#       5
#    16  16  16   8  16
#     4  11  19  33  54  76 107 145 183 224 284 333
#     4   9  18  31  50  79 110 141 184 233 278 333
#     4   9  18  31  48  75 107 144 182 227 273 331
#     4  11  24  36  47  71 111 157 198 226 260 327
#     4   9  19  37  61  86 107 132 177 238 299 353
#
# _framework density 18.628641999999999
#
# number of rings (size 3 to 8) (size 9 to 14) (size 15 to 20)
#    0.000    2.333    1.111    2.667    0.000    5.778 
#    0.000    0.556    0.000    8.000    0.000   15.556 
#    0.000    0.000    0.000    0.000    0.000    0.000 
#
# Total GULP energy -200716.152360 kJ/mol
# GULP energy per Si atom -5575.448677 kJ/mol
# Density = 1.858624 g / cm^3
# Si number density = 18.628642 Si / 1000 Ang^3
#
#
#
# Elastic Constant Matrix: (Units=GPa)
#
#
# Indices 1 2 3 4 5 6 
#
# 1 104.3731 62.5875 39.8119 0.0000 0.0000 0.0000
# 2 62.5875 153.3805 35.6187 0.0000 0.0000 0.0000
# 3 39.8119 35.6187 57.2004 0.0000 0.0000 0.0000
# 4 0.0000 0.0000 0.0000 7.1105 0.0000 0.0000
# 5 0.0000 0.0000 0.0000 0.0000 1.0199 0.0000
# 6 0.0000 0.0000 0.0000 0.0000 0.0000 43.8369
#
#
#
# Elastic Compliance Matrix: (Units=1/GPa)
#
#
# Indices 1 2 3 4 5 6 
#
# 1 0.015203 -0.004380 -0.007854 0.000000 0.000000 0.000000
# 2 -0.004380 0.008884 -0.002483 0.000000 0.000000 0.000000
# 3 -0.007854 -0.002483 0.024496 0.000000 0.000000 0.000000
# 4 0.000000 0.000000 0.000000 0.140638 0.000000 0.000000
# 5 0.000000 0.000000 0.000000 0.000000 0.980483 0.000000
# 6 0.000000 0.000000 0.000000 0.000000 0.000000 0.022812
#
#
# Mechanical properties :
#
#
# Convention : Reuss Voigt Hill
#
# Bulk Modulus (GPa) = 52.22670 65.66558 58.94614
# Shear Modulus (GPa) = 4.07056 22.18918 13.12987
#
# Velocity S-wave (km/s) = 1.47981 3.45502 2.65773
# Velocity P-wave (km/s) = 5.56923 7.15839 6.41323
#
# Compressibility (1/GPa) = 0.01914729
#
# Stress axis : x y z
#
# Youngs Moduli (GPa) = 65.77522 112.56633 40.82379
#
# Poissons Ratio (x) = 0.49302 0.32064
# Poissons Ratio (y) = 0.28808 0.10139
# Poissons Ratio (z) = 0.51662 0.27956
#
# Static dielectric constant tensor:
#      x y z
#    x 1.617100 0.000000 0.000000 
#    y 0.000000 1.691660 0.000000 
#    z 0.000000 0.000000 1.619020 
# 
# From -- ./inp_files/45260.got.cif
#   From: 2010.05.17/outbox.cif.g08.bks.cpg/sg65_23_cif.got.tgz:45260.got - 2010.06.03 17:01:31.
