data_PCOD9493925
_publ_section_title
;
Structure prediction by ZEFSAII (Michael W. Deem and Ramdas Pophale) SiO2 
 PCOD9493925
Probable space group: C M M M
;
_chemical_formula_sum "Si O2"
_cell_formula_units_Z 64
_cell_length_a 17.273267
_cell_length_b 14.452550
_cell_length_c 15.926847
_cell_angle_alpha 90.000000
_cell_angle_beta 90.000000
_cell_angle_gamma 90.000000
_cell_volume 3976.021963
_symmetry_space_group_name_H-M "C M M M"
_symmetry_group_IT_number 65
_symmetry_cell_setting 'orthorhombic'
loop_
_space_group_symop_operation_xyz
x,y,z
-x,-y,z
x,-y,-z
-x,y,-z
-x,-y,-z
x,y,-z
-x,y,z
x,-y,z
1/2+x,1/2+y,z
1/2-x,1/2-y,z
1/2+x,1/2-y,-z
1/2-x,1/2+y,-z
1/2-x,1/2-y,-z
1/2+x,1/2+y,-z
1/2-x,1/2+y,z
1/2+x,1/2-y,z
loop_
_atom_site_type_symbol
_atom_site_label
_atom_site_fract_x
_atom_site_fract_y
_atom_site_fract_z
Si Si1 0.907392 0.888784 0.500000
Si Si2 0.092626 0.397439 0.404203
Si Si3 0.092320 0.888177 0.814714
Si Si4 0.093824 0.893089 0.000000
Si Si5 0.161572 0.781883 0.340216
O O1 0.867822 0.843762 0.581608
O O2 0.000000 0.867373 0.500000
O O3 0.899197 0.000000 0.500000
O O4 0.120009 0.377999 0.500000
O O5 0.121167 0.500000 0.380518
O O6 0.115996 0.314797 0.344744
O O7 0.000000 0.400951 0.407518
O O8 0.141079 0.837914 0.743420
O O9 0.000000 0.870584 0.802243
O O10 0.101483 0.000000 0.810652
O O11 0.115501 0.854940 0.908662
O O12 0.000000 0.894361 0.000000
O O13 0.119481 0.000000 0.000000
O O14 0.250000 0.750000 0.347922
#
# Coordination Sequence:
#
# PCOD9493925 Si02
#       5
#     8  16  16   8  16
#     4  11  23  38  55  73  97 131 170 211 256 302
#     4   9  18  33  51  65  83 123 174 214 238 265
#     4   9  17  32  55  79 103 130 163 205 251 300
#     4   7  12  26  51  80 101 123 161 205 246 291
#     4  12  23  33  46  75 105 135 162 198 252 304
#
# _framework density 16.096489999999999
#
# number of rings (size 3 to 8) (size 9 to 14) (size 15 to 20)
#    0.000    2.250    1.250    5.625    0.000    4.000 
#    0.000    0.625    0.000    0.000    0.000    0.875 
#    0.000    5.000    0.000    0.000    0.000    0.750 
#
# Total GULP energy -178263.955645 kJ/mol
# GULP energy per Si atom -5570.748614 kJ/mol
# Density = 1.605985 g / cm^3
# Si number density = 16.096490 Si / 1000 Ang^3
#
#
#
# Elastic Constant Matrix: (Units=GPa)
#
#
# Indices 1 2 3 4 5 6 
#
# 1 71.2370 35.1782 51.2861 0.0000 0.0000 0.0000
# 2 35.1782 76.6901 48.8076 0.0000 0.0000 0.0000
# 3 51.2861 48.8076 143.3175 0.0000 0.0000 0.0000
# 4 0.0000 0.0000 0.0000 10.2922 0.0000 0.0000
# 5 0.0000 0.0000 0.0000 0.0000 13.2558 0.0000
# 6 0.0000 0.0000 0.0000 0.0000 0.0000 -30.9876
#
#
#
# Elastic Compliance Matrix: (Units=1/GPa)
#
#
# Indices 1 2 3 4 5 6 
#
# 1 0.020981 -0.006187 -0.005401 0.000000 0.000000 0.000000
# 2 -0.006187 0.018472 -0.004077 0.000000 0.000000 0.000000
# 3 -0.005401 -0.004077 0.010299 0.000000 0.000000 0.000000
# 4 0.000000 0.000000 0.000000 0.097161 0.000000 0.000000
# 5 0.000000 0.000000 0.000000 0.000000 0.075439 0.000000
# 6 0.000000 0.000000 0.000000 0.000000 0.000000 -0.032271
#
#
# Mechanical properties :
#
#
# Convention : Reuss Voigt Hill
#
# Bulk Modulus (GPa) = 54.28164 62.42094 58.35129
# Shear Modulus (GPa) = 21.97311 8.91026 15.44168
#
# Velocity S-wave (km/s) = 3.69872 2.35532 3.10065
# Velocity P-wave (km/s) = 7.21364 6.80148 7.01059
#
# Compressibility (1/GPa) = 0.01842243
#
# Stress axis : x y z
#
# Youngs Moduli (GPa) = 47.66142 54.13603 97.09936
#
# Poissons Ratio (x) = 0.33493 0.52446
# Poissons Ratio (y) = 0.29487 0.39586
# Poissons Ratio (z) = 0.25743 0.22070
#
# Static dielectric constant tensor:
#      x y z
#    x 1.512470 0.000000 0.000000 
#    y 0.000000 1.546700 0.000000 
#    z 0.000000 0.000000 1.562200 
# 
# From -- ./inp_files/42051.got.cif
#   From: 2010.05.17/outbox.cif.g08.bks.cpg/sg65_22_cif.got.tgz:42051.got - 2010.06.03 17:01:31.
