data_PCOD9493645
_publ_section_title
;
Structure prediction by ZEFSAII (Michael W. Deem and Ramdas Pophale) SiO2 
 PCOD9493645
Probable space group: C M M M
;
_chemical_formula_sum "Si O2"
_cell_formula_units_Z 120
_cell_length_a 21.445393
_cell_length_b 23.300232
_cell_length_c 13.784166
_cell_angle_alpha 90.000000
_cell_angle_beta 90.000000
_cell_angle_gamma 90.000000
_cell_volume 6887.708350
_symmetry_space_group_name_H-M "C M M M"
_symmetry_group_IT_number 65
_symmetry_cell_setting 'orthorhombic'
loop_
_space_group_symop_operation_xyz
x,y,z
-x,-y,z
x,-y,-z
-x,y,-z
-x,-y,-z
x,y,-z
-x,y,z
x,-y,z
1/2+x,1/2+y,z
1/2-x,1/2-y,z
1/2+x,1/2-y,-z
1/2-x,1/2+y,-z
1/2-x,1/2-y,-z
1/2+x,1/2+y,-z
1/2-x,1/2+y,z
1/2+x,1/2-y,z
loop_
_atom_site_type_symbol
_atom_site_label
_atom_site_fract_x
_atom_site_fract_y
_atom_site_fract_z
Si Si1 0.822262 0.259681 0.615652
Si Si2 0.854345 0.146935 0.279958
Si Si3 0.250387 0.567867 0.383754
Si Si4 0.426294 0.839290 0.112645
Si Si5 0.373054 0.879861 0.304448
Si Si6 0.500000 0.933333 0.616140
Si Si7 0.926491 0.064478 0.395530
Si Si8 0.427433 0.701856 0.885036
O O1 0.824107 0.262835 0.500000
O O2 0.750000 0.250000 0.645717
O O3 0.856733 0.203843 0.654991
O O4 0.851823 0.317264 0.657893
O O5 0.794794 0.109540 0.318380
O O6 0.909200 0.104776 0.309417
O O7 0.872804 0.168880 0.173026
O O8 0.252863 0.582902 0.500000
O O9 0.265002 0.500000 0.375452
O O10 0.181228 0.578591 0.342498
O O11 0.500000 0.852213 0.127824
O O12 0.384430 0.873268 0.189381
O O13 0.419275 0.770628 0.128926
O O14 0.411637 0.851018 0.000000
O O15 0.438398 0.900864 0.347885
O O16 0.500000 0.933458 0.500000
O O17 0.500000 0.000000 0.649387
O O18 0.901454 0.085656 0.500000
O O19 0.000000 0.061648 0.402601
O O20 0.903109 0.000000 0.382506
O O21 0.500000 0.688724 0.855328
O O22 0.423278 0.690675 0.000000
#
# Coordination Sequence:
#
# PCOD9493645 Si02
#       8
#    16  16  16  16  16   8  16  16
#     4  11  22  35  52  80 120 156 183 231 299 358
#     4  12  20  33  57  81 111 147 194 238 283 349
#     4  11  24  40  59  82 113 159 204 235 278 351
#     4   9  18  36  60  85 113 147 188 236 292 352
#     4  12  21  38  61  85 117 152 197 248 297 353
#     4  11  24  40  59  85 119 161 205 247 293 354
#     4   9  18  32  49  73 107 144 183 227 273 327
#     4   9  19  36  57  84 117 152 192 237 291 356
#
# _framework density 17.422340999999999
#
# number of rings (size 3 to 8) (size 9 to 14) (size 15 to 20)
#    0.000    1.533    3.333    4.800    0.000    2.133 
#    1.200    0.667    0.000    6.800    0.000    4.667 
#    0.000    0.000    0.000    0.000    0.000    0.000 
#
# Total GULP energy -334295.365500 kJ/mol
# GULP energy per Si atom -5571.589425 kJ/mol
# Density = 1.738269 g / cm^3
# Si number density = 17.422341 Si / 1000 Ang^3
#
#
#
# Elastic Constant Matrix: (Units=GPa)
#
#
# Indices 1 2 3 4 5 6 
#
# 1 109.8032 36.4019 45.4853 0.0000 0.0000 0.0000
# 2 36.4019 63.0654 24.9417 0.0000 0.0000 0.0000
# 3 45.4853 24.9417 89.1313 0.0000 0.0000 0.0000
# 4 0.0000 0.0000 0.0000 19.3161 0.0000 0.0000
# 5 0.0000 0.0000 0.0000 0.0000 25.8082 0.0000
# 6 0.0000 0.0000 0.0000 0.0000 0.0000 30.9260
#
#
#
# Elastic Compliance Matrix: (Units=1/GPa)
#
#
# Indices 1 2 3 4 5 6 
#
# 1 0.013055 -0.005510 -0.005120 0.000000 0.000000 0.000000
# 2 -0.005510 0.020156 -0.002828 0.000000 0.000000 0.000000
# 3 -0.005120 -0.002828 0.014624 0.000000 0.000000 0.000000
# 4 0.000000 0.000000 0.000000 0.051770 0.000000 0.000000
# 5 0.000000 0.000000 0.000000 0.000000 0.038747 0.000000
# 6 0.000000 0.000000 0.000000 0.000000 0.000000 0.032335
#
#
# Mechanical properties :
#
#
# Convention : Reuss Voigt Hill
#
# Bulk Modulus (GPa) = 47.80825 52.85086 50.32955
# Shear Modulus (GPa) = 24.44062 25.55478 24.99770
#
# Velocity S-wave (km/s) = 3.74950 3.83401 3.79199
# Velocity P-wave (km/s) = 6.80040 7.07110 6.93707
#
# Compressibility (1/GPa) = 0.02091689
#
# Stress axis : x y z
#
# Youngs Moduli (GPa) = 76.59874 49.61366 68.38201
#
# Poissons Ratio (x) = 0.27340 0.35013
# Poissons Ratio (y) = 0.42210 0.19339
# Poissons Ratio (z) = 0.39220 0.14031
#
# Static dielectric constant tensor:
#      x y z
#    x 1.639890 0.000000 0.000000 
#    y 0.000000 1.606490 0.000000 
#    z 0.000000 0.000000 1.601790 
# 
# From -- ./inp_files/44798.got.cif
#   From: 2010.05.17/outbox.cif.g08.bks.cpg/sg65_23_cif.got.tgz:44798.got - 2010.06.03 17:01:31.
