data_PCOD9493553
_publ_section_title
;
Structure prediction by ZEFSAII (Michael W. Deem and Ramdas Pophale) SiO2 
 PCOD9493553
Probable space group: C M M M
;
_chemical_formula_sum "Si O2"
_cell_formula_units_Z 112
_cell_length_a 13.773775
_cell_length_b 15.423680
_cell_length_c 26.187207
_cell_angle_alpha 90.000000
_cell_angle_beta 90.000000
_cell_angle_gamma 90.000000
_cell_volume 5563.270433
_symmetry_space_group_name_H-M "C M M M"
_symmetry_group_IT_number 65
_symmetry_cell_setting 'orthorhombic'
loop_
_space_group_symop_operation_xyz
x,y,z
-x,-y,z
x,-y,-z
-x,y,-z
-x,-y,-z
x,y,-z
-x,y,z
x,-y,z
1/2+x,1/2+y,z
1/2-x,1/2-y,z
1/2+x,1/2-y,-z
1/2-x,1/2+y,-z
1/2-x,1/2-y,-z
1/2+x,1/2+y,-z
1/2-x,1/2+y,z
1/2+x,1/2-y,z
loop_
_atom_site_type_symbol
_atom_site_label
_atom_site_fract_x
_atom_site_fract_y
_atom_site_fract_z
Si Si1 0.603870 0.398586 0.338437
Si Si2 0.883421 0.000000 0.937996
Si Si3 0.689461 0.606422 0.555517
Si Si4 0.294728 0.157386 0.701116
Si Si5 0.763735 0.646875 0.098191
Si Si6 0.892927 0.604569 0.597204
Si Si7 0.388196 0.898595 0.196953
Si Si8 0.389863 0.895782 0.000000
O O1 0.500000 0.361842 0.320965
O O2 0.592205 0.500000 0.347730
O O3 0.633637 0.361658 0.394055
O O4 0.694064 0.395137 0.300098
O O5 0.829359 0.085224 0.914446
O O6 0.000000 0.000000 0.928950
O O7 0.868290 0.000000 0.000000
O O8 0.652596 0.633562 0.500000
O O9 0.687563 0.500000 0.556307
O O10 0.801734 0.633315 0.563285
O O11 0.250000 0.250000 0.688770
O O12 0.363837 0.126410 0.655499
O O13 0.348940 0.153705 0.754551
O O14 0.750000 0.750000 0.103817
O O15 0.818981 0.614430 0.148616
O O16 0.833931 0.634023 0.049966
O O17 0.895541 0.500000 0.593180
O O18 0.000000 0.637970 0.584403
O O19 0.500000 0.875904 0.184623
O O20 0.386253 0.000000 0.211673
O O21 0.500000 0.863779 0.000000
O O22 0.390906 0.000000 0.000000
#
# Coordination Sequence:
#
# PCOD9493553 Si02
#       8
#    16   8  16  16  16  16  16   8
#     4   9  18  33  52  73 101 142 182 220 270 333
#     4  11  24  44  66  94 136 184 222 260 315 378
#     4   8  14  25  44  74 107 133 167 222 279 330
#     4  11  22  36  54  81 109 141 180 233 285 348
#     4  12  23  42  65  96 131 171 215 265 312 374
#     4   9  17  31  52  76 103 137 180 224 279 345
#     4  11  23  41  66  89 116 150 192 248 310 363
#     4  11  21  38  66  97 130 168 214 268 320 362
#
# _framework density 20.132042999999999
#
# number of rings (size 3 to 8) (size 9 to 14) (size 15 to 20)
#    0.000    1.857    2.143    3.643    0.000    5.143 
#    0.000    3.571    0.000    6.857    0.000    8.000 
#    0.000    0.000    0.000    0.000    0.000    0.000 
#
# Total GULP energy -312297.843163 kJ/mol
# GULP energy per Si atom -5576.747199 kJ/mol
# Density = 2.008622 g / cm^3
# Si number density = 20.132043 Si / 1000 Ang^3
#
#
#
# Elastic Constant Matrix: (Units=GPa)
#
#
# Indices 1 2 3 4 5 6 
#
# 1 110.7760 21.6512 1.7969 0.0000 0.0000 0.0000
# 2 21.6512 45.9915 -14.1642 0.0000 0.0000 0.0000
# 3 1.7969 -14.1642 47.9507 0.0000 0.0000 0.0000
# 4 0.0000 0.0000 0.0000 -16.2578 0.0000 0.0000
# 5 0.0000 0.0000 0.0000 0.0000 24.3028 0.0000
# 6 0.0000 0.0000 0.0000 0.0000 0.0000 4.8963
#
#
#
# Elastic Compliance Matrix: (Units=1/GPa)
#
#
# Indices 1 2 3 4 5 6 
#
# 1 0.010107 -0.005363 -0.001963 0.000000 0.000000 0.000000
# 2 -0.005363 0.026764 0.008107 0.000000 0.000000 0.000000
# 3 -0.001963 0.008107 0.023323 0.000000 0.000000 0.000000
# 4 0.000000 0.000000 0.000000 -0.061509 0.000000 0.000000
# 5 0.000000 0.000000 0.000000 0.000000 0.041147 0.000000
# 6 0.000000 0.000000 0.000000 0.000000 0.000000 0.204235
#
#
# Mechanical properties :
#
#
# Convention : Reuss Voigt Hill
#
# Bulk Modulus (GPa) = 16.19232 24.80953 20.50092
# Shear Modulus (GPa) = 19.00483 15.61722 17.31103
#
# Velocity S-wave (km/s) = 3.07581 2.78823 2.93554
# Velocity P-wave (km/s) = 4.54694 4.76611 4.65781
#
# Compressibility (1/GPa) = 0.06175768
#
# Stress axis : x y z
#
# Youngs Moduli (GPa) = 98.93943 37.36302 42.87605
#
# Poissons Ratio (x) = 0.20036 0.08416
# Poissons Ratio (y) = 0.53057 -0.34759
# Poissons Ratio (z) = 0.19420 -0.30290
#
# Static dielectric constant tensor:
#      x y z
#    x 1.700720 0.000000 0.000000 
#    y 0.000000 1.689550 0.000000 
#    z 0.000000 0.000000 1.674760 
# 
# From -- ./inp_files/74919.got.cif
#   From: 2010.05.17/outbox.cif.g08.bks.cpg/sg65_38_cif.got.tgz:74919.got - 2010.06.03 17:01:31.
