data_PCOD9493332
_publ_section_title
;
Structure prediction by ZEFSAII (Michael W. Deem and Ramdas Pophale) SiO2 
 PCOD9493332
Probable space group: C M M M
;
_chemical_formula_sum "Si O2"
_cell_formula_units_Z 72
_cell_length_a 21.904833
_cell_length_b 21.007177
_cell_length_c 8.523614
_cell_angle_alpha 90.000000
_cell_angle_beta 90.000000
_cell_angle_gamma 90.000000
_cell_volume 3922.215172
_symmetry_space_group_name_H-M "C M M M"
_symmetry_group_IT_number 65
_symmetry_cell_setting 'orthorhombic'
loop_
_space_group_symop_operation_xyz
x,y,z
-x,-y,z
x,-y,-z
-x,y,-z
-x,-y,-z
x,y,-z
-x,y,z
x,-y,z
1/2+x,1/2+y,z
1/2-x,1/2-y,z
1/2+x,1/2-y,-z
1/2-x,1/2+y,-z
1/2-x,1/2-y,-z
1/2+x,1/2+y,-z
1/2-x,1/2+y,z
1/2+x,1/2-y,z
loop_
_atom_site_type_symbol
_atom_site_label
_atom_site_fract_x
_atom_site_fract_y
_atom_site_fract_z
Si Si1 0.652726 0.500000 0.312513
Si Si2 0.570526 0.241227 0.808807
Si Si3 0.707749 0.000000 0.687432
Si Si4 0.929848 0.113307 0.189437
Si Si5 0.627943 0.884050 0.185510
Si Si6 0.500000 0.075294 0.678634
O O1 0.653912 0.500000 0.500000
O O2 0.722536 0.500000 0.254664
O O3 0.616423 0.438017 0.255372
O O4 0.500000 0.226365 0.759526
O O5 0.583595 0.313847 0.762061
O O6 0.620839 0.189412 0.757685
O O7 0.569597 0.239358 0.000000
O O8 0.673396 0.935585 0.741026
O O9 0.707113 0.000000 0.500000
O O10 0.000000 0.098767 0.235711
O O11 0.927717 0.111150 0.000000
O O12 0.560005 0.907576 0.225399
O O13 0.639123 0.883783 0.000000
O O14 0.500000 0.102171 0.500000
O O15 0.500000 0.000000 0.661802
#
# Coordination Sequence:
#
# PCOD9493332 Si02
#       6
#     8  16   8  16  16   8
#     4  11  24  40  56  75 108 147 182 224 269 320
#     4   8  15  30  53  84 115 136 163 217 277 320
#     4  11  25  41  51  69 108 153 189 226 271 317
#     4   9  18  35  62  89 111 135 167 215 276 331
#     4  11  20  33  56  81 106 141 186 231 265 308
#     4  11  21  31  47  75 114 149 178 219 270 320
#
# _framework density 18.356973
#
# number of rings (size 3 to 8) (size 9 to 14) (size 15 to 20)
#    0.000    2.111    2.222    3.333    0.000    4.000 
#    0.000    3.333    0.000    6.667    0.000    0.000 
#    0.000    0.000    0.000    0.000    0.000    0.000 
#
# Total GULP energy -200655.488310 kJ/mol
# GULP energy per Si atom -5573.763564 kJ/mol
# Density = 1.831519 g / cm^3
# Si number density = 18.356973 Si / 1000 Ang^3
#
#
#
# Elastic Constant Matrix: (Units=GPa)
#
#
# Indices 1 2 3 4 5 6 
#
# 1 131.1921 97.6821 21.2133 0.0000 0.0000 0.0000
# 2 97.6821 164.1642 25.4842 0.0000 0.0000 0.0000
# 3 21.2133 25.4842 20.8387 0.0000 0.0000 0.0000
# 4 0.0000 0.0000 0.0000 -22.7627 0.0000 0.0000
# 5 0.0000 0.0000 0.0000 0.0000 42.5891 0.0000
# 6 0.0000 0.0000 0.0000 0.0000 0.0000 -10.7872
#
#
#
# Elastic Compliance Matrix: (Units=1/GPa)
#
#
# Indices 1 2 3 4 5 6 
#
# 1 0.014104 -0.007608 -0.005054 0.000000 0.000000 0.000000
# 2 -0.007608 0.011623 -0.006469 0.000000 0.000000 0.000000
# 3 -0.005054 -0.006469 0.061044 0.000000 0.000000 0.000000
# 4 0.000000 0.000000 0.000000 -0.043931 0.000000 0.000000
# 5 0.000000 0.000000 0.000000 0.000000 0.023480 0.000000
# 6 0.000000 0.000000 0.000000 0.000000 0.000000 -0.092702
#
#
# Mechanical properties :
#
#
# Convention : Reuss Voigt Hill
#
# Bulk Modulus (GPa) = 20.61477 67.21713 43.91595
# Shear Modulus (GPa) = 178.26595 13.26219 95.76407
#
# Velocity S-wave (km/s) = 9.86517 2.69078 7.23056
# Velocity P-wave (km/s) = 11.87503 6.80808 9.67901
#
# Compressibility (1/GPa) = 0.04850890
#
# Stress axis : x y z
#
# Youngs Moduli (GPa) = 70.90092 86.03986 16.38174
#
# Poissons Ratio (x) = 0.65458 0.08279
# Poissons Ratio (y) = 0.53940 0.10597
# Poissons Ratio (z) = 0.35833 0.55658
#
# Static dielectric constant tensor:
#      x y z
#    x 1.603620 0.000000 0.000000 
#    y 0.000000 1.681080 0.000000 
#    z 0.000000 0.000000 1.641070 
# 
# From -- ./inp_files/11306.got.cif
#   From: 2010.05.17/outbox.cif.g08.bks.cpg/sg65_6_cif.got.tgz:11306.got - 2010.06.03 17:01:31.
