data_PCOD9493404
_publ_section_title
;
Structure prediction by ZEFSAII (Michael W. Deem and Ramdas Pophale) SiO2 
 PCOD9493404
Probable space group: C M M M
;
_chemical_formula_sum "Si O2"
_cell_formula_units_Z 80
_cell_length_a 19.025750
_cell_length_b 15.952967
_cell_length_c 14.198108
_cell_angle_alpha 90.000000
_cell_angle_beta 90.000000
_cell_angle_gamma 90.000000
_cell_volume 4309.369445
_symmetry_space_group_name_H-M "C M M M"
_symmetry_group_IT_number 65
_symmetry_cell_setting 'orthorhombic'
loop_
_space_group_symop_operation_xyz
x,y,z
-x,-y,z
x,-y,-z
-x,y,-z
-x,-y,-z
x,y,-z
-x,y,z
x,-y,z
1/2+x,1/2+y,z
1/2-x,1/2-y,z
1/2+x,1/2-y,-z
1/2-x,1/2+y,-z
1/2-x,1/2-y,-z
1/2+x,1/2+y,-z
1/2-x,1/2+y,z
1/2+x,1/2-y,z
loop_
_atom_site_type_symbol
_atom_site_label
_atom_site_fract_x
_atom_site_fract_y
_atom_site_fract_z
Si Si1 0.280358 0.342334 0.202361
Si Si2 0.778899 0.601416 0.394531
Si Si3 0.078350 0.397600 0.704432
Si Si4 0.579519 0.399440 0.111782
Si Si5 0.645821 0.902077 0.104147
O O1 0.250000 0.250000 0.189364
O O2 0.270847 0.366832 0.311325
O O3 0.358882 0.353888 0.167169
O O4 0.226253 0.397204 0.139787
O O5 0.762172 0.629823 0.500000
O O6 0.776988 0.500000 0.393139
O O7 0.858143 0.627130 0.364191
O O8 0.078681 0.500000 0.705721
O O9 0.099265 0.367902 0.809697
O O10 0.000000 0.370683 0.678252
O O11 0.500000 0.375565 0.139010
O O12 0.586582 0.500000 0.126035
O O13 0.587364 0.384302 0.000000
O O14 0.627156 0.000000 0.097057
O O15 0.637722 0.863961 0.000000
#
# Coordination Sequence:
#
# PCOD9493404 Si02
#       5
#    16  16  16  16  16
#     4  11  21  32  49  74 104 132 160 203 262 321
#     4   9  18  33  52  71  91 122 167 213 255 304
#     4   8  14  25  42  66  93 119 153 196 236 275
#     4   9  18  34  57  81 103 134 179 223 256 293
#     4   9  17  29  45  65  92 129 169 203 237 288
#
# _framework density 18.564201000000001
#
# number of rings (size 3 to 8) (size 9 to 14) (size 15 to 20)
#    0.000    2.800    0.000    4.200    0.000    4.400 
#    0.000    8.000    0.000    0.600    0.000    2.800 
#    0.000    0.000    0.000    0.000    0.000    0.000 
#
# Total GULP energy -222988.012136 kJ/mol
# GULP energy per Si atom -5574.700303 kJ/mol
# Density = 1.852195 g / cm^3
# Si number density = 18.564201 Si / 1000 Ang^3
#
#
#
# Elastic Constant Matrix: (Units=GPa)
#
#
# Indices 1 2 3 4 5 6 
#
# 1 143.4810 30.4997 51.3518 0.0000 0.0000 0.0000
# 2 30.4997 27.9573 21.6083 0.0000 0.0000 0.0000
# 3 51.3518 21.6083 84.2773 0.0000 0.0000 0.0000
# 4 0.0000 0.0000 0.0000 -1.4196 0.0000 0.0000
# 5 0.0000 0.0000 0.0000 0.0000 8.8163 0.0000
# 6 0.0000 0.0000 0.0000 0.0000 0.0000 -18.1226
#
#
#
# Elastic Compliance Matrix: (Units=1/GPa)
#
#
# Indices 1 2 3 4 5 6 
#
# 1 0.010123 -0.007827 -0.004161 0.000000 0.000000 0.000000
# 2 -0.007827 0.050661 -0.008220 0.000000 0.000000 0.000000
# 3 -0.004161 -0.008220 0.016509 0.000000 0.000000 0.000000
# 4 0.000000 0.000000 0.000000 -0.704429 0.000000 0.000000
# 5 0.000000 0.000000 0.000000 0.000000 0.113427 0.000000
# 6 0.000000 0.000000 0.000000 0.000000 0.000000 -0.055180
#
#
# Mechanical properties :
#
#
# Convention : Reuss Voigt Hill
#
# Bulk Modulus (GPa) = 27.11802 51.40390 39.26096
# Shear Modulus (GPa) = -9.68651 8.00520 -0.84065
#
# Velocity S-wave (km/s) = -2.28674 2.07883 -0.67366
# Velocity P-wave (km/s) = 2.76897 5.78895 4.53757
#
# Compressibility (1/GPa) = 0.03687585
#
# Stress axis : x y z
#
# Youngs Moduli (GPa) = 98.78883 19.73904 60.57446
#
# Poissons Ratio (x) = 0.15450 0.25206
# Poissons Ratio (y) = 0.77322 0.49793
# Poissons Ratio (z) = 0.41107 0.16226
#
# Static dielectric constant tensor:
#      x y z
#    x 1.636750 0.000000 0.000000 
#    y 0.000000 1.644810 0.000000 
#    z 0.000000 0.000000 1.646940 
# 
# From -- ./inp_files/40033.got.cif
#   From: 2010.05.17/outbox.cif.g08.bks.cpg/sg65_21_cif.got.tgz:40033.got - 2010.06.03 17:01:31.
