data_PCOD9493497
_publ_section_title
;
Structure prediction by ZEFSAII (Michael W. Deem and Ramdas Pophale) SiO2 
 PCOD9493497
Probable space group: C M M M
;
_chemical_formula_sum "Si O2"
_cell_formula_units_Z 88
_cell_length_a 20.480802
_cell_length_b 28.087423
_cell_length_c 7.687626
_cell_angle_alpha 90.000000
_cell_angle_beta 90.000000
_cell_angle_gamma 90.000000
_cell_volume 4422.329528
_symmetry_space_group_name_H-M "C M M M"
_symmetry_group_IT_number 65
_symmetry_cell_setting 'orthorhombic'
loop_
_space_group_symop_operation_xyz
x,y,z
-x,-y,z
x,-y,-z
-x,y,-z
-x,-y,-z
x,y,-z
-x,y,z
x,-y,z
1/2+x,1/2+y,z
1/2-x,1/2-y,z
1/2+x,1/2-y,-z
1/2-x,1/2+y,-z
1/2-x,1/2-y,-z
1/2+x,1/2+y,-z
1/2-x,1/2+y,z
1/2+x,1/2-y,z
loop_
_atom_site_type_symbol
_atom_site_label
_atom_site_fract_x
_atom_site_fract_y
_atom_site_fract_z
Si Si1 0.624344 0.626221 0.304684
Si Si2 0.737897 0.697683 0.196950
Si Si3 0.133454 0.648651 0.703929
Si Si4 0.424896 0.947175 0.287783
Si Si5 0.920427 0.057231 0.000000
Si Si6 0.500000 0.688374 0.789768
Si Si7 0.500000 0.201084 0.209275
O O1 0.625364 0.606830 0.500000
O O2 0.687718 0.659790 0.277379
O O3 0.611777 0.584373 0.164992
O O4 0.563416 0.661765 0.280070
O O5 0.750000 0.750000 0.278794
O O6 0.808816 0.674178 0.197362
O O7 0.713211 0.706009 0.000000
O O8 0.151297 0.647291 0.500000
O O9 0.120603 0.595365 0.770034
O O10 0.064953 0.675817 0.722414
O O11 0.425419 0.946212 0.500000
O O12 0.500000 0.938959 0.233351
O O13 0.405431 0.000000 0.232921
O O14 0.000000 0.064963 0.000000
O O15 0.910051 0.000000 0.000000
O O16 0.500000 0.743630 0.740753
O O17 0.500000 0.685441 0.000000
O O18 0.500000 0.197849 0.000000
#
# Coordination Sequence:
#
# PCOD9493497 Si02
#       7
#    16  16  16  16   8   8   8
#     4  12  23  41  69  99 130 169 217 267 324 392
#     4  11  24  42  62  86 127 176 213 257 324 394
#     4  11  21  35  56  86 118 153 207 265 311 367
#     4   8  14  28  52  79 108 145 186 235 295 348
#     4  11  24  46  73 102 138 171 212 277 339 397
#     4  11  21  39  61  88 127 165 204 254 315 379
#     4  11  23  35  54  82 123 170 207 255 314 376
#
# _framework density 19.899014999999999
#
# number of rings (size 3 to 8) (size 9 to 14) (size 15 to 20)
#    0.000    1.364    3.636    3.273    0.000    7.636 
#    0.000    1.818    0.000    4.364    0.000    0.000 
#    0.000    0.000    0.000    0.000    0.000    0.000 
#
# Total GULP energy -245782.582659 kJ/mol
# GULP energy per Si atom -5585.967788 kJ/mol
# Density = 1.985372 g / cm^3
# Si number density = 19.899015 Si / 1000 Ang^3
#
#
#
# Elastic Constant Matrix: (Units=GPa)
#
#
# Indices 1 2 3 4 5 6 
#
# 1 110.9271 57.4541 13.0817 0.0000 0.0000 0.0000
# 2 57.4541 170.9693 36.5179 0.0000 0.0000 0.0000
# 3 13.0817 36.5179 105.1457 0.0000 0.0000 0.0000
# 4 0.0000 0.0000 0.0000 19.4378 0.0000 0.0000
# 5 0.0000 0.0000 0.0000 0.0000 22.1481 0.0000
# 6 0.0000 0.0000 0.0000 0.0000 0.0000 -16.7649
#
#
#
# Elastic Compliance Matrix: (Units=1/GPa)
#
#
# Indices 1 2 3 4 5 6 
#
# 1 0.010915 -0.003649 -0.000091 0.000000 0.000000 0.000000
# 2 -0.003649 0.007537 -0.002164 0.000000 0.000000 0.000000
# 3 -0.000091 -0.002164 0.010273 0.000000 0.000000 0.000000
# 4 0.000000 0.000000 0.000000 0.051446 0.000000 0.000000
# 5 0.000000 0.000000 0.000000 0.000000 0.045151 0.000000
# 6 0.000000 0.000000 0.000000 0.000000 0.000000 -0.059648
#
#
# Mechanical properties :
#
#
# Convention : Reuss Voigt Hill
#
# Bulk Modulus (GPa) = 59.10339 66.79437 62.94888
# Shear Modulus (GPa) = 60.15307 23.63009 41.89158
#
# Velocity S-wave (km/s) = 5.50407 3.44975 4.59323
# Velocity P-wave (km/s) = 8.37611 7.03614 7.73519
#
# Compressibility (1/GPa) = 0.01691950
#
# Stress axis : x y z
#
# Youngs Moduli (GPa) = 91.61294 132.67292 97.33862
#
# Poissons Ratio (x) = 0.48409 0.00884
# Poissons Ratio (y) = 0.33427 0.21062
# Poissons Ratio (z) = 0.00832 0.28708
#
# Static dielectric constant tensor:
#      x y z
#    x 1.659360 0.000000 0.000000 
#    y 0.000000 1.694870 0.000000 
#    z 0.000000 0.000000 1.740710 
# 
# From -- ./inp_files/10233.got.cif
#   From: 2010.05.17/outbox.cif.g08.bks.cpg/sg65_6_cif.got.tgz:10233.got - 2010.06.03 17:01:31.
