data_PCOD9493034
_publ_section_title
;
Structure prediction by ZEFSAII (Michael W. Deem and Ramdas Pophale) SiO2 
 PCOD9493034
Probable space group: C M M M
;
_chemical_formula_sum "Si O2"
_cell_formula_units_Z 42
_cell_length_a 7.890049
_cell_length_b 25.259885
_cell_length_c 10.332970
_cell_angle_alpha 90.000000
_cell_angle_beta 90.000000
_cell_angle_gamma 90.000000
_cell_volume 2059.378801
_symmetry_space_group_name_H-M "C M M M"
_symmetry_group_IT_number 65
_symmetry_cell_setting 'orthorhombic'
loop_
_space_group_symop_operation_xyz
x,y,z
-x,-y,z
x,-y,-z
-x,y,-z
-x,-y,-z
x,y,-z
-x,y,z
x,-y,z
1/2+x,1/2+y,z
1/2-x,1/2-y,z
1/2+x,1/2-y,-z
1/2-x,1/2+y,-z
1/2-x,1/2-y,-z
1/2+x,1/2+y,-z
1/2-x,1/2+y,z
1/2+x,1/2-y,z
loop_
_atom_site_type_symbol
_atom_site_label
_atom_site_fract_x
_atom_site_fract_y
_atom_site_fract_z
Si Si1 0.500000 0.500000 0.500000
Si Si2 0.702758 0.811347 0.645230
Si Si3 0.300707 0.397325 0.146704
Si Si4 0.811347 0.500000 0.708557
O O1 0.652154 0.500000 0.611402
O O2 0.762515 0.827007 0.500000
O O3 0.500000 0.816030 0.647181
O O4 0.750000 0.750000 0.663998
O O5 0.775187 0.848567 0.755887
O O6 0.500000 0.410254 0.144338
O O7 0.205450 0.447779 0.203831
O O8 0.246870 0.384773 0.000000
O O9 0.000000 0.500000 0.648805
#
# Coordination Sequence:
#
# PCOD9493034 Si02
#       4
#     2  16  16   8
#     4  12  26  48  66 102 140 176 212 288 320 404
#     4  10  22  40  63  93 126 167 218 275 336 397
#     4  11  24  43  66  94 133 177 219 272 333 396
#     4  12  26  44  70 101 134 177 223 270 335 393
#
# _framework density 20.394499
#
# number of rings (size 3 to 8) (size 9 to 14) (size 15 to 20)
#    0.000    1.143    1.905    3.143    2.667    8.381 
#    0.000    0.000    0.000    0.000    0.000    0.000 
#    0.000    0.000    0.000    0.000    0.000    0.000 
#
# Total GULP energy -117146.342997 kJ/mol
# GULP energy per Si atom -5578.397286 kJ/mol
# Density = 2.034808 g / cm^3
# Si number density = 20.394499 Si / 1000 Ang^3
#
#
#
# Elastic Constant Matrix: (Units=GPa)
#
#
# Indices 1 2 3 4 5 6 
#
# 1 128.1653 17.3882 50.3014 0.0000 0.0000 0.0000
# 2 17.3882 87.3030 90.3480 0.0000 0.0000 0.0000
# 3 50.3014 90.3480 196.3488 0.0000 0.0000 0.0000
# 4 0.0000 0.0000 0.0000 -25.9872 0.0000 0.0000
# 5 0.0000 0.0000 0.0000 0.0000 19.7557 0.0000
# 6 0.0000 0.0000 0.0000 0.0000 0.0000 23.8896
#
#
#
# Elastic Compliance Matrix: (Units=1/GPa)
#
#
# Indices 1 2 3 4 5 6 
#
# 1 0.008730 0.001099 -0.002742 0.000000 0.000000 0.000000
# 2 0.001099 0.022006 -0.010407 0.000000 0.000000 0.000000
# 3 -0.002742 -0.010407 0.010584 0.000000 0.000000 0.000000
# 4 0.000000 0.000000 0.000000 -0.038480 0.000000 0.000000
# 5 0.000000 0.000000 0.000000 0.000000 0.050618 0.000000
# 6 0.000000 0.000000 0.000000 0.000000 0.000000 0.041859
#
#
# Mechanical properties :
#
#
# Convention : Reuss Voigt Hill
#
# Bulk Modulus (GPa) = 58.07574 80.87692 69.47633
# Shear Modulus (GPa) = 39.94988 20.45025 30.20006
#
# Velocity S-wave (km/s) = 4.43070 3.17003 3.85228
# Velocity P-wave (km/s) = 7.39681 7.28980 7.34350
#
# Compressibility (1/GPa) = 0.01721889
#
# Stress axis : x y z
#
# Youngs Moduli (GPa) = 114.55400 45.44265 94.47979
#
# Poissons Ratio (x) = -0.04994 0.25907
# Poissons Ratio (y) = -0.12590 0.98328
# Poissons Ratio (z) = 0.31412 0.47294
#
# Static dielectric constant tensor:
#      x y z
#    x 1.735830 0.000000 0.000000 
#    y 0.000000 1.683200 0.000000 
#    z 0.000000 0.000000 1.717000 
# 
# From -- ./inp_files/2706.got.cif
#   From: 2010.05.17/outbox.cif.g08.bks.cpg/sg65_2_cif.got.tgz:2706.got - 2010.06.03 17:01:31.
