data_PCOD9493359
_publ_section_title
;
Structure prediction by ZEFSAII (Michael W. Deem and Ramdas Pophale) SiO2 
 PCOD9493359
Probable space group: C M M M
;
_chemical_formula_sum "Si O2"
_cell_formula_units_Z 104
_cell_length_a 34.113929
_cell_length_b 25.849935
_cell_length_c 7.675134
_cell_angle_alpha 90.000000
_cell_angle_beta 90.000000
_cell_angle_gamma 90.000000
_cell_volume 6768.262020
_symmetry_space_group_name_H-M "C M M M"
_symmetry_group_IT_number 65
_symmetry_cell_setting 'orthorhombic'
loop_
_space_group_symop_operation_xyz
x,y,z
-x,-y,z
x,-y,-z
-x,y,-z
-x,-y,-z
x,y,-z
-x,y,z
x,-y,z
1/2+x,1/2+y,z
1/2-x,1/2-y,z
1/2+x,1/2-y,-z
1/2-x,1/2+y,-z
1/2-x,1/2-y,-z
1/2+x,1/2+y,-z
1/2-x,1/2+y,z
1/2+x,1/2-y,z
loop_
_atom_site_type_symbol
_atom_site_label
_atom_site_fract_x
_atom_site_fract_y
_atom_site_fract_z
Si Si1 0.309520 0.769681 0.792550
Si Si2 0.232933 0.168641 0.213635
Si Si3 0.878571 0.659114 0.706099
Si Si4 0.244294 0.943841 0.207795
Si Si5 0.952074 0.500000 0.201428
Si Si6 0.455804 0.887826 0.791127
Si Si7 0.336618 0.943520 0.710714
O O1 0.275643 0.809440 0.730097
O O2 0.298065 0.712344 0.729689
O O3 0.352157 0.792247 0.756617
O O4 0.304900 0.768017 0.000000
O O5 0.226922 0.110104 0.275830
O O6 0.233034 0.167052 0.000000
O O7 0.876130 0.655605 0.500000
O O8 0.924013 0.655758 0.753961
O O9 0.858760 0.606710 0.780986
O O10 0.291089 0.940354 0.237059
O O11 0.231536 0.000000 0.278954
O O12 0.237548 0.944887 0.000000
O O13 0.941640 0.555846 0.280476
O O14 0.000000 0.500000 0.200369
O O15 0.939033 0.500000 0.000000
O O16 0.500000 0.877672 0.727987
O O17 0.458019 0.893724 0.000000
O O18 0.338298 0.943007 0.500000
O O19 0.351840 0.000000 0.769297
#
# Coordination Sequence:
#
# PCOD9493359 Si02
#       7
#    16  16  16  16   8  16  16
#     4   9  16  28  43  55  73 101 130 158 189 229
#     4   8  14  25  41  58  75  98 127 159 194 225
#     4  11  21  29  40  58  78  97 125 161 198 235
#     4   9  15  24  40  59  75  93 125 164 195 226
#     4   7  12  26  45  61  73  87 117 159 195 231
#     4   9  18  32  47  59  72  94 124 157 194 237
#     4   9  18  29  36  47  73 103 125 150 191 237
#
# _framework density 15.365835000000001
#
# number of rings (size 3 to 8) (size 9 to 14) (size 15 to 20)
#    0.000    3.000    1.538    2.308    1.077    0.923 
#    0.000    2.308    0.000    1.385    0.000    0.000 
#    0.000    0.000    0.000    0.000    0.000    0.769 
#
# Total GULP energy -289672.019466 kJ/mol
# GULP energy per Si atom -5570.615759 kJ/mol
# Density = 1.533086 g / cm^3
# Si number density = 15.365835 Si / 1000 Ang^3
#
#
#
# Elastic Constant Matrix: (Units=GPa)
#
#
# Indices 1 2 3 4 5 6 
#
# 1 68.7803 54.8878 -2.9610 0.0000 0.0000 0.0000
# 2 54.8878 127.8624 8.4215 0.0000 0.0000 0.0000
# 3 -2.9610 8.4215 26.9517 0.0000 0.0000 0.0000
# 4 0.0000 0.0000 0.0000 3.3414 0.0000 0.0000
# 5 0.0000 0.0000 0.0000 0.0000 23.5207 0.0000
# 6 0.0000 0.0000 0.0000 0.0000 0.0000 24.4278
#
#
#
# Elastic Compliance Matrix: (Units=1/GPa)
#
#
# Indices 1 2 3 4 5 6 
#
# 1 0.022946 -0.010227 0.005716 0.000000 0.000000 0.000000
# 2 -0.010227 0.012543 -0.005043 0.000000 0.000000 0.000000
# 3 0.005716 -0.005043 0.039307 0.000000 0.000000 0.000000
# 4 0.000000 0.000000 0.000000 0.299275 0.000000 0.000000
# 5 0.000000 0.000000 0.000000 0.000000 0.042516 0.000000
# 6 0.000000 0.000000 0.000000 0.000000 0.000000 0.040937
#
#
# Mechanical properties :
#
#
# Convention : Reuss Voigt Hill
#
# Bulk Modulus (GPa) = 17.95643 38.25455 28.10549
# Shear Modulus (GPa) = 10.09706 21.14105 15.61905
#
# Velocity S-wave (km/s) = 2.56620 3.71327 3.19169
# Velocity P-wave (km/s) = 4.52679 6.58288 5.64917
#
# Compressibility (1/GPa) = 0.05569035
#
# Stress axis : x y z
#
# Youngs Moduli (GPa) = 43.58025 79.72532 25.44063
#
# Poissons Ratio (x) = 0.81532 -0.14543
# Poissons Ratio (y) = 0.44568 0.12829
# Poissons Ratio (z) = -0.24912 0.40204
#
# Static dielectric constant tensor:
#      x y z
#    x 1.530790 0.000000 0.000000 
#    y 0.000000 1.570390 0.000000 
#    z 0.000000 0.000000 1.556480 
# 
# From -- ./inp_files/19033.got.cif
#   From: 2010.05.17/outbox.cif.g08.bks.cpg/sg65_10_cif.got.tgz:19033.got - 2010.06.03 17:01:31.
