data_PCOD9493237
_publ_section_title
;
Structure prediction by ZEFSAII (Michael W. Deem and Ramdas Pophale) SiO2 
 PCOD9493237
Probable space group: C M M M
;
_chemical_formula_sum "Si O2"
_cell_formula_units_Z 56
_cell_length_a 13.535188
_cell_length_b 13.067312
_cell_length_c 13.791794
_cell_angle_alpha 90.000000
_cell_angle_beta 90.000000
_cell_angle_gamma 90.000000
_cell_volume 2439.334256
_symmetry_space_group_name_H-M "C M M M"
_symmetry_group_IT_number 65
_symmetry_cell_setting 'orthorhombic'
loop_
_space_group_symop_operation_xyz
x,y,z
-x,-y,z
x,-y,-z
-x,y,-z
-x,-y,-z
x,y,-z
-x,y,z
x,-y,z
1/2+x,1/2+y,z
1/2-x,1/2-y,z
1/2+x,1/2-y,-z
1/2-x,1/2+y,-z
1/2-x,1/2-y,-z
1/2+x,1/2+y,-z
1/2-x,1/2+y,z
1/2+x,1/2-y,z
loop_
_atom_site_type_symbol
_atom_site_label
_atom_site_fract_x
_atom_site_fract_y
_atom_site_fract_z
Si Si1 0.685027 0.112402 0.305469
Si Si2 0.609072 0.322600 0.615639
Si Si3 0.386843 0.191430 0.889536
Si Si4 0.500000 0.615475 0.882283
O O1 0.626384 0.203287 0.358570
O O2 0.798147 0.120428 0.338715
O O3 0.675519 0.136258 0.191481
O O4 0.645817 0.000000 0.326790
O O5 0.613187 0.335564 0.500000
O O6 0.500000 0.354189 0.649831
O O7 0.500000 0.149668 0.887508
O O8 0.406476 0.310606 0.860692
O O9 0.350995 0.183885 0.000000
O O10 0.500000 0.500000 0.845820
O O11 0.500000 0.611088 0.000000
#
# Coordination Sequence:
#
# PCOD9493237 Si02
#       4
#    16  16  16   8
#     4  11  22  39  68  99 130 172 223 274 331 398
#     4  10  24  46  68  93 131 169 215 284 348 407
#     4   8  17  33  57  96 141 181 224 273 318 382
#     4   7  12  28  55  87 130 183 227 265 315 373
#
# _framework density 22.957083999999998
#
# number of rings (size 3 to 8) (size 9 to 14) (size 15 to 20)
#    0.857    1.857    0.000    2.571    0.000    5.714 
#    0.000   12.857    0.000    2.571    0.000    2.000 
#    0.000    0.000    0.000    0.000    0.000    0.000 
#
# Total GULP energy -156418.826307 kJ/mol
# GULP energy per Si atom -5586.386654 kJ/mol
# Density = 2.290483 g / cm^3
# Si number density = 22.957084 Si / 1000 Ang^3
#
#
#
# Elastic Constant Matrix: (Units=GPa)
#
#
# Indices 1 2 3 4 5 6 
#
# 1 106.3533 -7.3984 48.1627 0.0000 0.0000 0.0000
# 2 -7.3984 90.6924 3.0066 0.0000 0.0000 0.0000
# 3 48.1627 3.0066 111.1861 0.0000 0.0000 0.0000
# 4 0.0000 0.0000 0.0000 -1.4542 0.0000 0.0000
# 5 0.0000 0.0000 0.0000 0.0000 41.9252 0.0000
# 6 0.0000 0.0000 0.0000 0.0000 0.0000 -7.1084
#
#
#
# Elastic Compliance Matrix: (Units=1/GPa)
#
#
# Indices 1 2 3 4 5 6 
#
# 1 0.011813 0.001134 -0.005148 0.000000 0.000000 0.000000
# 2 0.001134 0.011145 -0.000793 0.000000 0.000000 0.000000
# 3 -0.005148 -0.000793 0.011245 0.000000 0.000000 0.000000
# 4 0.000000 0.000000 0.000000 -0.687674 0.000000 0.000000
# 5 0.000000 0.000000 0.000000 0.000000 0.023852 0.000000
# 6 0.000000 0.000000 0.000000 0.000000 0.000000 -0.140678
#
#
# Mechanical properties :
#
#
# Convention : Reuss Voigt Hill
#
# Bulk Modulus (GPa) = 40.66553 43.97487 42.32020
# Shear Modulus (GPa) = -6.64463 24.30324 8.82931
#
# Velocity S-wave (km/s) = -1.70313 3.25720 1.96325
# Velocity P-wave (km/s) = 3.72621 5.77431 4.85939
#
# Compressibility (1/GPa) = 0.02459085
#
# Stress axis : x y z
#
# Youngs Moduli (GPa) = 84.65506 89.72563 88.92723
#
# Poissons Ratio (x) = -0.10177 0.45776
# Poissons Ratio (y) = -0.09602 0.07049
# Poissons Ratio (z) = 0.43577 0.07113
#
# Static dielectric constant tensor:
#      x y z
#    x 1.861790 0.000000 0.000000 
#    y 0.000000 1.837610 0.000000 
#    z 0.000000 0.000000 1.854120 
# 
# From -- ./inp_files/39426.got.cif
#   From: 2010.05.17/outbox.cif.g08.bks.cpg/sg65_20_cif.got.tgz:39426.got - 2010.06.03 17:01:31.
