data_PCOD9493770
_publ_section_title
;
Structure prediction by ZEFSAII (Michael W. Deem and Ramdas Pophale) SiO2 
 PCOD9493770
Probable space group: C M M M
;
_chemical_formula_sum "Si O2"
_cell_formula_units_Z 116
_cell_length_a 26.901721
_cell_length_b 26.535141
_cell_length_c 8.013956
_cell_angle_alpha 90.000000
_cell_angle_beta 90.000000
_cell_angle_gamma 90.000000
_cell_volume 5720.690043
_symmetry_space_group_name_H-M "C M M M"
_symmetry_group_IT_number 65
_symmetry_cell_setting 'orthorhombic'
loop_
_space_group_symop_operation_xyz
x,y,z
-x,-y,z
x,-y,-z
-x,y,-z
-x,-y,-z
x,y,-z
-x,y,z
x,-y,z
1/2+x,1/2+y,z
1/2-x,1/2-y,z
1/2+x,1/2-y,-z
1/2-x,1/2+y,-z
1/2-x,1/2-y,-z
1/2+x,1/2+y,-z
1/2-x,1/2+y,z
1/2+x,1/2-y,z
loop_
_atom_site_type_symbol
_atom_site_label
_atom_site_fract_x
_atom_site_fract_y
_atom_site_fract_z
Si Si1 0.838059 0.945277 0.194629
Si Si2 0.341597 0.258185 0.194320
Si Si3 0.445245 0.578249 0.301148
Si Si4 0.722535 0.648113 0.311992
Si Si5 0.566661 0.000000 0.000000
Si Si6 0.055020 0.199026 0.301022
Si Si7 0.395017 0.054145 0.312919
Si Si8 0.829508 0.354441 0.192546
O O1 0.897482 0.943853 0.213084
O O2 0.815781 0.897666 0.289142
O O3 0.820175 0.000000 0.255580
O O4 0.825225 0.940251 0.000000
O O5 0.305811 0.299777 0.275176
O O6 0.398165 0.276487 0.212755
O O7 0.337765 0.201722 0.263711
O O8 0.327340 0.256117 0.000000
O O9 0.441493 0.568285 0.500000
O O10 0.500000 0.561406 0.245319
O O11 0.443071 0.638716 0.278383
O O12 0.741224 0.649151 0.500000
O O13 0.770336 0.638192 0.199362
O O14 0.570003 0.956515 0.151648
O O15 0.059374 0.208171 0.500000
O O16 0.000000 0.216177 0.246482
O O17 0.417663 0.058354 0.500000
O O18 0.359374 0.101266 0.282723
O O19 0.365934 0.000000 0.312264
O O20 0.846151 0.354765 0.000000
#
# Coordination Sequence:
#
# PCOD9493770 Si02
#       8
#    16  16  16  16   4  16  16  16
#     4  11  24  40  56  77 105 139 182 233 289 342
#     4  11  23  37  57  83 111 143 179 224 279 336
#     4   9  18  34  57  81 105 136 175 223 282 342
#     4  12  25  39  55  75 103 141 187 232 277 341
#     4   8  14  32  52  74 110 144 171 234 271 310
#     4   9  18  34  57  83 111 144 179 221 277 336
#     4   9  17  31  53  78 105 143 184 223 271 321
#     4  11  22  38  56  79 112 147 184 231 281 331
#
# _framework density 20.277273000000001
#
# number of rings (size 3 to 8) (size 9 to 14) (size 15 to 20)
#    0.414    1.379    2.069    3.724    0.000    6.345 
#    0.000    2.759    0.000    0.000    0.000    0.000 
#    0.000    0.552    0.000    7.241    0.000    6.897 
#
# Total GULP energy -322922.900239 kJ/mol
# GULP energy per Si atom -5567.636211 kJ/mol
# Density = 2.023112 g / cm^3
# Si number density = 20.277273 Si / 1000 Ang^3
#
#
#
# Elastic Constant Matrix: (Units=GPa)
#
#
# Indices 1 2 3 4 5 6 
#
# 1 26.2628 -2.9034 -0.7287 0.0000 0.0000 0.0000
# 2 -2.9034 94.2214 22.3075 0.0000 0.0000 0.0000
# 3 -0.7287 22.3075 77.9137 0.0000 0.0000 0.0000
# 4 0.0000 0.0000 0.0000 19.0260 0.0000 0.0000
# 5 0.0000 0.0000 0.0000 0.0000 18.1513 0.0000
# 6 0.0000 0.0000 0.0000 0.0000 0.0000 -7.9084
#
#
#
# Elastic Compliance Matrix: (Units=1/GPa)
#
#
# Indices 1 2 3 4 5 6 
#
# 1 0.038207 0.001172 0.000022 0.000000 0.000000 0.000000
# 2 0.001172 0.011421 -0.003259 0.000000 0.000000 0.000000
# 3 0.000022 -0.003259 0.013768 0.000000 0.000000 0.000000
# 4 0.000000 0.000000 0.000000 0.052560 0.000000 0.000000
# 5 0.000000 0.000000 0.000000 0.000000 0.055092 0.000000
# 6 0.000000 0.000000 0.000000 0.000000 0.000000 -0.126448
#
#
# Mechanical properties :
#
#
# Convention : Reuss Voigt Hill
#
# Bulk Modulus (GPa) = 16.87314 26.19429 21.53371
# Shear Modulus (GPa) = 73.00813 17.83529 45.42171
#
# Velocity S-wave (km/s) = 6.00692 2.96897 4.73803
# Velocity P-wave (km/s) = 7.51332 4.96983 6.36982
#
# Compressibility (1/GPa) = 0.05926579
#
# Stress axis : x y z
#
# Youngs Moduli (GPa) = 26.17326 87.55801 72.63218
#
# Poissons Ratio (x) = -0.10263 -0.00158
# Poissons Ratio (y) = -0.03068 0.23671
# Poissons Ratio (z) = -0.00057 0.28535
#
# Static dielectric constant tensor:
#      x y z
#    x 1.697910 0.000000 0.000000 
#    y 0.000000 1.730430 0.000000 
#    z 0.000000 0.000000 1.746820 
# 
# From -- ./inp_files/16881.got.cif
#   From: 2010.05.17/outbox.cif.g08.bks.cpg/sg65_9_cif.got.tgz:16881.got - 2010.06.03 17:01:31.
