data_PCOD9493837
_publ_section_title
;
Structure prediction by ZEFSAII (Michael W. Deem and Ramdas Pophale) SiO2 
 PCOD9493837
Probable space group: C M M M
;
_chemical_formula_sum "Si O2"
_cell_formula_units_Z 64
_cell_length_a 12.417418
_cell_length_b 27.803535
_cell_length_c 9.868514
_cell_angle_alpha 90.000000
_cell_angle_beta 90.000000
_cell_angle_gamma 90.000000
_cell_volume 3407.085866
_symmetry_space_group_name_H-M "C M M M"
_symmetry_group_IT_number 65
_symmetry_cell_setting 'orthorhombic'
loop_
_space_group_symop_operation_xyz
x,y,z
-x,-y,z
x,-y,-z
-x,y,-z
-x,-y,-z
x,y,-z
-x,y,z
x,-y,z
1/2+x,1/2+y,z
1/2-x,1/2-y,z
1/2+x,1/2-y,-z
1/2-x,1/2+y,-z
1/2-x,1/2-y,-z
1/2+x,1/2+y,-z
1/2-x,1/2+y,z
1/2+x,1/2-y,z
loop_
_atom_site_type_symbol
_atom_site_label
_atom_site_fract_x
_atom_site_fract_y
_atom_site_fract_z
Si Si1 0.724303 0.603989 0.757361
Si Si2 0.500000 0.647644 0.844062
Si Si3 0.630919 0.058594 0.000000
Si Si4 0.623675 0.556400 0.500000
Si Si5 0.675748 0.202956 0.651464
Si Si6 0.500000 0.755971 0.161776
O O1 0.608056 0.618152 0.818125
O O2 0.806283 0.581161 0.868303
O O3 0.692005 0.570518 0.631792
O O4 0.768183 0.653429 0.692822
O O5 0.500000 0.701132 0.779399
O O6 0.500000 0.659774 0.000000
O O7 0.500000 0.068706 0.000000
O O8 0.642625 0.000000 0.000000
O O9 0.610145 0.500000 0.500000
O O10 0.500000 0.578108 0.500000
O O11 0.627769 0.197237 0.500000
O O12 0.750000 0.250000 0.642960
O O13 0.598997 0.216051 0.774679
O O14 0.500000 0.757842 0.000000
#
# Coordination Sequence:
#
# PCOD9493837 Si02
#       6
#    16   8   8   8  16   8
#     4  12  23  43  70  99 135 180 220 276 342 399
#     4  11  22  40  63 105 141 168 214 277 341 395
#     4  11  28  51  72  95 131 177 232 287 336 398
#     4  11  24  42  68 103 137 169 220 285 354 413
#     4  11  24  40  61  94 135 181 221 265 324 401
#     4  11  25  39  61  92 133 179 222 276 323 390
#
# _framework density 18.784381
#
# number of rings (size 3 to 8) (size 9 to 14) (size 15 to 20)
#    0.000    0.750    6.250    1.125    3.500    0.500 
#    2.250    1.250    0.000    2.250    0.000    0.000 
#    0.000    0.000    0.000    0.000    0.000    0.000 
#
# Total GULP energy -178289.638257 kJ/mol
# GULP energy per Si atom -5571.551196 kJ/mol
# Density = 1.874163 g / cm^3
# Si number density = 18.784381 Si / 1000 Ang^3
#
#
#
# Elastic Constant Matrix: (Units=GPa)
#
#
# Indices 1 2 3 4 5 6 
#
# 1 132.0174 58.9129 72.9394 0.0000 0.0000 0.0000
# 2 58.9129 121.1391 52.4510 0.0000 0.0000 0.0000
# 3 72.9394 52.4510 151.1206 0.0000 0.0000 0.0000
# 4 0.0000 0.0000 0.0000 37.0860 0.0000 0.0000
# 5 0.0000 0.0000 0.0000 0.0000 22.7814 0.0000
# 6 0.0000 0.0000 0.0000 0.0000 0.0000 57.1390
#
#
#
# Elastic Compliance Matrix: (Units=1/GPa)
#
#
# Indices 1 2 3 4 5 6 
#
# 1 0.011649 -0.003802 -0.004303 0.000000 0.000000 0.000000
# 2 -0.003802 0.010956 -0.001967 0.000000 0.000000 0.000000
# 3 -0.004303 -0.001967 0.009377 0.000000 0.000000 0.000000
# 4 0.000000 0.000000 0.000000 0.026964 0.000000 0.000000
# 5 0.000000 0.000000 0.000000 0.000000 0.043895 0.000000
# 6 0.000000 0.000000 0.000000 0.000000 0.000000 0.017501
#
#
# Mechanical properties :
#
#
# Convention : Reuss Voigt Hill
#
# Bulk Modulus (GPa) = 84.48139 85.87598 85.17868
# Shear Modulus (GPa) = 34.61826 38.06620 36.34223
#
# Velocity S-wave (km/s) = 4.29759 4.50653 4.40330
# Velocity P-wave (km/s) = 8.34851 8.53782 8.44370
#
# Compressibility (1/GPa) = 0.01183693
#
# Stress axis : x y z
#
# Youngs Moduli (GPa) = 85.84683 91.27517 106.64584
#
# Poissons Ratio (x) = 0.34703 0.45886
# Poissons Ratio (y) = 0.32639 0.20982
# Poissons Ratio (z) = 0.36937 0.17958
#
# Static dielectric constant tensor:
#      x y z
#    x 1.697890 0.000000 0.000000 
#    y 0.000000 1.660830 0.000000 
#    z 0.000000 0.000000 1.652410 
# 
# From -- ./inp_files/5025.got.cif
#   From: 2010.05.17/outbox.cif.g08.bks.cpg/sg65_3_cif.got.tgz:5025.got - 2010.06.03 17:01:31.
