data_PCOD9493432
_publ_section_title
;
Structure prediction by ZEFSAII (Michael W. Deem and Ramdas Pophale) SiO2 
 PCOD9493432
Probable space group: C M M M
;
_chemical_formula_sum "Si O2"
_cell_formula_units_Z 104
_cell_length_a 19.175453
_cell_length_b 8.306119
_cell_length_c 36.687146
_cell_angle_alpha 90.000000
_cell_angle_beta 90.000000
_cell_angle_gamma 90.000000
_cell_volume 5843.293615
_symmetry_space_group_name_H-M "C M M M"
_symmetry_group_IT_number 65
_symmetry_cell_setting 'orthorhombic'
loop_
_space_group_symop_operation_xyz
x,y,z
-x,-y,z
x,-y,-z
-x,y,-z
-x,-y,-z
x,y,-z
-x,y,z
x,-y,z
1/2+x,1/2+y,z
1/2-x,1/2-y,z
1/2+x,1/2-y,-z
1/2-x,1/2+y,-z
1/2-x,1/2-y,-z
1/2+x,1/2+y,-z
1/2-x,1/2+y,z
1/2+x,1/2-y,z
loop_
_atom_site_type_symbol
_atom_site_label
_atom_site_fract_x
_atom_site_fract_y
_atom_site_fract_z
Si Si1 0.084876 0.818858 0.913812
Si Si2 0.919369 0.305804 0.459425
Si Si3 0.417566 0.806419 0.834705
Si Si4 0.670069 0.805450 0.764837
Si Si5 0.085033 0.500000 0.042314
Si Si6 0.670361 0.689925 0.391631
Si Si7 0.330375 0.807656 0.685256
O O1 0.103907 0.781595 0.871889
O O2 0.108022 0.665530 0.937897
O O3 0.000000 0.818624 0.915340
O O4 0.107662 0.000000 0.924517
O O5 0.896096 0.252781 0.500000
O O6 0.918185 0.500000 0.459230
O O7 0.872792 0.246525 0.426403
O O8 0.000000 0.255335 0.454841
O O9 0.500000 0.779388 0.829127
O O10 0.374936 0.752104 0.799345
O O11 0.408294 0.000000 0.839753
O O12 0.750000 0.750000 0.768260
O O13 0.642076 0.753047 0.724869
O O14 0.669185 0.000000 0.764905
O O15 0.000000 0.500000 0.044075
O O16 0.105040 0.500000 0.000000
O O17 0.672373 0.500000 0.390665
O O18 0.750000 0.750000 0.394426
O O19 0.638966 0.747948 0.352896
O O20 0.250000 0.750000 0.685008
O O21 0.331695 0.000000 0.684409
#
# Coordination Sequence:
#
# PCOD9493432 Si02
#       7
#    16  16  16  16   8  16  16
#     4   9  16  26  41  62  88 123 162 197 243 297
#     4   9  19  37  58  77  99 128 160 196 243 296
#     4   9  16  29  47  65  91 128 164 198 241 294
#     4   9  18  30  47  70  95 126 161 204 248 289
#     4   9  16  26  40  60  90 126 160 200 247 293
#     4  11  21  33  52  76 101 130 164 203 243 289
#     4   9  16  29  47  68  95 127 164 199 244 294
#
# _framework density 17.798181
#
# number of rings (size 3 to 8) (size 9 to 14) (size 15 to 20)
#    0.000    2.692    0.769    3.231    0.000    2.462 
#    0.000    3.077    0.000    2.769    0.000    0.000 
#    0.000    0.615    0.308    0.000    0.000    0.000 
#
# Total GULP energy -289655.363363 kJ/mol
# GULP energy per Si atom -5570.295449 kJ/mol
# Density = 1.775767 g / cm^3
# Si number density = 17.798181 Si / 1000 Ang^3
#
#
#
# Elastic Constant Matrix: (Units=GPa)
#
#
# Indices 1 2 3 4 5 6 
#
# 1 21.7746 20.6444 44.0681 0.0000 0.0000 0.0000
# 2 20.6444 87.8075 73.6947 0.0000 0.0000 0.0000
# 3 44.0681 73.6947 185.6816 0.0000 0.0000 0.0000
# 4 0.0000 0.0000 0.0000 15.6318 0.0000 0.0000
# 5 0.0000 0.0000 0.0000 0.0000 34.8882 0.0000
# 6 0.0000 0.0000 0.0000 0.0000 0.0000 14.6523
#
#
#
# Elastic Compliance Matrix: (Units=1/GPa)
#
#
# Indices 1 2 3 4 5 6 
#
# 1 0.089719 -0.004833 -0.019375 0.000000 0.000000 0.000000
# 2 -0.004833 0.017337 -0.005734 0.000000 0.000000 0.000000
# 3 -0.019375 -0.005734 0.012260 0.000000 0.000000 0.000000
# 4 0.000000 0.000000 0.000000 0.063972 0.000000 0.000000
# 5 0.000000 0.000000 0.000000 0.000000 0.028663 0.000000
# 6 0.000000 0.000000 0.000000 0.000000 0.000000 0.068249
#
#
# Mechanical properties :
#
#
# Convention : Reuss Voigt Hill
#
# Bulk Modulus (GPa) = 16.82594 63.56421 40.19508
# Shear Modulus (GPa) = 13.89300 23.49155 18.69228
#
# Velocity S-wave (km/s) = 2.79693 3.63696 3.24425
# Velocity P-wave (km/s) = 4.46146 7.30945 6.05528
#
# Compressibility (1/GPa) = 0.05943204
#
# Stress axis : x y z
#
# Youngs Moduli (GPa) = 11.14594 57.67974 81.56896
#
# Poissons Ratio (x) = 0.27875 1.58040
# Poissons Ratio (y) = 0.05387 0.46771
# Poissons Ratio (z) = 0.21595 0.33073
#
# Static dielectric constant tensor:
#      x y z
#    x 1.594460 0.000000 0.000000 
#    y 0.000000 1.621820 0.000000 
#    z 0.000000 0.000000 1.644940 
# 
# From -- ./inp_files/78363.got.cif
#   From: 2010.05.17/outbox.cif.g08.bks.cpg/sg65_40_cif.got.tgz:78363.got - 2010.06.03 17:01:31.
