data_PCOD9493954
_publ_section_title
;
Structure prediction by ZEFSAII (Michael W. Deem and Ramdas Pophale) SiO2 
 PCOD9493954
Probable space group: C M M M
;
_chemical_formula_sum "Si O2"
_cell_formula_units_Z 88
_cell_length_a 27.573973
_cell_length_b 19.322078
_cell_length_c 7.849932
_cell_angle_alpha 90.000000
_cell_angle_beta 90.000000
_cell_angle_gamma 90.000000
_cell_volume 4182.337459
_symmetry_space_group_name_H-M "C M M M"
_symmetry_group_IT_number 65
_symmetry_cell_setting 'orthorhombic'
loop_
_space_group_symop_operation_xyz
x,y,z
-x,-y,z
x,-y,-z
-x,y,-z
-x,-y,-z
x,y,-z
-x,y,z
x,-y,z
1/2+x,1/2+y,z
1/2-x,1/2-y,z
1/2+x,1/2-y,-z
1/2-x,1/2+y,-z
1/2-x,1/2-y,-z
1/2+x,1/2+y,-z
1/2-x,1/2+y,z
1/2+x,1/2-y,z
loop_
_atom_site_type_symbol
_atom_site_label
_atom_site_fract_x
_atom_site_fract_y
_atom_site_fract_z
Si Si1 0.941375 0.583246 0.000000
Si Si2 0.742286 0.419163 0.704517
Si Si3 0.703324 0.208770 0.194252
Si Si4 0.098304 0.326745 0.687871
Si Si5 0.553394 0.309132 0.198839
Si Si6 0.867643 0.921058 0.705727
O O1 0.916715 0.619788 0.835552
O O2 0.934340 0.500000 0.000000
O O3 0.000000 0.596182 0.000000
O O4 0.746749 0.408425 0.500000
O O5 0.749765 0.500000 0.737266
O O6 0.779359 0.370402 0.798971
O O7 0.687141 0.401644 0.756530
O O8 0.750000 0.250000 0.268454
O O9 0.651496 0.207673 0.283763
O O10 0.696579 0.233002 0.000000
O O11 0.096755 0.358598 0.500000
O O12 0.062999 0.260990 0.700234
O O13 0.500000 0.337146 0.237633
O O14 0.593506 0.366671 0.232287
O O15 0.555566 0.289715 0.000000
O O16 0.868012 0.921531 0.500000
O O17 0.877113 0.000000 0.762842
#
# Coordination Sequence:
#
# PCOD9493954 Si02
#       6
#     8  16  16  16  16  16
#     4  11  26  50  75 100 133 167 212 281 349 416
#     4   9  19  36  57  83 117 159 204 250 305 367
#     4  11  23  39  61  93 133 173 214 262 318 379
#     4  12  25  44  71 100 132 173 218 267 332 401
#     4  11  23  39  60  87 123 164 210 268 323 374
#     4   9  19  36  57  85 124 168 216 267 314 367
#
# _framework density 21.040866000000001
#
# number of rings (size 3 to 8) (size 9 to 14) (size 15 to 20)
#    0.000    1.545    1.818    3.818    0.000    9.818 
#    0.000    4.545    0.000    0.000    0.000    0.000 
#    0.000    0.000    0.000    0.000    0.000    0.000 
#
# Total GULP energy -245923.399713 kJ/mol
# GULP energy per Si atom -5589.168175 kJ/mol
# Density = 2.099298 g / cm^3
# Si number density = 21.040866 Si / 1000 Ang^3
#
#
#
# Elastic Constant Matrix: (Units=GPa)
#
#
# Indices 1 2 3 4 5 6 
#
# 1 66.9495 16.6340 22.0954 0.0000 0.0000 0.0000
# 2 16.6340 40.4868 16.9849 0.0000 0.0000 0.0000
# 3 22.0954 16.9849 91.7007 0.0000 0.0000 0.0000
# 4 0.0000 0.0000 0.0000 2.5033 0.0000 0.0000
# 5 0.0000 0.0000 0.0000 0.0000 25.1081 0.0000
# 6 0.0000 0.0000 0.0000 0.0000 0.0000 36.2274
#
#
#
# Elastic Compliance Matrix: (Units=1/GPa)
#
#
# Indices 1 2 3 4 5 6 
#
# 1 0.017418 -0.005850 -0.003113 0.000000 0.000000 0.000000
# 2 -0.005850 0.028745 -0.003915 0.000000 0.000000 0.000000
# 3 -0.003113 -0.003915 0.012380 0.000000 0.000000 0.000000
# 4 0.000000 0.000000 0.000000 0.399467 0.000000 0.000000
# 5 0.000000 0.000000 0.000000 0.000000 0.039828 0.000000
# 6 0.000000 0.000000 0.000000 0.000000 0.000000 0.027603
#
#
# Mechanical properties :
#
#
# Convention : Reuss Voigt Hill
#
# Bulk Modulus (GPa) = 30.49966 34.50729 32.50348
# Shear Modulus (GPa) = 8.89481 22.32928 15.61204
#
# Velocity S-wave (km/s) = 2.05829 3.26119 2.72690
# Velocity P-wave (km/s) = 4.49173 5.53319 5.03944
#
# Compressibility (1/GPa) = 0.03278725
#
# Stress axis : x y z
#
# Youngs Moduli (GPa) = 57.41338 34.78844 80.77369
#
# Poissons Ratio (x) = 0.20351 0.25147
# Poissons Ratio (y) = 0.33587 0.31620
# Poissons Ratio (z) = 0.17874 0.13619
#
# Static dielectric constant tensor:
#      x y z
#    x 1.745990 0.000000 0.000000 
#    y 0.000000 1.734940 0.000000 
#    z 0.000000 0.000000 1.784290 
# 
# From -- ./inp_files/18321.got.cif
#   From: 2010.05.17/outbox.cif.g08.bks.cpg/sg65_10_cif.got.tgz:18321.got - 2010.06.03 17:01:31.
