data_PCOD9493085
_publ_section_title
;
Structure prediction by ZEFSAII (Michael W. Deem and Ramdas Pophale) SiO2 
 PCOD9493085
Probable space group: C M M M
;
_chemical_formula_sum "Si O2"
_cell_formula_units_Z 56
_cell_length_a 14.991023
_cell_length_b 9.645495
_cell_length_c 20.735027
_cell_angle_alpha 90.000000
_cell_angle_beta 90.000000
_cell_angle_gamma 90.000000
_cell_volume 2998.198592
_symmetry_space_group_name_H-M "C M M M"
_symmetry_group_IT_number 65
_symmetry_cell_setting 'orthorhombic'
loop_
_space_group_symop_operation_xyz
x,y,z
-x,-y,z
x,-y,-z
-x,y,-z
-x,-y,-z
x,y,-z
-x,y,z
x,-y,z
1/2+x,1/2+y,z
1/2-x,1/2-y,z
1/2+x,1/2-y,-z
1/2-x,1/2+y,-z
1/2-x,1/2-y,-z
1/2+x,1/2+y,-z
1/2-x,1/2+y,z
1/2+x,1/2-y,z
loop_
_atom_site_type_symbol
_atom_site_label
_atom_site_fract_x
_atom_site_fract_y
_atom_site_fract_z
Si Si1 0.500000 0.834663 0.759738
Si Si2 0.847845 0.748963 0.665761
Si Si3 0.000000 0.671504 0.086959
Si Si4 0.851312 0.178159 0.000000
Si Si5 0.607502 0.000000 0.426259
Si Si6 0.893157 0.000000 0.426271
O O1 0.583386 0.767726 0.723421
O O2 0.500000 0.815914 0.836051
O O3 0.500000 0.000000 0.746172
O O4 0.750000 0.750000 0.694049
O O5 0.859150 0.626225 0.615242
O O6 0.864375 0.874533 0.618046
O O7 0.000000 0.500000 0.073129
O O8 0.087361 0.753626 0.058060
O O9 0.750000 0.250000 0.000000
O O10 0.849237 0.000000 0.000000
O O11 0.500000 0.000000 0.426827
O O12 0.637631 0.000000 0.500000
O O13 0.858964 0.000000 0.500000
O O14 0.000000 0.000000 0.430880
#
# Coordination Sequence:
#
# PCOD9493085 Si02
#       6
#     8  16   8   8   8   8
#     4  11  23  45  63  88 128 169 216 253 304 382
#     4  12  23  39  60  85 117 160 208 264 325 384
#     4  10  22  41  70  99 137 184 217 272 328 369
#     4  11  22  43  72 110 144 173 218 263 308 378
#     4  11  21  39  65  82 109 157 210 264 329 397
#     4  11  23  39  57  84 119 153 202 276 343 387
#
# _framework density 18.677882
#
# number of rings (size 3 to 8) (size 9 to 14) (size 15 to 20)
#    0.000    0.857    4.286    4.286    0.000    6.857 
#    5.143    0.000    0.000    0.000    0.000    0.000 
#    0.000    0.000    0.000    0.000    0.000    0.000 
#
# Total GULP energy -155898.038002 kJ/mol
# GULP energy per Si atom -5567.787072 kJ/mol
# Density = 1.863537 g / cm^3
# Si number density = 18.677882 Si / 1000 Ang^3
#
#
#
# Elastic Constant Matrix: (Units=GPa)
#
#
# Indices 1 2 3 4 5 6 
#
# 1 184.0525 45.8031 70.2509 0.0000 0.0000 0.0000
# 2 45.8031 175.4453 60.4062 0.0000 0.0000 0.0000
# 3 70.2509 60.4062 173.9062 0.0000 0.0000 0.0000
# 4 0.0000 0.0000 0.0000 32.8377 0.0000 0.0000
# 5 0.0000 0.0000 0.0000 0.0000 934.1008 0.0000
# 6 0.0000 0.0000 0.0000 0.0000 0.0000 24.9087
#
#
#
# Elastic Compliance Matrix: (Units=1/GPa)
#
#
# Indices 1 2 3 4 5 6 
#
# 1 0.006548 -0.000907 -0.002330 0.000000 0.000000 0.000000
# 2 -0.000907 0.006600 -0.001926 0.000000 0.000000 0.000000
# 3 -0.002330 -0.001926 0.007360 0.000000 0.000000 0.000000
# 4 0.000000 0.000000 0.000000 0.030453 0.000000 0.000000
# 5 0.000000 0.000000 0.000000 0.000000 0.001071 0.000000
# 6 0.000000 0.000000 0.000000 0.000000 0.000000 0.040147
#
#
# Mechanical properties :
#
#
# Convention : Reuss Voigt Hill
#
# Bulk Modulus (GPa) = 98.21319 98.48049 98.34684
# Shear Modulus (GPa) = 47.21467 222.16569 134.69018
#
# Velocity S-wave (km/s) = 5.03322 10.91806 8.50110
# Velocity P-wave (km/s) = 9.29916 14.55263 12.21174
#
# Compressibility (1/GPa) = 0.01018193
#
# Stress axis : x y z
#
# Youngs Moduli (GPa) = 152.70878 151.52110 135.86101
#
# Poissons Ratio (x) = 0.13748 0.31657
# Poissons Ratio (y) = 0.13855 0.26165
# Poissons Ratio (z) = 0.35583 0.29181
#
# Static dielectric constant tensor:
#      x y z
#    x 1.683150 0.000000 0.000000 
#    y 0.000000 1.640830 0.000000 
#    z 0.000000 0.000000 1.603220 
# 
# From -- ./inp_files/62237.got.cif
#   From: 2010.05.17/outbox.cif.g08.bks.cpg/sg65_32_cif.got.tgz:62237.got - 2010.06.03 17:01:31.
