data_PCOD9493033
_publ_section_title
;
Structure prediction by ZEFSAII (Michael W. Deem and Ramdas Pophale) SiO2 
 PCOD9493033
Probable space group: C M M M
;
_chemical_formula_sum "Si O2"
_cell_formula_units_Z 72
_cell_length_a 17.019126
_cell_length_b 26.377390
_cell_length_c 8.641021
_cell_angle_alpha 90.000000
_cell_angle_beta 90.000000
_cell_angle_gamma 90.000000
_cell_volume 3879.128218
_symmetry_space_group_name_H-M "C M M M"
_symmetry_group_IT_number 65
_symmetry_cell_setting 'orthorhombic'
loop_
_space_group_symop_operation_xyz
x,y,z
-x,-y,z
x,-y,-z
-x,y,-z
-x,-y,-z
x,y,-z
-x,y,z
x,-y,z
1/2+x,1/2+y,z
1/2-x,1/2-y,z
1/2+x,1/2-y,-z
1/2-x,1/2+y,-z
1/2-x,1/2-y,-z
1/2+x,1/2+y,-z
1/2-x,1/2+y,z
1/2+x,1/2-y,z
loop_
_atom_site_type_symbol
_atom_site_label
_atom_site_fract_x
_atom_site_fract_y
_atom_site_fract_z
Si Si1 0.092247 0.876845 0.000000
Si Si2 0.236378 0.940897 0.000000
Si Si3 0.093181 0.272629 0.178174
Si Si4 0.150538 0.825503 0.674225
Si Si5 0.593963 0.059469 0.500000
Si Si6 0.316105 0.872760 0.257072
O O1 0.114142 0.849853 0.166119
O O2 0.144367 0.927506 0.000000
O O3 0.000000 0.884261 0.000000
O O4 0.275641 0.911750 0.858739
O O5 0.251207 0.000000 0.000000
O O6 0.137068 0.233963 0.292144
O O7 0.129345 0.328463 0.189695
O O8 0.000000 0.272594 0.211651
O O9 0.103674 0.255287 0.000000
O O10 0.118347 0.837665 0.500000
O O11 0.241136 0.843141 0.672097
O O12 0.500000 0.061365 0.500000
O O13 0.630085 0.091304 0.360125
O O14 0.617342 0.000000 0.500000
#
# Coordination Sequence:
#
# PCOD9493033 Si02
#       6
#     8   8  16  16   8  16
#     4  10  22  40  63  92 130 167 204 255 317 373
#     4  10  22  40  66  91 113 156 213 265 315 367
#     4  11  23  38  59  90 130 166 203 253 311 374
#     4  11  23  39  63  94 127 168 209 252 302 374
#     4  11  24  42  63  88 123 163 208 265 318 368
#     4  11  22  41  62  88 122 162 208 254 313 372
#
# _framework density 18.560872
#
# number of rings (size 3 to 8) (size 9 to 14) (size 15 to 20)
#    0.000    1.222    3.333    2.667    1.556    3.778 
#    0.000    0.000    0.000    2.667    0.000    3.111 
#    0.000    0.000    0.000    0.000    0.000    0.000 
#
# Total GULP energy -200543.108237 kJ/mol
# GULP energy per Si atom -5570.641895 kJ/mol
# Density = 1.851863 g / cm^3
# Si number density = 18.560872 Si / 1000 Ang^3
#
#
#
# Elastic Constant Matrix: (Units=GPa)
#
#
# Indices 1 2 3 4 5 6 
#
# 1 108.5946 60.5844 52.0303 0.0000 0.0000 0.0000
# 2 60.5844 135.5122 49.1344 0.0000 0.0000 0.0000
# 3 52.0303 49.1344 115.4167 0.0000 0.0000 0.0000
# 4 0.0000 0.0000 0.0000 16.1702 0.0000 0.0000
# 5 0.0000 0.0000 0.0000 0.0000 17.2834 0.0000
# 6 0.0000 0.0000 0.0000 0.0000 0.0000 30.0023
#
#
#
# Elastic Compliance Matrix: (Units=1/GPa)
#
#
# Indices 1 2 3 4 5 6 
#
# 1 0.013841 -0.004642 -0.004263 0.000000 0.000000 0.000000
# 2 -0.004642 0.010283 -0.002285 0.000000 0.000000 0.000000
# 3 -0.004263 -0.002285 0.011559 0.000000 0.000000 0.000000
# 4 0.000000 0.000000 0.000000 0.061842 0.000000 0.000000
# 5 0.000000 0.000000 0.000000 0.000000 0.057859 0.000000
# 6 0.000000 0.000000 0.000000 0.000000 0.000000 0.033331
#
#
# Mechanical properties :
#
#
# Convention : Reuss Voigt Hill
#
# Bulk Modulus (GPa) = 75.17555 75.89128 75.53341
# Shear Modulus (GPa) = 23.19856 25.87615 24.53735
#
# Velocity S-wave (km/s) = 3.53918 3.73785 3.63987
# Velocity P-wave (km/s) = 7.56909 7.72044 7.64514
#
# Compressibility (1/GPa) = 0.01330220
#
# Stress axis : x y z
#
# Youngs Moduli (GPa) = 72.24851 97.24457 86.51293
#
# Poissons Ratio (x) = 0.45143 0.36884
# Poissons Ratio (y) = 0.33539 0.19768
# Poissons Ratio (z) = 0.30802 0.22221
#
# Static dielectric constant tensor:
#      x y z
#    x 1.616770 0.000000 0.000000 
#    y 0.000000 1.607920 0.000000 
#    z 0.000000 0.000000 1.719680 
# 
# From -- ./inp_files/7387.got.cif
#   From: 2010.05.17/outbox.cif.g08.bks.cpg/sg65_4_cif.got.tgz:7387.got - 2010.06.03 17:01:31.
