data_PCOD9493280
_publ_section_title
;
Structure prediction by ZEFSAII (Michael W. Deem and Ramdas Pophale) SiO2 
 PCOD9493280
Probable space group: C M M M
;
_chemical_formula_sum "Si O2"
_cell_formula_units_Z 80
_cell_length_a 33.929782
_cell_length_b 19.978691
_cell_length_c 8.707490
_cell_angle_alpha 90.000000
_cell_angle_beta 90.000000
_cell_angle_gamma 90.000000
_cell_volume 5902.569149
_symmetry_space_group_name_H-M "C M M M"
_symmetry_group_IT_number 65
_symmetry_cell_setting 'orthorhombic'
loop_
_space_group_symop_operation_xyz
x,y,z
-x,-y,z
x,-y,-z
-x,y,-z
-x,-y,-z
x,y,-z
-x,y,z
x,-y,z
1/2+x,1/2+y,z
1/2-x,1/2-y,z
1/2+x,1/2-y,-z
1/2-x,1/2+y,-z
1/2-x,1/2-y,-z
1/2+x,1/2+y,-z
1/2-x,1/2+y,z
1/2+x,1/2-y,z
loop_
_atom_site_type_symbol
_atom_site_label
_atom_site_fract_x
_atom_site_fract_y
_atom_site_fract_z
Si Si1 0.687394 0.722200 0.685522
Si Si2 0.045218 0.077975 0.315055
Si Si3 0.335623 0.500000 0.683400
Si Si4 0.742115 0.000000 0.685402
Si Si5 0.267868 0.853207 0.687008
Si Si6 0.377377 0.631486 0.182290
O O1 0.684562 0.720101 0.500000
O O2 0.700719 0.796755 0.733019
O O3 0.724318 0.674081 0.729252
O O4 0.647470 0.694267 0.756124
O O5 0.048321 0.081117 0.500000
O O6 0.077994 0.124860 0.241471
O O7 0.000000 0.093569 0.273123
O O8 0.052739 0.000000 0.271326
O O9 0.341490 0.500000 0.500000
O O10 0.289004 0.500000 0.713680
O O11 0.355321 0.434041 0.751855
O O12 0.725819 0.928853 0.742690
O O13 0.737072 0.000000 0.500000
O O14 0.268055 0.854119 0.500000
O O15 0.376581 0.630232 0.000000
#
# Coordination Sequence:
#
# PCOD9493280 Si02
#       6
#    16  16   8   8  16  16
#     4   9  16  28  43  58  78 108 141 172 205 246
#     4   9  18  32  48  62  77 103 138 170 202 242
#     4  11  19  29  44  58  77 107 143 177 207 242
#     4   9  14  23  43  64  76  97 138 188 218 232
#     4   8  14  24  41  62  79 100 141 182 209 237
#     4  12  22  29  40  61  86 108 135 172 211 248
#
# _framework density 13.553421
#
# number of rings (size 3 to 8) (size 9 to 14) (size 15 to 20)
#    0.000    2.400    3.000    3.900    0.000    0.400 
#    0.000    3.000    0.000    0.000    0.000    0.000 
#    0.000    0.000    0.000    0.900    0.000   20.600 
#
# Total GULP energy -222921.249679 kJ/mol
# GULP energy per Si atom -5573.031242 kJ/mol
# Density = 1.352257 g / cm^3
# Si number density = 13.553421 Si / 1000 Ang^3
#
#
#
# Elastic Constant Matrix: (Units=GPa)
#
#
# Indices 1 2 3 4 5 6 
#
# 1 95.0058 55.0765 34.3386 0.0000 0.0000 0.0000
# 2 55.0765 106.7662 19.6896 0.0000 0.0000 0.0000
# 3 34.3386 19.6896 29.8145 0.0000 0.0000 0.0000
# 4 0.0000 0.0000 0.0000 5.2450 0.0000 0.0000
# 5 0.0000 0.0000 0.0000 0.0000 -24.6720 0.0000
# 6 0.0000 0.0000 0.0000 0.0000 0.0000 20.9749
#
#
#
# Elastic Compliance Matrix: (Units=1/GPa)
#
#
# Indices 1 2 3 4 5 6 
#
# 1 0.022593 -0.007807 -0.020866 0.000000 0.000000 0.000000
# 2 -0.007807 0.013363 0.000167 0.000000 0.000000 0.000000
# 3 -0.020866 0.000167 0.057463 0.000000 0.000000 0.000000
# 4 0.000000 0.000000 0.000000 0.190658 0.000000 0.000000
# 5 0.000000 0.000000 0.000000 0.000000 -0.040532 0.000000
# 6 0.000000 0.000000 0.000000 0.000000 0.000000 0.047676
#
#
# Mechanical properties :
#
#
# Convention : Reuss Voigt Hill
#
# Bulk Modulus (GPa) = 27.46753 49.97731 38.72242
# Shear Modulus (GPa) = 13.87468 8.47503 11.17486
#
# Velocity S-wave (km/s) = 3.20301 2.50332 2.87453
# Velocity P-wave (km/s) = 5.83002 6.73126 6.29679
#
# Compressibility (1/GPa) = 0.03640663
#
# Stress axis : x y z
#
# Youngs Moduli (GPa) = 44.26124 74.83466 17.40261
#
# Poissons Ratio (x) = 0.58423 0.36312
# Poissons Ratio (y) = 0.34554 -0.00290
# Poissons Ratio (z) = 0.92354 -0.01247
#
# Static dielectric constant tensor:
#      x y z
#    x 1.438200 0.000000 0.000000 
#    y 0.000000 1.457220 0.000000 
#    z 0.000000 0.000000 1.445580 
# 
# From -- ./inp_files/18443.got.cif
#   From: 2010.05.17/outbox.cif.g08.bks.cpg/sg65_10_cif.got.tgz:18443.got - 2010.06.03 17:01:31.
