data_PCOD9493334
_publ_section_title
;
Structure prediction by ZEFSAII (Michael W. Deem and Ramdas Pophale) SiO2 
 PCOD9493334
Probable space group: C M M M
;
_chemical_formula_sum "Si O2"
_cell_formula_units_Z 88
_cell_length_a 19.402064
_cell_length_b 29.343679
_cell_length_c 8.020927
_cell_angle_alpha 90.000000
_cell_angle_beta 90.000000
_cell_angle_gamma 90.000000
_cell_volume 4566.537829
_symmetry_space_group_name_H-M "C M M M"
_symmetry_group_IT_number 65
_symmetry_cell_setting 'orthorhombic'
loop_
_space_group_symop_operation_xyz
x,y,z
-x,-y,z
x,-y,-z
-x,y,-z
-x,-y,-z
x,y,-z
-x,y,z
x,-y,z
1/2+x,1/2+y,z
1/2-x,1/2-y,z
1/2+x,1/2-y,-z
1/2-x,1/2+y,-z
1/2-x,1/2-y,-z
1/2+x,1/2+y,-z
1/2-x,1/2+y,z
1/2+x,1/2-y,z
loop_
_atom_site_type_symbol
_atom_site_label
_atom_site_fract_x
_atom_site_fract_y
_atom_site_fract_z
Si Si1 0.821358 0.915879 0.805195
Si Si2 0.657144 0.786126 0.696219
Si Si3 0.578210 0.932159 0.000000
Si Si4 0.176313 0.552819 0.684227
Si Si5 0.419443 0.500000 0.796586
Si Si6 0.425069 0.175598 0.000000
Si Si7 0.315259 0.682959 0.696135
O O1 0.747088 0.920460 0.717359
O O2 0.876395 0.954286 0.746398
O O3 0.841085 0.862720 0.785203
O O4 0.809409 0.925619 0.000000
O O5 0.640853 0.792165 0.500000
O O6 0.611526 0.810924 0.830078
O O7 0.652424 0.732138 0.735879
O O8 0.734214 0.805964 0.721794
O O9 0.621865 0.943452 0.165963
O O10 0.500000 0.950617 0.000000
O O11 0.571903 0.878285 0.000000
O O12 0.148542 0.565238 0.500000
O O13 0.197366 0.500000 0.680769
O O14 0.500000 0.500000 0.741379
O O15 0.421251 0.500000 0.000000
O O16 0.500000 0.196987 0.000000
O O17 0.325164 0.674922 0.500000
#
# Coordination Sequence:
#
# PCOD9493334 Si02
#       7
#    16  16   8  16   8   8  16
#     4  11  20  33  60  91 119 157 201 249 300 355
#     4   9  20  38  58  85 118 150 189 246 298 348
#     4  11  25  42  60  88 123 157 201 250 298 362
#     4  11  23  39  62  89 121 160 203 250 298 348
#     4   9  20  38  57  83 123 163 199 244 301 362
#     4  11  24  38  57  83 111 155 200 230 285 359
#     4   9  19  35  58  87 116 147 190 243 303 352
#
# _framework density 19.270617000000001
#
# number of rings (size 3 to 8) (size 9 to 14) (size 15 to 20)
#    0.000    1.909    1.818    3.000    2.545    4.364 
#    0.000    3.636    0.000    5.455    0.000    0.000 
#    0.000    0.000    0.000    0.000    0.000    0.000 
#
# Total GULP energy -245313.414858 kJ/mol
# GULP energy per Si atom -5575.304883 kJ/mol
# Density = 1.922676 g / cm^3
# Si number density = 19.270617 Si / 1000 Ang^3
#
#
#
# Elastic Constant Matrix: (Units=GPa)
#
#
# Indices 1 2 3 4 5 6 
#
# 1 47.7677 27.8773 26.7544 0.0000 0.0000 0.0000
# 2 27.8773 123.2454 31.6923 0.0000 0.0000 0.0000
# 3 26.7544 31.6923 67.1395 0.0000 0.0000 0.0000
# 4 0.0000 0.0000 0.0000 38.9616 0.0000 0.0000
# 5 0.0000 0.0000 0.0000 0.0000 -6.3244 0.0000
# 6 0.0000 0.0000 0.0000 0.0000 0.0000 20.6179
#
#
#
# Elastic Compliance Matrix: (Units=1/GPa)
#
#
# Indices 1 2 3 4 5 6 
#
# 1 0.028605 -0.004028 -0.009497 0.000000 0.000000 0.000000
# 2 -0.004028 0.009802 -0.003022 0.000000 0.000000 0.000000
# 3 -0.009497 -0.003022 0.020105 0.000000 0.000000 0.000000
# 4 0.000000 0.000000 0.000000 0.025666 0.000000 0.000000
# 5 0.000000 0.000000 0.000000 0.000000 -0.158119 0.000000
# 6 0.000000 0.000000 0.000000 0.000000 0.000000 0.048501
#
#
# Mechanical properties :
#
#
# Convention : Reuss Voigt Hill
#
# Bulk Modulus (GPa) = 39.34237 45.64451 42.49344
# Shear Modulus (GPa) = 310.01612 20.77295 165.39453
#
# Velocity S-wave (km/s) = 12.69741 3.28679 9.27435
# Velocity P-wave (km/s) = 15.34359 6.17588 11.69545
#
# Compressibility (1/GPa) = 0.02541789
#
# Stress axis : x y z
#
# Youngs Moduli (GPa) = 34.95918 102.01951 49.73794
#
# Poissons Ratio (x) = 0.41093 0.47238
# Poissons Ratio (y) = 0.14082 0.15030
# Poissons Ratio (z) = 0.33202 0.30828
#
# Static dielectric constant tensor:
#      x y z
#    x 1.715670 0.000000 0.000000 
#    y 0.000000 1.702370 0.000000 
#    z 0.000000 0.000000 1.682880 
# 
# From -- ./inp_files/10181.got.cif
#   From: 2010.05.17/outbox.cif.g08.bks.cpg/sg65_6_cif.got.tgz:10181.got - 2010.06.03 17:01:31.
