data_PCOD9493440
_publ_section_title
;
Structure prediction by ZEFSAII (Michael W. Deem and Ramdas Pophale) SiO2 
 PCOD9493440
Probable space group: C M M M
;
_chemical_formula_sum "Si O2"
_cell_formula_units_Z 56
_cell_length_a 8.704024
_cell_length_b 29.480559
_cell_length_c 13.182105
_cell_angle_alpha 90.000000
_cell_angle_beta 90.000000
_cell_angle_gamma 90.000000
_cell_volume 3382.521461
_symmetry_space_group_name_H-M "C M M M"
_symmetry_group_IT_number 65
_symmetry_cell_setting 'orthorhombic'
loop_
_space_group_symop_operation_xyz
x,y,z
-x,-y,z
x,-y,-z
-x,y,-z
-x,-y,-z
x,y,-z
-x,y,z
x,-y,z
1/2+x,1/2+y,z
1/2-x,1/2-y,z
1/2+x,1/2-y,-z
1/2-x,1/2+y,-z
1/2-x,1/2-y,-z
1/2+x,1/2+y,-z
1/2-x,1/2+y,z
1/2+x,1/2-y,z
loop_
_atom_site_type_symbol
_atom_site_label
_atom_site_fract_x
_atom_site_fract_y
_atom_site_fract_z
Si Si1 0.683707 0.300838 0.500000
Si Si2 0.314732 0.799967 0.885257
Si Si3 0.315985 0.856378 0.309572
Si Si4 0.815413 0.948746 0.379982
O O1 0.500000 0.299328 0.500000
O O2 0.750000 0.250000 0.500000
O O3 0.741646 0.327811 0.401083
O O4 0.500000 0.797526 0.884288
O O5 0.250000 0.750000 0.863110
O O6 0.267626 0.834550 0.797493
O O7 0.266327 0.812468 0.000000
O O8 0.500000 0.853153 0.318523
O O9 0.264633 0.908289 0.320857
O O10 0.780138 0.943558 0.500000
O O11 0.000000 0.944895 0.370129
O O12 0.771143 0.000000 0.349994
#
# Coordination Sequence:
#
# PCOD9493440 Si02
#       4
#     8  16  16  16
#     4  12  24  36  49  70 105 140 168 203 251 303
#     4   9  19  35  53  74 101 133 170 211 251 295
#     4  11  21  33  52  78 104 132 169 209 253 304
#     4   9  18  33  52  74 102 136 170 207 253 301
#
# _framework density 16.555696999999999
#
# number of rings (size 3 to 8) (size 9 to 14) (size 15 to 20)
#    0.000    2.000    1.429    3.857    0.000    5.143 
#    0.000    1.429    0.000    0.857    0.000    6.000 
#    0.000    0.000    0.000    0.000    0.000    0.000 
#
# Total GULP energy -156283.029935 kJ/mol
# GULP energy per Si atom -5581.536783 kJ/mol
# Density = 1.651802 g / cm^3
# Si number density = 16.555697 Si / 1000 Ang^3
#
#
#
# Elastic Constant Matrix: (Units=GPa)
#
#
# Indices 1 2 3 4 5 6 
#
# 1 46.0798 48.7643 43.4887 0.0000 0.0000 0.0000
# 2 48.7643 156.9352 98.1743 0.0000 0.0000 0.0000
# 3 43.4887 98.1743 121.8867 0.0000 0.0000 0.0000
# 4 0.0000 0.0000 0.0000 19.7552 0.0000 0.0000
# 5 0.0000 0.0000 0.0000 0.0000 7.4264 0.0000
# 6 0.0000 0.0000 0.0000 0.0000 0.0000 32.8335
#
#
#
# Elastic Compliance Matrix: (Units=1/GPa)
#
#
# Indices 1 2 3 4 5 6 
#
# 1 0.035537 -0.006269 -0.007630 0.000000 0.000000 0.000000
# 2 -0.006269 0.013950 -0.008999 0.000000 0.000000 0.000000
# 3 -0.007630 -0.008999 0.018175 0.000000 0.000000 0.000000
# 4 0.000000 0.000000 0.000000 0.050620 0.000000 0.000000
# 5 0.000000 0.000000 0.000000 0.000000 0.134655 0.000000
# 6 0.000000 0.000000 0.000000 0.000000 0.000000 0.030457
#
#
# Mechanical properties :
#
#
# Convention : Reuss Voigt Hill
#
# Bulk Modulus (GPa) = 45.73463 78.41735 62.07599
# Shear Modulus (GPa) = 14.85988 20.96798 17.91393
#
# Velocity S-wave (km/s) = 2.99920 3.56267 3.29301
# Velocity P-wave (km/s) = 6.29907 8.02447 7.21354
#
# Compressibility (1/GPa) = 0.02186527
#
# Stress axis : x y z
#
# Youngs Moduli (GPa) = 28.13988 71.68681 55.02140
#
# Poissons Ratio (x) = 0.44943 0.41979
# Poissons Ratio (y) = 0.17642 0.49513
# Poissons Ratio (z) = 0.21470 0.64510
#
# Static dielectric constant tensor:
#      x y z
#    x 1.556750 0.000000 0.000000 
#    y 0.000000 1.540920 0.000000 
#    z 0.000000 0.000000 1.551290 
# 
# From -- ./inp_files/20421.got.cif
#   From: 2010.05.17/outbox.cif.g08.bks.cpg/sg65_11_cif.got.tgz:20421.got - 2010.06.03 17:01:31.
