data_PCOD9493161
_publ_section_title
;
Structure prediction by ZEFSAII (Michael W. Deem and Ramdas Pophale) SiO2 
 PCOD9493161
Probable space group: C M M M
;
_chemical_formula_sum "Si O2"
_cell_formula_units_Z 88
_cell_length_a 23.812823
_cell_length_b 9.497020
_cell_length_c 20.796547
_cell_angle_alpha 90.000000
_cell_angle_beta 90.000000
_cell_angle_gamma 90.000000
_cell_volume 4703.156912
_symmetry_space_group_name_H-M "C M M M"
_symmetry_group_IT_number 65
_symmetry_cell_setting 'orthorhombic'
loop_
_space_group_symop_operation_xyz
x,y,z
-x,-y,z
x,-y,-z
-x,y,-z
-x,-y,-z
x,y,-z
-x,y,z
x,-y,z
1/2+x,1/2+y,z
1/2-x,1/2-y,z
1/2+x,1/2-y,-z
1/2-x,1/2+y,-z
1/2-x,1/2-y,-z
1/2+x,1/2+y,-z
1/2-x,1/2+y,z
1/2+x,1/2-y,z
loop_
_atom_site_type_symbol
_atom_site_label
_atom_site_fract_x
_atom_site_fract_y
_atom_site_fract_z
Si Si1 0.500000 0.749508 0.075570
Si Si2 0.094807 0.330283 0.302359
Si Si3 0.804597 0.339612 0.222154
Si Si4 0.875078 0.344976 0.905272
Si Si5 0.567694 0.339626 0.573032
Si Si6 0.692369 0.335264 0.000000
Si Si7 0.500000 0.663741 0.777048
O O1 0.558571 0.832604 0.083008
O O2 0.500000 0.665097 0.144315
O O3 0.500000 0.693095 0.000000
O O4 0.086035 0.500000 0.296498
O O5 0.159157 0.297567 0.283715
O O6 0.084462 0.272470 0.373520
O O7 0.052788 0.246368 0.254328
O O8 0.785645 0.500000 0.228653
O O9 0.750000 0.250000 0.207116
O O10 0.851784 0.336452 0.166507
O O11 0.856854 0.500000 0.928856
O O12 0.844736 0.217511 0.940719
O O13 0.586369 0.308337 0.500000
O O14 0.500000 0.341462 0.572424
O O15 0.585815 0.500000 0.589626
O O16 0.750000 0.250000 0.000000
O O17 0.702275 0.500000 0.000000
O O18 0.500000 0.500000 0.756586
#
# Coordination Sequence:
#
# PCOD9493161 Si02
#       7
#     8  16  16  16  16   8   8
#     4  12  25  43  65  94 124 163 203 249 305 383
#     4  11  22  38  61  91 125 161 206 259 306 361
#     4  10  23  41  62  87 117 152 201 259 309 364
#     4  11  23  42  65  90 118 154 197 246 307 371
#     4   9  18  33  55  89 132 171 206 245 297 363
#     4  12  26  43  62  85 115 152 200 254 305 362
#     4  12  25  40  61  89 123 163 204 252 311 370
#
# _framework density 18.710836
#
# number of rings (size 3 to 8) (size 9 to 14) (size 15 to 20)
#    0.000    1.273    3.636    3.000    0.000    6.000 
#    0.000    0.909    0.000    0.545    0.000    0.000 
#    0.000    0.000    0.000    0.000    0.000    0.000 
#
# Total GULP energy -245234.614060 kJ/mol
# GULP energy per Si atom -5573.513956 kJ/mol
# Density = 1.866825 g / cm^3
# Si number density = 18.710836 Si / 1000 Ang^3
#
#
#
# Elastic Constant Matrix: (Units=GPa)
#
#
# Indices 1 2 3 4 5 6 
#
# 1 106.6187 49.4200 25.0983 0.0000 0.0000 0.0000
# 2 49.4200 114.6075 41.9529 0.0000 0.0000 0.0000
# 3 25.0983 41.9529 102.5233 0.0000 0.0000 0.0000
# 4 0.0000 0.0000 0.0000 89.5325 0.0000 0.0000
# 5 0.0000 0.0000 0.0000 0.0000 -11.7302 0.0000
# 6 0.0000 0.0000 0.0000 0.0000 0.0000 -7.8841
#
#
#
# Elastic Compliance Matrix: (Units=1/GPa)
#
#
# Indices 1 2 3 4 5 6 
#
# 1 0.011800 -0.004741 -0.000949 0.000000 0.000000 0.000000
# 2 -0.004741 0.012168 -0.003818 0.000000 0.000000 0.000000
# 3 -0.000949 -0.003818 0.011549 0.000000 0.000000 0.000000
# 4 0.000000 0.000000 0.000000 0.011169 0.000000 0.000000
# 5 0.000000 0.000000 0.000000 0.000000 -0.085250 0.000000
# 6 0.000000 0.000000 0.000000 0.000000 0.000000 -0.126838
#
#
# Mechanical properties :
#
#
# Convention : Reuss Voigt Hill
#
# Bulk Modulus (GPa) = 60.60578 61.85464 61.23021
# Shear Modulus (GPa) = -35.48965 27.80219 -3.84373
#
# Velocity S-wave (km/s) = -4.35989 3.85890 -1.43483
# Velocity P-wave (km/s) = 2.66763 7.27907 5.48184
#
# Compressibility (1/GPa) = 0.01650008
#
# Stress axis : x y z
#
# Youngs Moduli (GPa) = 84.74483 82.18558 86.59052
#
# Poissons Ratio (x) = 0.38965 0.08215
# Poissons Ratio (y) = 0.40178 0.33064
# Poissons Ratio (z) = 0.08039 0.31382
#
# Static dielectric constant tensor:
#      x y z
#    x 1.630660 0.000000 0.000000 
#    y 0.000000 1.646040 0.000000 
#    z 0.000000 0.000000 1.716680 
# 
# From -- ./inp_files/65273.got.cif
#   From: 2010.05.17/outbox.cif.g08.bks.cpg/sg65_33_cif.got.tgz:65273.got - 2010.06.03 17:01:31.
