data_PCOD9493101
_publ_section_title
;
Structure prediction by ZEFSAII (Michael W. Deem and Ramdas Pophale) SiO2 
 PCOD9493101
Probable space group: C M M M
;
_chemical_formula_sum "Si O2"
_cell_formula_units_Z 56
_cell_length_a 23.563785
_cell_length_b 13.754744
_cell_length_c 10.656187
_cell_angle_alpha 90.000000
_cell_angle_beta 90.000000
_cell_angle_gamma 90.000000
_cell_volume 3453.817585
_symmetry_space_group_name_H-M "C M M M"
_symmetry_group_IT_number 65
_symmetry_cell_setting 'orthorhombic'
loop_
_space_group_symop_operation_xyz
x,y,z
-x,-y,z
x,-y,-z
-x,y,-z
-x,-y,-z
x,y,-z
-x,y,z
x,-y,z
1/2+x,1/2+y,z
1/2-x,1/2-y,z
1/2+x,1/2-y,-z
1/2-x,1/2+y,-z
1/2-x,1/2-y,-z
1/2+x,1/2+y,-z
1/2-x,1/2+y,z
1/2+x,1/2-y,z
loop_
_atom_site_type_symbol
_atom_site_label
_atom_site_fract_x
_atom_site_fract_y
_atom_site_fract_z
Si Si1 0.307099 0.500000 0.000000
Si Si2 0.320141 0.725875 0.500000
Si Si3 0.145462 0.667958 0.246939
Si Si4 0.689589 0.500000 0.500000
Si Si5 0.318005 0.278966 0.000000
Si Si6 0.263637 0.000000 0.252245
Si Si7 0.932246 0.500000 0.148674
O O1 0.333538 0.393043 0.000000
O O2 0.270171 0.500000 0.875243
O O3 0.250000 0.750000 0.500000
O O4 0.348937 0.772674 0.376126
O O5 0.334521 0.610405 0.500000
O O6 0.155596 0.734128 0.125651
O O7 0.197957 0.594399 0.253601
O O8 0.092824 0.595759 0.217675
O O9 0.725699 0.500000 0.373727
O O10 0.250000 0.250000 0.000000
O O11 0.000000 0.500000 0.151398
O O12 0.913764 0.500000 0.000000
#
# Coordination Sequence:
#
# PCOD9493101 Si02
#       7
#     4   8  16   4   8   8   8
#     4  12  22  26  46  72 108 146 194 236 252 340
#     4  12  22  36  50  81 120 166 193 225 277 345
#     4  11  21  35  55  80 114 152 189 239 295 341
#     4  12  22  32  50  72 114 168 192 210 262 336
#     4  12  20  32  48  77 110 158 197 233 281 343
#     4  11  18  30  47  73 104 151 192 219 270 331
#     4  10  22  42  67  91 111 143 197 260 314 348
#
# _framework density 16.213941999999999
#
# number of rings (size 3 to 8) (size 9 to 14) (size 15 to 20)
#    0.000    0.714    7.143    2.571    2.000    1.714 
#    0.000    1.429    0.000    0.000    0.000    6.000 
#    0.000    0.000    0.000    0.000    0.000    0.000 
#
# Total GULP energy -155979.561404 kJ/mol
# GULP energy per Si atom -5570.698622 kJ/mol
# Density = 1.617704 g / cm^3
# Si number density = 16.213942 Si / 1000 Ang^3
#
#
#
# Elastic Constant Matrix: (Units=GPa)
#
#
# Indices 1 2 3 4 5 6 
#
# 1 50.7943 31.4898 39.6280 0.0000 0.0000 0.0000
# 2 31.4898 175.0411 77.7654 0.0000 0.0000 0.0000
# 3 39.6280 77.7654 170.2706 0.0000 0.0000 0.0000
# 4 0.0000 0.0000 0.0000 50.4983 0.0000 0.0000
# 5 0.0000 0.0000 0.0000 0.0000 17.7597 0.0000
# 6 0.0000 0.0000 0.0000 0.0000 0.0000 -37.5698
#
#
#
# Elastic Compliance Matrix: (Units=1/GPa)
#
#
# Indices 1 2 3 4 5 6 
#
# 1 0.024822 -0.002382 -0.004689 0.000000 0.000000 0.000000
# 2 -0.002382 0.007396 -0.002823 0.000000 0.000000 0.000000
# 3 -0.004689 -0.002823 0.008254 0.000000 0.000000 0.000000
# 4 0.000000 0.000000 0.000000 0.019803 0.000000 0.000000
# 5 0.000000 0.000000 0.000000 0.000000 0.056307 0.000000
# 6 0.000000 0.000000 0.000000 0.000000 0.000000 -0.026617
#
#
# Mechanical properties :
#
#
# Convention : Reuss Voigt Hill
#
# Bulk Modulus (GPa) = 48.34976 77.09691 62.72334
# Shear Modulus (GPa) = 42.86387 22.61917 32.74152
#
# Velocity S-wave (km/s) = 5.14721 3.73908 4.49859
# Velocity P-wave (km/s) = 8.07525 8.14211 8.10875
#
# Compressibility (1/GPa) = 0.02068262
#
# Stress axis : x y z
#
# Youngs Moduli (GPa) = 40.28619 135.21086 121.15672
#
# Poissons Ratio (x) = 0.32212 0.56810
# Poissons Ratio (y) = 0.09598 0.34207
# Poissons Ratio (z) = 0.18890 0.38175
#
# Static dielectric constant tensor:
#      x y z
#    x 1.522610 0.000000 0.000000 
#    y 0.000000 1.606100 0.000000 
#    z 0.000000 0.000000 1.580280 
# 
# From -- ./inp_files/30135.got.cif
#   From: 2010.05.17/outbox.cif.g08.bks.cpg/sg65_16_cif.got.tgz:30135.got - 2010.06.03 17:01:31.
