data_PCOD9493529
_publ_section_title
;
Structure prediction by ZEFSAII (Michael W. Deem and Ramdas Pophale) SiO2 
 PCOD9493529
Probable space group: C M M M
;
_chemical_formula_sum "Si O2"
_cell_formula_units_Z 58
_cell_length_a 31.719123
_cell_length_b 7.929289
_cell_length_c 12.456864
_cell_angle_alpha 90.000000
_cell_angle_beta 90.000000
_cell_angle_gamma 90.000000
_cell_volume 3133.027024
_symmetry_space_group_name_H-M "C M M M"
_symmetry_group_IT_number 65
_symmetry_cell_setting 'orthorhombic'
loop_
_space_group_symop_operation_xyz
x,y,z
-x,-y,z
x,-y,-z
-x,y,-z
-x,-y,-z
x,y,-z
-x,y,z
x,-y,z
1/2+x,1/2+y,z
1/2-x,1/2-y,z
1/2+x,1/2-y,-z
1/2-x,1/2+y,-z
1/2-x,1/2-y,-z
1/2+x,1/2+y,-z
1/2-x,1/2+y,z
1/2+x,1/2-y,z
loop_
_atom_site_type_symbol
_atom_site_label
_atom_site_fract_x
_atom_site_fract_y
_atom_site_fract_z
Si Si1 0.434722 0.186695 0.000000
Si Si2 0.384693 0.299614 0.203414
Si Si3 0.500000 0.500000 0.000000
Si Si4 0.953102 0.296389 0.374843
Si Si5 0.203073 0.202163 0.123445
O O1 0.406624 0.204310 0.894268
O O2 0.464342 0.349293 0.000000
O O3 0.454227 0.000000 0.000000
O O4 0.385898 0.500000 0.181798
O O5 0.413811 0.267858 0.306637
O O6 0.335651 0.245884 0.199707
O O7 0.950027 0.247860 0.500000
O O8 0.952858 0.500000 0.369843
O O9 0.000000 0.240746 0.334749
O O10 0.250000 0.250000 0.158740
O O11 0.202081 0.000000 0.117939
O O12 0.196887 0.265273 0.000000
#
# Coordination Sequence:
#
# PCOD9493529 Si02
#       5
#     8  16   2  16  16
#     4  12  25  39  58  83 116 162 197 231 295 350
#     4  11  21  37  56  82 120 150 187 243 288 345
#     4  12  26  44  52  78 126 156 198 248 276 348
#     4   9  20  38  57  79 108 146 196 246 287 338
#     4   9  18  33  53  77 112 148 183 232 287 340
#
# _framework density 18.512447000000002
#
# number of rings (size 3 to 8) (size 9 to 14) (size 15 to 20)
#    0.000    1.931    2.759    1.862    1.931    3.310 
#    0.000    1.379    0.000    0.828    0.000    0.000 
#    0.000    0.000    0.000    0.000    0.000    0.000 
#
# Total GULP energy -161442.567108 kJ/mol
# GULP energy per Si atom -5566.985073 kJ/mol
# Density = 1.847031 g / cm^3
# Si number density = 18.512447 Si / 1000 Ang^3
#
#
#
# Elastic Constant Matrix: (Units=GPa)
#
#
# Indices 1 2 3 4 5 6 
#
# 1 207.3186 41.0554 67.8616 0.0000 0.0000 0.0000
# 2 41.0554 80.9720 14.4342 0.0000 0.0000 0.0000
# 3 67.8616 14.4342 61.2421 0.0000 0.0000 0.0000
# 4 0.0000 0.0000 0.0000 21.9791 0.0000 0.0000
# 5 0.0000 0.0000 0.0000 0.0000 -0.9910 0.0000
# 6 0.0000 0.0000 0.0000 0.0000 0.0000 -213.1239
#
#
#
# Elastic Compliance Matrix: (Units=1/GPa)
#
#
# Indices 1 2 3 4 5 6 
#
# 1 0.008063 -0.002605 -0.008320 0.000000 0.000000 0.000000
# 2 -0.002605 0.013733 -0.000350 0.000000 0.000000 0.000000
# 3 -0.008320 -0.000350 0.025631 0.000000 0.000000 0.000000
# 4 0.000000 0.000000 0.000000 0.045498 0.000000 0.000000
# 5 0.000000 0.000000 0.000000 0.000000 -1.009116 0.000000
# 6 0.000000 0.000000 0.000000 0.000000 0.000000 -0.004692
#
#
# Mechanical properties :
#
#
# Convention : Reuss Voigt Hill
#
# Bulk Modulus (GPa) = 40.19982 66.24834 53.22408
# Shear Modulus (GPa) = -5.61772 -23.34838 -14.48305
#
# Velocity S-wave (km/s) = -1.74389 -3.55523 -2.80007
# Velocity P-wave (km/s) = 4.20800 4.36012 4.28474
#
# Compressibility (1/GPa) = 0.02487574
#
# Stress axis : x y z
#
# Youngs Moduli (GPa) = 124.02534 72.81641 39.01534
#
# Poissons Ratio (x) = 0.18968 0.32462
# Poissons Ratio (y) = 0.32308 0.01367
# Poissons Ratio (z) = 1.03194 0.02551
#
# Static dielectric constant tensor:
#      x y z
#    x 1.669130 0.000000 0.000000 
#    y 0.000000 1.663170 0.000000 
#    z 0.000000 0.000000 1.622400 
# 
# From -- ./inp_files/20807.got.cif
#   From: 2010.05.17/outbox.cif.g08.bks.cpg/sg65_11_cif.got.tgz:20807.got - 2010.06.03 17:01:31.
