data_PCOD9493624
_publ_section_title
;
Structure prediction by ZEFSAII (Michael W. Deem and Ramdas Pophale) SiO2 
 PCOD9493624
Probable space group: C M M M
;
_chemical_formula_sum "Si O2"
_cell_formula_units_Z 96
_cell_length_a 21.483578
_cell_length_b 21.490657
_cell_length_c 11.517741
_cell_angle_alpha 90.000000
_cell_angle_beta 90.000000
_cell_angle_gamma 90.000000
_cell_volume 5317.697321
_symmetry_space_group_name_H-M "C M M M"
_symmetry_group_IT_number 65
_symmetry_cell_setting 'orthorhombic'
loop_
_space_group_symop_operation_xyz
x,y,z
-x,-y,z
x,-y,-z
-x,y,-z
-x,-y,-z
x,y,-z
-x,y,z
x,-y,z
1/2+x,1/2+y,z
1/2-x,1/2-y,z
1/2+x,1/2-y,-z
1/2-x,1/2+y,-z
1/2-x,1/2-y,-z
1/2+x,1/2+y,-z
1/2-x,1/2+y,z
1/2+x,1/2-y,z
loop_
_atom_site_type_symbol
_atom_site_label
_atom_site_fract_x
_atom_site_fract_y
_atom_site_fract_z
Si Si1 0.070579 0.500000 0.137839
Si Si2 0.134541 0.619274 0.248187
Si Si3 0.336324 0.926022 0.500000
Si Si4 0.873635 0.139462 0.705707
Si Si5 0.740436 0.675950 0.860909
Si Si6 0.302831 0.425713 0.500000
Si Si7 0.000000 0.075220 0.358325
Si Si8 0.573552 0.770499 0.366419
O O1 0.105360 0.563062 0.175580
O O2 0.000000 0.500000 0.186296
O O3 0.067282 0.500000 0.000000
O O4 0.135513 0.594017 0.379199
O O5 0.202246 0.639220 0.199862
O O6 0.093574 0.681193 0.266568
O O7 0.266596 0.900442 0.500000
O O8 0.333929 0.000000 0.500000
O O9 0.826161 0.151623 0.812318
O O10 0.835968 0.099441 0.613016
O O11 0.939823 0.103567 0.707361
O O12 0.889672 0.207065 0.654529
O O13 0.750000 0.750000 0.835704
O O14 0.743727 0.667967 0.000000
O O15 0.303467 0.500000 0.500000
O O16 0.000000 0.091781 0.500000
O O17 0.000000 0.000000 0.354326
O O18 0.586200 0.791378 0.500000
O O19 0.500000 0.758809 0.358783
#
# Coordination Sequence:
#
# PCOD9493624 Si02
#       8
#     8  16   8  16  16   8   8  16
#     4  11  26  47  67  89 123 171 223 262 298 366
#     4  12  22  41  66  92 125 164 209 258 324 382
#     4  11  22  37  57  91 130 156 192 252 327 387
#     4  12  21  38  62  90 132 166 209 258 313 376
#     4  11  25  43  64  90 123 166 218 269 315 371
#     4  11  22  34  58  94 129 165 202 252 311 384
#     4  11  22  38  65  97 133 172 208 254 318 391
#     4  11  22  35  57  94 132 165 196 252 326 392
#
# _framework density 18.052925999999999
#
# number of rings (size 3 to 8) (size 9 to 14) (size 15 to 20)
#    0.000    0.667    7.500    1.500    0.000    0.000 
#    1.500    3.333    0.000    1.500    0.000    0.000 
#    0.000    0.000    0.000    0.000    0.000    0.000 
#
# Total GULP energy -267660.239158 kJ/mol
# GULP energy per Si atom -5576.254982 kJ/mol
# Density = 1.801184 g / cm^3
# Si number density = 18.052926 Si / 1000 Ang^3
#
#
#
# Elastic Constant Matrix: (Units=GPa)
#
#
# Indices 1 2 3 4 5 6 
#
# 1 82.3140 32.1513 34.1943 0.0000 0.0000 0.0000
# 2 32.1513 92.9075 33.5219 0.0000 0.0000 0.0000
# 3 34.1943 33.5219 87.2840 0.0000 0.0000 0.0000
# 4 0.0000 0.0000 0.0000 39.0837 0.0000 0.0000
# 5 0.0000 0.0000 0.0000 0.0000 22.1514 0.0000
# 6 0.0000 0.0000 0.0000 0.0000 0.0000 25.3878
#
#
#
# Elastic Compliance Matrix: (Units=1/GPa)
#
#
# Indices 1 2 3 4 5 6 
#
# 1 0.015528 -0.003690 -0.004666 0.000000 0.000000 0.000000
# 2 -0.003690 0.013372 -0.003690 0.000000 0.000000 0.000000
# 3 -0.004666 -0.003690 0.014702 0.000000 0.000000 0.000000
# 4 0.000000 0.000000 0.000000 0.025586 0.000000 0.000000
# 5 0.000000 0.000000 0.000000 0.000000 0.045144 0.000000
# 6 0.000000 0.000000 0.000000 0.000000 0.000000 0.039389
#
#
# Mechanical properties :
#
#
# Convention : Reuss Voigt Hill
#
# Bulk Modulus (GPa) = 51.25630 51.36004 51.30817
# Shear Modulus (GPa) = 27.12726 28.16711 27.64718
#
# Velocity S-wave (km/s) = 3.88061 3.95429 3.91762
# Velocity P-wave (km/s) = 6.96654 7.02567 6.99617
#
# Compressibility (1/GPa) = 0.01950980
#
# Stress axis : x y z
#
# Youngs Moduli (GPa) = 64.39850 74.78482 68.01809
#
# Poissons Ratio (x) = 0.27596 0.31738
# Poissons Ratio (y) = 0.23764 0.25098
# Poissons Ratio (z) = 0.30049 0.27594
#
# Static dielectric constant tensor:
#      x y z
#    x 1.644330 0.000000 0.000000 
#    y 0.000000 1.634620 0.000000 
#    z 0.000000 0.000000 1.437570 
# 
# From -- ./inp_files/29113.got.cif
#   From: 2010.05.17/outbox.cif.g08.bks.cpg/sg65_15_cif.got.tgz:29113.got - 2010.06.03 17:01:31.
