data_PCOD9493507
_publ_section_title
;
Structure prediction by ZEFSAII (Michael W. Deem and Ramdas Pophale) SiO2 
 PCOD9493507
Probable space group: C M M M
;
_chemical_formula_sum "Si O2"
_cell_formula_units_Z 88
_cell_length_a 23.581667
_cell_length_b 22.404191
_cell_length_c 8.767561
_cell_angle_alpha 90.000000
_cell_angle_beta 90.000000
_cell_angle_gamma 90.000000
_cell_volume 4632.149472
_symmetry_space_group_name_H-M "C M M M"
_symmetry_group_IT_number 65
_symmetry_cell_setting 'orthorhombic'
loop_
_space_group_symop_operation_xyz
x,y,z
-x,-y,z
x,-y,-z
-x,y,-z
-x,-y,-z
x,y,-z
-x,y,z
x,-y,z
1/2+x,1/2+y,z
1/2-x,1/2-y,z
1/2+x,1/2-y,-z
1/2-x,1/2+y,-z
1/2-x,1/2-y,-z
1/2+x,1/2+y,-z
1/2-x,1/2+y,z
1/2+x,1/2-y,z
loop_
_atom_site_type_symbol
_atom_site_label
_atom_site_fract_x
_atom_site_fract_y
_atom_site_fract_z
Si Si1 0.563879 0.764694 0.680648
Si Si2 0.359780 0.336624 0.823149
Si Si3 0.432842 0.000000 0.683487
Si Si4 0.618363 0.878230 0.183065
Si Si5 0.736297 0.817976 0.184305
Si Si6 0.566546 0.429226 0.672351
O O1 0.568177 0.774911 0.500000
O O2 0.500000 0.742421 0.713587
O O3 0.610524 0.716903 0.732290
O O4 0.575070 0.826311 0.767616
O O5 0.295207 0.350293 0.778013
O O6 0.397437 0.394161 0.793989
O O7 0.359211 0.318471 0.000000
O O8 0.401586 0.940723 0.745781
O O9 0.500000 0.000000 0.728043
O O10 0.430655 0.000000 0.500000
O O11 0.679854 0.852082 0.237378
O O12 0.619843 0.884266 0.000000
O O13 0.750000 0.750000 0.236131
O O14 0.730042 0.814760 0.000000
O O15 0.582462 0.409634 0.500000
O O16 0.500000 0.416867 0.690820
O O17 0.574277 0.500000 0.681555
#
# Coordination Sequence:
#
# PCOD9493507 Si02
#       6
#    16  16   8  16  16  16
#     4  11  23  37  55  84 122 156 187 235 300 356
#     4  11  21  35  58  85 113 148 194 241 287 347
#     4  11  25  45  65  89 127 165 198 249 314 367
#     4  11  22  40  66  90 116 155 204 249 293 355
#     4   9  18  37  60  84 117 151 184 233 295 344
#     4   9  19  37  57  77 110 153 189 228 286 348
#
# _framework density 18.997661000000001
#
# number of rings (size 3 to 8) (size 9 to 14) (size 15 to 20)
#    0.000    1.727    1.818    3.545    0.000    7.273 
#    1.636    5.455    0.000    0.000    0.000    0.000 
#    0.000    0.000    0.000    0.000    0.000    0.000 
#
# Total GULP energy -245545.399532 kJ/mol
# GULP energy per Si atom -5580.577262 kJ/mol
# Density = 1.895442 g / cm^3
# Si number density = 18.997661 Si / 1000 Ang^3
#
#
#
# Elastic Constant Matrix: (Units=GPa)
#
#
# Indices 1 2 3 4 5 6 
#
# 1 103.8120 65.8442 38.5496 0.0000 0.0000 0.0000
# 2 65.8442 78.8762 25.2258 0.0000 0.0000 0.0000
# 3 38.5496 25.2258 45.1878 0.0000 0.0000 0.0000
# 4 0.0000 0.0000 0.0000 32.2510 0.0000 0.0000
# 5 0.0000 0.0000 0.0000 0.0000 66.2619 0.0000
# 6 0.0000 0.0000 0.0000 0.0000 0.0000 13.5573
#
#
#
# Elastic Compliance Matrix: (Units=1/GPa)
#
#
# Indices 1 2 3 4 5 6 
#
# 1 0.024628 -0.016847 -0.011605 0.000000 0.000000 0.000000
# 2 -0.016847 0.026958 -0.000677 0.000000 0.000000 0.000000
# 3 -0.011605 -0.000677 0.032408 0.000000 0.000000 0.000000
# 4 0.000000 0.000000 0.000000 0.031007 0.000000 0.000000
# 5 0.000000 0.000000 0.000000 0.000000 0.015092 0.000000
# 6 0.000000 0.000000 0.000000 0.000000 0.000000 0.073761
#
#
# Mechanical properties :
#
#
# Convention : Reuss Voigt Hill
#
# Bulk Modulus (GPa) = 38.85670 54.12391 46.49030
# Shear Modulus (GPa) = 18.47124 28.96446 23.71785
#
# Velocity S-wave (km/s) = 3.12154 3.90889 3.53719
# Velocity P-wave (km/s) = 5.78704 6.99458 6.41927
#
# Compressibility (1/GPa) = 0.02573559
#
# Stress axis : x y z
#
# Youngs Moduli (GPa) = 40.60435 37.09415 30.85663
#
# Poissons Ratio (x) = 0.62494 0.35809
# Poissons Ratio (y) = 0.68408 0.02089
# Poissons Ratio (z) = 0.47121 0.02511
#
# Static dielectric constant tensor:
#      x y z
#    x 1.678120 0.000000 0.000000 
#    y 0.000000 1.652290 0.000000 
#    z 0.000000 0.000000 1.664520 
# 
# From -- ./inp_files/11770.got.cif
#   From: 2010.05.17/outbox.cif.g08.bks.cpg/sg65_6_cif.got.tgz:11770.got - 2010.06.03 17:01:31.
