data_PCOD9493075
_publ_section_title
;
Structure prediction by ZEFSAII (Michael W. Deem and Ramdas Pophale) SiO2 
 PCOD9493075
Probable space group: C M M M
;
_chemical_formula_sum "Si O2"
_cell_formula_units_Z 64
_cell_length_a 13.405197
_cell_length_b 25.697438
_cell_length_c 8.997996
_cell_angle_alpha 90.000000
_cell_angle_beta 90.000000
_cell_angle_gamma 90.000000
_cell_volume 3099.622633
_symmetry_space_group_name_H-M "C M M M"
_symmetry_group_IT_number 65
_symmetry_cell_setting 'orthorhombic'
loop_
_space_group_symop_operation_xyz
x,y,z
-x,-y,z
x,-y,-z
-x,y,-z
-x,-y,-z
x,y,-z
-x,y,z
x,-y,z
1/2+x,1/2+y,z
1/2-x,1/2-y,z
1/2+x,1/2-y,-z
1/2-x,1/2+y,-z
1/2-x,1/2-y,-z
1/2+x,1/2+y,-z
1/2-x,1/2+y,z
1/2+x,1/2-y,z
loop_
_atom_site_type_symbol
_atom_site_label
_atom_site_fract_x
_atom_site_fract_y
_atom_site_fract_z
Si Si1 0.000000 0.178143 0.832249
Si Si2 0.669110 0.500000 0.660266
Si Si3 0.888975 0.387946 0.320965
Si Si4 0.500000 0.584592 0.338620
Si Si5 0.856508 0.500000 0.827971
Si Si6 0.787874 0.808569 0.676195
O O1 0.000000 0.116215 0.811493
O O2 0.103943 0.190840 0.751901
O O3 0.000000 0.196704 0.000000
O O4 0.725137 0.500000 0.500000
O O5 0.597386 0.450762 0.659692
O O6 0.738432 0.500000 0.800883
O O7 0.881670 0.392826 0.500000
O O8 0.887026 0.445642 0.249801
O O9 0.795995 0.351016 0.272499
O O10 0.000000 0.365223 0.288235
O O11 0.500000 0.613340 0.500000
O O12 0.884384 0.500000 0.000000
O O13 0.799707 0.817727 0.500000
O O14 0.750000 0.750000 0.697349
#
# Coordination Sequence:
#
# PCOD9493075 Si02
#       6
#     8   8  16   8   8  16
#     4  12  25  39  59  90 130 165 199 244 309 388
#     4   9  18  33  55  81 114 156 206 261 311 357
#     4  10  22  41  66  95 126 164 213 269 324 377
#     4   9  18  34  56  82 112 154 207 259 307 360
#     4  12  24  36  55  88 128 172 213 254 310 381
#     4  10  23  43  71  98 123 160 213 274 324 375
#
# _framework density 20.647673999999999
#
# number of rings (size 3 to 8) (size 9 to 14) (size 15 to 20)
#    0.000    1.750    0.000    4.875    1.750   10.500 
#    0.000    1.250    0.000    0.000    0.000    0.000 
#    0.000    0.000    0.000    0.000    0.000    0.000 
#
# Total GULP energy -178383.738975 kJ/mol
# GULP energy per Si atom -5574.491843 kJ/mol
# Density = 2.060068 g / cm^3
# Si number density = 20.647674 Si / 1000 Ang^3
#
#
#
# Elastic Constant Matrix: (Units=GPa)
#
#
# Indices 1 2 3 4 5 6 
#
# 1 191.7650 72.1016 61.4105 0.0000 0.0000 0.0000
# 2 72.1016 88.8522 36.3863 0.0000 0.0000 0.0000
# 3 61.4105 36.3863 65.9145 0.0000 0.0000 0.0000
# 4 0.0000 0.0000 0.0000 -6.2246 0.0000 0.0000
# 5 0.0000 0.0000 0.0000 0.0000 -64.0450 0.0000
# 6 0.0000 0.0000 0.0000 0.0000 0.0000 123.0661
#
#
#
# Elastic Compliance Matrix: (Units=1/GPa)
#
#
# Indices 1 2 3 4 5 6 
#
# 1 0.008824 -0.004902 -0.005515 0.000000 0.000000 0.000000
# 2 -0.004902 0.017265 -0.004964 0.000000 0.000000 0.000000
# 3 -0.005515 -0.004964 0.023049 0.000000 0.000000 0.000000
# 4 0.000000 0.000000 0.000000 -0.160654 0.000000 0.000000
# 5 0.000000 0.000000 0.000000 0.000000 -0.015614 0.000000
# 6 0.000000 0.000000 0.000000 0.000000 0.000000 0.008126
#
#
# Mechanical properties :
#
#
# Convention : Reuss Voigt Hill
#
# Bulk Modulus (GPa) = 54.41553 76.25873 65.33713
# Shear Modulus (GPa) = -60.88888 22.33485 -19.27702
#
# Velocity S-wave (km/s) = -5.43631 3.29251 -3.05883
# Velocity P-wave (km/s) = 3.60460 7.17410 4.38603
#
# Compressibility (1/GPa) = 0.01837711
#
# Stress axis : x y z
#
# Youngs Moduli (GPa) = 113.32859 57.91992 43.38504
#
# Poissons Ratio (x) = 0.28392 0.23927
# Poissons Ratio (y) = 0.55553 0.21535
# Poissons Ratio (z) = 0.62500 0.28750
#
# Static dielectric constant tensor:
#      x y z
#    x 1.804540 0.000000 0.000000 
#    y 0.000000 1.757310 0.000000 
#    z 0.000000 0.000000 1.735250 
# 
# From -- ./inp_files/6813.got.cif
#   From: 2010.05.17/outbox.cif.g08.bks.cpg/sg65_4_cif.got.tgz:6813.got - 2010.06.03 17:01:31.
