data_PCOD9493315
_publ_section_title
;
Structure prediction by ZEFSAII (Michael W. Deem and Ramdas Pophale) SiO2 
 PCOD9493315
Probable space group: C M M M
;
_chemical_formula_sum "Si O2"
_cell_formula_units_Z 96
_cell_length_a 24.238030
_cell_length_b 26.394938
_cell_length_c 8.495521
_cell_angle_alpha 90.000000
_cell_angle_beta 90.000000
_cell_angle_gamma 90.000000
_cell_volume 5435.105551
_symmetry_space_group_name_H-M "C M M M"
_symmetry_group_IT_number 65
_symmetry_cell_setting 'orthorhombic'
loop_
_space_group_symop_operation_xyz
x,y,z
-x,-y,z
x,-y,-z
-x,y,-z
-x,-y,-z
x,y,-z
-x,y,z
x,-y,z
1/2+x,1/2+y,z
1/2-x,1/2-y,z
1/2+x,1/2-y,-z
1/2-x,1/2+y,-z
1/2-x,1/2-y,-z
1/2+x,1/2+y,-z
1/2-x,1/2+y,z
1/2+x,1/2-y,z
loop_
_atom_site_type_symbol
_atom_site_label
_atom_site_fract_x
_atom_site_fract_y
_atom_site_fract_z
Si Si1 0.863835 0.654029 0.682426
Si Si2 0.254300 0.809693 0.175984
Si Si3 0.936310 0.748974 0.692231
Si Si4 0.182485 0.058690 0.189517
Si Si5 0.638137 0.343958 0.688287
Si Si6 0.689533 0.057160 0.811024
O O1 0.877220 0.646840 0.500000
O O2 0.803121 0.677392 0.706161
O O3 0.904756 0.697780 0.746924
O O4 0.854866 0.598904 0.758824
O O5 0.250000 0.750000 0.164494
O O6 0.195686 0.827604 0.235414
O O7 0.266834 0.830259 0.000000
O O8 0.934204 0.748023 0.500000
O O9 0.906327 0.801543 0.740225
O O10 0.000000 0.748541 0.740301
O O11 0.137716 0.097252 0.260454
O O12 0.246766 0.069828 0.238355
O O13 0.172370 0.000000 0.230776
O O14 0.180954 0.063105 0.000000
O O15 0.640656 0.341640 0.500000
O O16 0.677755 0.000000 0.753758
O O17 0.690204 0.055517 0.000000
#
# Coordination Sequence:
#
# PCOD9493315 Si02
#       6
#    16  16  16  16  16  16
#     4  11  20  31  52  78 103 131 171 214 250 298
#     4  11  21  31  46  71 106 141 165 195 253 316
#     4   9  20  37  53  72 102 137 168 209 264 307
#     4   9  18  32  49  72 106 144 171 196 245 308
#     4  11  20  31  52  78 103 131 171 214 250 298
#     4   9  18  32  49  72 106 144 171 196 245 308
#
# _framework density 17.662951
#
# number of rings (size 3 to 8) (size 9 to 14) (size 15 to 20)
#    0.000    2.000    3.333    2.500    0.000    1.333 
#    0.000    1.667    0.000    9.000    0.000    7.000 
#    0.000    0.000    0.000    0.000    0.000    0.000 
#
# Total GULP energy -267337.509935 kJ/mol
# GULP energy per Si atom -5569.531457 kJ/mol
# Density = 1.762275 g / cm^3
# Si number density = 17.662951 Si / 1000 Ang^3
#
#
#
# Elastic Constant Matrix: (Units=GPa)
#
#
# Indices 1 2 3 4 5 6 
#
# 1 75.4158 51.4762 -0.7448 0.0000 0.0000 0.0000
# 2 51.4762 156.6867 18.0890 0.0000 0.0000 0.0000
# 3 -0.7448 18.0890 18.6232 0.0000 0.0000 0.0000
# 4 0.0000 0.0000 0.0000 26.7386 0.0000 0.0000
# 5 0.0000 0.0000 0.0000 0.0000 225.6138 0.0000
# 6 0.0000 0.0000 0.0000 0.0000 0.0000 12.4098
#
#
#
# Elastic Compliance Matrix: (Units=1/GPa)
#
#
# Indices 1 2 3 4 5 6 
#
# 1 0.017921 -0.006724 0.007248 0.000000 0.000000 0.000000
# 2 -0.006724 0.009711 -0.009702 0.000000 0.000000 0.000000
# 3 0.007248 -0.009702 0.063410 0.000000 0.000000 0.000000
# 4 0.000000 0.000000 0.000000 0.037399 0.000000 0.000000
# 5 0.000000 0.000000 0.000000 0.000000 0.004432 0.000000
# 6 0.000000 0.000000 0.000000 0.000000 0.000000 0.080581
#
#
# Mechanical properties :
#
#
# Convention : Reuss Voigt Hill
#
# Bulk Modulus (GPa) = 13.75764 43.15185 28.45474
# Shear Modulus (GPa) = 19.52818 65.07947 42.30382
#
# Velocity S-wave (km/s) = 3.32867 6.07661 4.89924
# Velocity P-wave (km/s) = 4.75176 8.58588 6.93890
#
# Compressibility (1/GPa) = 0.07268690
#
# Stress axis : x y z
#
# Youngs Moduli (GPa) = 55.79948 102.97172 15.77037
#
# Poissons Ratio (x) = 0.69243 -0.11431
# Poissons Ratio (y) = 0.37522 0.15300
# Poissons Ratio (z) = -0.40446 0.99901
#
# Static dielectric constant tensor:
#      x y z
#    x 1.567660 0.000000 0.000000 
#    y 0.000000 1.713560 0.000000 
#    z 0.000000 0.000000 1.621100 
# 
# From -- ./inp_files/12287.got.cif
#   From: 2010.05.17/outbox.cif.g08.bks.cpg/sg65_7_cif.got.tgz:12287.got - 2010.06.03 17:01:31.
