data_PCOD9493316
_publ_section_title
;
Structure prediction by ZEFSAII (Michael W. Deem and Ramdas Pophale) SiO2 
 PCOD9493316
Probable space group: C M M M
;
_chemical_formula_sum "Si O2"
_cell_formula_units_Z 120
_cell_length_a 19.132196
_cell_length_b 24.676459
_cell_length_c 14.305154
_cell_angle_alpha 90.000000
_cell_angle_beta 90.000000
_cell_angle_gamma 90.000000
_cell_volume 6753.675637
_symmetry_space_group_name_H-M "C M M M"
_symmetry_group_IT_number 65
_symmetry_cell_setting 'orthorhombic'
loop_
_space_group_symop_operation_xyz
x,y,z
-x,-y,z
x,-y,-z
-x,y,-z
-x,-y,-z
x,y,-z
-x,y,z
x,-y,z
1/2+x,1/2+y,z
1/2-x,1/2-y,z
1/2+x,1/2-y,-z
1/2-x,1/2+y,-z
1/2-x,1/2-y,-z
1/2+x,1/2+y,-z
1/2-x,1/2+y,z
1/2+x,1/2-y,z
loop_
_atom_site_type_symbol
_atom_site_label
_atom_site_fract_x
_atom_site_fract_y
_atom_site_fract_z
Si Si1 0.081389 0.190545 0.209835
Si Si2 0.416286 0.081094 0.893514
Si Si3 0.294238 0.162240 0.609840
Si Si4 0.824923 0.100934 0.112673
Si Si5 0.356217 0.279031 0.391459
Si Si6 0.700542 0.062096 0.754124
Si Si7 0.915826 0.293278 0.899318
Si Si8 0.422886 0.500000 0.887950
O O1 0.135518 0.152320 0.156129
O O2 0.091207 0.192252 0.320606
O O3 0.102948 0.250905 0.178338
O O4 0.000000 0.179730 0.184115
O O5 0.500000 0.074883 0.883197
O O6 0.372313 0.057032 0.809773
O O7 0.396661 0.144725 0.888021
O O8 0.399014 0.063144 0.000000
O O9 0.302051 0.147880 0.500000
O O10 0.344168 0.214604 0.627761
O O11 0.217277 0.189010 0.621672
O O12 0.303156 0.108953 0.674389
O O13 0.755295 0.084737 0.168463
O O14 0.878808 0.052620 0.134095
O O15 0.814275 0.105257 0.000000
O O16 0.375787 0.283623 0.500000
O O17 0.719995 0.000000 0.724019
O O18 0.000000 0.293651 0.902474
O O19 0.889608 0.273544 0.000000
O O20 0.500000 0.500000 0.845982
O O21 0.429489 0.500000 0.000000
#
# Coordination Sequence:
#
# PCOD9493316 Si02
#       8
#    16  16  16  16  16  16  16   8
#     4  11  20  31  52  81 113 146 182 226 277 335
#     4   9  19  36  56  79 110 147 183 219 270 337
#     4   9  19  38  61  82 106 138 178 225 282 341
#     4  11  22  35  49  75 111 148 194 239 277 319
#     4   9  18  35  59  82 107 138 175 225 279 336
#     4  12  23  36  57  82 111 145 187 239 281 322
#     4   8  15  29  48  72 104 140 175 213 260 318
#     4   9  18  34  52  66  94 146 196 233 274 320
#
# _framework density 17.768101999999999
#
# number of rings (size 3 to 8) (size 9 to 14) (size 15 to 20)
#    0.000    2.200    2.000    3.600    0.000    2.933 
#    0.000    0.667    0.000    4.400    0.000    0.933 
#    0.000    4.267    0.000    0.000    0.000    0.000 
#
# Total GULP energy -334067.117216 kJ/mol
# GULP energy per Si atom -5567.785287 kJ/mol
# Density = 1.772766 g / cm^3
# Si number density = 17.768102 Si / 1000 Ang^3
#
#
#
# Elastic Constant Matrix: (Units=GPa)
#
#
# Indices 1 2 3 4 5 6 
#
# 1 44.3342 20.2557 29.3110 0.0000 0.0000 0.0000
# 2 20.2557 111.8633 60.9475 0.0000 0.0000 0.0000
# 3 29.3110 60.9475 98.5666 0.0000 0.0000 0.0000
# 4 0.0000 0.0000 0.0000 12.8545 0.0000 0.0000
# 5 0.0000 0.0000 0.0000 0.0000 23.5366 0.0000
# 6 0.0000 0.0000 0.0000 0.0000 0.0000 19.0520
#
#
#
# Elastic Compliance Matrix: (Units=1/GPa)
#
#
# Indices 1 2 3 4 5 6 
#
# 1 0.028124 -0.000808 -0.007864 0.000000 0.000000 0.000000
# 2 -0.000808 0.013504 -0.008110 0.000000 0.000000 0.000000
# 3 -0.007864 -0.008110 0.017499 0.000000 0.000000 0.000000
# 4 0.000000 0.000000 0.000000 0.077794 0.000000 0.000000
# 5 0.000000 0.000000 0.000000 0.000000 0.042487 0.000000
# 6 0.000000 0.000000 0.000000 0.000000 0.000000 0.052488
#
#
# Mechanical properties :
#
#
# Convention : Reuss Voigt Hill
#
# Bulk Modulus (GPa) = 39.11818 52.86585 45.99201
# Shear Modulus (GPa) = 18.24945 20.70526 19.47735
#
# Velocity S-wave (km/s) = 3.20830 3.41736 3.31448
# Velocity P-wave (km/s) = 5.98231 6.73713 6.37091
#
# Compressibility (1/GPa) = 0.02556356
#
# Stress axis : x y z
#
# Youngs Moduli (GPa) = 35.55669 74.04952 57.14751
#
# Poissons Ratio (x) = 0.05984 0.44939
# Poissons Ratio (y) = 0.02874 0.46347
# Poissons Ratio (z) = 0.27960 0.60054
#
# Static dielectric constant tensor:
#      x y z
#    x 1.622780 0.000000 0.000000 
#    y 0.000000 1.667510 0.000000 
#    z 0.000000 0.000000 1.618530 
# 
# From -- ./inp_files/29436.got.cif
#   From: 2010.05.17/outbox.cif.g08.bks.cpg/sg65_15_cif.got.tgz:29436.got - 2010.06.03 17:01:31.
