data_PCOD9493544
_publ_section_title
;
Structure prediction by ZEFSAII (Michael W. Deem and Ramdas Pophale) SiO2 
 PCOD9493544
Probable space group: C M M M
;
_chemical_formula_sum "Si O2"
_cell_formula_units_Z 72
_cell_length_a 30.830838
_cell_length_b 14.850205
_cell_length_c 8.499489
_cell_angle_alpha 90.000000
_cell_angle_beta 90.000000
_cell_angle_gamma 90.000000
_cell_volume 3891.442291
_symmetry_space_group_name_H-M "C M M M"
_symmetry_group_IT_number 65
_symmetry_cell_setting 'orthorhombic'
loop_
_space_group_symop_operation_xyz
x,y,z
-x,-y,z
x,-y,-z
-x,y,-z
-x,-y,-z
x,y,-z
-x,y,z
x,-y,z
1/2+x,1/2+y,z
1/2-x,1/2-y,z
1/2+x,1/2-y,-z
1/2-x,1/2+y,-z
1/2-x,1/2-y,-z
1/2+x,1/2+y,-z
1/2-x,1/2+y,z
1/2+x,1/2-y,z
loop_
_atom_site_type_symbol
_atom_site_label
_atom_site_fract_x
_atom_site_fract_y
_atom_site_fract_z
Si Si1 0.050035 0.803325 0.690647
Si Si2 0.265304 0.500000 0.188856
Si Si3 0.664371 0.000000 0.191666
Si Si4 0.207603 0.807820 0.688597
Si Si5 0.947184 0.000000 0.318740
Si Si6 0.872066 0.691355 0.811633
O O1 0.050717 0.806989 0.500000
O O2 0.082418 0.727496 0.748455
O O3 0.000000 0.789098 0.738257
O O4 0.064893 0.902907 0.750272
O O5 0.214727 0.500000 0.240970
O O6 0.287134 0.409223 0.251146
O O7 0.266229 0.500000 0.000000
O O8 0.640901 0.908736 0.244059
O O9 0.664420 0.000000 0.000000
O O10 0.205557 0.807952 0.500000
O O11 0.250000 0.750000 0.737586
O O12 0.165388 0.758968 0.755182
O O13 0.931813 0.000000 0.500000
O O14 0.000000 0.000000 0.322875
O O15 0.873019 0.690565 0.000000
#
# Coordination Sequence:
#
# PCOD9493544 Si02
#       6
#    16   8   8  16   8  16
#     4   9  18  35  58  84 114 149 189 236 290 343
#     4  11  21  38  62  84 113 153 197 237 282 338
#     4   9  20  37  57  79 107 149 195 237 284 343
#     4  11  23  38  57  85 117 148 186 234 289 344
#     4   7  12  27  53  78 103 140 178 213 266 333
#     4  11  22  38  59  83 112 150 196 239 288 344
#
# _framework density 18.502137999999999
#
# number of rings (size 3 to 8) (size 9 to 14) (size 15 to 20)
#    0.000    2.111    2.222    3.000    0.000    2.222 
#    0.000    6.667    0.000    5.333    0.000    0.000 
#    0.000    0.000    0.000    0.000    0.000    0.000 
#
# Total GULP energy -200932.002420 kJ/mol
# GULP energy per Si atom -5581.444512 kJ/mol
# Density = 1.846003 g / cm^3
# Si number density = 18.502138 Si / 1000 Ang^3
#
#
#
# Elastic Constant Matrix: (Units=GPa)
#
#
# Indices 1 2 3 4 5 6 
#
# 1 109.9696 84.1681 24.9532 0.0000 0.0000 0.0000
# 2 84.1681 187.9340 25.2231 0.0000 0.0000 0.0000
# 3 24.9532 25.2231 27.2724 0.0000 0.0000 0.0000
# 4 0.0000 0.0000 0.0000 23.1764 0.0000 0.0000
# 5 0.0000 0.0000 0.0000 0.0000 25.9602 0.0000
# 6 0.0000 0.0000 0.0000 0.0000 0.0000 -31.4943
#
#
#
# Elastic Compliance Matrix: (Units=1/GPa)
#
#
# Indices 1 2 3 4 5 6 
#
# 1 0.015512 -0.005757 -0.008869 0.000000 0.000000 0.000000
# 2 -0.005757 0.008212 -0.002327 0.000000 0.000000 0.000000
# 3 -0.008869 -0.002327 0.046934 0.000000 0.000000 0.000000
# 4 0.000000 0.000000 0.000000 0.043147 0.000000 0.000000
# 5 0.000000 0.000000 0.000000 0.000000 0.038521 0.000000
# 6 0.000000 0.000000 0.000000 0.000000 0.000000 -0.031752
#
#
# Mechanical properties :
#
#
# Convention : Reuss Voigt Hill
#
# Bulk Modulus (GPa) = 27.20935 65.98499 46.59717
# Shear Modulus (GPa) = 29.98865 16.25056 23.11961
#
# Velocity S-wave (km/s) = 4.03031 2.96684 3.53875
# Velocity P-wave (km/s) = 6.03290 6.89036 6.47584
#
# Compressibility (1/GPa) = 0.03675207
#
# Stress axis : x y z
#
# Youngs Moduli (GPa) = 64.46625 121.77807 21.30658
#
# Poissons Ratio (x) = 0.70107 0.18896
# Poissons Ratio (y) = 0.37113 0.04959
# Poissons Ratio (z) = 0.57172 0.28341
#
# Static dielectric constant tensor:
#      x y z
#    x 1.618480 0.000000 0.000000 
#    y 0.000000 1.648950 0.000000 
#    z 0.000000 0.000000 1.637200 
# 
# From -- ./inp_files/18070.got.cif
#   From: 2010.05.17/outbox.cif.g08.bks.cpg/sg65_10_cif.got.tgz:18070.got - 2010.06.03 17:01:31.
