data_PCOD9493871
_publ_section_title
;
Structure prediction by ZEFSAII (Michael W. Deem and Ramdas Pophale) SiO2 
 PCOD9493871
Probable space group: C M M M
;
_chemical_formula_sum "Si O2"
_cell_formula_units_Z 88
_cell_length_a 7.462205
_cell_length_b 31.680048
_cell_length_c 18.514669
_cell_angle_alpha 90.000000
_cell_angle_beta 90.000000
_cell_angle_gamma 90.000000
_cell_volume 4376.923529
_symmetry_space_group_name_H-M "C M M M"
_symmetry_group_IT_number 65
_symmetry_cell_setting 'orthorhombic'
loop_
_space_group_symop_operation_xyz
x,y,z
-x,-y,z
x,-y,-z
-x,y,-z
-x,-y,-z
x,y,-z
-x,y,z
x,-y,z
1/2+x,1/2+y,z
1/2-x,1/2-y,z
1/2+x,1/2-y,-z
1/2-x,1/2+y,-z
1/2-x,1/2-y,-z
1/2+x,1/2+y,-z
1/2-x,1/2+y,z
1/2+x,1/2-y,z
loop_
_atom_site_type_symbol
_atom_site_label
_atom_site_fract_x
_atom_site_fract_y
_atom_site_fract_z
Si Si1 0.281512 0.452461 0.583575
Si Si2 0.780868 0.883608 0.301539
Si Si3 0.786617 0.797018 0.237749
Si Si4 0.287331 0.000000 0.919944
Si Si5 0.211017 0.910104 0.855135
Si Si6 0.781394 0.823979 0.920627
O O1 0.228108 0.447234 0.500000
O O2 0.500000 0.452370 0.585078
O O3 0.227119 0.500000 0.607436
O O4 0.220020 0.413831 0.633687
O O5 0.723773 0.834798 0.290255
O O6 0.720797 0.904045 0.225772
O O7 0.000000 0.883742 0.305679
O O8 0.750000 0.750000 0.263636
O O9 0.720266 0.802235 0.154387
O O10 0.000000 0.802357 0.232856
O O11 0.236367 0.957047 0.881416
O O12 0.500000 0.000000 0.924676
O O13 0.209180 0.000000 0.000000
O O14 0.274507 0.872987 0.908302
O O15 0.000000 0.902126 0.850005
O O16 0.000000 0.821195 0.922186
O O17 0.719682 0.809080 0.000000
#
# Coordination Sequence:
#
# PCOD9493871 Si02
#       6
#    16  16  16   8  16  16
#     4   8  13  21  37  65  98 124 142 170 220 272
#     4   8  15  27  43  65  91 117 146 183 223 261
#     4   9  17  29  44  63  86 113 145 181 223 264
#     4  11  23  33  39  55  88 121 146 182 227 263
#     4   9  17  29  47  65  79 108 152 189 219 260
#     4   8  14  26  43  61  81 104 137 184 228 263
#
# _framework density 20.105446000000001
#
# number of rings (size 3 to 8) (size 9 to 14) (size 15 to 20)
#    0.000    3.364    0.000    3.545    1.273    1.818 
#    0.000    3.636    0.000    1.636    0.000    0.000 
#    0.000    2.909    0.000    0.000    0.000    0.000 
#
# Total GULP energy -245108.057500 kJ/mol
# GULP energy per Si atom -5570.637670 kJ/mol
# Density = 2.005968 g / cm^3
# Si number density = 20.105446 Si / 1000 Ang^3
#
#
#
# Elastic Constant Matrix: (Units=GPa)
#
#
# Indices 1 2 3 4 5 6 
#
# 1 52.6932 -5.7287 4.8107 0.0000 0.0000 0.0000
# 2 -5.7287 175.7555 81.2463 0.0000 0.0000 0.0000
# 3 4.8107 81.2463 102.3826 0.0000 0.0000 0.0000
# 4 0.0000 0.0000 0.0000 15.0885 0.0000 0.0000
# 5 0.0000 0.0000 0.0000 0.0000 -0.6454 0.0000
# 6 0.0000 0.0000 0.0000 0.0000 0.0000 1.7302
#
#
#
# Elastic Compliance Matrix: (Units=1/GPa)
#
#
# Indices 1 2 3 4 5 6 
#
# 1 0.019362 0.001661 -0.002228 0.000000 0.000000 0.000000
# 2 0.001661 0.009129 -0.007322 0.000000 0.000000 0.000000
# 3 -0.002228 -0.007322 0.015682 0.000000 0.000000 0.000000
# 4 0.000000 0.000000 0.000000 0.066276 0.000000 0.000000
# 5 0.000000 0.000000 0.000000 0.000000 -1.549475 0.000000
# 6 0.000000 0.000000 0.000000 0.000000 0.000000 0.577973
#
#
# Mechanical properties :
#
#
# Convention : Reuss Voigt Hill
#
# Bulk Modulus (GPa) = 35.21761 54.60975 44.91368
# Shear Modulus (GPa) = -5.98222 19.93485 6.97632
#
# Velocity S-wave (km/s) = -1.72681 3.15225 1.86478
# Velocity P-wave (km/s) = 3.68492 6.36157 5.19847
#
# Compressibility (1/GPa) = 0.02839489
#
# Stress axis : x y z
#
# Youngs Moduli (GPa) = 51.64822 109.54519 63.76540
#
# Poissons Ratio (x) = -0.18195 0.14206
# Poissons Ratio (y) = -0.08578 0.46690
# Poissons Ratio (z) = 0.11506 0.80210
#
# Static dielectric constant tensor:
#      x y z
#    x 1.778640 0.000000 0.000000 
#    y 0.000000 1.681060 0.000000 
#    z 0.000000 0.000000 1.700510 
# 
# From -- ./inp_files/50348.got.cif
#   From: 2010.05.17/outbox.cif.g08.bks.cpg/sg65_26_cif.got.tgz:50348.got - 2010.06.03 17:01:31.
