data_PCOD9493808
_publ_section_title
;
Structure prediction by ZEFSAII (Michael W. Deem and Ramdas Pophale) SiO2 
 PCOD9493808
Probable space group: C M M M
;
_chemical_formula_sum "Si O2"
_cell_formula_units_Z 48
_cell_length_a 15.254673
_cell_length_b 7.440755
_cell_length_c 21.698386
_cell_angle_alpha 90.000000
_cell_angle_beta 90.000000
_cell_angle_gamma 90.000000
_cell_volume 2462.903172
_symmetry_space_group_name_H-M "C M M M"
_symmetry_group_IT_number 65
_symmetry_cell_setting 'orthorhombic'
loop_
_space_group_symop_operation_xyz
x,y,z
-x,-y,z
x,-y,-z
-x,y,-z
-x,-y,-z
x,y,-z
-x,y,z
x,-y,z
1/2+x,1/2+y,z
1/2-x,1/2-y,z
1/2+x,1/2-y,-z
1/2-x,1/2+y,-z
1/2-x,1/2-y,-z
1/2+x,1/2+y,-z
1/2-x,1/2+y,z
1/2+x,1/2-y,z
loop_
_atom_site_type_symbol
_atom_site_label
_atom_site_fract_x
_atom_site_fract_y
_atom_site_fract_z
Si Si1 0.848206 0.787938 0.829679
Si Si2 0.645647 0.285409 0.500000
Si Si3 0.000000 0.218168 0.263159
Si Si4 0.105335 0.500000 0.929651
Si Si5 0.000000 0.219881 0.596313
O O1 0.750000 0.750000 0.808371
O O2 0.864035 0.672801 0.891054
O O3 0.916095 0.729118 0.777159
O O4 0.860214 0.000000 0.841328
O O5 0.638829 0.500000 0.500000
O O6 0.750000 0.250000 0.500000
O O7 0.587451 0.223569 0.558779
O O8 0.000000 0.281809 0.333270
O O9 0.000000 0.000000 0.265710
O O10 0.000000 0.500000 0.930124
O O11 0.137003 0.500000 0.000000
O O12 0.000000 0.000000 0.596753
#
# Coordination Sequence:
#
# PCOD9493808 Si02
#       5
#    16   8   8   8   8
#     4  11  22  39  61  86 118 156 193 244 297 348
#     4   9  17  31  56  78 112 149 185 235 278 334
#     4   9  19  35  58  81 113 150 196 239 284 348
#     4  11  24  42  64  87 117 153 195 243 295 356
#     4   8  16  33  53  79 108 154 191 222 284 340
#
# _framework density 19.489194000000001
#
# number of rings (size 3 to 8) (size 9 to 14) (size 15 to 20)
#    0.000    2.167    3.333    1.000    0.000    2.667 
#    0.000    3.333    7.333    0.000    0.000    0.000 
#    0.000    0.000    0.000    0.000    0.000    0.000 
#
# Total GULP energy -133934.442587 kJ/mol
# GULP energy per Si atom -5580.601774 kJ/mol
# Density = 1.944484 g / cm^3
# Si number density = 19.489194 Si / 1000 Ang^3
#
#
#
# Elastic Constant Matrix: (Units=GPa)
#
#
# Indices 1 2 3 4 5 6 
#
# 1 187.9128 19.5416 106.1009 0.0000 0.0000 0.0000
# 2 19.5416 96.5220 46.8269 0.0000 0.0000 0.0000
# 3 106.1009 46.8269 210.4543 0.0000 0.0000 0.0000
# 4 0.0000 0.0000 0.0000 121.3966 0.0000 0.0000
# 5 0.0000 0.0000 0.0000 0.0000 -24.6959 0.0000
# 6 0.0000 0.0000 0.0000 0.0000 0.0000 13.0892
#
#
#
# Elastic Compliance Matrix: (Units=1/GPa)
#
#
# Indices 1 2 3 4 5 6 
#
# 1 0.007450 0.000352 -0.003834 0.000000 0.000000 0.000000
# 2 0.000352 0.011631 -0.002765 0.000000 0.000000 0.000000
# 3 -0.003834 -0.002765 0.007300 0.000000 0.000000 0.000000
# 4 0.000000 0.000000 0.000000 0.008237 0.000000 0.000000
# 5 0.000000 0.000000 0.000000 0.000000 -0.040492 0.000000
# 6 0.000000 0.000000 0.000000 0.000000 0.000000 0.076399
#
#
# Mechanical properties :
#
#
# Convention : Reuss Voigt Hill
#
# Bulk Modulus (GPa) = 72.01860 93.31418 82.66639
# Shear Modulus (GPa) = 57.04630 43.45261 50.24945
#
# Velocity S-wave (km/s) = 5.41611 4.72696 5.08323
# Velocity P-wave (km/s) = 8.72615 8.81908 8.77274
#
# Compressibility (1/GPa) = 0.01388530
#
# Stress axis : x y z
#
# Youngs Moduli (GPa) = 134.22981 85.97979 136.98811
#
# Poissons Ratio (x) = -0.03025 0.52524
# Poissons Ratio (y) = -0.04723 0.37880
# Poissons Ratio (z) = 0.51466 0.23775
#
# Static dielectric constant tensor:
#      x y z
#    x 1.676770 0.000000 0.000000 
#    y 0.000000 1.738240 0.000000 
#    z 0.000000 0.000000 1.657600 
# 
# From -- ./inp_files/52342.got.cif
#   From: 2010.05.17/outbox.cif.g08.bks.cpg/sg65_27_cif.got.tgz:52342.got - 2010.06.03 17:01:31.
