data_PCOD9493247
_publ_section_title
;
Structure prediction by ZEFSAII (Michael W. Deem and Ramdas Pophale) SiO2 
 PCOD9493247
Probable space group: C M M M
;
_chemical_formula_sum "Si O2"
_cell_formula_units_Z 90
_cell_length_a 25.678529
_cell_length_b 21.702175
_cell_length_c 8.083396
_cell_angle_alpha 90.000000
_cell_angle_beta 90.000000
_cell_angle_gamma 90.000000
_cell_volume 4504.714358
_symmetry_space_group_name_H-M "C M M M"
_symmetry_group_IT_number 65
_symmetry_cell_setting 'orthorhombic'
loop_
_space_group_symop_operation_xyz
x,y,z
-x,-y,z
x,-y,-z
-x,y,-z
-x,-y,-z
x,y,-z
-x,y,z
x,-y,z
1/2+x,1/2+y,z
1/2-x,1/2-y,z
1/2+x,1/2-y,-z
1/2-x,1/2+y,-z
1/2-x,1/2-y,-z
1/2+x,1/2+y,-z
1/2-x,1/2+y,z
1/2+x,1/2-y,z
loop_
_atom_site_type_symbol
_atom_site_label
_atom_site_fract_x
_atom_site_fract_y
_atom_site_fract_z
Si Si1 0.245980 0.066926 0.301670
Si Si2 0.500000 0.606812 0.294169
Si Si3 0.500000 0.500000 0.000000
Si Si4 0.209248 0.198694 0.193157
Si Si5 0.633908 0.068357 0.699811
Si Si6 0.906369 0.201125 0.687868
Si Si7 0.442848 0.826991 0.808516
O O1 0.246459 0.063771 0.500000
O O2 0.217762 0.129509 0.256804
O O3 0.305994 0.072780 0.246810
O O4 0.225568 0.000000 0.241094
O O5 0.500000 0.592020 0.500000
O O6 0.551991 0.648495 0.264019
O O7 0.500000 0.553710 0.152841
O O8 0.250000 0.250000 0.265320
O O9 0.148105 0.211334 0.218069
O O10 0.220629 0.196445 0.000000
O O11 0.632790 0.072883 0.500000
O O12 0.600322 0.122609 0.773039
O O13 0.614772 0.000000 0.745516
O O14 0.890924 0.187543 0.500000
O O15 0.935240 0.266256 0.701163
O O16 0.500000 0.853958 0.777371
O O17 0.440013 0.807566 0.000000
#
# Coordination Sequence:
#
# PCOD9493247 Si02
#       7
#    16   8   2  16  16  16  16
#     4   9  19  38  60  84 115 154 199 245 301 362
#     4  10  25  47  71 106 134 170 227 269 336 413
#     4  12  26  44  84  98 136 184 200 288 344 400
#     4  11  24  39  59  92 129 162 206 259 315 386
#     4   9  19  36  58  83 116 160 207 252 300 359
#     4  11  23  42  67  91 124 162 210 269 314 385
#     4  11  23  36  56  85 119 157 201 249 308 370
#
# _framework density 19.97907
#
# number of rings (size 3 to 8) (size 9 to 14) (size 15 to 20)
#    0.000    1.778    0.889    3.867    2.489    7.111 
#    1.600    3.556    0.000    0.000    0.000    0.000 
#    0.000    0.000    0.000    0.000    0.000    0.000 
#
# Total GULP energy -250596.086386 kJ/mol
# GULP energy per Si atom -5568.801920 kJ/mol
# Density = 1.993360 g / cm^3
# Si number density = 19.979070 Si / 1000 Ang^3
#
#
#
# Elastic Constant Matrix: (Units=GPa)
#
#
# Indices 1 2 3 4 5 6 
#
# 1 56.7740 26.7853 4.6805 0.0000 0.0000 0.0000
# 2 26.7853 90.2815 20.1879 0.0000 0.0000 0.0000
# 3 4.6805 20.1879 36.3406 0.0000 0.0000 0.0000
# 4 0.0000 0.0000 0.0000 45.3110 0.0000 0.0000
# 5 0.0000 0.0000 0.0000 0.0000 26.4152 0.0000
# 6 0.0000 0.0000 0.0000 0.0000 0.0000 9.1551
#
#
#
# Elastic Compliance Matrix: (Units=1/GPa)
#
#
# Indices 1 2 3 4 5 6 
#
# 1 0.020503 -0.006272 0.000843 0.000000 0.000000 0.000000
# 2 -0.006272 0.014566 -0.007284 0.000000 0.000000 0.000000
# 3 0.000843 -0.007284 0.031455 0.000000 0.000000 0.000000
# 4 0.000000 0.000000 0.000000 0.022070 0.000000 0.000000
# 5 0.000000 0.000000 0.000000 0.000000 0.037857 0.000000
# 6 0.000000 0.000000 0.000000 0.000000 0.000000 0.109229
#
#
# Mechanical properties :
#
#
# Convention : Reuss Voigt Hill
#
# Bulk Modulus (GPa) = 24.33107 31.85595 28.09351
# Shear Modulus (GPa) = 18.19482 24.95909 21.57695
#
# Velocity S-wave (km/s) = 3.02104 3.53832 3.28987
# Velocity P-wave (km/s) = 4.93697 5.71597 5.34069
#
# Compressibility (1/GPa) = 0.04109972
#
# Stress axis : x y z
#
# Youngs Moduli (GPa) = 48.77339 68.65356 31.79128
#
# Poissons Ratio (x) = 0.43056 -0.02681
# Poissons Ratio (y) = 0.30588 0.23156
# Poissons Ratio (z) = -0.04113 0.50007
#
# Static dielectric constant tensor:
#      x y z
#    x 1.709600 0.000000 0.000000 
#    y 0.000000 1.714370 0.000000 
#    z 0.000000 0.000000 1.730320 
# 
# From -- ./inp_files/14023.got.cif
#   From: 2010.05.17/outbox.cif.g08.bks.cpg/sg65_8_cif.got.tgz:14023.got - 2010.06.03 17:01:31.
