data_PCOD9493731
_publ_section_title
;
Structure prediction by ZEFSAII (Michael W. Deem and Ramdas Pophale) SiO2 
 PCOD9493731
Probable space group: C M M M
;
_chemical_formula_sum "Si O2"
_cell_formula_units_Z 88
_cell_length_a 8.372136
_cell_length_b 29.620502
_cell_length_c 18.552388
_cell_angle_alpha 90.000000
_cell_angle_beta 90.000000
_cell_angle_gamma 90.000000
_cell_volume 4600.748652
_symmetry_space_group_name_H-M "C M M M"
_symmetry_group_IT_number 65
_symmetry_cell_setting 'orthorhombic'
loop_
_space_group_symop_operation_xyz
x,y,z
-x,-y,z
x,-y,-z
-x,y,-z
-x,-y,-z
x,y,-z
-x,y,z
x,-y,z
1/2+x,1/2+y,z
1/2-x,1/2-y,z
1/2+x,1/2-y,-z
1/2-x,1/2+y,-z
1/2-x,1/2-y,-z
1/2+x,1/2+y,-z
1/2-x,1/2+y,z
1/2+x,1/2-y,z
loop_
_atom_site_type_symbol
_atom_site_label
_atom_site_fract_x
_atom_site_fract_y
_atom_site_fract_z
Si Si1 0.191948 0.301189 0.720253
Si Si2 0.806905 0.949927 0.190550
Si Si3 0.693052 0.050014 0.355179
Si Si4 0.691279 0.354624 0.860563
Si Si5 0.694983 0.144013 0.579918
Si Si6 0.811051 0.698686 0.000000
O O1 0.250000 0.250000 0.725373
O O2 0.255533 0.329746 0.787579
O O3 0.246621 0.323911 0.645216
O O4 0.000000 0.302320 0.722241
O O5 0.749548 0.943908 0.272880
O O6 0.752840 0.906754 0.144844
O O7 0.000000 0.949759 0.190901
O O8 0.753850 0.000000 0.166480
O O9 0.500000 0.050243 0.355261
O O10 0.745715 0.092758 0.401791
O O11 0.745803 0.000000 0.379554
O O12 0.500000 0.354520 0.863777
O O13 0.754132 0.327824 0.929243
O O14 0.748419 0.157447 0.500000
O O15 0.500000 0.144436 0.579934
O O16 0.750000 0.750000 0.000000
O O17 0.000000 0.700315 0.000000
#
# Coordination Sequence:
#
# PCOD9493731 Si02
#       6
#    16  16  16  16  16   8
#     4  11  22  37  57  80 108 145 191 239 289 341
#     4   9  18  33  56  85 116 150 186 225 271 327
#     4   9  16  28  50  79 109 143 185 231 279 333
#     4  11  22  39  63  89 118 150 188 229 276 333
#     4   9  18  32  50  76 111 147 186 235 286 336
#     4  12  26  44  65  90 121 151 186 231 283 332
#
# _framework density 19.127321999999999
#
# number of rings (size 3 to 8) (size 9 to 14) (size 15 to 20)
#    0.000    2.000    1.818    2.455    0.000    1.455 
#    0.000    2.273    0.000    7.091    0.000    2.545 
#    0.000    0.000    0.000    0.000    0.000    0.000 
#
# Total GULP energy -245615.590736 kJ/mol
# GULP energy per Si atom -5582.172517 kJ/mol
# Density = 1.908379 g / cm^3
# Si number density = 19.127322 Si / 1000 Ang^3
#
#
#
# Elastic Constant Matrix: (Units=GPa)
#
#
# Indices 1 2 3 4 5 6 
#
# 1 36.4241 30.0653 26.8343 0.0000 0.0000 0.0000
# 2 30.0653 163.2335 91.5216 0.0000 0.0000 0.0000
# 3 26.8343 91.5216 140.2167 0.0000 0.0000 0.0000
# 4 0.0000 0.0000 0.0000 12.7398 0.0000 0.0000
# 5 0.0000 0.0000 0.0000 0.0000 -7.0125 0.0000
# 6 0.0000 0.0000 0.0000 0.0000 0.0000 11.5882
#
#
#
# Elastic Compliance Matrix: (Units=1/GPa)
#
#
# Indices 1 2 3 4 5 6 
#
# 1 0.033595 -0.004074 -0.003770 0.000000 0.000000 0.000000
# 2 -0.004074 0.010156 -0.005849 0.000000 0.000000 0.000000
# 3 -0.003770 -0.005849 0.011671 0.000000 0.000000 0.000000
# 4 0.000000 0.000000 0.000000 0.078494 0.000000 0.000000
# 5 0.000000 0.000000 0.000000 0.000000 -0.142603 0.000000
# 6 0.000000 0.000000 0.000000 0.000000 0.000000 0.086294
#
#
# Mechanical properties :
#
#
# Convention : Reuss Voigt Hill
#
# Bulk Modulus (GPa) = 35.66942 70.74629 53.20786
# Shear Modulus (GPa) = 43.72933 16.22666 29.97799
#
# Velocity S-wave (km/s) = 4.78663 2.91580 3.96319
# Velocity P-wave (km/s) = 7.01698 6.95724 6.98718
#
# Compressibility (1/GPa) = 0.02803522
#
# Stress axis : x y z
#
# Youngs Moduli (GPa) = 29.76673 98.46202 85.67944
#
# Poissons Ratio (x) = 0.40111 0.32303
# Poissons Ratio (y) = 0.12126 0.50118
# Poissons Ratio (z) = 0.11223 0.57595
#
# Static dielectric constant tensor:
#      x y z
#    x 1.696020 0.000000 0.000000 
#    y 0.000000 1.681040 0.000000 
#    z 0.000000 0.000000 1.650750 
# 
# From -- ./inp_files/50451.got.cif
#   From: 2010.05.17/outbox.cif.g08.bks.cpg/sg65_26_cif.got.tgz:50451.got - 2010.06.03 17:01:31.
