data_PCOD9493738
_publ_section_title
;
Structure prediction by ZEFSAII (Michael W. Deem and Ramdas Pophale) SiO2 
 PCOD9493738
Probable space group: C M M M
;
_chemical_formula_sum "Si O2"
_cell_formula_units_Z 72
_cell_length_a 7.873321
_cell_length_b 18.516336
_cell_length_c 24.588538
_cell_angle_alpha 90.000000
_cell_angle_beta 90.000000
_cell_angle_gamma 90.000000
_cell_volume 3584.641416
_symmetry_space_group_name_H-M "C M M M"
_symmetry_group_IT_number 65
_symmetry_cell_setting 'orthorhombic'
loop_
_space_group_symop_operation_xyz
x,y,z
-x,-y,z
x,-y,-z
-x,y,-z
-x,-y,-z
x,y,-z
-x,y,z
x,-y,z
1/2+x,1/2+y,z
1/2-x,1/2-y,z
1/2+x,1/2-y,-z
1/2-x,1/2+y,-z
1/2-x,1/2-y,-z
1/2+x,1/2+y,-z
1/2-x,1/2+y,z
1/2+x,1/2-y,z
loop_
_atom_site_type_symbol
_atom_site_label
_atom_site_fract_x
_atom_site_fract_y
_atom_site_fract_z
Si Si1 0.298630 0.166425 0.108655
Si Si2 0.798271 0.081296 0.000000
Si Si3 0.795038 0.665479 0.323159
Si Si4 0.208341 0.416594 0.215465
Si Si5 0.795202 0.664858 0.558420
O O1 0.500000 0.163197 0.112766
O O2 0.250000 0.250000 0.105934
O O3 0.250177 0.124433 0.054086
O O4 0.230031 0.127467 0.162822
O O5 0.000000 0.075752 0.000000
O O6 0.725149 0.000000 0.000000
O O7 0.750000 0.750000 0.317344
O O8 0.733788 0.620773 0.271333
O O9 0.733534 0.638298 0.382601
O O10 0.000000 0.660772 0.323714
O O11 0.259271 0.500000 0.212284
O O12 0.000000 0.415110 0.215626
O O13 0.732895 0.635145 0.500000
O O14 0.750000 0.750000 0.558363
O O15 0.000000 0.658140 0.558249
#
# Coordination Sequence:
#
# PCOD9493738 Si02
#       5
#    16   8  16  16  16
#     4  11  22  37  58  81 106 135 170 210 250 295
#     4  11  24  41  60  83 111 139 168 203 244 291
#     4   9  16  27  45  67  92 122 157 199 242 287
#     4   9  18  32  50  72  97 128 165 202 244 295
#     4   8  13  21  35  58  87 117 150 190 236 283
#
# _framework density 20.085691000000001
#
# number of rings (size 3 to 8) (size 9 to 14) (size 15 to 20)
#    0.000    2.556    0.000    2.667    0.000    1.778 
#    0.000    1.111    0.000    4.000    0.000    4.667 
#    0.000    0.000    0.000   36.000    0.000   16.889 
#
# Total GULP energy -200746.199559 kJ/mol
# GULP energy per Si atom -5576.283321 kJ/mol
# Density = 2.003998 g / cm^3
# Si number density = 20.085691 Si / 1000 Ang^3
#
#
#
# Elastic Constant Matrix: (Units=GPa)
#
#
# Indices 1 2 3 4 5 6 
#
# 1 27.1811 6.2826 14.4994 0.0000 0.0000 0.0000
# 2 6.2826 135.4910 118.5584 0.0000 0.0000 0.0000
# 3 14.4994 118.5584 267.3599 0.0000 0.0000 0.0000
# 4 0.0000 0.0000 0.0000 -10.2103 0.0000 0.0000
# 5 0.0000 0.0000 0.0000 0.0000 5.2867 0.0000
# 6 0.0000 0.0000 0.0000 0.0000 0.0000 1.5397
#
#
#
# Elastic Compliance Matrix: (Units=1/GPa)
#
#
# Indices 1 2 3 4 5 6 
#
# 1 0.037887 0.000067 -0.002084 0.000000 0.000000 0.000000
# 2 0.000067 0.012060 -0.005352 0.000000 0.000000 0.000000
# 3 -0.002084 -0.005352 0.006226 0.000000 0.000000 0.000000
# 4 0.000000 0.000000 0.000000 -0.097940 0.000000 0.000000
# 5 0.000000 0.000000 0.000000 0.000000 0.189156 0.000000
# 6 0.000000 0.000000 0.000000 0.000000 0.000000 0.649464
#
#
# Mechanical properties :
#
#
# Convention : Reuss Voigt Hill
#
# Bulk Modulus (GPa) = 24.13384 78.74588 51.43986
# Shear Modulus (GPa) = 6.05765 18.70264 12.38014
#
# Velocity S-wave (km/s) = 1.73852 3.05477 2.48537
# Velocity P-wave (km/s) = 4.00892 7.19251 5.82253
#
# Compressibility (1/GPa) = 0.04143559
#
# Stress axis : x y z
#
# Youngs Moduli (GPa) = 26.39447 82.91647 160.60432
#
# Poissons Ratio (x) = -0.00557 0.33477
# Poissons Ratio (y) = -0.00177 0.85950
# Poissons Ratio (z) = 0.05502 0.44374
#
# Static dielectric constant tensor:
#      x y z
#    x 1.713620 0.000000 0.000000 
#    y 0.000000 1.371340 0.000000 
#    z 0.000000 0.000000 1.791400 
# 
# From -- ./inp_files/67066.got.cif
#   From: 2010.05.17/outbox.cif.g08.bks.cpg/sg65_34_cif.got.tgz:67066.got - 2010.06.03 17:01:31.
