data_PCOD9493620
_publ_section_title
;
Structure prediction by ZEFSAII (Michael W. Deem and Ramdas Pophale) SiO2 
 PCOD9493620
Probable space group: C M M M
;
_chemical_formula_sum "Si O2"
_cell_formula_units_Z 80
_cell_length_a 26.366156
_cell_length_b 10.189532
_cell_length_c 20.408559
_cell_angle_alpha 90.000000
_cell_angle_beta 90.000000
_cell_angle_gamma 90.000000
_cell_volume 5482.938772
_symmetry_space_group_name_H-M "C M M M"
_symmetry_group_IT_number 65
_symmetry_cell_setting 'orthorhombic'
loop_
_space_group_symop_operation_xyz
x,y,z
-x,-y,z
x,-y,-z
-x,y,-z
-x,-y,-z
x,y,-z
-x,y,z
x,-y,z
1/2+x,1/2+y,z
1/2-x,1/2-y,z
1/2+x,1/2-y,-z
1/2-x,1/2+y,-z
1/2-x,1/2-y,-z
1/2+x,1/2+y,-z
1/2-x,1/2+y,z
1/2+x,1/2-y,z
loop_
_atom_site_type_symbol
_atom_site_label
_atom_site_fract_x
_atom_site_fract_y
_atom_site_fract_z
Si Si1 0.438082 0.152038 0.000000
Si Si2 0.938564 0.851541 0.887652
Si Si3 0.186574 0.000000 0.421524
Si Si4 0.806604 0.500000 0.420079
Si Si5 0.440162 0.656422 0.264983
Si Si6 0.440439 0.841969 0.500000
Si Si7 0.126881 0.743514 0.620562
O O1 0.421764 0.237561 0.936872
O O2 0.500000 0.149495 0.000000
O O3 0.421471 0.000000 0.000000
O O4 0.926741 0.825650 0.811556
O O5 0.000000 0.855021 0.891569
O O6 0.921272 0.000000 0.905168
O O7 0.246582 0.000000 0.408111
O O8 0.158891 0.873540 0.393136
O O9 0.180551 0.000000 0.500000
O O10 0.813733 0.500000 0.500000
O O11 0.834010 0.624535 0.388186
O O12 0.500000 0.689159 0.273739
O O13 0.435070 0.500000 0.279334
O O14 0.404016 0.738696 0.312343
O O15 0.500000 0.816449 0.500000
O O16 0.414171 0.780603 0.563447
O O17 0.432893 0.000000 0.500000
#
# Coordination Sequence:
#
# PCOD9493620 Si02
#       7
#     8  16   8   8  16   8  16
#     4   9  15  23  37  61  91 117 154 199 224 250
#     4   8  14  26  42  59  83 122 161 188 222 266
#     4  11  22  34  56  74  88 111 156 213 253 288
#     4  11  22  38  52  68  92 119 156 201 251 310
#     4   9  18  31  47  68  95 126 162 198 230 274
#     4  11  22  35  48  68  97 128 159 191 232 285
#     4  12  19  36  50  71  92 123 157 196 245 285
#
# _framework density 14.590714999999999
#
# number of rings (size 3 to 8) (size 9 to 14) (size 15 to 20)
#    0.000    2.000    4.000    2.700    0.000    2.800 
#    1.800    0.500    0.000    0.000    0.000    0.000 
#    0.000    0.000    0.000    5.400    0.000    0.700 
#
# Total GULP energy -222913.089268 kJ/mol
# GULP energy per Si atom -5572.827232 kJ/mol
# Density = 1.455751 g / cm^3
# Si number density = 14.590715 Si / 1000 Ang^3
#
#
#
# Elastic Constant Matrix: (Units=GPa)
#
#
# Indices 1 2 3 4 5 6 
#
# 1 80.1743 50.2741 38.4192 0.0000 0.0000 0.0000
# 2 50.2741 132.3148 66.5122 0.0000 0.0000 0.0000
# 3 38.4192 66.5122 96.7922 0.0000 0.0000 0.0000
# 4 0.0000 0.0000 0.0000 41.5412 0.0000 0.0000
# 5 0.0000 0.0000 0.0000 0.0000 0.9885 0.0000
# 6 0.0000 0.0000 0.0000 0.0000 0.0000 9.8746
#
#
#
# Elastic Compliance Matrix: (Units=1/GPa)
#
#
# Indices 1 2 3 4 5 6 
#
# 1 0.017140 -0.004725 -0.003557 0.000000 0.000000 0.000000
# 2 -0.004725 0.012848 -0.006954 0.000000 0.000000 0.000000
# 3 -0.003557 -0.006954 0.016521 0.000000 0.000000 0.000000
# 4 0.000000 0.000000 0.000000 0.024073 0.000000 0.000000
# 5 0.000000 0.000000 0.000000 0.000000 1.011669 0.000000
# 6 0.000000 0.000000 0.000000 0.000000 0.000000 0.101270
#
#
# Mechanical properties :
#
#
# Convention : Reuss Voigt Hill
#
# Bulk Modulus (GPa) = 62.34474 68.85472 65.59973
# Shear Modulus (GPa) = 4.10059 20.75257 12.42658
#
# Velocity S-wave (km/s) = 1.67825 3.77545 2.92152
# Velocity P-wave (km/s) = 6.82475 8.14239 7.51251
#
# Compressibility (1/GPa) = 0.01603985
#
# Stress axis : x y z
#
# Youngs Moduli (GPa) = 58.34402 77.83120 60.52748
#
# Poissons Ratio (x) = 0.36771 0.21528
# Poissons Ratio (y) = 0.27565 0.42089
# Poissons Ratio (z) = 0.20751 0.54121
#
# Static dielectric constant tensor:
#      x y z
#    x 1.452010 0.000000 0.000000 
#    y 0.000000 1.546100 0.000000 
#    z 0.000000 0.000000 1.477960 
# 
# From -- ./inp_files/65715.got.cif
#   From: 2010.05.17/outbox.cif.g08.bks.cpg/sg65_33_cif.got.tgz:65715.got - 2010.06.03 17:01:31.
