data_PCOD9493037
_publ_section_title
;
Structure prediction by ZEFSAII (Michael W. Deem and Ramdas Pophale) SiO2 
 PCOD9493037
Probable space group: C M M M
;
_chemical_formula_sum "Si O2"
_cell_formula_units_Z 72
_cell_length_a 26.910947
_cell_length_b 10.119915
_cell_length_c 14.874779
_cell_angle_alpha 90.000000
_cell_angle_beta 90.000000
_cell_angle_gamma 90.000000
_cell_volume 4050.945195
_symmetry_space_group_name_H-M "C M M M"
_symmetry_group_IT_number 65
_symmetry_cell_setting 'orthorhombic'
loop_
_space_group_symop_operation_xyz
x,y,z
-x,-y,z
x,-y,-z
-x,y,-z
-x,-y,-z
x,y,-z
-x,y,z
x,-y,z
1/2+x,1/2+y,z
1/2-x,1/2-y,z
1/2+x,1/2-y,-z
1/2-x,1/2+y,-z
1/2-x,1/2-y,-z
1/2+x,1/2+y,-z
1/2-x,1/2+y,z
1/2+x,1/2-y,z
loop_
_atom_site_type_symbol
_atom_site_label
_atom_site_fract_x
_atom_site_fract_y
_atom_site_fract_z
Si Si1 0.942927 0.158680 0.500000
Si Si2 0.440762 0.846245 0.000000
Si Si3 0.703970 0.348333 0.000000
Si Si4 0.886393 0.845019 0.865883
Si Si5 0.292252 0.500000 0.392619
Si Si6 0.822963 0.500000 0.390434
Si Si7 0.631233 0.276092 0.339182
O O1 0.912217 0.201115 0.411959
O O2 0.000000 0.206239 0.500000
O O3 0.943545 0.000000 0.500000
O O4 0.421034 0.760514 0.916022
O O5 0.500000 0.848544 0.000000
O O6 0.423244 0.000000 0.000000
O O7 0.750000 0.250000 0.000000
O O8 0.667525 0.330441 0.914013
O O9 0.721491 0.500000 0.000000
O O10 0.885064 0.812280 0.761069
O O11 0.900774 0.000000 0.879680
O O12 0.292668 0.500000 0.500000
O O13 0.235102 0.500000 0.364170
O O14 0.322959 0.626910 0.361525
O O15 0.826061 0.500000 0.500000
O O16 0.849347 0.371368 0.351683
#
# Coordination Sequence:
#
# PCOD9493037 Si02
#       7
#     8   8   8  16   8   8  16
#     4  11  22  39  64  90 119 162 207 253 306 362
#     4  10  23  43  67  95 122 150 196 258 318 365
#     4   9  20  38  56  84 119 154 196 238 291 358
#     4  10  22  40  64  88 119 162 203 247 299 363
#     4  11  20  38  62  87 124 173 209 254 297 359
#     4  11  24  36  60  91 126 167 213 248 313 363
#     4  12  21  41  60  91 128 162 207 259 302 364
#
# _framework density 17.773630000000001
#
# number of rings (size 3 to 8) (size 9 to 14) (size 15 to 20)
#    0.000    1.333    4.444    1.667    1.556    7.111 
#    0.000    1.111    0.000    0.000    0.000    0.000 
#    0.000    0.000    0.000    0.000    0.000    0.000 
#
# Total GULP energy -200997.296426 kJ/mol
# GULP energy per Si atom -5583.258234 kJ/mol
# Density = 1.773318 g / cm^3
# Si number density = 17.773630 Si / 1000 Ang^3
#
#
#
# Elastic Constant Matrix: (Units=GPa)
#
#
# Indices 1 2 3 4 5 6 
#
# 1 111.9023 76.2283 57.1362 0.0000 0.0000 0.0000
# 2 76.2283 177.0601 52.0972 0.0000 0.0000 0.0000
# 3 57.1362 52.0972 142.3892 0.0000 0.0000 0.0000
# 4 0.0000 0.0000 0.0000 24.8403 0.0000 0.0000
# 5 0.0000 0.0000 0.0000 0.0000 0.9015 0.0000
# 6 0.0000 0.0000 0.0000 0.0000 0.0000 869.5509
#
#
#
# Elastic Compliance Matrix: (Units=1/GPa)
#
#
# Indices 1 2 3 4 5 6 
#
# 1 0.014367 -0.005031 -0.003924 0.000000 0.000000 0.000000
# 2 -0.005031 0.008091 -0.000942 0.000000 0.000000 0.000000
# 3 -0.003924 -0.000942 0.008942 0.000000 0.000000 0.000000
# 4 0.000000 0.000000 0.000000 0.040257 0.000000 0.000000
# 5 0.000000 0.000000 0.000000 0.000000 1.109216 0.000000
# 6 0.000000 0.000000 0.000000 0.000000 0.000000 0.001150
#
#
# Mechanical properties :
#
#
# Convention : Reuss Voigt Hill
#
# Bulk Modulus (GPa) = 86.15727 89.14167 87.64947
# Shear Modulus (GPa) = 4.14702 195.45121 99.79911
#
# Velocity S-wave (km/s) = 1.52915 10.49789 7.50147
# Velocity P-wave (km/s) = 7.19011 14.04292 11.15575
#
# Compressibility (1/GPa) = 0.01160668
#
# Stress axis : x y z
#
# Youngs Moduli (GPa) = 69.60384 123.59963 111.82867
#
# Poissons Ratio (x) = 0.62178 0.43886
# Poissons Ratio (y) = 0.35015 0.10529
# Poissons Ratio (z) = 0.27315 0.11638
#
# Static dielectric constant tensor:
#      x y z
#    x 1.593690 0.000000 0.000000 
#    y 0.000000 1.595850 0.000000 
#    z 0.000000 0.000000 1.598190 
# 
# From -- ./inp_files/46600.got.cif
#   From: 2010.05.17/outbox.cif.g08.bks.cpg/sg65_24_cif.got.tgz:46600.got - 2010.06.03 17:01:31.
