data_PCOD9493230
_publ_section_title
;
Structure prediction by ZEFSAII (Michael W. Deem and Ramdas Pophale) SiO2 
 PCOD9493230
Probable space group: C M M M
;
_chemical_formula_sum "Si O2"
_cell_formula_units_Z 98
_cell_length_a 15.299856
_cell_length_b 15.386993
_cell_length_c 23.542245
_cell_angle_alpha 90.000000
_cell_angle_beta 90.000000
_cell_angle_gamma 90.000000
_cell_volume 5542.286530
_symmetry_space_group_name_H-M "C M M M"
_symmetry_group_IT_number 65
_symmetry_cell_setting 'orthorhombic'
loop_
_space_group_symop_operation_xyz
x,y,z
-x,-y,z
x,-y,-z
-x,y,-z
-x,-y,-z
x,y,-z
-x,y,z
x,-y,z
1/2+x,1/2+y,z
1/2-x,1/2-y,z
1/2+x,1/2-y,-z
1/2-x,1/2+y,-z
1/2-x,1/2-y,-z
1/2+x,1/2+y,-z
1/2-x,1/2+y,z
1/2+x,1/2-y,z
loop_
_atom_site_type_symbol
_atom_site_label
_atom_site_fract_x
_atom_site_fract_y
_atom_site_fract_z
Si Si1 0.394029 0.811315 0.064308
Si Si2 0.755867 0.150476 0.353265
Si Si3 0.901480 0.500000 0.068775
Si Si4 0.400684 0.399138 0.736369
Si Si5 0.500000 0.500000 0.500000
Si Si6 0.147454 0.247613 0.817252
Si Si7 0.814510 0.000000 0.437461
Si Si8 0.899668 0.399521 0.731690
O O1 0.500000 0.817236 0.062839
O O2 0.359652 0.907576 0.081558
O O3 0.367925 0.750604 0.115626
O O4 0.365842 0.789770 0.000000
O O5 0.750000 0.250000 0.372746
O O6 0.834260 0.141797 0.308138
O O7 0.668733 0.124399 0.318040
O O8 0.781645 0.083312 0.402415
O O9 0.000000 0.500000 0.093352
O O10 0.909521 0.500000 0.000000
O O11 0.500000 0.395569 0.715193
O O12 0.377725 0.500000 0.746116
O O13 0.392773 0.339529 0.791540
O O14 0.419559 0.500000 0.450893
O O15 0.250000 0.250000 0.805353
O O16 0.110087 0.331439 0.783551
O O17 0.773366 0.000000 0.500000
O O18 0.883457 0.500000 0.749461
O O19 0.000000 0.393661 0.711549
#
# Coordination Sequence:
#
# PCOD9493230 Si02
#       8
#    16  16   8  16   2  16   8  16
#     4   9  18  33  53  76 109 151 195 247 308 378
#     4  12  22  38  65  96 127 163 205 251 308 355
#     4   7  12  26  47  72  97 130 179 228 284 358
#     4  11  22  36  60  86 117 159 204 259 309 356
#     4   8  24  48  68 104 122 186 216 256 294 316
#     4  12  23  36  53  85 121 154 200 260 311 376
#     4  10  24  44  68  93 135 162 217 252 287 350
#     4  11  22  37  58  88 125 163 199 243 310 376
#
# _framework density 17.682233
#
# number of rings (size 3 to 8) (size 9 to 14) (size 15 to 20)
#    0.245    1.224    4.898    2.449    2.286    0.653 
#    0.000    0.000    0.000    1.469    0.000    2.286 
#    0.000    0.000    0.000    0.000    0.000    0.000 
#
# Total GULP energy -272901.471902 kJ/mol
# GULP energy per Si atom -5569.417794 kJ/mol
# Density = 1.764199 g / cm^3
# Si number density = 17.682233 Si / 1000 Ang^3
#
#
#
# Elastic Constant Matrix: (Units=GPa)
#
#
# Indices 1 2 3 4 5 6 
#
# 1 86.2859 28.9286 25.6153 0.0000 0.0000 0.0000
# 2 28.9286 124.2740 52.8713 0.0000 0.0000 0.0000
# 3 25.6153 52.8713 110.2707 0.0000 0.0000 0.0000
# 4 0.0000 0.0000 0.0000 22.9234 0.0000 0.0000
# 5 0.0000 0.0000 0.0000 0.0000 49.4857 0.0000
# 6 0.0000 0.0000 0.0000 0.0000 0.0000 25.3182
#
#
#
# Elastic Compliance Matrix: (Units=1/GPa)
#
#
# Indices 1 2 3 4 5 6 
#
# 1 0.012898 -0.002170 -0.001955 0.000000 0.000000 0.000000
# 2 -0.002170 0.010474 -0.004518 0.000000 0.000000 0.000000
# 3 -0.001955 -0.004518 0.011689 0.000000 0.000000 0.000000
# 4 0.000000 0.000000 0.000000 0.043624 0.000000 0.000000
# 5 0.000000 0.000000 0.000000 0.000000 0.020208 0.000000
# 6 0.000000 0.000000 0.000000 0.000000 0.000000 0.039497
#
#
# Mechanical properties :
#
#
# Convention : Reuss Voigt Hill
#
# Bulk Modulus (GPa) = 56.26402 59.51790 57.89096
# Shear Modulus (GPa) = 30.94044 33.77315 32.35679
#
# Velocity S-wave (km/s) = 4.18760 4.37510 4.28238
# Velocity P-wave (km/s) = 7.43438 7.69771 7.56719
#
# Compressibility (1/GPa) = 0.01777335
#
# Stress axis : x y z
#
# Youngs Moduli (GPa) = 77.53430 95.47438 85.55087
#
# Poissons Ratio (x) = 0.20722 0.16729
# Poissons Ratio (y) = 0.16828 0.38650
# Poissons Ratio (z) = 0.15161 0.43133
#
# Static dielectric constant tensor:
#      x y z
#    x 1.621200 0.000000 0.000000 
#    y 0.000000 1.666460 0.000000 
#    z 0.000000 0.000000 1.595210 
# 
# From -- ./inp_files/69942.got.cif
#   From: 2010.05.17/outbox.cif.g08.bks.cpg/sg65_35_cif.got.tgz:69942.got - 2010.06.03 17:01:31.
