data_PCOD9493246
_publ_section_title
;
Structure prediction by ZEFSAII (Michael W. Deem and Ramdas Pophale) SiO2 
 PCOD9493246
Probable space group: C M M M
;
_chemical_formula_sum "Si O2"
_cell_formula_units_Z 50
_cell_length_a 15.703314
_cell_length_b 9.216352
_cell_length_c 16.736303
_cell_angle_alpha 90.000000
_cell_angle_beta 90.000000
_cell_angle_gamma 90.000000
_cell_volume 2422.199433
_symmetry_space_group_name_H-M "C M M M"
_symmetry_group_IT_number 65
_symmetry_cell_setting 'orthorhombic'
loop_
_space_group_symop_operation_xyz
x,y,z
-x,-y,z
x,-y,-z
-x,y,-z
-x,-y,-z
x,y,-z
-x,y,z
x,-y,z
1/2+x,1/2+y,z
1/2-x,1/2-y,z
1/2+x,1/2-y,-z
1/2-x,1/2+y,-z
1/2-x,1/2-y,-z
1/2+x,1/2+y,-z
1/2-x,1/2+y,z
1/2+x,1/2-y,z
loop_
_atom_site_type_symbol
_atom_site_label
_atom_site_fract_x
_atom_site_fract_y
_atom_site_fract_z
Si Si1 0.842564 0.675292 0.500000
Si Si2 0.500000 0.794956 0.911022
Si Si3 0.900201 0.168678 0.341151
Si Si4 0.500000 0.500000 0.000000
Si Si5 0.170829 0.333104 0.189259
O O1 0.838972 0.500000 0.500000
O O2 0.750000 0.750000 0.500000
O O3 0.887581 0.738128 0.578859
O O4 0.414748 0.831999 0.863128
O O5 0.500000 0.858310 0.000000
O O6 0.500000 0.625318 0.930654
O O7 0.849304 0.244637 0.269922
O O8 0.000000 0.169621 0.319768
O O9 0.874465 0.000000 0.353467
O O10 0.193312 0.500000 0.206296
O O11 0.250000 0.250000 0.148766
#
# Coordination Sequence:
#
# PCOD9493246 Si02
#       5
#     8   8  16   2  16
#     4  12  25  42  63  91 133 173 225 281 332 397
#     4  10  25  46  74  98 140 175 222 275 338 405
#     4  11  24  42  68  95 132 176 224 276 336 399
#     4   8  24  44  78 100 136 176 226 268 348 396
#     4  12  26  43  70 102 138 179 228 278 337 400
#
# _framework density 20.642396999999999
#
# number of rings (size 3 to 8) (size 9 to 14) (size 15 to 20)
#    0.480    0.320    1.600    5.280    4.480    5.760 
#    0.000    0.000    0.000    0.000    0.000    0.000 
#    0.000    0.000    0.000    0.000    0.000    0.000 
#
# Total GULP energy -139467.875328 kJ/mol
# GULP energy per Si atom -5578.715013 kJ/mol
# Density = 2.059541 g / cm^3
# Si number density = 20.642397 Si / 1000 Ang^3
#
#
#
# Elastic Constant Matrix: (Units=GPa)
#
#
# Indices 1 2 3 4 5 6 
#
# 1 124.9979 42.9938 31.7506 0.0000 0.0000 0.0000
# 2 42.9938 237.7232 37.8511 0.0000 0.0000 0.0000
# 3 31.7506 37.8511 95.9793 0.0000 0.0000 0.0000
# 4 0.0000 0.0000 0.0000 -23.7378 0.0000 0.0000
# 5 0.0000 0.0000 0.0000 0.0000 -9.8226 0.0000
# 6 0.0000 0.0000 0.0000 0.0000 0.0000 -36.9413
#
#
#
# Elastic Compliance Matrix: (Units=1/GPa)
#
#
# Indices 1 2 3 4 5 6 
#
# 1 0.009064 -0.001240 -0.002510 0.000000 0.000000 0.000000
# 2 -0.001240 0.004658 -0.001427 0.000000 0.000000 0.000000
# 3 -0.002510 -0.001427 0.011812 0.000000 0.000000 0.000000
# 4 0.000000 0.000000 0.000000 -0.042127 0.000000 0.000000
# 5 0.000000 0.000000 0.000000 0.000000 -0.101806 0.000000
# 6 0.000000 0.000000 0.000000 0.000000 0.000000 -0.027070
#
#
# Mechanical properties :
#
#
# Convention : Reuss Voigt Hill
#
# Bulk Modulus (GPa) = 65.86931 75.98793 70.92862
# Shear Modulus (GPa) = -38.44478 8.97332 -14.73573
#
# Velocity S-wave (km/s) = -4.32026 2.08722 -2.67471
# Velocity P-wave (km/s) = 2.66324 6.53453 4.98964
#
# Compressibility (1/GPa) = 0.01518158
#
# Stress axis : x y z
#
# Youngs Moduli (GPa) = 110.32687 214.68578 84.66121
#
# Poissons Ratio (x) = 0.26615 0.21246
# Poissons Ratio (y) = 0.13677 0.12080
# Poissons Ratio (z) = 0.27687 0.30632
#
# Static dielectric constant tensor:
#      x y z
#    x 1.768670 0.000000 0.000000 
#    y 0.000000 1.707260 0.000000 
#    z 0.000000 0.000000 1.732930 
# 
# From -- ./inp_files/53829.got.cif
#   From: 2010.05.17/outbox.cif.g08.bks.cpg/sg65_27_cif.got.tgz:53829.got - 2010.06.03 17:01:31.
