data_PCOD9493500
_publ_section_title
;
Structure prediction by ZEFSAII (Michael W. Deem and Ramdas Pophale) SiO2 
 PCOD9493500
Probable space group: C M M M
;
_chemical_formula_sum "Si O2"
_cell_formula_units_Z 88
_cell_length_a 8.527742
_cell_length_b 18.651716
_cell_length_c 29.808810
_cell_angle_alpha 90.000000
_cell_angle_beta 90.000000
_cell_angle_gamma 90.000000
_cell_volume 4741.300545
_symmetry_space_group_name_H-M "C M M M"
_symmetry_group_IT_number 65
_symmetry_cell_setting 'orthorhombic'
loop_
_space_group_symop_operation_xyz
x,y,z
-x,-y,z
x,-y,-z
-x,y,-z
-x,-y,-z
x,y,-z
-x,y,z
x,-y,z
1/2+x,1/2+y,z
1/2-x,1/2-y,z
1/2+x,1/2-y,-z
1/2-x,1/2+y,-z
1/2-x,1/2-y,-z
1/2+x,1/2+y,-z
1/2-x,1/2+y,z
1/2+x,1/2-y,z
loop_
_atom_site_type_symbol
_atom_site_label
_atom_site_fract_x
_atom_site_fract_y
_atom_site_fract_z
Si Si1 0.188333 0.083425 0.086086
Si Si2 0.311724 0.331832 0.265861
Si Si3 0.310405 0.331054 0.363934
Si Si4 0.686732 0.831790 0.828293
Si Si5 0.686909 0.831073 0.000000
Si Si6 0.191021 0.916515 0.549297
O O1 0.247490 0.120886 0.131369
O O2 0.000000 0.086324 0.084876
O O3 0.236587 0.000000 0.084098
O O4 0.253797 0.126952 0.043797
O O5 0.500000 0.331768 0.262018
O O6 0.250000 0.250000 0.267184
O O7 0.267195 0.362475 0.314805
O O8 0.240626 0.362180 0.220118
O O9 0.500000 0.329811 0.365011
O O10 0.250000 0.250000 0.366437
O O11 0.252672 0.373952 0.407285
O O12 0.500000 0.829107 0.830069
O O13 0.750000 0.750000 0.832306
O O14 0.750000 0.750000 0.000000
O O15 0.500000 0.829058 0.000000
O O16 0.241583 0.889379 0.500000
O O17 0.000000 0.913809 0.549728
O O18 0.234425 0.000000 0.552579
#
# Coordination Sequence:
#
# PCOD9493500 Si02
#       6
#    16  16  16  16   8  16
#     4  11  24  42  62  85 116 150 183 222 270 318
#     4   9  16  28  46  70 100 132 168 209 256 307
#     4   9  17  28  45  70  97 125 161 206 254 303
#     4  11  21  35  57  82 109 141 181 223 263 313
#     4  12  25  42  65  91 119 149 187 228 265 312
#     4   8  14  26  44  65  90 122 161 203 246 297
#
# _framework density 18.560307999999999
#
# number of rings (size 3 to 8) (size 9 to 14) (size 15 to 20)
#    0.000    2.182    0.000    6.000    0.000    3.636 
#    0.000    0.909    0.000    3.818    0.000    1.273 
#    0.000    0.000    0.000    0.000    0.000    0.000 
#
# Total GULP energy -245430.696205 kJ/mol
# GULP energy per Si atom -5577.970368 kJ/mol
# Density = 1.851806 g / cm^3
# Si number density = 18.560308 Si / 1000 Ang^3
#
#
#
# Elastic Constant Matrix: (Units=GPa)
#
#
# Indices 1 2 3 4 5 6 
#
# 1 68.6830 33.2459 47.5077 0.0000 0.0000 0.0000
# 2 33.2459 89.7438 92.3412 0.0000 0.0000 0.0000
# 3 47.5077 92.3412 234.4253 0.0000 0.0000 0.0000
# 4 0.0000 0.0000 0.0000 -17.9000 0.0000 0.0000
# 5 0.0000 0.0000 0.0000 0.0000 12.3670 0.0000
# 6 0.0000 0.0000 0.0000 0.0000 0.0000 20.0331
#
#
#
# Elastic Compliance Matrix: (Units=1/GPa)
#
#
# Indices 1 2 3 4 5 6 
#
# 1 0.018149 -0.004942 -0.001731 0.000000 0.000000 0.000000
# 2 -0.004942 0.020083 -0.006909 0.000000 0.000000 0.000000
# 3 -0.001731 -0.006909 0.007338 0.000000 0.000000 0.000000
# 4 0.000000 0.000000 0.000000 -0.055866 0.000000 0.000000
# 5 0.000000 0.000000 0.000000 0.000000 0.080861 0.000000
# 6 0.000000 0.000000 0.000000 0.000000 0.000000 0.049918
#
#
# Mechanical properties :
#
#
# Convention : Reuss Voigt Hill
#
# Bulk Modulus (GPa) = 54.33242 82.11574 68.22408
# Shear Modulus (GPa) = 32.51343 17.55049 25.03196
#
# Velocity S-wave (km/s) = 4.18996 3.07839 3.67643
# Velocity P-wave (km/s) = 7.26255 7.54811 7.40671
#
# Compressibility (1/GPa) = 0.01840522
#
# Stress axis : x y z
#
# Youngs Moduli (GPa) = 55.09822 49.79413 136.27362
#
# Poissons Ratio (x) = 0.24608 0.23595
# Poissons Ratio (y) = 0.27229 0.94153
# Poissons Ratio (z) = 0.09540 0.34403
#
# Static dielectric constant tensor:
#      x y z
#    x 1.613970 0.000000 0.000000 
#    y 0.000000 1.579530 0.000000 
#    z 0.000000 0.000000 1.678750 
# 
# From -- ./inp_files/76592.got.cif
#   From: 2010.05.17/outbox.cif.g08.bks.cpg/sg65_39_cif.got.tgz:76592.got - 2010.06.03 17:01:31.
