data_PCOD9493602
_publ_section_title
;
Structure prediction by ZEFSAII (Michael W. Deem and Ramdas Pophale) SiO2 
 PCOD9493602
Probable space group: C M M M
;
_chemical_formula_sum "Si O2"
_cell_formula_units_Z 88
_cell_length_a 18.827366
_cell_length_b 7.577426
_cell_length_c 31.050013
_cell_angle_alpha 90.000000
_cell_angle_beta 90.000000
_cell_angle_gamma 90.000000
_cell_volume 4429.687155
_symmetry_space_group_name_H-M "C M M M"
_symmetry_group_IT_number 65
_symmetry_cell_setting 'orthorhombic'
loop_
_space_group_symop_operation_xyz
x,y,z
-x,-y,z
x,-y,-z
-x,y,-z
-x,-y,-z
x,y,-z
-x,y,z
x,-y,z
1/2+x,1/2+y,z
1/2-x,1/2-y,z
1/2+x,1/2-y,-z
1/2-x,1/2+y,-z
1/2-x,1/2-y,-z
1/2+x,1/2+y,-z
1/2-x,1/2+y,z
1/2+x,1/2-y,z
loop_
_atom_site_type_symbol
_atom_site_label
_atom_site_fract_x
_atom_site_fract_y
_atom_site_fract_z
Si Si1 0.666188 0.210709 0.104915
Si Si2 0.579944 0.210867 0.285563
Si Si3 0.918015 0.285651 0.189711
Si Si4 0.667494 0.292264 0.370216
Si Si5 0.582493 0.284517 0.547799
Si Si6 0.416412 0.500000 0.051541
O O1 0.750000 0.250000 0.102552
O O2 0.634626 0.265655 0.151612
O O3 0.623115 0.328759 0.070918
O O4 0.654965 0.000000 0.099074
O O5 0.500000 0.277854 0.294613
O O6 0.601981 0.275255 0.237946
O O7 0.631120 0.245412 0.325155
O O8 0.575271 0.000000 0.281894
O O9 0.917990 0.500000 0.189901
O O10 0.000000 0.231255 0.181519
O O11 0.659862 0.500000 0.374137
O O12 0.750000 0.250000 0.370068
O O13 0.627969 0.216096 0.412181
O O14 0.606484 0.228009 0.500000
O O15 0.500000 0.234757 0.553148
O O16 0.584302 0.500000 0.547664
O O17 0.500000 0.500000 0.063504
O O18 0.411359 0.500000 0.000000
#
# Coordination Sequence:
#
# PCOD9493602 Si02
#       6
#    16  16  16  16  16   8
#     4  11  22  41  65  96 132 171 212 260 320 377
#     4   9  18  35  57  81 110 146 185 229 284 339
#     4   8  16  33  59  86 115 153 196 241 291 353
#     4  11  22  34  49  73 106 140 181 225 273 331
#     4   8  15  30  52  74  95 125 167 218 274 331
#     4  11  26  46  68  98 131 167 219 271 317 379
#
# _framework density 19.865964000000002
#
# number of rings (size 3 to 8) (size 9 to 14) (size 15 to 20)
#    0.000    2.455    0.909    3.273    0.000    4.000 
#    1.636    2.727    0.000    1.636    0.000    6.364 
#    0.000    0.000    0.000    0.000    0.000    0.000 
#
# Total GULP energy -245520.641298 kJ/mol
# GULP energy per Si atom -5580.014575 kJ/mol
# Density = 1.982075 g / cm^3
# Si number density = 19.865964 Si / 1000 Ang^3
#
#
#
# Elastic Constant Matrix: (Units=GPa)
#
#
# Indices 1 2 3 4 5 6 
#
# 1 140.7615 28.0886 114.0002 0.0000 0.0000 0.0000
# 2 28.0886 76.3477 37.0603 0.0000 0.0000 0.0000
# 3 114.0002 37.0603 172.0782 0.0000 0.0000 0.0000
# 4 0.0000 0.0000 0.0000 14.3837 0.0000 0.0000
# 5 0.0000 0.0000 0.0000 0.0000 -10.8551 0.0000
# 6 0.0000 0.0000 0.0000 0.0000 0.0000 -56.0399
#
#
#
# Elastic Compliance Matrix: (Units=1/GPa)
#
#
# Indices 1 2 3 4 5 6 
#
# 1 0.015372 -0.000795 -0.010012 0.000000 0.000000 0.000000
# 2 -0.000795 0.014668 -0.002632 0.000000 0.000000 0.000000
# 3 -0.010012 -0.002632 0.013011 0.000000 0.000000 0.000000
# 4 0.000000 0.000000 0.000000 0.069523 0.000000 0.000000
# 5 0.000000 0.000000 0.000000 0.000000 -0.092123 0.000000
# 6 0.000000 0.000000 0.000000 0.000000 0.000000 -0.017844
#
#
# Mechanical properties :
#
#
# Convention : Reuss Voigt Hill
#
# Bulk Modulus (GPa) = 61.83658 83.05396 72.44527
# Shear Modulus (GPa) = 143.35930 3.50029 73.42979
#
# Velocity S-wave (km/s) = 8.50411 1.32883 6.08628
# Velocity P-wave (km/s) = 11.29695 6.65224 9.27020
#
# Compressibility (1/GPa) = 0.01617166
#
# Stress axis : x y z
#
# Youngs Moduli (GPa) = 65.05448 68.17432 76.85605
#
# Poissons Ratio (x) = 0.05421 0.76951
# Poissons Ratio (y) = 0.05173 0.20231
# Poissons Ratio (z) = 0.65135 0.17945
#
# Static dielectric constant tensor:
#      x y z
#    x 1.648800 0.000000 0.000000 
#    y 0.000000 1.782110 0.000000 
#    z 0.000000 0.000000 1.719610 
# 
# From -- ./inp_files/77805.got.cif
#   From: 2010.05.17/outbox.cif.g08.bks.cpg/sg65_39_cif.got.tgz:77805.got - 2010.06.03 17:01:31.
