data_PCOD9493797
_publ_section_title
;
Structure prediction by ZEFSAII (Michael W. Deem and Ramdas Pophale) SiO2 
 PCOD9493797
Probable space group: C M M M
;
_chemical_formula_sum "Si O2"
_cell_formula_units_Z 88
_cell_length_a 19.558175
_cell_length_b 20.407337
_cell_length_c 11.525112
_cell_angle_alpha 90.000000
_cell_angle_beta 90.000000
_cell_angle_gamma 90.000000
_cell_volume 4600.021045
_symmetry_space_group_name_H-M "C M M M"
_symmetry_group_IT_number 65
_symmetry_cell_setting 'orthorhombic'
loop_
_space_group_symop_operation_xyz
x,y,z
-x,-y,z
x,-y,-z
-x,y,-z
-x,-y,-z
x,y,-z
-x,y,z
x,-y,z
1/2+x,1/2+y,z
1/2-x,1/2-y,z
1/2+x,1/2-y,-z
1/2-x,1/2+y,-z
1/2-x,1/2-y,-z
1/2+x,1/2+y,-z
1/2-x,1/2+y,z
1/2+x,1/2-y,z
loop_
_atom_site_type_symbol
_atom_site_label
_atom_site_fract_x
_atom_site_fract_y
_atom_site_fract_z
Si Si1 0.143336 0.313916 0.000000
Si Si2 0.858718 0.118081 0.761312
Si Si3 0.118441 0.500000 0.640005
Si Si4 0.329111 0.750596 0.361727
Si Si5 0.418910 0.861423 0.756531
Si Si6 0.282629 0.500000 0.636060
Si Si7 0.193259 0.169326 0.000000
Si Si8 0.000000 0.922338 0.131949
O O1 0.108909 0.346608 0.113226
O O2 0.143615 0.233943 0.000000
O O3 0.225320 0.321294 0.000000
O O4 0.860944 0.185020 0.689879
O O5 0.822510 0.130849 0.883529
O O6 0.933981 0.096790 0.795902
O O7 0.816675 0.063623 0.692606
O O8 0.101909 0.500000 0.500000
O O9 0.091783 0.565302 0.705500
O O10 0.200882 0.500000 0.650512
O O11 0.328163 0.749048 0.500000
O O12 0.250000 0.750000 0.319511
O O13 0.372172 0.812748 0.319962
O O14 0.500000 0.846268 0.751456
O O15 0.297212 0.500000 0.500000
O O16 0.000000 0.000000 0.119941
O O17 0.000000 0.894216 0.000000
#
# Coordination Sequence:
#
# PCOD9493797 Si02
#       8
#     8  16   8  16  16   8   8   8
#     4  11  23  43  65  99 136 168 211 277 340 388
#     4  12  23  41  67  98 132 173 222 272 332 394
#     4  11  25  47  72  97 132 174 223 275 327 394
#     4  11  24  43  67  96 132 174 223 276 327 387
#     4  12  26  44  68  98 136 174 219 271 334 401
#     4  11  24  43  68  99 133 174 223 277 330 386
#     4  11  22  38  70  98 129 170 221 275 326 397
#     4  11  24  44  60  92 136 175 216 267 331 399
#
# _framework density 19.130347
#
# number of rings (size 3 to 8) (size 9 to 14) (size 15 to 20)
#    0.000    0.636    3.636    4.909    1.273    5.455 
#    1.636    4.545    0.000    0.000    0.000    0.000 
#    0.000    0.000    0.000    0.000    0.000    0.000 
#
# Total GULP energy -245875.134801 kJ/mol
# GULP energy per Si atom -5588.071245 kJ/mol
# Density = 1.908681 g / cm^3
# Si number density = 19.130347 Si / 1000 Ang^3
#
#
#
# Elastic Constant Matrix: (Units=GPa)
#
#
# Indices 1 2 3 4 5 6 
#
# 1 139.0907 54.7756 59.5893 0.0000 0.0000 0.0000
# 2 54.7756 135.5146 59.8695 0.0000 0.0000 0.0000
# 3 59.5893 59.8695 134.3546 0.0000 0.0000 0.0000
# 4 0.0000 0.0000 0.0000 -36.8021 0.0000 0.0000
# 5 0.0000 0.0000 0.0000 0.0000 -1.7839 0.0000
# 6 0.0000 0.0000 0.0000 0.0000 0.0000 20.3349
#
#
#
# Elastic Compliance Matrix: (Units=1/GPa)
#
#
# Indices 1 2 3 4 5 6 
#
# 1 0.009493 -0.002462 -0.003113 0.000000 0.000000 0.000000
# 2 -0.002462 0.009826 -0.003287 0.000000 0.000000 0.000000
# 3 -0.003113 -0.003287 0.010289 0.000000 0.000000 0.000000
# 4 0.000000 0.000000 0.000000 -0.027172 0.000000 0.000000
# 5 0.000000 0.000000 0.000000 0.000000 -0.560585 0.000000
# 6 0.000000 0.000000 0.000000 0.000000 0.000000 0.049177
#
#
# Mechanical properties :
#
#
# Convention : Reuss Voigt Hill
#
# Bulk Modulus (GPa) = 84.14722 84.15873 84.15298
# Shear Modulus (GPa) = -10.26087 11.99815 0.86864
#
# Velocity S-wave (km/s) = -2.31847 2.50707 0.67457
# Velocity P-wave (km/s) = 6.07574 7.24350 6.68517
#
# Compressibility (1/GPa) = 0.01188393
#
# Stress axis : x y z
#
# Youngs Moduli (GPa) = 105.34327 101.76651 97.19550
#
# Poissons Ratio (x) = 0.25050 0.30261
# Poissons Ratio (y) = 0.25931 0.31948
# Poissons Ratio (z) = 0.32797 0.33450
#
# Static dielectric constant tensor:
#      x y z
#    x 1.656560 0.000000 0.000000 
#    y 0.000000 1.663750 0.000000 
#    z 0.000000 0.000000 1.669470 
# 
# From -- ./inp_files/26897.got.cif
#   From: 2010.05.17/outbox.cif.g08.bks.cpg/sg65_14_cif.got.tgz:26897.got - 2010.06.03 17:01:31.
