data_PCOD9493928
_publ_section_title
;
Structure prediction by ZEFSAII (Michael W. Deem and Ramdas Pophale) SiO2 
 PCOD9493928
Probable space group: C M M M
;
_chemical_formula_sum "Si O2"
_cell_formula_units_Z 64
_cell_length_a 11.446444
_cell_length_b 35.422753
_cell_length_c 8.956383
_cell_angle_alpha 90.000000
_cell_angle_beta 90.000000
_cell_angle_gamma 90.000000
_cell_volume 3631.495879
_symmetry_space_group_name_H-M "C M M M"
_symmetry_group_IT_number 65
_symmetry_cell_setting 'orthorhombic'
loop_
_space_group_symop_operation_xyz
x,y,z
-x,-y,z
x,-y,-z
-x,y,-z
-x,-y,-z
x,y,-z
-x,y,z
x,-y,z
1/2+x,1/2+y,z
1/2-x,1/2-y,z
1/2+x,1/2-y,-z
1/2-x,1/2+y,-z
1/2-x,1/2-y,-z
1/2+x,1/2+y,-z
1/2-x,1/2+y,z
1/2+x,1/2-y,z
loop_
_atom_site_type_symbol
_atom_site_label
_atom_site_fract_x
_atom_site_fract_y
_atom_site_fract_z
Si Si1 0.866623 0.272270 0.318648
Si Si2 0.000000 0.954945 0.677858
Si Si3 0.738927 0.429575 0.822665
Si Si4 0.638848 0.000000 0.670179
Si Si5 0.862783 0.360656 0.324802
O O1 0.868824 0.269159 0.500000
O O2 0.750000 0.250000 0.266866
O O3 0.850481 0.316633 0.283912
O O4 0.000000 0.261129 0.269077
O O5 0.886863 0.936665 0.751113
O O6 0.000000 0.949668 0.500000
O O7 0.000000 0.000000 0.707590
O O8 0.818374 0.462783 0.754196
O O9 0.789137 0.389355 0.772713
O O10 0.734676 0.432833 0.000000
O O11 0.500000 0.000000 0.663334
O O12 0.686469 0.000000 0.500000
O O13 0.831096 0.364820 0.500000
O O14 0.000000 0.370133 0.311197
#
# Coordination Sequence:
#
# PCOD9493928 Si02
#       5
#    16   8  16   8  16
#     4   8  14  27  49  77 109 142 182 234 283 325
#     4  11  23  41  63  79 102 144 188 224 270 334
#     4  12  24  37  56  81 111 142 179 228 277 327
#     4  11  23  38  57  80 107 141 183 229 272 323
#     4   9  18  34  55  79 111 149 185 227 276 326
#
# _framework density 17.623591000000001
#
# number of rings (size 3 to 8) (size 9 to 14) (size 15 to 20)
#    0.000    2.000    1.250    5.250    0.000    5.000 
#    2.250    0.000    0.000    0.750    0.000    0.000 
#    0.000    0.000    0.000    0.000    0.000    0.000 
#
# Total GULP energy -178549.668365 kJ/mol
# GULP energy per Si atom -5579.677136 kJ/mol
# Density = 1.758348 g / cm^3
# Si number density = 17.623591 Si / 1000 Ang^3
#
#
#
# Elastic Constant Matrix: (Units=GPa)
#
#
# Indices 1 2 3 4 5 6 
#
# 1 133.0429 73.7497 54.4068 0.0000 0.0000 0.0000
# 2 73.7497 83.2900 47.7125 0.0000 0.0000 0.0000
# 3 54.4068 47.7125 89.8118 0.0000 0.0000 0.0000
# 4 0.0000 0.0000 0.0000 -6.1626 0.0000 0.0000
# 5 0.0000 0.0000 0.0000 0.0000 5.6283 0.0000
# 6 0.0000 0.0000 0.0000 0.0000 0.0000 36.4757
#
#
#
# Elastic Compliance Matrix: (Units=1/GPa)
#
#
# Indices 1 2 3 4 5 6 
#
# 1 0.015297 -0.011839 -0.002977 0.000000 0.000000 0.000000
# 2 -0.011839 0.026422 -0.006864 0.000000 0.000000 0.000000
# 3 -0.002977 -0.006864 0.016585 0.000000 0.000000 0.000000
# 4 0.000000 0.000000 0.000000 -0.162268 0.000000 0.000000
# 5 0.000000 0.000000 0.000000 0.000000 0.177675 0.000000
# 6 0.000000 0.000000 0.000000 0.000000 0.000000 0.027416
#
#
# Mechanical properties :
#
#
# Convention : Reuss Voigt Hill
#
# Bulk Modulus (GPa) = 66.92712 73.09809 70.01260
# Shear Modulus (GPa) = 33.45232 15.87330 24.66281
#
# Velocity S-wave (km/s) = 4.36151 3.00440 3.74494
# Velocity P-wave (km/s) = 7.96379 7.32138 7.64934
#
# Compressibility (1/GPa) = 0.01494163
#
# Stress axis : x y z
#
# Youngs Moduli (GPa) = 65.37430 37.84785 60.29715
#
# Poissons Ratio (x) = 0.44808 0.17950
# Poissons Ratio (y) = 0.77397 0.41391
# Poissons Ratio (z) = 0.19461 0.25981
#
# Static dielectric constant tensor:
#      x y z
#    x 1.613870 0.000000 0.000000 
#    y 0.000000 1.579080 0.000000 
#    z 0.000000 0.000000 1.579830 
# 
# From -- ./inp_files/4915.got.cif
#   From: 2010.05.17/outbox.cif.g08.bks.cpg/sg65_3_cif.got.tgz:4915.got - 2010.06.03 17:01:31.
