data_PCOD9493166
_publ_section_title
;
Structure prediction by ZEFSAII (Michael W. Deem and Ramdas Pophale) SiO2 
 PCOD9493166
Probable space group: C M M M
;
_chemical_formula_sum "Si O2"
_cell_formula_units_Z 64
_cell_length_a 15.397606
_cell_length_b 16.341052
_cell_length_c 11.540118
_cell_angle_alpha 90.000000
_cell_angle_beta 90.000000
_cell_angle_gamma 90.000000
_cell_volume 2903.644637
_symmetry_space_group_name_H-M "C M M M"
_symmetry_group_IT_number 65
_symmetry_cell_setting 'orthorhombic'
loop_
_space_group_symop_operation_xyz
x,y,z
-x,-y,z
x,-y,-z
-x,y,-z
-x,-y,-z
x,y,-z
-x,y,z
x,-y,z
1/2+x,1/2+y,z
1/2-x,1/2-y,z
1/2+x,1/2-y,-z
1/2-x,1/2+y,-z
1/2-x,1/2-y,-z
1/2+x,1/2+y,-z
1/2-x,1/2+y,z
1/2+x,1/2-y,z
loop_
_atom_site_type_symbol
_atom_site_label
_atom_site_fract_x
_atom_site_fract_y
_atom_site_fract_z
Si Si1 0.624307 0.000000 0.368668
Si Si2 0.299142 0.093057 0.000000
Si Si3 0.831192 0.000000 0.632325
Si Si4 0.901104 0.831767 0.262447
Si Si5 0.902117 0.874732 0.000000
Si Si6 0.600554 0.840053 0.780574
O O1 0.728248 0.000000 0.370704
O O2 0.598361 0.918948 0.300629
O O3 0.593625 0.000000 0.500000
O O4 0.336005 0.139116 0.887230
O O5 0.194439 0.086445 0.000000
O O6 0.334104 0.000000 0.000000
O O7 0.858056 0.084046 0.696329
O O8 0.865326 0.000000 0.500000
O O9 0.900888 0.829401 0.122390
O O10 0.868280 0.740589 0.289781
O O11 0.000000 0.837522 0.304815
O O12 0.000000 0.914673 0.000000
O O13 0.500000 0.826178 0.819472
#
# Coordination Sequence:
#
# PCOD9493166 Si02
#       6
#     8   8   8  16   8  16
#     4  11  25  42  63  92 127 175 225 272 332 391
#     4  12  24  38  66 102 133 176 219 261 334 399
#     4  11  25  44  65  94 129 169 227 283 329 393
#     4  10  23  42  67  96 130 172 217 272 336 392
#     4  10  23  41  63  97 137 172 214 266 324 400
#     4  11  24  43  66  98 135 172 221 276 328 393
#
# _framework density 22.041264999999999
#
# number of rings (size 3 to 8) (size 9 to 14) (size 15 to 20)
#    0.000    1.250    1.250    3.375    1.750   10.750 
#    0.000    5.000    0.000    0.000    0.000    0.000 
#    0.000    0.000    0.000    0.000    0.000    0.000 
#
# Total GULP energy -178535.847060 kJ/mol
# GULP energy per Si atom -5579.245221 kJ/mol
# Density = 2.199110 g / cm^3
# Si number density = 22.041265 Si / 1000 Ang^3
#
#
#
# Elastic Constant Matrix: (Units=GPa)
#
#
# Indices 1 2 3 4 5 6 
#
# 1 131.0744 57.6450 28.2744 0.0000 0.0000 0.0000
# 2 57.6450 215.2386 62.2440 0.0000 0.0000 0.0000
# 3 28.2744 62.2440 98.5829 0.0000 0.0000 0.0000
# 4 0.0000 0.0000 0.0000 1.0218 0.0000 0.0000
# 5 0.0000 0.0000 0.0000 0.0000 61.6889 0.0000
# 6 0.0000 0.0000 0.0000 0.0000 0.0000 -21.3421
#
#
#
# Elastic Compliance Matrix: (Units=1/GPa)
#
#
# Indices 1 2 3 4 5 6 
#
# 1 0.008775 -0.001985 -0.001264 0.000000 0.000000 0.000000
# 2 -0.001985 0.006133 -0.003303 0.000000 0.000000 0.000000
# 3 -0.001264 -0.003303 0.012592 0.000000 0.000000 0.000000
# 4 0.000000 0.000000 0.000000 0.978669 0.000000 0.000000
# 5 0.000000 0.000000 0.000000 0.000000 0.016210 0.000000
# 6 0.000000 0.000000 0.000000 0.000000 0.000000 -0.046856
#
#
# Mechanical properties :
#
#
# Convention : Reuss Voigt Hill
#
# Bulk Modulus (GPa) = 69.46034 82.35808 75.90921
# Shear Modulus (GPa) = 5.03310 28.05588 16.54449
#
# Velocity S-wave (km/s) = 1.51276 3.57161 2.74271
# Velocity P-wave (km/s) = 5.88502 7.37937 6.67415
#
# Compressibility (1/GPa) = 0.01439670
#
# Stress axis : x y z
#
# Youngs Moduli (GPa) = 113.96490 163.06110 79.41832
#
# Poissons Ratio (x) = 0.32361 0.10035
# Poissons Ratio (y) = 0.22618 0.26231
# Poissons Ratio (z) = 0.14400 0.53857
#
# Static dielectric constant tensor:
#      x y z
#    x 1.827180 0.000000 0.000000 
#    y 0.000000 1.861050 0.000000 
#    z 0.000000 0.000000 1.789310 
# 
# From -- ./inp_files/24011.got.cif
#   From: 2010.05.17/outbox.cif.g08.bks.cpg/sg65_13_cif.got.tgz:24011.got - 2010.06.03 17:01:31.
