data_PCOD9493691
_publ_section_title
;
Structure prediction by ZEFSAII (Michael W. Deem and Ramdas Pophale) SiO2 
 PCOD9493691
Probable space group: C M M M
;
_chemical_formula_sum "Si O2"
_cell_formula_units_Z 72
_cell_length_a 8.751999
_cell_length_b 15.157891
_cell_length_c 29.750416
_cell_angle_alpha 90.000000
_cell_angle_beta 90.000000
_cell_angle_gamma 90.000000
_cell_volume 3946.745132
_symmetry_space_group_name_H-M "C M M M"
_symmetry_group_IT_number 65
_symmetry_cell_setting 'orthorhombic'
loop_
_space_group_symop_operation_xyz
x,y,z
-x,-y,z
x,-y,-z
-x,y,-z
-x,-y,-z
x,y,-z
-x,y,z
x,-y,z
1/2+x,1/2+y,z
1/2-x,1/2-y,z
1/2+x,1/2-y,-z
1/2-x,1/2+y,-z
1/2-x,1/2-y,-z
1/2+x,1/2+y,-z
1/2-x,1/2+y,z
1/2+x,1/2-y,z
loop_
_atom_site_type_symbol
_atom_site_label
_atom_site_fract_x
_atom_site_fract_y
_atom_site_fract_z
Si Si1 0.181736 0.341374 0.856417
Si Si2 0.814062 0.500000 0.448638
Si Si3 0.320972 0.606533 0.950519
Si Si4 0.185956 0.500000 0.690565
Si Si5 0.184824 0.650760 0.378991
Si Si6 0.186715 0.500000 0.793354
O O1 0.250000 0.250000 0.841011
O O2 0.233636 0.358431 0.907495
O O3 0.236410 0.416712 0.822645
O O4 0.000000 0.339611 0.855611
O O5 0.761000 0.500000 0.500000
O O6 0.769367 0.411400 0.421412
O O7 0.000000 0.500000 0.448579
O O8 0.500000 0.630546 0.946970
O O9 0.312289 0.500000 0.949411
O O10 0.264647 0.635017 0.000000
O O11 0.230794 0.411338 0.663437
O O12 0.238886 0.500000 0.741957
O O13 0.000000 0.500000 0.690320
O O14 0.250000 0.750000 0.379019
O O15 0.000000 0.657163 0.378972
O O16 0.000000 0.500000 0.792401
#
# Coordination Sequence:
#
# PCOD9493691 Si02
#       6
#    16   8  16   8  16   8
#     4  11  22  36  54  78 103 132 167 204 248 298
#     4   8  15  29  47  69 101 142 181 208 243 305
#     4   9  18  34  56  79 103 132 164 201 246 293
#     4   8  16  33  53  71  96 133 169 203 251 311
#     4   9  17  30  51  75  99 132 172 213 256 299
#     4   9  19  36  55  74 100 131 167 208 250 301
#
# _framework density 18.242881000000001
#
# number of rings (size 3 to 8) (size 9 to 14) (size 15 to 20)
#    0.000    2.778    1.111    2.667    0.000    2.222 
#    0.000    3.333    0.000    4.667    0.000    0.000 
#    0.000    0.000    0.000    0.000    0.000    0.000 
#
# Total GULP energy -200653.654997 kJ/mol
# GULP energy per Si atom -5573.712639 kJ/mol
# Density = 1.820136 g / cm^3
# Si number density = 18.242881 Si / 1000 Ang^3
#
#
#
# Elastic Constant Matrix: (Units=GPa)
#
#
# Indices 1 2 3 4 5 6 
#
# 1 18.7507 33.5880 28.7951 0.0000 0.0000 0.0000
# 2 33.5880 180.2770 103.4677 0.0000 0.0000 0.0000
# 3 28.7951 103.4677 176.0262 0.0000 0.0000 0.0000
# 4 0.0000 0.0000 0.0000 -0.3689 0.0000 0.0000
# 5 0.0000 0.0000 0.0000 0.0000 8.5956 0.0000
# 6 0.0000 0.0000 0.0000 0.0000 0.0000 29.9956
#
#
#
# Elastic Compliance Matrix: (Units=1/GPa)
#
#
# Indices 1 2 3 4 5 6 
#
# 1 0.085352 -0.011905 -0.006964 0.000000 0.000000 0.000000
# 2 -0.011905 0.010032 -0.003949 0.000000 0.000000 0.000000
# 3 -0.006964 -0.003949 0.009142 0.000000 0.000000 0.000000
# 4 0.000000 0.000000 0.000000 -2.710996 0.000000 0.000000
# 5 0.000000 0.000000 0.000000 0.000000 0.116339 0.000000
# 6 0.000000 0.000000 0.000000 0.000000 0.000000 0.033338
#
#
# Mechanical properties :
#
#
# Convention : Reuss Voigt Hill
#
# Bulk Modulus (GPa) = 16.98138 78.52839 47.75488
# Shear Modulus (GPa) = -2.09071 21.59134 9.75031
#
# Velocity S-wave (km/s) = -1.07170 3.44401 2.31437
# Velocity P-wave (km/s) = 2.79237 7.67818 5.77719
#
# Compressibility (1/GPa) = 0.05888803
#
# Stress axis : x y z
#
# Youngs Moduli (GPa) = 11.71616 99.68481 109.39118
#
# Poissons Ratio (x) = 1.18676 0.76185
# Poissons Ratio (y) = 0.13948 0.43199
# Poissons Ratio (z) = 0.08160 0.39366
#
# Static dielectric constant tensor:
#      x y z
#    x 1.626620 0.000000 0.000000 
#    y 0.000000 1.620850 0.000000 
#    z 0.000000 0.000000 1.631360 
# 
# From -- ./inp_files/76372.got.cif
#   From: 2010.05.17/outbox.cif.g08.bks.cpg/sg65_39_cif.got.tgz:76372.got - 2010.06.03 17:01:31.
