data_PCOD9493272
_publ_section_title
;
Structure prediction by ZEFSAII (Michael W. Deem and Ramdas Pophale) SiO2 
 PCOD9493272
Probable space group: C M M M
;
_chemical_formula_sum "Si O2"
_cell_formula_units_Z 88
_cell_length_a 24.894138
_cell_length_b 31.514909
_cell_length_c 8.232543
_cell_angle_alpha 90.000000
_cell_angle_beta 90.000000
_cell_angle_gamma 90.000000
_cell_volume 6458.730419
_symmetry_space_group_name_H-M "C M M M"
_symmetry_group_IT_number 65
_symmetry_cell_setting 'orthorhombic'
loop_
_space_group_symop_operation_xyz
x,y,z
-x,-y,z
x,-y,-z
-x,y,-z
-x,-y,-z
x,y,-z
-x,y,z
x,-y,z
1/2+x,1/2+y,z
1/2-x,1/2-y,z
1/2+x,1/2-y,-z
1/2-x,1/2+y,-z
1/2-x,1/2-y,-z
1/2+x,1/2+y,-z
1/2-x,1/2+y,z
1/2+x,1/2-y,z
loop_
_atom_site_type_symbol
_atom_site_label
_atom_site_fract_x
_atom_site_fract_y
_atom_site_fract_z
Si Si1 0.500000 0.141387 0.698128
Si Si2 0.562383 0.000000 0.193651
Si Si3 0.781555 0.795048 0.187089
Si Si4 0.617238 0.751950 0.196417
Si Si5 0.677386 0.162212 0.803611
Si Si6 0.395952 0.089630 0.305768
Si Si7 0.000000 0.738407 0.694187
O O1 0.500000 0.141676 0.500000
O O2 0.552472 0.116488 0.753382
O O3 0.500000 0.189599 0.754603
O O4 0.593919 0.958041 0.248318
O O5 0.500000 0.000000 0.256874
O O6 0.559210 0.000000 0.000000
O O7 0.750000 0.750000 0.182029
O O8 0.839251 0.782505 0.258668
O O9 0.737455 0.826990 0.258719
O O10 0.790875 0.808343 0.000000
O O11 0.637914 0.798975 0.250831
O O12 0.556536 0.743012 0.247398
O O13 0.620231 0.752101 0.000000
O O14 0.654733 0.116828 0.752876
O O15 0.678857 0.164362 0.000000
O O16 0.395899 0.089662 0.500000
O O17 0.000000 0.738316 0.500000
#
# Coordination Sequence:
#
# PCOD9493272 Si02
#       7
#     8   8  16  16  16  16   8
#     4   9  18  28  38  51  74 102 127 155 194 240
#     4  11  23  35  45  59  75  95 129 170 203 238
#     4   7  12  24  40  56  75  96 122 158 197 228
#     4   9  16  26  40  57  75 100 131 160 192 233
#     4   9  16  27  43  60  75  95 126 165 198 229
#     4  11  20  32  45  57  75 102 128 158 203 249
#     4  11  19  27  36  54  81 106 129 161 201 236
#
# _framework density 13.624969
#
# number of rings (size 3 to 8) (size 9 to 14) (size 15 to 20)
#    0.000    2.636    2.727    3.273    0.000    0.364 
#    0.000    0.909    0.000    3.273    0.000    0.000 
#    0.000    0.000    0.000    0.000    0.000    0.909 
#
# Total GULP energy -244941.956544 kJ/mol
# GULP energy per Si atom -5566.862649 kJ/mol
# Density = 1.359396 g / cm^3
# Si number density = 13.624969 Si / 1000 Ang^3
#
#
#
# Elastic Constant Matrix: (Units=GPa)
#
#
# Indices 1 2 3 4 5 6 
#
# 1 121.2618 57.3315 14.7604 0.0000 0.0000 0.0000
# 2 57.3315 69.0332 11.0038 0.0000 0.0000 0.0000
# 3 14.7604 11.0038 17.6080 0.0000 0.0000 0.0000
# 4 0.0000 0.0000 0.0000 8.7123 0.0000 0.0000
# 5 0.0000 0.0000 0.0000 0.0000 5.5972 0.0000
# 6 0.0000 0.0000 0.0000 0.0000 0.0000 12.7351
#
#
#
# Elastic Compliance Matrix: (Units=1/GPa)
#
#
# Indices 1 2 3 4 5 6 
#
# 1 0.013956 -0.010801 -0.004949 0.000000 0.000000 0.000000
# 2 -0.010801 0.024448 -0.006224 0.000000 0.000000 0.000000
# 3 -0.004949 -0.006224 0.064830 0.000000 0.000000 0.000000
# 4 0.000000 0.000000 0.000000 0.114780 0.000000 0.000000
# 5 0.000000 0.000000 0.000000 0.000000 0.178662 0.000000
# 6 0.000000 0.000000 0.000000 0.000000 0.000000 0.078523
#
#
# Mechanical properties :
#
#
# Convention : Reuss Voigt Hill
#
# Bulk Modulus (GPa) = 16.86728 41.56602 29.21665
# Shear Modulus (GPa) = 9.27800 13.72940 11.50370
#
# Velocity S-wave (km/s) = 2.61234 3.17782 2.90885
# Velocity P-wave (km/s) = 4.63742 6.63613 5.72468
#
# Compressibility (1/GPa) = 0.05928639
#
# Stress axis : x y z
#
# Youngs Moduli (GPa) = 71.65495 40.90268 15.42486
#
# Poissons Ratio (x) = 0.44180 0.07633
# Poissons Ratio (y) = 0.77397 0.09600
# Poissons Ratio (z) = 0.35460 0.25458
#
# Static dielectric constant tensor:
#      x y z
#    x 1.483860 0.000000 0.000000 
#    y 0.000000 1.434450 0.000000 
#    z 0.000000 0.000000 1.473860 
# 
# From -- ./inp_files/14992.got.cif
#   From: 2010.05.17/outbox.cif.g08.bks.cpg/sg65_8_cif.got.tgz:14992.got - 2010.06.03 17:01:31.
