data_PCOD9493431
_publ_section_title
;
Structure prediction by ZEFSAII (Michael W. Deem and Ramdas Pophale) SiO2 
 PCOD9493431
Probable space group: C M M M
;
_chemical_formula_sum "Si O2"
_cell_formula_units_Z 96
_cell_length_a 29.998678
_cell_length_b 8.112730
_cell_length_c 22.581751
_cell_angle_alpha 90.000000
_cell_angle_beta 90.000000
_cell_angle_gamma 90.000000
_cell_volume 5495.747274
_symmetry_space_group_name_H-M "C M M M"
_symmetry_group_IT_number 65
_symmetry_cell_setting 'orthorhombic'
loop_
_space_group_symop_operation_xyz
x,y,z
-x,-y,z
x,-y,-z
-x,y,-z
-x,-y,-z
x,y,-z
-x,y,z
x,-y,z
1/2+x,1/2+y,z
1/2-x,1/2-y,z
1/2+x,1/2-y,-z
1/2-x,1/2+y,-z
1/2-x,1/2-y,-z
1/2+x,1/2+y,-z
1/2-x,1/2+y,z
1/2+x,1/2-y,z
loop_
_atom_site_type_symbol
_atom_site_label
_atom_site_fract_x
_atom_site_fract_y
_atom_site_fract_z
Si Si1 0.299166 0.302477 0.141741
Si Si2 0.198528 0.304763 0.500000
Si Si3 0.700327 0.300707 0.276581
Si Si4 0.112565 0.807125 0.928723
Si Si5 0.448908 0.000000 0.072003
Si Si6 0.549437 0.198572 0.568311
Si Si7 0.642706 0.303824 0.384983
O O1 0.298824 0.500000 0.144185
O O2 0.250000 0.250000 0.121434
O O3 0.306111 0.240068 0.209165
O O4 0.340220 0.257319 0.099987
O O5 0.197605 0.500000 0.500000
O O6 0.250000 0.250000 0.500000
O O7 0.172161 0.246708 0.558338
O O8 0.698274 0.500000 0.275185
O O9 0.750000 0.250000 0.295419
O O10 0.665156 0.238621 0.324773
O O11 0.076679 0.668361 0.910500
O O12 0.102517 0.000000 0.912355
O O13 0.115931 0.803569 0.000000
O O14 0.500000 0.000000 0.092482
O O15 0.449345 0.000000 0.000000
O O16 0.555801 0.254162 0.500000
O O17 0.500000 0.254213 0.587764
O O18 0.591787 0.251877 0.605678
O O19 0.548994 0.000000 0.567342
O O20 0.643853 0.500000 0.382198
#
# Coordination Sequence:
#
# PCOD9493431 Si02
#       7
#    16   8  16  16   8  16  16
#     4   9  18  32  50  73 103 139 177 211 253 308
#     4  12  24  36  49  68  99 130 158 197 247 297
#     4   9  19  34  50  71  99 131 169 208 244 295
#     4   9  18  32  51  78 111 142 177 223 273 322
#     4   9  18  32  52  78 108 142 182 227 272 320
#     4   9  18  33  52  73  97 124 155 194 242 296
#     4  11  21  33  51  75  99 125 162 203 250 299
#
# _framework density 17.468050999999999
#
# number of rings (size 3 to 8) (size 9 to 14) (size 15 to 20)
#    0.000    2.417    0.833    2.250    1.167    3.667 
#    0.000    2.500    0.000    1.000    0.000    4.667 
#    0.000    0.000    0.000    0.000    0.000    0.000 
#
# Total GULP energy -267566.091817 kJ/mol
# GULP energy per Si atom -5574.293580 kJ/mol
# Density = 1.742829 g / cm^3
# Si number density = 17.468051 Si / 1000 Ang^3
#
#
#
# Elastic Constant Matrix: (Units=GPa)
#
#
# Indices 1 2 3 4 5 6 
#
# 1 168.6514 53.1355 50.5909 0.0000 0.0000 0.0000
# 2 53.1355 54.6810 23.5709 0.0000 0.0000 0.0000
# 3 50.5909 23.5709 32.9130 0.0000 0.0000 0.0000
# 4 0.0000 0.0000 0.0000 7.6773 0.0000 0.0000
# 5 0.0000 0.0000 0.0000 0.0000 12.4035 0.0000
# 6 0.0000 0.0000 0.0000 0.0000 0.0000 32.6215
#
#
#
# Elastic Compliance Matrix: (Units=1/GPa)
#
#
# Indices 1 2 3 4 5 6 
#
# 1 0.012001 -0.005367 -0.014603 0.000000 0.000000 0.000000
# 2 -0.005367 0.028855 -0.012415 0.000000 0.000000 0.000000
# 3 -0.014603 -0.012415 0.061721 0.000000 0.000000 0.000000
# 4 0.000000 0.000000 0.000000 0.130255 0.000000 0.000000
# 5 0.000000 0.000000 0.000000 0.000000 0.080622 0.000000
# 6 0.000000 0.000000 0.000000 0.000000 0.000000 0.030655
#
#
# Mechanical properties :
#
#
# Convention : Reuss Voigt Hill
#
# Bulk Modulus (GPa) = 26.45064 56.76000 41.60532
# Shear Modulus (GPa) = 11.86295 19.13700 15.49997
#
# Velocity S-wave (km/s) = 2.60883 3.31349 2.98204
# Velocity P-wave (km/s) = 4.92441 6.87045 5.97716
#
# Compressibility (1/GPa) = 0.03780627
#
# Stress axis : x y z
#
# Youngs Moduli (GPa) = 83.32799 34.65643 16.20198
#
# Poissons Ratio (x) = 0.18599 0.23660
# Poissons Ratio (y) = 0.44720 0.20115
# Poissons Ratio (z) = 1.21684 0.43027
#
# Static dielectric constant tensor:
#      x y z
#    x 1.579410 0.000000 0.000000 
#    y 0.000000 1.615970 0.000000 
#    z 0.000000 0.000000 1.590370 
# 
# From -- ./inp_files/71726.got.cif
#   From: 2010.05.17/outbox.cif.g08.bks.cpg/sg65_36_cif.got.tgz:71726.got - 2010.06.03 17:01:31.
