data_PCOD9493565
_publ_section_title
;
Structure prediction by ZEFSAII (Michael W. Deem and Ramdas Pophale) SiO2 
 PCOD9493565
Probable space group: C M M M
;
_chemical_formula_sum "Si O2"
_cell_formula_units_Z 72
_cell_length_a 14.836255
_cell_length_b 10.038583
_cell_length_c 27.303449
_cell_angle_alpha 90.000000
_cell_angle_beta 90.000000
_cell_angle_gamma 90.000000
_cell_volume 4066.438555
_symmetry_space_group_name_H-M "C M M M"
_symmetry_group_IT_number 65
_symmetry_cell_setting 'orthorhombic'
loop_
_space_group_symop_operation_xyz
x,y,z
-x,-y,z
x,-y,-z
-x,y,-z
-x,-y,-z
x,y,-z
-x,y,z
x,-y,z
1/2+x,1/2+y,z
1/2-x,1/2-y,z
1/2+x,1/2-y,-z
1/2-x,1/2+y,-z
1/2-x,1/2-y,-z
1/2+x,1/2+y,-z
1/2-x,1/2+y,z
1/2+x,1/2-y,z
loop_
_atom_site_type_symbol
_atom_site_label
_atom_site_fract_x
_atom_site_fract_y
_atom_site_fract_z
Si Si1 0.393080 0.500000 0.057567
Si Si2 0.847640 0.244526 0.121612
Si Si3 0.000000 0.654959 0.291239
Si Si4 0.659328 0.159459 0.370440
Si Si5 0.000000 0.839548 0.803087
Si Si6 0.000000 0.661642 0.556145
Si Si7 0.892442 0.500000 0.056321
O O1 0.500000 0.500000 0.068906
O O2 0.350306 0.627293 0.082070
O O3 0.382735 0.500000 0.000000
O O4 0.750000 0.250000 0.144691
O O5 0.916805 0.208401 0.163831
O O6 0.867826 0.373971 0.089482
O O7 0.909725 0.672517 0.324320
O O8 0.000000 0.500000 0.274094
O O9 0.000000 0.760654 0.247695
O O10 0.750000 0.250000 0.367758
O O11 0.592033 0.199402 0.415282
O O12 0.681325 0.000000 0.374592
O O13 0.000000 0.000000 0.797678
O O14 0.000000 0.500000 0.557248
O O15 0.000000 0.706512 0.500000
O O16 0.000000 0.500000 0.051413
O O17 0.855705 0.500000 0.000000
#
# Coordination Sequence:
#
# PCOD9493565 Si02
#       7
#     8  16   8  16   8   8   8
#     4  11  21  41  65  82 113 151 178 217 271 328
#     4  12  24  40  60  85 114 144 180 222 273 334
#     4   9  22  41  62  80 108 149 189 238 294 349
#     4   9  18  35  58  87 118 153 203 248 290 343
#     4  12  25  45  60  83 113 143 184 233 289 346
#     4   8  15  30  53  83 125 174 209 240 287 342
#     4  11  23  39  61  88 115 145 182 221 263 322
#
# _framework density 17.705912000000001
#
# number of rings (size 3 to 8) (size 9 to 14) (size 15 to 20)
#    0.000    1.667    3.333    2.667    1.556    6.667 
#    0.000    3.889    0.000    0.667    0.000    0.000 
#    0.000    0.000    0.000    0.000    0.000    0.000 
#
# Total GULP energy -200740.027120 kJ/mol
# GULP energy per Si atom -5576.111864 kJ/mol
# Density = 1.766561 g / cm^3
# Si number density = 17.705912 Si / 1000 Ang^3
#
#
#
# Elastic Constant Matrix: (Units=GPa)
#
#
# Indices 1 2 3 4 5 6 
#
# 1 163.3932 62.6559 54.3878 0.0000 0.0000 0.0000
# 2 62.6559 147.2843 71.3168 0.0000 0.0000 0.0000
# 3 54.3878 71.3168 113.7683 0.0000 0.0000 0.0000
# 4 0.0000 0.0000 0.0000 -0.1486 0.0000 0.0000
# 5 0.0000 0.0000 0.0000 0.0000 51.5473 0.0000
# 6 0.0000 0.0000 0.0000 0.0000 0.0000 33.4224
#
#
#
# Elastic Compliance Matrix: (Units=1/GPa)
#
#
# Indices 1 2 3 4 5 6 
#
# 1 0.007726 -0.002151 -0.002345 0.000000 0.000000 0.000000
# 2 -0.002151 0.010348 -0.005458 0.000000 0.000000 0.000000
# 3 -0.002345 -0.005458 0.013332 0.000000 0.000000 0.000000
# 4 0.000000 0.000000 0.000000 -6.727965 0.000000 0.000000
# 5 0.000000 0.000000 0.000000 0.000000 0.019400 0.000000
# 6 0.000000 0.000000 0.000000 0.000000 0.000000 0.029920
#
#
# Mechanical properties :
#
#
# Convention : Reuss Voigt Hill
#
# Bulk Modulus (GPa) = 86.97726 89.01856 87.99791
# Shear Modulus (GPa) = -0.75489 32.70324 15.97418
#
# Velocity S-wave (km/s) = -0.65366 4.30236 3.00691
# Velocity P-wave (km/s) = 6.97569 8.66405 7.86530
#
# Compressibility (1/GPa) = 0.01149726
#
# Stress axis : x y z
#
# Youngs Moduli (GPa) = 129.43971 96.64089 75.00623
#
# Poissons Ratio (x) = 0.20789 0.17588
# Poissons Ratio (y) = 0.27844 0.40939
# Poissons Ratio (z) = 0.30351 0.52748
#
# Static dielectric constant tensor:
#      x y z
#    x 1.565610 0.000000 0.000000 
#    y 0.000000 1.560730 0.000000 
#    z 0.000000 0.000000 1.593410 
# 
# From -- ./inp_files/74711.got.cif
#   From: 2010.05.17/outbox.cif.g08.bks.cpg/sg65_38_cif.got.tgz:74711.got - 2010.06.03 17:01:31.
