data_PCOD9493498
_publ_section_title
;
Structure prediction by ZEFSAII (Michael W. Deem and Ramdas Pophale) SiO2 
 PCOD9493498
Probable space group: C M M M
;
_chemical_formula_sum "Si O2"
_cell_formula_units_Z 64
_cell_length_a 15.793839
_cell_length_b 8.718910
_cell_length_c 23.640480
_cell_angle_alpha 90.000000
_cell_angle_beta 90.000000
_cell_angle_gamma 90.000000
_cell_volume 3255.413736
_symmetry_space_group_name_H-M "C M M M"
_symmetry_group_IT_number 65
_symmetry_cell_setting 'orthorhombic'
loop_
_space_group_symop_operation_xyz
x,y,z
-x,-y,z
x,-y,-z
-x,y,-z
-x,-y,-z
x,y,-z
-x,y,z
x,-y,z
1/2+x,1/2+y,z
1/2-x,1/2-y,z
1/2+x,1/2-y,-z
1/2-x,1/2+y,-z
1/2-x,1/2-y,-z
1/2+x,1/2+y,-z
1/2-x,1/2+y,z
1/2+x,1/2-y,z
loop_
_atom_site_type_symbol
_atom_site_label
_atom_site_fract_x
_atom_site_fract_y
_atom_site_fract_z
Si Si1 0.845048 0.315197 0.643390
Si Si2 0.400547 0.829576 0.000000
Si Si3 0.845533 0.316445 0.230420
Si Si4 0.000000 0.687383 0.565197
Si Si5 0.344440 0.317688 0.883355
O O1 0.838061 0.500000 0.640504
O O2 0.750000 0.250000 0.635727
O O3 0.878757 0.278809 0.706924
O O4 0.914860 0.263564 0.598067
O O5 0.379534 0.740556 0.057238
O O6 0.500000 0.848418 0.000000
O O7 0.359348 0.000000 0.000000
O O8 0.843209 0.500000 0.224111
O O9 0.750000 0.250000 0.232370
O O10 0.887019 0.246277 0.174140
O O11 0.000000 0.500000 0.566393
O O12 0.000000 0.735902 0.500000
O O13 0.343480 0.500000 0.881218
O O14 0.250000 0.250000 0.882279
#
# Coordination Sequence:
#
# PCOD9493498 Si02
#       5
#    16   8  16   8  16
#     4   9  18  33  55  81 111 147 188 233 281 333
#     4  11  24  41  56  73 103 141 180 221 270 325
#     4   9  16  29  50  77 105 134 175 221 270 322
#     4   9  18  34  55  81 113 150 191 230 273 335
#     4  11  21  35  57  81 107 137 177 222 270 325
#
# _framework density 19.659559000000002
#
# number of rings (size 3 to 8) (size 9 to 14) (size 15 to 20)
#    0.000    2.250    0.000    5.250    0.000    2.500 
#    2.250    0.625    0.000    0.750    0.000    0.000 
#    0.000    0.000    0.000    0.000    0.000    0.000 
#
# Total GULP energy -178408.554091 kJ/mol
# GULP energy per Si atom -5575.267315 kJ/mol
# Density = 1.961481 g / cm^3
# Si number density = 19.659559 Si / 1000 Ang^3
#
#
#
# Elastic Constant Matrix: (Units=GPa)
#
#
# Indices 1 2 3 4 5 6 
#
# 1 73.7458 23.7279 75.8235 0.0000 0.0000 0.0000
# 2 23.7279 99.1157 69.5004 0.0000 0.0000 0.0000
# 3 75.8235 69.5004 231.5333 0.0000 0.0000 0.0000
# 4 0.0000 0.0000 0.0000 26.0911 0.0000 0.0000
# 5 0.0000 0.0000 0.0000 0.0000 34.5582 0.0000
# 6 0.0000 0.0000 0.0000 0.0000 0.0000 13.8959
#
#
#
# Elastic Compliance Matrix: (Units=1/GPa)
#
#
# Indices 1 2 3 4 5 6 
#
# 1 0.020449 -0.000253 -0.006621 0.000000 0.000000 0.000000
# 2 -0.000253 0.012782 -0.003754 0.000000 0.000000 0.000000
# 3 -0.006621 -0.003754 0.007614 0.000000 0.000000 0.000000
# 4 0.000000 0.000000 0.000000 0.038327 0.000000 0.000000
# 5 0.000000 0.000000 0.000000 0.000000 0.028937 0.000000
# 6 0.000000 0.000000 0.000000 0.000000 0.000000 0.071964
#
#
# Mechanical properties :
#
#
# Convention : Reuss Voigt Hill
#
# Bulk Modulus (GPa) = 51.04741 82.49980 66.77361
# Shear Modulus (GPa) = 24.05495 30.59859 27.32677
#
# Velocity S-wave (km/s) = 3.50176 3.94943 3.73231
# Velocity P-wave (km/s) = 6.50936 7.92797 7.25343
#
# Compressibility (1/GPa) = 0.01958963
#
# Stress axis : x y z
#
# Youngs Moduli (GPa) = 48.90287 78.23434 131.33553
#
# Poissons Ratio (x) = 0.01978 0.86954
# Poissons Ratio (y) = 0.01237 0.49304
# Poissons Ratio (z) = 0.32377 0.29370
#
# Static dielectric constant tensor:
#      x y z
#    x 1.686750 0.000000 0.000000 
#    y 0.000000 1.722220 0.000000 
#    z 0.000000 0.000000 1.773160 
# 
# From -- ./inp_files/58803.got.cif
#   From: 2010.05.17/outbox.cif.g08.bks.cpg/sg65_30_cif.got.tgz:58803.got - 2010.06.03 17:01:31.
