data_PCOD9493471
_publ_section_title
;
Structure prediction by ZEFSAII (Michael W. Deem and Ramdas Pophale) SiO2 
 PCOD9493471
Probable space group: C M M M
;
_chemical_formula_sum "Si O2"
_cell_formula_units_Z 104
_cell_length_a 8.609884
_cell_length_b 24.074693
_cell_length_c 29.135912
_cell_angle_alpha 90.000000
_cell_angle_beta 90.000000
_cell_angle_gamma 90.000000
_cell_volume 6039.300990
_symmetry_space_group_name_H-M "C M M M"
_symmetry_group_IT_number 65
_symmetry_cell_setting 'orthorhombic'
loop_
_space_group_symop_operation_xyz
x,y,z
-x,-y,z
x,-y,-z
-x,y,-z
-x,-y,-z
x,y,-z
-x,y,z
x,-y,z
1/2+x,1/2+y,z
1/2-x,1/2-y,z
1/2+x,1/2-y,-z
1/2-x,1/2+y,-z
1/2-x,1/2-y,-z
1/2+x,1/2+y,-z
1/2-x,1/2+y,z
1/2+x,1/2-y,z
loop_
_atom_site_type_symbol
_atom_site_label
_atom_site_fract_x
_atom_site_fract_y
_atom_site_fract_z
Si Si1 0.312314 0.186847 0.450632
Si Si2 0.186061 0.379873 0.738962
Si Si3 0.184923 0.187896 0.825947
Si Si4 0.178060 0.000000 0.748035
Si Si5 0.187728 0.312587 0.649345
Si Si6 0.689253 0.065149 0.000000
Si Si7 0.185549 0.389804 0.098088
Si Si8 0.179013 0.000000 0.857960
O O1 0.262689 0.161775 0.500000
O O2 0.500000 0.188057 0.450728
O O3 0.250000 0.250000 0.450629
O O4 0.264147 0.163671 0.400824
O O5 0.255376 0.350925 0.784330
O O6 0.237739 0.443421 0.734395
O O7 0.238864 0.347137 0.693449
O O8 0.000000 0.376771 0.742517
O O9 0.250000 0.250000 0.820598
O O10 0.239528 0.160608 0.873886
O O11 0.000000 0.189134 0.824456
O O12 0.176132 0.000000 0.803311
O O13 0.000000 0.000000 0.731844
O O14 0.250000 0.250000 0.652910
O O15 0.000000 0.310823 0.650153
O O16 0.736682 0.097882 0.954156
O O17 0.500000 0.063016 0.000000
O O18 0.740453 0.000000 0.000000
O O19 0.233310 0.445742 0.124610
O O20 0.000000 0.383052 0.098692
O O21 0.000000 0.000000 0.874448
#
# Coordination Sequence:
#
# PCOD9493471 Si02
#       8
#    16  16  16   8  16   8  16   8
#     4   8  13  23  40  63  94 130 166 206 251 298
#     4  11  22  36  55  78 105 138 174 215 263 310
#     4  12  25  41  58  80 108 140 180 216 255 309
#     4  11  23  37  54  78 107 136 172 216 261 309
#     4   9  18  30  46  72 103 136 173 210 252 306
#     4   9  18  34  57  88 115 138 171 213 258 308
#     4  11  21  37  61  85 111 142 175 213 260 308
#     4  11  21  34  54  83 113 140 171 216 260 306
#
# _framework density 17.220535000000002
#
# number of rings (size 3 to 8) (size 9 to 14) (size 15 to 20)
#    0.000    1.769    2.308    3.231    0.000    3.077 
#    0.000    2.308    0.000    0.000    0.000    0.538 
#    0.000    4.308    0.000    0.000    0.000    0.000 
#
# Total GULP energy -289983.120180 kJ/mol
# GULP energy per Si atom -5576.598465 kJ/mol
# Density = 1.718134 g / cm^3
# Si number density = 17.220535 Si / 1000 Ang^3
#
#
#
# Elastic Constant Matrix: (Units=GPa)
#
#
# Indices 1 2 3 4 5 6 
#
# 1 61.0154 27.2319 33.5147 0.0000 0.0000 0.0000
# 2 27.2319 100.5895 55.9041 0.0000 0.0000 0.0000
# 3 33.5147 55.9041 148.2693 0.0000 0.0000 0.0000
# 4 0.0000 0.0000 0.0000 15.5655 0.0000 0.0000
# 5 0.0000 0.0000 0.0000 0.0000 11.4833 0.0000
# 6 0.0000 0.0000 0.0000 0.0000 0.0000 22.0890
#
#
#
# Elastic Compliance Matrix: (Units=1/GPa)
#
#
# Indices 1 2 3 4 5 6 
#
# 1 0.019700 -0.003616 -0.003090 0.000000 0.000000 0.000000
# 2 -0.003616 0.013241 -0.004175 0.000000 0.000000 0.000000
# 3 -0.003090 -0.004175 0.009017 0.000000 0.000000 0.000000
# 4 0.000000 0.000000 0.000000 0.064245 0.000000 0.000000
# 5 0.000000 0.000000 0.000000 0.000000 0.087083 0.000000
# 6 0.000000 0.000000 0.000000 0.000000 0.000000 0.045271
#
#
# Mechanical properties :
#
#
# Convention : Reuss Voigt Hill
#
# Bulk Modulus (GPa) = 49.51349 60.35285 54.93317
# Shear Modulus (GPa) = 18.72304 22.70913 20.71609
#
# Velocity S-wave (km/s) = 3.30093 3.63536 3.47217
# Velocity P-wave (km/s) = 6.58355 7.26252 6.93136
#
# Compressibility (1/GPa) = 0.02019652
#
# Stress axis : x y z
#
# Youngs Moduli (GPa) = 50.76051 75.52495 110.90209
#
# Poissons Ratio (x) = 0.27312 0.34264
# Poissons Ratio (y) = 0.18356 0.46300
# Poissons Ratio (z) = 0.15683 0.31531
#
# Static dielectric constant tensor:
#      x y z
#    x 1.583360 0.000000 0.000000 
#    y 0.000000 1.550040 0.000000 
#    z 0.000000 0.000000 1.631260 
# 
# From -- ./inp_files/76958.got.cif
#   From: 2010.05.17/outbox.cif.g08.bks.cpg/sg65_39_cif.got.tgz:76958.got - 2010.06.03 17:01:31.
