data_PCOD9493537
_publ_section_title
;
Structure prediction by ZEFSAII (Michael W. Deem and Ramdas Pophale) SiO2 
 PCOD9493537
Probable space group: C M M M
;
_chemical_formula_sum "Si O2"
_cell_formula_units_Z 66
_cell_length_a 8.512558
_cell_length_b 16.769479
_cell_length_c 24.171927
_cell_angle_alpha 90.000000
_cell_angle_beta 90.000000
_cell_angle_gamma 90.000000
_cell_volume 3450.570682
_symmetry_space_group_name_H-M "C M M M"
_symmetry_group_IT_number 65
_symmetry_cell_setting 'orthorhombic'
loop_
_space_group_symop_operation_xyz
x,y,z
-x,-y,z
x,-y,-z
-x,y,-z
-x,-y,-z
x,y,-z
-x,y,z
x,-y,z
1/2+x,1/2+y,z
1/2-x,1/2-y,z
1/2+x,1/2-y,-z
1/2-x,1/2+y,-z
1/2-x,1/2-y,-z
1/2+x,1/2+y,-z
1/2-x,1/2+y,z
1/2+x,1/2-y,z
loop_
_atom_site_type_symbol
_atom_site_label
_atom_site_fract_x
_atom_site_fract_y
_atom_site_fract_z
Si Si1 0.324613 0.000000 0.114322
Si Si2 0.308744 0.908156 0.500000
Si Si3 0.686102 0.164066 0.836252
Si Si4 0.000000 0.500000 0.000000
Si Si5 0.188844 0.338641 0.382408
Si Si6 0.686690 0.408245 0.728510
O O1 0.250650 0.084311 0.132623
O O2 0.500000 0.000000 0.142417
O O3 0.365541 0.000000 0.049554
O O4 0.500000 0.906826 0.500000
O O5 0.257648 0.866456 0.556672
O O6 0.259005 0.000000 0.500000
O O7 0.500000 0.167033 0.844387
O O8 0.750000 0.250000 0.854288
O O9 0.728362 0.148856 0.772161
O O10 0.250000 0.250000 0.372342
O O11 0.255124 0.392876 0.333447
O O12 0.000000 0.340817 0.380827
O O13 0.500000 0.395064 0.731597
O O14 0.720004 0.500000 0.743858
#
# Coordination Sequence:
#
# PCOD9493537 Si02
#       6
#     8   8  16   2  16  16
#     4   8  18  36  63  87 123 162 206 240 293 352
#     4   9  19  36  57  79 102 139 192 243 300 366
#     4  11  21  37  60  92 124 164 206 251 302 363
#     4   8  16  40  68  92 126 170 212 250 294 352
#     4  11  22  37  57  80 111 149 192 246 302 366
#     4  11  23  38  57  85 118 156 198 252 307 365
#
# _framework density 19.127271
#
# number of rings (size 3 to 8) (size 9 to 14) (size 15 to 20)
#    0.364    1.333    1.212    4.000    0.000    2.424 
#    0.000    2.424    0.000    4.364    0.000    3.394 
#    0.000    0.000    0.000    0.000    0.000    0.000 
#
# Total GULP energy -183865.894692 kJ/mol
# GULP energy per Si atom -5571.693779 kJ/mol
# Density = 1.908374 g / cm^3
# Si number density = 19.127271 Si / 1000 Ang^3
#
#
#
# Elastic Constant Matrix: (Units=GPa)
#
#
# Indices 1 2 3 4 5 6 
#
# 1 28.0033 31.8801 2.9041 0.0000 0.0000 0.0000
# 2 31.8801 134.3906 34.0238 0.0000 0.0000 0.0000
# 3 2.9041 34.0238 99.0077 0.0000 0.0000 0.0000
# 4 0.0000 0.0000 0.0000 6.0527 0.0000 0.0000
# 5 0.0000 0.0000 0.0000 0.0000 10.3498 0.0000
# 6 0.0000 0.0000 0.0000 0.0000 0.0000 16.3913
#
#
#
# Elastic Compliance Matrix: (Units=1/GPa)
#
#
# Indices 1 2 3 4 5 6 
#
# 1 0.049639 -0.012494 0.002837 0.000000 0.000000 0.000000
# 2 -0.012494 0.011295 -0.003515 0.000000 0.000000 0.000000
# 3 0.002837 -0.003515 0.011225 0.000000 0.000000 0.000000
# 4 0.000000 0.000000 0.000000 0.165217 0.000000 0.000000
# 5 0.000000 0.000000 0.000000 0.000000 0.096621 0.000000
# 6 0.000000 0.000000 0.000000 0.000000 0.000000 0.061008
#
#
# Mechanical properties :
#
#
# Convention : Reuss Voigt Hill
#
# Bulk Modulus (GPa) = 21.82633 44.33528 33.08081
# Shear Modulus (GPa) = 11.45165 19.39833 15.42499
#
# Velocity S-wave (km/s) = 2.44951 3.18806 2.84287
# Velocity P-wave (km/s) = 4.40863 6.06474 5.30175
#
# Compressibility (1/GPa) = 0.04581622
#
# Stress axis : x y z
#
# Youngs Moduli (GPa) = 20.14542 88.53775 89.08770
#
# Poissons Ratio (x) = 1.10616 -0.25278
# Poissons Ratio (y) = 0.25169 0.31314
# Poissons Ratio (z) = -0.05716 0.31120
#
# Static dielectric constant tensor:
#      x y z
#    x 1.664750 0.000000 0.000000 
#    y 0.000000 1.685410 0.000000 
#    z 0.000000 0.000000 1.645370 
# 
# From -- ./inp_files/59018.got.cif
#   From: 2010.05.17/outbox.cif.g08.bks.cpg/sg65_30_cif.got.tgz:59018.got - 2010.06.03 17:01:31.
