data_PCOD9493936
_publ_section_title
;
Structure prediction by ZEFSAII (Michael W. Deem and Ramdas Pophale) SiO2 
 PCOD9493936
Probable space group: C M M M
;
_chemical_formula_sum "Si O2"
_cell_formula_units_Z 88
_cell_length_a 24.399016
_cell_length_b 15.873305
_cell_length_c 11.154054
_cell_angle_alpha 90.000000
_cell_angle_beta 90.000000
_cell_angle_gamma 90.000000
_cell_volume 4319.887289
_symmetry_space_group_name_H-M "C M M M"
_symmetry_group_IT_number 65
_symmetry_cell_setting 'orthorhombic'
loop_
_space_group_symop_operation_xyz
x,y,z
-x,-y,z
x,-y,-z
-x,y,-z
-x,-y,-z
x,y,-z
-x,y,z
x,-y,z
1/2+x,1/2+y,z
1/2-x,1/2-y,z
1/2+x,1/2-y,-z
1/2-x,1/2+y,-z
1/2-x,1/2-y,-z
1/2+x,1/2+y,-z
1/2-x,1/2+y,z
1/2+x,1/2-y,z
loop_
_atom_site_type_symbol
_atom_site_label
_atom_site_fract_x
_atom_site_fract_y
_atom_site_fract_z
Si Si1 0.640763 0.897804 0.500000
Si Si2 0.227736 0.898939 0.500000
Si Si3 0.899737 0.820264 0.858777
Si Si4 0.909599 0.500000 0.858086
Si Si5 0.782712 0.836559 0.243122
Si Si6 0.435125 0.500000 0.135764
Si Si7 0.438362 0.160848 0.290487
Si Si8 0.220253 0.500000 0.142947
O O1 0.706133 0.881523 0.500000
O O2 0.609085 0.858297 0.386857
O O3 0.633483 0.000000 0.500000
O O4 0.202542 0.859838 0.620046
O O5 0.221463 0.000000 0.500000
O O6 0.834759 0.820947 0.840563
O O7 0.917713 0.911679 0.810040
O O8 0.925781 0.745429 0.782820
O O9 0.914466 0.812879 0.000000
O O10 0.935109 0.417215 0.800576
O O11 0.844382 0.500000 0.830207
O O12 0.916141 0.500000 0.000000
O O13 0.750000 0.750000 0.244207
O O14 0.747782 0.916293 0.196659
O O15 0.500000 0.500000 0.127395
O O16 0.411096 0.500000 0.000000
O O17 0.500000 0.163964 0.342496
O O18 0.227597 0.500000 0.000000
#
# Coordination Sequence:
#
# PCOD9493936 Si02
#       8
#     8   8  16   8  16   8  16   8
#     4  11  23  43  69  92 129 174 224 269 317 389
#     4  11  23  42  68  95 127 170 215 270 329 390
#     4  11  24  41  64  96 131 169 215 267 324 389
#     4  11  23  38  59  92 131 168 208 261 330 396
#     4  12  24  40  65  94 128 169 216 263 323 393
#     4   9  19  39  64  86 115 160 211 262 314 369
#     4  12  25  41  65  94 129 172 220 272 323 382
#     4  11  23  40  61  90 130 172 213 267 329 394
#
# _framework density 20.370902000000001
#
# number of rings (size 3 to 8) (size 9 to 14) (size 15 to 20)
#    0.000    0.818    1.818    6.273    0.000    7.273 
#    0.000    0.000    0.000    0.000    0.000    2.545 
#    0.000    0.000    0.000    0.000    0.000    0.000 
#
# Total GULP energy -246132.667910 kJ/mol
# GULP energy per Si atom -5593.924271 kJ/mol
# Density = 2.032454 g / cm^3
# Si number density = 20.370902 Si / 1000 Ang^3
#
#
#
# Elastic Constant Matrix: (Units=GPa)
#
#
# Indices 1 2 3 4 5 6 
#
# 1 16.8722 -2.0852 -1.9295 0.0000 0.0000 0.0000
# 2 -2.0852 153.4796 20.6359 0.0000 0.0000 0.0000
# 3 -1.9295 20.6359 61.3615 0.0000 0.0000 0.0000
# 4 0.0000 0.0000 0.0000 39.7603 0.0000 0.0000
# 5 0.0000 0.0000 0.0000 0.0000 67.9316 0.0000
# 6 0.0000 0.0000 0.0000 0.0000 0.0000 -39.2725
#
#
#
# Elastic Compliance Matrix: (Units=1/GPa)
#
#
# Indices 1 2 3 4 5 6 
#
# 1 0.059533 0.000584 0.001676 0.000000 0.000000 0.000000
# 2 0.000584 0.006830 -0.002279 0.000000 0.000000 0.000000
# 3 0.001676 -0.002279 0.017116 0.000000 0.000000 0.000000
# 4 0.000000 0.000000 0.000000 0.025151 0.000000 0.000000
# 5 0.000000 0.000000 0.000000 0.000000 0.014721 0.000000
# 6 0.000000 0.000000 0.000000 0.000000 0.000000 -0.025463
#
#
# Mechanical properties :
#
#
# Convention : Reuss Voigt Hill
#
# Bulk Modulus (GPa) = 11.98466 29.43953 20.71210
# Shear Modulus (GPa) = 39.76502 28.02335 33.89419
#
# Velocity S-wave (km/s) = 4.42299 3.71301 4.08346
# Velocity P-wave (km/s) = 5.65507 5.73280 5.69407
#
# Compressibility (1/GPa) = 0.08343998
#
# Stress axis : x y z
#
# Youngs Moduli (GPa) = 16.79744 146.41702 58.42545
#
# Poissons Ratio (x) = -0.08543 -0.09791
# Poissons Ratio (y) = -0.00980 0.13312
# Poissons Ratio (z) = -0.02815 0.33361
#
# Static dielectric constant tensor:
#      x y z
#    x 1.651230 0.000000 0.000000 
#    y 0.000000 1.677050 0.000000 
#    z 0.000000 0.000000 1.740020 
# 
# From -- ./inp_files/30609.got.cif
#   From: 2010.05.17/outbox.cif.g08.bks.cpg/sg65_16_cif.got.tgz:30609.got - 2010.06.03 17:01:31.
