data_PCOD9493578
_publ_section_title
;
Structure prediction by ZEFSAII (Michael W. Deem and Ramdas Pophale) SiO2 
 PCOD9493578
Probable space group: C M M M
;
_chemical_formula_sum "Si O2"
_cell_formula_units_Z 104
_cell_length_a 33.056533
_cell_length_b 21.211889
_cell_length_c 7.529898
_cell_angle_alpha 90.000000
_cell_angle_beta 90.000000
_cell_angle_gamma 90.000000
_cell_volume 5279.900539
_symmetry_space_group_name_H-M "C M M M"
_symmetry_group_IT_number 65
_symmetry_cell_setting 'orthorhombic'
loop_
_space_group_symop_operation_xyz
x,y,z
-x,-y,z
x,-y,-z
-x,y,-z
-x,-y,-z
x,y,-z
-x,y,z
x,-y,z
1/2+x,1/2+y,z
1/2-x,1/2-y,z
1/2+x,1/2-y,-z
1/2-x,1/2+y,-z
1/2-x,1/2-y,-z
1/2+x,1/2+y,-z
1/2-x,1/2+y,z
1/2+x,1/2-y,z
loop_
_atom_site_type_symbol
_atom_site_label
_atom_site_fract_x
_atom_site_fract_y
_atom_site_fract_z
Si Si1 0.546061 0.000000 0.287213
Si Si2 0.131319 0.194697 0.281473
Si Si3 0.955691 0.759521 0.709551
Si Si4 0.176832 0.070118 0.716166
Si Si5 0.084890 0.367240 0.794254
Si Si6 0.170739 0.321483 0.298386
Si Si7 0.729277 0.070811 0.282930
O O1 0.568408 0.063039 0.228422
O O2 0.500000 0.000000 0.221239
O O3 0.545297 0.000000 0.500000
O O4 0.130990 0.197244 0.500000
O O5 0.085239 0.207505 0.221523
O O6 0.149252 0.127962 0.225306
O O7 0.159909 0.252802 0.221570
O O8 0.957034 0.773587 0.500000
O O9 0.947008 0.684969 0.729760
O O10 0.000000 0.775127 0.784770
O O11 0.176110 0.070344 0.500000
O O12 0.223786 0.079062 0.766608
O O13 0.164091 0.000000 0.773797
O O14 0.127218 0.355793 0.697352
O O15 0.092702 0.354558 0.000000
O O16 0.185019 0.309673 0.500000
O O17 0.201994 0.371334 0.217320
O O18 0.727184 0.070871 0.500000
O O19 0.716290 0.000000 0.227203
#
# Coordination Sequence:
#
# PCOD9493578 Si02
#       7
#     8  16  16  16  16  16  16
#     4  11  23  37  51  65  85 119 159 193 231 277
#     4   8  14  24  39  61  87 117 152 188 230 279
#     4   9  17  31  49  66  87 117 152 186 225 277
#     4   8  13  22  37  61  94 122 145 184 239 282
#     4  11  22  33  46  67  93 118 150 193 236 273
#     4   9  17  29  44  63  88 120 157 191 229 274
#     4   8  14  23  37  60  87 118 155 192 230 271
#
# _framework density 19.697340000000001
#
# number of rings (size 3 to 8) (size 9 to 14) (size 15 to 20)
#    0.000    3.000    0.000    3.923    1.077    3.385 
#    0.000    3.077    0.000    0.462    0.000   11.846 
#    0.000   14.769    0.000    5.538    0.000    6.154 
#
# Total GULP energy -289913.927968 kJ/mol
# GULP energy per Si atom -5575.267846 kJ/mol
# Density = 1.965251 g / cm^3
# Si number density = 19.697340 Si / 1000 Ang^3
#
#
#
# Elastic Constant Matrix: (Units=GPa)
#
#
# Indices 1 2 3 4 5 6 
#
# 1 103.1794 107.7023 0.5418 0.0000 0.0000 0.0000
# 2 107.7023 185.4481 -2.8116 0.0000 0.0000 0.0000
# 3 0.5418 -2.8116 54.8527 0.0000 0.0000 0.0000
# 4 0.0000 0.0000 0.0000 -28.2757 0.0000 0.0000
# 5 0.0000 0.0000 0.0000 0.0000 -19.6286 0.0000
# 6 0.0000 0.0000 0.0000 0.0000 0.0000 21.6480
#
#
#
# Elastic Compliance Matrix: (Units=1/GPa)
#
#
# Indices 1 2 3 4 5 6 
#
# 1 0.024665 -0.014340 -0.000979 0.000000 0.000000 0.000000
# 2 -0.014340 0.013733 0.000846 0.000000 0.000000 0.000000
# 3 -0.000979 0.000846 0.018284 0.000000 0.000000 0.000000
# 4 0.000000 0.000000 0.000000 -0.035366 0.000000 0.000000
# 5 0.000000 0.000000 0.000000 0.000000 -0.050946 0.000000
# 6 0.000000 0.000000 0.000000 0.000000 0.000000 0.046194
#
#
# Mechanical properties :
#
#
# Convention : Reuss Voigt Hill
#
# Bulk Modulus (GPa) = 36.05340 61.59391 48.82365
# Shear Modulus (GPa) = 91.31752 10.61860 50.96806
#
# Velocity S-wave (km/s) = 6.81623 2.32435 5.09233
# Velocity P-wave (km/s) = 8.96055 6.20818 7.70821
#
# Compressibility (1/GPa) = 0.02773664
#
# Stress axis : x y z
#
# Youngs Moduli (GPa) = 40.54311 72.81676 54.69373
#
# Poissons Ratio (x) = 1.04416 0.05352
# Poissons Ratio (y) = 0.58137 -0.04625
# Poissons Ratio (z) = 0.03968 -0.06157
#
# Static dielectric constant tensor:
#      x y z
#    x 1.679590 0.000000 0.000000 
#    y 0.000000 1.679400 0.000000 
#    z 0.000000 0.000000 1.731080 
# 
# From -- ./inp_files/18700.got.cif
#   From: 2010.05.17/outbox.cif.g08.bks.cpg/sg65_10_cif.got.tgz:18700.got - 2010.06.03 17:01:31.
