data_PCOD9493798
_publ_section_title
;
Structure prediction by ZEFSAII (Michael W. Deem and Ramdas Pophale) SiO2 
 PCOD9493798
Probable space group: C M M M
;
_chemical_formula_sum "Si O2"
_cell_formula_units_Z 80
_cell_length_a 9.934335
_cell_length_b 17.044902
_cell_length_c 25.841595
_cell_angle_alpha 90.000000
_cell_angle_beta 90.000000
_cell_angle_gamma 90.000000
_cell_volume 4375.751248
_symmetry_space_group_name_H-M "C M M M"
_symmetry_group_IT_number 65
_symmetry_cell_setting 'orthorhombic'
loop_
_space_group_symop_operation_xyz
x,y,z
-x,-y,z
x,-y,-z
-x,y,-z
-x,-y,-z
x,y,-z
-x,y,z
x,-y,z
1/2+x,1/2+y,z
1/2-x,1/2-y,z
1/2+x,1/2-y,-z
1/2-x,1/2+y,-z
1/2-x,1/2-y,-z
1/2+x,1/2+y,-z
1/2-x,1/2+y,z
1/2+x,1/2-y,z
loop_
_atom_site_type_symbol
_atom_site_label
_atom_site_fract_x
_atom_site_fract_y
_atom_site_fract_z
Si Si1 0.725214 0.909681 0.117861
Si Si2 0.839371 0.171833 0.668331
Si Si3 0.000000 0.311853 0.060985
Si Si4 0.500000 0.376179 0.061047
Si Si5 0.653932 0.594127 0.776188
Si Si6 0.659527 0.328498 0.444251
O O1 0.627642 0.851830 0.087747
O O2 0.868229 0.908429 0.089028
O O3 0.751031 0.881499 0.176636
O O4 0.675373 0.000000 0.118298
O O5 0.750000 0.250000 0.669982
O O6 0.806345 0.122182 0.719195
O O7 0.815095 0.132563 0.611762
O O8 0.000000 0.189296 0.670815
O O9 0.000000 0.218288 0.066718
O O10 0.000000 0.329621 0.000000
O O11 0.500000 0.394661 0.000000
O O12 0.500000 0.621224 0.786193
O O13 0.651996 0.500000 0.777133
O O14 0.685622 0.369099 0.500000
O O15 0.500000 0.308482 0.444142
O O16 0.750000 0.250000 0.444300
#
# Coordination Sequence:
#
# PCOD9493798 Si02
#       6
#    16  16   8   8  16  16
#     4  11  22  39  60  81 105 139 181 216 251 310
#     4   9  17  29  47  72  99 128 165 207 249 295
#     4  11  25  41  57  83 117 139 160 211 278 317
#     4  11  23  39  59  83 109 139 172 209 256 311
#     4   9  18  35  54  72  97 131 170 208 247 294
#     4   8  13  22  38  62  93 126 159 198 243 289
#
# _framework density 18.282575000000001
#
# number of rings (size 3 to 8) (size 9 to 14) (size 15 to 20)
#    0.000    2.400    1.000    1.800    0.000    5.600 
#    1.800    0.000    0.000    0.600    0.000    4.200 
#    0.000    0.000    0.000   32.400    0.000   15.200 
#
# Total GULP energy -222805.354434 kJ/mol
# GULP energy per Si atom -5570.133861 kJ/mol
# Density = 1.824096 g / cm^3
# Si number density = 18.282575 Si / 1000 Ang^3
#
#
#
# Elastic Constant Matrix: (Units=GPa)
#
#
# Indices 1 2 3 4 5 6 
#
# 1 47.1837 10.1708 31.8730 0.0000 0.0000 0.0000
# 2 10.1708 27.7712 36.2238 0.0000 0.0000 0.0000
# 3 31.8730 36.2238 182.7423 0.0000 0.0000 0.0000
# 4 0.0000 0.0000 0.0000 47.3352 0.0000 0.0000
# 5 0.0000 0.0000 0.0000 0.0000 23.4455 0.0000
# 6 0.0000 0.0000 0.0000 0.0000 0.0000 31.9856
#
#
#
# Elastic Compliance Matrix: (Units=1/GPa)
#
#
# Indices 1 2 3 4 5 6 
#
# 1 0.024448 -0.004575 -0.003357 0.000000 0.000000 0.000000
# 2 -0.004575 0.049421 -0.008999 0.000000 0.000000 0.000000
# 3 -0.003357 -0.008999 0.007841 0.000000 0.000000 0.000000
# 4 0.000000 0.000000 0.000000 0.021126 0.000000 0.000000
# 5 0.000000 0.000000 0.000000 0.000000 0.042652 0.000000
# 6 0.000000 0.000000 0.000000 0.000000 0.000000 0.031264
#
#
# Mechanical properties :
#
#
# Convention : Reuss Voigt Hill
#
# Bulk Modulus (GPa) = 20.89872 46.02581 33.46227
# Shear Modulus (GPa) = 22.06887 32.51523 27.29205
#
# Velocity S-wave (km/s) = 3.47810 4.22178 3.86786
# Velocity P-wave (km/s) = 5.25218 6.99957 6.18786
#
# Compressibility (1/GPa) = 0.04784981
#
# Stress axis : x y z
#
# Youngs Moduli (GPa) = 40.90364 20.23413 127.52683
#
# Poissons Ratio (x) = 0.09256 0.42814
# Poissons Ratio (y) = 0.18711 1.14757
# Poissons Ratio (z) = 0.13732 0.18208
#
# Static dielectric constant tensor:
#      x y z
#    x 1.605720 0.000000 0.000000 
#    y 0.000000 1.595580 0.000000 
#    z 0.000000 0.000000 1.684630 
# 
# From -- ./inp_files/72896.got.cif
#   From: 2010.05.17/outbox.cif.g08.bks.cpg/sg65_37_cif.got.tgz:72896.got - 2010.06.03 17:01:31.
