data_PCOD9493558
_publ_section_title
;
Structure prediction by ZEFSAII (Michael W. Deem and Ramdas Pophale) SiO2 
 PCOD9493558
Probable space group: C M M M
;
_chemical_formula_sum "Si O2"
_cell_formula_units_Z 104
_cell_length_a 22.094073
_cell_length_b 8.784481
_cell_length_c 26.577716
_cell_angle_alpha 90.000000
_cell_angle_beta 90.000000
_cell_angle_gamma 90.000000
_cell_volume 5158.335066
_symmetry_space_group_name_H-M "C M M M"
_symmetry_group_IT_number 65
_symmetry_cell_setting 'orthorhombic'
loop_
_space_group_symop_operation_xyz
x,y,z
-x,-y,z
x,-y,-z
-x,y,-z
-x,-y,-z
x,y,-z
-x,y,z
x,-y,z
1/2+x,1/2+y,z
1/2-x,1/2-y,z
1/2+x,1/2-y,-z
1/2-x,1/2+y,-z
1/2-x,1/2-y,-z
1/2+x,1/2+y,-z
1/2-x,1/2+y,z
1/2+x,1/2-y,z
loop_
_atom_site_type_symbol
_atom_site_label
_atom_site_fract_x
_atom_site_fract_y
_atom_site_fract_z
Si Si1 0.375785 0.178031 0.294693
Si Si2 0.185741 0.819160 0.386297
Si Si3 0.500000 0.315104 0.846335
Si Si4 0.124324 0.181692 0.099750
Si Si5 0.318043 0.818386 0.000000
Si Si6 0.932148 0.319249 0.560400
Si Si7 0.000000 0.182589 0.271894
Si Si8 0.810781 0.322453 0.808154
O O1 0.327678 0.262251 0.329653
O O2 0.441108 0.253244 0.299295
O O3 0.359165 0.191180 0.236083
O O4 0.376698 0.000000 0.307985
O O5 0.250000 0.750000 0.403769
O O6 0.126077 0.761871 0.415967
O O7 0.189476 0.000000 0.388481
O O8 0.500000 0.500000 0.845131
O O9 0.559584 0.267973 0.877280
O O10 0.500000 0.267522 0.787553
O O11 0.171135 0.227262 0.143177
O O12 0.123049 0.000000 0.092268
O O13 0.145542 0.261340 0.048880
O O14 0.250000 0.750000 0.000000
O O15 0.313402 0.000000 0.000000
O O16 0.929628 0.302149 0.500000
O O17 0.928285 0.500000 0.571547
O O18 0.000000 0.266991 0.576435
O O19 0.000000 0.000000 0.272452
O O20 0.803565 0.500000 0.820929
O O21 0.750000 0.250000 0.787230
#
# Coordination Sequence:
#
# PCOD9493558 Si02
#       8
#    16  16   8  16   8  16   8  16
#     4  11  24  41  62  91 128 170 213 263 320 379
#     4  12  26  43  65  95 134 177 224 278 333 392
#     4   9  20  38  64  93 122 155 194 241 294 355
#     4  11  22  41  65  90 119 155 196 244 297 358
#     4  12  26  45  64  89 119 154 196 244 297 356
#     4   9  20  42  71 100 132 173 221 274 333 396
#     4  11  21  39  64  94 126 167 215 260 313 376
#     4  11  23  38  59  87 118 158 203 250 306 366
#
# _framework density 20.161545
#
# number of rings (size 3 to 8) (size 9 to 14) (size 15 to 20)
#    0.000    1.231    1.538    5.077    1.077    4.308 
#    0.000    3.846    0.000    0.000    0.000    0.000 
#    0.000    0.000    0.000    0.000    0.000    0.000 
#
# Total GULP energy -290658.562412 kJ/mol
# GULP energy per Si atom -5589.587739 kJ/mol
# Density = 2.011566 g / cm^3
# Si number density = 20.161545 Si / 1000 Ang^3
#
#
#
# Elastic Constant Matrix: (Units=GPa)
#
#
# Indices 1 2 3 4 5 6 
#
# 1 144.0103 57.0131 28.1162 0.0000 0.0000 0.0000
# 2 57.0131 112.1856 27.4709 0.0000 0.0000 0.0000
# 3 28.1162 27.4709 74.8723 0.0000 0.0000 0.0000
# 4 0.0000 0.0000 0.0000 31.5672 0.0000 0.0000
# 5 0.0000 0.0000 0.0000 0.0000 37.7439 0.0000
# 6 0.0000 0.0000 0.0000 0.0000 0.0000 27.3239
#
#
#
# Elastic Compliance Matrix: (Units=1/GPa)
#
#
# Indices 1 2 3 4 5 6 
#
# 1 0.008921 -0.004080 -0.001853 0.000000 0.000000 0.000000
# 2 -0.004080 0.011660 -0.002746 0.000000 0.000000 0.000000
# 3 -0.001853 -0.002746 0.015059 0.000000 0.000000 0.000000
# 4 0.000000 0.000000 0.000000 0.031678 0.000000 0.000000
# 5 0.000000 0.000000 0.000000 0.000000 0.026494 0.000000
# 6 0.000000 0.000000 0.000000 0.000000 0.000000 0.036598
#
#
# Mechanical properties :
#
#
# Convention : Reuss Voigt Hill
#
# Bulk Modulus (GPa) = 54.69776 61.80764 58.25270
# Shear Modulus (GPa) = 32.49654 33.89153 33.19403
#
# Velocity S-wave (km/s) = 4.01909 4.10445 4.06199
# Velocity P-wave (km/s) = 6.98041 7.29279 7.13830
#
# Compressibility (1/GPa) = 0.01828228
#
# Stress axis : x y z
#
# Youngs Moduli (GPa) = 112.09559 85.76629 66.40368
#
# Poissons Ratio (x) = 0.34992 0.12305
# Poissons Ratio (y) = 0.45734 0.18233
# Poissons Ratio (z) = 0.20772 0.23550
#
# Static dielectric constant tensor:
#      x y z
#    x 0.180180 0.000000 0.000000 
#    y 0.000000 1.676060 0.000000 
#    z 0.000000 0.000000 1.698630 
# 
# From -- ./inp_files/75566.got.cif
#   From: 2010.05.17/outbox.cif.g08.bks.cpg/sg65_38_cif.got.tgz:75566.got - 2010.06.03 17:01:31.
