data_PCOD9493477
_publ_section_title
;
Structure prediction by ZEFSAII (Michael W. Deem and Ramdas Pophale) SiO2 
 PCOD9493477
Probable space group: C M M M
;
_chemical_formula_sum "Si O2"
_cell_formula_units_Z 80
_cell_length_a 15.331769
_cell_length_b 16.287556
_cell_length_c 16.471677
_cell_angle_alpha 90.000000
_cell_angle_beta 90.000000
_cell_angle_gamma 90.000000
_cell_volume 4113.258526
_symmetry_space_group_name_H-M "C M M M"
_symmetry_group_IT_number 65
_symmetry_cell_setting 'orthorhombic'
loop_
_space_group_symop_operation_xyz
x,y,z
-x,-y,z
x,-y,-z
-x,y,-z
-x,-y,-z
x,y,-z
-x,y,z
x,-y,z
1/2+x,1/2+y,z
1/2-x,1/2-y,z
1/2+x,1/2-y,-z
1/2-x,1/2+y,-z
1/2-x,1/2-y,-z
1/2+x,1/2+y,-z
1/2-x,1/2+y,z
1/2+x,1/2-y,z
loop_
_atom_site_type_symbol
_atom_site_label
_atom_site_fract_x
_atom_site_fract_y
_atom_site_fract_z
Si Si1 0.902302 0.900261 0.595607
Si Si2 0.372367 0.906088 0.000000
Si Si3 0.595964 0.161375 0.183470
Si Si4 0.740405 0.407905 0.283315
Si Si5 0.805289 0.164310 0.000000
Si Si6 0.097240 0.145845 0.165669
O O1 0.897214 0.881869 0.500000
O O2 0.816172 0.868926 0.642662
O O3 0.000000 0.873245 0.624816
O O4 0.901652 0.000000 0.604118
O O5 0.395923 0.862380 0.086550
O O6 0.268245 0.904357 0.000000
O O7 0.403730 0.000000 0.000000
O O8 0.500000 0.130311 0.208595
O O9 0.675700 0.129933 0.238420
O O10 0.597296 0.259394 0.194355
O O11 0.765239 0.500000 0.307402
O O12 0.665082 0.406836 0.215655
O O13 0.750000 0.250000 0.000000
O O14 0.866031 0.155167 0.076320
O O15 0.000000 0.112855 0.169075
#
# Coordination Sequence:
#
# PCOD9493477 Si02
#       6
#    16   8  16  16   8  16
#     4   8  15  30  53  81 111 141 173 211 261 323
#     4  12  23  36  55  77 101 136 187 240 274 297
#     4  11  23  38  55  75 104 147 191 228 266 313
#     4  11  21  34  55  83 112 137 171 224 275 318
#     4  12  19  35  55  72 102 141 180 221 264 324
#     4  11  22  36  55  77 105 144 183 218 267 328
#
# _framework density 19.449300000000001
#
# number of rings (size 3 to 8) (size 9 to 14) (size 15 to 20)
#    0.000    1.400    4.000    3.000    0.000    4.800 
#    0.000    0.000    0.000    4.800    0.000    5.600 
#    0.000    0.000    0.000    0.000    0.000    0.000 
#
# Total GULP energy -222860.599715 kJ/mol
# GULP energy per Si atom -5571.514993 kJ/mol
# Density = 1.940503 g / cm^3
# Si number density = 19.449300 Si / 1000 Ang^3
#
#
#
# Elastic Constant Matrix: (Units=GPa)
#
#
# Indices 1 2 3 4 5 6 
#
# 1 189.3996 11.0460 52.4844 0.0000 0.0000 0.0000
# 2 11.0460 40.8790 -0.8086 0.0000 0.0000 0.0000
# 3 52.4844 -0.8086 84.5105 0.0000 0.0000 0.0000
# 4 0.0000 0.0000 0.0000 3.3397 0.0000 0.0000
# 5 0.0000 0.0000 0.0000 0.0000 -0.9395 0.0000
# 6 0.0000 0.0000 0.0000 0.0000 0.0000 -0.8258
#
#
#
# Elastic Compliance Matrix: (Units=1/GPa)
#
#
# Indices 1 2 3 4 5 6 
#
# 1 0.006513 -0.001840 -0.004062 0.000000 0.000000 0.000000
# 2 -0.001840 0.024987 0.001382 0.000000 0.000000 0.000000
# 3 -0.004062 0.001382 0.014369 0.000000 0.000000 0.000000
# 4 0.000000 0.000000 0.000000 0.299429 0.000000 0.000000
# 5 0.000000 0.000000 0.000000 0.000000 -1.064384 0.000000
# 6 0.000000 0.000000 0.000000 0.000000 0.000000 -1.210934
#
#
# Mechanical properties :
#
#
# Convention : Reuss Voigt Hill
#
# Bulk Modulus (GPa) = 27.15359 48.91475 38.03417
# Shear Modulus (GPa) = -2.61958 17.11935 7.24989
#
# Velocity S-wave (km/s) = -1.16181 2.97004 1.93279
# Velocity P-wave (km/s) = 3.49167 6.07997 4.95771
#
# Compressibility (1/GPa) = 0.03682754
#
# Stress axis : x y z
#
# Youngs Moduli (GPa) = 153.54171 40.02077 69.59444
#
# Poissons Ratio (x) = 0.07365 0.28272
# Poissons Ratio (y) = 0.28255 -0.09617
# Poissons Ratio (z) = 0.62374 -0.05531
#
# Static dielectric constant tensor:
#      x y z
#    x 1.707490 0.000000 0.000000 
#    y 0.000000 1.721700 0.000000 
#    z 0.000000 0.000000 1.645850 
# 
# From -- ./inp_files/52894.got.cif
#   From: 2010.05.17/outbox.cif.g08.bks.cpg/sg65_27_cif.got.tgz:52894.got - 2010.06.03 17:01:31.
