data_PCOD9493825
_publ_section_title
;
Structure prediction by ZEFSAII (Michael W. Deem and Ramdas Pophale) SiO2 
 PCOD9493825
Probable space group: C M M M
;
_chemical_formula_sum "Si O2"
_cell_formula_units_Z 48
_cell_length_a 8.585731
_cell_length_b 15.122577
_cell_length_c 19.262728
_cell_angle_alpha 90.000000
_cell_angle_beta 90.000000
_cell_angle_gamma 90.000000
_cell_volume 2501.041362
_symmetry_space_group_name_H-M "C M M M"
_symmetry_group_IT_number 65
_symmetry_cell_setting 'orthorhombic'
loop_
_space_group_symop_operation_xyz
x,y,z
-x,-y,z
x,-y,-z
-x,y,-z
-x,-y,-z
x,y,-z
-x,y,z
x,-y,z
1/2+x,1/2+y,z
1/2-x,1/2-y,z
1/2+x,1/2-y,-z
1/2-x,1/2+y,-z
1/2-x,1/2-y,-z
1/2+x,1/2+y,-z
1/2-x,1/2+y,z
1/2+x,1/2-y,z
loop_
_atom_site_type_symbol
_atom_site_label
_atom_site_fract_x
_atom_site_fract_y
_atom_site_fract_z
Si Si1 0.684672 0.000000 0.255709
Si Si2 0.186991 0.351304 0.000000
Si Si3 0.814503 0.845025 0.649125
Si Si4 0.185683 0.000000 0.101497
Si Si5 0.319757 0.106423 0.500000
O O1 0.736061 0.916773 0.301559
O O2 0.500000 0.000000 0.245087
O O3 0.769287 0.000000 0.181862
O O4 0.250000 0.250000 0.000000
O O5 0.245581 0.411894 0.935463
O O6 0.000000 0.348359 0.000000
O O7 0.750000 0.750000 0.669571
O O8 0.763861 0.862088 0.569644
O O9 0.000000 0.849986 0.654634
O O10 0.000000 0.000000 0.091993
O O11 0.500000 0.136790 0.500000
O O12 0.319389 0.000000 0.500000
#
# Coordination Sequence:
#
# PCOD9493825 Si02
#       5
#     8   8  16   8   8
#     4  12  25  44  65  92 128 166 208 258 313 374
#     4  11  22  41  68 100 132 169 210 255 304 360
#     4  12  25  42  64  91 123 163 210 261 317 376
#     4  11  23  42  66  97 131 168 209 255 308 368
#     4  11  22  39  64  90 121 161 207 261 318 374
#
# _framework density 19.192007
#
# number of rings (size 3 to 8) (size 9 to 14) (size 15 to 20)
#    0.000    0.500    1.667    9.500    0.000    2.000 
#    0.000    6.667    0.000    0.000    0.000    0.000 
#    0.000    0.000    0.000    0.000    0.000    0.000 
#
# Total GULP energy -134322.415000 kJ/mol
# GULP energy per Si atom -5596.767292 kJ/mol
# Density = 1.914832 g / cm^3
# Si number density = 19.192007 Si / 1000 Ang^3
#
#
#
# Elastic Constant Matrix: (Units=GPa)
#
#
# Indices 1 2 3 4 5 6 
#
# 1 173.9066 51.7342 25.6972 0.0000 0.0000 0.0000
# 2 51.7342 177.2379 64.2051 0.0000 0.0000 0.0000
# 3 25.6972 64.2051 131.1641 0.0000 0.0000 0.0000
# 4 0.0000 0.0000 0.0000 58.1986 0.0000 0.0000
# 5 0.0000 0.0000 0.0000 0.0000 29.7404 0.0000
# 6 0.0000 0.0000 0.0000 0.0000 0.0000 36.6345
#
#
#
# Elastic Compliance Matrix: (Units=1/GPa)
#
#
# Indices 1 2 3 4 5 6 
#
# 1 0.006315 -0.001696 -0.000407 0.000000 0.000000 0.000000
# 2 -0.001696 0.007314 -0.003248 0.000000 0.000000 0.000000
# 3 -0.000407 -0.003248 0.009294 0.000000 0.000000 0.000000
# 4 0.000000 0.000000 0.000000 0.017183 0.000000 0.000000
# 5 0.000000 0.000000 0.000000 0.000000 0.033624 0.000000
# 6 0.000000 0.000000 0.000000 0.000000 0.000000 0.027297
#
#
# Mechanical properties :
#
#
# Convention : Reuss Voigt Hill
#
# Bulk Modulus (GPa) = 81.82826 85.06463 83.44644
# Shear Modulus (GPa) = 43.17770 47.62617 45.40194
#
# Velocity S-wave (km/s) = 4.74833 4.98693 4.86909
# Velocity P-wave (km/s) = 8.53178 8.80787 8.67092
#
# Compressibility (1/GPa) = 0.01222072
#
# Stress axis : x y z
#
# Youngs Moduli (GPa) = 158.35735 136.73065 107.60092
#
# Poissons Ratio (x) = 0.23186 0.04380
# Poissons Ratio (y) = 0.26854 0.34947
# Poissons Ratio (z) = 0.06447 0.44408
#
# Static dielectric constant tensor:
#      x y z
#    x 1.645020 0.000000 0.000000 
#    y 0.000000 1.645470 0.000000 
#    z 0.000000 0.000000 1.639080 
# 
# From -- ./inp_files/48529.got.cif
#   From: 2010.05.17/outbox.cif.g08.bks.cpg/sg65_25_cif.got.tgz:48529.got - 2010.06.03 17:01:31.
