data_PCOD9493200
_publ_section_title
;
Structure prediction by ZEFSAII (Michael W. Deem and Ramdas Pophale) SiO2 
 PCOD9493200
Probable space group: C M M M
;
_chemical_formula_sum "Si O2"
_cell_formula_units_Z 68
_cell_length_a 21.110402
_cell_length_b 18.921677
_cell_length_c 7.597600
_cell_angle_alpha 90.000000
_cell_angle_beta 90.000000
_cell_angle_gamma 90.000000
_cell_volume 3034.817315
_symmetry_space_group_name_H-M "C M M M"
_symmetry_group_IT_number 65
_symmetry_cell_setting 'orthorhombic'
loop_
_space_group_symop_operation_xyz
x,y,z
-x,-y,z
x,-y,-z
-x,y,-z
-x,-y,-z
x,y,-z
-x,y,z
x,-y,z
1/2+x,1/2+y,z
1/2-x,1/2-y,z
1/2+x,1/2-y,-z
1/2-x,1/2+y,-z
1/2-x,1/2-y,-z
1/2+x,1/2+y,-z
1/2-x,1/2+y,z
1/2+x,1/2-y,z
loop_
_atom_site_type_symbol
_atom_site_label
_atom_site_fract_x
_atom_site_fract_y
_atom_site_fract_z
Si Si1 0.393967 0.709289 0.704347
Si Si2 0.500000 0.743444 0.000000
Si Si3 0.068889 0.584244 0.710007
Si Si4 0.685679 0.579759 0.291385
Si Si5 0.808967 0.331351 0.801467
O O1 0.416301 0.706742 0.500000
O O2 0.370015 0.632299 0.767682
O O3 0.332114 0.760560 0.705403
O O4 0.444478 0.738056 0.843411
O O5 0.070969 0.598744 0.500000
O O6 0.071872 0.500000 0.731641
O O7 0.128467 0.620098 0.795187
O O8 0.000000 0.608023 0.778538
O O9 0.676750 0.573862 0.500000
O O10 0.686687 0.500000 0.217640
O O11 0.751746 0.620750 0.265850
O O12 0.794050 0.312015 0.000000
#
# Coordination Sequence:
#
# PCOD9493200 Si02
#       5
#    16   4  16  16  16
#     4  11  25  46  72 101 138 180 226 286 345 403
#     4  12  26  48  71 104 137 174 232 282 344 422
#     4   9  19  35  54  80 119 171 226 274 327 395
#     4  10  23  45  71  99 133 179 232 283 344 412
#     4  12  24  37  61  98 137 176 226 278 334 404
#
# _framework density 22.406618999999999
#
# number of rings (size 3 to 8) (size 9 to 14) (size 15 to 20)
#    0.000    1.412    1.176    4.588    3.294    7.059 
#    0.000    2.353    0.000    2.824    0.000    0.000 
#    0.000    0.000    0.000    0.000    0.000    0.000 
#
# Total GULP energy -189564.997383 kJ/mol
# GULP energy per Si atom -5575.441099 kJ/mol
# Density = 2.235562 g / cm^3
# Si number density = 22.406619 Si / 1000 Ang^3
#
#
#
# Elastic Constant Matrix: (Units=GPa)
#
#
# Indices 1 2 3 4 5 6 
#
# 1 39.1945 37.5520 -9.4567 0.0000 0.0000 0.0000
# 2 37.5520 106.2838 21.8832 0.0000 0.0000 0.0000
# 3 -9.4567 21.8832 73.9953 0.0000 0.0000 0.0000
# 4 0.0000 0.0000 0.0000 29.4417 0.0000 0.0000
# 5 0.0000 0.0000 0.0000 0.0000 -10.1130 0.0000
# 6 0.0000 0.0000 0.0000 0.0000 0.0000 -124.9077
#
#
#
# Elastic Compliance Matrix: (Units=1/GPa)
#
#
# Indices 1 2 3 4 5 6 
#
# 1 0.046136 -0.018650 0.011412 0.000000 0.000000 0.000000
# 2 -0.018650 0.017558 -0.007576 0.000000 0.000000 0.000000
# 3 0.011412 -0.007576 0.017213 0.000000 0.000000 0.000000
# 4 0.000000 0.000000 0.000000 0.033965 0.000000 0.000000
# 5 0.000000 0.000000 0.000000 0.000000 -0.098883 0.000000
# 6 0.000000 0.000000 0.000000 0.000000 0.000000 -0.008006
#
#
# Mechanical properties :
#
#
# Convention : Reuss Voigt Hill
#
# Bulk Modulus (GPa) = 19.50146 35.49230 27.49688
# Shear Modulus (GPa) = 91.39791 -9.81612 40.79090
#
# Velocity S-wave (km/s) = 6.39368 -2.09533 4.27134
# Velocity P-wave (km/s) = 7.95159 3.16553 6.05180
#
# Compressibility (1/GPa) = 0.05127820
#
# Stress axis : x y z
#
# Youngs Moduli (GPa) = 21.67508 56.95364 58.09444
#
# Poissons Ratio (x) = 1.06220 -0.66296
# Poissons Ratio (y) = 0.40425 0.44013
# Poissons Ratio (z) = -0.24735 0.43149
#
# Static dielectric constant tensor:
#      x y z
#    x 1.829360 0.000000 0.000000 
#    y 0.000000 1.888840 0.000000 
#    z 0.000000 0.000000 1.851810 
# 
# From -- ./inp_files/10931.got.cif
#   From: 2010.05.17/outbox.cif.g08.bks.cpg/sg65_6_cif.got.tgz:10931.got - 2010.06.03 17:01:31.
