data_PCOD9493899
_publ_section_title
;
Structure prediction by ZEFSAII (Michael W. Deem and Ramdas Pophale) SiO2 
 PCOD9493899
Probable space group: C M M M
;
_chemical_formula_sum "Si O2"
_cell_formula_units_Z 72
_cell_length_a 20.792145
_cell_length_b 21.995226
_cell_length_c 8.405756
_cell_angle_alpha 90.000000
_cell_angle_beta 90.000000
_cell_angle_gamma 90.000000
_cell_volume 3844.186977
_symmetry_space_group_name_H-M "C M M M"
_symmetry_group_IT_number 65
_symmetry_cell_setting 'orthorhombic'
loop_
_space_group_symop_operation_xyz
x,y,z
-x,-y,z
x,-y,-z
-x,y,-z
-x,-y,-z
x,y,-z
-x,y,z
x,-y,z
1/2+x,1/2+y,z
1/2-x,1/2-y,z
1/2+x,1/2-y,-z
1/2-x,1/2+y,-z
1/2-x,1/2-y,-z
1/2+x,1/2+y,-z
1/2-x,1/2+y,z
1/2+x,1/2-y,z
loop_
_atom_site_type_symbol
_atom_site_label
_atom_site_fract_x
_atom_site_fract_y
_atom_site_fract_z
Si Si1 0.629092 0.613942 0.683485
Si Si2 0.256841 0.931132 0.186408
Si Si3 0.196110 0.301318 0.310598
Si Si4 0.000000 0.929897 0.822439
Si Si5 0.075762 0.239383 0.810107
O O1 0.649107 0.610809 0.500000
O O2 0.680813 0.579539 0.790173
O O3 0.561143 0.584925 0.718566
O O4 0.613950 0.682916 0.732779
O O5 0.283476 0.870440 0.270867
O O6 0.273228 0.000000 0.243862
O O7 0.273313 0.928233 0.000000
O O8 0.191799 0.293684 0.500000
O O9 0.250000 0.250000 0.255408
O O10 0.125170 0.292506 0.236147
O O11 0.000000 0.000000 0.849595
O O12 0.000000 0.899228 0.000000
O O13 0.000000 0.242933 0.758778
O O14 0.075171 0.232698 0.000000
#
# Coordination Sequence:
#
# PCOD9493899 Si02
#       5
#    16  16  16   8  16
#     4  12  23  35  55  83 117 156 199 247 300 356
#     4  11  24  41  62  88 120 160 204 250 303 364
#     4  11  23  39  63  94 124 159 204 254 309 365
#     4  11  23  37  51  71 107 157 206 245 290 355
#     4  11  23  39  62  89 121 161 204 250 303 363
#
# _framework density 18.729579000000001
#
# number of rings (size 3 to 8) (size 9 to 14) (size 15 to 20)
#    0.000    0.778    3.333    5.000    0.000    7.556 
#    0.000    0.000    0.000    0.667    0.000    4.667 
#    0.000    0.000    0.000    0.000    0.000    0.000 
#
# Total GULP energy -200720.383858 kJ/mol
# GULP energy per Si atom -5575.566218 kJ/mol
# Density = 1.868695 g / cm^3
# Si number density = 18.729579 Si / 1000 Ang^3
#
#
#
# Elastic Constant Matrix: (Units=GPa)
#
#
# Indices 1 2 3 4 5 6 
#
# 1 57.0053 31.5331 5.0575 0.0000 0.0000 0.0000
# 2 31.5331 105.1813 7.0082 0.0000 0.0000 0.0000
# 3 5.0575 7.0082 54.6052 0.0000 0.0000 0.0000
# 4 0.0000 0.0000 0.0000 28.5125 0.0000 0.0000
# 5 0.0000 0.0000 0.0000 0.0000 23.6298 0.0000
# 6 0.0000 0.0000 0.0000 0.0000 0.0000 13.9942
#
#
#
# Elastic Compliance Matrix: (Units=1/GPa)
#
#
# Indices 1 2 3 4 5 6 
#
# 1 0.021101 -0.006249 -0.001152 0.000000 0.000000 0.000000
# 2 -0.006249 0.011440 -0.000889 0.000000 0.000000 0.000000
# 3 -0.001152 -0.000889 0.018534 0.000000 0.000000 0.000000
# 4 0.000000 0.000000 0.000000 0.035072 0.000000 0.000000
# 5 0.000000 0.000000 0.000000 0.000000 0.042319 0.000000
# 6 0.000000 0.000000 0.000000 0.000000 0.000000 0.071458
#
#
# Mechanical properties :
#
#
# Convention : Reuss Voigt Hill
#
# Bulk Modulus (GPa) = 28.99104 33.77661 31.38382
# Shear Modulus (GPa) = 21.92927 24.77351 23.35139
#
# Velocity S-wave (km/s) = 3.42546 3.64083 3.53479
# Velocity P-wave (km/s) = 5.58188 5.97890 5.78380
#
# Compressibility (1/GPa) = 0.03449342
#
# Stress axis : x y z
#
# Youngs Moduli (GPa) = 47.39026 87.41103 53.95444
#
# Poissons Ratio (x) = 0.54626 0.06217
# Poissons Ratio (y) = 0.29616 0.04799
# Poissons Ratio (z) = 0.05461 0.07775
#
# Static dielectric constant tensor:
#      x y z
#    x 1.522420 0.000000 0.000000 
#    y 0.000000 1.760010 0.000000 
#    z 0.000000 0.000000 1.674610 
# 
# From -- ./inp_files/11266.got.cif
#   From: 2010.05.17/outbox.cif.g08.bks.cpg/sg65_6_cif.got.tgz:11266.got - 2010.06.03 17:01:31.
