data_PCOD9493150
_publ_section_title
;
Structure prediction by ZEFSAII (Michael W. Deem and Ramdas Pophale) SiO2 
 PCOD9493150
Probable space group: C M M M
;
_chemical_formula_sum "Si O2"
_cell_formula_units_Z 88
_cell_length_a 17.379728
_cell_length_b 14.972586
_cell_length_c 17.044998
_cell_angle_alpha 90.000000
_cell_angle_beta 90.000000
_cell_angle_gamma 90.000000
_cell_volume 4435.440382
_symmetry_space_group_name_H-M "C M M M"
_symmetry_group_IT_number 65
_symmetry_cell_setting 'orthorhombic'
loop_
_space_group_symop_operation_xyz
x,y,z
-x,-y,z
x,-y,-z
-x,y,-z
-x,-y,-z
x,y,-z
-x,y,z
x,-y,z
1/2+x,1/2+y,z
1/2-x,1/2-y,z
1/2+x,1/2-y,-z
1/2-x,1/2+y,-z
1/2-x,1/2-y,-z
1/2+x,1/2+y,-z
1/2-x,1/2+y,z
1/2+x,1/2-y,z
loop_
_atom_site_type_symbol
_atom_site_label
_atom_site_fract_x
_atom_site_fract_y
_atom_site_fract_z
Si Si1 0.646630 0.165163 0.733298
Si Si2 0.347851 0.648623 0.817532
Si Si3 0.088759 0.500000 0.834190
Si Si4 0.694007 0.400944 0.655603
Si Si5 0.500000 0.607281 0.091463
Si Si6 0.085866 0.762133 0.586046
Si Si7 0.749973 0.500000 0.091844
O O1 0.664572 0.248483 0.791287
O O2 0.606281 0.086542 0.780743
O O3 0.725349 0.132799 0.691664
O O4 0.595358 0.198690 0.660804
O O5 0.358937 0.600727 0.733605
O O6 0.424303 0.644707 0.868212
O O7 0.285228 0.588007 0.864433
O O8 0.157922 0.500000 0.897555
O O9 0.000000 0.500000 0.861111
O O10 0.702550 0.500000 0.624263
O O11 0.653672 0.333887 0.596395
O O12 0.500000 0.500000 0.099962
O O13 0.500000 0.628525 0.000000
O O14 0.093358 0.718732 0.500000
O O15 0.000000 0.802658 0.589439
O O16 0.728122 0.500000 0.000000
#
# Coordination Sequence:
#
# PCOD9493150 Si02
#       7
#    16  16   8  16   8  16   8
#     4  11  23  43  70  92 122 175 224 269 315 371
#     4  11  21  38  64  94 129 163 212 258 321 392
#     4  12  26  45  68  91 126 171 232 275 312 376
#     4  11  21  39  66  92 125 168 218 264 314 380
#     4  11  22  36  58  93 136 166 199 263 328 397
#     4  10  23  40  61  97 138 169 206 262 330 389
#     4  12  24  44  70  97 132 165 204 271 335 388
#
# _framework density 19.840192999999999
#
# number of rings (size 3 to 8) (size 9 to 14) (size 15 to 20)
#    0.000    1.000    4.545    3.273    6.364    2.364 
#    0.000    4.091    0.000    1.636    0.000    0.000 
#    0.000    0.000    0.000    0.000    0.000    0.000 
#
# Total GULP energy -245473.202382 kJ/mol
# GULP energy per Si atom -5578.936418 kJ/mol
# Density = 1.979504 g / cm^3
# Si number density = 19.840193 Si / 1000 Ang^3
#
#
#
# Elastic Constant Matrix: (Units=GPa)
#
#
# Indices 1 2 3 4 5 6 
#
# 1 102.7833 15.9301 21.2638 0.0000 0.0000 0.0000
# 2 15.9301 100.9021 20.1038 0.0000 0.0000 0.0000
# 3 21.2638 20.1038 99.4387 0.0000 0.0000 0.0000
# 4 0.0000 0.0000 0.0000 14.3025 0.0000 0.0000
# 5 0.0000 0.0000 0.0000 0.0000 2.3891 0.0000
# 6 0.0000 0.0000 0.0000 0.0000 0.0000 15.1565
#
#
#
# Elastic Compliance Matrix: (Units=1/GPa)
#
#
# Indices 1 2 3 4 5 6 
#
# 1 0.010326 -0.001240 -0.001957 0.000000 0.000000 0.000000
# 2 -0.001240 0.010476 -0.001853 0.000000 0.000000 0.000000
# 3 -0.001957 -0.001853 0.010850 0.000000 0.000000 0.000000
# 4 0.000000 0.000000 0.000000 0.069918 0.000000 0.000000
# 5 0.000000 0.000000 0.000000 0.000000 0.418574 0.000000
# 6 0.000000 0.000000 0.000000 0.000000 0.000000 0.065978
#
#
# Mechanical properties :
#
#
# Convention : Reuss Voigt Hill
#
# Bulk Modulus (GPa) = 46.40209 46.41330 46.40769
# Shear Modulus (GPa) = 8.28629 22.75802 15.52216
#
# Velocity S-wave (km/s) = 2.04587 3.39051 2.80010
# Velocity P-wave (km/s) = 5.38697 6.22670 5.82200
#
# Compressibility (1/GPa) = 0.02155075
#
# Stress axis : x y z
#
# Youngs Moduli (GPa) = 96.83929 95.46050 92.16947
#
# Poissons Ratio (x) = 0.11840 0.18041
# Poissons Ratio (y) = 0.12011 0.17076
# Poissons Ratio (z) = 0.18956 0.17685
#
# Static dielectric constant tensor:
#      x y z
#    x 1.744220 0.000000 0.000000 
#    y 0.000000 1.724310 0.000000 
#    z 0.000000 0.000000 1.677010 
# 
# From -- ./inp_files/54393.got.cif
#   From: 2010.05.17/outbox.cif.g08.bks.cpg/sg65_28_cif.got.tgz:54393.got - 2010.06.03 17:01:31.
