data_PCOD9493566
_publ_section_title
;
Structure prediction by ZEFSAII (Michael W. Deem and Ramdas Pophale) SiO2 
 PCOD9493566
Probable space group: C M M M
;
_chemical_formula_sum "Si O2"
_cell_formula_units_Z 48
_cell_length_a 15.938496
_cell_length_b 7.926311
_cell_length_c 19.276461
_cell_angle_alpha 90.000000
_cell_angle_beta 90.000000
_cell_angle_gamma 90.000000
_cell_volume 2435.262326
_symmetry_space_group_name_H-M "C M M M"
_symmetry_group_IT_number 65
_symmetry_cell_setting 'orthorhombic'
loop_
_space_group_symop_operation_xyz
x,y,z
-x,-y,z
x,-y,-z
-x,y,-z
-x,-y,-z
x,y,-z
-x,y,z
x,-y,z
1/2+x,1/2+y,z
1/2-x,1/2-y,z
1/2+x,1/2-y,-z
1/2-x,1/2+y,-z
1/2-x,1/2-y,-z
1/2+x,1/2+y,-z
1/2-x,1/2+y,z
1/2+x,1/2-y,z
loop_
_atom_site_type_symbol
_atom_site_label
_atom_site_fract_x
_atom_site_fract_y
_atom_site_fract_z
Si Si1 0.401720 0.000000 0.076797
Si Si2 0.153187 0.698669 0.677145
Si Si3 0.846476 0.193981 0.827443
Si Si4 0.000000 0.797165 0.419980
O O1 0.382387 0.831746 0.120293
O O2 0.500000 0.000000 0.067936
O O3 0.360668 0.000000 0.000000
O O4 0.154851 0.500000 0.691840
O O5 0.250000 0.750000 0.660405
O O6 0.122900 0.787840 0.748199
O O7 0.084485 0.736072 0.618552
O O8 0.750000 0.250000 0.821878
O O9 0.855122 0.000000 0.850150
O O10 0.000000 0.741607 0.500000
O O11 0.000000 0.000000 0.418025
#
# Coordination Sequence:
#
# PCOD9493566 Si02
#       4
#     8  16  16   8
#     4  11  26  44  62  94 133 169 210 265 332 386
#     4  11  22  40  66  95 128 167 219 269 319 381
#     4  11  21  41  67  95 125 166 221 266 316 380
#     4  11  25  43  63  95 131 170 217 263 325 391
#
# _framework density 19.710401999999998
#
# number of rings (size 3 to 8) (size 9 to 14) (size 15 to 20)
#    0.000    1.000    3.333    5.500    2.333    4.000 
#    0.000    1.667    0.000    0.000    0.000    0.000 
#    0.000    0.000    0.000    0.000    0.000    0.000 
#
# Total GULP energy -134004.345696 kJ/mol
# GULP energy per Si atom -5583.514404 kJ/mol
# Density = 1.966554 g / cm^3
# Si number density = 19.710402 Si / 1000 Ang^3
#
#
#
# Elastic Constant Matrix: (Units=GPa)
#
#
# Indices 1 2 3 4 5 6 
#
# 1 77.2470 26.3294 66.2603 0.0000 0.0000 0.0000
# 2 26.3294 172.6462 57.6694 0.0000 0.0000 0.0000
# 3 66.2603 57.6694 156.1581 0.0000 0.0000 0.0000
# 4 0.0000 0.0000 0.0000 24.0387 0.0000 0.0000
# 5 0.0000 0.0000 0.0000 0.0000 36.6057 0.0000
# 6 0.0000 0.0000 0.0000 0.0000 0.0000 26.1951
#
#
#
# Elastic Compliance Matrix: (Units=1/GPa)
#
#
# Indices 1 2 3 4 5 6 
#
# 1 0.020363 -0.000250 -0.008548 0.000000 0.000000 0.000000
# 2 -0.000250 0.006610 -0.002335 0.000000 0.000000 0.000000
# 3 -0.008548 -0.002335 0.010893 0.000000 0.000000 0.000000
# 4 0.000000 0.000000 0.000000 0.041600 0.000000 0.000000
# 5 0.000000 0.000000 0.000000 0.000000 0.027318 0.000000
# 6 0.000000 0.000000 0.000000 0.000000 0.000000 0.038175
#
#
# Mechanical properties :
#
#
# Convention : Reuss Voigt Hill
#
# Bulk Modulus (GPa) = 64.10215 78.50771 71.30493
# Shear Modulus (GPa) = 28.99803 34.42070 31.70937
#
# Velocity S-wave (km/s) = 3.83979 4.18343 4.01529
# Velocity P-wave (km/s) = 7.22850 7.95311 7.59945
#
# Compressibility (1/GPa) = 0.01560010
#
# Stress axis : x y z
#
# Youngs Moduli (GPa) = 49.10888 151.27840 91.80113
#
# Poissons Ratio (x) = 0.03784 0.78471
# Poissons Ratio (y) = 0.01229 0.21436
# Poissons Ratio (z) = 0.41978 0.35324
#
# Static dielectric constant tensor:
#      x y z
#    x 1.709130 0.000000 0.000000 
#    y 0.000000 1.649790 0.000000 
#    z 0.000000 0.000000 1.784990 
# 
# From -- ./inp_files/48469.got.cif
#   From: 2010.05.17/outbox.cif.g08.bks.cpg/sg65_25_cif.got.tgz:48469.got - 2010.06.03 17:01:31.
