data_PCOD9493430
_publ_section_title
;
Structure prediction by ZEFSAII (Michael W. Deem and Ramdas Pophale) SiO2 
 PCOD9493430
Probable space group: C M M M
;
_chemical_formula_sum "Si O2"
_cell_formula_units_Z 120
_cell_length_a 26.879347
_cell_length_b 28.363545
_cell_length_c 9.199117
_cell_angle_alpha 90.000000
_cell_angle_beta 90.000000
_cell_angle_gamma 90.000000
_cell_volume 7013.347634
_symmetry_space_group_name_H-M "C M M M"
_symmetry_group_IT_number 65
_symmetry_cell_setting 'orthorhombic'
loop_
_space_group_symop_operation_xyz
x,y,z
-x,-y,z
x,-y,-z
-x,y,-z
-x,-y,-z
x,y,-z
-x,y,z
x,-y,z
1/2+x,1/2+y,z
1/2-x,1/2-y,z
1/2+x,1/2-y,-z
1/2-x,1/2+y,-z
1/2-x,1/2-y,-z
1/2+x,1/2+y,-z
1/2-x,1/2+y,z
1/2+x,1/2-y,z
loop_
_atom_site_type_symbol
_atom_site_label
_atom_site_fract_x
_atom_site_fract_y
_atom_site_fract_z
Si Si1 0.235398 0.196518 0.673696
Si Si2 0.558645 0.313736 0.327196
Si Si3 0.197689 0.392874 0.671412
Si Si4 0.500000 0.054168 0.822913
Si Si5 0.403632 0.886186 0.826470
Si Si6 0.700303 0.445039 0.673011
Si Si7 0.559716 0.204243 0.668797
Si Si8 0.851668 0.860051 0.173240
O O1 0.224764 0.194115 0.500000
O O2 0.250000 0.250000 0.709426
O O3 0.279895 0.159309 0.701967
O O4 0.187892 0.177292 0.760127
O O5 0.566858 0.321125 0.500000
O O6 0.500000 0.320795 0.299033
O O7 0.570585 0.258702 0.296790
O O8 0.594518 0.346025 0.233745
O O9 0.186247 0.395135 0.500000
O O10 0.148561 0.402768 0.761755
O O11 0.243023 0.428519 0.701813
O O12 0.549655 0.081860 0.777063
O O13 0.500000 0.000000 0.774516
O O14 0.500000 0.054200 0.000000
O O15 0.413775 0.833534 0.769000
O O16 0.402159 0.886827 0.000000
O O17 0.691914 0.437149 0.500000
O O18 0.693524 0.500000 0.704445
O O19 0.665389 0.410470 0.763912
O O20 0.573363 0.195908 0.500000
O O21 0.500000 0.198409 0.681186
O O22 0.849874 0.859400 0.000000
#
# Coordination Sequence:
#
# PCOD9493430 Si02
#       8
#    16  16  16   8  16  16  16  16
#     4   9  19  36  55  74 103 148 192 225 263 319
#     4   9  19  36  57  80 108 149 194 225 256 313
#     4   9  19  34  52  78 106 134 174 226 274 316
#     4   9  20  38  53  67  95 139 183 219 266 329
#     4  11  21  33  51  74 103 138 176 223 273 330
#     4   9  19  39  64  83 103 139 186 229 269 323
#     4   9  18  33  53  74  99 136 180 224 265 308
#     4  11  22  34  53  85 120 147 174 221 279 330
#
# _framework density 17.110230999999999
#
# number of rings (size 3 to 8) (size 9 to 14) (size 15 to 20)
#    0.000    2.467    0.667    3.200    1.867    4.000 
#    0.000    1.333    0.000    3.200    0.000    2.800 
#    0.000    0.000    0.000    0.000    0.000    0.000 
#
# Total GULP energy -334815.147747 kJ/mol
# GULP energy per Si atom -5580.252462 kJ/mol
# Density = 1.707129 g / cm^3
# Si number density = 17.110231 Si / 1000 Ang^3
#
#
#
# Elastic Constant Matrix: (Units=GPa)
#
#
# Indices 1 2 3 4 5 6 
#
# 1 94.9059 58.7793 62.5404 0.0000 0.0000 0.0000
# 2 58.7793 111.7005 58.6625 0.0000 0.0000 0.0000
# 3 62.5404 58.6625 63.8654 0.0000 0.0000 0.0000
# 4 0.0000 0.0000 0.0000 15.1850 0.0000 0.0000
# 5 0.0000 0.0000 0.0000 0.0000 22.8762 0.0000
# 6 0.0000 0.0000 0.0000 0.0000 0.0000 10.1807
#
#
#
# Elastic Compliance Matrix: (Units=1/GPa)
#
#
# Indices 1 2 3 4 5 6 
#
# 1 0.029733 -0.000686 -0.028486 0.000000 0.000000 0.000000
# 2 -0.000686 0.017312 -0.015230 0.000000 0.000000 0.000000
# 3 -0.028486 -0.015230 0.057542 0.000000 0.000000 0.000000
# 4 0.000000 0.000000 0.000000 0.065855 0.000000 0.000000
# 5 0.000000 0.000000 0.000000 0.000000 0.043714 0.000000
# 6 0.000000 0.000000 0.000000 0.000000 0.000000 0.098225
#
#
# Mechanical properties :
#
#
# Convention : Reuss Voigt Hill
#
# Bulk Modulus (GPa) = 63.35809 70.04848 66.70329
# Shear Modulus (GPa) = 12.30174 15.68101 13.99138
#
# Velocity S-wave (km/s) = 2.68427 3.03061 2.86268
# Velocity P-wave (km/s) = 6.83497 7.29894 7.07076
#
# Compressibility (1/GPa) = 0.01578330
#
# Stress axis : x y z
#
# Youngs Moduli (GPa) = 33.63217 57.76426 17.37849
#
# Poissons Ratio (x) = 0.03962 0.49505
# Poissons Ratio (y) = 0.02307 0.26467
# Poissons Ratio (z) = 0.95806 0.87973
#
# Static dielectric constant tensor:
#      x y z
#    x 1.574500 0.000000 0.000000 
#    y 0.000000 1.569370 0.000000 
#    z 0.000000 0.000000 1.566560 
# 
# From -- ./inp_files/17087.got.cif
#   From: 2010.05.17/outbox.cif.g08.bks.cpg/sg65_9_cif.got.tgz:17087.got - 2010.06.03 17:01:31.
