data_PCOD9493538
_publ_section_title
;
Structure prediction by ZEFSAII (Michael W. Deem and Ramdas Pophale) SiO2 
 PCOD9493538
Probable space group: C M M M
;
_chemical_formula_sum "Si O2"
_cell_formula_units_Z 104
_cell_length_a 25.013841
_cell_length_b 23.268786
_cell_length_c 7.700178
_cell_angle_alpha 90.000000
_cell_angle_beta 90.000000
_cell_angle_gamma 90.000000
_cell_volume 4481.824796
_symmetry_space_group_name_H-M "C M M M"
_symmetry_group_IT_number 65
_symmetry_cell_setting 'orthorhombic'
loop_
_space_group_symop_operation_xyz
x,y,z
-x,-y,z
x,-y,-z
-x,y,-z
-x,-y,-z
x,y,-z
-x,y,z
x,-y,z
1/2+x,1/2+y,z
1/2-x,1/2-y,z
1/2+x,1/2-y,-z
1/2-x,1/2+y,-z
1/2-x,1/2-y,-z
1/2+x,1/2+y,-z
1/2-x,1/2+y,z
1/2+x,1/2-y,z
loop_
_atom_site_type_symbol
_atom_site_label
_atom_site_fract_x
_atom_site_fract_y
_atom_site_fract_z
Si Si1 0.290462 0.876746 0.792537
Si Si2 0.403479 0.849831 0.689629
Si Si3 0.360697 0.500000 0.212875
Si Si4 0.058954 0.098761 0.211870
Si Si5 0.063933 0.433925 0.000000
Si Si6 0.203647 0.793739 0.294179
Si Si7 0.737589 0.000000 0.211491
Si Si8 0.084144 0.775468 0.802233
O O1 0.338969 0.843296 0.703829
O O2 0.231888 0.854105 0.744393
O O3 0.292505 0.942614 0.736004
O O4 0.297079 0.872048 0.000000
O O5 0.418482 0.870849 0.500000
O O6 0.427138 0.786129 0.717809
O O7 0.418424 0.895959 0.835176
O O8 0.394058 0.443710 0.268916
O O9 0.299286 0.500000 0.269873
O O10 0.360508 0.500000 0.000000
O O11 0.063447 0.164556 0.274920
O O12 0.000000 0.076075 0.255561
O O13 0.062335 0.101394 0.000000
O O14 0.084869 0.500000 0.000000
O O15 0.000000 0.436884 0.000000
O O16 0.194967 0.787023 0.500000
O O17 0.250000 0.750000 0.235998
O O18 0.148174 0.784345 0.200429
O O19 0.739176 0.000000 0.000000
O O20 0.065190 0.771102 0.000000
#
# Coordination Sequence:
#
# PCOD9493538 Si02
#       8
#    16  16   8  16   8  16   8  16
#     4  11  21  37  61  93 132 176 221 265 331 401
#     4  12  25  44  71 105 139 175 221 277 339 404
#     4   9  15  30  51  83 128 174 226 277 331 390
#     4   9  18  31  54  87 124 168 222 284 339 391
#     4  11  28  54  80 103 132 173 221 274 339 412
#     4  11  22  35  54  84 125 169 218 270 321 392
#     4   9  20  33  55  90 128 168 213 264 314 391
#     4  11  21  37  60  93 132 180 229 275 340 411
#
# _framework density 23.204834000000002
#
# number of rings (size 3 to 8) (size 9 to 14) (size 15 to 20)
#    0.000    1.462    3.077    2.538    1.077    5.231 
#    0.000    1.923    0.000    1.385    0.000    1.615 
#    0.000    6.154    0.000    0.000    0.000    0.000 
#
# Total GULP energy -290860.906190 kJ/mol
# GULP energy per Si atom -5593.478965 kJ/mol
# Density = 2.315202 g / cm^3
# Si number density = 23.204834 Si / 1000 Ang^3
#
#
#
# Elastic Constant Matrix: (Units=GPa)
#
#
# Indices 1 2 3 4 5 6 
#
# 1 70.7336 7.7652 5.6953 0.0000 0.0000 0.0000
# 2 7.7652 133.8311 30.0417 0.0000 0.0000 0.0000
# 3 5.6953 30.0417 97.4734 0.0000 0.0000 0.0000
# 4 0.0000 0.0000 0.0000 -14.0834 0.0000 0.0000
# 5 0.0000 0.0000 0.0000 0.0000 -26.7211 0.0000
# 6 0.0000 0.0000 0.0000 0.0000 0.0000 22.5118
#
#
#
# Elastic Compliance Matrix: (Units=1/GPa)
#
#
# Indices 1 2 3 4 5 6 
#
# 1 0.014263 -0.000688 -0.000621 0.000000 0.000000 0.000000
# 2 -0.000688 0.008061 -0.002444 0.000000 0.000000 0.000000
# 3 -0.000621 -0.002444 0.011049 0.000000 0.000000 0.000000
# 4 0.000000 0.000000 0.000000 -0.071006 0.000000 0.000000
# 5 0.000000 0.000000 0.000000 0.000000 -0.037424 0.000000
# 6 0.000000 0.000000 0.000000 0.000000 0.000000 0.044421
#
#
# Mechanical properties :
#
#
# Convention : Reuss Voigt Hill
#
# Bulk Modulus (GPa) = 38.66150 43.22693 40.94422
# Shear Modulus (GPa) = -344.66761 13.57720 -165.54521
#
# Velocity S-wave (km/s) = -12.20062 2.42151 -8.45551
# Velocity P-wave (km/s) = 13.48245 5.14657 8.81162
#
# Compressibility (1/GPa) = 0.02586552
#
# Stress axis : x y z
#
# Youngs Moduli (GPa) = 70.11084 124.05909 90.50761
#
# Poissons Ratio (x) = 0.08537 0.05623
# Poissons Ratio (y) = 0.04824 0.22121
# Poissons Ratio (z) = 0.04356 0.30322
#
# Static dielectric constant tensor:
#      x y z
#    x 1.853840 0.000000 0.000000 
#    y 0.000000 1.905090 0.000000 
#    z 0.000000 0.000000 1.845030 
# 
# From -- ./inp_files/16845.got.cif
#   From: 2010.05.17/outbox.cif.g08.bks.cpg/sg65_9_cif.got.tgz:16845.got - 2010.06.03 17:01:31.
