data_PCOD9493408
_publ_section_title
;
Structure prediction by ZEFSAII (Michael W. Deem and Ramdas Pophale) SiO2 
 PCOD9493408
Probable space group: C M M M
;
_chemical_formula_sum "Si O2"
_cell_formula_units_Z 88
_cell_length_a 9.077235
_cell_length_b 31.362028
_cell_length_c 17.130496
_cell_angle_alpha 90.000000
_cell_angle_beta 90.000000
_cell_angle_gamma 90.000000
_cell_volume 4876.718136
_symmetry_space_group_name_H-M "C M M M"
_symmetry_group_IT_number 65
_symmetry_cell_setting 'orthorhombic'
loop_
_space_group_symop_operation_xyz
x,y,z
-x,-y,z
x,-y,-z
-x,y,-z
-x,-y,-z
x,y,-z
-x,y,z
x,-y,z
1/2+x,1/2+y,z
1/2-x,1/2-y,z
1/2+x,1/2-y,-z
1/2-x,1/2+y,-z
1/2-x,1/2-y,-z
1/2+x,1/2+y,-z
1/2-x,1/2+y,z
1/2+x,1/2-y,z
loop_
_atom_site_type_symbol
_atom_site_label
_atom_site_fract_x
_atom_site_fract_y
_atom_site_fract_z
Si Si1 0.668127 0.207652 0.618887
Si Si2 0.327538 0.049575 0.093171
Si Si3 0.675346 0.619012 0.197416
Si Si4 0.179010 0.451375 0.500000
Si Si5 0.170310 0.706817 0.190908
Si Si6 0.320570 0.114153 0.366491
O O1 0.500000 0.210561 0.593495
O O2 0.750000 0.250000 0.592309
O O3 0.670940 0.207863 0.713971
O O4 0.724230 0.160415 0.598550
O O5 0.500000 0.058116 0.111802
O O6 0.225512 0.081676 0.139842
O O7 0.298030 0.000000 0.112407
O O8 0.310125 0.054381 0.000000
O O9 0.500000 0.622227 0.203846
O O10 0.742962 0.664079 0.169048
O O11 0.747043 0.610011 0.282136
O O12 0.232455 0.500000 0.500000
O O13 0.220687 0.424070 0.423968
O O14 0.000000 0.452596 0.500000
O O15 0.250000 0.750000 0.164155
O O16 0.000000 0.705118 0.166257
O O17 0.500000 0.115238 0.358052
#
# Coordination Sequence:
#
# PCOD9493408 Si02
#       6
#    16  16  16   8  16  16
#     4   8  14  24  41  65  94 125 156 197 246 295
#     4   9  19  37  59  80 103 134 172 215 265 317
#     4  11  21  32  51  80 111 142 175 211 255 311
#     4   9  18  34  56  75  91 123 173 223 269 313
#     4   9  16  28  47  73 105 139 176 216 256 300
#     4   9  18  33  51  73 100 130 171 220 262 303
#
# _framework density 18.044922
#
# number of rings (size 3 to 8) (size 9 to 14) (size 15 to 20)
#    0.000    2.818    0.000    3.818    0.000    5.818 
#    0.000    3.636    0.000    1.091    0.000    0.000 
#    0.000    0.000    0.000    0.000    0.000    0.000 
#
# Total GULP energy -245339.255585 kJ/mol
# GULP energy per Si atom -5575.892172 kJ/mol
# Density = 1.800385 g / cm^3
# Si number density = 18.044922 Si / 1000 Ang^3
#
#
#
# Elastic Constant Matrix: (Units=GPa)
#
#
# Indices 1 2 3 4 5 6 
#
# 1 89.0564 69.5778 33.4787 0.0000 0.0000 0.0000
# 2 69.5778 161.0959 42.3789 0.0000 0.0000 0.0000
# 3 33.4787 42.3789 29.8933 0.0000 0.0000 0.0000
# 4 0.0000 0.0000 0.0000 154.8665 0.0000 0.0000
# 5 0.0000 0.0000 0.0000 0.0000 4.8480 0.0000
# 6 0.0000 0.0000 0.0000 0.0000 0.0000 30.7511
#
#
#
# Elastic Compliance Matrix: (Units=1/GPa)
#
#
# Indices 1 2 3 4 5 6 
#
# 1 0.021404 -0.004686 -0.017328 0.000000 0.000000 0.000000
# 2 -0.004686 0.010925 -0.010240 0.000000 0.000000 0.000000
# 3 -0.017328 -0.010240 0.067376 0.000000 0.000000 0.000000
# 4 0.000000 0.000000 0.000000 0.006457 0.000000 0.000000
# 5 0.000000 0.000000 0.000000 0.000000 0.206270 0.000000
# 6 0.000000 0.000000 0.000000 0.000000 0.000000 0.032519
#
#
# Mechanical properties :
#
#
# Convention : Reuss Voigt Hill
#
# Bulk Modulus (GPa) = 28.41182 63.43517 45.92350
# Shear Modulus (GPa) = 11.87107 47.06713 29.46910
#
# Velocity S-wave (km/s) = 2.56766 5.11272 4.04554
# Velocity P-wave (km/s) = 4.95679 8.37159 6.87944
#
# Compressibility (1/GPa) = 0.03519662
#
# Stress axis : x y z
#
# Youngs Moduli (GPa) = 46.72035 91.53056 14.84208
#
# Poissons Ratio (x) = 0.42892 0.25718
# Poissons Ratio (y) = 0.21893 0.15199
# Poissons Ratio (z) = 0.80956 0.93731
#
# Static dielectric constant tensor:
#      x y z
#    x 1.607220 0.000000 0.000000 
#    y 0.000000 1.627220 0.000000 
#    z 0.000000 0.000000 1.615970 
# 
# From -- ./inp_files/50329.got.cif
#   From: 2010.05.17/outbox.cif.g08.bks.cpg/sg65_26_cif.got.tgz:50329.got - 2010.06.03 17:01:31.
