data_PCOD9493486
_publ_section_title
;
Structure prediction by ZEFSAII (Michael W. Deem and Ramdas Pophale) SiO2 
 PCOD9493486
Probable space group: C M M M
;
_chemical_formula_sum "Si O2"
_cell_formula_units_Z 104
_cell_length_a 23.407025
_cell_length_b 28.743332
_cell_length_c 8.278494
_cell_angle_alpha 90.000000
_cell_angle_beta 90.000000
_cell_angle_gamma 90.000000
_cell_volume 5569.736744
_symmetry_space_group_name_H-M "C M M M"
_symmetry_group_IT_number 65
_symmetry_cell_setting 'orthorhombic'
loop_
_space_group_symop_operation_xyz
x,y,z
-x,-y,z
x,-y,-z
-x,y,-z
-x,-y,-z
x,y,-z
-x,y,z
x,-y,z
1/2+x,1/2+y,z
1/2-x,1/2-y,z
1/2+x,1/2-y,-z
1/2-x,1/2+y,-z
1/2-x,1/2-y,-z
1/2+x,1/2+y,-z
1/2-x,1/2+y,z
1/2+x,1/2-y,z
loop_
_atom_site_type_symbol
_atom_site_label
_atom_site_fract_x
_atom_site_fract_y
_atom_site_fract_z
Si Si1 0.933392 0.947391 0.696641
Si Si2 0.563987 0.738943 0.192031
Si Si3 0.564762 0.902808 0.305999
Si Si4 0.355550 0.819148 0.307763
Si Si5 0.933833 0.500000 0.192154
Si Si6 0.378487 0.351540 0.307089
Si Si7 0.235611 0.801914 0.810878
O O1 0.931881 0.947969 0.500000
O O2 0.894065 0.903939 0.748785
O O3 0.000000 0.939373 0.742074
O O4 0.917366 0.000000 0.750092
O O5 0.500000 0.751444 0.249382
O O6 0.612947 0.770590 0.270687
O O7 0.577679 0.685565 0.231773
O O8 0.566525 0.745862 0.000000
O O9 0.562027 0.901909 0.500000
O O10 0.500000 0.899848 0.241504
O O11 0.600956 0.858990 0.253462
O O12 0.591296 0.951867 0.254111
O O13 0.345546 0.822434 0.500000
O O14 0.296367 0.825894 0.215916
O O15 0.000000 0.500000 0.253029
O O16 0.934476 0.500000 0.000000
O O17 0.385080 0.350402 0.500000
O O18 0.315843 0.331158 0.265453
O O19 0.250000 0.750000 0.743280
O O20 0.221417 0.796274 0.000000
#
# Coordination Sequence:
#
# PCOD9493486 Si02
#       7
#    16  16  16  16   8  16  16
#     4   8  15  30  54  86 120 147 175 221 281 336
#     4  11  23  36  51  77 115 151 178 213 270 332
#     4   9  18  33  53  78 108 138 169 215 273 321
#     4  11  22  36  57  81 105 137 184 232 271 318
#     4   9  17  29  49  77 105 137 175 209 248 311
#     4  11  21  34  58  85 109 142 189 234 271 320
#     4  11  23  39  57  76 106 147 185 221 273 330
#
# _framework density 18.672338
#
# number of rings (size 3 to 8) (size 9 to 14) (size 15 to 20)
#    0.000    1.923    1.538    3.462    0.000    5.231 
#    0.000    1.538    1.692    1.846    0.000    5.385 
#    0.000    0.000    0.000    0.000    0.000    0.000 
#
# Total GULP energy -290069.116712 kJ/mol
# GULP energy per Si atom -5578.252244 kJ/mol
# Density = 1.862984 g / cm^3
# Si number density = 18.672338 Si / 1000 Ang^3
#
#
#
# Elastic Constant Matrix: (Units=GPa)
#
#
# Indices 1 2 3 4 5 6 
#
# 1 80.8036 34.5782 -2.2553 0.0000 0.0000 0.0000
# 2 34.5782 131.2015 -1.8803 0.0000 0.0000 0.0000
# 3 -2.2553 -1.8803 6.3958 0.0000 0.0000 0.0000
# 4 0.0000 0.0000 0.0000 -57.7420 0.0000 0.0000
# 5 0.0000 0.0000 0.0000 0.0000 17.7843 0.0000
# 6 0.0000 0.0000 0.0000 0.0000 0.0000 11.4752
#
#
#
# Elastic Compliance Matrix: (Units=1/GPa)
#
#
# Indices 1 2 3 4 5 6 
#
# 1 0.014044 -0.003646 0.003880 0.000000 0.000000 0.000000
# 2 -0.003646 0.008601 0.001243 0.000000 0.000000 0.000000
# 3 0.003880 0.001243 0.158086 0.000000 0.000000 0.000000
# 4 0.000000 0.000000 0.000000 -0.017318 0.000000 0.000000
# 5 0.000000 0.000000 0.000000 0.000000 0.056229 0.000000
# 6 0.000000 0.000000 0.000000 0.000000 0.000000 0.087144
#
#
# Mechanical properties :
#
#
# Convention : Reuss Voigt Hill
#
# Bulk Modulus (GPa) = 5.44407 31.03178 18.23793
# Shear Modulus (GPa) = 13.69640 6.83406 10.26523
#
# Velocity S-wave (km/s) = 2.71128 1.91519 2.34723
# Velocity P-wave (km/s) = 3.56697 4.64174 4.13939
#
# Compressibility (1/GPa) = 0.18368611
#
# Stress axis : x y z
#
# Youngs Moduli (GPa) = 71.20424 116.27220 6.32566
#
# Poissons Ratio (x) = 0.42390 -0.02455
# Poissons Ratio (y) = 0.25959 -0.00786
# Poissons Ratio (z) = -0.27631 -0.14451
#
# Static dielectric constant tensor:
#      x y z
#    x 1.653240 0.000000 0.000000 
#    y 0.000000 1.679270 0.000000 
#    z 0.000000 0.000000 1.646100 
# 
# From -- ./inp_files/14745.got.cif
#   From: 2010.05.17/outbox.cif.g08.bks.cpg/sg65_8_cif.got.tgz:14745.got - 2010.06.03 17:01:31.
