data_PCOD9493281
_publ_section_title
;
Structure prediction by ZEFSAII (Michael W. Deem and Ramdas Pophale) SiO2 
 PCOD9493281
Probable space group: C M M M
;
_chemical_formula_sum "Si O2"
_cell_formula_units_Z 72
_cell_length_a 19.680369
_cell_length_b 28.526960
_cell_length_c 8.607047
_cell_angle_alpha 90.000000
_cell_angle_beta 90.000000
_cell_angle_gamma 90.000000
_cell_volume 4832.177788
_symmetry_space_group_name_H-M "C M M M"
_symmetry_group_IT_number 65
_symmetry_cell_setting 'orthorhombic'
loop_
_space_group_symop_operation_xyz
x,y,z
-x,-y,z
x,-y,-z
-x,y,-z
-x,-y,-z
x,y,-z
-x,y,z
x,-y,z
1/2+x,1/2+y,z
1/2-x,1/2-y,z
1/2+x,1/2-y,-z
1/2-x,1/2+y,-z
1/2-x,1/2-y,-z
1/2+x,1/2+y,-z
1/2-x,1/2+y,z
1/2+x,1/2-y,z
loop_
_atom_site_type_symbol
_atom_site_label
_atom_site_fract_x
_atom_site_fract_y
_atom_site_fract_z
Si Si1 0.718853 0.323394 0.687414
Si Si2 0.000000 0.264085 0.185810
Si Si3 0.855821 0.728254 0.312891
Si Si4 0.500000 0.656671 0.188662
Si Si5 0.369057 0.402570 0.186184
Si Si6 0.579699 0.500000 0.313917
O O1 0.715645 0.325684 0.500000
O O2 0.794602 0.306687 0.730830
O O3 0.668930 0.280495 0.737503
O O4 0.695069 0.372482 0.757124
O O5 0.071002 0.284508 0.245786
O O6 0.000000 0.209956 0.243186
O O7 0.000000 0.264623 0.000000
O O8 0.859502 0.729025 0.500000
O O9 0.566265 0.628505 0.238695
O O10 0.500000 0.657678 0.000000
O O11 0.381912 0.453867 0.253884
O O12 0.368895 0.405318 0.000000
O O13 0.500000 0.500000 0.260112
O O14 0.578839 0.500000 0.500000
#
# Coordination Sequence:
#
# PCOD9493281 Si02
#       6
#    16   8  16   8  16   8
#     4   9  18  32  47  65  90 121 158 194 229 276
#     4  11  19  29  44  68  95 121 158 196 232 277
#     4   9  18  31  46  65  91 123 156 191 232 275
#     4   9  18  28  40  63  92 122 152 188 233 274
#     4  11  20  33  49  65  91 123 157 196 239 279
#     4  11  23  35  47  67  91 120 161 200 233 271
#
# _framework density 14.900112999999999
#
# number of rings (size 3 to 8) (size 9 to 14) (size 15 to 20)
#    0.000    2.111    3.333    2.667    0.000    1.333 
#    0.000    2.222    0.000    0.000    0.000    0.000 
#    0.000    0.889    0.000    9.333    0.000    4.444 
#
# Total GULP energy -200746.245815 kJ/mol
# GULP energy per Si atom -5576.284606 kJ/mol
# Density = 1.486620 g / cm^3
# Si number density = 14.900113 Si / 1000 Ang^3
#
#
#
# Elastic Constant Matrix: (Units=GPa)
#
#
# Indices 1 2 3 4 5 6 
#
# 1 119.6483 52.4339 31.3068 0.0000 0.0000 0.0000
# 2 52.4339 96.6714 27.6587 0.0000 0.0000 0.0000
# 3 31.3068 27.6587 32.1204 0.0000 0.0000 0.0000
# 4 0.0000 0.0000 0.0000 18.7134 0.0000 0.0000
# 5 0.0000 0.0000 0.0000 0.0000 19.3211 0.0000
# 6 0.0000 0.0000 0.0000 0.0000 0.0000 22.1524
#
#
#
# Elastic Compliance Matrix: (Units=1/GPa)
#
#
# Indices 1 2 3 4 5 6 
#
# 1 0.012465 -0.004359 -0.008396 0.000000 0.000000 0.000000
# 2 -0.004359 0.015250 -0.008884 0.000000 0.000000 0.000000
# 3 -0.008396 -0.008884 0.046965 0.000000 0.000000 0.000000
# 4 0.000000 0.000000 0.000000 0.053438 0.000000 0.000000
# 5 0.000000 0.000000 0.000000 0.000000 0.051757 0.000000
# 6 0.000000 0.000000 0.000000 0.000000 0.000000 0.045142
#
#
# Mechanical properties :
#
#
# Convention : Reuss Voigt Hill
#
# Bulk Modulus (GPa) = 31.84268 52.35989 42.10128
# Shear Modulus (GPa) = 17.93653 21.17343 19.55498
#
# Velocity S-wave (km/s) = 3.47332 3.77374 3.62664
# Velocity P-wave (km/s) = 6.12393 7.36241 6.77154
#
# Compressibility (1/GPa) = 0.03140439
#
# Stress axis : x y z
#
# Youngs Moduli (GPa) = 80.22612 65.57333 21.29225
#
# Poissons Ratio (x) = 0.28581 0.17876
# Poissons Ratio (y) = 0.34968 0.18915
# Poissons Ratio (z) = 0.67356 0.58252
#
# Static dielectric constant tensor:
#      x y z
#    x 1.506060 0.000000 0.000000 
#    y 0.000000 1.478740 0.000000 
#    z 0.000000 0.000000 1.500750 
# 
# From -- ./inp_files/9538.got.cif
#   From: 2010.05.17/outbox.cif.g08.bks.cpg/sg65_5_cif.got.tgz:9538.got - 2010.06.03 17:01:31.
