data_PCOD9493720
_publ_section_title
;
Structure prediction by ZEFSAII (Michael W. Deem and Ramdas Pophale) SiO2 
 PCOD9493720
Probable space group: C M M M
;
_chemical_formula_sum "Si O2"
_cell_formula_units_Z 80
_cell_length_a 19.475991
_cell_length_b 8.676240
_cell_length_c 26.874855
_cell_angle_alpha 90.000000
_cell_angle_beta 90.000000
_cell_angle_gamma 90.000000
_cell_volume 4541.269250
_symmetry_space_group_name_H-M "C M M M"
_symmetry_group_IT_number 65
_symmetry_cell_setting 'orthorhombic'
loop_
_space_group_symop_operation_xyz
x,y,z
-x,-y,z
x,-y,-z
-x,y,-z
-x,-y,-z
x,y,-z
-x,y,z
x,-y,z
1/2+x,1/2+y,z
1/2-x,1/2-y,z
1/2+x,1/2-y,-z
1/2-x,1/2+y,-z
1/2-x,1/2-y,-z
1/2+x,1/2+y,-z
1/2-x,1/2+y,z
1/2+x,1/2-y,z
loop_
_atom_site_type_symbol
_atom_site_label
_atom_site_fract_x
_atom_site_fract_y
_atom_site_fract_z
Si Si1 0.918953 0.315160 0.556687
Si Si2 0.917292 0.815419 0.946582
Si Si3 0.326137 0.316886 0.643282
Si Si4 0.918711 0.813578 0.837421
Si Si5 0.826619 0.683722 0.749385
O O1 0.899649 0.272125 0.500000
O O2 0.909877 0.500000 0.561379
O O3 0.874745 0.231456 0.598167
O O4 0.000000 0.283073 0.562760
O O5 0.893906 0.759071 0.892435
O O6 0.000000 0.795823 0.946468
O O7 0.905363 0.000000 0.946968
O O8 0.891557 0.753136 0.000000
O O9 0.322029 0.500000 0.647919
O O10 0.250000 0.250000 0.634595
O O11 0.350870 0.246826 0.695801
O O12 0.875619 0.739911 0.793383
O O13 0.000000 0.778728 0.832762
O O14 0.912217 0.000000 0.835618
O O15 0.823437 0.500000 0.747723
O O16 0.750000 0.750000 0.757068
#
# Coordination Sequence:
#
# PCOD9493720 Si02
#       5
#    16  16  16  16  16
#     4   9  19  37  59  82 110 142 173 207 250 298
#     4   7  10  19  39  68  99 129 161 199 244 293
#     4  11  22  37  57  79 104 134 172 215 256 302
#     4   9  17  30  50  77 106 133 166 208 251 300
#     4  11  22  37  55  73  99 134 172 213 258 308
#
# _framework density 17.616219999999998
#
# number of rings (size 3 to 8) (size 9 to 14) (size 15 to 20)
#    0.000    2.600    0.000    7.200    0.000    2.400 
#    0.000    1.000    0.000    1.200    0.000    2.800 
#    0.000    0.000    0.000    0.000    0.000    0.000 
#
# Total GULP energy -222954.916095 kJ/mol
# GULP energy per Si atom -5573.872902 kJ/mol
# Density = 1.757612 g / cm^3
# Si number density = 17.616220 Si / 1000 Ang^3
#
#
#
# Elastic Constant Matrix: (Units=GPa)
#
#
# Indices 1 2 3 4 5 6 
#
# 1 41.5610 41.1781 78.4940 0.0000 0.0000 0.0000
# 2 41.1781 82.4235 76.7557 0.0000 0.0000 0.0000
# 3 78.4940 76.7557 205.3376 0.0000 0.0000 0.0000
# 4 0.0000 0.0000 0.0000 16.3249 0.0000 0.0000
# 5 0.0000 0.0000 0.0000 0.0000 158.0659 0.0000
# 6 0.0000 0.0000 0.0000 0.0000 0.0000 17.6857
#
#
#
# Elastic Compliance Matrix: (Units=1/GPa)
#
#
# Indices 1 2 3 4 5 6 
#
# 1 0.111761 -0.024620 -0.033520 0.000000 0.000000 0.000000
# 2 -0.024620 0.024035 0.000427 0.000000 0.000000 0.000000
# 3 -0.033520 0.000427 0.017524 0.000000 0.000000 0.000000
# 4 0.000000 0.000000 0.000000 0.061256 0.000000 0.000000
# 5 0.000000 0.000000 0.000000 0.000000 0.006326 0.000000
# 6 0.000000 0.000000 0.000000 0.000000 0.000000 0.056543
#
#
# Mechanical properties :
#
#
# Convention : Reuss Voigt Hill
#
# Bulk Modulus (GPa) = 26.38913 80.24200 53.31556
# Shear Modulus (GPa) = 12.33042 47.27491 29.80266
#
# Velocity S-wave (km/s) = 2.64852 5.18597 4.11758
# Velocity P-wave (km/s) = 4.93613 9.02818 7.27576
#
# Compressibility (1/GPa) = 0.03789439
#
# Stress axis : x y z
#
# Youngs Moduli (GPa) = 8.94767 41.60676 57.06548
#
# Poissons Ratio (x) = 1.02437 1.91281
# Poissons Ratio (y) = 0.22029 -0.02439
# Poissons Ratio (z) = 0.29992 -0.01778
#
# Static dielectric constant tensor:
#      x y z
#    x 1.570020 0.000000 0.000000 
#    y 0.000000 1.587770 0.000000 
#    z 0.000000 0.000000 1.630390 
# 
# From -- ./inp_files/75035.got.cif
#   From: 2010.05.17/outbox.cif.g08.bks.cpg/sg65_38_cif.got.tgz:75035.got - 2010.06.03 17:01:31.
