data_PCOD9493540
_publ_section_title
;
Structure prediction by ZEFSAII (Michael W. Deem and Ramdas Pophale) SiO2 
 PCOD9493540
Probable space group: C M M M
;
_chemical_formula_sum "Si O2"
_cell_formula_units_Z 104
_cell_length_a 14.972798
_cell_length_b 19.605297
_cell_length_c 20.228556
_cell_angle_alpha 90.000000
_cell_angle_beta 90.000000
_cell_angle_gamma 90.000000
_cell_volume 5938.014768
_symmetry_space_group_name_H-M "C M M M"
_symmetry_group_IT_number 65
_symmetry_cell_setting 'orthorhombic'
loop_
_space_group_symop_operation_xyz
x,y,z
-x,-y,z
x,-y,-z
-x,y,-z
-x,-y,-z
x,y,-z
-x,y,z
x,-y,z
1/2+x,1/2+y,z
1/2-x,1/2-y,z
1/2+x,1/2-y,-z
1/2-x,1/2+y,-z
1/2-x,1/2-y,-z
1/2+x,1/2+y,-z
1/2-x,1/2+y,z
1/2+x,1/2-y,z
loop_
_atom_site_type_symbol
_atom_site_label
_atom_site_fract_x
_atom_site_fract_y
_atom_site_fract_z
Si Si1 0.095759 0.358384 0.640314
Si Si2 0.607692 0.922734 0.000000
Si Si3 0.855101 0.000000 0.422623
Si Si4 0.233083 0.669756 0.245881
Si Si5 0.859377 0.500000 0.575769
Si Si6 0.107126 0.416926 0.851955
Si Si7 0.855662 0.763927 0.429531
Si Si8 0.600792 0.375650 0.324087
O O1 0.174006 0.333606 0.687676
O O2 0.110020 0.434195 0.615594
O O3 0.099868 0.309299 0.577507
O O4 0.000000 0.351859 0.674214
O O5 0.629693 0.894746 0.927652
O O6 0.500000 0.926413 0.000000
O O7 0.642824 0.000000 0.000000
O O8 0.747889 0.000000 0.425963
O O9 0.882562 0.064411 0.377526
O O10 0.886639 0.000000 0.500000
O O11 0.250000 0.750000 0.228777
O O12 0.173045 0.626035 0.194796
O O13 0.325390 0.632006 0.266554
O O14 0.891238 0.500000 0.500000
O O15 0.119155 0.500000 0.845618
O O16 0.000000 0.405025 0.840519
O O17 0.876481 0.797403 0.500000
O O18 0.750000 0.750000 0.427381
O O19 0.888149 0.808242 0.368628
O O20 0.500000 0.381393 0.298439
#
# Coordination Sequence:
#
# PCOD9493540 Si02
#       8
#    16   8   8  16   8  16  16  16
#     4  12  23  37  56  78 106 140 180 226 289 359
#     4   7  12  30  59  98 133 153 179 221 268 325
#     4  11  23  41  59  74  97 131 182 252 311 350
#     4  12  24  40  53  82 119 155 190 230 274 338
#     4  11  23  39  57  78 107 137 171 237 315 373
#     4   9  19  36  66  99 127 155 186 225 276 332
#     4  11  21  38  58  75  98 133 181 234 290 349
#     4  12  24  39  56  74 100 140 189 241 289 334
#
# _framework density 17.514271000000001
#
# number of rings (size 3 to 8) (size 9 to 14) (size 15 to 20)
#    0.000    1.154    4.615    3.231    2.154    6.769 
#    0.000    0.385    0.000    0.000    0.000    0.538 
#    0.000    1.846    0.000    0.000    0.000    0.000 
#
# Total GULP energy -289923.631433 kJ/mol
# GULP energy per Si atom -5575.454451 kJ/mol
# Density = 1.747441 g / cm^3
# Si number density = 17.514271 Si / 1000 Ang^3
#
#
#
# Elastic Constant Matrix: (Units=GPa)
#
#
# Indices 1 2 3 4 5 6 
#
# 1 128.9113 30.6495 44.0882 0.0000 0.0000 0.0000
# 2 30.6495 105.0266 33.7298 0.0000 0.0000 0.0000
# 3 44.0882 33.7298 105.9823 0.0000 0.0000 0.0000
# 4 0.0000 0.0000 0.0000 21.7023 0.0000 0.0000
# 5 0.0000 0.0000 0.0000 0.0000 -61.7810 0.0000
# 6 0.0000 0.0000 0.0000 0.0000 0.0000 73.6912
#
#
#
# Elastic Compliance Matrix: (Units=1/GPa)
#
#
# Indices 1 2 3 4 5 6 
#
# 1 0.009290 -0.001637 -0.003344 0.000000 0.000000 0.000000
# 2 -0.001637 0.010894 -0.002786 0.000000 0.000000 0.000000
# 3 -0.003344 -0.002786 0.011713 0.000000 0.000000 0.000000
# 4 0.000000 0.000000 0.000000 0.046078 0.000000 0.000000
# 5 0.000000 0.000000 0.000000 0.000000 -0.016186 0.000000
# 6 0.000000 0.000000 0.000000 0.000000 0.000000 0.013570
#
#
# Mechanical properties :
#
#
# Convention : Reuss Voigt Hill
#
# Bulk Modulus (GPa) = 61.11177 61.87280 61.49229
# Shear Modulus (GPa) = 51.89566 22.15267 37.02416
#
# Velocity S-wave (km/s) = 5.44930 3.56031 4.60275
# Velocity P-wave (km/s) = 8.63489 7.23221 7.96449
#
# Compressibility (1/GPa) = 0.01636346
#
# Stress axis : x y z
#
# Youngs Moduli (GPa) = 107.64204 91.79413 85.37445
#
# Poissons Ratio (x) = 0.15029 0.28545
# Poissons Ratio (y) = 0.17624 0.23785
# Poissons Ratio (z) = 0.35991 0.25574
#
# Static dielectric constant tensor:
#      x y z
#    x 1.634370 0.000000 0.000000 
#    y 0.000000 1.634560 0.000000 
#    z 0.000000 0.000000 1.614290 
# 
# From -- ./inp_files/62918.got.cif
#   From: 2010.05.17/outbox.cif.g08.bks.cpg/sg65_32_cif.got.tgz:62918.got - 2010.06.03 17:01:31.
