data_PCOD9493297
_publ_section_title
;
Structure prediction by ZEFSAII (Michael W. Deem and Ramdas Pophale) SiO2 
 PCOD9493297
Probable space group: C M M M
;
_chemical_formula_sum "Si O2"
_cell_formula_units_Z 72
_cell_length_a 16.961814
_cell_length_b 17.510507
_cell_length_c 14.415025
_cell_angle_alpha 90.000000
_cell_angle_beta 90.000000
_cell_angle_gamma 90.000000
_cell_volume 4281.406039
_symmetry_space_group_name_H-M "C M M M"
_symmetry_group_IT_number 65
_symmetry_cell_setting 'orthorhombic'
loop_
_space_group_symop_operation_xyz
x,y,z
-x,-y,z
x,-y,-z
-x,y,-z
-x,-y,-z
x,y,-z
-x,y,z
x,-y,z
1/2+x,1/2+y,z
1/2-x,1/2-y,z
1/2+x,1/2-y,-z
1/2-x,1/2+y,-z
1/2-x,1/2-y,-z
1/2+x,1/2+y,-z
1/2-x,1/2+y,z
1/2+x,1/2-y,z
loop_
_atom_site_type_symbol
_atom_site_label
_atom_site_fract_x
_atom_site_fract_y
_atom_site_fract_z
Si Si1 0.155742 0.328612 0.352433
Si Si2 0.904506 0.793747 0.500000
Si Si3 0.317440 0.809728 0.137286
Si Si4 0.730546 0.591921 0.500000
Si Si5 0.500000 0.910114 0.606146
Si Si6 0.268849 0.589582 0.000000
Si Si7 0.909814 0.785427 0.000000
O O1 0.127875 0.254594 0.411414
O O2 0.178955 0.313033 0.247483
O O3 0.222099 0.372517 0.412106
O O4 0.078708 0.381028 0.347878
O O5 0.857508 0.873629 0.500000
O O6 0.000000 0.799465 0.500000
O O7 0.250000 0.750000 0.111156
O O8 0.286090 0.886324 0.087890
O O9 0.392280 0.770589 0.087829
O O10 0.733812 0.500000 0.500000
O O11 0.500000 0.880203 0.500000
O O12 0.500000 0.000000 0.602265
O O13 0.287199 0.500000 0.000000
O O14 0.348301 0.642719 0.000000
O O15 0.000000 0.811375 0.000000
#
# Coordination Sequence:
#
# PCOD9493297 Si02
#       7
#    16   8  16   8   8   8   8
#     4  11  19  36  56  78 103 140 185 218 259 312
#     4  11  21  36  54  82 108 138 183 224 260 308
#     4   9  19  35  55  76 100 138 177 214 254 305
#     4  11  23  35  53  79 111 144 177 220 265 316
#     4  11  20  32  50  77 113 137 166 222 272 309
#     4   9  19  36  54  78 107 135 170 214 262 313
#     4   9  19  34  56  80 105 131 172 218 260 311
#
# _framework density 16.816904999999998
#
# number of rings (size 3 to 8) (size 9 to 14) (size 15 to 20)
#    0.000    1.889    3.333    4.667    1.556    2.222 
#    0.000    0.000    0.000    1.333    0.000    6.222 
#    0.000    0.000    0.000    0.000    0.000    0.000 
#
# Total GULP energy -200499.968875 kJ/mol
# GULP energy per Si atom -5569.443580 kJ/mol
# Density = 1.677863 g / cm^3
# Si number density = 16.816905 Si / 1000 Ang^3
#
#
#
# Elastic Constant Matrix: (Units=GPa)
#
#
# Indices 1 2 3 4 5 6 
#
# 1 106.2750 54.1230 30.8778 0.0000 0.0000 0.0000
# 2 54.1230 103.8822 36.3465 0.0000 0.0000 0.0000
# 3 30.8778 36.3465 127.6576 0.0000 0.0000 0.0000
# 4 0.0000 0.0000 0.0000 12.1829 0.0000 0.0000
# 5 0.0000 0.0000 0.0000 0.0000 16.9748 0.0000
# 6 0.0000 0.0000 0.0000 0.0000 0.0000 82.6184
#
#
#
# Elastic Compliance Matrix: (Units=1/GPa)
#
#
# Indices 1 2 3 4 5 6 
#
# 1 0.013015 -0.006308 -0.001352 0.000000 0.000000 0.000000
# 2 -0.006308 0.013748 -0.002389 0.000000 0.000000 0.000000
# 3 -0.001352 -0.002389 0.008841 0.000000 0.000000 0.000000
# 4 0.000000 0.000000 0.000000 0.082082 0.000000 0.000000
# 5 0.000000 0.000000 0.000000 0.000000 0.058911 0.000000
# 6 0.000000 0.000000 0.000000 0.000000 0.000000 0.012104
#
#
# Mechanical properties :
#
#
# Convention : Reuss Voigt Hill
#
# Bulk Modulus (GPa) = 64.48796 64.50105 64.49451
# Shear Modulus (GPa) = 23.36816 36.78639 30.07727
#
# Velocity S-wave (km/s) = 3.73173 4.68211 4.23367
# Velocity P-wave (km/s) = 7.54971 8.22604 7.89512
#
# Compressibility (1/GPa) = 0.01550677
#
# Stress axis : x y z
#
# Youngs Moduli (GPa) = 76.83619 72.73599 113.11438
#
# Poissons Ratio (x) = 0.45879 0.15294
# Poissons Ratio (y) = 0.48465 0.27020
# Poissons Ratio (z) = 0.10389 0.17375
#
# Static dielectric constant tensor:
#      x y z
#    x 1.579880 0.000000 0.000000 
#    y 0.000000 1.570750 0.000000 
#    z 0.000000 0.000000 1.643320 
# 
# From -- ./inp_files/39919.got.cif
#   From: 2010.05.17/outbox.cif.g08.bks.cpg/sg65_20_cif.got.tgz:39919.got - 2010.06.03 17:01:31.
