data_PCOD9493923
_publ_section_title
;
Structure prediction by ZEFSAII (Michael W. Deem and Ramdas Pophale) SiO2 
 PCOD9493923
Probable space group: C M M M
;
_chemical_formula_sum "Si O2"
_cell_formula_units_Z 82
_cell_length_a 23.422167
_cell_length_b 9.290210
_cell_length_c 20.718337
_cell_angle_alpha 90.000000
_cell_angle_beta 90.000000
_cell_angle_gamma 90.000000
_cell_volume 4508.244870
_symmetry_space_group_name_H-M "C M M M"
_symmetry_group_IT_number 65
_symmetry_cell_setting 'orthorhombic'
loop_
_space_group_symop_operation_xyz
x,y,z
-x,-y,z
x,-y,-z
-x,y,-z
-x,-y,-z
x,y,-z
-x,y,z
x,-y,z
1/2+x,1/2+y,z
1/2-x,1/2-y,z
1/2+x,1/2-y,-z
1/2-x,1/2+y,-z
1/2-x,1/2-y,-z
1/2+x,1/2+y,-z
1/2-x,1/2+y,z
1/2+x,1/2-y,z
loop_
_atom_site_type_symbol
_atom_site_label
_atom_site_fract_x
_atom_site_fract_y
_atom_site_fract_z
Si Si1 0.393247 0.671130 0.305984
Si Si2 0.689578 0.670974 0.187677
Si Si3 0.000000 0.000000 0.000000
Si Si4 0.500000 0.773850 0.092024
Si Si5 0.129233 0.337090 0.072324
Si Si6 0.500000 0.173535 0.758632
Si Si7 0.932397 0.670637 0.424008
O O1 0.405109 0.500000 0.307305
O O2 0.340592 0.694067 0.257179
O O3 0.444750 0.761470 0.275105
O O4 0.392210 0.734728 0.378178
O O5 0.695522 0.500000 0.178181
O O6 0.750000 0.750000 0.185857
O O7 0.651402 0.736662 0.129694
O O8 0.000000 0.123751 0.944116
O O9 0.560489 0.843324 0.074046
O O10 0.500000 0.770029 0.168763
O O11 0.151071 0.500000 0.081670
O O12 0.145825 0.286871 0.000000
O O13 0.500000 0.000000 0.757645
O O14 0.921514 0.692435 0.500000
O O15 0.925702 0.500000 0.410039
O O16 0.000000 0.705038 0.413049
#
# Coordination Sequence:
#
# PCOD9493923 Si02
#       7
#    16  16   2   8  16   8  16
#     4  11  23  37  58  90 123 155 195 245 297 350
#     4  11  26  44  63  84 112 151 200 252 304 353
#     4  12  28  36  58  88 132 164 192 248 308 354
#     4  12  24  37  59  88 123 161 194 233 301 359
#     4  11  23  40  62  88 119 152 196 243 294 361
#     4  12  23  35  58  89 120 158 197 240 291 358
#     4   9  18  33  55  87 127 166 199 230 276 345
#
# _framework density 18.188896
#
# number of rings (size 3 to 8) (size 9 to 14) (size 15 to 20)
#    0.000    1.171    3.902    2.927    2.732    4.293 
#    0.000    0.976    0.000    0.585    0.000    0.000 
#    0.000    0.000    0.000    0.000    0.000    0.000 
#
# Total GULP energy -228562.932251 kJ/mol
# GULP energy per Si atom -5574.705665 kJ/mol
# Density = 1.814750 g / cm^3
# Si number density = 18.188896 Si / 1000 Ang^3
#
#
#
# Elastic Constant Matrix: (Units=GPa)
#
#
# Indices 1 2 3 4 5 6 
#
# 1 83.4856 51.3430 39.2112 0.0000 0.0000 0.0000
# 2 51.3430 119.1792 70.7595 0.0000 0.0000 0.0000
# 3 39.2112 70.7595 140.2623 0.0000 0.0000 0.0000
# 4 0.0000 0.0000 0.0000 36.9921 0.0000 0.0000
# 5 0.0000 0.0000 0.0000 0.0000 -9.1489 0.0000
# 6 0.0000 0.0000 0.0000 0.0000 0.0000 57.2092
#
#
#
# Elastic Compliance Matrix: (Units=1/GPa)
#
#
# Indices 1 2 3 4 5 6 
#
# 1 0.016504 -0.006240 -0.001466 0.000000 0.000000 0.000000
# 2 -0.006240 0.014338 -0.005489 0.000000 0.000000 0.000000
# 3 -0.001466 -0.005489 0.010308 0.000000 0.000000 0.000000
# 4 0.000000 0.000000 0.000000 0.027033 0.000000 0.000000
# 5 0.000000 0.000000 0.000000 0.000000 -0.109302 0.000000
# 6 0.000000 0.000000 0.000000 0.000000 0.000000 0.017480
#
#
# Mechanical properties :
#
#
# Convention : Reuss Voigt Hill
#
# Bulk Modulus (GPa) = 67.74530 73.95049 70.84790
# Shear Modulus (GPa) = 651.96742 29.11803 340.54273
#
# Velocity S-wave (km/s) = 18.95312 4.00543 13.69789
# Velocity P-wave (km/s) = 22.72195 7.88267 17.00623
#
# Compressibility (1/GPa) = 0.01476117
#
# Stress axis : x y z
#
# Youngs Moduli (GPa) = 60.59146 69.74709 97.00943
#
# Poissons Ratio (x) = 0.43519 0.14222
# Poissons Ratio (y) = 0.37806 0.53245
# Poissons Ratio (z) = 0.08883 0.38282
#
# Static dielectric constant tensor:
#      x y z
#    x 1.616780 0.000000 0.000000 
#    y 0.000000 1.611750 0.000000 
#    z 0.000000 0.000000 1.641100 
# 
# From -- ./inp_files/65118.got.cif
#   From: 2010.05.17/outbox.cif.g08.bks.cpg/sg65_33_cif.got.tgz:65118.got - 2010.06.03 17:01:31.
