data_PCOD9493148
_publ_section_title
;
Structure prediction by ZEFSAII (Michael W. Deem and Ramdas Pophale) SiO2 
 PCOD9493148
Probable space group: C M M M
;
_chemical_formula_sum "Si O2"
_cell_formula_units_Z 44
_cell_length_a 25.263145
_cell_length_b 11.756977
_cell_length_c 7.790225
_cell_angle_alpha 90.000000
_cell_angle_beta 90.000000
_cell_angle_gamma 90.000000
_cell_volume 2313.838722
_symmetry_space_group_name_H-M "C M M M"
_symmetry_group_IT_number 65
_symmetry_cell_setting 'orthorhombic'
loop_
_space_group_symop_operation_xyz
x,y,z
-x,-y,z
x,-y,-z
-x,y,-z
-x,-y,-z
x,y,-z
-x,y,z
x,-y,z
1/2+x,1/2+y,z
1/2-x,1/2-y,z
1/2+x,1/2-y,-z
1/2-x,1/2+y,-z
1/2-x,1/2-y,-z
1/2+x,1/2+y,-z
1/2-x,1/2+y,z
1/2+x,1/2-y,z
loop_
_atom_site_type_symbol
_atom_site_label
_atom_site_fract_x
_atom_site_fract_y
_atom_site_fract_z
Si Si1 0.500000 0.367556 0.206908
Si Si2 0.726215 0.000000 0.000000
Si Si3 0.170745 0.129355 0.000000
Si Si4 0.642090 0.000000 0.301751
Si Si5 0.609830 0.748332 0.696343
O O1 0.500000 0.500000 0.258001
O O2 0.552561 0.306104 0.273295
O O3 0.500000 0.362178 0.000000
O O4 0.766549 0.106612 0.000000
O O5 0.689785 0.000000 0.832992
O O6 0.149780 0.193604 0.167013
O O7 0.147446 0.000000 0.000000
O O8 0.609450 0.884176 0.276177
O O9 0.660887 0.000000 0.500000
O O10 0.626484 0.726754 0.500000
#
# Coordination Sequence:
#
# PCOD9493148 Si02
#       5
#     8   4   8   8  16
#     4  11  23  40  65  95 130 162 205 250 308 378
#     4  10  24  42  66  88 128 164 210 266 320 354
#     4  10  23  40  61  92 122 161 208 264 307 365
#     4  10  24  43  63  93 127 164 213 256 306 376
#     4  11  23  41  65  93 129 167 205 255 310 370
#
# _framework density 19.016019
#
# number of rings (size 3 to 8) (size 9 to 14) (size 15 to 20)
#    0.545    0.909    1.818    2.727    0.000    8.727 
#    0.000    7.273    0.000    0.000    0.000    0.000 
#    0.000    0.000    0.000    0.000    0.000    0.000 
#
# Total GULP energy -122883.042658 kJ/mol
# GULP energy per Si atom -5585.592848 kJ/mol
# Density = 1.897274 g / cm^3
# Si number density = 19.016019 Si / 1000 Ang^3
#
#
#
# Elastic Constant Matrix: (Units=GPa)
#
#
# Indices 1 2 3 4 5 6 
#
# 1 115.9910 67.7161 58.5865 0.0000 0.0000 0.0000
# 2 67.7161 167.9386 89.7356 0.0000 0.0000 0.0000
# 3 58.5865 89.7356 127.3877 0.0000 0.0000 0.0000
# 4 0.0000 0.0000 0.0000 34.4841 0.0000 0.0000
# 5 0.0000 0.0000 0.0000 0.0000 -37.4838 0.0000
# 6 0.0000 0.0000 0.0000 0.0000 0.0000 -79.5674
#
#
#
# Elastic Compliance Matrix: (Units=1/GPa)
#
#
# Indices 1 2 3 4 5 6 
#
# 1 0.012141 -0.003066 -0.003424 0.000000 0.000000 0.000000
# 2 -0.003066 0.010323 -0.005862 0.000000 0.000000 0.000000
# 3 -0.003424 -0.005862 0.013554 0.000000 0.000000 0.000000
# 4 0.000000 0.000000 0.000000 0.028999 0.000000 0.000000
# 5 0.000000 0.000000 0.000000 0.000000 -0.026678 0.000000
# 6 0.000000 0.000000 0.000000 0.000000 0.000000 -0.012568
#
#
# Mechanical properties :
#
#
# Convention : Reuss Voigt Hill
#
# Bulk Modulus (GPa) = 88.38238 93.71041 91.04639
# Shear Modulus (GPa) = 92.17516 -3.49481 44.34017
#
# Velocity S-wave (km/s) = 6.96976 -1.35713 4.83404
# Velocity P-wave (km/s) = 10.55220 6.85062 8.89606
#
# Compressibility (1/GPa) = 0.01131447
#
# Stress axis : x y z
#
# Youngs Moduli (GPa) = 82.36832 96.87203 73.77937
#
# Poissons Ratio (x) = 0.29699 0.25261
# Poissons Ratio (y) = 0.25253 0.43248
# Poissons Ratio (z) = 0.28202 0.56784
#
# Static dielectric constant tensor:
#      x y z
#    x 1.620400 0.000000 0.000000 
#    y 0.000000 1.676110 0.000000 
#    z 0.000000 0.000000 1.652740 
# 
# From -- ./inp_files/13119.got.cif
#   From: 2010.05.17/outbox.cif.g08.bks.cpg/sg65_7_cif.got.tgz:13119.got - 2010.06.03 17:01:31.
