data_PCOD9493543
_publ_section_title
;
Structure prediction by ZEFSAII (Michael W. Deem and Ramdas Pophale) SiO2 
 PCOD9493543
Probable space group: C M M M
;
_chemical_formula_sum "Si O2"
_cell_formula_units_Z 58
_cell_length_a 14.034653
_cell_length_b 25.540046
_cell_length_c 7.668304
_cell_angle_alpha 90.000000
_cell_angle_beta 90.000000
_cell_angle_gamma 90.000000
_cell_volume 2748.670466
_symmetry_space_group_name_H-M "C M M M"
_symmetry_group_IT_number 65
_symmetry_cell_setting 'orthorhombic'
loop_
_space_group_symop_operation_xyz
x,y,z
-x,-y,z
x,-y,-z
-x,y,-z
-x,-y,-z
x,y,-z
-x,y,z
x,-y,z
1/2+x,1/2+y,z
1/2-x,1/2-y,z
1/2+x,1/2-y,-z
1/2-x,1/2+y,-z
1/2-x,1/2-y,-z
1/2+x,1/2+y,-z
1/2-x,1/2+y,z
1/2+x,1/2-y,z
loop_
_atom_site_type_symbol
_atom_site_label
_atom_site_fract_x
_atom_site_fract_y
_atom_site_fract_z
Si Si1 0.298170 0.302578 0.703925
Si Si2 0.000000 0.240009 0.789976
Si Si3 0.298975 0.092581 0.198939
Si Si4 0.000000 0.000000 0.000000
Si Si5 0.163440 0.000000 0.693009
Si Si6 0.500000 0.137355 0.786434
O O1 0.272669 0.308145 0.500000
O O2 0.250000 0.250000 0.774859
O O3 0.408803 0.291146 0.723744
O O4 0.259855 0.353412 0.798241
O O5 0.000000 0.301233 0.732159
O O6 0.000000 0.240224 0.000000
O O7 0.403617 0.107875 0.270016
O O8 0.233870 0.049807 0.290750
O O9 0.312463 0.074550 0.000000
O O10 0.915328 0.000000 0.154245
O O11 0.119660 0.000000 0.500000
O O12 0.500000 0.138225 0.000000
#
# Coordination Sequence:
#
# PCOD9493543 Si02
#       6
#    16   8  16   2   8   8
#     4  11  23  38  59  93 136 179 227 285 347 410
#     4  11  21  38  61  92 125 177 230 277 340 407
#     4  11  22  44  70 101 138 182 234 286 347 416
#     4  12  26  56  80 104 132 188 230 292 352 406
#     4  12  27  50  78 109 140 177 233 291 348 414
#     4   9  20  36  67 100 138 181 227 281 339 413
#
# _framework density 21.101111
#
# number of rings (size 3 to 8) (size 9 to 14) (size 15 to 20)
#    0.000    1.103    4.138    2.276    0.000    2.759 
#    2.483    8.276    0.000    0.000    0.000    0.000 
#    0.000    0.000    0.000    0.000    0.000    0.000 
#
# Total GULP energy -161823.410374 kJ/mol
# GULP energy per Si atom -5580.117599 kJ/mol
# Density = 2.105308 g / cm^3
# Si number density = 21.101111 Si / 1000 Ang^3
#
#
#
# Elastic Constant Matrix: (Units=GPa)
#
#
# Indices 1 2 3 4 5 6 
#
# 1 185.2157 60.2274 15.5260 0.0000 0.0000 0.0000
# 2 60.2274 113.2819 19.5830 0.0000 0.0000 0.0000
# 3 15.5260 19.5830 106.7242 0.0000 0.0000 0.0000
# 4 0.0000 0.0000 0.0000 13.8672 0.0000 0.0000
# 5 0.0000 0.0000 0.0000 0.0000 26.7412 0.0000
# 6 0.0000 0.0000 0.0000 0.0000 0.0000 7.4578
#
#
#
# Elastic Compliance Matrix: (Units=1/GPa)
#
#
# Indices 1 2 3 4 5 6 
#
# 1 0.006538 -0.003420 -0.000324 0.000000 0.000000 0.000000
# 2 -0.003420 0.010906 -0.001504 0.000000 0.000000 0.000000
# 3 -0.000324 -0.001504 0.009693 0.000000 0.000000 0.000000
# 4 0.000000 0.000000 0.000000 0.072113 0.000000 0.000000
# 5 0.000000 0.000000 0.000000 0.000000 0.037396 0.000000
# 6 0.000000 0.000000 0.000000 0.000000 0.000000 0.134088
#
#
# Mechanical properties :
#
#
# Convention : Reuss Voigt Hill
#
# Bulk Modulus (GPa) = 60.08774 66.21052 63.14913
# Shear Modulus (GPa) = 17.43524 30.27227 23.85376
#
# Velocity S-wave (km/s) = 2.87761 3.79176 3.36586
# Velocity P-wave (km/s) = 6.29117 7.11448 6.71545
#
# Compressibility (1/GPa) = 0.01664233
#
# Stress axis : x y z
#
# Youngs Moduli (GPa) = 152.94219 91.69373 103.16819
#
# Poissons Ratio (x) = 0.31362 0.03339
# Poissons Ratio (y) = 0.52310 0.15512
# Poissons Ratio (z) = 0.04949 0.13787
#
# Static dielectric constant tensor:
#      x y z
#    x 1.683610 0.000000 0.000000 
#    y 0.000000 1.685500 0.000000 
#    z 0.000000 0.000000 1.798340 
# 
# From -- ./inp_files/4542.got.cif
#   From: 2010.05.17/outbox.cif.g08.bks.cpg/sg65_3_cif.got.tgz:4542.got - 2010.06.03 17:01:31.
