data_PCOD9493217
_publ_section_title
;
Structure prediction by ZEFSAII (Michael W. Deem and Ramdas Pophale) SiO2 
 PCOD9493217
Probable space group: C M M M
;
_chemical_formula_sum "Si O2"
_cell_formula_units_Z 64
_cell_length_a 15.835507
_cell_length_b 7.917798
_cell_length_c 25.932958
_cell_angle_alpha 90.000000
_cell_angle_beta 90.000000
_cell_angle_gamma 90.000000
_cell_volume 3251.535104
_symmetry_space_group_name_H-M "C M M M"
_symmetry_group_IT_number 65
_symmetry_cell_setting 'orthorhombic'
loop_
_space_group_symop_operation_xyz
x,y,z
-x,-y,z
x,-y,-z
-x,y,-z
-x,-y,-z
x,y,-z
-x,y,z
x,-y,z
1/2+x,1/2+y,z
1/2-x,1/2-y,z
1/2+x,1/2-y,-z
1/2-x,1/2+y,-z
1/2-x,1/2-y,-z
1/2+x,1/2+y,-z
1/2-x,1/2+y,z
1/2+x,1/2-y,z
loop_
_atom_site_type_symbol
_atom_site_label
_atom_site_fract_x
_atom_site_fract_y
_atom_site_fract_z
Si Si1 0.500000 0.700292 0.298422
Si Si2 0.404343 0.299285 0.000000
Si Si3 0.842768 0.302971 0.633341
Si Si4 0.500000 0.793844 0.179322
Si Si5 0.398088 0.500000 0.439911
Si Si6 0.343170 0.199797 0.111812
O O1 0.500000 0.500000 0.308863
O O2 0.583432 0.777864 0.324734
O O3 0.500000 0.732648 0.237695
O O4 0.358479 0.249162 0.947505
O O5 0.409860 0.500000 0.000000
O O6 0.500000 0.227862 0.000000
O O7 0.841517 0.500000 0.617225
O O8 0.750000 0.250000 0.653330
O O9 0.864079 0.168309 0.588307
O O10 0.582128 0.732678 0.147898
O O11 0.500000 0.000000 0.180104
O O12 0.500000 0.500000 0.435802
O O13 0.374958 0.500000 0.500000
O O14 0.250000 0.250000 0.128741
O O15 0.349097 0.000000 0.114026
#
# Coordination Sequence:
#
# PCOD9493217 Si02
#       6
#     8   8  16   8   8  16
#     4  12  24  44  69  95 130 170 223 274 330 391
#     4  11  22  37  62  90 120 162 206 251 313 385
#     4  12  23  43  69  97 136 179 224 273 328 392
#     4  10  24  43  63  90 122 166 209 268 325 378
#     4  11  24  44  68 101 141 177 225 272 328 390
#     4  11  23  41  63  89 126 161 207 257 316 384
#
# _framework density 19.683011
#
# number of rings (size 3 to 8) (size 9 to 14) (size 15 to 20)
#    0.000    0.750    5.000    2.625    0.000    4.500 
#    0.000    3.750    0.000    0.000    0.000    0.000 
#    0.000    0.000    0.000    0.000    0.000    0.000 
#
# Total GULP energy -178893.517961 kJ/mol
# GULP energy per Si atom -5590.422436 kJ/mol
# Density = 1.963821 g / cm^3
# Si number density = 19.683011 Si / 1000 Ang^3
#
#
#
# Elastic Constant Matrix: (Units=GPa)
#
#
# Indices 1 2 3 4 5 6 
#
# 1 182.2433 39.7521 76.7767 0.0000 0.0000 0.0000
# 2 39.7521 124.9943 38.2060 0.0000 0.0000 0.0000
# 3 76.7767 38.2060 150.4059 0.0000 0.0000 0.0000
# 4 0.0000 0.0000 0.0000 31.1678 0.0000 0.0000
# 5 0.0000 0.0000 0.0000 0.0000 -1.0285 0.0000
# 6 0.0000 0.0000 0.0000 0.0000 0.0000 29.9455
#
#
#
# Elastic Compliance Matrix: (Units=1/GPa)
#
#
# Indices 1 2 3 4 5 6 
#
# 1 0.007169 -0.001259 -0.003340 0.000000 0.000000 0.000000
# 2 -0.001259 0.008895 -0.001617 0.000000 0.000000 0.000000
# 3 -0.003340 -0.001617 0.008764 0.000000 0.000000 0.000000
# 4 0.000000 0.000000 0.000000 0.032084 0.000000 0.000000
# 5 0.000000 0.000000 0.000000 0.000000 -0.972278 0.000000
# 6 0.000000 0.000000 0.000000 0.000000 0.000000 0.033394
#
#
# Mechanical properties :
#
#
# Convention : Reuss Voigt Hill
#
# Bulk Modulus (GPa) = 80.66491 85.23477 82.94984
# Shear Modulus (GPa) = -5.77762 32.21086 13.21662
#
# Velocity S-wave (km/s) = -1.71514 4.04973 2.59409
# Velocity P-wave (km/s) = 6.09497 8.07867 7.15589
#
# Compressibility (1/GPa) = 0.01239696
#
# Stress axis : x y z
#
# Youngs Moduli (GPa) = 139.49502 112.42291 114.10218
#
# Poissons Ratio (x) = 0.14155 0.38105
# Poissons Ratio (y) = 0.17564 0.18448
# Poissons Ratio (z) = 0.46585 0.18176
#
# Static dielectric constant tensor:
#      x y z
#    x 7.341210 0.000000 0.000000 
#    y 0.000000 1.687280 0.000000 
#    z 0.000000 0.000000 1.677850 
# 
# From -- ./inp_files/69613.got.cif
#   From: 2010.05.17/outbox.cif.g08.bks.cpg/sg65_35_cif.got.tgz:69613.got - 2010.06.03 17:01:31.
