data_PCOD9493519
_publ_section_title
;
Structure prediction by ZEFSAII (Michael W. Deem and Ramdas Pophale) SiO2 
 PCOD9493519
Probable space group: C M M M
;
_chemical_formula_sum "Si O2"
_cell_formula_units_Z 96
_cell_length_a 31.461515
_cell_length_b 11.917896
_cell_length_c 14.169677
_cell_angle_alpha 90.000000
_cell_angle_beta 90.000000
_cell_angle_gamma 90.000000
_cell_volume 5312.992143
_symmetry_space_group_name_H-M "C M M M"
_symmetry_group_IT_number 65
_symmetry_cell_setting 'orthorhombic'
loop_
_space_group_symop_operation_xyz
x,y,z
-x,-y,z
x,-y,-z
-x,y,-z
-x,-y,-z
x,y,-z
-x,y,z
x,-y,z
1/2+x,1/2+y,z
1/2-x,1/2-y,z
1/2+x,1/2-y,-z
1/2-x,1/2+y,-z
1/2-x,1/2-y,-z
1/2+x,1/2+y,-z
1/2-x,1/2+y,z
1/2+x,1/2-y,z
loop_
_atom_site_type_symbol
_atom_site_label
_atom_site_fract_x
_atom_site_fract_y
_atom_site_fract_z
Si Si1 0.625999 0.865861 0.888825
Si Si2 0.046453 0.237095 0.798259
Si Si3 0.200929 0.772543 0.201581
Si Si4 0.570797 0.630432 0.391843
Si Si5 0.173502 0.130939 0.607657
Si Si6 0.066901 0.000000 0.112577
Si Si7 0.833504 0.000000 0.112455
O O1 0.585371 0.808429 0.839448
O O2 0.668695 0.819390 0.840078
O O3 0.623696 0.000000 0.881546
O O4 0.626314 0.834457 0.000000
O O5 0.052349 0.211210 0.687370
O O6 0.000000 0.287618 0.816624
O O7 0.048424 0.114356 0.846363
O O8 0.250000 0.750000 0.181827
O O9 0.193326 0.790694 0.313046
O O10 0.187354 0.889243 0.153889
O O11 0.558846 0.656244 0.500000
O O12 0.558816 0.500000 0.373333
O O13 0.622163 0.636154 0.385167
O O14 0.185102 0.159471 0.500000
O O15 0.185150 0.000000 0.624361
O O16 0.116812 0.000000 0.138900
O O17 0.062712 0.000000 0.000000
O O18 0.830558 0.000000 0.000000
#
# Coordination Sequence:
#
# PCOD9493519 Si02
#       7
#    16  16  16  16  16   8   8
#     4  11  26  46  63  83 117 164 213 253 292 352
#     4  12  23  37  61  91 123 157 196 249 305 356
#     4  12  24  39  64  92 125 158 199 252 306 357
#     4   9  17  32  57  89 124 158 191 234 296 366
#     4   9  17  34  62  91 120 156 197 240 295 361
#     4  11  21  36  58  88 124 156 193 245 308 363
#     4  11  22  39  63  88 118 160 200 249 308 361
#
# _framework density 18.068913999999999
#
# number of rings (size 3 to 8) (size 9 to 14) (size 15 to 20)
#    0.000    1.333    5.000    2.250    1.167    4.000 
#    0.000    1.667    0.000    2.000    0.000    1.167 
#    0.000    0.000    0.000    0.000    0.000    0.000 
#
# Total GULP energy -268205.598131 kJ/mol
# GULP energy per Si atom -5587.616628 kJ/mol
# Density = 1.802779 g / cm^3
# Si number density = 18.068914 Si / 1000 Ang^3
#
#
#
# Elastic Constant Matrix: (Units=GPa)
#
#
# Indices 1 2 3 4 5 6 
#
# 1 130.7451 36.6266 60.4393 0.0000 0.0000 0.0000
# 2 36.6266 60.2279 42.6431 0.0000 0.0000 0.0000
# 3 60.4393 42.6431 108.9991 0.0000 0.0000 0.0000
# 4 0.0000 0.0000 0.0000 21.0544 0.0000 0.0000
# 5 0.0000 0.0000 0.0000 0.0000 -23.2933 0.0000
# 6 0.0000 0.0000 0.0000 0.0000 0.0000 12.2991
#
#
#
# Elastic Compliance Matrix: (Units=1/GPa)
#
#
# Indices 1 2 3 4 5 6 
#
# 1 0.010711 -0.003193 -0.004690 0.000000 0.000000 0.000000
# 2 -0.003193 0.023917 -0.007586 0.000000 0.000000 0.000000
# 3 -0.004690 -0.007586 0.014743 0.000000 0.000000 0.000000
# 4 0.000000 0.000000 0.000000 0.047496 0.000000 0.000000
# 5 0.000000 0.000000 0.000000 0.000000 -0.042931 0.000000
# 6 0.000000 0.000000 0.000000 0.000000 0.000000 0.081307
#
#
# Mechanical properties :
#
#
# Convention : Reuss Voigt Hill
#
# Bulk Modulus (GPa) = 54.25355 64.37667 59.31511
# Shear Modulus (GPa) = 29.01487 12.69623 20.85555
#
# Velocity S-wave (km/s) = 4.01158 2.65364 3.40107
# Velocity P-wave (km/s) = 7.17970 6.71527 6.95136
#
# Compressibility (1/GPa) = 0.01843197
#
# Stress axis : x y z
#
# Youngs Moduli (GPa) = 93.36201 41.81178 67.82942
#
# Poissons Ratio (x) = 0.13351 0.31812
# Poissons Ratio (y) = 0.29811 0.51457
# Poissons Ratio (z) = 0.43786 0.31719
#
# Static dielectric constant tensor:
#      x y z
#    x 1.626950 0.000000 0.000000 
#    y 0.000000 1.582480 0.000000 
#    z 0.000000 0.000000 1.641000 
# 
# From -- ./inp_files/47731.got.cif
#   From: 2010.05.17/outbox.cif.g08.bks.cpg/sg65_24_cif.got.tgz:47731.got - 2010.06.03 17:01:31.
