data_PCOD9493429
_publ_section_title
;
Structure prediction by ZEFSAII (Michael W. Deem and Ramdas Pophale) SiO2 
 PCOD9493429
Probable space group: C M M M
;
_chemical_formula_sum "Si O2"
_cell_formula_units_Z 88
_cell_length_a 23.723034
_cell_length_b 25.096425
_cell_length_c 8.361048
_cell_angle_alpha 90.000000
_cell_angle_beta 90.000000
_cell_angle_gamma 90.000000
_cell_volume 4977.861493
_symmetry_space_group_name_H-M "C M M M"
_symmetry_group_IT_number 65
_symmetry_cell_setting 'orthorhombic'
loop_
_space_group_symop_operation_xyz
x,y,z
-x,-y,z
x,-y,-z
-x,y,-z
-x,-y,-z
x,y,-z
-x,y,z
x,-y,z
1/2+x,1/2+y,z
1/2-x,1/2-y,z
1/2+x,1/2-y,-z
1/2-x,1/2+y,-z
1/2-x,1/2-y,-z
1/2+x,1/2+y,-z
1/2-x,1/2+y,z
1/2+x,1/2-y,z
loop_
_atom_site_type_symbol
_atom_site_label
_atom_site_fract_x
_atom_site_fract_y
_atom_site_fract_z
Si Si1 0.500000 0.938807 0.691406
Si Si2 0.656776 0.561032 0.693069
Si Si3 0.934593 0.266402 0.692823
Si Si4 0.935320 0.854243 0.695293
Si Si5 0.890344 0.624789 0.190907
Si Si6 0.219051 0.561582 0.193141
O O1 0.500000 0.939407 0.500000
O O2 0.444262 0.907855 0.746766
O O3 0.500000 0.000000 0.750280
O O4 0.654807 0.560532 0.500000
O O5 0.647633 0.500000 0.748659
O O6 0.608969 0.601701 0.750753
O O7 0.719460 0.577581 0.744755
O O8 0.932573 0.268284 0.500000
O O9 0.919870 0.206196 0.743353
O O10 0.897335 0.313939 0.759488
O O11 0.000000 0.275859 0.739762
O O12 0.935255 0.854791 0.500000
O O13 0.000000 0.864727 0.744696
O O14 0.832421 0.598073 0.249836
O O15 0.890830 0.621228 0.000000
O O16 0.209253 0.500000 0.242094
O O17 0.220325 0.562913 0.000000
#
# Coordination Sequence:
#
# PCOD9493429 Si02
#       6
#     8  16  16  16  16  16
#     4  11  23  35  49  73 103 131 162 205 254 301
#     4   9  17  30  51  78 102 126 163 207 247 292
#     4   9  17  31  50  70  97 133 168 202 246 299
#     4   8  15  29  50  76 104 132 161 198 247 300
#     4  11  21  33  51  73  97 129 170 213 252 290
#     4   9  19  35  51  67  94 133 168 199 247 303
#
# _framework density 17.678273000000001
#
# number of rings (size 3 to 8) (size 9 to 14) (size 15 to 20)
#    0.000    2.636    0.909    2.455    0.000    3.273 
#    0.000    5.455    0.000    7.091    0.000    2.545 
#    0.000    0.000    0.000    0.000    0.000    0.000 
#
# Total GULP energy -245367.268546 kJ/mol
# GULP energy per Si atom -5576.528831 kJ/mol
# Density = 1.763804 g / cm^3
# Si number density = 17.678273 Si / 1000 Ang^3
#
#
#
# Elastic Constant Matrix: (Units=GPa)
#
#
# Indices 1 2 3 4 5 6 
#
# 1 155.6215 120.2193 16.8261 0.0000 0.0000 0.0000
# 2 120.2193 140.6750 18.3055 0.0000 0.0000 0.0000
# 3 16.8261 18.3055 9.2554 0.0000 0.0000 0.0000
# 4 0.0000 0.0000 0.0000 11.1516 0.0000 0.0000
# 5 0.0000 0.0000 0.0000 0.0000 36.2226 0.0000
# 6 0.0000 0.0000 0.0000 0.0000 0.0000 22.4693
#
#
#
# Elastic Compliance Matrix: (Units=1/GPa)
#
#
# Indices 1 2 3 4 5 6 
#
# 1 0.018983 -0.015797 -0.003266 0.000000 0.000000 0.000000
# 2 -0.015797 0.022719 -0.016214 0.000000 0.000000 0.000000
# 3 -0.003266 -0.016214 0.146052 0.000000 0.000000 0.000000
# 4 0.000000 0.000000 0.000000 0.089673 0.000000 0.000000
# 5 0.000000 0.000000 0.000000 0.000000 0.027607 0.000000
# 6 0.000000 0.000000 0.000000 0.000000 0.000000 0.044505
#
#
# Mechanical properties :
#
#
# Convention : Reuss Voigt Hill
#
# Bulk Modulus (GPa) = 8.53255 68.47261 38.50258
# Shear Modulus (GPa) = 10.88948 23.98210 17.43579
#
# Velocity S-wave (km/s) = 2.48459 3.68718 3.14392
# Velocity P-wave (km/s) = 3.61496 7.54611 5.91658
#
# Compressibility (1/GPa) = 0.11719821
#
# Stress axis : x y z
#
# Youngs Moduli (GPa) = 52.68004 44.01655 6.84690
#
# Poissons Ratio (x) = 0.69534 0.02236
# Poissons Ratio (y) = 0.83220 0.11102
# Poissons Ratio (z) = 0.17203 0.71370
#
# Static dielectric constant tensor:
#      x y z
#    x 1.580320 0.000000 0.000000 
#    y 0.000000 1.608720 0.000000 
#    z 0.000000 0.000000 1.613930 
# 
# From -- ./inp_files/13944.got.cif
#   From: 2010.05.17/outbox.cif.g08.bks.cpg/sg65_7_cif.got.tgz:13944.got - 2010.06.03 17:01:31.
