data_PCOD9493813
_publ_section_title
;
Structure prediction by ZEFSAII (Michael W. Deem and Ramdas Pophale) SiO2 
 PCOD9493813
Probable space group: C M M M
;
_chemical_formula_sum "Si O2"
_cell_formula_units_Z 48
_cell_length_a 15.712723
_cell_length_b 8.656896
_cell_length_c 17.769725
_cell_angle_alpha 90.000000
_cell_angle_beta 90.000000
_cell_angle_gamma 90.000000
_cell_volume 2417.098569
_symmetry_space_group_name_H-M "C M M M"
_symmetry_group_IT_number 65
_symmetry_cell_setting 'orthorhombic'
loop_
_space_group_symop_operation_xyz
x,y,z
-x,-y,z
x,-y,-z
-x,y,-z
-x,-y,-z
x,y,-z
-x,y,z
x,-y,z
1/2+x,1/2+y,z
1/2-x,1/2-y,z
1/2+x,1/2-y,-z
1/2-x,1/2+y,-z
1/2-x,1/2-y,-z
1/2+x,1/2+y,-z
1/2-x,1/2+y,z
1/2+x,1/2-y,z
loop_
_atom_site_type_symbol
_atom_site_label
_atom_site_fract_x
_atom_site_fract_y
_atom_site_fract_z
Si Si1 0.153124 0.184795 0.686630
Si Si2 0.000000 0.683955 0.589408
Si Si3 0.344841 0.816026 0.156070
Si Si4 0.400234 0.328437 0.000000
O O1 0.250000 0.250000 0.676143
O O2 0.085214 0.243858 0.625791
O O3 0.117921 0.242785 0.767815
O O4 0.158234 0.000000 0.686635
O O5 0.000000 0.500000 0.604020
O O6 0.000000 0.709264 0.500000
O O7 0.250000 0.750000 0.156251
O O8 0.346915 0.000000 0.162070
O O9 0.380027 0.761767 0.076216
O O10 0.358306 0.500000 0.000000
O O11 0.500000 0.348730 0.000000
#
# Coordination Sequence:
#
# PCOD9493813 Si02
#       4
#    16   8  16   8
#     4  11  23  42  68  97 131 170 215 263 319 380
#     4  11  25  45  69  98 131 168 211 261 319 383
#     4  11  22  39  62  87 120 160 208 256 309 368
#     4  11  24  39  56  83 121 161 208 257 309 366
#
# _framework density 19.858521
#
# number of rings (size 3 to 8) (size 9 to 14) (size 15 to 20)
#    0.000    1.000    0.000    9.500    2.333    3.333 
#    0.000    0.000    0.000    0.000    0.000    0.000 
#    0.000    0.000    0.000    0.000    0.000    0.000 
#
# Total GULP energy -134086.955565 kJ/mol
# GULP energy per Si atom -5586.956482 kJ/mol
# Density = 1.981332 g / cm^3
# Si number density = 19.858521 Si / 1000 Ang^3
#
#
#
# Elastic Constant Matrix: (Units=GPa)
#
#
# Indices 1 2 3 4 5 6 
#
# 1 85.9387 58.8444 68.1924 0.0000 0.0000 0.0000
# 2 58.8444 228.0048 103.0181 0.0000 0.0000 0.0000
# 3 68.1924 103.0181 159.1734 0.0000 0.0000 0.0000
# 4 0.0000 0.0000 0.0000 33.5835 0.0000 0.0000
# 5 0.0000 0.0000 0.0000 0.0000 39.2451 0.0000
# 6 0.0000 0.0000 0.0000 0.0000 0.0000 26.1967
#
#
#
# Elastic Compliance Matrix: (Units=1/GPa)
#
#
# Indices 1 2 3 4 5 6 
#
# 1 0.018056 -0.001646 -0.006670 0.000000 0.000000 0.000000
# 2 -0.001646 0.006349 -0.003404 0.000000 0.000000 0.000000
# 3 -0.006670 -0.003404 0.011343 0.000000 0.000000 0.000000
# 4 0.000000 0.000000 0.000000 0.029776 0.000000 0.000000
# 5 0.000000 0.000000 0.000000 0.000000 0.025481 0.000000
# 6 0.000000 0.000000 0.000000 0.000000 0.000000 0.038173
#
#
# Mechanical properties :
#
#
# Convention : Reuss Voigt Hill
#
# Bulk Modulus (GPa) = 81.24965 103.69186 92.47075
# Shear Modulus (GPa) = 31.90405 36.00920 33.95662
#
# Velocity S-wave (km/s) = 4.01255 4.26289 4.13961
# Velocity P-wave (km/s) = 7.90383 8.74976 8.33753
#
# Compressibility (1/GPa) = 0.01230775
#
# Stress axis : x y z
#
# Youngs Moduli (GPa) = 55.38280 157.51618 88.16173
#
# Poissons Ratio (x) = 0.25932 0.58804
# Poissons Ratio (y) = 0.09118 0.30006
# Poissons Ratio (z) = 0.36941 0.53611
#
# Static dielectric constant tensor:
#      x y z
#    x 1.671980 0.000000 0.000000 
#    y 0.000000 1.716200 0.000000 
#    z 0.000000 0.000000 1.808460 
# 
# From -- ./inp_files/41649.got.cif
#   From: 2010.05.17/outbox.cif.g08.bks.cpg/sg65_21_cif.got.tgz:41649.got - 2010.06.03 17:01:31.
