data_PCOD9493793
_publ_section_title
;
Structure prediction by ZEFSAII (Michael W. Deem and Ramdas Pophale) SiO2 
 PCOD9493793
Probable space group: C M M M
;
_chemical_formula_sum "Si O2"
_cell_formula_units_Z 72
_cell_length_a 17.966998
_cell_length_b 24.196795
_cell_length_c 8.740024
_cell_angle_alpha 90.000000
_cell_angle_beta 90.000000
_cell_angle_gamma 90.000000
_cell_volume 3799.670961
_symmetry_space_group_name_H-M "C M M M"
_symmetry_group_IT_number 65
_symmetry_cell_setting 'orthorhombic'
loop_
_space_group_symop_operation_xyz
x,y,z
-x,-y,z
x,-y,-z
-x,y,-z
-x,-y,-z
x,y,-z
-x,y,z
x,-y,z
1/2+x,1/2+y,z
1/2-x,1/2-y,z
1/2+x,1/2-y,-z
1/2-x,1/2+y,-z
1/2-x,1/2-y,-z
1/2+x,1/2+y,-z
1/2-x,1/2+y,z
1/2+x,1/2-y,z
loop_
_atom_site_type_symbol
_atom_site_label
_atom_site_fract_x
_atom_site_fract_y
_atom_site_fract_z
Si Si1 0.352979 0.871887 0.683752
Si Si2 0.789758 0.935402 0.816375
Si Si3 0.500000 0.937329 0.313728
Si Si4 0.912934 0.857652 0.316465
Si Si5 0.660716 0.247407 0.180664
O O1 0.347125 0.872575 0.500000
O O2 0.279449 0.900153 0.752407
O O3 0.425210 0.906383 0.732993
O O4 0.362819 0.809518 0.740740
O O5 0.864451 0.907438 0.752294
O O6 0.783368 0.000000 0.772870
O O7 0.789708 0.931568 0.000000
O O8 0.500000 0.937944 0.500000
O O9 0.500000 0.000000 0.258967
O O10 0.906667 0.858377 0.500000
O O11 0.877862 0.800647 0.254335
O O12 0.000000 0.861226 0.275212
O O13 0.750000 0.250000 0.199351
O O14 0.644435 0.246253 0.000000
#
# Coordination Sequence:
#
# PCOD9493793 Si02
#       5
#    16  16   8  16  16
#     4  11  22  38  64  93 123 163 210 259 309 364
#     4  11  24  42  64  91 124 163 207 254 311 378
#     4   9  20  38  59  89 127 163 202 251 306 361
#     4  11  25  43  65  94 125 160 208 261 311 366
#     4  11  23  40  63  91 124 161 202 249 308 372
#
# _framework density 18.949007999999999
#
# number of rings (size 3 to 8) (size 9 to 14) (size 15 to 20)
#    0.000    1.222    2.222    3.333    1.556    5.778 
#    0.000    3.889    0.000    4.000    0.000    0.000 
#    0.000    0.000    0.000    0.000    0.000    0.000 
#
# Total GULP energy -201319.688247 kJ/mol
# GULP energy per Si atom -5592.213562 kJ/mol
# Density = 1.890588 g / cm^3
# Si number density = 18.949008 Si / 1000 Ang^3
#
#
#
# Elastic Constant Matrix: (Units=GPa)
#
#
# Indices 1 2 3 4 5 6 
#
# 1 95.3263 19.8593 30.1066 0.0000 0.0000 0.0000
# 2 19.8593 100.2861 17.6918 0.0000 0.0000 0.0000
# 3 30.1066 17.6918 45.6747 0.0000 0.0000 0.0000
# 4 0.0000 0.0000 0.0000 29.4994 0.0000 0.0000
# 5 0.0000 0.0000 0.0000 0.0000 -44.1200 0.0000
# 6 0.0000 0.0000 0.0000 0.0000 0.0000 28.7025
#
#
#
# Elastic Compliance Matrix: (Units=1/GPa)
#
#
# Indices 1 2 3 4 5 6 
#
# 1 0.013376 -0.001174 -0.008362 0.000000 0.000000 0.000000
# 2 -0.001174 0.010806 -0.003412 0.000000 0.000000 0.000000
# 3 -0.008362 -0.003412 0.028727 0.000000 0.000000 0.000000
# 4 0.000000 0.000000 0.000000 0.033899 0.000000 0.000000
# 5 0.000000 0.000000 0.000000 0.000000 -0.022665 0.000000
# 6 0.000000 0.000000 0.000000 0.000000 0.000000 0.034840
#
#
# Mechanical properties :
#
#
# Convention : Reuss Voigt Hill
#
# Bulk Modulus (GPa) = 37.01823 41.84473 39.43148
# Shear Modulus (GPa) = 37.34616 14.39167 25.86892
#
# Velocity S-wave (km/s) = 4.44427 2.75888 3.69885
# Velocity P-wave (km/s) = 6.77595 5.68149 6.25271
#
# Compressibility (1/GPa) = 0.02701371
#
# Stress axis : x y z
#
# Youngs Moduli (GPa) = 74.76220 92.54302 34.80990
#
# Poissons Ratio (x) = 0.10861 0.29108
# Poissons Ratio (y) = 0.08774 0.11877
# Poissons Ratio (z) = 0.62517 0.31575
#
# Static dielectric constant tensor:
#      x y z
#    x 1.637180 0.000000 0.000000 
#    y 0.000000 1.635550 0.000000 
#    z 0.000000 0.000000 1.638700 
# 
# From -- ./inp_files/9252.got.cif
#   From: 2010.05.17/outbox.cif.g08.bks.cpg/sg65_5_cif.got.tgz:9252.got - 2010.06.03 17:01:31.
