data_PCOD9493095
_publ_section_title
;
Structure prediction by ZEFSAII (Michael W. Deem and Ramdas Pophale) SiO2 
 PCOD9493095
Probable space group: C M M M
;
_chemical_formula_sum "Si O2"
_cell_formula_units_Z 56
_cell_length_a 13.263996
_cell_length_b 18.177640
_cell_length_c 10.983447
_cell_angle_alpha 90.000000
_cell_angle_beta 90.000000
_cell_angle_gamma 90.000000
_cell_volume 2648.198524
_symmetry_space_group_name_H-M "C M M M"
_symmetry_group_IT_number 65
_symmetry_cell_setting 'orthorhombic'
loop_
_space_group_symop_operation_xyz
x,y,z
-x,-y,z
x,-y,-z
-x,y,-z
-x,-y,-z
x,y,-z
-x,y,z
x,-y,z
1/2+x,1/2+y,z
1/2-x,1/2-y,z
1/2+x,1/2-y,-z
1/2-x,1/2+y,-z
1/2-x,1/2-y,-z
1/2+x,1/2+y,-z
1/2-x,1/2+y,z
1/2+x,1/2-y,z
loop_
_atom_site_type_symbol
_atom_site_label
_atom_site_fract_x
_atom_site_fract_y
_atom_site_fract_z
Si Si1 0.381653 0.323638 0.640025
Si Si2 0.000000 0.587804 0.371250
Si Si3 0.617939 0.785962 0.867638
Si Si4 0.712686 0.914155 0.241251
O O1 0.360849 0.299937 0.500000
O O2 0.500000 0.344077 0.645656
O O3 0.366359 0.263151 0.746811
O O4 0.307022 0.389555 0.677277
O O5 0.107909 0.600521 0.312156
O O6 0.000000 0.500000 0.383351
O O7 0.000000 0.627967 0.500000
O O8 0.500000 0.809952 0.863362
O O9 0.694041 0.854727 0.864084
O O10 0.628637 0.748076 0.000000
O O11 0.718238 0.000000 0.207454
#
# Coordination Sequence:
#
# PCOD9493095 Si02
#       4
#    16   8  16  16
#     4  10  23  42  63  90 124 166 213 258 306 366
#     4   9  18  32  51  81 119 155 190 235 298 363
#     4  10  22  42  66  92 124 164 209 260 314 371
#     4  11  22  37  60  92 126 162 201 253 313 373
#
# _framework density 21.146450999999999
#
# number of rings (size 3 to 8) (size 9 to 14) (size 15 to 20)
#    0.000    1.857    1.429    1.714    0.000    8.571 
#    0.000    2.857    0.000    0.000    0.000    6.000 
#    0.000    0.000    0.000    0.000    0.000    0.000 
#
# Total GULP energy -155974.872179 kJ/mol
# GULP energy per Si atom -5570.531149 kJ/mol
# Density = 2.109832 g / cm^3
# Si number density = 21.146451 Si / 1000 Ang^3
#
#
#
# Elastic Constant Matrix: (Units=GPa)
#
#
# Indices 1 2 3 4 5 6 
#
# 1 138.9225 47.7894 43.7271 0.0000 0.0000 0.0000
# 2 47.7894 79.4484 34.3065 0.0000 0.0000 0.0000
# 3 43.7271 34.3065 141.6287 0.0000 0.0000 0.0000
# 4 0.0000 0.0000 0.0000 39.2263 0.0000 0.0000
# 5 0.0000 0.0000 0.0000 0.0000 -62.1605 0.0000
# 6 0.0000 0.0000 0.0000 0.0000 0.0000 38.1319
#
#
#
# Elastic Compliance Matrix: (Units=1/GPa)
#
#
# Indices 1 2 3 4 5 6 
#
# 1 0.009436 -0.004934 -0.001718 0.000000 0.000000 0.000000
# 2 -0.004934 0.016637 -0.002507 0.000000 0.000000 0.000000
# 3 -0.001718 -0.002507 0.008198 0.000000 0.000000 0.000000
# 4 0.000000 0.000000 0.000000 0.025493 0.000000 0.000000
# 5 0.000000 0.000000 0.000000 0.000000 -0.016087 0.000000
# 6 0.000000 0.000000 0.000000 0.000000 0.000000 0.026225
#
#
# Mechanical properties :
#
#
# Convention : Reuss Voigt Hill
#
# Bulk Modulus (GPa) = 62.68057 67.96061 65.32059
# Shear Modulus (GPa) = 53.45391 18.65132 36.05261
#
# Velocity S-wave (km/s) = 5.03317 2.97308 4.13352
# Velocity P-wave (km/s) = 7.96760 6.63276 7.33062
#
# Compressibility (1/GPa) = 0.01595391
#
# Stress axis : x y z
#
# Youngs Moduli (GPa) = 105.97189 60.10649 121.97536
#
# Poissons Ratio (x) = 0.29658 0.20958
# Poissons Ratio (y) = 0.52289 0.30574
# Poissons Ratio (z) = 0.18209 0.15066
#
# Static dielectric constant tensor:
#      x y z
#    x 1.777270 0.000000 0.000000 
#    y 0.000000 1.790640 0.000000 
#    z 0.000000 0.000000 1.951700 
# 
# From -- ./inp_files/6248.got.cif
#   From: 2010.05.17/outbox.cif.g08.bks.cpg/sg65_4_cif.got.tgz:6248.got - 2010.06.03 17:01:31.
