data_PCOD9493346
_publ_section_title
;
Structure prediction by ZEFSAII (Michael W. Deem and Ramdas Pophale) SiO2 
 PCOD9493346
Probable space group: C M M M
;
_chemical_formula_sum "Si O2"
_cell_formula_units_Z 56
_cell_length_a 10.225078
_cell_length_b 27.616728
_cell_length_c 11.462782
_cell_angle_alpha 90.000000
_cell_angle_beta 90.000000
_cell_angle_gamma 90.000000
_cell_volume 3236.897038
_symmetry_space_group_name_H-M "C M M M"
_symmetry_group_IT_number 65
_symmetry_cell_setting 'orthorhombic'
loop_
_space_group_symop_operation_xyz
x,y,z
-x,-y,z
x,-y,-z
-x,y,-z
-x,-y,-z
x,y,-z
-x,y,z
x,-y,z
1/2+x,1/2+y,z
1/2-x,1/2-y,z
1/2+x,1/2-y,-z
1/2-x,1/2+y,-z
1/2-x,1/2-y,-z
1/2+x,1/2+y,-z
1/2-x,1/2+y,z
1/2+x,1/2-y,z
loop_
_atom_site_type_symbol
_atom_site_label
_atom_site_fract_x
_atom_site_fract_y
_atom_site_fract_z
Si Si1 0.662437 0.199998 0.500000
Si Si2 0.766051 0.351285 0.741378
Si Si3 0.000000 0.703710 0.863701
Si Si4 0.842179 0.443971 0.867229
Si Si5 0.000000 0.182121 0.140965
O O1 0.500000 0.207395 0.500000
O O2 0.750000 0.250000 0.500000
O O3 0.706333 0.168473 0.612012
O O4 0.790819 0.407603 0.769485
O O5 0.626327 0.338665 0.794840
O O6 0.873024 0.321892 0.814695
O O7 0.000000 0.760341 0.837588
O O8 0.000000 0.697470 0.000000
O O9 0.803970 0.500000 0.850199
O O10 0.000000 0.441910 0.865232
O O11 0.801838 0.429396 0.000000
O O12 0.000000 0.173922 0.000000
#
# Coordination Sequence:
#
# PCOD9493346 Si02
#       5
#     8  16   8  16   8
#     4  12  26  42  63  87 120 168 215 250 292 356
#     4  12  23  38  59  85 123 158 204 251 297 358
#     4  11  20  35  58  82 113 153 195 250 306 358
#     4   9  17  33  60  90 117 151 199 254 311 365
#     4  11  24  37  56  90 123 157 197 248 316 374
#
# _framework density 17.300519000000001
#
# number of rings (size 3 to 8) (size 9 to 14) (size 15 to 20)
#    0.000    1.143    2.857    6.000    2.000    2.286 
#    0.000    1.429    0.000    5.143    0.000    2.000 
#    0.000    0.000    0.000    0.000    0.000    0.000 
#
# Total GULP energy -156221.987945 kJ/mol
# GULP energy per Si atom -5579.356712 kJ/mol
# Density = 1.726114 g / cm^3
# Si number density = 17.300519 Si / 1000 Ang^3
#
#
#
# Elastic Constant Matrix: (Units=GPa)
#
#
# Indices 1 2 3 4 5 6 
#
# 1 -22.2101 242.4613 -873.8825 0.0000 0.0000 0.0000
# 2 242.4613 -135.6047 1270.2522 0.0000 0.0000 0.0000
# 3 -873.8825 1270.2522-5404.2649 0.0000 0.0000 0.0000
# 4 0.0000 0.0000 0.0000 42.2329 0.0000 0.0000
# 5 0.0000 0.0000 0.0000 0.0000 25.8866 0.0000
# 6 0.0000 0.0000 0.0000 0.0000 0.0000 306.4667
#
#
#
# Elastic Compliance Matrix: (Units=1/GPa)
#
#
# Indices 1 2 3 4 5 6 
#
# 1 0.009036 -0.002055 -0.001944 0.000000 0.000000 0.000000
# 2 -0.002055 0.006604 0.001884 0.000000 0.000000 0.000000
# 3 -0.001944 0.001884 0.000572 0.000000 0.000000 0.000000
# 4 0.000000 0.000000 0.000000 0.023678 0.000000 0.000000
# 5 0.000000 0.000000 0.000000 0.000000 0.038630 0.000000
# 6 0.000000 0.000000 0.000000 0.000000 0.000000 0.003263
#
#
# Mechanical properties :
#
#
# Convention : Reuss Voigt Hill
#
# Bulk Modulus (GPa) = 83.45314 -476.04643 -196.29665
# Shear Modulus (GPa) = 55.55191 -338.47680 -141.46244
#
# Velocity S-wave (km/s) = 5.67271 -14.00251 -9.05236
# Velocity P-wave (km/s) = 9.55240 23.17730 14.93216
#
# Compressibility (1/GPa) = 0.01198277
#
# Stress axis : x y z
#
# Youngs Moduli (GPa) = 110.67150 151.43230 1747.50112
#
# Poissons Ratio (x) = 0.31116 3.39726
# Poissons Ratio (y) = 0.22740 -3.29302
# Poissons Ratio (z) = 0.21515 -0.28536
#
# Static dielectric constant tensor:
#      x y z
#    x 1.565350 0.000000 0.000000 
#    y 0.000000 1.593440 0.000000 
#    z 0.000000 0.000000 1.635120 
# 
# From -- ./inp_files/20526.got.cif
#   From: 2010.05.17/outbox.cif.g08.bks.cpg/sg65_11_cif.got.tgz:20526.got - 2010.06.03 17:01:31.
