data_PCOD9493701
_publ_section_title
;
Structure prediction by ZEFSAII (Michael W. Deem and Ramdas Pophale) SiO2 
 PCOD9493701
Probable space group: C M M M
;
_chemical_formula_sum "Si O2"
_cell_formula_units_Z 72
_cell_length_a 7.686422
_cell_length_b 18.436576
_cell_length_c 25.530723
_cell_angle_alpha 90.000000
_cell_angle_beta 90.000000
_cell_angle_gamma 90.000000
_cell_volume 3617.992032
_symmetry_space_group_name_H-M "C M M M"
_symmetry_group_IT_number 65
_symmetry_cell_setting 'orthorhombic'
loop_
_space_group_symop_operation_xyz
x,y,z
-x,-y,z
x,-y,-z
-x,y,-z
-x,-y,-z
x,y,-z
-x,y,z
x,-y,z
1/2+x,1/2+y,z
1/2-x,1/2-y,z
1/2+x,1/2-y,-z
1/2-x,1/2+y,-z
1/2-x,1/2-y,-z
1/2+x,1/2+y,-z
1/2-x,1/2+y,z
1/2+x,1/2-y,z
loop_
_atom_site_type_symbol
_atom_site_label
_atom_site_fract_x
_atom_site_fract_y
_atom_site_fract_z
Si Si1 0.788015 0.417103 0.764410
Si Si2 0.207576 0.335316 0.871587
Si Si3 0.705099 0.165946 0.662699
Si Si4 0.708680 0.417604 0.441914
Si Si5 0.000000 0.085623 0.062550
O O1 0.728057 0.500000 0.769944
O O2 0.745334 0.368755 0.814808
O O3 0.720686 0.380948 0.710840
O O4 0.000000 0.419198 0.762460
O O5 0.250000 0.250000 0.872431
O O6 0.329564 0.376406 0.912979
O O7 0.000000 0.345866 0.880316
O O8 0.500000 0.159955 0.667474
O O9 0.750000 0.250000 0.667377
O O10 0.750102 0.134218 0.606022
O O11 0.771315 0.394976 0.500000
O O12 0.500000 0.421029 0.444569
O O13 0.772282 0.500000 0.431922
O O14 0.000000 0.000000 0.075411
O O15 0.000000 0.093576 0.000000
#
# Coordination Sequence:
#
# PCOD9493701 Si02
#       5
#    16  16  16  16   8
#     4   9  19  36  60  88 121 158 199 250 308 370
#     4  11  22  42  68  98 134 176 216 269 328 383
#     4  11  22  36  55  81 115 152 193 244 297 357
#     4   9  19  37  58  79 107 142 185 239 297 360
#     4  11  26  46  68 100 137 173 224 276 319 384
#
# _framework density 19.900542000000002
#
# number of rings (size 3 to 8) (size 9 to 14) (size 15 to 20)
#    0.000    1.889    1.111    3.333    0.000    4.444 
#    4.000    2.222    0.000    0.000    0.000    0.000 
#    0.000    0.000    0.000    0.000    0.000    0.000 
#
# Total GULP energy -201063.410228 kJ/mol
# GULP energy per Si atom -5585.094729 kJ/mol
# Density = 1.985525 g / cm^3
# Si number density = 19.900542 Si / 1000 Ang^3
#
#
#
# Elastic Constant Matrix: (Units=GPa)
#
#
# Indices 1 2 3 4 5 6 
#
# 1 81.5957 37.8101 42.8750 0.0000 0.0000 0.0000
# 2 37.8101 175.7012 103.9083 0.0000 0.0000 0.0000
# 3 42.8750 103.9083 145.1595 0.0000 0.0000 0.0000
# 4 0.0000 0.0000 0.0000 -80.0167 0.0000 0.0000
# 5 0.0000 0.0000 0.0000 0.0000 13.1186 0.0000
# 6 0.0000 0.0000 0.0000 0.0000 0.0000 -217.9562
#
#
#
# Elastic Compliance Matrix: (Units=1/GPa)
#
#
# Indices 1 2 3 4 5 6 
#
# 1 0.014613 -0.001027 -0.003581 0.000000 0.000000 0.000000
# 2 -0.001027 0.009942 -0.006813 0.000000 0.000000 0.000000
# 3 -0.003581 -0.006813 0.012824 0.000000 0.000000 0.000000
# 4 0.000000 0.000000 0.000000 -0.012497 0.000000 0.000000
# 5 0.000000 0.000000 0.000000 0.000000 0.076228 0.000000
# 6 0.000000 0.000000 0.000000 0.000000 0.000000 -0.004588
#
#
# Mechanical properties :
#
#
# Convention : Reuss Voigt Hill
#
# Bulk Modulus (GPa) = 68.79380 85.73815 77.26598
# Shear Modulus (GPa) = 40.25481 -42.44665 -1.09592
#
# Velocity S-wave (km/s) = 4.50243 -4.62339 -0.74290
# Velocity P-wave (km/s) = 7.85322 3.83092 6.17855
#
# Compressibility (1/GPa) = 0.01453619
#
# Stress axis : x y z
#
# Youngs Moduli (GPa) = 68.43174 100.58614 77.98001
#
# Poissons Ratio (x) = 0.10328 0.27926
# Poissons Ratio (y) = 0.07026 0.53130
# Poissons Ratio (z) = 0.24507 0.68532
#
# Static dielectric constant tensor:
#      x y z
#    x 1.723450 0.000000 0.000000 
#    y 0.000000 1.646920 0.000000 
#    z 0.000000 0.000000 1.706090 
# 
# From -- ./inp_files/67073.got.cif
#   From: 2010.05.17/outbox.cif.g08.bks.cpg/sg65_34_cif.got.tgz:67073.got - 2010.06.03 17:01:31.
