data_PCOD9493586
_publ_section_title
;
Structure prediction by ZEFSAII (Michael W. Deem and Ramdas Pophale) SiO2 
 PCOD9493586
Probable space group: C M M M
;
_chemical_formula_sum "Si O2"
_cell_formula_units_Z 104
_cell_length_a 32.606842
_cell_length_b 20.591595
_cell_length_c 9.230143
_cell_angle_alpha 90.000000
_cell_angle_beta 90.000000
_cell_angle_gamma 90.000000
_cell_volume 6197.366160
_symmetry_space_group_name_H-M "C M M M"
_symmetry_group_IT_number 65
_symmetry_cell_setting 'orthorhombic'
loop_
_space_group_symop_operation_xyz
x,y,z
-x,-y,z
x,-y,-z
-x,y,-z
-x,-y,-z
x,y,-z
-x,y,z
x,-y,z
1/2+x,1/2+y,z
1/2-x,1/2-y,z
1/2+x,1/2-y,-z
1/2-x,1/2+y,-z
1/2-x,1/2-y,-z
1/2+x,1/2+y,-z
1/2-x,1/2+y,z
1/2+x,1/2-y,z
loop_
_atom_site_type_symbol
_atom_site_label
_atom_site_fract_x
_atom_site_fract_y
_atom_site_fract_z
Si Si1 0.813180 0.423724 0.829230
Si Si2 0.216942 0.926657 0.175515
Si Si3 0.343646 0.313160 0.829046
Si Si4 0.546395 0.193949 0.830391
Si Si5 0.000000 0.072134 0.328982
Si Si6 0.868672 0.680324 0.326781
Si Si7 0.063206 0.847047 0.162000
O O1 0.822962 0.500000 0.812789
O O2 0.764960 0.416039 0.792954
O O3 0.841161 0.378543 0.731371
O O4 0.818419 0.407058 0.000000
O O5 0.189646 0.865601 0.224135
O O6 0.205433 0.000000 0.226033
O O7 0.213079 0.927911 0.000000
O O8 0.349258 0.246537 0.740706
O O9 0.388042 0.347220 0.822339
O O10 0.335892 0.297542 0.000000
O O11 0.500000 0.174347 0.787138
O O12 0.585067 0.171754 0.735707
O O13 0.549041 0.272350 0.824919
O O14 0.552433 0.175859 0.000000
O O15 0.960347 0.110219 0.275610
O O16 0.000000 0.069461 0.500000
O O17 0.000000 0.000000 0.267369
O O18 0.869480 0.684238 0.500000
O O19 0.052462 0.869114 0.000000
#
# Coordination Sequence:
#
# PCOD9493586 Si02
#       7
#    16  16  16  16   8  16  16
#     4   9  18  35  58  79 101 133 173 215 259 309
#     4   8  15  30  54  80 100 127 175 227 268 304
#     4   9  18  33  53  76 103 132 168 218 266 306
#     4   9  17  33  56  77  98 125 163 210 255 300
#     4  11  23  33  41  59  91 131 170 207 250 301
#     4  11  22  33  49  78 112 141 171 206 251 309
#     4   9  17  31  49  69  91 121 162 208 256 298
#
# _framework density 16.781321999999999
#
# number of rings (size 3 to 8) (size 9 to 14) (size 15 to 20)
#    0.000    2.692    0.769    3.462    0.000    4.923 
#    0.000    5.385    0.000    1.846    0.000    3.231 
#    0.000    0.000    0.000    0.000    0.000    0.000 
#
# Total GULP energy -289707.353120 kJ/mol
# GULP energy per Si atom -5571.295252 kJ/mol
# Density = 1.674313 g / cm^3
# Si number density = 16.781322 Si / 1000 Ang^3
#
#
#
# Elastic Constant Matrix: (Units=GPa)
#
#
# Indices 1 2 3 4 5 6 
#
# 1 100.4695 61.7403 52.5989 0.0000 0.0000 0.0000
# 2 61.7403 66.3471 49.3716 0.0000 0.0000 0.0000
# 3 52.5989 49.3716 75.7536 0.0000 0.0000 0.0000
# 4 0.0000 0.0000 0.0000 -26.9264 0.0000 0.0000
# 5 0.0000 0.0000 0.0000 0.0000 -18.3049 0.0000
# 6 0.0000 0.0000 0.0000 0.0000 0.0000 19.6731
#
#
#
# Elastic Compliance Matrix: (Units=1/GPa)
#
#
# Indices 1 2 3 4 5 6 
#
# 1 0.023877 -0.019188 -0.004073 0.000000 0.000000 0.000000
# 2 -0.019188 0.044686 -0.015800 0.000000 0.000000 0.000000
# 3 -0.004073 -0.015800 0.026327 0.000000 0.000000 0.000000
# 4 0.000000 0.000000 0.000000 -0.037138 0.000000 0.000000
# 5 0.000000 0.000000 0.000000 0.000000 -0.054630 0.000000
# 6 0.000000 0.000000 0.000000 0.000000 0.000000 0.050831
#
#
# Mechanical properties :
#
#
# Convention : Reuss Voigt Hill
#
# Bulk Modulus (GPa) = 59.64425 63.33243 61.48834
# Shear Modulus (GPa) = 36.32016 0.14565 18.23290
#
# Velocity S-wave (km/s) = 4.65727 0.29492 3.29979
# Velocity P-wave (km/s) = 8.03365 6.15936 7.15811
#
# Compressibility (1/GPa) = 0.01676608
#
# Stress axis : x y z
#
# Youngs Moduli (GPa) = 41.88075 22.37842 37.98449
#
# Poissons Ratio (x) = 0.42941 0.15472
# Poissons Ratio (y) = 0.80362 0.60016
# Poissons Ratio (z) = 0.17059 0.35358
#
# Static dielectric constant tensor:
#      x y z
#    x 1.560630 0.000000 0.000000 
#    y 0.000000 1.551760 0.000000 
#    z 0.000000 0.000000 1.557330 
# 
# From -- ./inp_files/18633.got.cif
#   From: 2010.05.17/outbox.cif.g08.bks.cpg/sg65_10_cif.got.tgz:18633.got - 2010.06.03 17:01:31.
