data_PCOD9493607
_publ_section_title
;
Structure prediction by ZEFSAII (Michael W. Deem and Ramdas Pophale) SiO2 
 PCOD9493607
Probable space group: C M M M
;
_chemical_formula_sum "Si O2"
_cell_formula_units_Z 80
_cell_length_a 7.747683
_cell_length_b 19.837900
_cell_length_c 26.405378
_cell_angle_alpha 90.000000
_cell_angle_beta 90.000000
_cell_angle_gamma 90.000000
_cell_volume 4058.447466
_symmetry_space_group_name_H-M "C M M M"
_symmetry_group_IT_number 65
_symmetry_cell_setting 'orthorhombic'
loop_
_space_group_symop_operation_xyz
x,y,z
-x,-y,z
x,-y,-z
-x,y,-z
-x,-y,-z
x,y,-z
-x,y,z
x,-y,z
1/2+x,1/2+y,z
1/2-x,1/2-y,z
1/2+x,1/2-y,-z
1/2-x,1/2+y,-z
1/2-x,1/2-y,-z
1/2+x,1/2+y,-z
1/2-x,1/2+y,z
1/2+x,1/2-y,z
loop_
_atom_site_type_symbol
_atom_site_label
_atom_site_fract_x
_atom_site_fract_y
_atom_site_fract_z
Si Si1 0.211143 0.422382 0.261177
Si Si2 0.207698 0.075643 0.557547
Si Si3 0.789348 0.422488 0.146741
Si Si4 0.707814 0.828224 0.056495
Si Si5 0.203285 0.328305 0.649230
O O1 0.262842 0.500000 0.271616
O O2 0.264675 0.404163 0.203909
O O3 0.277429 0.370947 0.303510
O O4 0.000000 0.422216 0.261506
O O5 0.267976 0.089096 0.500000
O O6 0.255927 0.132005 0.597723
O O7 0.000000 0.073445 0.556046
O O8 0.268187 0.000000 0.572284
O O9 0.739418 0.500000 0.137603
O O10 0.726527 0.374077 0.102264
O O11 0.000000 0.420543 0.146558
O O12 0.500000 0.834769 0.055674
O O13 0.750000 0.750000 0.064946
O O14 0.771391 0.846767 0.000000
O O15 0.250000 0.250000 0.647904
O O16 0.000000 0.330689 0.655721
#
# Coordination Sequence:
#
# PCOD9493607 Si02
#       5
#    16  16  16  16  16
#     4   8  15  29  48  69  93 122 157 197 242 290
#     4   9  19  37  59  80 102 129 161 198 242 291
#     4   8  14  26  45  68  92 118 152 197 243 281
#     4   9  17  28  43  65  92 122 155 190 231 280
#     4  11  22  34  50  74 103 133 166 203 242 286
#
# _framework density 19.711973
#
# number of rings (size 3 to 8) (size 9 to 14) (size 15 to 20)
#    0.000    3.000    0.000    3.000    0.000    3.200 
#    0.000    3.000    0.000    1.800    0.000    8.400 
#    0.000    0.000    0.000    0.000    0.000    0.000 
#
# Total GULP energy -223068.421489 kJ/mol
# GULP energy per Si atom -5576.710537 kJ/mol
# Density = 1.966711 g / cm^3
# Si number density = 19.711973 Si / 1000 Ang^3
#
#
#
# Elastic Constant Matrix: (Units=GPa)
#
#
# Indices 1 2 3 4 5 6 
#
# 1 28.4452 8.6007 9.4543 0.0000 0.0000 0.0000
# 2 8.6007 160.7184 150.3325 0.0000 0.0000 0.0000
# 3 9.4543 150.3325 191.9180 0.0000 0.0000 0.0000
# 4 0.0000 0.0000 0.0000 -65.6299 0.0000 0.0000
# 5 0.0000 0.0000 0.0000 0.0000 0.4536 0.0000
# 6 0.0000 0.0000 0.0000 0.0000 0.0000 -4.1621
#
#
#
# Elastic Compliance Matrix: (Units=1/GPa)
#
#
# Indices 1 2 3 4 5 6 
#
# 1 0.035783 -0.000995 -0.000983 0.000000 0.000000 0.000000
# 2 -0.000995 0.023305 -0.018206 0.000000 0.000000 0.000000
# 3 -0.000983 -0.018206 0.019520 0.000000 0.000000 0.000000
# 4 0.000000 0.000000 0.000000 -0.015237 0.000000 0.000000
# 5 0.000000 0.000000 0.000000 0.000000 2.204822 0.000000
# 6 0.000000 0.000000 0.000000 0.000000 0.000000 -0.240266
#
#
# Mechanical properties :
#
#
# Convention : Reuss Voigt Hill
#
# Bulk Modulus (GPa) = 26.15130 79.76184 52.95657
# Shear Modulus (GPa) = 2.40264 0.31193 1.35728
#
# Velocity S-wave (km/s) = 1.10522 0.39823 0.83069
# Velocity P-wave (km/s) = 3.86319 6.38459 5.27670
#
# Compressibility (1/GPa) = 0.03823902
#
# Stress axis : x y z
#
# Youngs Moduli (GPa) = 27.94621 42.90955 51.22939
#
# Poissons Ratio (x) = 0.04271 0.05036
# Poissons Ratio (y) = 0.02782 0.93268
# Poissons Ratio (z) = 0.02747 0.78121
#
# Static dielectric constant tensor:
#      x y z
#    x 1.731550 0.000000 0.000000 
#    y 0.000000 1.486390 0.000000 
#    z 0.000000 0.000000 1.711060 
# 
# From -- ./inp_files/72770.got.cif
#   From: 2010.05.17/outbox.cif.g08.bks.cpg/sg65_37_cif.got.tgz:72770.got - 2010.06.03 17:01:31.
