data_PCOD9493776
_publ_section_title
;
Structure prediction by ZEFSAII (Michael W. Deem and Ramdas Pophale) SiO2 
 PCOD9493776
Probable space group: C M M M
;
_chemical_formula_sum "Si O2"
_cell_formula_units_Z 64
_cell_length_a 8.412066
_cell_length_b 14.733521
_cell_length_c 24.334636
_cell_angle_alpha 90.000000
_cell_angle_beta 90.000000
_cell_angle_gamma 90.000000
_cell_volume 3016.018994
_symmetry_space_group_name_H-M "C M M M"
_symmetry_group_IT_number 65
_symmetry_cell_setting 'orthorhombic'
loop_
_space_group_symop_operation_xyz
x,y,z
-x,-y,z
x,-y,-z
-x,y,-z
-x,-y,-z
x,y,-z
-x,y,z
x,-y,z
1/2+x,1/2+y,z
1/2-x,1/2-y,z
1/2+x,1/2-y,-z
1/2-x,1/2+y,-z
1/2-x,1/2-y,-z
1/2+x,1/2+y,-z
1/2-x,1/2+y,z
1/2+x,1/2-y,z
loop_
_atom_site_type_symbol
_atom_site_label
_atom_site_fract_x
_atom_site_fract_y
_atom_site_fract_z
Si Si1 0.190139 0.000000 0.062755
Si Si2 0.311449 0.146958 0.853511
Si Si3 0.691036 0.354506 0.737215
Si Si4 0.192761 0.854788 0.500000
Si Si5 0.192556 0.145345 0.618416
O O1 0.247621 0.913227 0.096937
O O2 0.000000 0.000000 0.061919
O O3 0.248740 0.000000 0.000000
O O4 0.500000 0.147682 0.854166
O O5 0.250000 0.250000 0.857851
O O6 0.255949 0.108114 0.794370
O O7 0.500000 0.357009 0.739734
O O8 0.750000 0.250000 0.736571
O O9 0.742453 0.393384 0.677760
O O10 0.250000 0.750000 0.500000
O O11 0.245115 0.893472 0.440766
O O12 0.000000 0.857242 0.500000
O O13 0.250000 0.250000 0.618300
O O14 0.000000 0.143481 0.618548
#
# Coordination Sequence:
#
# PCOD9493776 Si02
#       5
#     8  16  16   8  16
#     4  11  25  45  67  91 119 150 185 228 277 331
#     4  11  22  38  61  88 119 155 193 234 280 331
#     4   9  15  25  42  66  96 133 178 226 275 325
#     4   8  12  18  26  42  72 113 160 209 263 318
#     4   8  13  19  30  49  78 118 164 214 266 319
#
# _framework density 21.220025
#
# number of rings (size 3 to 8) (size 9 to 14) (size 15 to 20)
#    0.000    2.625    0.000    4.875    0.000    2.500 
#    0.000    0.000    0.000    0.000    0.000    0.000 
#    0.000    1.000    0.000   11.875    0.000   13.000 
#
# Total GULP energy -178394.213656 kJ/mol
# GULP energy per Si atom -5574.819177 kJ/mol
# Density = 2.117173 g / cm^3
# Si number density = 21.220025 Si / 1000 Ang^3
#
#
#
# Elastic Constant Matrix: (Units=GPa)
#
#
# Indices 1 2 3 4 5 6 
#
# 1 70.7381 13.4398 53.4095 0.0000 0.0000 0.0000
# 2 13.4398 90.8529 64.5833 0.0000 0.0000 0.0000
# 3 53.4095 64.5833 290.4219 0.0000 0.0000 0.0000
# 4 0.0000 0.0000 0.0000 133.4608 0.0000 0.0000
# 5 0.0000 0.0000 0.0000 0.0000 26.2515 0.0000
# 6 0.0000 0.0000 0.0000 0.0000 0.0000 8.1454
#
#
#
# Elastic Compliance Matrix: (Units=1/GPa)
#
#
# Indices 1 2 3 4 5 6 
#
# 1 0.016425 -0.000336 -0.002946 0.000000 0.000000 0.000000
# 2 -0.000336 0.013080 -0.002847 0.000000 0.000000 0.000000
# 3 -0.002946 -0.002847 0.004618 0.000000 0.000000 0.000000
# 4 0.000000 0.000000 0.000000 0.007493 0.000000 0.000000
# 5 0.000000 0.000000 0.000000 0.000000 0.038093 0.000000
# 6 0.000000 0.000000 0.000000 0.000000 0.000000 0.122769
#
#
# Mechanical properties :
#
#
# Convention : Reuss Voigt Hill
#
# Bulk Modulus (GPa) = 45.73304 79.43089 62.58196
# Shear Modulus (GPa) = 22.52009 54.94356 38.73182
#
# Velocity S-wave (km/s) = 3.26124 5.09397 4.27693
# Velocity P-wave (km/s) = 5.98160 8.49184 7.34476
#
# Compressibility (1/GPa) = 0.02186603
#
# Stress axis : x y z
#
# Youngs Moduli (GPa) = 60.88404 76.45098 216.53691
#
# Poissons Ratio (x) = 0.02565 0.63790
# Poissons Ratio (y) = 0.02043 0.61649
# Poissons Ratio (z) = 0.17936 0.21766
#
# Static dielectric constant tensor:
#      x y z
#    x 1.707760 0.000000 0.000000 
#    y 0.000000 2.495850 0.000000 
#    z 0.000000 0.000000 1.836590 
# 
# From -- ./inp_files/66823.got.cif
#   From: 2010.05.17/outbox.cif.g08.bks.cpg/sg65_34_cif.got.tgz:66823.got - 2010.06.03 17:01:31.
