data_PCOD9493321
_publ_section_title
;
Structure prediction by ZEFSAII (Michael W. Deem and Ramdas Pophale) SiO2 
 PCOD9493321
Probable space group: C M M M
;
_chemical_formula_sum "Si O2"
_cell_formula_units_Z 72
_cell_length_a 14.050530
_cell_length_b 20.721025
_cell_length_c 13.957864
_cell_angle_alpha 90.000000
_cell_angle_beta 90.000000
_cell_angle_gamma 90.000000
_cell_volume 4063.711834
_symmetry_space_group_name_H-M "C M M M"
_symmetry_group_IT_number 65
_symmetry_cell_setting 'orthorhombic'
loop_
_space_group_symop_operation_xyz
x,y,z
-x,-y,z
x,-y,-z
-x,y,-z
-x,-y,-z
x,y,-z
-x,y,z
x,-y,z
1/2+x,1/2+y,z
1/2-x,1/2-y,z
1/2+x,1/2-y,-z
1/2-x,1/2+y,-z
1/2-x,1/2-y,-z
1/2+x,1/2+y,-z
1/2-x,1/2+y,z
1/2+x,1/2-y,z
loop_
_atom_site_type_symbol
_atom_site_label
_atom_site_fract_x
_atom_site_fract_y
_atom_site_fract_z
Si Si1 0.606700 0.770305 0.390075
Si Si2 0.114639 0.500000 0.385487
Si Si3 0.385191 0.793385 0.891234
Si Si4 0.107492 0.832968 0.225567
Si Si5 0.799421 0.622190 0.274876
O O1 0.622347 0.754659 0.500000
O O2 0.500000 0.801087 0.381348
O O3 0.603079 0.708111 0.323467
O O4 0.684299 0.819268 0.349863
O O5 0.139881 0.500000 0.500000
O O6 0.155848 0.438721 0.327846
O O7 0.000000 0.500000 0.380733
O O8 0.500000 0.793852 0.889625
O O9 0.359507 0.722113 0.850497
O O10 0.351538 0.849312 0.819392
O O11 0.352398 0.802093 0.000000
O O12 0.189749 0.884643 0.243206
O O13 0.000000 0.854896 0.202253
#
# Coordination Sequence:
#
# PCOD9493321 Si02
#       5
#    16   8  16  16  16
#     4   9  16  27  46  72  98 122 153 200 257 311
#     4  11  24  40  56  74  98 131 174 220 260 302
#     4   9  17  31  54  84 113 136 162 204 259 314
#     4   9  19  32  47  73 104 131 163 206 254 304
#     4  11  20  32  51  71  98 136 174 208 248 300
#
# _framework density 17.717791999999999
#
# number of rings (size 3 to 8) (size 9 to 14) (size 15 to 20)
#    0.000    2.333    0.000    6.667    0.000    6.222 
#    0.000    1.111    0.000    2.667    0.000    0.000 
#    0.000    5.333    0.000    0.000    0.000    0.000 
#
# Total GULP energy -200602.756359 kJ/mol
# GULP energy per Si atom -5572.298788 kJ/mol
# Density = 1.767747 g / cm^3
# Si number density = 17.717792 Si / 1000 Ang^3
#
#
#
# Elastic Constant Matrix: (Units=GPa)
#
#
# Indices 1 2 3 4 5 6 
#
# 1 96.7423 32.2319 18.2085 0.0000 0.0000 0.0000
# 2 32.2319 54.7392 34.9955 0.0000 0.0000 0.0000
# 3 18.2085 34.9955 138.5220 0.0000 0.0000 0.0000
# 4 0.0000 0.0000 0.0000 2.9809 0.0000 0.0000
# 5 0.0000 0.0000 0.0000 0.0000 15.3266 0.0000
# 6 0.0000 0.0000 0.0000 0.0000 0.0000 20.1155
#
#
#
# Elastic Compliance Matrix: (Units=1/GPa)
#
#
# Indices 1 2 3 4 5 6 
#
# 1 0.012868 -0.007747 0.000266 0.000000 0.000000 0.000000
# 2 -0.007747 0.026451 -0.005664 0.000000 0.000000 0.000000
# 3 0.000266 -0.005664 0.008615 0.000000 0.000000 0.000000
# 4 0.000000 0.000000 0.000000 0.335473 0.000000 0.000000
# 5 0.000000 0.000000 0.000000 0.000000 0.065246 0.000000
# 6 0.000000 0.000000 0.000000 0.000000 0.000000 0.049713
#
#
# Mechanical properties :
#
#
# Convention : Reuss Voigt Hill
#
# Bulk Modulus (GPa) = 46.20331 51.20838 48.70584
# Shear Modulus (GPa) = 9.40079 21.32244 15.36161
#
# Velocity S-wave (km/s) = 2.30594 3.47284 2.94771
# Velocity P-wave (km/s) = 5.76401 6.71162 6.25578
#
# Compressibility (1/GPa) = 0.02164347
#
# Stress axis : x y z
#
# Youngs Moduli (GPa) = 77.71380 37.80564 116.07490
#
# Poissons Ratio (x) = 0.29287 -0.03083
# Poissons Ratio (y) = 0.60202 0.65747
# Poissons Ratio (z) = -0.02064 0.21414
#
# Static dielectric constant tensor:
#      x y z
#    x 1.700810 0.000000 0.000000 
#    y 0.000000 1.583420 0.000000 
#    z 0.000000 0.000000 1.606630 
# 
# From -- ./inp_files/39750.got.cif
#   From: 2010.05.17/outbox.cif.g08.bks.cpg/sg65_20_cif.got.tgz:39750.got - 2010.06.03 17:01:31.
