data_PCOD9493735
_publ_section_title
;
Structure prediction by ZEFSAII (Michael W. Deem and Ramdas Pophale) SiO2 
 PCOD9493735
Probable space group: C M M M
;
_chemical_formula_sum "Si O2"
_cell_formula_units_Z 96
_cell_length_a 25.843157
_cell_length_b 7.584792
_cell_length_c 19.303923
_cell_angle_alpha 90.000000
_cell_angle_beta 90.000000
_cell_angle_gamma 90.000000
_cell_volume 3783.857897
_symmetry_space_group_name_H-M "C M M M"
_symmetry_group_IT_number 65
_symmetry_cell_setting 'orthorhombic'
loop_
_space_group_symop_operation_xyz
x,y,z
-x,-y,z
x,-y,-z
-x,y,-z
-x,-y,-z
x,y,-z
-x,y,z
x,-y,z
1/2+x,1/2+y,z
1/2-x,1/2-y,z
1/2+x,1/2-y,-z
1/2-x,1/2+y,-z
1/2-x,1/2-y,-z
1/2+x,1/2+y,-z
1/2-x,1/2+y,z
1/2+x,1/2-y,z
loop_
_atom_site_type_symbol
_atom_site_label
_atom_site_fract_x
_atom_site_fract_y
_atom_site_fract_z
Si Si1 0.055940 0.715792 0.775220
Si Si2 0.666841 0.214124 0.275996
Si Si3 0.827630 0.701497 0.577493
Si Si4 0.693191 0.297769 0.120124
Si Si5 0.055790 0.797453 0.582849
Si Si6 0.583537 0.798356 0.925490
O O1 0.057111 0.500000 0.775425
O O2 0.106718 0.770589 0.733731
O O3 0.062214 0.779038 0.854376
O O4 0.000000 0.773623 0.750045
O O5 0.689970 0.281904 0.348913
O O6 0.691940 0.269919 0.203460
O O7 0.668685 0.000000 0.278013
O O8 0.818370 0.779565 0.500000
O O9 0.808957 0.500000 0.574065
O O10 0.889856 0.698866 0.590502
O O11 0.682668 0.500000 0.105245
O O12 0.750000 0.250000 0.094722
O O13 0.645404 0.196540 0.086579
O O14 0.052109 0.808121 0.500000
O O15 0.000000 0.720519 0.605585
O O16 0.060210 0.000000 0.607649
O O17 0.564757 0.000000 0.927360
O O18 0.571739 0.716748 0.000000
#
# Coordination Sequence:
#
# PCOD9493735 Si02
#       6
#    16  16  16  16  16  16
#     4   8  14  26  46  72 102 140 183 218 247 284
#     4   9  18  33  51  73 103 135 172 217 260 308
#     4   9  17  28  44  67  94 126 164 210 264 314
#     4  11  22  37  58  80 103 132 167 207 256 312
#     4   8  14  24  36  52  80 119 159 198 242 294
#     4   9  18  33  53  79 111 143 176 214 253 296
#
# _framework density 25.370933000000001
#
# number of rings (size 3 to 8) (size 9 to 14) (size 15 to 20)
#    0.000    3.000    0.000    3.000    0.000    2.667 
#    0.000    5.000    0.000    8.500    0.000    4.667 
#    0.000    0.000    0.000    0.000    0.000    0.000 
#
# Total GULP energy -267824.867516 kJ/mol
# GULP energy per Si atom -5579.684740 kJ/mol
# Density = 2.531319 g / cm^3
# Si number density = 25.370933 Si / 1000 Ang^3
#
#
#
# Elastic Constant Matrix: (Units=GPa)
#
#
# Indices 1 2 3 4 5 6 
#
# 1 106.8252 -4.8675 -3.5655 0.0000 0.0000 0.0000
# 2 -4.8675 78.3179 -0.3106 0.0000 0.0000 0.0000
# 3 -3.5655 -0.3106 173.2766 0.0000 0.0000 0.0000
# 4 0.0000 0.0000 0.0000 1.6878 0.0000 0.0000
# 5 0.0000 0.0000 0.0000 0.0000 -21.3228 0.0000
# 6 0.0000 0.0000 0.0000 0.0000 0.0000 5.6744
#
#
#
# Elastic Compliance Matrix: (Units=1/GPa)
#
#
# Indices 1 2 3 4 5 6 
#
# 1 0.009394 0.000585 0.000194 0.000000 0.000000 0.000000
# 2 0.000585 0.012805 0.000035 0.000000 0.000000 0.000000
# 3 0.000194 0.000035 0.005775 0.000000 0.000000 0.000000
# 4 0.000000 0.000000 0.000000 0.592490 0.000000 0.000000
# 5 0.000000 0.000000 0.000000 0.000000 -0.046898 0.000000
# 6 0.000000 0.000000 0.000000 0.000000 0.000000 0.176229
#
#
# Mechanical properties :
#
#
# Convention : Reuss Voigt Hill
#
# Bulk Modulus (GPa) = 33.78120 37.88140 35.83130
# Shear Modulus (GPa) = 6.59600 21.68545 14.14073
#
# Velocity S-wave (km/s) = 1.61415 2.92676 2.36341
# Velocity P-wave (km/s) = 4.10095 5.13660 4.64771
#
# Compressibility (1/GPa) = 0.02960226
#
# Stress axis : x y z
#
# Youngs Moduli (GPa) = 106.44850 78.09483 173.15476
#
# Poissons Ratio (x) = -0.04566 -0.03365
# Poissons Ratio (y) = -0.06223 -0.00606
# Poissons Ratio (z) = -0.02069 -0.00273
#
# Static dielectric constant tensor:
#      x y z
#    x 1.908660 0.000000 0.000000 
#    y 0.000000 1.966760 0.000000 
#    z 0.000000 0.000000 2.042820 
# 
# From -- ./inp_files/60257.got.cif
#   From: 2010.05.17/outbox.cif.g08.bks.cpg/sg65_31_cif.got.tgz:60257.got - 2010.06.03 17:01:31.
