data_PCOD9493322
_publ_section_title
;
Structure prediction by ZEFSAII (Michael W. Deem and Ramdas Pophale) SiO2 
 PCOD9493322
Probable space group: C M M M
;
_chemical_formula_sum "Si O2"
_cell_formula_units_Z 120
_cell_length_a 23.245643
_cell_length_b 24.051291
_cell_length_c 13.784733
_cell_angle_alpha 90.000000
_cell_angle_beta 90.000000
_cell_angle_gamma 90.000000
_cell_volume 7706.875003
_symmetry_space_group_name_H-M "C M M M"
_symmetry_group_IT_number 65
_symmetry_cell_setting 'orthorhombic'
loop_
_space_group_symop_operation_xyz
x,y,z
-x,-y,z
x,-y,-z
-x,y,-z
-x,-y,-z
x,y,-z
-x,y,z
x,-y,z
1/2+x,1/2+y,z
1/2-x,1/2-y,z
1/2+x,1/2-y,-z
1/2-x,1/2+y,-z
1/2-x,1/2-y,-z
1/2+x,1/2+y,-z
1/2-x,1/2+y,z
1/2+x,1/2-y,z
loop_
_atom_site_type_symbol
_atom_site_label
_atom_site_fract_x
_atom_site_fract_y
_atom_site_fract_z
Si Si1 0.067811 0.764327 0.781269
Si Si2 0.844620 0.742209 0.614550
Si Si3 0.781321 0.934322 0.771615
Si Si4 0.338326 0.062958 0.884653
Si Si5 0.115780 0.127715 0.117226
Si Si6 0.563689 0.853813 0.883231
Si Si7 0.753862 0.842972 0.385499
Si Si8 0.000000 0.061991 0.117041
O O1 0.099703 0.751179 0.680363
O O2 0.103554 0.811959 0.837028
O O3 0.070156 0.708122 0.843723
O O4 0.000000 0.779529 0.770874
O O5 0.857690 0.737709 0.500000
O O6 0.803083 0.795860 0.627149
O O7 0.805733 0.688452 0.642593
O O8 0.722544 0.931520 0.832853
O O9 0.831321 0.904454 0.833661
O O10 0.769692 0.896896 0.676653
O O11 0.794029 0.000000 0.753877
O O12 0.385301 0.106645 0.848943
O O13 0.359641 0.000000 0.869747
O O14 0.330071 0.070723 0.000000
O O15 0.057975 0.093727 0.142207
O O16 0.122160 0.130550 0.000000
O O17 0.500000 0.874309 0.854543
O O18 0.565588 0.852696 0.000000
O O19 0.750498 0.855596 0.500000
O O20 0.000000 0.000000 0.157273
O O21 0.000000 0.058886 0.000000
#
# Coordination Sequence:
#
# PCOD9493322 Si02
#       8
#    16  16  16  16  16  16  16   8
#     4  11  20  32  51  74 102 131 163 210 258 298
#     4   9  18  34  55  75  96 124 160 203 248 298
#     4  11  21  33  51  74 102 132 164 209 257 299
#     4   9  18  32  48  69  99 132 165 201 243 295
#     4  11  21  33  48  70  99 135 176 213 254 300
#     4   9  18  31  48  71  99 131 165 201 243 294
#     4   9  18  34  55  75  96 124 160 203 248 297
#     4   9  18  32  48  64  87 125 174 216 245 288
#
# _framework density 15.570513999999999
#
# number of rings (size 3 to 8) (size 9 to 14) (size 15 to 20)
#    0.000    2.200    2.000    2.800    0.000    2.667 
#    0.000    1.333    0.000    3.200    0.000    0.000 
#    0.000    4.267    0.000   24.800    0.000    0.267 
#
# Total GULP energy -334319.474308 kJ/mol
# GULP energy per Si atom -5571.991238 kJ/mol
# Density = 1.553507 g / cm^3
# Si number density = 15.570514 Si / 1000 Ang^3
#
#
#
# Elastic Constant Matrix: (Units=GPa)
#
#
# Indices 1 2 3 4 5 6 
#
# 1 93.2289 64.5551 41.2178 0.0000 0.0000 0.0000
# 2 64.5551 97.7523 46.6120 0.0000 0.0000 0.0000
# 3 41.2178 46.6120 58.6714 0.0000 0.0000 0.0000
# 4 0.0000 0.0000 0.0000 22.8001 0.0000 0.0000
# 5 0.0000 0.0000 0.0000 0.0000 23.3407 0.0000
# 6 0.0000 0.0000 0.0000 0.0000 0.0000 28.5858
#
#
#
# Elastic Compliance Matrix: (Units=1/GPa)
#
#
# Indices 1 2 3 4 5 6 
#
# 1 0.021004 -0.011003 -0.006014 0.000000 0.000000 0.000000
# 2 -0.011003 0.022233 -0.009933 0.000000 0.000000 0.000000
# 3 -0.006014 -0.009933 0.029161 0.000000 0.000000 0.000000
# 4 0.000000 0.000000 0.000000 0.043859 0.000000 0.000000
# 5 0.000000 0.000000 0.000000 0.000000 0.042844 0.000000
# 6 0.000000 0.000000 0.000000 0.000000 0.000000 0.034982
#
#
# Mechanical properties :
#
#
# Convention : Reuss Voigt Hill
#
# Bulk Modulus (GPa) = 54.06412 61.60248 57.83330
# Shear Modulus (GPa) = 19.67337 21.42982 20.55159
#
# Velocity S-wave (km/s) = 3.55843 3.71389 3.63699
# Velocity P-wave (km/s) = 7.18893 7.61840 7.40678
#
# Compressibility (1/GPa) = 0.01849655
#
# Stress axis : x y z
#
# Youngs Moduli (GPa) = 47.60902 44.97825 34.29270
#
# Poissons Ratio (x) = 0.49491 0.20625
# Poissons Ratio (y) = 0.52386 0.34063
# Poissons Ratio (z) = 0.28634 0.44677
#
# Static dielectric constant tensor:
#      x y z
#    x 1.514630 0.000000 0.000000 
#    y 0.000000 1.519000 0.000000 
#    z 0.000000 0.000000 1.496820 
# 
# From -- ./inp_files/29438.got.cif
#   From: 2010.05.17/outbox.cif.g08.bks.cpg/sg65_15_cif.got.tgz:29438.got - 2010.06.03 17:01:31.
