data_PCOD9493292
_publ_section_title
;
Structure prediction by ZEFSAII (Michael W. Deem and Ramdas Pophale) SiO2 
 PCOD9493292
Probable space group: C M M M
;
_chemical_formula_sum "Si O2"
_cell_formula_units_Z 52
_cell_length_a 20.668755
_cell_length_b 13.370508
_cell_length_c 11.205444
_cell_angle_alpha 90.000000
_cell_angle_beta 90.000000
_cell_angle_gamma 90.000000
_cell_volume 3096.644105
_symmetry_space_group_name_H-M "C M M M"
_symmetry_group_IT_number 65
_symmetry_cell_setting 'orthorhombic'
loop_
_space_group_symop_operation_xyz
x,y,z
-x,-y,z
x,-y,-z
-x,y,-z
-x,-y,-z
x,y,-z
-x,y,z
x,-y,z
1/2+x,1/2+y,z
1/2-x,1/2-y,z
1/2+x,1/2-y,-z
1/2-x,1/2+y,-z
1/2-x,1/2-y,-z
1/2+x,1/2+y,-z
1/2-x,1/2+y,z
1/2+x,1/2-y,z
loop_
_atom_site_type_symbol
_atom_site_label
_atom_site_fract_x
_atom_site_fract_y
_atom_site_fract_z
Si Si1 0.162274 0.178326 0.357486
Si Si2 0.739075 0.134197 0.000000
Si Si3 0.803870 0.388686 0.735138
Si Si4 0.423613 0.500000 0.741271
Si Si5 0.136849 0.000000 0.000000
O O1 0.163615 0.184588 0.500000
O O2 0.156190 0.290944 0.305246
O O3 0.231274 0.134435 0.312748
O O4 0.108987 0.099012 0.315070
O O5 0.750000 0.250000 0.000000
O O6 0.702584 0.107960 0.878354
O O7 0.811195 0.089419 0.000000
O O8 0.823965 0.500000 0.693417
O O9 0.500000 0.500000 0.723542
O O10 0.405009 0.500000 0.881008
#
# Coordination Sequence:
#
# PCOD9493292 Si02
#       5
#    16   8  16   8   4
#     4  11  22  34  51  79 111 149 188 227 279 335
#     4  12  16  29  55  79 117 146 173 227 285 339
#     4  11  19  32  53  83 114 146 177 228 288 343
#     4  12  24  40  59  79 110 150 196 241 279 330
#     4  12  19  38  52  84 114 138 185 224 282 338
#
# _framework density 16.792373000000001
#
# number of rings (size 3 to 8) (size 9 to 14) (size 15 to 20)
#    0.000    0.615    9.231    2.538    0.000    3.077 
#    0.000    0.000    0.000    0.923    0.000    2.154 
#    0.000    7.385    0.000    0.000    0.000    0.000 
#
# Total GULP energy -145051.485643 kJ/mol
# GULP energy per Si atom -5578.903294 kJ/mol
# Density = 1.675415 g / cm^3
# Si number density = 16.792373 Si / 1000 Ang^3
#
#
#
# Elastic Constant Matrix: (Units=GPa)
#
#
# Indices 1 2 3 4 5 6 
#
# 1 75.9157 52.7118 28.2246 0.0000 0.0000 0.0000
# 2 52.7118 201.0115 48.6427 0.0000 0.0000 0.0000
# 3 28.2246 48.6427 148.9069 0.0000 0.0000 0.0000
# 4 0.0000 0.0000 0.0000 13.4000 0.0000 0.0000
# 5 0.0000 0.0000 0.0000 0.0000 -4.1219 0.0000
# 6 0.0000 0.0000 0.0000 0.0000 0.0000 16.0098
#
#
#
# Elastic Compliance Matrix: (Units=1/GPa)
#
#
# Indices 1 2 3 4 5 6 
#
# 1 0.016571 -0.003893 -0.001869 0.000000 0.000000 0.000000
# 2 -0.003893 0.006316 -0.001325 0.000000 0.000000 0.000000
# 3 -0.001869 -0.001325 0.007503 0.000000 0.000000 0.000000
# 4 0.000000 0.000000 0.000000 0.074627 0.000000 0.000000
# 5 0.000000 0.000000 0.000000 0.000000 -0.242608 0.000000
# 6 0.000000 0.000000 0.000000 0.000000 0.000000 0.062462
#
#
# Mechanical properties :
#
#
# Convention : Reuss Voigt Hill
#
# Bulk Modulus (GPa) = 61.67283 76.11027 68.89155
# Shear Modulus (GPa) = -90.01075 24.80791 -32.60142
#
# Velocity S-wave (km/s) = -7.32929 3.84778 -4.41096
# Velocity P-wave (km/s) = 5.90070 8.07237 3.89519
#
# Compressibility (1/GPa) = 0.01621460
#
# Stress axis : x y z
#
# Youngs Moduli (GPa) = 60.34808 158.31633 133.28216
#
# Poissons Ratio (x) = 0.61633 0.24913
# Poissons Ratio (y) = 0.23494 0.17666
# Poissons Ratio (z) = 0.11280 0.20984
#
# Static dielectric constant tensor:
#      x y z
#    x 1.516360 0.000000 0.000000 
#    y 0.000000 1.616550 0.000000 
#    z 0.000000 0.000000 1.594760 
# 
# From -- ./inp_files/28232.got.cif
#   From: 2010.05.17/outbox.cif.g08.bks.cpg/sg65_15_cif.got.tgz:28232.got - 2010.06.03 17:01:31.
