data_PCOD9493027
_publ_section_title
;
Structure prediction by ZEFSAII (Michael W. Deem and Ramdas Pophale) SiO2 
 PCOD9493027
Probable space group: C M M M
;
_chemical_formula_sum "Si O2"
_cell_formula_units_Z 68
_cell_length_a 10.158620
_cell_length_b 23.704190
_cell_length_c 16.019468
_cell_angle_alpha 90.000000
_cell_angle_beta 90.000000
_cell_angle_gamma 90.000000
_cell_volume 3857.517668
_symmetry_space_group_name_H-M "C M M M"
_symmetry_group_IT_number 65
_symmetry_cell_setting 'orthorhombic'
loop_
_space_group_symop_operation_xyz
x,y,z
-x,-y,z
x,-y,-z
-x,y,-z
-x,-y,-z
x,y,-z
-x,y,z
x,-y,z
1/2+x,1/2+y,z
1/2-x,1/2-y,z
1/2+x,1/2-y,-z
1/2-x,1/2+y,-z
1/2-x,1/2-y,-z
1/2+x,1/2+y,-z
1/2-x,1/2+y,z
1/2+x,1/2-y,z
loop_
_atom_site_type_symbol
_atom_site_label
_atom_site_fract_x
_atom_site_fract_y
_atom_site_fract_z
Si Si1 0.247784 0.898670 0.704676
Si Si2 0.500000 0.930801 0.401162
Si Si3 0.661395 0.306078 0.166854
Si Si4 0.651519 0.000000 0.187328
Si Si5 0.776691 0.500000 0.000000
Si Si6 0.500000 0.567442 0.405309
Si Si7 0.656122 0.375994 0.000000
O O1 0.374864 0.903863 0.645420
O O2 0.210955 0.841801 0.753353
O O3 0.274239 0.945975 0.775413
O O4 0.126473 0.914305 0.646238
O O5 0.500000 0.918728 0.500000
O O6 0.500000 0.000000 0.394583
O O7 0.500000 0.297658 0.169734
O O8 0.750000 0.250000 0.163013
O O9 0.694660 0.342418 0.083701
O O10 0.500000 0.000000 0.215898
O O11 0.649574 0.000000 0.087875
O O12 0.700025 0.559255 0.000000
O O13 0.500000 0.500000 0.409582
O O14 0.500000 0.589534 0.500000
O O15 0.500000 0.376422 0.000000
#
# Coordination Sequence:
#
# PCOD9493027 Si02
#       7
#    16   8  16   8   4   8   8
#     4  12  21  39  63  90 130 163 208 258 305 377
#     4  11  22  38  63  97 132 167 200 248 320 389
#     4  11  25  43  65  90 122 168 219 264 306 357
#     4  12  23  38  57  93 131 173 211 244 307 369
#     4  12  22  38  62  94 138 169 189 250 322 367
#     4  11  22  36  61  99 130 157 194 254 324 385
#     4  10  22  40  62  96 128 162 207 252 306 372
#
# _framework density 17.627917
#
# number of rings (size 3 to 8) (size 9 to 14) (size 15 to 20)
#    0.000    0.706    7.059    1.412    1.647    1.882 
#    2.118    0.000    0.000    4.235    0.000    0.000 
#    0.000    0.000    0.000    0.000    0.000    0.000 
#
# Total GULP energy -189670.176662 kJ/mol
# GULP energy per Si atom -5578.534608 kJ/mol
# Density = 1.758779 g / cm^3
# Si number density = 17.627917 Si / 1000 Ang^3
#
#
#
# Elastic Constant Matrix: (Units=GPa)
#
#
# Indices 1 2 3 4 5 6 
#
# 1 137.6292 61.7665 75.7529 0.0000 0.0000 0.0000
# 2 61.7665 133.6275 61.9693 0.0000 0.0000 0.0000
# 3 75.7529 61.9693 171.0453 0.0000 0.0000 0.0000
# 4 0.0000 0.0000 0.0000 21.1795 0.0000 0.0000
# 5 0.0000 0.0000 0.0000 0.0000 34.2943 0.0000
# 6 0.0000 0.0000 0.0000 0.0000 0.0000 15.0136
#
#
#
# Elastic Compliance Matrix: (Units=1/GPa)
#
#
# Indices 1 2 3 4 5 6 
#
# 1 0.010697 -0.003302 -0.003541 0.000000 0.000000 0.000000
# 2 -0.003302 0.010014 -0.002166 0.000000 0.000000 0.000000
# 3 -0.003541 -0.002166 0.008199 0.000000 0.000000 0.000000
# 4 0.000000 0.000000 0.000000 0.047215 0.000000 0.000000
# 5 0.000000 0.000000 0.000000 0.000000 0.029159 0.000000
# 6 0.000000 0.000000 0.000000 0.000000 0.000000 0.066606
#
#
# Mechanical properties :
#
#
# Convention : Reuss Voigt Hill
#
# Bulk Modulus (GPa) = 91.80620 93.47549 92.64085
# Shear Modulus (GPa) = 25.83444 30.28506 28.05975
#
# Velocity S-wave (km/s) = 3.83239 4.14939 3.99404
# Velocity P-wave (km/s) = 8.47207 8.72346 8.59868
#
# Compressibility (1/GPa) = 0.01089251
#
# Stress axis : x y z
#
# Youngs Moduli (GPa) = 93.48416 99.85832 121.96200
#
# Poissons Ratio (x) = 0.32976 0.43188
# Poissons Ratio (y) = 0.30871 0.26412
# Poissons Ratio (z) = 0.33104 0.21625
#
# Static dielectric constant tensor:
#      x y z
#    x 1.395030 0.000000 0.000000 
#    y 0.000000 1.604760 0.000000 
#    z 0.000000 0.000000 1.616790 
# 
# From -- ./inp_files/49294.got.cif
#   From: 2010.05.17/outbox.cif.g08.bks.cpg/sg65_25_cif.got.tgz:49294.got - 2010.06.03 17:01:31.
