data_PCOD9493841
_publ_section_title
;
Structure prediction by ZEFSAII (Michael W. Deem and Ramdas Pophale) SiO2 
 PCOD9493841
Probable space group: C M M M
;
_chemical_formula_sum "Si O2"
_cell_formula_units_Z 88
_cell_length_a 11.843266
_cell_length_b 17.549441
_cell_length_c 22.970742
_cell_angle_alpha 90.000000
_cell_angle_beta 90.000000
_cell_angle_gamma 90.000000
_cell_volume 4774.300990
_symmetry_space_group_name_H-M "C M M M"
_symmetry_group_IT_number 65
_symmetry_cell_setting 'orthorhombic'
loop_
_space_group_symop_operation_xyz
x,y,z
-x,-y,z
x,-y,-z
-x,y,-z
-x,-y,-z
x,y,-z
-x,y,z
x,-y,z
1/2+x,1/2+y,z
1/2-x,1/2-y,z
1/2+x,1/2-y,-z
1/2-x,1/2+y,-z
1/2-x,1/2-y,-z
1/2+x,1/2+y,-z
1/2-x,1/2+y,z
1/2+x,1/2-y,z
loop_
_atom_site_type_symbol
_atom_site_label
_atom_site_fract_x
_atom_site_fract_y
_atom_site_fract_z
Si Si1 0.633018 0.408811 0.932474
Si Si2 0.000000 0.911294 0.626362
Si Si3 0.500000 0.410396 0.766531
Si Si4 0.132788 0.409147 0.500000
Si Si5 0.772948 0.839702 0.820050
Si Si6 0.241365 0.159389 0.610868
Si Si7 0.868466 0.409232 0.721449
O O1 0.500000 0.391060 0.921667
O O2 0.645199 0.500000 0.924873
O O3 0.711052 0.365870 0.886549
O O4 0.656853 0.390963 0.000000
O O5 0.886930 0.869457 0.606129
O O6 0.000000 0.909744 0.696747
O O7 0.000000 0.000000 0.608184
O O8 0.500000 0.500000 0.785278
O O9 0.389189 0.367633 0.789643
O O10 0.147888 0.500000 0.500000
O O11 0.188886 0.374972 0.557463
O O12 0.000000 0.392447 0.500000
O O13 0.750000 0.750000 0.815759
O O14 0.675187 0.881848 0.784063
O O15 0.250000 0.250000 0.609900
O O16 0.294120 0.129391 0.671299
O O17 0.854383 0.500000 0.716764
O O18 0.000000 0.390316 0.713132
#
# Coordination Sequence:
#
# PCOD9493841 Si02
#       7
#    16   8   8   8  16  16  16
#     4   9  18  35  61  89 117 157 211 261 308 372
#     4  11  24  41  68  98 129 166 209 259 322 379
#     4  11  22  40  64  90 124 168 211 251 311 382
#     4  11  25  47  71  89 123 173 215 247 303 389
#     4  12  24  35  61  91 129 161 205 261 318 362
#     4  12  26  42  67  97 131 161 207 268 318 365
#     4  11  24  41  63  90 126 168 211 251 302 380
#
# _framework density 18.432016999999998
#
# number of rings (size 3 to 8) (size 9 to 14) (size 15 to 20)
#    0.000    1.000    2.727    5.182    3.818    2.182 
#    0.000    0.909    0.000    0.545    0.000    2.545 
#    0.000    0.000    0.000    0.000    0.000    0.000 
#
# Total GULP energy -246051.045886 kJ/mol
# GULP energy per Si atom -5592.069225 kJ/mol
# Density = 1.839007 g / cm^3
# Si number density = 18.432017 Si / 1000 Ang^3
#
#
#
# Elastic Constant Matrix: (Units=GPa)
#
#
# Indices 1 2 3 4 5 6 
#
# 1 125.9389 97.8908 50.9636 0.0000 0.0000 0.0000
# 2 97.8908 114.8814 47.6369 0.0000 0.0000 0.0000
# 3 50.9636 47.6369 102.2632 0.0000 0.0000 0.0000
# 4 0.0000 0.0000 0.0000 -426.9280 0.0000 0.0000
# 5 0.0000 0.0000 0.0000 0.0000 -5.3002 0.0000
# 6 0.0000 0.0000 0.0000 0.0000 0.0000 22.7496
#
#
#
# Elastic Compliance Matrix: (Units=1/GPa)
#
#
# Indices 1 2 3 4 5 6 
#
# 1 0.024259 -0.019407 -0.003049 0.000000 0.000000 0.000000
# 2 -0.019407 0.026313 -0.002586 0.000000 0.000000 0.000000
# 3 -0.003049 -0.002586 0.012503 0.000000 0.000000 0.000000
# 4 0.000000 0.000000 0.000000 -0.002342 0.000000 0.000000
# 5 0.000000 0.000000 0.000000 0.000000 -0.188672 0.000000
# 6 0.000000 0.000000 0.000000 0.000000 0.000000 0.043957
#
#
# Mechanical properties :
#
#
# Convention : Reuss Voigt Hill
#
# Bulk Modulus (GPa) = 76.97584 81.78510 79.38047
# Shear Modulus (GPa) = -169.10202 -72.12291 -120.61246
#
# Velocity S-wave (km/s) = -9.58868 -6.26212 -8.09805
# Velocity P-wave (km/s) = 8.98542 2.79605 6.65416
#
# Compressibility (1/GPa) = 0.01299109
#
# Stress axis : x y z
#
# Youngs Moduli (GPa) = 41.22203 38.00354 79.98034
#
# Poissons Ratio (x) = 0.73752 0.24390
# Poissons Ratio (y) = 0.79998 0.20683
# Poissons Ratio (z) = 0.12571 0.09828
#
# Static dielectric constant tensor:
#      x y z
#    x 1.623060 0.000000 0.000000 
#    y 0.000000 1.599220 0.000000 
#    z 0.000000 0.000000 1.634490 
# 
# From -- ./inp_files/68968.got.cif
#   From: 2010.05.17/outbox.cif.g08.bks.cpg/sg65_35_cif.got.tgz:68968.got - 2010.06.03 17:01:31.
