data_PCOD9493978
_publ_section_title
;
Structure prediction by ZEFSAII (Michael W. Deem and Ramdas Pophale) SiO2 
 PCOD9493978
Probable space group: C M M M
;
_chemical_formula_sum "Si O2"
_cell_formula_units_Z 56
_cell_length_a 9.757697
_cell_length_b 17.251615
_cell_length_c 16.958430
_cell_angle_alpha 90.000000
_cell_angle_beta 90.000000
_cell_angle_gamma 90.000000
_cell_volume 2854.714814
_symmetry_space_group_name_H-M "C M M M"
_symmetry_group_IT_number 65
_symmetry_cell_setting 'orthorhombic'
loop_
_space_group_symop_operation_xyz
x,y,z
-x,-y,z
x,-y,-z
-x,y,-z
-x,-y,-z
x,y,-z
-x,y,z
x,-y,z
1/2+x,1/2+y,z
1/2-x,1/2-y,z
1/2+x,1/2-y,-z
1/2-x,1/2+y,-z
1/2-x,1/2-y,-z
1/2+x,1/2+y,-z
1/2-x,1/2+y,z
1/2+x,1/2-y,z
loop_
_atom_site_type_symbol
_atom_site_label
_atom_site_fract_x
_atom_site_fract_y
_atom_site_fract_z
Si Si1 0.500000 0.372194 0.907105
Si Si2 0.165242 0.087955 0.500000
Si Si3 0.833068 0.170145 0.664777
Si Si4 0.270328 0.087228 0.819976
Si Si5 0.000000 0.687967 0.095474
O O1 0.366901 0.410191 0.870836
O O2 0.500000 0.279852 0.888784
O O3 0.500000 0.380207 0.000000
O O4 0.200463 0.133253 0.420313
O O5 0.000000 0.082981 0.500000
O O6 0.219403 0.000000 0.500000
O O7 0.750000 0.250000 0.672425
O O8 0.775811 0.115158 0.733621
O O9 0.000000 0.178948 0.671745
O O10 0.371612 0.147147 0.862679
O O11 0.326869 0.000000 0.817943
O O12 0.000000 0.676629 0.000000
#
# Coordination Sequence:
#
# PCOD9493978 Si02
#       5
#     8   8  16  16   8
#     4  11  23  41  65  90 121 162 211 261 313 379
#     4   9  19  38  65  95 130 167 210 262 313 368
#     4  11  23  40  66  95 128 169 215 260 312 378
#     4  12  25  40  63  93 127 164 210 265 318 375
#     4  11  25  45  65  90 125 168 211 259 325 389
#
# _framework density 19.616669999999999
#
# number of rings (size 3 to 8) (size 9 to 14) (size 15 to 20)
#    0.000    1.000    1.429    5.571    2.000    6.857 
#    0.000    0.000    0.000    0.857    0.000    0.000 
#    0.000    0.000    0.000    0.000    0.000    0.000 
#
# Total GULP energy -156533.899872 kJ/mol
# GULP energy per Si atom -5590.496424 kJ/mol
# Density = 1.957202 g / cm^3
# Si number density = 19.616670 Si / 1000 Ang^3
#
#
#
# Elastic Constant Matrix: (Units=GPa)
#
#
# Indices 1 2 3 4 5 6 
#
# 1 79.3274 15.3056 27.0520 0.0000 0.0000 0.0000
# 2 15.3056 119.7107 59.6402 0.0000 0.0000 0.0000
# 3 27.0520 59.6402 128.7154 0.0000 0.0000 0.0000
# 4 0.0000 0.0000 0.0000 41.5210 0.0000 0.0000
# 5 0.0000 0.0000 0.0000 0.0000 34.6561 0.0000
# 6 0.0000 0.0000 0.0000 0.0000 0.0000 19.0425
#
#
#
# Elastic Compliance Matrix: (Units=1/GPa)
#
#
# Indices 1 2 3 4 5 6 
#
# 1 0.013595 -0.000409 -0.002668 0.000000 0.000000 0.000000
# 2 -0.000409 0.010873 -0.004952 0.000000 0.000000 0.000000
# 3 -0.002668 -0.004952 0.010624 0.000000 0.000000 0.000000
# 4 0.000000 0.000000 0.000000 0.024084 0.000000 0.000000
# 5 0.000000 0.000000 0.000000 0.000000 0.028855 0.000000
# 6 0.000000 0.000000 0.000000 0.000000 0.000000 0.052514
#
#
# Mechanical properties :
#
#
# Convention : Reuss Voigt Hill
#
# Bulk Modulus (GPa) = 52.53667 59.08324 55.80996
# Shear Modulus (GPa) = 30.68481 34.09430 32.38956
#
# Velocity S-wave (km/s) = 3.95931 4.17349 4.06781
# Velocity P-wave (km/s) = 6.90951 7.30810 7.11160
#
# Compressibility (1/GPa) = 0.01903432
#
# Stress axis : x y z
#
# Youngs Moduli (GPa) = 73.55850 91.97219 94.12469
#
# Poissons Ratio (x) = 0.03763 0.25109
# Poissons Ratio (y) = 0.03010 0.46610
# Poissons Ratio (z) = 0.19622 0.45544
#
# Static dielectric constant tensor:
#      x y z
#    x 1.663580 0.000000 0.000000 
#    y 0.000000 1.677570 0.000000 
#    z 0.000000 0.000000 1.666890 
# 
# From -- ./inp_files/35509.got.cif
#   From: 2010.05.17/outbox.cif.g08.bks.cpg/sg65_18_cif.got.tgz:35509.got - 2010.06.03 17:01:31.
