data_PCOD9493618
_publ_section_title
;
Structure prediction by ZEFSAII (Michael W. Deem and Ramdas Pophale) SiO2 
 PCOD9493618
Probable space group: C M M M
;
_chemical_formula_sum "Si O2"
_cell_formula_units_Z 72
_cell_length_a 13.754490
_cell_length_b 29.681991
_cell_length_c 10.143630
_cell_angle_alpha 90.000000
_cell_angle_beta 90.000000
_cell_angle_gamma 90.000000
_cell_volume 4141.244961
_symmetry_space_group_name_H-M "C M M M"
_symmetry_group_IT_number 65
_symmetry_cell_setting 'orthorhombic'
loop_
_space_group_symop_operation_xyz
x,y,z
-x,-y,z
x,-y,-z
-x,y,-z
-x,-y,-z
x,y,-z
-x,y,z
x,-y,z
1/2+x,1/2+y,z
1/2-x,1/2-y,z
1/2+x,1/2-y,-z
1/2-x,1/2+y,-z
1/2-x,1/2-y,-z
1/2+x,1/2+y,-z
1/2-x,1/2+y,z
1/2+x,1/2-y,z
loop_
_atom_site_type_symbol
_atom_site_label
_atom_site_fract_x
_atom_site_fract_y
_atom_site_fract_z
Si Si1 0.394617 0.235486 0.659764
Si Si2 0.289294 0.675462 0.340342
Si Si3 0.884222 0.000000 0.159897
Si Si4 0.115153 0.445335 0.000000
Si Si5 0.743399 0.079238 0.752465
Si Si6 0.113265 0.554150 0.500000
O O1 0.394624 0.235257 0.500000
O O2 0.500000 0.222140 0.708852
O O3 0.368796 0.286860 0.695838
O O4 0.311287 0.200547 0.696017
O O5 0.292179 0.669059 0.500000
O O6 0.291403 0.627870 0.269407
O O7 0.827836 0.957271 0.221234
O O8 0.000000 0.000000 0.186715
O O9 0.871865 0.000000 0.000000
O O10 0.169846 0.425248 0.874305
O O11 0.127095 0.500000 0.000000
O O12 0.000000 0.436380 0.000000
O O13 0.675675 0.069323 0.625890
O O14 0.109345 0.500000 0.500000
O O15 0.000000 0.570337 0.500000
#
# Coordination Sequence:
#
# PCOD9493618 Si02
#       6
#    16  16   8   8  16   8
#     4   8  15  30  49  73 108 148 183 216 265 333
#     4   9  18  30  51  80 112 143 176 225 279 328
#     4  11  24  43  62  79 107 157 205 237 274 325
#     4  11  22  38  58  79 108 152 198 228 273 338
#     4  12  20  38  57  84 116 147 187 238 278 332
#     4  11  22  34  54  83 120 152 176 224 297 346
#
# _framework density 17.386077
#
# number of rings (size 3 to 8) (size 9 to 14) (size 15 to 20)
#    0.000    1.889    4.444    2.000    0.000    4.444 
#    0.000    1.111    0.000    2.667    0.000    1.556 
#    0.000    0.000    0.000    0.000    0.000    0.000 
#
# Total GULP energy -200670.435758 kJ/mol
# GULP energy per Si atom -5574.178771 kJ/mol
# Density = 1.734651 g / cm^3
# Si number density = 17.386077 Si / 1000 Ang^3
#
#
#
# Elastic Constant Matrix: (Units=GPa)
#
#
# Indices 1 2 3 4 5 6 
#
# 1 96.6254 13.5762 23.9263 0.0000 0.0000 0.0000
# 2 13.5762 101.1278 15.1313 0.0000 0.0000 0.0000
# 3 23.9263 15.1313 85.6459 0.0000 0.0000 0.0000
# 4 0.0000 0.0000 0.0000 13.4136 0.0000 0.0000
# 5 0.0000 0.0000 0.0000 0.0000 -142.6452 0.0000
# 6 0.0000 0.0000 0.0000 0.0000 0.0000 1.7051
#
#
#
# Elastic Compliance Matrix: (Units=1/GPa)
#
#
# Indices 1 2 3 4 5 6 
#
# 1 0.011229 -0.001066 -0.002949 0.000000 0.000000 0.000000
# 2 -0.001066 0.010258 -0.001514 0.000000 0.000000 0.000000
# 3 -0.002949 -0.001514 0.012767 0.000000 0.000000 0.000000
# 4 0.000000 0.000000 0.000000 0.074551 0.000000 0.000000
# 5 0.000000 0.000000 0.000000 0.000000 -0.007010 0.000000
# 6 0.000000 0.000000 0.000000 0.000000 0.000000 0.586489
#
#
# Mechanical properties :
#
#
# Convention : Reuss Voigt Hill
#
# Bulk Modulus (GPa) = 43.11107 43.18521 43.14814
# Shear Modulus (GPa) = 7.07138 -10.12095 -1.52478
#
# Velocity S-wave (km/s) = 2.01893 -2.41535 -0.93751
# Velocity P-wave (km/s) = 5.50318 4.13694 4.86823
#
# Compressibility (1/GPa) = 0.02319590
#
# Stress axis : x y z
#
# Youngs Moduli (GPa) = 89.05350 97.48271 78.32513
#
# Poissons Ratio (x) = 0.10395 0.23095
# Poissons Ratio (y) = 0.09496 0.11862
# Poissons Ratio (z) = 0.26259 0.14763
#
# Static dielectric constant tensor:
#      x y z
#    x 1.599200 0.000000 0.000000 
#    y 0.000000 1.587500 0.000000 
#    z 0.000000 0.000000 1.598640 
# 
# From -- ./inp_files/7408.got.cif
#   From: 2010.05.17/outbox.cif.g08.bks.cpg/sg65_4_cif.got.tgz:7408.got - 2010.06.03 17:01:31.
