data_PCOD9493769
_publ_section_title
;
Structure prediction by ZEFSAII (Michael W. Deem and Ramdas Pophale) SiO2 
 PCOD9493769
Probable space group: C M M M
;
_chemical_formula_sum "Si O2"
_cell_formula_units_Z 64
_cell_length_a 31.257179
_cell_length_b 8.844168
_cell_length_c 11.988784
_cell_angle_alpha 90.000000
_cell_angle_beta 90.000000
_cell_angle_gamma 90.000000
_cell_volume 3314.224314
_symmetry_space_group_name_H-M "C M M M"
_symmetry_group_IT_number 65
_symmetry_cell_setting 'orthorhombic'
loop_
_space_group_symop_operation_xyz
x,y,z
-x,-y,z
x,-y,-z
-x,y,-z
-x,-y,-z
x,y,-z
-x,y,z
x,-y,z
1/2+x,1/2+y,z
1/2-x,1/2-y,z
1/2+x,1/2-y,-z
1/2-x,1/2+y,-z
1/2-x,1/2-y,-z
1/2+x,1/2+y,-z
1/2-x,1/2+y,z
1/2+x,1/2-y,z
loop_
_atom_site_type_symbol
_atom_site_label
_atom_site_fract_x
_atom_site_fract_y
_atom_site_fract_z
Si Si1 0.294750 0.319728 0.765306
Si Si2 0.321448 0.821848 0.000000
Si Si3 0.950951 0.180557 0.234527
Si Si4 0.075400 0.322000 0.000000
Si Si5 0.873228 0.322258 0.632989
O O1 0.292491 0.500000 0.767643
O O2 0.250000 0.250000 0.725279
O O3 0.333755 0.264457 0.688896
O O4 0.303634 0.256134 0.889242
O O5 0.373015 0.807953 0.000000
O O6 0.310616 0.000000 0.000000
O O7 0.916867 0.257700 0.315640
O O8 0.000000 0.212359 0.266445
O O9 0.944573 0.000000 0.234449
O O10 0.942505 0.243863 0.110675
O O11 0.064847 0.500000 0.000000
O O12 0.872698 0.305770 0.500000
O O13 0.869699 0.500000 0.661549
#
# Coordination Sequence:
#
# PCOD9493769 Si02
#       5
#    16   8  16   8  16
#     4  12  25  42  67  96 129 167 208 256 313 374
#     4  11  22  39  64  96 132 166 206 255 312 374
#     4  11  24  41  64  95 130 167 209 258 313 375
#     4  11  22  37  64  95 129 168 207 255 312 375
#     4  11  25  45  67  92 124 164 213 265 314 369
#
# _framework density 19.310701999999999
#
# number of rings (size 3 to 8) (size 9 to 14) (size 15 to 20)
#    0.000    0.750    2.500    5.250    0.000    7.500 
#    0.000    2.500    0.000    0.000    0.000    0.000 
#    0.000    0.000    0.000    0.000    0.000    0.000 
#
# Total GULP energy -179165.488002 kJ/mol
# GULP energy per Si atom -5598.921500 kJ/mol
# Density = 1.926675 g / cm^3
# Si number density = 19.310702 Si / 1000 Ang^3
#
#
#
# Elastic Constant Matrix: (Units=GPa)
#
#
# Indices 1 2 3 4 5 6 
#
# 1 146.3160 96.1561 53.4850 0.0000 0.0000 0.0000
# 2 96.1561 174.0222 63.9114 0.0000 0.0000 0.0000
# 3 53.4850 63.9114 72.3398 0.0000 0.0000 0.0000
# 4 0.0000 0.0000 0.0000 -32.9926 0.0000 0.0000
# 5 0.0000 0.0000 0.0000 0.0000 -14.2941 0.0000
# 6 0.0000 0.0000 0.0000 0.0000 0.0000 37.1263
#
#
#
# Elastic Compliance Matrix: (Units=1/GPa)
#
#
# Indices 1 2 3 4 5 6 
#
# 1 0.011570 -0.004813 -0.004302 0.000000 0.000000 0.000000
# 2 -0.004813 0.010509 -0.005726 0.000000 0.000000 0.000000
# 3 -0.004302 -0.005726 0.022063 0.000000 0.000000 0.000000
# 4 0.000000 0.000000 0.000000 -0.030310 0.000000 0.000000
# 5 0.000000 0.000000 0.000000 0.000000 -0.069959 0.000000
# 6 0.000000 0.000000 0.000000 0.000000 0.000000 0.026935
#
#
# Mechanical properties :
#
#
# Convention : Reuss Voigt Hill
#
# Bulk Modulus (GPa) = 69.15635 91.08702 80.12169
# Shear Modulus (GPa) = 941.47842 9.90960 475.69401
#
# Velocity S-wave (km/s) = 22.10431 2.26778 15.71215
# Velocity P-wave (km/s) = 26.21751 7.35722 19.25469
#
# Compressibility (1/GPa) = 0.01445999
#
# Stress axis : x y z
#
# Youngs Moduli (GPa) = 86.42833 95.15917 45.32451
#
# Poissons Ratio (x) = 0.45801 0.19500
# Poissons Ratio (y) = 0.41599 0.25951
# Poissons Ratio (z) = 0.37184 0.54485
#
# Static dielectric constant tensor:
#      x y z
#    x 1.668170 0.000000 0.000000 
#    y 0.000000 1.644830 0.000000 
#    z 0.000000 0.000000 1.633060 
# 
# From -- ./inp_files/33264.got.cif
#   From: 2010.05.17/outbox.cif.g08.bks.cpg/sg65_17_cif.got.tgz:33264.got - 2010.06.03 17:01:31.
