data_PCOD9493215
_publ_section_title
;
Structure prediction by ZEFSAII (Michael W. Deem and Ramdas Pophale) SiO2 
 PCOD9493215
Probable space group: C M M M
;
_chemical_formula_sum "Si O2"
_cell_formula_units_Z 96
_cell_length_a 8.168261
_cell_length_b 23.950251
_cell_length_c 26.669835
_cell_angle_alpha 90.000000
_cell_angle_beta 90.000000
_cell_angle_gamma 90.000000
_cell_volume 5217.470525
_symmetry_space_group_name_H-M "C M M M"
_symmetry_group_IT_number 65
_symmetry_cell_setting 'orthorhombic'
loop_
_space_group_symop_operation_xyz
x,y,z
-x,-y,z
x,-y,-z
-x,y,-z
-x,-y,-z
x,y,-z
-x,y,z
x,-y,z
1/2+x,1/2+y,z
1/2-x,1/2-y,z
1/2+x,1/2-y,-z
1/2-x,1/2+y,-z
1/2-x,1/2-y,-z
1/2+x,1/2+y,-z
1/2-x,1/2+y,z
1/2+x,1/2-y,z
loop_
_atom_site_type_symbol
_atom_site_label
_atom_site_fract_x
_atom_site_fract_y
_atom_site_fract_z
Si Si1 0.305837 0.500000 0.865592
Si Si2 0.699999 0.618994 0.707247
Si Si3 0.804064 0.186353 0.805244
Si Si4 0.305774 0.881432 0.902333
Si Si5 0.299600 0.500000 0.250547
Si Si6 0.698579 0.185389 0.000000
Si Si7 0.197227 0.814594 0.500000
Si Si8 0.698315 0.314778 0.609775
O O1 0.500000 0.500000 0.861097
O O2 0.255709 0.555815 0.894510
O O3 0.242633 0.500000 0.807674
O O4 0.500000 0.618699 0.706128
O O5 0.751508 0.658105 0.753469
O O6 0.751925 0.556200 0.720846
O O7 0.756187 0.646197 0.655156
O O8 0.750000 0.250000 0.807720
O O9 0.737862 0.152447 0.852398
O O10 0.000000 0.183125 0.806696
O O11 0.500000 0.884152 0.907415
O O12 0.242108 0.847686 0.950650
O O13 0.500000 0.500000 0.249365
O O14 0.750000 0.250000 0.000000
O O15 0.500000 0.184841 0.000000
O O16 0.250000 0.750000 0.500000
O O17 0.254047 0.835609 0.554521
O O18 0.000000 0.818304 0.500000
O O19 0.500000 0.315208 0.610111
O O20 0.750000 0.250000 0.616610
#
# Coordination Sequence:
#
# PCOD9493215 Si02
#       8
#     8  16  16  16   8   8   8  16
#     4  11  21  38  62  85 109 140 180 220 259 312
#     4   9  17  29  48  71  98 132 170 211 258 309
#     4  11  21  34  52  78 107 138 174 215 265 321
#     4  11  23  40  60  83 110 142 177 218 264 310
#     4   9  16  31  52  73  97 131 172 209 248 303
#     4  10  24  43  62  83 111 144 178 216 261 316
#     4   8  14  24  40  63  93 127 165 206 249 300
#     4   9  16  27  44  68  97 130 166 207 255 305
#
# _framework density 18.399721
#
# number of rings (size 3 to 8) (size 9 to 14) (size 15 to 20)
#    0.000    2.167    1.667    2.250    0.000    3.000 
#    0.000    2.500    0.000    0.500    0.000    3.500 
#    0.000    0.000    0.000   12.250    0.000    8.500 
#
# Total GULP energy -267778.861838 kJ/mol
# GULP energy per Si atom -5578.726288 kJ/mol
# Density = 1.835784 g / cm^3
# Si number density = 18.399721 Si / 1000 Ang^3
#
#
#
# Elastic Constant Matrix: (Units=GPa)
#
#
# Indices 1 2 3 4 5 6 
#
# 1 14.3080 13.2649 16.2920 0.0000 0.0000 0.0000
# 2 13.2649 171.6320 101.6598 0.0000 0.0000 0.0000
# 3 16.2920 101.6598 195.2559 0.0000 0.0000 0.0000
# 4 0.0000 0.0000 0.0000 12.6573 0.0000 0.0000
# 5 0.0000 0.0000 0.0000 0.0000 -2.5014 0.0000
# 6 0.0000 0.0000 0.0000 0.0000 0.0000 13.1098
#
#
#
# Elastic Compliance Matrix: (Units=1/GPa)
#
#
# Indices 1 2 3 4 5 6 
#
# 1 0.078395 -0.003158 -0.004897 0.000000 0.000000 0.000000
# 2 -0.003158 0.008552 -0.004189 0.000000 0.000000 0.000000
# 3 -0.004897 -0.004189 0.007711 0.000000 0.000000 0.000000
# 4 0.000000 0.000000 0.000000 0.079006 0.000000 0.000000
# 5 0.000000 0.000000 0.000000 0.000000 -0.399783 0.000000
# 6 0.000000 0.000000 0.000000 0.000000 0.000000 0.076279
#
#
# Mechanical properties :
#
#
# Convention : Reuss Voigt Hill
#
# Bulk Modulus (GPa) = 14.25126 71.51438 42.88282
# Shear Modulus (GPa) = -49.03720 21.31843 -13.85938
#
# Velocity S-wave (km/s) = -5.16807 3.40756 -2.74750
# Velocity P-wave (km/s) = 5.27728 7.37790 3.64580
#
# Compressibility (1/GPa) = 0.07016923
#
# Stress axis : x y z
#
# Youngs Moduli (GPa) = 12.75595 116.93657 129.68491
#
# Poissons Ratio (x) = 0.36934 0.63504
# Poissons Ratio (y) = 0.04029 0.54323
# Poissons Ratio (z) = 0.06246 0.48983
#
# Static dielectric constant tensor:
#      x y z
#    x 1.649510 0.000000 0.000000 
#    y 0.000000 1.596260 0.000000 
#    z 0.000000 0.000000 1.659010 
# 
# From -- ./inp_files/67937.got.cif
#   From: 2010.05.17/outbox.cif.g08.bks.cpg/sg65_34_cif.got.tgz:67937.got - 2010.06.03 17:01:31.
