data_PCOD9493285
_publ_section_title
;
Structure prediction by ZEFSAII (Michael W. Deem and Ramdas Pophale) SiO2 
 PCOD9493285
Probable space group: C M M M
;
_chemical_formula_sum "Si O2"
_cell_formula_units_Z 80
_cell_length_a 27.334725
_cell_length_b 24.266604
_cell_length_c 8.638737
_cell_angle_alpha 90.000000
_cell_angle_beta 90.000000
_cell_angle_gamma 90.000000
_cell_volume 5730.255208
_symmetry_space_group_name_H-M "C M M M"
_symmetry_group_IT_number 65
_symmetry_cell_setting 'orthorhombic'
loop_
_space_group_symop_operation_xyz
x,y,z
-x,-y,z
x,-y,-z
-x,y,-z
-x,-y,-z
x,y,-z
-x,y,z
x,-y,z
1/2+x,1/2+y,z
1/2-x,1/2-y,z
1/2+x,1/2-y,-z
1/2-x,1/2+y,-z
1/2-x,1/2-y,-z
1/2+x,1/2+y,-z
1/2-x,1/2+y,z
1/2+x,1/2-y,z
loop_
_atom_site_type_symbol
_atom_site_label
_atom_site_fract_x
_atom_site_fract_y
_atom_site_fract_z
Si Si1 0.261727 0.116601 0.316953
Si Si2 0.896002 0.500000 0.811470
Si Si3 0.444417 0.115059 0.188944
Si Si4 0.298130 0.289310 0.820851
Si Si5 0.282080 0.000000 0.814461
Si Si6 0.353185 0.814252 0.812179
O O1 0.266596 0.113769 0.500000
O O2 0.216860 0.156587 0.271704
O O3 0.310564 0.145258 0.247442
O O4 0.258049 0.055798 0.247155
O O5 0.923497 0.444487 0.761831
O O6 0.839308 0.500000 0.763427
O O7 0.896139 0.500000 0.000000
O O8 0.500000 0.123374 0.241291
O O9 0.405369 0.161456 0.235746
O O10 0.444900 0.114647 0.000000
O O11 0.250000 0.250000 0.818242
O O12 0.340395 0.248126 0.762634
O O13 0.307179 0.304061 0.000000
O O14 0.281489 0.000000 0.000000
O O15 0.350325 0.814826 0.000000
#
# Coordination Sequence:
#
# PCOD9493285 Si02
#       6
#    16   8  16  16   8  16
#     4  11  20  28  40  60  81 101 132 169 207 243
#     4   9  15  23  38  56  76 102 136 173 205 235
#     4   9  15  23  38  61  82 101 136 182 213 233
#     4   8  15  27  42  57  76 102 133 164 199 245
#     4  11  19  30  45  57  78 110 139 166 203 244
#     4   9  16  28  43  59  78 105 137 168 204 246
#
# _framework density 13.960983000000001
#
# number of rings (size 3 to 8) (size 9 to 14) (size 15 to 20)
#    0.000    2.600    2.000    3.600    0.000    4.800 
#    0.000    0.000    0.000    0.600    0.000    1.400 
#    0.000    0.000    0.000    0.900    0.000   21.200 
#
# Total GULP energy -222819.160401 kJ/mol
# GULP energy per Si atom -5570.479010 kJ/mol
# Density = 1.392921 g / cm^3
# Si number density = 13.960983 Si / 1000 Ang^3
#
#
#
# Elastic Constant Matrix: (Units=GPa)
#
#
# Indices 1 2 3 4 5 6 
#
# 1 73.3614 63.7411 12.5390 0.0000 0.0000 0.0000
# 2 63.7411 119.0696 30.0105 0.0000 0.0000 0.0000
# 3 12.5390 30.0105 25.3343 0.0000 0.0000 0.0000
# 4 0.0000 0.0000 0.0000 -10.4977 0.0000 0.0000
# 5 0.0000 0.0000 0.0000 0.0000 1.8994 0.0000
# 6 0.0000 0.0000 0.0000 0.0000 0.0000 15.8909
#
#
#
# Elastic Compliance Matrix: (Units=1/GPa)
#
#
# Indices 1 2 3 4 5 6 
#
# 1 0.025948 -0.015188 0.005149 0.000000 0.000000 0.000000
# 2 -0.015188 0.020863 -0.017197 0.000000 0.000000 0.000000
# 3 0.005149 -0.017197 0.057295 0.000000 0.000000 0.000000
# 4 0.000000 0.000000 0.000000 -0.095259 0.000000 0.000000
# 5 0.000000 0.000000 0.000000 0.000000 0.526483 0.000000
# 6 0.000000 0.000000 0.000000 0.000000 0.000000 0.062929
#
#
# Mechanical properties :
#
#
# Convention : Reuss Voigt Hill
#
# Bulk Modulus (GPa) = 20.14769 47.81627 33.98198
# Shear Modulus (GPa) = 7.47076 8.89017 8.18047
#
# Velocity S-wave (km/s) = 2.31577 2.52620 2.42327
# Velocity P-wave (km/s) = 4.64899 6.54471 5.67655
#
# Compressibility (1/GPa) = 0.04963347
#
# Stress axis : x y z
#
# Youngs Moduli (GPa) = 38.53934 47.93070 17.45354
#
# Poissons Ratio (x) = 0.72798 -0.08987
# Poissons Ratio (y) = 0.58534 0.30015
# Poissons Ratio (z) = -0.19844 0.82427
#
# Static dielectric constant tensor:
#      x y z
#    x 1.455940 0.000000 0.000000 
#    y 0.000000 1.466690 0.000000 
#    z 0.000000 0.000000 1.461910 
# 
# From -- ./inp_files/14517.got.cif
#   From: 2010.05.17/outbox.cif.g08.bks.cpg/sg65_8_cif.got.tgz:14517.got - 2010.06.03 17:01:31.
