data_PCOD9493931
_publ_section_title
;
Structure prediction by ZEFSAII (Michael W. Deem and Ramdas Pophale) SiO2 
 PCOD9493931
Probable space group: C M M M
;
_chemical_formula_sum "Si O2"
_cell_formula_units_Z 64
_cell_length_a 26.829990
_cell_length_b 15.017020
_cell_length_c 7.974819
_cell_angle_alpha 90.000000
_cell_angle_beta 90.000000
_cell_angle_gamma 90.000000
_cell_volume 3213.106383
_symmetry_space_group_name_H-M "C M M M"
_symmetry_group_IT_number 65
_symmetry_cell_setting 'orthorhombic'
loop_
_space_group_symop_operation_xyz
x,y,z
-x,-y,z
x,-y,-z
-x,y,-z
-x,-y,-z
x,y,-z
-x,y,z
x,-y,z
1/2+x,1/2+y,z
1/2-x,1/2-y,z
1/2+x,1/2-y,-z
1/2-x,1/2+y,-z
1/2-x,1/2-y,-z
1/2+x,1/2+y,-z
1/2-x,1/2+y,z
1/2+x,1/2-y,z
loop_
_atom_site_type_symbol
_atom_site_label
_atom_site_fract_x
_atom_site_fract_y
_atom_site_fract_z
Si Si1 0.806279 0.100818 0.500000
Si Si2 0.942923 0.240455 0.806516
Si Si3 0.367221 0.102258 0.297958
Si Si4 0.755333 0.645832 0.179073
Si Si5 0.075558 0.106148 0.500000
O O1 0.782302 0.133135 0.669822
O O2 0.864842 0.110877 0.500000
O O3 0.791365 0.000000 0.500000
O O4 0.904493 0.320563 0.765658
O O5 0.939593 0.161642 0.667245
O O6 0.000000 0.274191 0.797559
O O7 0.934016 0.210300 0.000000
O O8 0.365363 0.108602 0.500000
O O9 0.311448 0.118950 0.229304
O O10 0.382006 0.000000 0.254188
O O11 0.750000 0.750000 0.157209
O O12 0.742446 0.602931 0.000000
O O13 0.061318 0.000000 0.500000
#
# Coordination Sequence:
#
# PCOD9493931 Si02
#       5
#     8  16  16  16   8
#     4  11  23  38  58  87 121 160 204 252 306 373
#     4  11  25  45  69  97 129 168 217 271 331 399
#     4  11  23  40  66  98 134 177 223 270 322 386
#     4  11  23  38  60  90 127 171 216 262 311 367
#     4  11  25  45  70  97 131 169 212 273 336 392
#
# _framework density 19.918417999999999
#
# number of rings (size 3 to 8) (size 9 to 14) (size 15 to 20)
#    0.000    1.000    2.500    3.750    0.000    8.500 
#    0.000    6.250    0.000    0.000    0.000    0.000 
#    0.000    0.000    0.000    0.000    0.000    0.000 
#
# Total GULP energy -178479.890005 kJ/mol
# GULP energy per Si atom -5577.496563 kJ/mol
# Density = 1.987308 g / cm^3
# Si number density = 19.918418 Si / 1000 Ang^3
#
#
#
# Elastic Constant Matrix: (Units=GPa)
#
#
# Indices 1 2 3 4 5 6 
#
# 1 227.6162 16.5664 81.8962 0.0000 0.0000 0.0000
# 2 16.5664 121.6651 50.3599 0.0000 0.0000 0.0000
# 3 81.8962 50.3599 175.8005 0.0000 0.0000 0.0000
# 4 0.0000 0.0000 0.0000 46.4507 0.0000 0.0000
# 5 0.0000 0.0000 0.0000 0.0000 16.7891 0.0000
# 6 0.0000 0.0000 0.0000 0.0000 0.0000 -10.4976
#
#
#
# Elastic Compliance Matrix: (Units=1/GPa)
#
#
# Indices 1 2 3 4 5 6 
#
# 1 0.005290 0.000340 -0.002562 0.000000 0.000000 0.000000
# 2 0.000340 0.009347 -0.002836 0.000000 0.000000 0.000000
# 3 -0.002562 -0.002836 0.007694 0.000000 0.000000 0.000000
# 4 0.000000 0.000000 0.000000 0.021528 0.000000 0.000000
# 5 0.000000 0.000000 0.000000 0.000000 0.059562 0.000000
# 6 0.000000 0.000000 0.000000 0.000000 0.000000 -0.095260
#
#
# Mechanical properties :
#
#
# Convention : Reuss Voigt Hill
#
# Bulk Modulus (GPa) = 81.86131 91.41408 86.63770
# Shear Modulus (GPa) = 223.72005 35.63239 129.67622
#
# Velocity S-wave (km/s) = 10.60952 4.23415 8.07744
# Velocity P-wave (km/s) = 13.83005 8.36050 11.42734
#
# Compressibility (1/GPa) = 0.01221578
#
# Stress axis : x y z
#
# Youngs Moduli (GPa) = 189.02188 106.98821 129.96942
#
# Poissons Ratio (x) = -0.03638 0.33297
# Poissons Ratio (y) = -0.06428 0.36858
# Poissons Ratio (z) = 0.48426 0.30341
#
# Static dielectric constant tensor:
#      x y z
#    x 1.653640 0.000000 0.000000 
#    y 0.000000 1.686240 0.000000 
#    z 0.000000 0.000000 1.627230 
# 
# From -- ./inp_files/7116.got.cif
#   From: 2010.05.17/outbox.cif.g08.bks.cpg/sg65_4_cif.got.tgz:7116.got - 2010.06.03 17:01:31.
