data_PCOD9493744
_publ_section_title
;
Structure prediction by ZEFSAII (Michael W. Deem and Ramdas Pophale) SiO2 
 PCOD9493744
Probable space group: C M M M
;
_chemical_formula_sum "Si O2"
_cell_formula_units_Z 64
_cell_length_a 8.510604
_cell_length_b 16.661788
_cell_length_c 22.311999
_cell_angle_alpha 90.000000
_cell_angle_beta 90.000000
_cell_angle_gamma 90.000000
_cell_volume 3163.883396
_symmetry_space_group_name_H-M "C M M M"
_symmetry_group_IT_number 65
_symmetry_cell_setting 'orthorhombic'
loop_
_space_group_symop_operation_xyz
x,y,z
-x,-y,z
x,-y,-z
-x,y,-z
-x,-y,-z
x,y,-z
-x,y,z
x,-y,z
1/2+x,1/2+y,z
1/2-x,1/2-y,z
1/2+x,1/2-y,-z
1/2-x,1/2+y,-z
1/2-x,1/2-y,-z
1/2+x,1/2+y,-z
1/2-x,1/2+y,z
1/2+x,1/2-y,z
loop_
_atom_site_type_symbol
_atom_site_label
_atom_site_fract_x
_atom_site_fract_y
_atom_site_fract_z
Si Si1 0.308690 0.407518 0.000000
Si Si2 0.188766 0.161008 0.872362
Si Si3 0.191496 0.000000 0.569768
Si Si4 0.312882 0.663761 0.634849
Si Si5 0.312530 0.908858 0.751931
O O1 0.256851 0.366267 0.061571
O O2 0.259963 0.500000 0.000000
O O3 0.500000 0.405557 0.000000
O O4 0.250000 0.250000 0.861093
O O5 0.253710 0.106777 0.818954
O O6 0.000000 0.158758 0.871100
O O7 0.245577 0.083426 0.600411
O O8 0.234281 0.000000 0.500000
O O9 0.000000 0.000000 0.573914
O O10 0.500000 0.665429 0.629993
O O11 0.250000 0.750000 0.613505
O O12 0.264378 0.650263 0.703950
O O13 0.500000 0.899862 0.749815
O O14 0.270473 0.000000 0.734666
#
# Coordination Sequence:
#
# PCOD9493744 Si02
#       5
#     8  16   8  16  16
#     4   9  19  36  57  81 108 145 192 243 296 358
#     4  11  22  37  58  83 115 152 195 243 298 360
#     4   9  20  40  65  93 127 166 207 250 299 361
#     4  11  22  39  64  93 126 165 208 252 305 362
#     4  11  23  39  60  87 120 155 199 253 305 358
#
# _framework density 20.228306
#
# number of rings (size 3 to 8) (size 9 to 14) (size 15 to 20)
#    0.000    1.500    1.250    4.125    0.000    3.000 
#    0.000    1.875    0.000    9.750    0.000    0.000 
#    0.000    0.000    0.000    0.000    0.000    0.000 
#
# Total GULP energy -178823.077230 kJ/mol
# GULP energy per Si atom -5588.221163 kJ/mol
# Density = 2.018227 g / cm^3
# Si number density = 20.228306 Si / 1000 Ang^3
#
#
#
# Elastic Constant Matrix: (Units=GPa)
#
#
# Indices 1 2 3 4 5 6 
#
# 1 26.1659 34.3936 6.9930 0.0000 0.0000 0.0000
# 2 34.3936 144.6453 47.2295 0.0000 0.0000 0.0000
# 3 6.9930 47.2295 105.9853 0.0000 0.0000 0.0000
# 4 0.0000 0.0000 0.0000 25.4435 0.0000 0.0000
# 5 0.0000 0.0000 0.0000 0.0000 9.9840 0.0000
# 6 0.0000 0.0000 0.0000 0.0000 0.0000 15.4557
#
#
#
# Elastic Compliance Matrix: (Units=1/GPa)
#
#
# Indices 1 2 3 4 5 6 
#
# 1 0.056213 -0.014225 0.002630 0.000000 0.000000 0.000000
# 2 -0.014225 0.011690 -0.004271 0.000000 0.000000 0.000000
# 3 0.002630 -0.004271 0.011165 0.000000 0.000000 0.000000
# 4 0.000000 0.000000 0.000000 0.039303 0.000000 0.000000
# 5 0.000000 0.000000 0.000000 0.000000 0.100160 0.000000
# 6 0.000000 0.000000 0.000000 0.000000 0.000000 0.064701
#
#
# Mechanical properties :
#
#
# Convention : Reuss Voigt Hill
#
# Bulk Modulus (GPa) = 21.12546 50.44762 35.78654
# Shear Modulus (GPa) = 15.11751 22.72200 18.91976
#
# Velocity S-wave (km/s) = 2.73673 3.35517 3.06160
# Velocity P-wave (km/s) = 4.52243 6.32478 5.49796
#
# Compressibility (1/GPa) = 0.04733626
#
# Stress axis : x y z
#
# Youngs Moduli (GPa) = 17.78961 85.54041 89.56588
#
# Poissons Ratio (x) = 1.21680 -0.23556
# Poissons Ratio (y) = 0.25306 0.38253
# Poissons Ratio (z) = -0.04679 0.36534
#
# Static dielectric constant tensor:
#      x y z
#    x 1.683700 0.000000 0.000000 
#    y 0.000000 1.717100 0.000000 
#    z 0.000000 0.000000 1.709600 
# 
# From -- ./inp_files/66759.got.cif
#   From: 2010.05.17/outbox.cif.g08.bks.cpg/sg65_34_cif.got.tgz:66759.got - 2010.06.03 17:01:31.
