data_PCOD9493913
_publ_section_title
;
Structure prediction by ZEFSAII (Michael W. Deem and Ramdas Pophale) SiO2 
 PCOD9493913
Probable space group: C M M M
;
_chemical_formula_sum "Si O2"
_cell_formula_units_Z 72
_cell_length_a 18.233453
_cell_length_b 9.370473
_cell_length_c 23.705718
_cell_angle_alpha 90.000000
_cell_angle_beta 90.000000
_cell_angle_gamma 90.000000
_cell_volume 4050.266028
_symmetry_space_group_name_H-M "C M M M"
_symmetry_group_IT_number 65
_symmetry_cell_setting 'orthorhombic'
loop_
_space_group_symop_operation_xyz
x,y,z
-x,-y,z
x,-y,-z
-x,y,-z
-x,-y,-z
x,y,-z
-x,y,z
x,-y,z
1/2+x,1/2+y,z
1/2-x,1/2-y,z
1/2+x,1/2-y,-z
1/2-x,1/2+y,-z
1/2-x,1/2-y,-z
1/2+x,1/2+y,-z
1/2-x,1/2+y,z
1/2+x,1/2-y,z
loop_
_atom_site_type_symbol
_atom_site_label
_atom_site_fract_x
_atom_site_fract_y
_atom_site_fract_z
Si Si1 0.413085 0.831831 0.277361
Si Si2 0.410418 0.835444 0.500000
Si Si3 0.412029 0.666794 0.934894
Si Si4 0.589465 0.664351 0.388821
Si Si5 0.672856 0.170244 0.161791
O O1 0.500000 0.806171 0.268612
O O2 0.387827 0.738937 0.330582
O O3 0.370547 0.800469 0.219898
O O4 0.404420 0.000000 0.290672
O O5 0.500000 0.834972 0.500000
O O6 0.386780 0.752973 0.556368
O O7 0.387109 0.000000 0.500000
O O8 0.500000 0.680964 0.930114
O O9 0.394010 0.500000 0.923858
O O10 0.372560 0.767779 0.890676
O O11 0.392096 0.697941 0.000000
O O12 0.500000 0.666100 0.389078
O O13 0.612747 0.500000 0.391864
O O14 0.750000 0.250000 0.163485
O O15 0.681923 0.000000 0.156633
#
# Coordination Sequence:
#
# PCOD9493913 Si02
#       5
#    16   8  16  16  16
#     4   9  18  33  51  71  97 130 169 211 256 307
#     4   9  15  23  37  59  92 131 164 199 248 301
#     4   9  19  37  60  84 109 137 170 210 257 309
#     4   9  16  25  40  65  95 126 162 205 252 301
#     4  11  23  37  54  77 106 140 177 217 260 307
#
# _framework density 17.776609000000001
#
# number of rings (size 3 to 8) (size 9 to 14) (size 15 to 20)
#    0.000    2.556    0.000    3.000    0.000    8.000 
#    0.000    3.333    0.000    0.000    0.000    0.778 
#    0.000    0.000    0.000    0.000    0.000    0.000 
#
# Total GULP energy -200858.295237 kJ/mol
# GULP energy per Si atom -5579.397090 kJ/mol
# Density = 1.773615 g / cm^3
# Si number density = 17.776609 Si / 1000 Ang^3
#
#
#
# Elastic Constant Matrix: (Units=GPa)
#
#
# Indices 1 2 3 4 5 6 
#
# 1 31.7425 49.4618 54.3807 0.0000 0.0000 0.0000
# 2 49.4618 139.4808 127.6902 0.0000 0.0000 0.0000
# 3 54.3807 127.6902 178.9321 0.0000 0.0000 0.0000
# 4 0.0000 0.0000 0.0000 35.7003 0.0000 0.0000
# 5 0.0000 0.0000 0.0000 0.0000 -8.2024 0.0000
# 6 0.0000 0.0000 0.0000 0.0000 0.0000 14.5234
#
#
#
# Elastic Compliance Matrix: (Units=1/GPa)
#
#
# Indices 1 2 3 4 5 6 
#
# 1 0.077714 -0.017122 -0.011400 0.000000 0.000000 0.000000
# 2 -0.017122 0.024452 -0.012245 0.000000 0.000000 0.000000
# 3 -0.011400 -0.012245 0.017792 0.000000 0.000000 0.000000
# 4 0.000000 0.000000 0.000000 0.028011 0.000000 0.000000
# 5 0.000000 0.000000 0.000000 0.000000 -0.121915 0.000000
# 6 0.000000 0.000000 0.000000 0.000000 0.000000 0.068855
#
#
# Mechanical properties :
#
#
# Convention : Reuss Voigt Hill
#
# Bulk Modulus (GPa) = 26.02656 90.35789 58.19222
# Shear Modulus (GPa) = 26.42006 16.31243 21.36624
#
# Velocity S-wave (km/s) = 3.85934 3.03253 3.47065
# Velocity P-wave (km/s) = 5.87640 7.94995 6.99048
#
# Compressibility (1/GPa) = 0.03842229
#
# Stress axis : x y z
#
# Youngs Moduli (GPa) = 12.86774 40.89723 56.20522
#
# Poissons Ratio (x) = 0.70025 0.64073
# Poissons Ratio (y) = 0.22032 0.68826
# Poissons Ratio (z) = 0.14669 0.50080
#
# Static dielectric constant tensor:
#      x y z
#    x 1.584890 0.000000 0.000000 
#    y 0.000000 1.593380 0.000000 
#    z 0.000000 0.000000 1.584950 
# 
# From -- ./inp_files/59197.got.cif
#   From: 2010.05.17/outbox.cif.g08.bks.cpg/sg65_30_cif.got.tgz:59197.got - 2010.06.03 17:01:31.
