data_PCOD9493787
_publ_section_title
;
Structure prediction by ZEFSAII (Michael W. Deem and Ramdas Pophale) SiO2 
 PCOD9493787
Probable space group: C M M M
;
_chemical_formula_sum "Si O2"
_cell_formula_units_Z 64
_cell_length_a 8.793359
_cell_length_b 29.666633
_cell_length_c 13.107245
_cell_angle_alpha 90.000000
_cell_angle_beta 90.000000
_cell_angle_gamma 90.000000
_cell_volume 3419.278540
_symmetry_space_group_name_H-M "C M M M"
_symmetry_group_IT_number 65
_symmetry_cell_setting 'orthorhombic'
loop_
_space_group_symop_operation_xyz
x,y,z
-x,-y,z
x,-y,-z
-x,y,-z
-x,-y,-z
x,y,-z
-x,y,z
x,-y,z
1/2+x,1/2+y,z
1/2-x,1/2-y,z
1/2+x,1/2-y,-z
1/2-x,1/2+y,-z
1/2-x,1/2-y,-z
1/2+x,1/2+y,-z
1/2-x,1/2+y,z
1/2+x,1/2-y,z
loop_
_atom_site_type_symbol
_atom_site_label
_atom_site_fract_x
_atom_site_fract_y
_atom_site_fract_z
Si Si1 0.682083 0.644578 0.185098
Si Si2 0.318786 0.799473 0.000000
Si Si3 0.816566 0.799643 0.616612
Si Si4 0.819029 0.450278 0.792136
Si Si5 0.818870 0.000000 0.619102
O O1 0.500000 0.646904 0.177301
O O2 0.727057 0.664365 0.296527
O O3 0.736678 0.593530 0.167340
O O4 0.758491 0.675070 0.099586
O O5 0.250000 0.750000 0.000000
O O6 0.500000 0.798059 0.000000
O O7 0.770667 0.811492 0.500000
O O8 0.750000 0.750000 0.639812
O O9 0.000000 0.796427 0.618188
O O10 0.784666 0.500000 0.839961
O O11 0.758053 0.458023 0.676835
O O12 0.000000 0.444354 0.794655
O O13 0.791471 0.000000 0.500000
O O14 0.000000 0.000000 0.637706
#
# Coordination Sequence:
#
# PCOD9493787 Si02
#       5
#    16   8  16  16   8
#     4  11  22  38  62  89 120 157 202 249 301 365
#     4  12  26  44  65  90 123 158 202 255 310 364
#     4   9  19  35  55  82 115 150 189 237 293 355
#     4   9  20  36  55  81 117 154 194 244 298 356
#     4   9  17  31  53  80 113 156 203 251 300 351
#
# _framework density 18.717397999999999
#
# number of rings (size 3 to 8) (size 9 to 14) (size 15 to 20)
#    0.750    1.375    0.000    3.375    0.000    6.000 
#    0.000    3.125    0.000    3.750    0.000    0.000 
#    0.000    0.000    0.000    0.000    0.000    0.000 
#
# Total GULP energy -178360.259132 kJ/mol
# GULP energy per Si atom -5573.758098 kJ/mol
# Density = 1.867480 g / cm^3
# Si number density = 18.717398 Si / 1000 Ang^3
#
#
#
# Elastic Constant Matrix: (Units=GPa)
#
#
# Indices 1 2 3 4 5 6 
#
# 1 78.7843 62.9828 40.5382 0.0000 0.0000 0.0000
# 2 62.9828 150.4601 65.9341 0.0000 0.0000 0.0000
# 3 40.5382 65.9341 74.2441 0.0000 0.0000 0.0000
# 4 0.0000 0.0000 0.0000 17.1830 0.0000 0.0000
# 5 0.0000 0.0000 0.0000 0.0000 23.6422 0.0000
# 6 0.0000 0.0000 0.0000 0.0000 0.0000 35.7936
#
#
#
# Elastic Compliance Matrix: (Units=1/GPa)
#
#
# Indices 1 2 3 4 5 6 
#
# 1 0.020522 -0.006025 -0.005855 0.000000 0.000000 0.000000
# 2 -0.006025 0.012649 -0.007944 0.000000 0.000000 0.000000
# 3 -0.005855 -0.007944 0.023721 0.000000 0.000000 0.000000
# 4 0.000000 0.000000 0.000000 0.058197 0.000000 0.000000
# 5 0.000000 0.000000 0.000000 0.000000 0.042297 0.000000
# 6 0.000000 0.000000 0.000000 0.000000 0.000000 0.027938
#
#
# Mechanical properties :
#
#
# Convention : Reuss Voigt Hill
#
# Bulk Modulus (GPa) = 57.98815 71.37765 64.68290
# Shear Modulus (GPa) = 21.67132 24.25932 22.96532
#
# Velocity S-wave (km/s) = 3.40636 3.60402 3.50659
# Velocity P-wave (km/s) = 6.82050 7.45223 7.14335
#
# Compressibility (1/GPa) = 0.01724490
#
# Stress axis : x y z
#
# Youngs Moduli (GPa) = 48.72849 79.05466 42.15739
#
# Poissons Ratio (x) = 0.47629 0.24682
# Poissons Ratio (y) = 0.29358 0.33490
# Poissons Ratio (z) = 0.28529 0.62801
#
# Static dielectric constant tensor:
#      x y z
#    x 1.618470 0.000000 0.000000 
#    y 0.000000 1.241250 0.000000 
#    z 0.000000 0.000000 1.663290 
# 
# From -- ./inp_files/20941.got.cif
#   From: 2010.05.17/outbox.cif.g08.bks.cpg/sg65_11_cif.got.tgz:20941.got - 2010.06.03 17:01:31.
