data_PCOD9493143
_publ_section_title
;
Structure prediction by ZEFSAII (Michael W. Deem and Ramdas Pophale) SiO2 
 PCOD9493143
Probable space group: C M M M
;
_chemical_formula_sum "Si O2"
_cell_formula_units_Z 96
_cell_length_a 19.540529
_cell_length_b 15.282512
_cell_length_c 16.126597
_cell_angle_alpha 90.000000
_cell_angle_beta 90.000000
_cell_angle_gamma 90.000000
_cell_volume 4815.859358
_symmetry_space_group_name_H-M "C M M M"
_symmetry_group_IT_number 65
_symmetry_cell_setting 'orthorhombic'
loop_
_space_group_symop_operation_xyz
x,y,z
-x,-y,z
x,-y,-z
-x,y,-z
-x,-y,-z
x,y,-z
-x,y,z
x,-y,z
1/2+x,1/2+y,z
1/2-x,1/2-y,z
1/2+x,1/2-y,-z
1/2-x,1/2+y,-z
1/2-x,1/2-y,-z
1/2+x,1/2+y,-z
1/2-x,1/2+y,z
1/2+x,1/2-y,z
loop_
_atom_site_type_symbol
_atom_site_label
_atom_site_fract_x
_atom_site_fract_y
_atom_site_fract_z
Si Si1 0.321556 0.000000 0.398285
Si Si2 0.305433 0.401831 0.099204
Si Si3 0.165141 0.000000 0.399580
Si Si4 0.077814 0.165680 0.650730
Si Si5 0.577735 0.727766 0.159249
Si Si6 0.350912 0.897208 0.899683
Si Si7 0.923564 0.645231 0.403666
O O1 0.243646 0.000000 0.370965
O O2 0.364849 0.916383 0.368593
O O3 0.318177 0.000000 0.500000
O O4 0.322077 0.500000 0.130812
O O5 0.364165 0.333028 0.119073
O O6 0.228097 0.378578 0.126273
O O7 0.300818 0.407078 0.000000
O O8 0.127552 0.913874 0.366536
O O9 0.162006 0.000000 0.500000
O O10 0.078575 0.199098 0.745032
O O11 0.094987 0.253175 0.600342
O O12 0.000000 0.138974 0.629495
O O13 0.500000 0.713803 0.127860
O O14 0.599851 0.827886 0.144123
O O15 0.364524 0.000000 0.883003
O O16 0.356135 0.885071 0.000000
O O17 0.929260 0.620102 0.500000
O O18 0.000000 0.634358 0.366366
#
# Coordination Sequence:
#
# PCOD9493143 Si02
#       7
#     8  16   8  16  16  16  16
#     4   9  19  35  57  89 117 138 177 237 292 334
#     4   9  19  37  60  84 111 150 198 240 279 337
#     4  11  23  41  63  85 114 151 197 250 294 340
#     4  10  23  40  56  81 113 151 195 239 290 346
#     4  11  23  37  54  83 123 154 184 240 298 341
#     4   9  19  39  64  87 114 153 200 242 278 335
#     4   9  17  35  61  84 111 149 190 229 278 346
#
# _framework density 19.934137
#
# number of rings (size 3 to 8) (size 9 to 14) (size 15 to 20)
#    0.000    2.333    0.000    3.000    1.167    6.333 
#    7.500    4.167    0.000    0.000    0.000    0.000 
#    0.000    0.000    0.000    0.000    0.000    0.000 
#
# Total GULP energy -267831.477094 kJ/mol
# GULP energy per Si atom -5579.822439 kJ/mol
# Density = 1.988877 g / cm^3
# Si number density = 19.934137 Si / 1000 Ang^3
#
#
#
# Elastic Constant Matrix: (Units=GPa)
#
#
# Indices 1 2 3 4 5 6 
#
# 1 143.0310 112.0559 17.0429 0.0000 0.0000 0.0000
# 2 112.0559 133.3400 18.2312 0.0000 0.0000 0.0000
# 3 17.0429 18.2312 19.7928 0.0000 0.0000 0.0000
# 4 0.0000 0.0000 0.0000 0.5400 0.0000 0.0000
# 5 0.0000 0.0000 0.0000 0.0000 12.4771 0.0000
# 6 0.0000 0.0000 0.0000 0.0000 0.0000 30.1629
#
#
#
# Elastic Compliance Matrix: (Units=1/GPa)
#
#
# Indices 1 2 3 4 5 6 
#
# 1 0.020538 -0.016980 -0.002044 0.000000 0.000000 0.000000
# 2 -0.016980 0.022619 -0.006213 0.000000 0.000000 0.000000
# 3 -0.002044 -0.006213 0.058007 0.000000 0.000000 0.000000
# 4 0.000000 0.000000 0.000000 1.851936 0.000000 0.000000
# 5 0.000000 0.000000 0.000000 0.000000 0.080147 0.000000
# 6 0.000000 0.000000 0.000000 0.000000 0.000000 0.033153
#
#
# Mechanical properties :
#
#
# Convention : Reuss Voigt Hill
#
# Bulk Modulus (GPa) = 19.72836 65.64709 42.68773
# Shear Modulus (GPa) = 2.34327 18.55825 10.45076
#
# Velocity S-wave (km/s) = 1.08538 3.05450 2.29217
# Velocity P-wave (km/s) = 3.38954 6.74118 5.33538
#
# Compressibility (1/GPa) = 0.05068844
#
# Stress axis : x y z
#
# Youngs Moduli (GPa) = 48.69044 44.21087 17.23941
#
# Poissons Ratio (x) = 0.75071 0.03524
# Poissons Ratio (y) = 0.82677 0.10711
# Poissons Ratio (z) = 0.09952 0.27470
#
# Static dielectric constant tensor:
#      x y z
#    x 1.705070 0.000000 0.000000 
#    y 0.000000 1.654450 0.000000 
#    z 0.000000 0.000000 1.744330 
# 
# From -- ./inp_files/44160.got.cif
#   From: 2010.05.17/outbox.cif.g08.bks.cpg/sg65_23_cif.got.tgz:44160.got - 2010.06.03 17:01:31.
