data_PCOD9493084
_publ_section_title
;
Structure prediction by ZEFSAII (Michael W. Deem and Ramdas Pophale) SiO2 
 PCOD9493084
Probable space group: C M M M
;
_chemical_formula_sum "Si O2"
_cell_formula_units_Z 88
_cell_length_a 24.679556
_cell_length_b 15.582084
_cell_length_c 11.152342
_cell_angle_alpha 90.000000
_cell_angle_beta 90.000000
_cell_angle_gamma 90.000000
_cell_volume 4288.732536
_symmetry_space_group_name_H-M "C M M M"
_symmetry_group_IT_number 65
_symmetry_cell_setting 'orthorhombic'
loop_
_space_group_symop_operation_xyz
x,y,z
-x,-y,z
x,-y,-z
-x,y,-z
-x,-y,-z
x,y,-z
-x,y,z
x,-y,z
1/2+x,1/2+y,z
1/2-x,1/2-y,z
1/2+x,1/2-y,-z
1/2-x,1/2+y,-z
1/2-x,1/2-y,-z
1/2+x,1/2+y,-z
1/2-x,1/2+y,z
1/2+x,1/2-y,z
loop_
_atom_site_type_symbol
_atom_site_label
_atom_site_fract_x
_atom_site_fract_y
_atom_site_fract_z
Si Si1 0.000000 0.403627 0.354396
Si Si2 0.438246 0.649600 0.191384
Si Si3 0.729309 0.500000 0.358482
Si Si4 0.644893 0.500000 0.864546
Si Si5 0.402408 0.781506 0.358273
Si Si6 0.712845 0.165916 0.745144
Si Si7 0.674515 0.897739 0.000000
Si Si8 0.439203 0.198695 0.000000
O O1 0.947320 0.350692 0.318753
O O2 0.000000 0.500000 0.307779
O O3 0.000000 0.406947 0.500000
O O4 0.500000 0.616934 0.186474
O O5 0.394609 0.581812 0.147103
O O6 0.422388 0.687171 0.320364
O O7 0.435499 0.734857 0.110331
O O8 0.712088 0.500000 0.500000
O O9 0.684450 0.500000 0.250899
O O10 0.763752 0.586424 0.331739
O O11 0.669784 0.500000 0.000000
O O12 0.397636 0.786582 0.500000
O O13 0.345667 0.805640 0.301189
O O14 0.750000 0.250000 0.738352
O O15 0.705121 0.135370 0.881756
O O16 0.612597 0.862594 0.000000
O O17 0.673677 0.000000 0.000000
O O18 0.500000 0.159447 0.000000
#
# Coordination Sequence:
#
# PCOD9493084 Si02
#       8
#     8  16   8   8  16  16   8   8
#     4   9  20  38  66  98 131 178 232 280 344 430
#     4  11  22  41  68 102 141 181 231 289 347 415
#     4  12  30  51  73 106 143 182 243 311 362 423
#     4  12  27  44  72 104 135 189 244 295 353 419
#     4  11  23  42  68 100 141 185 230 286 358 434
#     4  12  27  47  73 101 141 190 240 293 361 429
#     4  12  25  46  73 106 142 184 234 297 356 421
#     4  10  22  41  68 101 141 180 225 281 349 417
#
# _framework density 20.518882999999999
#
# number of rings (size 3 to 8) (size 9 to 14) (size 15 to 20)
#    0.000    0.818    4.545    2.182    2.545    4.182 
#    0.000    0.000    0.000    1.636    0.000    0.000 
#    0.000    0.000    0.000    0.000    0.000    0.000 
#
# Total GULP energy -245981.024416 kJ/mol
# GULP energy per Si atom -5590.477828 kJ/mol
# Density = 2.047218 g / cm^3
# Si number density = 20.518883 Si / 1000 Ang^3
#
#
#
# Elastic Constant Matrix: (Units=GPa)
#
#
# Indices 1 2 3 4 5 6 
#
# 1 130.8302 44.7288 41.6868 0.0000 0.0000 0.0000
# 2 44.7288 103.0435 28.5516 0.0000 0.0000 0.0000
# 3 41.6868 28.5516 116.8318 0.0000 0.0000 0.0000
# 4 0.0000 0.0000 0.0000 27.0880 0.0000 0.0000
# 5 0.0000 0.0000 0.0000 0.0000 252.8465 0.0000
# 6 0.0000 0.0000 0.0000 0.0000 0.0000 36.3036
#
#
#
# Elastic Compliance Matrix: (Units=1/GPa)
#
#
# Indices 1 2 3 4 5 6 
#
# 1 0.009658 -0.003473 -0.002598 0.000000 0.000000 0.000000
# 2 -0.003473 0.011658 -0.001610 0.000000 0.000000 0.000000
# 3 -0.002598 -0.001610 0.009880 0.000000 0.000000 0.000000
# 4 0.000000 0.000000 0.000000 0.036917 0.000000 0.000000
# 5 0.000000 0.000000 0.000000 0.000000 0.003955 0.000000
# 6 0.000000 0.000000 0.000000 0.000000 0.000000 0.027545
#
#
# Mechanical properties :
#
#
# Convention : Reuss Voigt Hill
#
# Bulk Modulus (GPa) = 63.14844 64.51555 63.83200
# Shear Modulus (GPa) = 41.57921 78.96352 60.27137
#
# Velocity S-wave (km/s) = 4.50643 6.21022 5.42562
# Velocity P-wave (km/s) = 7.61050 9.10675 8.39204
#
# Compressibility (1/GPa) = 0.01583570
#
# Stress axis : x y z
#
# Youngs Moduli (GPa) = 103.53635 85.77671 101.21890
#
# Poissons Ratio (x) = 0.29788 0.26292
# Poissons Ratio (y) = 0.35956 0.16295
# Poissons Ratio (z) = 0.26894 0.13809
#
# Static dielectric constant tensor:
#      x y z
#    x 1.708240 0.000000 0.000000 
#    y 0.000000 1.702750 0.000000 
#    z 0.000000 0.000000 1.793420 
# 
# From -- ./inp_files/30632.got.cif
#   From: 2010.05.17/outbox.cif.g08.bks.cpg/sg65_16_cif.got.tgz:30632.got - 2010.06.03 17:01:31.
