data_PCOD9493724
_publ_section_title
;
Structure prediction by ZEFSAII (Michael W. Deem and Ramdas Pophale) SiO2 
 PCOD9493724
Probable space group: C M M M
;
_chemical_formula_sum "Si O2"
_cell_formula_units_Z 104
_cell_length_a 8.626429
_cell_length_b 20.161201
_cell_length_c 34.243129
_cell_angle_alpha 90.000000
_cell_angle_beta 90.000000
_cell_angle_gamma 90.000000
_cell_volume 5955.536539
_symmetry_space_group_name_H-M "C M M M"
_symmetry_group_IT_number 65
_symmetry_cell_setting 'orthorhombic'
loop_
_space_group_symop_operation_xyz
x,y,z
-x,-y,z
x,-y,-z
-x,y,-z
-x,-y,-z
x,y,-z
-x,y,z
x,-y,z
1/2+x,1/2+y,z
1/2-x,1/2-y,z
1/2+x,1/2-y,-z
1/2-x,1/2+y,-z
1/2-x,1/2-y,-z
1/2+x,1/2+y,-z
1/2-x,1/2+y,z
1/2+x,1/2-y,z
loop_
_atom_site_type_symbol
_atom_site_label
_atom_site_fract_x
_atom_site_fract_y
_atom_site_fract_z
Si Si1 0.686671 0.824837 0.000000
Si Si2 0.315692 0.676675 0.693716
Si Si3 0.312079 0.824920 0.085568
Si Si4 0.686764 0.422868 0.455103
Si Si5 0.186689 0.577585 0.757921
Si Si6 0.684293 0.823283 0.391188
Si Si7 0.688935 0.075879 0.153025
O O1 0.750000 0.750000 0.000000
O O2 0.734148 0.852217 0.042434
O O3 0.500000 0.823751 0.000000
O O4 0.500000 0.680407 0.691423
O O5 0.250000 0.750000 0.702418
O O6 0.263698 0.625251 0.726612
O O7 0.250069 0.656911 0.651252
O O8 0.500000 0.822260 0.086741
O O9 0.250000 0.750000 0.089687
O O10 0.257972 0.872475 0.120382
O O11 0.729577 0.407026 0.500000
O O12 0.500000 0.417370 0.452176
O O13 0.727130 0.500000 0.447941
O O14 0.763710 0.374471 0.424193
O O15 0.223284 0.500000 0.750964
O O16 0.234104 0.593394 0.802599
O O17 0.000000 0.584454 0.755460
O O18 0.500000 0.819615 0.388854
O O19 0.750000 0.750000 0.399853
O O20 0.500000 0.075859 0.152484
O O21 0.737654 0.000000 0.145035
#
# Coordination Sequence:
#
# PCOD9493724 Si02
#       7
#     8  16  16  16  16  16  16
#     4   8  14  24  39  61  89 119 151 192 236 280
#     4  11  22  37  56  77 104 134 167 209 255 302
#     4   9  16  27  44  66  91 120 157 196 237 284
#     4   9  19  37  59  82 110 143 178 217 259 301
#     4   9  18  34  54  74  98 130 167 204 246 299
#     4  11  22  37  57  80 108 140 175 214 256 304
#     4   8  15  29  48  68  93 125 157 193 239 289
#
# _framework density 17.462741000000001
#
# number of rings (size 3 to 8) (size 9 to 14) (size 15 to 20)
#    0.000    2.615    0.000    5.077    0.000    2.462 
#    0.000    3.462    0.000    3.692    0.000    0.000 
#    0.000    6.154    0.000    0.000    0.000    0.000 
#
# Total GULP energy -289918.628573 kJ/mol
# GULP energy per Si atom -5575.358242 kJ/mol
# Density = 1.742300 g / cm^3
# Si number density = 17.462741 Si / 1000 Ang^3
#
#
#
# Elastic Constant Matrix: (Units=GPa)
#
#
# Indices 1 2 3 4 5 6 
#
# 1 61.7478 46.0130 63.7589 0.0000 0.0000 0.0000
# 2 46.0130 96.8414 121.8709 0.0000 0.0000 0.0000
# 3 63.7589 121.8709 187.5209 0.0000 0.0000 0.0000
# 4 0.0000 0.0000 0.0000 202.9971 0.0000 0.0000
# 5 0.0000 0.0000 0.0000 0.0000 17.0464 0.0000
# 6 0.0000 0.0000 0.0000 0.0000 0.0000 20.5043
#
#
#
# Elastic Compliance Matrix: (Units=1/GPa)
#
#
# Indices 1 2 3 4 5 6 
#
# 1 0.025719 -0.006673 -0.004408 0.000000 0.000000 0.000000
# 2 -0.006673 0.058431 -0.035706 0.000000 0.000000 0.000000
# 3 -0.004408 -0.035706 0.030037 0.000000 0.000000 0.000000
# 4 0.000000 0.000000 0.000000 0.004926 0.000000 0.000000
# 5 0.000000 0.000000 0.000000 0.000000 0.058664 0.000000
# 6 0.000000 0.000000 0.000000 0.000000 0.000000 0.048770
#
#
# Mechanical properties :
#
#
# Convention : Reuss Voigt Hill
#
# Bulk Modulus (GPa) = 48.51163 89.93285 69.22224
# Shear Modulus (GPa) = 15.29098 55.74069 35.51583
#
# Velocity S-wave (km/s) = 2.96232 5.65589 4.51467
# Velocity P-wave (km/s) = 6.28815 9.70895 8.17938
#
# Compressibility (1/GPa) = 0.02061361
#
# Stress axis : x y z
#
# Youngs Moduli (GPa) = 38.88207 17.11431 33.29245
#
# Poissons Ratio (x) = 0.11420 0.14676
# Poissons Ratio (y) = 0.25944 1.18873
# Poissons Ratio (z) = 0.17140 0.61108
#
# Static dielectric constant tensor:
#      x y z
#    x 1.587260 0.000000 0.000000 
#    y 0.000000 1.562250 0.000000 
#    z 0.000000 0.000000 1.603590 
# 
# From -- ./inp_files/76841.got.cif
#   From: 2010.05.17/outbox.cif.g08.bks.cpg/sg65_39_cif.got.tgz:76841.got - 2010.06.03 17:01:31.
