data_PCOD9493884
_publ_section_title
;
Structure prediction by ZEFSAII (Michael W. Deem and Ramdas Pophale) SiO2 
 PCOD9493884
Probable space group: C M M M
;
_chemical_formula_sum "Si O2"
_cell_formula_units_Z 76
_cell_length_a 18.250467
_cell_length_b 26.386802
_cell_length_c 7.950991
_cell_angle_alpha 90.000000
_cell_angle_beta 90.000000
_cell_angle_gamma 90.000000
_cell_volume 3828.970337
_symmetry_space_group_name_H-M "C M M M"
_symmetry_group_IT_number 65
_symmetry_cell_setting 'orthorhombic'
loop_
_space_group_symop_operation_xyz
x,y,z
-x,-y,z
x,-y,-z
-x,y,-z
-x,-y,-z
x,y,-z
-x,y,z
x,-y,z
1/2+x,1/2+y,z
1/2-x,1/2-y,z
1/2+x,1/2-y,-z
1/2-x,1/2+y,-z
1/2-x,1/2-y,-z
1/2+x,1/2+y,-z
1/2-x,1/2+y,z
1/2+x,1/2-y,z
loop_
_atom_site_type_symbol
_atom_site_label
_atom_site_fract_x
_atom_site_fract_y
_atom_site_fract_z
Si Si1 0.103695 0.500000 0.810684
Si Si2 0.500000 0.559814 0.298178
Si Si3 0.719658 0.825032 0.804693
Si Si4 0.750000 0.250000 0.500000
Si Si5 0.255033 0.500000 0.319292
Si Si6 0.657808 0.406715 0.803624
Si Si7 0.580476 0.887419 0.301939
O O1 0.191659 0.500000 0.814515
O O2 0.082015 0.552153 0.723510
O O3 0.076633 0.500000 0.000000
O O4 0.500000 0.500000 0.240973
O O5 0.500000 0.558589 0.500000
O O6 0.572158 0.589434 0.237443
O O7 0.713822 0.785448 0.652458
O O8 0.796016 0.855714 0.773033
O O9 0.650458 0.863059 0.788706
O O10 0.721065 0.806808 0.000000
O O11 0.217210 0.500000 0.500000
O O12 0.304601 0.450988 0.301792
O O13 0.667278 0.418829 0.000000
O O14 0.586818 0.876731 0.500000
O O15 0.500000 0.869026 0.243002
#
# Coordination Sequence:
#
# PCOD9493884 Si02
#       7
#     8   8  16   4   8  16  16
#     4  12  23  35  55  94 139 184 223 260 308 372
#     4  11  23  35  57  93 134 180 216 250 300 372
#     4  11  25  45  73 102 127 167 220 275 337 399
#     4  12  26  48  78  96 120 160 212 284 348 398
#     4  12  22  32  56  88 129 171 222 258 298 375
#     4  11  23  39  61  92 129 169 214 262 315 381
#     4  11  23  40  64  98 139 182 221 261 317 385
#
# _framework density 19.848676999999999
#
# number of rings (size 3 to 8) (size 9 to 14) (size 15 to 20)
#    0.000    0.737    4.211    4.105    2.947    3.368 
#    0.000    0.000    4.632    0.000    0.000    0.000 
#    0.000    0.000    0.000    0.000    0.000    0.000 
#
# Total GULP energy -211660.780517 kJ/mol
# GULP energy per Si atom -5570.020540 kJ/mol
# Density = 1.980350 g / cm^3
# Si number density = 19.848677 Si / 1000 Ang^3
#
#
#
# Elastic Constant Matrix: (Units=GPa)
#
#
# Indices 1 2 3 4 5 6 
#
# 1 144.8747 20.1841 13.0802 0.0000 0.0000 0.0000
# 2 20.1841 44.7347 17.1122 0.0000 0.0000 0.0000
# 3 13.0802 17.1122 104.5240 0.0000 0.0000 0.0000
# 4 0.0000 0.0000 0.0000 24.6252 0.0000 0.0000
# 5 0.0000 0.0000 0.0000 0.0000 13.9303 0.0000
# 6 0.0000 0.0000 0.0000 0.0000 0.0000 26.5890
#
#
#
# Elastic Compliance Matrix: (Units=1/GPa)
#
#
# Indices 1 2 3 4 5 6 
#
# 1 0.007381 -0.003176 -0.000404 0.000000 0.000000 0.000000
# 2 -0.003176 0.025214 -0.003730 0.000000 0.000000 0.000000
# 3 -0.000404 -0.003730 0.010228 0.000000 0.000000 0.000000
# 4 0.000000 0.000000 0.000000 0.040609 0.000000 0.000000
# 5 0.000000 0.000000 0.000000 0.000000 0.071786 0.000000
# 6 0.000000 0.000000 0.000000 0.000000 0.000000 0.037609
#
#
# Mechanical properties :
#
#
# Convention : Reuss Voigt Hill
#
# Bulk Modulus (GPa) = 35.45672 43.87626 39.66649
# Shear Modulus (GPa) = 23.05744 29.27937 26.16841
#
# Velocity S-wave (km/s) = 3.41201 3.84491 3.63491
# Velocity P-wave (km/s) = 5.78141 6.47028 6.13552
#
# Compressibility (1/GPa) = 0.02820340
#
# Stress axis : x y z
#
# Youngs Moduli (GPa) = 135.47460 39.66049 97.76661
#
# Poissons Ratio (x) = 0.12596 0.03947
# Poissons Ratio (y) = 0.43027 0.36472
# Poissons Ratio (z) = 0.05470 0.14795
#
# Static dielectric constant tensor:
#      x y z
#    x 1.725730 0.000000 0.000000 
#    y 0.000000 1.698580 0.000000 
#    z 0.000000 0.000000 1.686570 
# 
# From -- ./inp_files/9763.got.cif
#   From: 2010.05.17/outbox.cif.g08.bks.cpg/sg65_5_cif.got.tgz:9763.got - 2010.06.03 17:01:31.
