data_PCOD9493800
_publ_section_title
;
Structure prediction by ZEFSAII (Michael W. Deem and Ramdas Pophale) SiO2 
 PCOD9493800
Probable space group: C M M M
;
_chemical_formula_sum "Si O2"
_cell_formula_units_Z 64
_cell_length_a 22.424407
_cell_length_b 7.852088
_cell_length_c 17.063408
_cell_angle_alpha 90.000000
_cell_angle_beta 90.000000
_cell_angle_gamma 90.000000
_cell_volume 3004.497871
_symmetry_space_group_name_H-M "C M M M"
_symmetry_group_IT_number 65
_symmetry_cell_setting 'orthorhombic'
loop_
_space_group_symop_operation_xyz
x,y,z
-x,-y,z
x,-y,-z
-x,y,-z
-x,-y,-z
x,y,-z
-x,y,z
x,-y,z
1/2+x,1/2+y,z
1/2-x,1/2-y,z
1/2+x,1/2-y,-z
1/2-x,1/2+y,-z
1/2-x,1/2-y,-z
1/2+x,1/2+y,-z
1/2-x,1/2+y,z
1/2+x,1/2-y,z
loop_
_atom_site_type_symbol
_atom_site_label
_atom_site_fract_x
_atom_site_fract_y
_atom_site_fract_z
Si Si1 0.065824 0.207296 0.407559
Si Si2 0.623490 0.198087 0.160924
Si Si3 0.818322 0.796840 0.000000
Si Si4 0.681446 0.305353 0.317891
Si Si5 0.000000 0.708755 0.907352
O O1 0.069605 0.244893 0.500000
O O2 0.125172 0.274974 0.364674
O O3 0.000000 0.266665 0.378955
O O4 0.065022 0.000000 0.399632
O O5 0.654409 0.216117 0.077367
O O6 0.661422 0.289675 0.227512
O O7 0.557538 0.265000 0.141615
O O8 0.619923 0.000000 0.183683
O O9 0.750000 0.750000 0.000000
O O10 0.827988 0.000000 0.000000
O O11 0.682074 0.500000 0.343003
O O12 0.750000 0.250000 0.327820
O O13 0.000000 0.500000 0.909680
O O14 0.000000 0.761928 0.000000
#
# Coordination Sequence:
#
# PCOD9493800 Si02
#       5
#    16  16   8  16   8
#     4   8  16  34  60  88 118 153 193 239 292 348
#     4  11  22  39  60  83 115 153 192 235 289 351
#     4  12  24  39  58  81 109 148 194 242 291 340
#     4  11  23  38  58  87 121 155 197 245 293 346
#     4   9  18  36  60  84 109 144 187 233 292 352
#
# _framework density 21.301397000000001
#
# number of rings (size 3 to 8) (size 9 to 14) (size 15 to 20)
#    0.000    1.875    1.250    4.125    1.750    0.500 
#    0.000    2.500    0.000    2.250    0.000    7.000 
#    0.000    0.000    0.000    0.000    0.000    0.000 
#
# Total GULP energy -178530.040669 kJ/mol
# GULP energy per Si atom -5579.063771 kJ/mol
# Density = 2.125291 g / cm^3
# Si number density = 21.301397 Si / 1000 Ang^3
#
#
#
# Elastic Constant Matrix: (Units=GPa)
#
#
# Indices 1 2 3 4 5 6 
#
# 1 246.2397 11.4218 71.0966 0.0000 0.0000 0.0000
# 2 11.4218 33.7023 -9.8340 0.0000 0.0000 0.0000
# 3 71.0966 -9.8340 69.2410 0.0000 0.0000 0.0000
# 4 0.0000 0.0000 0.0000 -13.5981 0.0000 0.0000
# 5 0.0000 0.0000 0.0000 0.0000 45.3852 0.0000
# 6 0.0000 0.0000 0.0000 0.0000 0.0000 -20.6598
#
#
#
# Elastic Compliance Matrix: (Units=1/GPa)
#
#
# Indices 1 2 3 4 5 6 
#
# 1 0.006293 -0.004192 -0.007057 0.000000 0.000000 0.000000
# 2 -0.004192 0.033747 0.009097 0.000000 0.000000 0.000000
# 3 -0.007057 0.009097 0.022981 0.000000 0.000000 0.000000
# 4 0.000000 0.000000 0.000000 -0.073539 0.000000 0.000000
# 5 0.000000 0.000000 0.000000 0.000000 0.022034 0.000000
# 6 0.000000 0.000000 0.000000 0.000000 0.000000 -0.048403
#
#
# Mechanical properties :
#
#
# Convention : Reuss Voigt Hill
#
# Bulk Modulus (GPa) = 17.03095 54.95021 35.99058
# Shear Modulus (GPa) = -384.24821 20.65868 -181.79476
#
# Velocity S-wave (km/s) = -13.44537 3.11758 -9.24821
# Velocity P-wave (km/s) = 15.26515 6.22990 9.85427
#
# Compressibility (1/GPa) = 0.05871663
#
# Stress axis : x y z
#
# Youngs Moduli (GPa) = 158.90322 29.63254 43.51489
#
# Poissons Ratio (x) = 0.12422 0.30709
# Poissons Ratio (y) = 0.66612 -0.39586
# Poissons Ratio (z) = 1.12141 -0.26957
#
# Static dielectric constant tensor:
#      x y z
#    x 1.874570 0.000000 0.000000 
#    y 0.000000 1.794980 0.000000 
#    z 0.000000 0.000000 1.721290 
# 
# From -- ./inp_files/55296.got.cif
#   From: 2010.05.17/outbox.cif.g08.bks.cpg/sg65_28_cif.got.tgz:55296.got - 2010.06.03 17:01:31.
