data_PCOD9493611
_publ_section_title
;
Structure prediction by ZEFSAII (Michael W. Deem and Ramdas Pophale) SiO2 
 PCOD9493611
Probable space group: C M M M
;
_chemical_formula_sum "Si O2"
_cell_formula_units_Z 88
_cell_length_a 17.357992
_cell_length_b 15.838383
_cell_length_c 17.943418
_cell_angle_alpha 90.000000
_cell_angle_beta 90.000000
_cell_angle_gamma 90.000000
_cell_volume 4933.049791
_symmetry_space_group_name_H-M "C M M M"
_symmetry_group_IT_number 65
_symmetry_cell_setting 'orthorhombic'
loop_
_space_group_symop_operation_xyz
x,y,z
-x,-y,z
x,-y,-z
-x,y,-z
-x,-y,-z
x,y,-z
-x,y,z
x,-y,z
1/2+x,1/2+y,z
1/2-x,1/2-y,z
1/2+x,1/2-y,-z
1/2-x,1/2+y,-z
1/2-x,1/2-y,-z
1/2+x,1/2+y,-z
1/2-x,1/2+y,z
1/2+x,1/2-y,z
loop_
_atom_site_type_symbol
_atom_site_label
_atom_site_fract_x
_atom_site_fract_y
_atom_site_fract_z
Si Si1 0.840220 0.261341 0.192777
Si Si2 0.092403 0.405202 0.911729
Si Si3 0.906205 0.500000 0.415854
Si Si4 0.407720 0.351777 0.581748
Si Si5 0.593010 0.405758 0.253665
Si Si6 0.907911 0.323619 0.346158
O O1 0.750000 0.250000 0.183046
O O2 0.872384 0.326681 0.132193
O O3 0.877328 0.168141 0.200111
O O4 0.861515 0.301378 0.272575
O O5 0.117505 0.500000 0.886613
O O6 0.000000 0.402268 0.902120
O O7 0.108427 0.398987 0.000000
O O8 0.878061 0.500000 0.500000
O O9 0.883787 0.414155 0.375882
O O10 0.000000 0.500000 0.417673
O O11 0.377254 0.377706 0.500000
O O12 0.500000 0.367894 0.580025
O O13 0.379997 0.391522 0.660059
O O14 0.397067 0.251324 0.594185
O O15 0.500000 0.399803 0.255529
O O16 0.614950 0.500000 0.230110
O O17 0.000000 0.324317 0.328725
#
# Coordination Sequence:
#
# PCOD9493611 Si02
#       6
#    16  16   8  16  16  16
#     4  11  22  34  52  78 108 146 177 210 257 313
#     4   9  19  37  62  89 113 136 166 210 263 319
#     4   9  16  26  46  76 103 131 176 235 287 323
#     4   8  13  23  42  67  93 120 160 219 274 310
#     4   9  18  33  51  71  97 133 178 225 265 303
#     4   9  17  29  46  72 101 135 175 220 271 321
#
# _framework density 17.838863
#
# number of rings (size 3 to 8) (size 9 to 14) (size 15 to 20)
#    0.000    2.818    0.000    3.818    1.273    3.636 
#    0.000    1.818    0.000   14.182    0.000    2.545 
#    0.000    0.000    0.000    0.000    0.000    0.000 
#
# Total GULP energy -245107.210074 kJ/mol
# GULP energy per Si atom -5570.618411 kJ/mol
# Density = 1.779826 g / cm^3
# Si number density = 17.838863 Si / 1000 Ang^3
#
#
#
# Elastic Constant Matrix: (Units=GPa)
#
#
# Indices 1 2 3 4 5 6 
#
# 1 29.5275 41.1750 32.5782 0.0000 0.0000 0.0000
# 2 41.1750 166.3526 59.0940 0.0000 0.0000 0.0000
# 3 32.5782 59.0940 69.3483 0.0000 0.0000 0.0000
# 4 0.0000 0.0000 0.0000 -0.9150 0.0000 0.0000
# 5 0.0000 0.0000 0.0000 0.0000 -40.1250 0.0000
# 6 0.0000 0.0000 0.0000 0.0000 0.0000 2.6709
#
#
#
# Elastic Compliance Matrix: (Units=1/GPa)
#
#
# Indices 1 2 3 4 5 6 
#
# 1 0.078915 -0.009126 -0.029296 0.000000 0.000000 0.000000
# 2 -0.009126 0.009676 -0.003958 0.000000 0.000000 0.000000
# 3 -0.029296 -0.003958 0.031556 0.000000 0.000000 0.000000
# 4 0.000000 0.000000 0.000000 -1.092899 0.000000 0.000000
# 5 0.000000 0.000000 0.000000 0.000000 -0.024922 0.000000
# 6 0.000000 0.000000 0.000000 0.000000 0.000000 0.374405
#
#
# Mechanical properties :
#
#
# Convention : Reuss Voigt Hill
#
# Bulk Modulus (GPa) = 28.25929 58.99143 43.62536
# Shear Modulus (GPa) = -9.49284 1.15160 -4.17062
#
# Velocity S-wave (km/s) = -2.30933 0.80434 -1.53069
# Velocity P-wave (km/s) = 2.96060 5.83125 4.62432
#
# Compressibility (1/GPa) = 0.03538659
#
# Stress axis : x y z
#
# Youngs Moduli (GPa) = 12.67181 103.34546 31.69012
#
# Poissons Ratio (x) = 0.94312 0.92839
# Poissons Ratio (y) = 0.11564 0.12544
# Poissons Ratio (z) = 0.37123 0.40908
#
# Static dielectric constant tensor:
#      x y z
#    x 1.613590 0.000000 0.000000 
#    y 0.000000 1.633290 0.000000 
#    z 0.000000 0.000000 1.603220 
# 
# From -- ./inp_files/53041.got.cif
#   From: 2010.05.17/outbox.cif.g08.bks.cpg/sg65_27_cif.got.tgz:53041.got - 2010.06.03 17:01:31.
