data_PCOD9493712
_publ_section_title
;
Structure prediction by ZEFSAII (Michael W. Deem and Ramdas Pophale) SiO2 
 PCOD9493712
Probable space group: C M M M
;
_chemical_formula_sum "Si O2"
_cell_formula_units_Z 72
_cell_length_a 14.850106
_cell_length_b 27.889707
_cell_length_c 8.782080
_cell_angle_alpha 90.000000
_cell_angle_beta 90.000000
_cell_angle_gamma 90.000000
_cell_volume 3637.231088
_symmetry_space_group_name_H-M "C M M M"
_symmetry_group_IT_number 65
_symmetry_cell_setting 'orthorhombic'
loop_
_space_group_symop_operation_xyz
x,y,z
-x,-y,z
x,-y,-z
-x,y,-z
-x,-y,-z
x,y,-z
-x,y,z
x,-y,z
1/2+x,1/2+y,z
1/2-x,1/2-y,z
1/2+x,1/2-y,-z
1/2-x,1/2+y,-z
1/2-x,1/2-y,-z
1/2+x,1/2+y,-z
1/2-x,1/2+y,z
1/2+x,1/2-y,z
loop_
_atom_site_type_symbol
_atom_site_label
_atom_site_fract_x
_atom_site_fract_y
_atom_site_fract_z
Si Si1 0.396563 0.132714 0.681604
Si Si2 0.399113 0.666840 0.323158
Si Si3 0.274279 0.590164 0.180551
Si Si4 0.644586 0.763594 0.824334
Si Si5 0.104277 0.000000 0.814231
O O1 0.388458 0.137999 0.500000
O O2 0.500000 0.119755 0.717786
O O3 0.322255 0.095214 0.740022
O O4 0.374494 0.183911 0.758900
O O5 0.373407 0.661987 0.500000
O O6 0.500000 0.647219 0.302311
O O7 0.329499 0.638193 0.220031
O O8 0.399794 0.722252 0.276304
O O9 0.338109 0.546511 0.232446
O O10 0.261127 0.586358 0.000000
O O11 0.750000 0.750000 0.820442
O O12 0.614674 0.761162 0.000000
O O13 0.000000 0.000000 0.761996
O O14 0.101208 0.000000 0.000000
#
# Coordination Sequence:
#
# PCOD9493712 Si02
#       5
#    16  16  16  16   8
#     4  11  24  41  61  86 120 163 204 246 299 354
#     4  11  23  37  56  85 121 160 198 240 294 355
#     4  11  22  39  64  91 118 153 197 247 301 354
#     4  11  22  36  57  87 119 157 203 250 297 345
#     4   9  20  40  66  95 124 152 187 239 302 361
#
# _framework density 19.795279000000001
#
# number of rings (size 3 to 8) (size 9 to 14) (size 15 to 20)
#    0.000    1.222    2.222    4.000    0.000    8.000 
#    0.000    2.778    0.000    7.333    0.000    0.000 
#    0.000    0.000    0.000    0.000    0.000    0.000 
#
# Total GULP energy -201210.495839 kJ/mol
# GULP energy per Si atom -5589.180440 kJ/mol
# Density = 1.975022 g / cm^3
# Si number density = 19.795279 Si / 1000 Ang^3
#
#
#
# Elastic Constant Matrix: (Units=GPa)
#
#
# Indices 1 2 3 4 5 6 
#
# 1 148.4716 52.4270 36.8258 0.0000 0.0000 0.0000
# 2 52.4270 80.1218 4.7079 0.0000 0.0000 0.0000
# 3 36.8258 4.7079 52.5181 0.0000 0.0000 0.0000
# 4 0.0000 0.0000 0.0000 -234.3542 0.0000 0.0000
# 5 0.0000 0.0000 0.0000 0.0000 47.3960 0.0000
# 6 0.0000 0.0000 0.0000 0.0000 0.0000 25.9071
#
#
#
# Elastic Compliance Matrix: (Units=1/GPa)
#
#
# Indices 1 2 3 4 5 6 
#
# 1 0.010826 -0.006673 -0.006993 0.000000 0.000000 0.000000
# 2 -0.006673 0.016660 0.003186 0.000000 0.000000 0.000000
# 3 -0.006993 0.003186 0.023659 0.000000 0.000000 0.000000
# 4 0.000000 0.000000 0.000000 -0.004267 0.000000 0.000000
# 5 0.000000 0.000000 0.000000 0.000000 0.021099 0.000000
# 6 0.000000 0.000000 0.000000 0.000000 0.000000 0.038599
#
#
# Mechanical properties :
#
#
# Convention : Reuss Voigt Hill
#
# Bulk Modulus (GPa) = 33.12958 52.11476 42.62217
# Shear Modulus (GPa) = 36.33738 -19.73351 8.30193
#
# Velocity S-wave (km/s) = 4.28911 -3.16077 2.05012
# Velocity P-wave (km/s) = 6.42659 3.61434 5.21366
#
# Compressibility (1/GPa) = 0.03018451
#
# Stress axis : x y z
#
# Youngs Moduli (GPa) = 92.36876 60.02293 42.26702
#
# Poissons Ratio (x) = 0.40054 0.29558
# Poissons Ratio (y) = 0.61639 -0.13465
# Poissons Ratio (z) = 0.64595 -0.19122
#
# Static dielectric constant tensor:
#      x y z
#    x 1.738700 0.000000 0.000000 
#    y 0.000000 1.679390 0.000000 
#    z 0.000000 0.000000 1.661530 
# 
# From -- ./inp_files/7278.got.cif
#   From: 2010.05.17/outbox.cif.g08.bks.cpg/sg65_4_cif.got.tgz:7278.got - 2010.06.03 17:01:31.
