data_PCOD9493696
_publ_section_title
;
Structure prediction by ZEFSAII (Michael W. Deem and Ramdas Pophale) SiO2 
 PCOD9493696
Probable space group: C M M M
;
_chemical_formula_sum "Si O2"
_cell_formula_units_Z 64
_cell_length_a 9.258523
_cell_length_b 18.138994
_cell_length_c 21.448645
_cell_angle_alpha 90.000000
_cell_angle_beta 90.000000
_cell_angle_gamma 90.000000
_cell_volume 3602.091729
_symmetry_space_group_name_H-M "C M M M"
_symmetry_group_IT_number 65
_symmetry_cell_setting 'orthorhombic'
loop_
_space_group_symop_operation_xyz
x,y,z
-x,-y,z
x,-y,-z
-x,y,-z
-x,-y,-z
x,y,-z
-x,y,z
x,-y,z
1/2+x,1/2+y,z
1/2-x,1/2-y,z
1/2+x,1/2-y,-z
1/2-x,1/2+y,-z
1/2-x,1/2-y,-z
1/2+x,1/2+y,-z
1/2-x,1/2+y,z
1/2+x,1/2-y,z
loop_
_atom_site_type_symbol
_atom_site_label
_atom_site_fract_x
_atom_site_fract_y
_atom_site_fract_z
Si Si1 0.833148 0.089713 0.122635
Si Si2 0.828079 0.911532 0.737381
Si Si3 0.325021 0.916202 0.500000
Si Si4 0.325830 0.828997 0.374670
Si Si5 0.165821 0.409886 0.000000
O O1 0.785853 0.111879 0.192161
O O2 0.742315 0.115284 0.063502
O O3 0.000000 0.111042 0.114537
O O4 0.829313 0.000000 0.122688
O O5 0.734349 0.872069 0.685217
O O6 0.000000 0.896216 0.729732
O O7 0.810497 0.000000 0.732694
O O8 0.500000 0.919150 0.500000
O O9 0.284067 0.873501 0.437270
O O10 0.270465 0.000000 0.500000
O O11 0.500000 0.822573 0.372378
O O12 0.250000 0.750000 0.376719
O O13 0.172584 0.500000 0.000000
O O14 0.000000 0.388204 0.000000
#
# Coordination Sequence:
#
# PCOD9493696 Si02
#       5
#    16  16   8  16   8
#     4   8  14  25  41  61  90 129 166 202 250 305
#     4   9  18  33  52  75 103 134 172 217 261 308
#     4   9  19  36  57  81 106 133 168 209 254 304
#     4  11  22  36  55  77 105 139 173 211 254 303
#     4   9  15  21  33  59  94 127 162 207 252 295
#
# _framework density 17.767453
#
# number of rings (size 3 to 8) (size 9 to 14) (size 15 to 20)
#    0.000    2.750    0.000    3.750    0.000    4.000 
#    0.000    4.375    0.000    4.500    0.000    0.875 
#    0.000    0.000    0.000    0.000    0.000    0.000 
#
# Total GULP energy -178390.765518 kJ/mol
# GULP energy per Si atom -5574.711422 kJ/mol
# Density = 1.772701 g / cm^3
# Si number density = 17.767453 Si / 1000 Ang^3
#
#
#
# Elastic Constant Matrix: (Units=GPa)
#
#
# Indices 1 2 3 4 5 6 
#
# 1 80.0930 43.9142 98.9104 0.0000 0.0000 0.0000
# 2 43.9142 57.7721 63.7378 0.0000 0.0000 0.0000
# 3 98.9104 63.7378 217.7884 0.0000 0.0000 0.0000
# 4 0.0000 0.0000 0.0000 -9.3287 0.0000 0.0000
# 5 0.0000 0.0000 0.0000 0.0000 -14.2761 0.0000
# 6 0.0000 0.0000 0.0000 0.0000 0.0000 13.4864
#
#
#
# Elastic Compliance Matrix: (Units=1/GPa)
#
#
# Indices 1 2 3 4 5 6 
#
# 1 0.033961 -0.012994 -0.011621 0.000000 0.000000 0.000000
# 2 -0.012994 0.030535 -0.003035 0.000000 0.000000 0.000000
# 3 -0.011621 -0.003035 0.010758 0.000000 0.000000 0.000000
# 4 0.000000 0.000000 0.000000 -0.107196 0.000000 0.000000
# 5 0.000000 0.000000 0.000000 0.000000 -0.070047 0.000000
# 6 0.000000 0.000000 0.000000 0.000000 0.000000 0.074149
#
#
# Mechanical properties :
#
#
# Convention : Reuss Voigt Hill
#
# Bulk Modulus (GPa) = 50.11554 85.41980 67.76767
# Shear Modulus (GPa) = 146.58553 7.91573 77.25063
#
# Velocity S-wave (km/s) = 9.09293 2.11302 6.60099
# Velocity P-wave (km/s) = 11.76900 7.35759 9.81437
#
# Compressibility (1/GPa) = 0.01995389
#
# Stress axis : x y z
#
# Youngs Moduli (GPa) = 29.44548 32.74949 92.95760
#
# Poissons Ratio (x) = 0.42554 1.08025
# Poissons Ratio (y) = 0.38261 0.28213
# Poissons Ratio (z) = 0.34218 0.09940
#
# Static dielectric constant tensor:
#      x y z
#    x 1.588620 0.000000 0.000000 
#    y 0.000000 1.591030 0.000000 
#    z 0.000000 0.000000 1.607800 
# 
# From -- ./inp_files/49431.got.cif
#   From: 2010.05.17/outbox.cif.g08.bks.cpg/sg65_25_cif.got.tgz:49431.got - 2010.06.03 17:01:31.
