data_PCOD9493583
_publ_section_title
;
Structure prediction by ZEFSAII (Michael W. Deem and Ramdas Pophale) SiO2 
 PCOD9493583
Probable space group: C M M M
;
_chemical_formula_sum "Si O2"
_cell_formula_units_Z 64
_cell_length_a 17.337114
_cell_length_b 21.259726
_cell_length_c 8.882120
_cell_angle_alpha 90.000000
_cell_angle_beta 90.000000
_cell_angle_gamma 90.000000
_cell_volume 3273.792159
_symmetry_space_group_name_H-M "C M M M"
_symmetry_group_IT_number 65
_symmetry_cell_setting 'orthorhombic'
loop_
_space_group_symop_operation_xyz
x,y,z
-x,-y,z
x,-y,-z
-x,y,-z
-x,-y,-z
x,y,-z
-x,y,z
x,-y,z
1/2+x,1/2+y,z
1/2-x,1/2-y,z
1/2+x,1/2-y,-z
1/2-x,1/2+y,-z
1/2-x,1/2-y,-z
1/2+x,1/2+y,-z
1/2-x,1/2+y,z
1/2+x,1/2-y,z
loop_
_atom_site_type_symbol
_atom_site_label
_atom_site_fract_x
_atom_site_fract_y
_atom_site_fract_z
Si Si1 0.379986 0.930940 0.321424
Si Si2 0.587721 0.328681 0.678671
Si Si3 0.736112 0.382597 0.826070
Si Si4 0.120163 0.303636 0.826678
O O1 0.389951 0.923668 0.500000
O O2 0.289091 0.927119 0.276903
O O3 0.412325 0.869832 0.236323
O O4 0.408886 0.000000 0.276987
O O5 0.600147 0.333107 0.500000
O O6 0.500000 0.347923 0.713043
O O7 0.651985 0.368823 0.764675
O O8 0.597881 0.256260 0.729900
O O9 0.787907 0.318590 0.821082
O O10 0.735820 0.403454 0.000000
O O11 0.098420 0.293578 0.000000
#
# Coordination Sequence:
#
# PCOD9493583 Si02
#       4
#    16  16  16  16
#     4   9  17  30  51  76  99 125 159 201 244 283
#     4  11  22  33  48  72 101 132 164 199 242 290
#     4   9  19  32  50  74  99 128 162 199 242 288
#     4   9  19  32  50  74  99 128 162 199 242 288
#
# _framework density 19.549195000000001
#
# number of rings (size 3 to 8) (size 9 to 14) (size 15 to 20)
#    1.500    1.000    0.000    3.000    0.000    7.000 
#    0.000    0.000    0.000    1.500    0.000   10.500 
#    0.000    0.000    0.000    0.000    0.000    0.000 
#
# Total GULP energy -178193.530791 kJ/mol
# GULP energy per Si atom -5568.547837 kJ/mol
# Density = 1.950470 g / cm^3
# Si number density = 19.549195 Si / 1000 Ang^3
#
#
#
# Elastic Constant Matrix: (Units=GPa)
#
#
# Indices 1 2 3 4 5 6 
#
# 1 99.8790 -2.4258 25.0992 0.0000 0.0000 0.0000
# 2 -2.4258 36.8211 -8.7837 0.0000 0.0000 0.0000
# 3 25.0992 -8.7837 48.3853 0.0000 0.0000 0.0000
# 4 0.0000 0.0000 0.0000 -13.3139 0.0000 0.0000
# 5 0.0000 0.0000 0.0000 0.0000 5.9000 0.0000
# 6 0.0000 0.0000 0.0000 0.0000 0.0000 140.0645
#
#
#
# Elastic Compliance Matrix: (Units=1/GPa)
#
#
# Indices 1 2 3 4 5 6 
#
# 1 0.011530 -0.000697 -0.006108 0.000000 0.000000 0.000000
# 2 -0.000697 0.028430 0.005523 0.000000 0.000000 0.000000
# 3 -0.006108 0.005523 0.024838 0.000000 0.000000 0.000000
# 4 0.000000 0.000000 0.000000 -0.075109 0.000000 0.000000
# 5 0.000000 0.000000 0.000000 0.000000 0.169492 0.000000
# 6 0.000000 0.000000 0.000000 0.000000 0.000000 0.007140
#
#
# Mechanical properties :
#
#
# Convention : Reuss Voigt Hill
#
# Bulk Modulus (GPa) = 16.06847 23.65165 19.86006
# Shear Modulus (GPa) = 26.36717 37.94316 32.15516
#
# Velocity S-wave (km/s) = 3.67653 4.41035 4.06005
# Velocity P-wave (km/s) = 5.12444 6.16926 5.67096
#
# Compressibility (1/GPa) = 0.06223369
#
# Stress axis : x y z
#
# Youngs Moduli (GPa) = 86.73023 35.17431 40.26049
#
# Poissons Ratio (x) = 0.02453 0.24590
# Poissons Ratio (y) = 0.06048 -0.22235
# Poissons Ratio (z) = 0.52972 -0.19426
#
# Static dielectric constant tensor:
#      x y z
#    x 1.738110 0.000000 0.000000 
#    y 0.000000 1.685060 0.000000 
#    z 0.000000 0.000000 1.643540 
# 
# From -- ./inp_files/6705.got.cif
#   From: 2010.05.17/outbox.cif.g08.bks.cpg/sg65_4_cif.got.tgz:6705.got - 2010.06.03 17:01:31.
