data_PCOD9493106
_publ_section_title
;
Structure prediction by ZEFSAII (Michael W. Deem and Ramdas Pophale) SiO2 
 PCOD9493106
Probable space group: C M M M
;
_chemical_formula_sum "Si O2"
_cell_formula_units_Z 58
_cell_length_a 13.012667
_cell_length_b 24.653426
_cell_length_c 9.984606
_cell_angle_alpha 90.000000
_cell_angle_beta 90.000000
_cell_angle_gamma 90.000000
_cell_volume 3203.129729
_symmetry_space_group_name_H-M "C M M M"
_symmetry_group_IT_number 65
_symmetry_cell_setting 'orthorhombic'
loop_
_space_group_symop_operation_xyz
x,y,z
-x,-y,z
x,-y,-z
-x,y,-z
-x,-y,-z
x,y,-z
-x,y,z
x,-y,z
1/2+x,1/2+y,z
1/2-x,1/2-y,z
1/2+x,1/2-y,-z
1/2-x,1/2+y,-z
1/2-x,1/2-y,-z
1/2+x,1/2+y,-z
1/2-x,1/2+y,z
1/2+x,1/2-y,z
loop_
_atom_site_type_symbol
_atom_site_label
_atom_site_fract_x
_atom_site_fract_y
_atom_site_fract_z
Si Si1 0.180685 0.632655 0.236376
Si Si2 0.000000 0.435927 0.348973
Si Si3 0.332372 0.600924 0.000000
Si Si4 0.279590 0.313658 0.500000
Si Si5 0.000000 0.000000 0.000000
Si Si6 0.500000 0.307035 0.000000
Si Si7 0.500000 0.785490 0.785888
Si Si8 0.000000 0.770870 0.500000
O O1 0.259485 0.608040 0.129755
O O2 0.237038 0.657260 0.367032
O O3 0.102751 0.679733 0.184317
O O4 0.101631 0.586194 0.279933
O O5 0.000000 0.500000 0.351461
O O6 0.000000 0.413748 0.500000
O O7 0.402748 0.654216 0.000000
O O8 0.407962 0.548544 0.000000
O O9 0.250000 0.250000 0.500000
O O10 0.401889 0.309726 0.500000
O O11 0.500000 0.268447 0.128039
O O12 0.500000 0.768027 0.630071
#
# Coordination Sequence:
#
# PCOD9493106 Si02
#       8
#    16   8   8   8   2   4   8   4
#     4  11  23  40  66  96 128 170 213 261 331 390
#     4  10  22  42  68  97 125 158 206 279 340 384
#     4  11  26  44  66  90 121 180 223 272 321 380
#     4  12  22  38  62  94 136 181 204 260 318 397
#     4  10  28  56  68  80 136 176 234 278 334 378
#     4  11  24  39  58  86 131 172 207 262 314 372
#     4  11  21  36  59  96 134 158 204 259 313 400
#     4  12  22  32  58  90 130 180 214 238 302 394
#
# _framework density 18.107289999999999
#
# number of rings (size 3 to 8) (size 9 to 14) (size 15 to 20)
#    0.000    0.966    4.138    2.483    3.862    3.862 
#    0.000    0.690    0.000    0.828    0.000    0.000 
#    0.000    0.000    0.000    0.000    0.000    0.000 
#
# Total GULP energy -161673.830913 kJ/mol
# GULP energy per Si atom -5574.959687 kJ/mol
# Density = 1.806608 g / cm^3
# Si number density = 18.107290 Si / 1000 Ang^3
#
#
#
# Elastic Constant Matrix: (Units=GPa)
#
#
# Indices 1 2 3 4 5 6 
#
# 1 185.9162 73.7375 73.4955 0.0000 0.0000 0.0000
# 2 73.7375 126.0152 63.4626 0.0000 0.0000 0.0000
# 3 73.4955 63.4626 124.9575 0.0000 0.0000 0.0000
# 4 0.0000 0.0000 0.0000 11.7483 0.0000 0.0000
# 5 0.0000 0.0000 0.0000 0.0000 76.6264 0.0000
# 6 0.0000 0.0000 0.0000 0.0000 0.0000 5.1765
#
#
#
# Elastic Compliance Matrix: (Units=1/GPa)
#
#
# Indices 1 2 3 4 5 6 
#
# 1 0.007779 -0.003020 -0.003041 0.000000 0.000000 0.000000
# 2 -0.003020 0.011835 -0.004235 0.000000 0.000000 0.000000
# 3 -0.003041 -0.004235 0.011942 0.000000 0.000000 0.000000
# 4 0.000000 0.000000 0.000000 0.085119 0.000000 0.000000
# 5 0.000000 0.000000 0.000000 0.000000 0.013050 0.000000
# 6 0.000000 0.000000 0.000000 0.000000 0.000000 0.193181
#
#
# Mechanical properties :
#
#
# Convention : Reuss Voigt Hill
#
# Bulk Modulus (GPa) = 91.20538 95.36445 93.28491
# Shear Modulus (GPa) = 14.40288 33.78981 24.09634
#
# Velocity S-wave (km/s) = 2.82338 4.32451 3.65191
# Velocity P-wave (km/s) = 7.81712 8.81566 8.33136
#
# Compressibility (1/GPa) = 0.01096427
#
# Stress axis : x y z
#
# Youngs Moduli (GPa) = 128.55253 84.49291 83.73676
#
# Poissons Ratio (x) = 0.25518 0.25468
# Poissons Ratio (y) = 0.38824 0.35459
# Poissons Ratio (z) = 0.39099 0.35779
#
# Static dielectric constant tensor:
#      x y z
#    x 1.683750 0.000000 0.000000 
#    y 0.000000 1.593720 0.000000 
#    z 0.000000 0.000000 1.767540 
# 
# From -- ./inp_files/4583.got.cif
#   From: 2010.05.17/outbox.cif.g08.bks.cpg/sg65_3_cif.got.tgz:4583.got - 2010.06.03 17:01:31.
