data_PCOD9493739
_publ_section_title
;
Structure prediction by ZEFSAII (Michael W. Deem and Ramdas Pophale) SiO2 
 PCOD9493739
Probable space group: C M M M
;
_chemical_formula_sum "Si O2"
_cell_formula_units_Z 88
_cell_length_a 18.853455
_cell_length_b 7.744454
_cell_length_c 29.652968
_cell_angle_alpha 90.000000
_cell_angle_beta 90.000000
_cell_angle_gamma 90.000000
_cell_volume 4329.621406
_symmetry_space_group_name_H-M "C M M M"
_symmetry_group_IT_number 65
_symmetry_cell_setting 'orthorhombic'
loop_
_space_group_symop_operation_xyz
x,y,z
-x,-y,z
x,-y,-z
-x,y,-z
-x,-y,-z
x,y,-z
-x,y,z
x,-y,z
1/2+x,1/2+y,z
1/2-x,1/2-y,z
1/2+x,1/2-y,-z
1/2-x,1/2+y,-z
1/2-x,1/2-y,-z
1/2+x,1/2+y,-z
1/2-x,1/2+y,z
1/2+x,1/2-y,z
loop_
_atom_site_type_symbol
_atom_site_label
_atom_site_fract_x
_atom_site_fract_y
_atom_site_fract_z
Si Si1 0.418001 0.712000 0.176449
Si Si2 0.832828 0.207810 0.263865
Si Si3 0.832513 0.792170 0.636070
Si Si4 0.419769 0.795185 0.000000
Si Si5 0.832665 0.203911 0.910526
Si Si6 0.082657 0.210651 0.549532
O O1 0.500000 0.764364 0.173100
O O2 0.417257 0.500000 0.176493
O O3 0.381114 0.770117 0.222823
O O4 0.372317 0.775276 0.133742
O O5 0.750000 0.250000 0.256262
O O6 0.853478 0.271878 0.313928
O O7 0.838529 0.000000 0.264656
O O8 0.750000 0.750000 0.630441
O O9 0.875439 0.725448 0.593092
O O10 0.840626 0.000000 0.636670
O O11 0.375767 0.747829 0.955549
O O12 0.500000 0.721216 0.000000
O O13 0.425958 0.000000 0.000000
O O14 0.750000 0.250000 0.913492
O O15 0.835211 0.000000 0.905788
O O16 0.109286 0.266663 0.500000
O O17 0.000000 0.257397 0.552888
O O18 0.085836 0.000000 0.549798
#
# Coordination Sequence:
#
# PCOD9493739 Si02
#       6
#    16  16  16   8  16  16
#     4   9  18  32  51  76 102 128 162 205 249 290
#     4   9  17  30  48  69  95 125 157 195 238 287
#     4   9  17  28  44  67  92 120 154 193 238 285
#     4  11  24  41  60  83 111 139 170 211 254 295
#     4  11  22  37  58  81 107 139 174 209 248 297
#     4   8  14  25  41  62  88 117 152 195 238 279
#
# _framework density 20.325102000000001
#
# number of rings (size 3 to 8) (size 9 to 14) (size 15 to 20)
#    0.000    2.636    0.000    2.727    0.000    2.545 
#    0.000    4.545    0.000    3.273    0.000    6.364 
#    0.000    0.000    0.000    0.000    0.000    0.000 
#
# Total GULP energy -245517.203533 kJ/mol
# GULP energy per Si atom -5579.936444 kJ/mol
# Density = 2.027884 g / cm^3
# Si number density = 20.325102 Si / 1000 Ang^3
#
#
#
# Elastic Constant Matrix: (Units=GPa)
#
#
# Indices 1 2 3 4 5 6 
#
# 1 151.9954 6.2788 140.5804 0.0000 0.0000 0.0000
# 2 6.2788 32.1563 10.9833 0.0000 0.0000 0.0000
# 3 140.5804 10.9833 247.9637 0.0000 0.0000 0.0000
# 4 0.0000 0.0000 0.0000 1.7616 0.0000 0.0000
# 5 0.0000 0.0000 0.0000 0.0000 93.6437 0.0000
# 6 0.0000 0.0000 0.0000 0.0000 0.0000 8.1906
#
#
#
# Elastic Compliance Matrix: (Units=1/GPa)
#
#
# Indices 1 2 3 4 5 6 
#
# 1 0.013832 -0.000023 -0.007841 0.000000 0.000000 0.000000
# 2 -0.000023 0.031576 -0.001386 0.000000 0.000000 0.000000
# 3 -0.007841 -0.001386 0.008540 0.000000 0.000000 0.000000
# 4 0.000000 0.000000 0.000000 0.567682 0.000000 0.000000
# 5 0.000000 0.000000 0.000000 0.000000 0.010679 0.000000
# 6 0.000000 0.000000 0.000000 0.000000 0.000000 0.122092
#
#
# Mechanical properties :
#
#
# Convention : Reuss Voigt Hill
#
# Bulk Modulus (GPa) = 28.20972 83.08892 55.64932
# Shear Modulus (GPa) = 6.37174 39.00402 22.68788
#
# Velocity S-wave (km/s) = 1.77249 4.38540 3.34466
# Velocity P-wave (km/s) = 4.25421 8.16156 6.50805
#
# Compressibility (1/GPa) = 0.03544877
#
# Stress axis : x y z
#
# Youngs Moduli (GPa) = 72.29468 31.66977 117.10102
#
# Poissons Ratio (x) = 0.00072 0.91820
# Poissons Ratio (y) = 0.00164 0.16227
# Poissons Ratio (z) = 0.56687 0.04389
#
# Static dielectric constant tensor:
#      x y z
#    x 2.969290 0.000000 0.000000 
#    y 0.000000 1.743910 0.000000 
#    z 0.000000 0.000000 1.942830 
# 
# From -- ./inp_files/77958.got.cif
#   From: 2010.05.17/outbox.cif.g08.bks.cpg/sg65_39_cif.got.tgz:77958.got - 2010.06.03 17:01:31.
