data_PCOD9493852
_publ_section_title
;
Structure prediction by ZEFSAII (Michael W. Deem and Ramdas Pophale) SiO2 
 PCOD9493852
Probable space group: C M M M
;
_chemical_formula_sum "Si O2"
_cell_formula_units_Z 88
_cell_length_a 12.197251
_cell_length_b 14.446698
_cell_length_c 28.459223
_cell_angle_alpha 90.000000
_cell_angle_beta 90.000000
_cell_angle_gamma 90.000000
_cell_volume 5014.799731
_symmetry_space_group_name_H-M "C M M M"
_symmetry_group_IT_number 65
_symmetry_cell_setting 'orthorhombic'
loop_
_space_group_symop_operation_xyz
x,y,z
-x,-y,z
x,-y,-z
-x,y,-z
-x,-y,-z
x,y,-z
-x,y,z
x,-y,z
1/2+x,1/2+y,z
1/2-x,1/2-y,z
1/2+x,1/2-y,-z
1/2-x,1/2+y,-z
1/2-x,1/2-y,-z
1/2+x,1/2+y,-z
1/2-x,1/2+y,z
1/2+x,1/2-y,z
loop_
_atom_site_type_symbol
_atom_site_label
_atom_site_fract_x
_atom_site_fract_y
_atom_site_fract_z
Si Si1 0.629894 0.103093 0.710860
Si Si2 0.219708 0.644089 0.609675
Si Si3 0.132899 0.891036 0.845800
Si Si4 0.750000 0.750000 0.775738
Si Si5 0.871264 0.887770 0.050437
Si Si6 0.868672 0.000000 0.555984
Si Si7 0.500000 0.888949 0.552685
O O1 0.500000 0.114210 0.701751
O O2 0.693428 0.105858 0.661381
O O3 0.673312 0.185280 0.743454
O O4 0.646054 0.000000 0.731877
O O5 0.250000 0.750000 0.614926
O O6 0.312197 0.587016 0.581839
O O7 0.108708 0.638317 0.579861
O O8 0.181894 0.821358 0.807926
O O9 0.172673 0.861743 0.898319
O O10 0.000000 0.886743 0.845397
O O11 0.161462 0.000000 0.838019
O O12 0.000000 0.861764 0.050030
O O13 0.868349 0.000000 0.050474
O O14 0.823038 0.857001 0.000000
O O15 0.843049 0.000000 0.500000
O O16 0.000000 0.000000 0.561216
O O17 0.500000 0.850792 0.500000
O O18 0.500000 0.000000 0.550418
#
# Coordination Sequence:
#
# PCOD9493852 Si02
#       7
#    16  16  16   8  16   8   8
#     4  11  23  41  62  82 107 144 188 238 281 328
#     4  12  24  42  65  91 118 150 191 234 279 330
#     4   9  18  33  52  77 109 143 182 229 278 334
#     4  12  22  36  55  82 109 144 184 232 290 336
#     4   7  10  20  42  70 100 137 178 219 268 325
#     4  11  26  45  63  91 131 158 175 217 284 347
#     4  11  22  40  68  93 117 153 195 232 269 325
#
# _framework density 17.548058999999999
#
# number of rings (size 3 to 8) (size 9 to 14) (size 15 to 20)
#    0.000    1.818    3.636    3.273    1.273    1.455 
#    0.000    0.455    0.000    0.000    0.000    0.000 
#    0.000    0.000    0.000   22.182    0.000    1.455 
#
# Total GULP energy -245250.359333 kJ/mol
# GULP energy per Si atom -5573.871803 kJ/mol
# Density = 1.750812 g / cm^3
# Si number density = 17.548059 Si / 1000 Ang^3
#
#
#
# Elastic Constant Matrix: (Units=GPa)
#
#
# Indices 1 2 3 4 5 6 
#
# 1 69.9168 41.8283 43.7992 0.0000 0.0000 0.0000
# 2 41.8283 114.5739 55.7147 0.0000 0.0000 0.0000
# 3 43.7992 55.7147 139.6745 0.0000 0.0000 0.0000
# 4 0.0000 0.0000 0.0000 8.5449 0.0000 0.0000
# 5 0.0000 0.0000 0.0000 0.0000 17.0251 0.0000
# 6 0.0000 0.0000 0.0000 0.0000 0.0000 13.4917
#
#
#
# Elastic Compliance Matrix: (Units=1/GPa)
#
#
# Indices 1 2 3 4 5 6 
#
# 1 0.020097 -0.005301 -0.004188 0.000000 0.000000 0.000000
# 2 -0.005301 0.012226 -0.003215 0.000000 0.000000 0.000000
# 3 -0.004188 -0.003215 0.009755 0.000000 0.000000 0.000000
# 4 0.000000 0.000000 0.000000 0.117028 0.000000 0.000000
# 5 0.000000 0.000000 0.000000 0.000000 0.058737 0.000000
# 6 0.000000 0.000000 0.000000 0.000000 0.000000 0.074120
#
#
# Mechanical properties :
#
#
# Convention : Reuss Voigt Hill
#
# Bulk Modulus (GPa) = 59.97956 67.42773 63.70364
# Shear Modulus (GPa) = 15.48335 20.00054 17.74195
#
# Velocity S-wave (km/s) = 2.97364 3.37969 3.18315
# Velocity P-wave (km/s) = 6.78561 7.33061 7.06336
#
# Compressibility (1/GPa) = 0.01667235
#
# Stress axis : x y z
#
# Youngs Moduli (GPa) = 49.75805 81.78998 102.51104
#
# Poissons Ratio (x) = 0.43354 0.42929
# Poissons Ratio (y) = 0.26375 0.32955
# Poissons Ratio (z) = 0.20837 0.26294
#
# Static dielectric constant tensor:
#      x y z
#    x 1.631660 0.000000 0.000000 
#    y 0.000000 1.589080 0.000000 
#    z 0.000000 0.000000 1.633210 
# 
# From -- ./inp_files/74325.got.cif
#   From: 2010.05.17/outbox.cif.g08.bks.cpg/sg65_38_cif.got.tgz:74325.got - 2010.06.03 17:01:31.
