data_PCOD9493597
_publ_section_title
;
Structure prediction by ZEFSAII (Michael W. Deem and Ramdas Pophale) SiO2 
 PCOD9493597
Probable space group: C M M M
;
_chemical_formula_sum "Si O2"
_cell_formula_units_Z 72
_cell_length_a 8.993560
_cell_length_b 34.061399
_cell_length_c 12.989636
_cell_angle_alpha 90.000000
_cell_angle_beta 90.000000
_cell_angle_gamma 90.000000
_cell_volume 3979.157225
_symmetry_space_group_name_H-M "C M M M"
_symmetry_group_IT_number 65
_symmetry_cell_setting 'orthorhombic'
loop_
_space_group_symop_operation_xyz
x,y,z
-x,-y,z
x,-y,-z
-x,y,-z
-x,-y,-z
x,y,-z
-x,y,z
x,-y,z
1/2+x,1/2+y,z
1/2-x,1/2-y,z
1/2+x,1/2-y,-z
1/2-x,1/2+y,-z
1/2-x,1/2-y,-z
1/2+x,1/2+y,-z
1/2-x,1/2+y,z
1/2+x,1/2-y,z
loop_
_atom_site_type_symbol
_atom_site_label
_atom_site_fract_x
_atom_site_fract_y
_atom_site_fract_z
Si Si1 0.824259 0.789744 0.175255
Si Si2 0.673815 0.810376 0.616960
Si Si3 0.325806 0.097889 0.329520
Si Si4 0.178452 0.371223 0.113906
Si Si5 0.822504 0.045196 0.500000
O O1 0.750000 0.750000 0.134555
O O2 0.779577 0.793046 0.296030
O O3 0.755304 0.828967 0.126291
O O4 0.000000 0.788736 0.161895
O O5 0.707898 0.798776 0.500000
O O6 0.500000 0.800671 0.639513
O O7 0.686169 0.857712 0.626442
O O8 0.500000 0.087235 0.332890
O O9 0.276647 0.101899 0.210533
O O10 0.236691 0.068252 0.400273
O O11 0.000000 0.365314 0.124032
O O12 0.209223 0.387095 0.000000
O O13 0.000000 0.046012 0.500000
O O14 0.772096 0.000000 0.500000
#
# Coordination Sequence:
#
# PCOD9493597 Si02
#       5
#    16  16  16  16   8
#     4  11  22  34  48  70 101 137 178 223 270 317
#     4   9  17  32  52  72  98 133 173 218 268 319
#     4   9  17  33  56  81 106 136 173 213 258 310
#     4   9  19  37  59  80 103 134 174 221 271 318
#     4  11  23  35  51  81 118 149 174 205 249 301
#
# _framework density 18.094283000000001
#
# number of rings (size 3 to 8) (size 9 to 14) (size 15 to 20)
#    0.000    2.333    1.111    3.667    0.000    6.222 
#    0.000    0.000    0.000    0.667    0.000    4.667 
#    0.000    0.000    0.000    0.000    0.000    0.000 
#
# Total GULP energy -200948.152143 kJ/mol
# GULP energy per Si atom -5581.893115 kJ/mol
# Density = 1.805310 g / cm^3
# Si number density = 18.094283 Si / 1000 Ang^3
#
#
#
# Elastic Constant Matrix: (Units=GPa)
#
#
# Indices 1 2 3 4 5 6 
#
# 1 52.4037 39.0251 34.9675 0.0000 0.0000 0.0000
# 2 39.0251 84.6252 40.5547 0.0000 0.0000 0.0000
# 3 34.9675 40.5547 137.4048 0.0000 0.0000 0.0000
# 4 0.0000 0.0000 0.0000 -49.7231 0.0000 0.0000
# 5 0.0000 0.0000 0.0000 0.0000 15.4013 0.0000
# 6 0.0000 0.0000 0.0000 0.0000 0.0000 25.3601
#
#
#
# Elastic Compliance Matrix: (Units=1/GPa)
#
#
# Indices 1 2 3 4 5 6 
#
# 1 0.031090 -0.012283 -0.004287 0.000000 0.000000 0.000000
# 2 -0.012283 0.018616 -0.002369 0.000000 0.000000 0.000000
# 3 -0.004287 -0.002369 0.009068 0.000000 0.000000 0.000000
# 4 0.000000 0.000000 0.000000 -0.020111 0.000000 0.000000
# 5 0.000000 0.000000 0.000000 0.000000 0.064930 0.000000
# 6 0.000000 0.000000 0.000000 0.000000 0.000000 0.039432
#
#
# Mechanical properties :
#
#
# Convention : Reuss Voigt Hill
#
# Bulk Modulus (GPa) = 47.85275 55.94759 51.90017
# Shear Modulus (GPa) = 26.61457 8.86676 17.74067
#
# Velocity S-wave (km/s) = 3.83937 2.21607 3.13462
# Velocity P-wave (km/s) = 6.79397 6.12659 6.46889
#
# Compressibility (1/GPa) = 0.02089744
#
# Stress axis : x y z
#
# Youngs Moduli (GPa) = 32.16454 53.71637 110.28055
#
# Poissons Ratio (x) = 0.65980 0.47274
# Poissons Ratio (y) = 0.39508 0.26122
# Poissons Ratio (z) = 0.13788 0.12724
#
# Static dielectric constant tensor:
#      x y z
#    x 1.599860 0.000000 0.000000 
#    y 0.000000 1.597410 0.000000 
#    z 0.000000 0.000000 1.664470 
# 
# From -- ./inp_files/36934.got.cif
#   From: 2010.05.17/outbox.cif.g08.bks.cpg/sg65_19_cif.got.tgz:36934.got - 2010.06.03 17:01:31.
