data_PCOD9493991
_publ_section_title
;
Structure prediction by ZEFSAII (Michael W. Deem and Ramdas Pophale) SiO2 
 PCOD9493991
Probable space group: C M M M
;
_chemical_formula_sum "Si O2"
_cell_formula_units_Z 88
_cell_length_a 21.946367
_cell_length_b 8.499997
_cell_length_c 26.096065
_cell_angle_alpha 90.000000
_cell_angle_beta 90.000000
_cell_angle_gamma 90.000000
_cell_volume 4868.065750
_symmetry_space_group_name_H-M "C M M M"
_symmetry_group_IT_number 65
_symmetry_cell_setting 'orthorhombic'
loop_
_space_group_symop_operation_xyz
x,y,z
-x,-y,z
x,-y,-z
-x,y,-z
-x,-y,-z
x,y,-z
-x,y,z
x,-y,z
1/2+x,1/2+y,z
1/2-x,1/2-y,z
1/2+x,1/2-y,-z
1/2-x,1/2+y,-z
1/2-x,1/2-y,-z
1/2+x,1/2+y,-z
1/2-x,1/2+y,z
1/2+x,1/2-y,z
loop_
_atom_site_type_symbol
_atom_site_label
_atom_site_fract_x
_atom_site_fract_y
_atom_site_fract_z
Si Si1 0.375505 0.687032 0.103406
Si Si2 0.573818 0.318853 0.389340
Si Si3 0.317323 0.188331 0.000000
Si Si4 0.929973 0.312419 0.278955
Si Si5 0.500000 0.811205 0.061246
Si Si6 0.570606 0.307416 0.500000
Si Si7 0.318394 0.188530 0.207373
O O1 0.375400 0.500000 0.109346
O O2 0.443124 0.750892 0.094044
O O3 0.339187 0.762102 0.150515
O O4 0.345648 0.739750 0.050598
O O5 0.500000 0.321167 0.393841
O O6 0.593479 0.500000 0.382294
O O7 0.586497 0.223697 0.338007
O O8 0.597191 0.259539 0.444770
O O9 0.250000 0.250000 0.000000
O O10 0.323547 0.000000 0.000000
O O11 0.933055 0.500000 0.271673
O O12 0.874282 0.253140 0.243710
O O13 0.000000 0.251579 0.269351
O O14 0.500000 0.000000 0.059475
O O15 0.500000 0.759600 0.000000
O O16 0.570371 0.500000 0.500000
O O17 0.500000 0.255241 0.500000
O O18 0.250000 0.250000 0.218666
O O19 0.316182 0.000000 0.210982
#
# Coordination Sequence:
#
# PCOD9493991 Si02
#       7
#    16  16   8  16   8   8  16
#     4  12  25  41  62  89 117 145 184 232 276 329
#     4   8  13  23  42  69 102 140 179 222 266 320
#     4  12  24  41  62  85 112 148 184 224 278 336
#     4   9  19  35  54  78 108 145 183 225 279 336
#     4  11  23  41  65  91 120 154 184 217 272 335
#     4   7  10  18  35  63 100 139 176 213 265 321
#     4  11  24  42  62  83 112 149 190 235 285 340
#
# _framework density 18.076995
#
# number of rings (size 3 to 8) (size 9 to 14) (size 15 to 20)
#    0.000    2.000    0.909    4.909    1.273    1.818 
#    0.000    0.455    0.000    2.727    0.000    0.636 
#    0.000    0.000    0.000    0.000    0.000    0.000 
#
# Total GULP energy -245118.192689 kJ/mol
# GULP energy per Si atom -5570.868016 kJ/mol
# Density = 1.803585 g / cm^3
# Si number density = 18.076995 Si / 1000 Ang^3
#
#
#
# Elastic Constant Matrix: (Units=GPa)
#
#
# Indices 1 2 3 4 5 6 
#
# 1 124.3867 22.2519 59.9688 0.0000 0.0000 0.0000
# 2 22.2519 40.6161 7.3764 0.0000 0.0000 0.0000
# 3 59.9688 7.3764 124.0820 0.0000 0.0000 0.0000
# 4 0.0000 0.0000 0.0000 27.3950 0.0000 0.0000
# 5 0.0000 0.0000 0.0000 0.0000 1.9465 0.0000
# 6 0.0000 0.0000 0.0000 0.0000 0.0000 24.9934
#
#
#
# Elastic Compliance Matrix: (Units=1/GPa)
#
#
# Indices 1 2 3 4 5 6 
#
# 1 0.011532 -0.005364 -0.005255 0.000000 0.000000 0.000000
# 2 -0.005364 0.027384 0.000964 0.000000 0.000000 0.000000
# 3 -0.005255 0.000964 0.010541 0.000000 0.000000 0.000000
# 4 0.000000 0.000000 0.000000 0.036503 0.000000 0.000000
# 5 0.000000 0.000000 0.000000 0.000000 0.513750 0.000000
# 6 0.000000 0.000000 0.000000 0.000000 0.000000 0.040011
#
#
# Mechanical properties :
#
#
# Convention : Reuss Voigt Hill
#
# Bulk Modulus (GPa) = 33.16771 52.03099 42.59935
# Shear Modulus (GPa) = 7.47295 24.16614 15.81955
#
# Velocity S-wave (km/s) = 2.03542 3.66026 2.96145
# Velocity P-wave (km/s) = 4.88997 6.83438 5.94224
#
# Compressibility (1/GPa) = 0.03014981
#
# Stress axis : x y z
#
# Youngs Moduli (GPa) = 86.71239 36.51740 94.86344
#
# Poissons Ratio (x) = 0.19587 0.49848
# Poissons Ratio (y) = 0.46511 -0.09149
# Poissons Ratio (z) = 0.45565 -0.03522
#
# Static dielectric constant tensor:
#      x y z
#    x 0.745980 0.000000 0.000000 
#    y 0.000000 1.622250 0.000000 
#    z 0.000000 0.000000 1.631840 
# 
# From -- ./inp_files/71105.got.cif
#   From: 2010.05.17/outbox.cif.g08.bks.cpg/sg65_36_cif.got.tgz:71105.got - 2010.06.03 17:01:31.
