data_PCOD9493355
_publ_section_title
;
Structure prediction by ZEFSAII (Michael W. Deem and Ramdas Pophale) SiO2 
 PCOD9493355
Probable space group: C M M M
;
_chemical_formula_sum "Si O2"
_cell_formula_units_Z 88
_cell_length_a 24.407062
_cell_length_b 10.408254
_cell_length_c 18.046476
_cell_angle_alpha 90.000000
_cell_angle_beta 90.000000
_cell_angle_gamma 90.000000
_cell_volume 4584.434738
_symmetry_space_group_name_H-M "C M M M"
_symmetry_group_IT_number 65
_symmetry_cell_setting 'orthorhombic'
loop_
_space_group_symop_operation_xyz
x,y,z
-x,-y,z
x,-y,-z
-x,y,-z
-x,-y,-z
x,y,-z
-x,y,z
x,-y,z
1/2+x,1/2+y,z
1/2-x,1/2-y,z
1/2+x,1/2-y,-z
1/2-x,1/2+y,-z
1/2-x,1/2-y,-z
1/2+x,1/2+y,-z
1/2-x,1/2+y,z
1/2+x,1/2-y,z
loop_
_atom_site_type_symbol
_atom_site_label
_atom_site_fract_x
_atom_site_fract_y
_atom_site_fract_z
Si Si1 0.132311 0.234867 0.088039
Si Si2 0.500000 0.648080 0.411561
Si Si3 0.117131 0.764039 0.349870
Si Si4 0.938500 0.153357 0.206903
Si Si5 0.825152 0.500000 0.336519
Si Si6 0.304917 0.500000 0.336584
Si Si7 0.827635 0.500000 0.842883
Si Si8 0.199586 0.000000 0.157068
O O1 0.074528 0.193876 0.123640
O O2 0.147225 0.373391 0.120450
O O3 0.172546 0.126267 0.121620
O O4 0.133742 0.233378 0.000000
O O5 0.500000 0.500000 0.383085
O O6 0.500000 0.645141 0.500000
O O7 0.442247 0.711022 0.386948
O O8 0.102904 0.777738 0.262566
O O9 0.144620 0.627604 0.365328
O O10 0.161310 0.876358 0.365149
O O11 0.000000 0.187566 0.228221
O O12 0.932170 0.000000 0.214568
O O13 0.759974 0.500000 0.354315
O O14 0.831636 0.500000 0.246624
O O15 0.307066 0.500000 0.246303
O O16 0.763339 0.500000 0.859915
#
# Coordination Sequence:
#
# PCOD9493355 Si02
#       8
#    16   8  16  16   8   8   8   8
#     4  12  23  37  53  78 114 154 203 256 317 379
#     4  11  24  43  75 109 132 165 204 248 302 366
#     4  12  20  40  66  96 130 165 208 255 308 367
#     4  11  21  37  61  85 109 149 205 261 313 365
#     4  11  24  36  63  98 128 166 215 263 314 363
#     4  11  20  38  65  92 128 168 217 267 302 369
#     4  11  23  38  53  80 117 156 200 256 310 368
#     4  11  21  36  57  80 111 154 208 260 306 356
#
# _framework density 19.195385999999999
#
# number of rings (size 3 to 8) (size 9 to 14) (size 15 to 20)
#    0.000    0.636    7.273    1.636    0.000    5.818 
#    0.000    3.182    0.000    4.364    0.000    0.000 
#    0.000    0.000    0.000    0.000    0.000    0.000 
#
# Total GULP energy -245735.062388 kJ/mol
# GULP energy per Si atom -5584.887782 kJ/mol
# Density = 1.915170 g / cm^3
# Si number density = 19.195386 Si / 1000 Ang^3
#
#
#
# Elastic Constant Matrix: (Units=GPa)
#
#
# Indices 1 2 3 4 5 6 
#
# 1 151.8971 77.6269 24.9545 0.0000 0.0000 0.0000
# 2 77.6269 163.5482 21.8923 0.0000 0.0000 0.0000
# 3 24.9545 21.8923 50.7593 0.0000 0.0000 0.0000
# 4 0.0000 0.0000 0.0000 14.8300 0.0000 0.0000
# 5 0.0000 0.0000 0.0000 0.0000 18.0198 0.0000
# 6 0.0000 0.0000 0.0000 0.0000 0.0000 11.1358
#
#
#
# Elastic Compliance Matrix: (Units=1/GPa)
#
#
# Indices 1 2 3 4 5 6 
#
# 1 0.009040 -0.003922 -0.002753 0.000000 0.000000 0.000000
# 2 -0.003922 0.008191 -0.001604 0.000000 0.000000 0.000000
# 3 -0.002753 -0.001604 0.021746 0.000000 0.000000 0.000000
# 4 0.000000 0.000000 0.000000 0.067431 0.000000 0.000000
# 5 0.000000 0.000000 0.000000 0.000000 0.055494 0.000000
# 6 0.000000 0.000000 0.000000 0.000000 0.000000 0.089801
#
#
# Mechanical properties :
#
#
# Convention : Reuss Voigt Hill
#
# Bulk Modulus (GPa) = 44.60642 68.35023 56.47833
# Shear Modulus (GPa) = 18.13337 24.91250 21.52293
#
# Velocity S-wave (km/s) = 3.07689 3.60646 3.35215
# Velocity P-wave (km/s) = 5.99262 7.28196 6.66853
#
# Compressibility (1/GPa) = 0.02241830
#
# Stress axis : x y z
#
# Youngs Moduli (GPa) = 110.61760 122.08684 45.98539
#
# Poissons Ratio (x) = 0.47887 0.12658
# Poissons Ratio (y) = 0.43388 0.07378
# Poissons Ratio (z) = 0.30449 0.19587
#
# Static dielectric constant tensor:
#      x y z
#    x 1.681490 0.000000 0.000000 
#    y 0.000000 1.715570 0.000000 
#    z 0.000000 0.000000 1.671890 
# 
# From -- ./inp_files/65296.got.cif
#   From: 2010.05.17/outbox.cif.g08.bks.cpg/sg65_33_cif.got.tgz:65296.got - 2010.06.03 17:01:31.
