data_PCOD9493551
_publ_section_title
;
Structure prediction by ZEFSAII (Michael W. Deem and Ramdas Pophale) SiO2 
 PCOD9493551
Probable space group: C M M M
;
_chemical_formula_sum "Si O2"
_cell_formula_units_Z 52
_cell_length_a 26.821931
_cell_length_b 12.186217
_cell_length_c 7.713694
_cell_angle_alpha 90.000000
_cell_angle_beta 90.000000
_cell_angle_gamma 90.000000
_cell_volume 2521.281602
_symmetry_space_group_name_H-M "C M M M"
_symmetry_group_IT_number 65
_symmetry_cell_setting 'orthorhombic'
loop_
_space_group_symop_operation_xyz
x,y,z
-x,-y,z
x,-y,-z
-x,y,-z
-x,-y,-z
x,y,-z
-x,y,z
x,-y,z
1/2+x,1/2+y,z
1/2-x,1/2-y,z
1/2+x,1/2-y,-z
1/2-x,1/2+y,-z
1/2-x,1/2-y,-z
1/2+x,1/2+y,-z
1/2-x,1/2+y,z
1/2+x,1/2-y,z
loop_
_atom_site_type_symbol
_atom_site_label
_atom_site_fract_x
_atom_site_fract_y
_atom_site_fract_z
Si Si1 0.304342 0.500000 0.000000
Si Si2 0.800504 0.181356 0.693751
Si Si3 0.903354 0.239740 0.797224
Si Si4 0.000000 0.372715 0.212178
Si Si5 0.941706 0.000000 0.708082
O O1 0.303834 0.594810 0.847524
O O2 0.801015 0.132541 0.500000
O O3 0.750000 0.250000 0.712501
O O4 0.850190 0.255966 0.709072
O O5 0.950277 0.309198 0.728829
O O6 0.917178 0.110938 0.777644
O O7 0.898103 0.265295 0.000000
O O8 0.000000 0.500000 0.262133
O O9 0.000000 0.367606 0.000000
O O10 0.937704 0.000000 0.500000
O O11 0.000000 0.000000 0.756278
#
# Coordination Sequence:
#
# PCOD9493551 Si02
#       5
#     4  16  16   8   8
#     4  12  22  44  72 101 130 175 220 274 334 398
#     4  11  25  45  67  97 137 174 218 275 332 397
#     4  11  21  38  64  93 129 169 219 269 328 396
#     4   9  20  39  61  92 128 173 225 275 320 384
#     4  11  22  35  57  91 130 168 206 262 328 392
#
# _framework density 20.624431000000001
#
# number of rings (size 3 to 8) (size 9 to 14) (size 15 to 20)
#    0.000    1.231    3.077    3.231    0.000    0.615 
#    2.769    0.000    0.000    6.462    0.000    0.000 
#    0.000    0.000    0.000    0.000    0.000    0.000 
#
# Total GULP energy -144813.821428 kJ/mol
# GULP energy per Si atom -5569.762363 kJ/mol
# Density = 2.057749 g / cm^3
# Si number density = 20.624431 Si / 1000 Ang^3
#
#
#
# Elastic Constant Matrix: (Units=GPa)
#
#
# Indices 1 2 3 4 5 6 
#
# 1 200.3224 69.8335 39.8941 0.0000 0.0000 0.0000
# 2 69.8335 107.5203 29.0249 0.0000 0.0000 0.0000
# 3 39.8941 29.0249 147.6167 0.0000 0.0000 0.0000
# 4 0.0000 0.0000 0.0000 81.2244 0.0000 0.0000
# 5 0.0000 0.0000 0.0000 0.0000 17.2793 0.0000
# 6 0.0000 0.0000 0.0000 0.0000 0.0000 -4.7401
#
#
#
# Elastic Compliance Matrix: (Units=1/GPa)
#
#
# Indices 1 2 3 4 5 6 
#
# 1 0.006588 -0.004011 -0.000992 0.000000 0.000000 0.000000
# 2 -0.004011 0.012264 -0.001327 0.000000 0.000000 0.000000
# 3 -0.000992 -0.001327 0.007303 0.000000 0.000000 0.000000
# 4 0.000000 0.000000 0.000000 0.012312 0.000000 0.000000
# 5 0.000000 0.000000 0.000000 0.000000 0.057873 0.000000
# 6 0.000000 0.000000 0.000000 0.000000 0.000000 -0.210966
#
#
# Mechanical properties :
#
#
# Convention : Reuss Voigt Hill
#
# Bulk Modulus (GPa) = 74.10229 81.44049 77.77139
# Shear Modulus (GPa) = -51.29854 39.86652 -5.71601
#
# Velocity S-wave (km/s) = -4.99266 4.40133 -1.66658
# Velocity P-wave (km/s) = 1.66486 8.08715 5.83840
#
# Compressibility (1/GPa) = 0.01349486
#
# Stress axis : x y z
#
# Youngs Moduli (GPa) = 151.79835 81.53971 136.92418
#
# Poissons Ratio (x) = 0.32705 0.13579
# Poissons Ratio (y) = 0.60885 0.18175
# Poissons Ratio (z) = 0.15054 0.10824
#
# Static dielectric constant tensor:
#      x y z
#    x 1.767790 0.000000 0.000000 
#    y 0.000000 1.686200 0.000000 
#    z 0.000000 0.000000 1.739890 
# 
# From -- ./inp_files/4346.got.cif
#   From: 2010.05.17/outbox.cif.g08.bks.cpg/sg65_3_cif.got.tgz:4346.got - 2010.06.03 17:01:31.
