data_PCOD9493398
_publ_section_title
;
Structure prediction by ZEFSAII (Michael W. Deem and Ramdas Pophale) SiO2 
 PCOD9493398
Probable space group: C M M M
;
_chemical_formula_sum "Si O2"
_cell_formula_units_Z 56
_cell_length_a 15.663504
_cell_length_b 8.792579
_cell_length_c 19.424287
_cell_angle_alpha 90.000000
_cell_angle_beta 90.000000
_cell_angle_gamma 90.000000
_cell_volume 2675.163238
_symmetry_space_group_name_H-M "C M M M"
_symmetry_group_IT_number 65
_symmetry_cell_setting 'orthorhombic'
loop_
_space_group_symop_operation_xyz
x,y,z
-x,-y,z
x,-y,-z
-x,y,-z
-x,-y,-z
x,y,-z
-x,y,z
x,-y,z
1/2+x,1/2+y,z
1/2-x,1/2-y,z
1/2+x,1/2-y,-z
1/2-x,1/2+y,-z
1/2-x,1/2-y,-z
1/2+x,1/2+y,-z
1/2-x,1/2+y,z
1/2+x,1/2-y,z
loop_
_atom_site_type_symbol
_atom_site_label
_atom_site_fract_x
_atom_site_fract_y
_atom_site_fract_z
Si Si1 0.098734 0.314046 0.000000
Si Si2 0.344542 0.679630 0.287232
Si Si3 0.846401 0.317813 0.575223
Si Si4 0.101916 0.672374 0.147969
O O1 0.136743 0.269607 0.925857
O O2 0.097949 0.500000 0.000000
O O3 0.000000 0.260911 0.000000
O O4 0.341111 0.500000 0.295211
O O5 0.250000 0.750000 0.284888
O O6 0.387395 0.750686 0.355632
O O7 0.383455 0.726000 0.214346
O O8 0.885026 0.281499 0.500000
O O9 0.841740 0.500000 0.581307
O O10 0.750000 0.250000 0.573443
O O11 0.134619 0.500000 0.160974
O O12 0.000000 0.660562 0.138738
#
# Coordination Sequence:
#
# PCOD9493398 Si02
#       4
#     8  16  16  16
#     4   7  12  26  50  75  94 119 157 197 236 283
#     4  11  21  32  48  71 101 132 163 199 240 285
#     4   9  16  27  45  68  93 122 158 198 239 283
#     4   9  17  32  54  76  98 125 159 198 241 290
#
# _framework density 20.933302999999999
#
# number of rings (size 3 to 8) (size 9 to 14) (size 15 to 20)
#    0.000    2.714    0.000    6.857    0.000    2.286 
#    0.000    1.429    0.000    3.429    0.000    6.000 
#    0.000    0.000    0.000    0.000    0.000    0.000 
#
# Total GULP energy -155985.691963 kJ/mol
# GULP energy per Si atom -5570.917570 kJ/mol
# Density = 2.088566 g / cm^3
# Si number density = 20.933303 Si / 1000 Ang^3
#
#
#
# Elastic Constant Matrix: (Units=GPa)
#
#
# Indices 1 2 3 4 5 6 
#
# 1 17.6628 2.9403 15.2164 0.0000 0.0000 0.0000
# 2 2.9403 107.3454 77.4662 0.0000 0.0000 0.0000
# 3 15.2164 77.4662 243.3336 0.0000 0.0000 0.0000
# 4 0.0000 0.0000 0.0000 -15.9844 0.0000 0.0000
# 5 0.0000 0.0000 0.0000 0.0000 15.6000 0.0000
# 6 0.0000 0.0000 0.0000 0.0000 0.0000 10.2935
#
#
#
# Elastic Compliance Matrix: (Units=1/GPa)
#
#
# Indices 1 2 3 4 5 6 
#
# 1 0.059997 0.001381 -0.004192 0.000000 0.000000 0.000000
# 2 0.001381 0.012126 -0.003947 0.000000 0.000000 0.000000
# 3 -0.004192 -0.003947 0.005628 0.000000 0.000000 0.000000
# 4 0.000000 0.000000 0.000000 -0.062561 0.000000 0.000000
# 5 0.000000 0.000000 0.000000 0.000000 0.064102 0.000000
# 6 0.000000 0.000000 0.000000 0.000000 0.000000 0.097149
#
#
# Mechanical properties :
#
#
# Convention : Reuss Voigt Hill
#
# Bulk Modulus (GPa) = 15.56721 62.17639 38.87180
# Shear Modulus (GPa) = 23.65545 20.16310 21.90927
#
# Velocity S-wave (km/s) = 3.36525 3.10692 3.23866
# Velocity P-wave (km/s) = 4.74896 6.52972 5.70920
#
# Compressibility (1/GPa) = 0.06423760
#
# Stress axis : x y z
#
# Youngs Moduli (GPa) = 16.66747 82.46689 177.67772
#
# Poissons Ratio (x) = -0.11393 0.74475
# Poissons Ratio (y) = -0.02303 0.70125
# Poissons Ratio (z) = 0.06986 0.32548
#
# Static dielectric constant tensor:
#      x y z
#    x 1.783580 0.000000 0.000000 
#    y 0.000000 1.790490 0.000000 
#    z 0.000000 0.000000 1.875230 
# 
# From -- ./inp_files/48798.got.cif
#   From: 2010.05.17/outbox.cif.g08.bks.cpg/sg65_25_cif.got.tgz:48798.got - 2010.06.03 17:01:31.
