data_PCOD9493103
_publ_section_title
;
Structure prediction by ZEFSAII (Michael W. Deem and Ramdas Pophale) SiO2 
 PCOD9493103
Probable space group: C M M M
;
_chemical_formula_sum "Si O2"
_cell_formula_units_Z 64
_cell_length_a 27.927405
_cell_length_b 12.062394
_cell_length_c 7.455839
_cell_angle_alpha 90.000000
_cell_angle_beta 90.000000
_cell_angle_gamma 90.000000
_cell_volume 2511.658643
_symmetry_space_group_name_H-M "C M M M"
_symmetry_group_IT_number 65
_symmetry_cell_setting 'orthorhombic'
loop_
_space_group_symop_operation_xyz
x,y,z
-x,-y,z
x,-y,-z
-x,y,-z
-x,-y,-z
x,y,-z
-x,y,z
x,-y,z
1/2+x,1/2+y,z
1/2-x,1/2-y,z
1/2+x,1/2-y,-z
1/2-x,1/2+y,-z
1/2-x,1/2-y,-z
1/2+x,1/2+y,-z
1/2-x,1/2+y,z
1/2+x,1/2-y,z
loop_
_atom_site_type_symbol
_atom_site_label
_atom_site_fract_x
_atom_site_fract_y
_atom_site_fract_z
Si Si1 0.245706 0.623366 0.203057
Si Si2 0.944531 0.500000 0.281952
Si Si3 0.603013 0.623978 0.217055
Si Si4 0.000000 0.134553 0.202859
Si Si5 0.141003 0.653378 0.707820
O O1 0.261851 0.500000 0.275632
O O2 0.250000 0.750000 0.283319
O O3 0.188182 0.613742 0.195779
O O4 0.265951 0.629959 0.000000
O O5 0.947712 0.500000 0.500000
O O6 0.909786 0.602522 0.228208
O O7 0.000000 0.500000 0.218187
O O8 0.613145 0.500000 0.276666
O O9 0.550629 0.660818 0.287920
O O10 0.639809 0.714821 0.275043
O O11 0.600056 0.622566 0.000000
O O12 0.000000 0.000000 0.190066
O O13 0.000000 0.179691 0.000000
O O14 0.145707 0.623327 0.500000
#
# Coordination Sequence:
#
# PCOD9493103 Si02
#       5
#    16   8  16   8  16
#     4  10  22  42  67  92 120 157 203 255 315 380
#     4   9  20  38  57  81 121 171 211 245 298 361
#     4   9  18  33  53  78 112 153 196 244 298 356
#     4   7  12  26  47  70 101 146 196 244 293 343
#     4  11  22  37  60  88 122 160 202 251 304 360
#
# _framework density 25.481168
#
# number of rings (size 3 to 8) (size 9 to 14) (size 15 to 20)
#    0.000    2.500    1.250    2.250    1.750    2.000 
#    0.000    2.500    0.000    5.250    0.000    0.000 
#    0.000    0.000    0.000    0.000    0.000    0.000 
#
# Total GULP energy -178426.666727 kJ/mol
# GULP energy per Si atom -5575.833335 kJ/mol
# Density = 2.542317 g / cm^3
# Si number density = 25.481168 Si / 1000 Ang^3
#
#
#
# Elastic Constant Matrix: (Units=GPa)
#
#
# Indices 1 2 3 4 5 6 
#
# 1 101.1246 29.3497 0.9429 0.0000 0.0000 0.0000
# 2 29.3497 223.2012 2.6147 0.0000 0.0000 0.0000
# 3 0.9429 2.6147 85.6178 0.0000 0.0000 0.0000
# 4 0.0000 0.0000 0.0000 -7.3662 0.0000 0.0000
# 5 0.0000 0.0000 0.0000 0.0000 -0.4033 0.0000
# 6 0.0000 0.0000 0.0000 0.0000 0.0000 30.1093
#
#
#
# Elastic Compliance Matrix: (Units=1/GPa)
#
#
# Indices 1 2 3 4 5 6 
#
# 1 0.010282 -0.001351 -0.000072 0.000000 0.000000 0.000000
# 2 -0.001351 0.004659 -0.000127 0.000000 0.000000 0.000000
# 3 -0.000072 -0.000127 0.011684 0.000000 0.000000 0.000000
# 4 0.000000 0.000000 0.000000 -0.135755 0.000000 0.000000
# 5 0.000000 0.000000 0.000000 0.000000 -2.479436 0.000000
# 6 0.000000 0.000000 0.000000 0.000000 0.000000 0.033212
#
#
# Mechanical properties :
#
#
# Convention : Reuss Voigt Hill
#
# Bulk Modulus (GPa) = 42.50889 52.86204 47.68546
# Shear Modulus (GPa) = -1.96509 29.60370 13.81930
#
# Velocity S-wave (km/s) = -0.87913 3.41220 2.33133
# Velocity P-wave (km/s) = 3.96083 6.02617 5.09916
#
# Compressibility (1/GPa) = 0.02352449
#
# Stress axis : x y z
#
# Youngs Moduli (GPa) = 97.26107 214.61894 85.58348
#
# Poissons Ratio (x) = 0.28998 0.00616
# Poissons Ratio (y) = 0.13141 0.01090
# Poissons Ratio (z) = 0.00700 0.02735
#
# Static dielectric constant tensor:
#      x y z
#    x 2.017410 0.000000 0.000000 
#    y 0.000000 2.055150 0.000000 
#    z 0.000000 0.000000 1.976550 
# 
# From -- ./inp_files/17807.got.cif
#   From: 2010.05.17/outbox.cif.g08.bks.cpg/sg65_9_cif.got.tgz:17807.got - 2010.06.03 17:01:31.
