data_PCOD9493821
_publ_section_title
;
Structure prediction by ZEFSAII (Michael W. Deem and Ramdas Pophale) SiO2 
 PCOD9493821
Probable space group: C M M M
;
_chemical_formula_sum "Si O2"
_cell_formula_units_Z 44
_cell_length_a 16.294217
_cell_length_b 7.544081
_cell_length_c 15.179875
_cell_angle_alpha 90.000000
_cell_angle_beta 90.000000
_cell_angle_gamma 90.000000
_cell_volume 1865.984508
_symmetry_space_group_name_H-M "C M M M"
_symmetry_group_IT_number 65
_symmetry_cell_setting 'orthorhombic'
loop_
_space_group_symop_operation_xyz
x,y,z
-x,-y,z
x,-y,-z
-x,y,-z
-x,-y,-z
x,y,-z
-x,y,z
x,-y,z
1/2+x,1/2+y,z
1/2-x,1/2-y,z
1/2+x,1/2-y,-z
1/2-x,1/2+y,-z
1/2-x,1/2-y,-z
1/2+x,1/2+y,-z
1/2-x,1/2+y,z
1/2+x,1/2-y,z
loop_
_atom_site_type_symbol
_atom_site_label
_atom_site_fract_x
_atom_site_fract_y
_atom_site_fract_z
Si Si1 0.655508 0.210524 0.188927
Si Si2 0.404276 0.784655 0.000000
Si Si3 0.404729 0.299099 0.625254
Si Si4 0.340055 0.000000 0.500000
O O1 0.750000 0.250000 0.207656
O O2 0.634730 0.279375 0.091281
O O3 0.604108 0.286280 0.269651
O O4 0.641153 0.000000 0.188620
O O5 0.500000 0.741334 0.000000
O O6 0.396566 0.000000 0.000000
O O7 0.500000 0.262027 0.601791
O O8 0.384115 0.500000 0.599291
O O9 0.349396 0.155684 0.576515
#
# Coordination Sequence:
#
# PCOD9493821 Si02
#       4
#    16   8  16   4
#     4  11  22  39  63  91 134 175 217 264 324 388
#     4   9  19  36  63  97 128 170 220 264 318 386
#     4  11  23  40  66  98 129 167 220 274 323 387
#     4  12  23  42  70  96 128 172 217 270 337 382
#
# _framework density 23.580047
#
# number of rings (size 3 to 8) (size 9 to 14) (size 15 to 20)
#    0.000    1.273    1.818    4.909    0.000    2.909 
#    0.000    3.636    0.000    6.545    0.000    0.000 
#    0.000    0.000    0.000    0.000    0.000    0.000 
#
# Total GULP energy -122682.604681 kJ/mol
# GULP energy per Si atom -5576.482031 kJ/mol
# Density = 2.352638 g / cm^3
# Si number density = 23.580047 Si / 1000 Ang^3
#
#
#
# Elastic Constant Matrix: (Units=GPa)
#
#
# Indices 1 2 3 4 5 6 
#
# 1 45.7807 3.9596 18.0386 0.0000 0.0000 0.0000
# 2 3.9596 123.6564 34.4278 0.0000 0.0000 0.0000
# 3 18.0386 34.4278 196.1307 0.0000 0.0000 0.0000
# 4 0.0000 0.0000 0.0000 220.6862 0.0000 0.0000
# 5 0.0000 0.0000 0.0000 0.0000 -65.4600 0.0000
# 6 0.0000 0.0000 0.0000 0.0000 0.0000 -1.7127
#
#
#
# Elastic Compliance Matrix: (Units=1/GPa)
#
#
# Indices 1 2 3 4 5 6 
#
# 1 0.022667 -0.000153 -0.002058 0.000000 0.000000 0.000000
# 2 -0.000153 0.008503 -0.001479 0.000000 0.000000 0.000000
# 3 -0.002058 -0.001479 0.005547 0.000000 0.000000 0.000000
# 4 0.000000 0.000000 0.000000 0.004531 0.000000 0.000000
# 5 0.000000 0.000000 0.000000 0.000000 -0.015277 0.000000
# 6 0.000000 0.000000 0.000000 0.000000 0.000000 -0.583875
#
#
# Mechanical properties :
#
#
# Convention : Reuss Voigt Hill
#
# Bulk Modulus (GPa) = 34.08373 53.15773 43.62073
# Shear Modulus (GPa) = -9.24653 51.31216 21.03281
#
# Velocity S-wave (km/s) = -1.98239 4.66991 2.98984
# Velocity P-wave (km/s) = 3.04073 7.18818 5.51887
#
# Compressibility (1/GPa) = 0.02933951
#
# Stress axis : x y z
#
# Youngs Moduli (GPa) = 44.11628 117.59890 180.26271
#
# Poissons Ratio (x) = 0.01798 0.37097
# Poissons Ratio (y) = 0.00674 0.26654
# Poissons Ratio (z) = 0.09079 0.17388
#
# Static dielectric constant tensor:
#      x y z
#    x 1.887120 0.000000 0.000000 
#    y 0.000000 1.860990 0.000000 
#    z 0.000000 0.000000 1.902590 
# 
# From -- ./inp_files/41567.got.cif
#   From: 2010.05.17/outbox.cif.g08.bks.cpg/sg65_21_cif.got.tgz:41567.got - 2010.06.03 17:01:31.
