data_PCOD9493521
_publ_section_title
;
Structure prediction by ZEFSAII (Michael W. Deem and Ramdas Pophale) SiO2 
 PCOD9493521
Probable space group: C M M M
;
_chemical_formula_sum "Si O2"
_cell_formula_units_Z 56
_cell_length_a 24.089781
_cell_length_b 8.183686
_cell_length_c 13.749346
_cell_angle_alpha 90.000000
_cell_angle_beta 90.000000
_cell_angle_gamma 90.000000
_cell_volume 2710.590117
_symmetry_space_group_name_H-M "C M M M"
_symmetry_group_IT_number 65
_symmetry_cell_setting 'orthorhombic'
loop_
_space_group_symop_operation_xyz
x,y,z
-x,-y,z
x,-y,-z
-x,y,-z
-x,-y,-z
x,y,-z
-x,y,z
x,-y,z
1/2+x,1/2+y,z
1/2-x,1/2-y,z
1/2+x,1/2-y,-z
1/2-x,1/2+y,-z
1/2-x,1/2-y,-z
1/2+x,1/2+y,-z
1/2-x,1/2+y,z
1/2+x,1/2-y,z
loop_
_atom_site_type_symbol
_atom_site_label
_atom_site_fract_x
_atom_site_fract_y
_atom_site_fract_z
Si Si1 0.813384 0.694445 0.000000
Si Si2 0.500000 0.182470 0.615526
Si Si3 0.500000 0.699524 0.886261
Si Si4 0.878947 0.697226 0.390996
Si Si5 0.880007 0.805755 0.811005
O O1 0.750000 0.750000 0.000000
O O2 0.844081 0.760232 0.095537
O O3 0.816600 0.500000 0.000000
O O4 0.500000 0.158037 0.500000
O O5 0.558892 0.266978 0.629314
O O6 0.500000 0.000000 0.660802
O O7 0.500000 0.500000 0.883942
O O8 0.556965 0.756016 0.834975
O O9 0.500000 0.747093 0.000000
O O10 0.860416 0.750253 0.500000
O O11 0.882974 0.500000 0.395766
O O12 0.851662 0.741214 0.288640
O O13 0.883298 0.000000 0.802921
#
# Coordination Sequence:
#
# PCOD9493521 Si02
#       5
#     8   8   8  16  16
#     4  12  26  45  66  87 111 144 190 240 293 350
#     4   7  11  22  41  66 102 149 195 234 271 317
#     4   9  17  32  53  80 120 160 192 232 287 342
#     4   9  17  30  49  76 113 155 196 238 283 334
#     4  11  21  36  59  87 120 157 195 238 287 340
#
# _framework density 20.659707000000001
#
# number of rings (size 3 to 8) (size 9 to 14) (size 15 to 20)
#    0.000    2.286    1.429    4.714    0.000    0.571 
#    0.000    2.857    0.000    6.000    0.000    0.000 
#    0.000    0.000    0.000    0.000    0.000    0.000 
#
# Total GULP energy -155902.309148 kJ/mol
# GULP energy per Si atom -5567.939612 kJ/mol
# Density = 2.061268 g / cm^3
# Si number density = 20.659707 Si / 1000 Ang^3
#
#
#
# Elastic Constant Matrix: (Units=GPa)
#
#
# Indices 1 2 3 4 5 6 
#
# 1 63.6950 6.5688 43.0994 0.0000 0.0000 0.0000
# 2 6.5688 42.7414 29.7782 0.0000 0.0000 0.0000
# 3 43.0994 29.7782 241.5363 0.0000 0.0000 0.0000
# 4 0.0000 0.0000 0.0000 16.8098 0.0000 0.0000
# 5 0.0000 0.0000 0.0000 0.0000 -0.7947 0.0000
# 6 0.0000 0.0000 0.0000 0.0000 0.0000 -1.2921
#
#
#
# Elastic Compliance Matrix: (Units=1/GPa)
#
#
# Indices 1 2 3 4 5 6 
#
# 1 0.017869 -0.000574 -0.003118 0.000000 0.000000 0.000000
# 2 -0.000574 0.025613 -0.003055 0.000000 0.000000 0.000000
# 3 -0.003118 -0.003055 0.005073 0.000000 0.000000 0.000000
# 4 0.000000 0.000000 0.000000 0.059489 0.000000 0.000000
# 5 0.000000 0.000000 0.000000 0.000000 -1.258344 0.000000
# 6 0.000000 0.000000 0.000000 0.000000 0.000000 -0.773910
#
#
# Mechanical properties :
#
#
# Convention : Reuss Voigt Hill
#
# Bulk Modulus (GPa) = 28.52172 56.31840 42.42006
# Shear Modulus (GPa) = -2.63292 20.84635 9.10671
#
# Velocity S-wave (km/s) = -1.13013 3.17998 2.10179
# Velocity P-wave (km/s) = 3.48318 6.38766 5.14464
#
# Compressibility (1/GPa) = 0.03506100
#
# Stress axis : x y z
#
# Youngs Moduli (GPa) = 55.96403 39.04201 197.11563
#
# Poissons Ratio (x) = 0.02241 0.61454
# Poissons Ratio (y) = 0.03213 0.60226
# Poissons Ratio (z) = 0.17448 0.11929
#
# Static dielectric constant tensor:
#      x y z
#    x 1.873540 0.000000 0.000000 
#    y 0.000000 1.733940 0.000000 
#    z 0.000000 0.000000 1.808220 
# 
# From -- ./inp_files/43581.got.cif
#   From: 2010.05.17/outbox.cif.g08.bks.cpg/sg65_22_cif.got.tgz:43581.got - 2010.06.03 17:01:31.
