data_PCOD9493010
_publ_section_title
;
Structure prediction by ZEFSAII (Michael W. Deem and Ramdas Pophale) SiO2 
 PCOD9493010
Probable space group: C M M M
;
_chemical_formula_sum "Si O2"
_cell_formula_units_Z 88
_cell_length_a 9.140674
_cell_length_b 18.428094
_cell_length_c 28.840266
_cell_angle_alpha 90.000000
_cell_angle_beta 90.000000
_cell_angle_gamma 90.000000
_cell_volume 4858.004366
_symmetry_space_group_name_H-M "C M M M"
_symmetry_group_IT_number 65
_symmetry_cell_setting 'orthorhombic'
loop_
_space_group_symop_operation_xyz
x,y,z
-x,-y,z
x,-y,-z
-x,y,-z
-x,-y,-z
x,y,-z
-x,y,z
x,-y,z
1/2+x,1/2+y,z
1/2-x,1/2-y,z
1/2+x,1/2-y,-z
1/2-x,1/2+y,-z
1/2-x,1/2-y,-z
1/2+x,1/2+y,-z
1/2-x,1/2+y,z
1/2+x,1/2-y,z
loop_
_atom_site_type_symbol
_atom_site_label
_atom_site_fract_x
_atom_site_fract_y
_atom_site_fract_z
Si Si1 0.175514 0.328386 0.687518
Si Si2 0.325840 0.414523 0.770269
Si Si3 0.174411 0.827678 0.864548
Si Si4 0.325596 0.914122 0.053562
Si Si5 0.831505 0.911684 0.500000
Si Si6 0.825034 0.415048 0.405808
O O1 0.250000 0.250000 0.689342
O O2 0.235533 0.376220 0.729814
O O3 0.213034 0.368383 0.639216
O O4 0.000000 0.321873 0.690403
O O5 0.500000 0.405829 0.761213
O O6 0.293737 0.500000 0.772449
O O7 0.294137 0.376581 0.819358
O O8 0.250000 0.750000 0.859026
O O9 0.237196 0.867271 0.909829
O O10 0.000000 0.819129 0.868290
O O11 0.500000 0.902972 0.059745
O O12 0.296952 0.000000 0.060288
O O13 0.290107 0.896406 0.000000
O O14 0.752301 0.888814 0.547261
O O15 0.000000 0.889335 0.500000
O O16 0.825587 0.000000 0.500000
O O17 0.786124 0.500000 0.398049
O O18 0.000000 0.412016 0.412368
#
# Coordination Sequence:
#
# PCOD9493010 Si02
#       6
#    16  16  16  16   8  16
#     4  11  23  38  57  82 112 147 186 226 274 330
#     4  10  22  40  61  85 112 142 180 228 278 328
#     4  11  23  38  57  83 115 150 187 227 275 330
#     4   9  19  37  60  85 113 146 186 232 280 329
#     4   9  17  29  50  81 110 137 175 223 272 321
#     4   9  18  34  55  78 106 141 181 224 270 323
#
# _framework density 18.114435
#
# number of rings (size 3 to 8) (size 9 to 14) (size 15 to 20)
#    0.000    2.091    0.000    3.545    0.000    8.364 
#    0.000    3.182    0.000    0.000    0.000    0.000 
#    0.000    0.000    0.000    0.000    0.000    0.000 
#
# Total GULP energy -245765.646453 kJ/mol
# GULP energy per Si atom -5585.582874 kJ/mol
# Density = 1.807321 g / cm^3
# Si number density = 18.114435 Si / 1000 Ang^3
#
#
#
# Elastic Constant Matrix: (Units=GPa)
#
#
# Indices 1 2 3 4 5 6 
#
# 1 68.8155 75.3506 92.1260 0.0000 0.0000 0.0000
# 2 75.3506 128.1468 104.3428 0.0000 0.0000 0.0000
# 3 92.1260 104.3428 172.6776 0.0000 0.0000 0.0000
# 4 0.0000 0.0000 0.0000 -30.6530 0.0000 0.0000
# 5 0.0000 0.0000 0.0000 0.0000 462.5108 0.0000
# 6 0.0000 0.0000 0.0000 0.0000 0.0000 12.7808
#
#
#
# Elastic Compliance Matrix: (Units=1/GPa)
#
#
# Indices 1 2 3 4 5 6 
#
# 1 0.072919 -0.022047 -0.025581 0.000000 0.000000 0.000000
# 2 -0.022047 0.022028 -0.001548 0.000000 0.000000 0.000000
# 3 -0.025581 -0.001548 0.020374 0.000000 0.000000 0.000000
# 4 0.000000 0.000000 0.000000 -0.032623 0.000000 0.000000
# 5 0.000000 0.000000 0.000000 0.000000 0.002162 0.000000
# 6 0.000000 0.000000 0.000000 0.000000 0.000000 0.078242
#
#
# Mechanical properties :
#
#
# Convention : Reuss Voigt Hill
#
# Bulk Modulus (GPa) = 58.93260 101.47543 80.20401
# Shear Modulus (GPa) = 18.71879 95.44909 57.08394
#
# Velocity S-wave (km/s) = 3.21808 7.26682 5.61973
# Velocity P-wave (km/s) = 6.81265 11.24943 9.29951
#
# Compressibility (1/GPa) = 0.01696854
#
# Stress axis : x y z
#
# Youngs Moduli (GPa) = 13.71386 45.39677 49.08127
#
# Poissons Ratio (x) = 1.00088 1.25554
# Poissons Ratio (y) = 0.30236 0.07598
# Poissons Ratio (z) = 0.35081 0.07028
#
# Static dielectric constant tensor:
#      x y z
#    x 1.601680 0.000000 0.000000 
#    y 0.000000 1.598120 0.000000 
#    z 0.000000 0.000000 1.593240 
# 
# From -- ./inp_files/67577.got.cif
#   From: 2010.05.17/outbox.cif.g08.bks.cpg/sg65_34_cif.got.tgz:67577.got - 2010.06.03 17:01:31.
