data_PCOD9493225
_publ_section_title
;
Structure prediction by ZEFSAII (Michael W. Deem and Ramdas Pophale) SiO2 
 PCOD9493225
Probable space group: C M M M
;
_chemical_formula_sum "Si O2"
_cell_formula_units_Z 64
_cell_length_a 10.933254
_cell_length_b 14.958463
_cell_length_c 18.778622
_cell_angle_alpha 90.000000
_cell_angle_beta 90.000000
_cell_angle_gamma 90.000000
_cell_volume 3071.143640
_symmetry_space_group_name_H-M "C M M M"
_symmetry_group_IT_number 65
_symmetry_cell_setting 'orthorhombic'
loop_
_space_group_symop_operation_xyz
x,y,z
-x,-y,z
x,-y,-z
-x,y,-z
-x,-y,-z
x,y,-z
-x,y,z
x,-y,z
1/2+x,1/2+y,z
1/2-x,1/2-y,z
1/2+x,1/2-y,-z
1/2-x,1/2+y,-z
1/2-x,1/2-y,-z
1/2+x,1/2+y,-z
1/2-x,1/2+y,z
1/2+x,1/2-y,z
loop_
_atom_site_type_symbol
_atom_site_label
_atom_site_fract_x
_atom_site_fract_y
_atom_site_fract_z
Si Si1 0.500000 0.803980 0.419343
Si Si2 0.500000 0.107556 0.079740
Si Si3 0.857023 0.000000 0.917862
Si Si4 0.718216 0.100038 0.664254
Si Si5 0.500000 0.603398 0.381960
Si Si6 0.773180 0.353763 0.825581
O O1 0.500000 0.840363 0.500000
O O2 0.623261 0.835720 0.377408
O O3 0.500000 0.696218 0.424495
O O4 0.385527 0.141039 0.121927
O O5 0.500000 0.000000 0.080010
O O6 0.500000 0.140602 0.000000
O O7 0.822882 0.085633 0.869136
O O8 0.000000 0.000000 0.927241
O O9 0.801776 0.000000 0.000000
O O10 0.696101 0.106299 0.748553
O O11 0.866279 0.111346 0.656382
O O12 0.690185 0.000000 0.638309
O O13 0.500000 0.500000 0.410929
O O14 0.750000 0.250000 0.812889
#
# Coordination Sequence:
#
# PCOD9493225 Si02
#       6
#     8   8   8  16   8  16
#     4  12  26  46  71 105 144 181 224 285 347 408
#     4  11  23  42  63  89 131 177 225 283 342 401
#     4  11  26  45  65  99 141 179 222 280 347 409
#     4  11  24  45  72 101 138 178 236 285 343 411
#     4  10  24  43  69 104 140 185 225 282 329 414
#     4  12  25  42  70  98 132 180 230 283 342 402
#
# _framework density 20.839144000000001
#
# number of rings (size 3 to 8) (size 9 to 14) (size 15 to 20)
#    0.000    0.750    2.500    4.125    3.500    5.250 
#    0.000    2.500    0.000    0.000    0.000    0.000 
#    0.000    0.000    0.000    0.000    0.000    0.000 
#
# Total GULP energy -178369.208406 kJ/mol
# GULP energy per Si atom -5574.037763 kJ/mol
# Density = 2.079171 g / cm^3
# Si number density = 20.839144 Si / 1000 Ang^3
#
#
#
# Elastic Constant Matrix: (Units=GPa)
#
#
# Indices 1 2 3 4 5 6 
#
# 1 102.5319 12.0457 35.5787 0.0000 0.0000 0.0000
# 2 12.0457 111.7526 13.3142 0.0000 0.0000 0.0000
# 3 35.5787 13.3142 133.9707 0.0000 0.0000 0.0000
# 4 0.0000 0.0000 0.0000 -30.2678 0.0000 0.0000
# 5 0.0000 0.0000 0.0000 0.0000 5.2468 0.0000
# 6 0.0000 0.0000 0.0000 0.0000 0.0000 49.7318
#
#
#
# Elastic Compliance Matrix: (Units=1/GPa)
#
#
# Indices 1 2 3 4 5 6 
#
# 1 0.010819 -0.000834 -0.002790 0.000000 0.000000 0.000000
# 2 -0.000834 0.009120 -0.000685 0.000000 0.000000 0.000000
# 3 -0.002790 -0.000685 0.008273 0.000000 0.000000 0.000000
# 4 0.000000 0.000000 0.000000 -0.033038 0.000000 0.000000
# 5 0.000000 0.000000 0.000000 0.000000 0.190592 0.000000
# 6 0.000000 0.000000 0.000000 0.000000 0.000000 0.020108
#
#
# Mechanical properties :
#
#
# Convention : Reuss Voigt Hill
#
# Bulk Modulus (GPa) = 51.03510 52.23691 51.63601
# Shear Modulus (GPa) = 22.62199 24.09660 23.35930
#
# Velocity S-wave (km/s) = 3.29835 3.40415 3.35167
# Velocity P-wave (km/s) = 6.24889 6.36963 6.30955
#
# Compressibility (1/GPa) = 0.01959436
#
# Stress axis : x y z
#
# Youngs Moduli (GPa) = 92.42744 109.65145 120.86866
#
# Poissons Ratio (x) = 0.09142 0.33728
# Poissons Ratio (y) = 0.07706 0.08279
# Poissons Ratio (z) = 0.25791 0.07510
#
# Static dielectric constant tensor:
#      x y z
#    x 1.719330 0.000000 0.000000 
#    y 0.000000 1.736010 0.000000 
#    z 0.000000 0.000000 1.706540 
# 
# From -- ./inp_files/50989.got.cif
#   From: 2010.05.17/outbox.cif.g08.bks.cpg/sg65_26_cif.got.tgz:50989.got - 2010.06.03 17:01:31.
