data_PCOD9493179
_publ_section_title
;
Structure prediction by ZEFSAII (Michael W. Deem and Ramdas Pophale) SiO2 
 PCOD9493179
Probable space group: C M M M
;
_chemical_formula_sum "Si O2"
_cell_formula_units_Z 116
_cell_length_a 26.656741
_cell_length_b 24.054040
_cell_length_c 7.363912
_cell_angle_alpha 90.000000
_cell_angle_beta 90.000000
_cell_angle_gamma 90.000000
_cell_volume 4721.757417
_symmetry_space_group_name_H-M "C M M M"
_symmetry_group_IT_number 65
_symmetry_cell_setting 'orthorhombic'
loop_
_space_group_symop_operation_xyz
x,y,z
-x,-y,z
x,-y,-z
-x,y,-z
-x,-y,-z
x,y,-z
-x,y,z
x,-y,z
1/2+x,1/2+y,z
1/2-x,1/2-y,z
1/2+x,1/2-y,-z
1/2-x,1/2+y,-z
1/2-x,1/2-y,-z
1/2+x,1/2+y,-z
1/2-x,1/2+y,z
1/2+x,1/2-y,z
loop_
_atom_site_type_symbol
_atom_site_label
_atom_site_fract_x
_atom_site_fract_y
_atom_site_fract_z
Si Si1 0.715715 0.866236 0.786903
Si Si2 0.420772 0.559732 0.293143
Si Si3 0.619952 0.063588 0.780213
Si Si4 0.152390 0.732160 0.716820
Si Si5 0.304702 0.438087 0.217886
Si Si6 0.078729 0.818040 0.278689
Si Si7 0.555488 0.163093 0.287928
Si Si8 0.500000 0.273259 0.000000
O O1 0.669074 0.902623 0.713804
O O2 0.701928 0.801269 0.771640
O O3 0.767683 0.890336 0.713812
O O4 0.717854 0.878690 0.000000
O O5 0.439178 0.558985 0.500000
O O6 0.434581 0.500000 0.209665
O O7 0.360297 0.562716 0.297074
O O8 0.434454 0.619543 0.216703
O O9 0.571231 0.098663 0.724447
O O10 0.620223 0.000000 0.719900
O O11 0.621131 0.063797 0.000000
O O12 0.153282 0.730076 0.500000
O O13 0.134918 0.794742 0.762971
O O14 0.105484 0.693908 0.783620
O O15 0.282823 0.500000 0.252868
O O16 0.311772 0.433610 0.000000
O O17 0.072020 0.814941 0.500000
O O18 0.042699 0.780148 0.161205
O O19 0.552238 0.178882 0.500000
O O20 0.500000 0.171599 0.204188
#
# Coordination Sequence:
#
# PCOD9493179 Si02
#       8
#    16  16  16  16  16  16  16   4
#     4   9  17  30  49  76 108 144 189 240 286 338
#     4   9  19  38  63  88 119 158 192 232 290 350
#     4   9  17  29  43  61  91 129 168 218 280 334
#     4   9  19  35  54  74 106 148 184 234 297 342
#     4   9  17  30  53  84 116 153 198 246 294 347
#     4  10  23  43  63  91 127 155 193 248 295 350
#     4   9  18  31  46  64  86 122 171 219 275 337
#     4  12  26  40  69 100 114 156 205 234 294 364
#
# _framework density 24.567125000000001
#
# number of rings (size 3 to 8) (size 9 to 14) (size 15 to 20)
#    0.000    2.759    0.000    0.621    2.897    3.034 
#    0.000    2.759    0.000    8.276    0.000    0.000 
#    0.000    0.000    0.000    0.000    0.000    0.000 
#
# Total GULP energy -323046.997795 kJ/mol
# GULP energy per Si atom -5569.775824 kJ/mol
# Density = 2.451121 g / cm^3
# Si number density = 24.567125 Si / 1000 Ang^3
#
#
#
# Elastic Constant Matrix: (Units=GPa)
#
#
# Indices 1 2 3 4 5 6 
#
# 1 69.9946 14.5323 -1.0515 0.0000 0.0000 0.0000
# 2 14.5323 105.7737 -5.5147 0.0000 0.0000 0.0000
# 3 -1.0515 -5.5147 96.3969 0.0000 0.0000 0.0000
# 4 0.0000 0.0000 0.0000 40.0400 0.0000 0.0000
# 5 0.0000 0.0000 0.0000 0.0000 -980.6340 0.0000
# 6 0.0000 0.0000 0.0000 0.0000 0.0000 -9.0331
#
#
#
# Elastic Compliance Matrix: (Units=1/GPa)
#
#
# Indices 1 2 3 4 5 6 
#
# 1 0.014707 -0.002018 0.000045 0.000000 0.000000 0.000000
# 2 -0.002018 0.009759 0.000536 0.000000 0.000000 0.000000
# 3 0.000045 0.000536 0.010405 0.000000 0.000000 0.000000
# 4 0.000000 0.000000 0.000000 0.024975 0.000000 0.000000
# 5 0.000000 0.000000 0.000000 0.000000 -0.001020 0.000000
# 6 0.000000 0.000000 0.000000 0.000000 0.000000 -0.110704
#
#
# Mechanical properties :
#
#
# Convention : Reuss Voigt Hill
#
# Bulk Modulus (GPa) = 31.25293 32.01082 31.63188
# Shear Modulus (GPa) = -130.41841 -172.31215 -151.36528
#
# Velocity S-wave (km/s) = -7.29396 -8.38401 -7.85791
# Velocity P-wave (km/s) = 7.62802 8.98131 8.33218
#
# Compressibility (1/GPa) = 0.03199700
#
# Stress axis : x y z
#
# Youngs Moduli (GPa) = 67.99710 102.46545 96.10808
#
# Poissons Ratio (x) = 0.20679 -0.00432
# Poissons Ratio (y) = 0.13723 -0.05154
# Poissons Ratio (z) = -0.00306 -0.05495
#
# Static dielectric constant tensor:
#      x y z
#    x 1.973140 0.000000 0.000000 
#    y 0.000000 2.039360 0.000000 
#    z 0.000000 0.000000 2.027500 
# 
# From -- ./inp_files/16883.got.cif
#   From: 2010.05.17/outbox.cif.g08.bks.cpg/sg65_9_cif.got.tgz:16883.got - 2010.06.03 17:01:31.
