data_PCOD9493387
_publ_section_title
;
Structure prediction by ZEFSAII (Michael W. Deem and Ramdas Pophale) SiO2 
 PCOD9493387
Probable space group: C M M M
;
_chemical_formula_sum "Si O2"
_cell_formula_units_Z 116
_cell_length_a 7.579710
_cell_length_b 29.752027
_cell_length_c 28.230504
_cell_angle_alpha 90.000000
_cell_angle_beta 90.000000
_cell_angle_gamma 90.000000
_cell_volume 6366.309981
_symmetry_space_group_name_H-M "C M M M"
_symmetry_group_IT_number 65
_symmetry_cell_setting 'orthorhombic'
loop_
_space_group_symop_operation_xyz
x,y,z
-x,-y,z
x,-y,-z
-x,y,-z
-x,-y,-z
x,y,-z
-x,y,z
x,-y,z
1/2+x,1/2+y,z
1/2-x,1/2-y,z
1/2+x,1/2-y,-z
1/2-x,1/2+y,-z
1/2-x,1/2-y,-z
1/2+x,1/2+y,-z
1/2-x,1/2+y,z
1/2+x,1/2-y,z
loop_
_atom_site_type_symbol
_atom_site_label
_atom_site_fract_x
_atom_site_fract_y
_atom_site_fract_z
Si Si1 0.199198 0.299937 0.919963
Si Si2 0.000000 0.813737 0.000000
Si Si3 0.789820 0.697140 0.739555
Si Si4 0.294982 0.641507 0.832552
Si Si5 0.713288 0.550014 0.788719
Si Si6 0.711704 0.197605 0.447147
Si Si7 0.209653 0.549506 0.322387
Si Si8 0.716626 0.855000 0.644894
O O1 0.250000 0.250000 0.902306
O O2 0.344187 0.312398 0.958812
O O3 0.203857 0.333720 0.875949
O O4 0.000000 0.297680 0.939696
O O5 0.750000 0.750000 0.739846
O O6 0.715134 0.671726 0.785265
O O7 0.728115 0.673900 0.690774
O O8 0.000000 0.691347 0.741891
O O9 0.500000 0.636664 0.845720
O O10 0.223129 0.592216 0.819095
O O11 0.500000 0.550575 0.790310
O O12 0.772716 0.500000 0.803372
O O13 0.764640 0.556326 0.733879
O O14 0.779339 0.186668 0.500000
O O15 0.500000 0.192603 0.448370
O O16 0.750000 0.250000 0.438013
O O17 0.777215 0.167675 0.403754
O O18 0.282898 0.500000 0.334323
O O19 0.277484 0.593708 0.348544
O O20 0.000000 0.547934 0.330991
O O21 0.500000 0.854861 0.644913
#
# Coordination Sequence:
#
# PCOD9493387 Si02
#       8
#    16   4  16  16  16  16  16  16
#     4  12  24  39  62  87 117 154 191 238 282 325
#     4  12  24  44  62  90 117 152 199 240 280 324
#     4  11  21  32  46  66 100 138 173 209 256 323
#     4  11  21  36  52  78 113 144 180 218 270 328
#     4   9  18  32  52  76 106 140 174 217 265 316
#     4   9  17  30  47  65  89 122 165 218 265 311
#     4   9  16  28  47  69  94 127 167 209 255 311
#     4   9  17  29  45  68  94 127 167 209 260 318
#
# _framework density 18.220915000000002
#
# number of rings (size 3 to 8) (size 9 to 14) (size 15 to 20)
#    0.000    1.931    2.759    2.069    0.000    0.552 
#    0.000    1.379    0.000    0.414    0.000    3.862 
#    0.000    1.103    0.000    6.897    0.000    7.172 
#
# Total GULP energy -323219.411951 kJ/mol
# GULP energy per Si atom -5572.748482 kJ/mol
# Density = 1.817944 g / cm^3
# Si number density = 18.220915 Si / 1000 Ang^3
#
#
#
# Elastic Constant Matrix: (Units=GPa)
#
#
# Indices 1 2 3 4 5 6 
#
# 1 80.3026 13.1549 13.5343 0.0000 0.0000 0.0000
# 2 13.1549 148.8990 90.2993 0.0000 0.0000 0.0000
# 3 13.5343 90.2993 108.9468 0.0000 0.0000 0.0000
# 4 0.0000 0.0000 0.0000 55.6131 0.0000 0.0000
# 5 0.0000 0.0000 0.0000 0.0000 24.3064 0.0000
# 6 0.0000 0.0000 0.0000 0.0000 0.0000 -5.0065
#
#
#
# Elastic Compliance Matrix: (Units=1/GPa)
#
#
# Indices 1 2 3 4 5 6 
#
# 1 0.012727 -0.000333 -0.001305 0.000000 0.000000 0.000000
# 2 -0.000333 0.013512 -0.011158 0.000000 0.000000 0.000000
# 3 -0.001305 -0.011158 0.018589 0.000000 0.000000 0.000000
# 4 0.000000 0.000000 0.000000 0.017981 0.000000 0.000000
# 5 0.000000 0.000000 0.000000 0.000000 0.041141 0.000000
# 6 0.000000 0.000000 0.000000 0.000000 0.000000 -0.199742
#
#
# Mechanical properties :
#
#
# Convention : Reuss Voigt Hill
#
# Bulk Modulus (GPa) = 51.98463 63.56947 57.77705
# Shear Modulus (GPa) = -78.38677 29.72660 -24.33009
#
# Velocity S-wave (km/s) = -6.56610 4.04351 -3.65812
# Velocity P-wave (km/s) = 5.37519 7.53418 3.73304
#
# Compressibility (1/GPa) = 0.01923646
#
# Stress axis : x y z
#
# Youngs Moduli (GPa) = 78.57057 74.00771 53.79495
#
# Poissons Ratio (x) = 0.02464 0.07021
# Poissons Ratio (y) = 0.02616 0.60024
# Poissons Ratio (z) = 0.10255 0.82578
#
# Static dielectric constant tensor:
#      x y z
#    x 1.675770 0.000000 0.000000 
#    y 0.000000 1.639850 0.000000 
#    z 0.000000 0.000000 1.590650 
# 
# From -- ./inp_files/73887.got.cif
#   From: 2010.05.17/outbox.cif.g08.bks.cpg/sg65_37_cif.got.tgz:73887.got - 2010.06.03 17:01:31.
