data_PCOD9493516
_publ_section_title
;
Structure prediction by ZEFSAII (Michael W. Deem and Ramdas Pophale) SiO2 
 PCOD9493516
Probable space group: C M M M
;
_chemical_formula_sum "Si O2"
_cell_formula_units_Z 72
_cell_length_a 10.067435
_cell_length_b 15.974837
_cell_length_c 22.502617
_cell_angle_alpha 90.000000
_cell_angle_beta 90.000000
_cell_angle_gamma 90.000000
_cell_volume 3618.997626
_symmetry_space_group_name_H-M "C M M M"
_symmetry_group_IT_number 65
_symmetry_cell_setting 'orthorhombic'
loop_
_space_group_symop_operation_xyz
x,y,z
-x,-y,z
x,-y,-z
-x,y,-z
-x,-y,-z
x,y,-z
-x,y,z
x,-y,z
1/2+x,1/2+y,z
1/2-x,1/2-y,z
1/2+x,1/2-y,-z
1/2-x,1/2+y,-z
1/2-x,1/2-y,-z
1/2+x,1/2+y,-z
1/2-x,1/2+y,z
1/2+x,1/2-y,z
loop_
_atom_site_type_symbol
_atom_site_label
_atom_site_fract_x
_atom_site_fract_y
_atom_site_fract_z
Si Si1 0.653732 0.102560 0.000000
Si Si2 0.500000 0.818479 0.432252
Si Si3 0.769888 0.595271 0.360875
Si Si4 0.347190 0.397935 0.759914
Si Si5 0.500000 0.618939 0.568655
Si Si6 0.346705 0.397854 0.894322
O O1 0.738923 0.129530 0.057471
O O2 0.500000 0.129921 0.000000
O O3 0.652020 0.000000 0.000000
O O4 0.500000 0.850052 0.500000
O O5 0.628553 0.850500 0.398013
O O6 0.500000 0.719088 0.433017
O O7 0.820622 0.500000 0.356318
O O8 0.743472 0.629565 0.294631
O O9 0.630290 0.592616 0.395475
O O10 0.500000 0.372788 0.749011
O O11 0.345409 0.500000 0.758611
O O12 0.311712 0.372282 0.826902
O O13 0.500000 0.590854 0.500000
O O14 0.500000 0.372651 0.907354
O O15 0.347510 0.500000 0.895282
#
# Coordination Sequence:
#
# PCOD9493516 Si02
#       6
#     8   8  16  16   8  16
#     4   9  15  21  29  51  85 123 166 201 234 294
#     4  11  25  41  53  75 113 146 169 210 278 337
#     4  11  21  36  58  82 106 136 180 226 266 314
#     4   8  14  27  46  69  93 121 165 218 261 300
#     4  11  23  39  59  79 103 140 181 218 264 323
#     4   8  13  22  37  54  80 120 162 202 246 296
#
# _framework density 19.895012999999999
#
# number of rings (size 3 to 8) (size 9 to 14) (size 15 to 20)
#    0.000    2.556    1.111    3.667    0.000    5.778 
#    2.000    0.000    0.000    0.000    0.000    0.000 
#    0.000    0.000    0.000    6.000    0.000    6.778 
#
# Total GULP energy -200907.533097 kJ/mol
# GULP energy per Si atom -5580.764808 kJ/mol
# Density = 1.984973 g / cm^3
# Si number density = 19.895013 Si / 1000 Ang^3
#
#
#
# Elastic Constant Matrix: (Units=GPa)
#
#
# Indices 1 2 3 4 5 6 
#
# 1 126.0616 20.2156 96.0966 0.0000 0.0000 0.0000
# 2 20.2156 36.3089 22.5702 0.0000 0.0000 0.0000
# 3 96.0966 22.5702 190.6228 0.0000 0.0000 0.0000
# 4 0.0000 0.0000 0.0000 45.0848 0.0000 0.0000
# 5 0.0000 0.0000 0.0000 0.0000 34.0652 0.0000
# 6 0.0000 0.0000 0.0000 0.0000 0.0000 13.5979
#
#
#
# Elastic Compliance Matrix: (Units=1/GPa)
#
#
# Indices 1 2 3 4 5 6 
#
# 1 0.013281 -0.003489 -0.006282 0.000000 0.000000 0.000000
# 2 -0.003489 0.030646 -0.001870 0.000000 0.000000 0.000000
# 3 -0.006282 -0.001870 0.008634 0.000000 0.000000 0.000000
# 4 0.000000 0.000000 0.000000 0.022180 0.000000 0.000000
# 5 0.000000 0.000000 0.000000 0.000000 0.029355 0.000000
# 6 0.000000 0.000000 0.000000 0.000000 0.000000 0.073541
#
#
# Mechanical properties :
#
#
# Convention : Reuss Voigt Hill
#
# Bulk Modulus (GPa) = 34.15347 70.08424 52.11886
# Shear Modulus (GPa) = 23.73269 32.82365 28.27817
#
# Velocity S-wave (km/s) = 3.45758 4.06623 3.77420
# Velocity P-wave (km/s) = 5.75708 7.57292 6.72656
#
# Compressibility (1/GPa) = 0.02927960
#
# Stress axis : x y z
#
# Youngs Moduli (GPa) = 75.29548 32.63031 115.81814
#
# Poissons Ratio (x) = 0.11386 0.72758
# Poissons Ratio (y) = 0.26274 0.21652
# Poissons Ratio (z) = 0.47301 0.06100
#
# Static dielectric constant tensor:
#      x y z
#    x 1.646210 0.000000 0.000000 
#    y 0.000000 1.695580 0.000000 
#    z 0.000000 0.000000 1.710020 
# 
# From -- ./inp_files/67157.got.cif
#   From: 2010.05.17/outbox.cif.g08.bks.cpg/sg65_34_cif.got.tgz:67157.got - 2010.06.03 17:01:31.
