data_PCOD9493572
_publ_section_title
;
Structure prediction by ZEFSAII (Michael W. Deem and Ramdas Pophale) SiO2 
 PCOD9493572
Probable space group: C M M M
;
_chemical_formula_sum "Si O2"
_cell_formula_units_Z 88
_cell_length_a 32.399169
_cell_length_b 13.971385
_cell_length_c 12.870750
_cell_angle_alpha 90.000000
_cell_angle_beta 90.000000
_cell_angle_gamma 90.000000
_cell_volume 5826.089961
_symmetry_space_group_name_H-M "C M M M"
_symmetry_group_IT_number 65
_symmetry_cell_setting 'orthorhombic'
loop_
_space_group_symop_operation_xyz
x,y,z
-x,-y,z
x,-y,-z
-x,y,-z
-x,-y,-z
x,y,-z
-x,y,z
x,-y,z
1/2+x,1/2+y,z
1/2-x,1/2-y,z
1/2+x,1/2-y,-z
1/2-x,1/2+y,-z
1/2-x,1/2-y,-z
1/2+x,1/2+y,-z
1/2-x,1/2+y,z
1/2+x,1/2-y,z
loop_
_atom_site_type_symbol
_atom_site_label
_atom_site_fract_x
_atom_site_fract_y
_atom_site_fract_z
Si Si1 0.180467 0.384528 0.877183
Si Si2 0.137417 0.887836 0.125839
Si Si3 0.596522 0.794952 0.805616
Si Si4 0.951046 0.387733 0.622081
Si Si5 0.270851 0.383881 0.121719
Si Si6 0.450552 0.112912 0.000000
O O1 0.179269 0.500000 0.872344
O O2 0.141537 0.343047 0.817719
O O3 0.225952 0.352105 0.838323
O O4 0.176530 0.358707 0.000000
O O5 0.104407 0.817090 0.175339
O O6 0.183793 0.857576 0.161566
O O7 0.131430 0.000000 0.148837
O O8 0.136248 0.877696 0.000000
O O9 0.575401 0.822615 0.698060
O O10 0.568887 0.838377 0.898491
O O11 0.942789 0.372034 0.500000
O O12 0.942595 0.500000 0.645145
O O13 0.000000 0.372897 0.639230
O O14 0.270440 0.500000 0.126078
O O15 0.270617 0.358178 0.000000
O O16 0.500000 0.121488 0.000000
O O17 0.439830 0.000000 0.000000
#
# Coordination Sequence:
#
# PCOD9493572 Si02
#       6
#    16  16  16  16  16   8
#     4   9  15  23  37  64 100 126 149 185 229 277
#     4   9  17  30  44  63  96 134 169 195 218 258
#     4  12  19  28  47  72  93 123 156 190 230 274
#     4   9  19  36  55  72  91 117 149 187 233 287
#     4   7  12  23  38  56  88 132 163 186 218 259
#     4  11  22  32  43  66  99 123 136 166 231 307
#
# _framework density 15.104469
#
# number of rings (size 3 to 8) (size 9 to 14) (size 15 to 20)
#    0.000    2.636    1.818    4.909    0.000    2.182 
#    0.000    2.727    0.000    3.273    0.000    3.818 
#    0.000    4.364    0.000    0.000    0.000    0.000 
#
# Total GULP energy -245199.113993 kJ/mol
# GULP energy per Si atom -5572.707136 kJ/mol
# Density = 1.507009 g / cm^3
# Si number density = 15.104469 Si / 1000 Ang^3
#
#
#
# Elastic Constant Matrix: (Units=GPa)
#
#
# Indices 1 2 3 4 5 6 
#
# 1 86.2333 58.3625 43.1893 0.0000 0.0000 0.0000
# 2 58.3625 85.9576 39.3756 0.0000 0.0000 0.0000
# 3 43.1893 39.3756 48.0413 0.0000 0.0000 0.0000
# 4 0.0000 0.0000 0.0000 13.0084 0.0000 0.0000
# 5 0.0000 0.0000 0.0000 0.0000 19.6618 0.0000
# 6 0.0000 0.0000 0.0000 0.0000 0.0000 28.7168
#
#
#
# Elastic Compliance Matrix: (Units=1/GPa)
#
#
# Indices 1 2 3 4 5 6 
#
# 1 0.026608 -0.011381 -0.014592 0.000000 0.000000 0.000000
# 2 -0.011381 0.023496 -0.009026 0.000000 0.000000 0.000000
# 3 -0.014592 -0.009026 0.041331 0.000000 0.000000 0.000000
# 4 0.000000 0.000000 0.000000 0.076873 0.000000 0.000000
# 5 0.000000 0.000000 0.000000 0.000000 0.050860 0.000000
# 6 0.000000 0.000000 0.000000 0.000000 0.000000 0.034823
#
#
# Mechanical properties :
#
#
# Convention : Reuss Voigt Hill
#
# Bulk Modulus (GPa) = 46.64916 55.78745 51.21830
# Shear Modulus (GPa) = 15.09963 17.56439 16.33201
#
# Velocity S-wave (km/s) = 3.16520 3.41377 3.29183
# Velocity P-wave (km/s) = 6.65653 7.24935 6.95925
#
# Compressibility (1/GPa) = 0.02143661
#
# Stress axis : x y z
#
# Youngs Moduli (GPa) = 37.58326 42.56089 24.19487
#
# Poissons Ratio (x) = 0.48441 0.35305
# Poissons Ratio (y) = 0.42775 0.21837
# Poissons Ratio (z) = 0.54841 0.38414
#
# Static dielectric constant tensor:
#      x y z
#    x 1.529750 0.000000 0.000000 
#    y 0.000000 1.546740 0.000000 
#    z 0.000000 0.000000 1.459810 
# 
# From -- ./inp_files/33777.got.cif
#   From: 2010.05.17/outbox.cif.g08.bks.cpg/sg65_17_cif.got.tgz:33777.got - 2010.06.03 17:01:31.
