data_PCOD9493970
_publ_section_title
;
Structure prediction by ZEFSAII (Michael W. Deem and Ramdas Pophale) SiO2 
 PCOD9493970
Probable space group: C M M M
;
_chemical_formula_sum "Si O2"
_cell_formula_units_Z 100
_cell_length_a 28.286812
_cell_length_b 9.452308
_cell_length_c 19.913214
_cell_angle_alpha 90.000000
_cell_angle_beta 90.000000
_cell_angle_gamma 90.000000
_cell_volume 5324.308723
_symmetry_space_group_name_H-M "C M M M"
_symmetry_group_IT_number 65
_symmetry_cell_setting 'orthorhombic'
loop_
_space_group_symop_operation_xyz
x,y,z
-x,-y,z
x,-y,-z
-x,y,-z
-x,-y,-z
x,y,-z
-x,y,z
x,-y,z
1/2+x,1/2+y,z
1/2-x,1/2-y,z
1/2+x,1/2-y,-z
1/2-x,1/2+y,-z
1/2-x,1/2-y,-z
1/2+x,1/2+y,-z
1/2-x,1/2+y,z
1/2+x,1/2-y,z
loop_
_atom_site_type_symbol
_atom_site_label
_atom_site_fract_x
_atom_site_fract_y
_atom_site_fract_z
Si Si1 0.556454 0.838535 0.920516
Si Si2 0.608709 0.669701 0.190688
Si Si3 0.397122 0.654151 0.419775
Si Si4 0.325492 0.000000 0.500000
Si Si5 0.056648 0.335684 0.309447
Si Si6 0.305234 0.777872 0.616369
Si Si7 0.298586 0.835362 0.227259
O O1 0.500000 0.826714 0.910429
O O2 0.582819 0.723173 0.876422
O O3 0.569856 0.000000 0.900144
O O4 0.565526 0.824277 0.000000
O O5 0.611943 0.500000 0.195397
O O6 0.579123 0.736432 0.252500
O O7 0.659388 0.746468 0.194120
O O8 0.398073 0.672682 0.500000
O O9 0.418569 0.500000 0.404547
O O10 0.424264 0.776601 0.380131
O O11 0.343227 0.653722 0.392321
O O12 0.322778 0.118938 0.440994
O O13 0.070825 0.500000 0.299612
O O14 0.000000 0.328652 0.306849
O O15 0.250000 0.750000 0.603192
O O16 0.307905 0.832780 0.692311
O O17 0.250000 0.750000 0.216313
O O18 0.296307 0.000000 0.206168
#
# Coordination Sequence:
#
# PCOD9493970 Si02
#       7
#    16  16  16   4  16  16  16
#     4   9  19  38  65  98 135 172 207 246 297 357
#     4  12  24  38  63  94 126 164 204 248 301 361
#     4  11  25  40  58  82 112 149 192 247 309 372
#     4  12  22  36  54  88 109 160 193 250 304 392
#     4  11  25  43  62  83 110 149 201 254 303 362
#     4  11  24  35  57  81 116 153 194 244 308 371
#     4  11  23  40  60  87 121 162 206 256 304 362
#
# _framework density 18.781780999999999
#
# number of rings (size 3 to 8) (size 9 to 14) (size 15 to 20)
#    0.000    1.120    3.200    3.600    2.240    5.120 
#    0.000    2.400    0.000    0.480    0.000    0.000 
#    0.000    0.000    0.000    0.000    0.000    0.000 
#
# Total GULP energy -278678.647706 kJ/mol
# GULP energy per Si atom -5573.572954 kJ/mol
# Density = 1.873903 g / cm^3
# Si number density = 18.781781 Si / 1000 Ang^3
#
#
#
# Elastic Constant Matrix: (Units=GPa)
#
#
# Indices 1 2 3 4 5 6 
#
# 1 86.3839 62.7784 37.5627 0.0000 0.0000 0.0000
# 2 62.7784 186.9238 51.4676 0.0000 0.0000 0.0000
# 3 37.5627 51.4676 56.1803 0.0000 0.0000 0.0000
# 4 0.0000 0.0000 0.0000 47.0452 0.0000 0.0000
# 5 0.0000 0.0000 0.0000 0.0000 15.4155 0.0000
# 6 0.0000 0.0000 0.0000 0.0000 0.0000 14.3737
#
#
#
# Elastic Compliance Matrix: (Units=1/GPa)
#
#
# Indices 1 2 3 4 5 6 
#
# 1 0.018014 -0.003656 -0.008695 0.000000 0.000000 0.000000
# 2 -0.003656 0.007896 -0.004790 0.000000 0.000000 0.000000
# 3 -0.008695 -0.004790 0.028001 0.000000 0.000000 0.000000
# 4 0.000000 0.000000 0.000000 0.021256 0.000000 0.000000
# 5 0.000000 0.000000 0.000000 0.000000 0.064870 0.000000
# 6 0.000000 0.000000 0.000000 0.000000 0.000000 0.069572
#
#
# Mechanical properties :
#
#
# Convention : Reuss Voigt Hill
#
# Bulk Modulus (GPa) = 50.94128 70.34505 60.64316
# Shear Modulus (GPa) = 19.96532 27.21216 23.58874
#
# Velocity S-wave (km/s) = 3.26393 3.81052 3.54777
# Velocity P-wave (km/s) = 6.43319 7.54289 7.01003
#
# Compressibility (1/GPa) = 0.01963045
#
# Stress axis : x y z
#
# Youngs Moduli (GPa) = 55.51219 126.64020 35.71255
#
# Poissons Ratio (x) = 0.46298 0.31053
# Poissons Ratio (y) = 0.20295 0.17105
# Poissons Ratio (z) = 0.48269 0.60656
#
# Static dielectric constant tensor:
#      x y z
#    x 1.691830 0.000000 0.000000 
#    y 0.000000 1.623350 0.000000 
#    z 0.000000 0.000000 1.624780 
# 
# From -- ./inp_files/65942.got.cif
#   From: 2010.05.17/outbox.cif.g08.bks.cpg/sg65_33_cif.got.tgz:65942.got - 2010.06.03 17:01:31.
