data_PCOD9493956
_publ_section_title
;
Structure prediction by ZEFSAII (Michael W. Deem and Ramdas Pophale) SiO2 
 PCOD9493956
Probable space group: C M M M
;
_chemical_formula_sum "Si O2"
_cell_formula_units_Z 64
_cell_length_a 11.642524
_cell_length_b 17.514822
_cell_length_c 18.977713
_cell_angle_alpha 90.000000
_cell_angle_beta 90.000000
_cell_angle_gamma 90.000000
_cell_volume 3869.873282
_symmetry_space_group_name_H-M "C M M M"
_symmetry_group_IT_number 65
_symmetry_cell_setting 'orthorhombic'
loop_
_space_group_symop_operation_xyz
x,y,z
-x,-y,z
x,-y,-z
-x,y,-z
-x,-y,-z
x,y,-z
-x,y,z
x,-y,z
1/2+x,1/2+y,z
1/2-x,1/2-y,z
1/2+x,1/2-y,-z
1/2-x,1/2+y,-z
1/2-x,1/2-y,-z
1/2+x,1/2+y,-z
1/2-x,1/2+y,z
1/2+x,1/2-y,z
loop_
_atom_site_type_symbol
_atom_site_label
_atom_site_fract_x
_atom_site_fract_y
_atom_site_fract_z
Si Si1 0.000000 0.408412 0.915343
Si Si2 0.362958 0.412380 0.000000
Si Si3 0.240819 0.659080 0.134166
Si Si4 0.635399 0.407535 0.730387
Si Si5 0.138946 0.090616 0.424261
O O1 0.887120 0.370780 0.881727
O O2 0.000000 0.500000 0.904464
O O3 0.000000 0.395006 0.000000
O O4 0.316723 0.371941 0.069503
O O5 0.320893 0.500000 0.000000
O O6 0.500000 0.412385 0.000000
O O7 0.250000 0.750000 0.135436
O O8 0.290438 0.625920 0.206700
O O9 0.500000 0.388086 0.739406
O O10 0.641888 0.500000 0.731693
O O11 0.675722 0.380306 0.652511
O O12 0.179548 0.122683 0.500000
O O13 0.000000 0.096238 0.423777
O O14 0.165141 0.000000 0.424980
#
# Coordination Sequence:
#
# PCOD9493956 Si02
#       5
#     8   8  16  16  16
#     4  11  24  42  60  74  99 143 187 220 258 318
#     4  11  23  39  61  81 101 129 167 215 269 325
#     4  12  25  36  55  77 108 137 176 221 262 311
#     4   9  17  31  52  76 106 136 167 213 264 313
#     4   7  10  19  40  72 103 129 160 202 253 307
#
# _framework density 16.538008999999999
#
# number of rings (size 3 to 8) (size 9 to 14) (size 15 to 20)
#    0.000    2.250    1.250    5.625    3.500    2.000 
#    0.000    0.000    0.000    0.750    0.000    0.875 
#    0.000    5.000    0.000    0.000    0.000    0.000 
#
# Total GULP energy -178314.806486 kJ/mol
# GULP energy per Si atom -5572.337703 kJ/mol
# Density = 1.650037 g / cm^3
# Si number density = 16.538009 Si / 1000 Ang^3
#
#
#
# Elastic Constant Matrix: (Units=GPa)
#
#
# Indices 1 2 3 4 5 6 
#
# 1 81.0811 39.7791 65.8634 0.0000 0.0000 0.0000
# 2 39.7791 68.6878 53.8417 0.0000 0.0000 0.0000
# 3 65.8634 53.8417 206.9575 0.0000 0.0000 0.0000
# 4 0.0000 0.0000 0.0000 -14.3374 0.0000 0.0000
# 5 0.0000 0.0000 0.0000 0.0000 -395.1938 0.0000
# 6 0.0000 0.0000 0.0000 0.0000 0.0000 4.9260
#
#
#
# Elastic Compliance Matrix: (Units=1/GPa)
#
#
# Indices 1 2 3 4 5 6 
#
# 1 0.019707 -0.008161 -0.004149 0.000000 0.000000 0.000000
# 2 -0.008161 0.021668 -0.003040 0.000000 0.000000 0.000000
# 3 -0.004149 -0.003040 0.006943 0.000000 0.000000 0.000000
# 4 0.000000 0.000000 0.000000 -0.069748 0.000000 0.000000
# 5 0.000000 0.000000 0.000000 0.000000 -0.002530 0.000000
# 6 0.000000 0.000000 0.000000 0.000000 0.000000 0.203003
#
#
# Mechanical properties :
#
#
# Convention : Reuss Voigt Hill
#
# Bulk Modulus (GPa) = 56.75692 75.07722 65.91707
# Shear Modulus (GPa) = 23.18954 -67.77156 -22.29101
#
# Velocity S-wave (km/s) = 3.74865 -6.40845 -3.67531
# Velocity P-wave (km/s) = 7.28904 3.04341 4.68336
#
# Compressibility (1/GPa) = 0.01761900
#
# Stress axis : x y z
#
# Youngs Moduli (GPa) = 50.74295 46.15155 144.02989
#
# Poissons Ratio (x) = 0.37665 0.59752
# Poissons Ratio (y) = 0.41412 0.43782
# Poissons Ratio (z) = 0.21051 0.14029
#
# Static dielectric constant tensor:
#      x y z
#    x 1.539950 0.000000 0.000000 
#    y 0.000000 1.531580 0.000000 
#    z 0.000000 0.000000 1.593510 
# 
# From -- ./inp_files/50912.got.cif
#   From: 2010.05.17/outbox.cif.g08.bks.cpg/sg65_26_cif.got.tgz:50912.got - 2010.06.03 17:01:31.
