data_PCOD9493718
_publ_section_title
;
Structure prediction by ZEFSAII (Michael W. Deem and Ramdas Pophale) SiO2 
 PCOD9493718
Probable space group: C M M M
;
_chemical_formula_sum "Si O2"
_cell_formula_units_Z 88
_cell_length_a 14.747979
_cell_length_b 26.501837
_cell_length_c 11.554482
_cell_angle_alpha 90.000000
_cell_angle_beta 90.000000
_cell_angle_gamma 90.000000
_cell_volume 4516.052369
_symmetry_space_group_name_H-M "C M M M"
_symmetry_group_IT_number 65
_symmetry_cell_setting 'orthorhombic'
loop_
_space_group_symop_operation_xyz
x,y,z
-x,-y,z
x,-y,-z
-x,y,-z
-x,-y,-z
x,y,-z
-x,y,z
x,-y,z
1/2+x,1/2+y,z
1/2-x,1/2-y,z
1/2+x,1/2-y,-z
1/2-x,1/2+y,-z
1/2-x,1/2-y,-z
1/2+x,1/2+y,-z
1/2-x,1/2+y,z
1/2+x,1/2-y,z
loop_
_atom_site_type_symbol
_atom_site_label
_atom_site_fract_x
_atom_site_fract_y
_atom_site_fract_z
Si Si1 0.399040 0.331291 0.364387
Si Si2 0.726154 0.415680 0.263266
Si Si3 0.607300 0.164969 0.500000
Si Si4 0.152894 0.273856 0.725151
Si Si5 0.684266 0.944981 0.500000
Si Si6 0.601899 0.131431 0.137771
Si Si7 0.607181 0.500000 0.860877
O O1 0.372772 0.327918 0.500000
O O2 0.500000 0.353735 0.358847
O O3 0.329206 0.365384 0.294915
O O4 0.402100 0.275405 0.312135
O O5 0.754811 0.440381 0.385006
O O6 0.818226 0.400807 0.196225
O O7 0.661024 0.452087 0.190493
O O8 0.500000 0.176341 0.500000
O O9 0.652405 0.190151 0.387838
O O10 0.622363 0.105005 0.500000
O O11 0.250000 0.250000 0.753194
O O12 0.116284 0.310305 0.824593
O O13 0.638643 0.000000 0.500000
O O14 0.500000 0.116570 0.176724
O O15 0.606969 0.126477 0.000000
O O16 0.500000 0.500000 0.829119
O O17 0.612680 0.500000 0.000000
#
# Coordination Sequence:
#
# PCOD9493718 Si02
#       7
#    16  16   8  16   8  16   8
#     4  11  22  36  60  98 137 172 213 266 332 407
#     4  12  23  44  68  98 132 170 219 275 343 399
#     4  12  23  38  64  95 130 176 218 265 332 399
#     4  12  22  38  62  91 132 173 220 268 329 398
#     4  12  24  40  64  97 136 167 208 270 341 401
#     4  11  25  44  65  91 128 177 230 280 331 393
#     4  11  26  49  74  98 129 179 233 276 325 391
#
# _framework density 19.486045000000001
#
# number of rings (size 3 to 8) (size 9 to 14) (size 15 to 20)
#    0.000    0.455    6.364    3.000    0.000    0.545 
#    0.000    0.909    0.000    4.909    0.000    0.000 
#    0.000    0.000    0.000    0.000    0.000    0.000 
#
# Total GULP energy -245893.622810 kJ/mol
# GULP energy per Si atom -5588.491427 kJ/mol
# Density = 1.944169 g / cm^3
# Si number density = 19.486045 Si / 1000 Ang^3
#
#
#
# Elastic Constant Matrix: (Units=GPa)
#
#
# Indices 1 2 3 4 5 6 
#
# 1 165.2421 57.3522 61.8680 0.0000 0.0000 0.0000
# 2 57.3522 125.2920 36.1859 0.0000 0.0000 0.0000
# 3 61.8680 36.1859 94.5856 0.0000 0.0000 0.0000
# 4 0.0000 0.0000 0.0000 23.7947 0.0000 0.0000
# 5 0.0000 0.0000 0.0000 0.0000 21.8198 0.0000
# 6 0.0000 0.0000 0.0000 0.0000 0.0000 16.0576
#
#
#
# Elastic Compliance Matrix: (Units=1/GPa)
#
#
# Indices 1 2 3 4 5 6 
#
# 1 0.008726 -0.002637 -0.004699 0.000000 0.000000 0.000000
# 2 -0.002637 0.009770 -0.002013 0.000000 0.000000 0.000000
# 3 -0.004699 -0.002013 0.014416 0.000000 0.000000 0.000000
# 4 0.000000 0.000000 0.000000 0.042026 0.000000 0.000000
# 5 0.000000 0.000000 0.000000 0.000000 0.045830 0.000000
# 6 0.000000 0.000000 0.000000 0.000000 0.000000 0.062276
#
#
# Mechanical properties :
#
#
# Convention : Reuss Voigt Hill
#
# Bulk Modulus (GPa) = 70.35097 77.32576 73.83837
# Shear Modulus (GPa) = 24.21541 27.64867 25.93204
#
# Velocity S-wave (km/s) = 3.52903 3.77091 3.65197
# Velocity P-wave (km/s) = 7.26547 7.66345 7.46711
#
# Compressibility (1/GPa) = 0.01421444
#
# Stress axis : x y z
#
# Youngs Moduli (GPa) = 114.59442 102.35547 69.36767
#
# Poissons Ratio (x) = 0.26995 0.32595
# Poissons Ratio (y) = 0.30223 0.13961
# Poissons Ratio (z) = 0.53847 0.20600
#
# Static dielectric constant tensor:
#      x y z
#    x 1.709680 0.000000 0.000000 
#    y 0.000000 1.677680 0.000000 
#    z 0.000000 0.000000 1.660430 
# 
# From -- ./inp_files/25196.got.cif
#   From: 2010.05.17/outbox.cif.g08.bks.cpg/sg65_13_cif.got.tgz:25196.got - 2010.06.03 17:01:31.
