data_PCOD9493129
_publ_section_title
;
Structure prediction by ZEFSAII (Michael W. Deem and Ramdas Pophale) SiO2 
 PCOD9493129
Probable space group: C M M M
;
_chemical_formula_sum "Si O2"
_cell_formula_units_Z 64
_cell_length_a 11.328576
_cell_length_b 23.635726
_cell_length_c 12.516627
_cell_angle_alpha 90.000000
_cell_angle_beta 90.000000
_cell_angle_gamma 90.000000
_cell_volume 3351.441010
_symmetry_space_group_name_H-M "C M M M"
_symmetry_group_IT_number 65
_symmetry_cell_setting 'orthorhombic'
loop_
_space_group_symop_operation_xyz
x,y,z
-x,-y,z
x,-y,-z
-x,y,-z
-x,-y,-z
x,y,-z
-x,y,z
x,-y,z
1/2+x,1/2+y,z
1/2-x,1/2-y,z
1/2+x,1/2-y,-z
1/2-x,1/2+y,-z
1/2-x,1/2-y,-z
1/2+x,1/2+y,-z
1/2-x,1/2+y,z
1/2+x,1/2-y,z
loop_
_atom_site_type_symbol
_atom_site_label
_atom_site_fract_x
_atom_site_fract_y
_atom_site_fract_z
Si Si1 0.250000 0.750000 0.734202
Si Si2 0.000000 0.118234 0.621386
Si Si3 0.212837 0.875801 0.219055
Si Si4 0.858730 0.933153 0.000000
Si Si5 0.859405 0.564952 0.616928
Si Si6 0.000000 0.254399 0.617998
O O1 0.215595 0.807931 0.794052
O O2 0.128562 0.733877 0.670657
O O3 0.112004 0.105554 0.695732
O O4 0.000000 0.094797 0.500000
O O5 0.000000 0.186225 0.610512
O O6 0.326171 0.897550 0.282392
O O7 0.192505 0.905173 0.106601
O O8 0.000000 0.924426 0.000000
O O9 0.835622 0.000000 0.000000
O O10 0.815434 0.585930 0.500000
O O11 0.817100 0.500000 0.630382
O O12 0.000000 0.563020 0.610925
O O13 0.000000 0.280439 0.500000
#
# Coordination Sequence:
#
# PCOD9493129 Si02
#       6
#     8   8  16   8  16   8
#     4  10  23  35  60  90 126 166 203 247 314 362
#     4   9  18  33  55  86 125 157 186 238 299 347
#     4  11  21  39  60  88 121 155 201 250 294 370
#     4  11  24  43  67  87 111 159 209 257 312 362
#     4   9  19  36  58  85 119 158 198 245 300 356
#     4   9  18  34  53  87 130 170 205 238 286 366
#
# _framework density 19.096263
#
# number of rings (size 3 to 8) (size 9 to 14) (size 15 to 20)
#    0.000    2.125    1.250    2.625    1.750    3.500 
#    0.000    0.625    0.000    5.250    0.000    0.000 
#    0.000    0.000    0.000    0.000    0.000    0.000 
#
# Total GULP energy -178250.747220 kJ/mol
# GULP energy per Si atom -5570.335851 kJ/mol
# Density = 1.905280 g / cm^3
# Si number density = 19.096263 Si / 1000 Ang^3
#
#
#
# Elastic Constant Matrix: (Units=GPa)
#
#
# Indices 1 2 3 4 5 6 
#
# 1 76.6038 20.9804 37.3084 0.0000 0.0000 0.0000
# 2 20.9804 94.1584 75.1928 0.0000 0.0000 0.0000
# 3 37.3084 75.1928 162.8228 0.0000 0.0000 0.0000
# 4 0.0000 0.0000 0.0000 -16.8914 0.0000 0.0000
# 5 0.0000 0.0000 0.0000 0.0000 8.5214 0.0000
# 6 0.0000 0.0000 0.0000 0.0000 0.0000 23.3187
#
#
#
# Elastic Compliance Matrix: (Units=1/GPa)
#
#
# Indices 1 2 3 4 5 6 
#
# 1 0.014745 -0.000931 -0.002949 0.000000 0.000000 0.000000
# 2 -0.000931 0.016884 -0.007584 0.000000 0.000000 0.000000
# 3 -0.002949 -0.007584 0.010320 0.000000 0.000000 0.000000
# 4 0.000000 0.000000 0.000000 -0.059202 0.000000 0.000000
# 5 0.000000 0.000000 0.000000 0.000000 0.117352 0.000000
# 6 0.000000 0.000000 0.000000 0.000000 0.000000 0.042884
#
#
# Mechanical properties :
#
#
# Convention : Reuss Voigt Hill
#
# Bulk Modulus (GPa) = 52.57041 66.72757 59.64899
# Shear Modulus (GPa) = 29.02735 16.32995 22.67865
#
# Velocity S-wave (km/s) = 3.90302 2.92745 3.44989
# Velocity P-wave (km/s) = 6.92100 6.81507 6.86824
#
# Compressibility (1/GPa) = 0.01902211
#
# Stress axis : x y z
#
# Youngs Moduli (GPa) = 67.81837 59.22699 96.90207
#
# Poissons Ratio (x) = 0.05512 0.28575
# Poissons Ratio (y) = 0.06311 0.73491
# Poissons Ratio (z) = 0.19999 0.44918
#
# Static dielectric constant tensor:
#      x y z
#    x 1.759100 0.000000 0.000000 
#    y 0.000000 1.680870 0.000000 
#    z 0.000000 0.000000 1.645180 
# 
# From -- ./inp_files/22291.got.cif
#   From: 2010.05.17/outbox.cif.g08.bks.cpg/sg65_12_cif.got.tgz:22291.got - 2010.06.03 17:01:31.
