data_PCOD9493828
_publ_section_title
;
Structure prediction by ZEFSAII (Michael W. Deem and Ramdas Pophale) SiO2 
 PCOD9493828
Probable space group: C M M M
;
_chemical_formula_sum "Si O2"
_cell_formula_units_Z 72
_cell_length_a 16.210586
_cell_length_b 7.761164
_cell_length_c 26.252491
_cell_angle_alpha 90.000000
_cell_angle_beta 90.000000
_cell_angle_gamma 90.000000
_cell_volume 3302.905083
_symmetry_space_group_name_H-M "C M M M"
_symmetry_group_IT_number 65
_symmetry_cell_setting 'orthorhombic'
loop_
_space_group_symop_operation_xyz
x,y,z
-x,-y,z
x,-y,-z
-x,y,-z
-x,-y,-z
x,y,-z
-x,y,z
x,-y,z
1/2+x,1/2+y,z
1/2-x,1/2-y,z
1/2+x,1/2-y,-z
1/2-x,1/2+y,-z
1/2-x,1/2-y,-z
1/2+x,1/2+y,-z
1/2-x,1/2+y,z
1/2+x,1/2-y,z
loop_
_atom_site_type_symbol
_atom_site_label
_atom_site_fract_x
_atom_site_fract_y
_atom_site_fract_z
Si Si1 0.905631 0.790242 0.726237
Si Si2 0.653063 0.707607 0.835367
Si Si3 0.348009 0.292249 0.054750
Si Si4 0.000000 0.704139 0.557121
Si Si5 0.839315 0.203398 0.621995
O O1 0.884844 0.725883 0.782769
O O2 0.850925 0.723643 0.679411
O O3 0.000000 0.750143 0.713540
O O4 0.898485 0.000000 0.728436
O O5 0.643135 0.500000 0.835654
O O6 0.750000 0.750000 0.833659
O O7 0.619881 0.770883 0.890353
O O8 0.356659 0.500000 0.054616
O O9 0.250000 0.250000 0.054868
O O10 0.381074 0.228567 0.000000
O O11 0.082565 0.750535 0.587719
O O12 0.000000 0.500000 0.552916
O O13 0.000000 0.779435 0.500000
O O14 0.750000 0.250000 0.600589
O O15 0.841118 0.000000 0.627337
#
# Coordination Sequence:
#
# PCOD9493828 Si02
#       5
#    16  16  16   8  16
#     4   9  17  31  51  75 104 140 181 223 276 337
#     4   9  16  26  43  65  92 125 164 213 265 323
#     4   8  13  21  34  55  83 116 156 204 258 314
#     4  11  25  45  67  93 125 159 198 241 284 336
#     4  11  22  39  64  92 123 159 199 243 291 345
#
# _framework density 21.798991000000001
#
# number of rings (size 3 to 8) (size 9 to 14) (size 15 to 20)
#    0.000    2.556    1.111    1.667    0.000    1.333 
#    0.000    1.111    0.000    0.667    0.000    4.667 
#    0.000    0.000    0.000   36.000    0.000   16.889 
#
# Total GULP energy -200714.109414 kJ/mol
# GULP energy per Si atom -5575.391928 kJ/mol
# Density = 2.174938 g / cm^3
# Si number density = 21.798991 Si / 1000 Ang^3
#
#
#
# Elastic Constant Matrix: (Units=GPa)
#
#
# Indices 1 2 3 4 5 6 
#
# 1 101.0856 2.6104 69.9998 0.0000 0.0000 0.0000
# 2 2.6104 40.3817 15.6312 0.0000 0.0000 0.0000
# 3 69.9998 15.6312 182.5846 0.0000 0.0000 0.0000
# 4 0.0000 0.0000 0.0000 29.4625 0.0000 0.0000
# 5 0.0000 0.0000 0.0000 0.0000 21.7774 0.0000
# 6 0.0000 0.0000 0.0000 0.0000 0.0000 17.5824
#
#
#
# Elastic Compliance Matrix: (Units=1/GPa)
#
#
# Indices 1 2 3 4 5 6 
#
# 1 0.013522 0.001171 -0.005284 0.000000 0.000000 0.000000
# 2 0.001171 0.025714 -0.002650 0.000000 0.000000 0.000000
# 3 -0.005284 -0.002650 0.007730 0.000000 0.000000 0.000000
# 4 0.000000 0.000000 0.000000 0.033941 0.000000 0.000000
# 5 0.000000 0.000000 0.000000 0.000000 0.045919 0.000000
# 6 0.000000 0.000000 0.000000 0.000000 0.000000 0.056875
#
#
# Mechanical properties :
#
#
# Convention : Reuss Voigt Hill
#
# Bulk Modulus (GPa) = 29.90559 55.61497 42.76028
# Shear Modulus (GPa) = 23.99535 29.48516 26.74025
#
# Velocity S-wave (km/s) = 3.32136 3.68175 3.50619
# Velocity P-wave (km/s) = 5.33453 6.60619 6.00412
#
# Compressibility (1/GPa) = 0.03343856
#
# Stress axis : x y z
#
# Youngs Moduli (GPa) = 73.95587 38.88943 129.37107
#
# Poissons Ratio (x) = -0.04555 0.68363
# Poissons Ratio (y) = -0.08663 0.34290
# Poissons Ratio (z) = 0.39080 0.10308
#
# Static dielectric constant tensor:
#      x y z
#    x 1.755280 0.000000 0.000000 
#    y 0.000000 1.734560 0.000000 
#    z 0.000000 0.000000 1.882760 
# 
# From -- ./inp_files/72484.got.cif
#   From: 2010.05.17/outbox.cif.g08.bks.cpg/sg65_37_cif.got.tgz:72484.got - 2010.06.03 17:01:31.
