data_PCOD9493951
_publ_section_title
;
Structure prediction by ZEFSAII (Michael W. Deem and Ramdas Pophale) SiO2 
 PCOD9493951
Probable space group: C M M M
;
_chemical_formula_sum "Si O2"
_cell_formula_units_Z 80
_cell_length_a 15.304530
_cell_length_b 7.848160
_cell_length_c 32.725579
_cell_angle_alpha 90.000000
_cell_angle_beta 90.000000
_cell_angle_gamma 90.000000
_cell_volume 3930.747840
_symmetry_space_group_name_H-M "C M M M"
_symmetry_group_IT_number 65
_symmetry_cell_setting 'orthorhombic'
loop_
_space_group_symop_operation_xyz
x,y,z
-x,-y,z
x,-y,-z
-x,y,-z
-x,-y,-z
x,y,-z
-x,y,z
x,-y,z
1/2+x,1/2+y,z
1/2-x,1/2-y,z
1/2+x,1/2-y,-z
1/2-x,1/2+y,-z
1/2-x,1/2-y,-z
1/2+x,1/2+y,-z
1/2-x,1/2+y,z
1/2+x,1/2-y,z
loop_
_atom_site_type_symbol
_atom_site_label
_atom_site_fract_x
_atom_site_fract_y
_atom_site_fract_z
Si Si1 0.893050 0.500000 0.546885
Si Si2 0.500000 0.799774 0.756895
Si Si3 0.105839 0.197104 0.605828
Si Si4 0.346902 0.701294 0.303756
Si Si5 0.147189 0.704876 0.000000
Si Si6 0.851951 0.294584 0.910767
Si Si7 0.500000 0.209616 0.849020
O O1 0.864104 0.500000 0.500000
O O2 0.865582 0.669652 0.571352
O O3 0.000000 0.500000 0.546913
O O4 0.583472 0.756040 0.729609
O O5 0.500000 0.725755 0.802569
O O6 0.500000 0.000000 0.762526
O O7 0.134732 0.265861 0.650295
O O8 0.000000 0.193651 0.606280
O O9 0.135036 0.000000 0.599751
O O10 0.354999 0.500000 0.307596
O O11 0.250000 0.750000 0.291148
O O12 0.250000 0.750000 0.000000
O O13 0.115993 0.767472 0.955674
O O14 0.135887 0.500000 0.000000
O O15 0.856965 0.500000 0.911724
O O16 0.750000 0.250000 0.905332
O O17 0.914743 0.235613 0.874563
O O18 0.500000 0.000000 0.848753
#
# Coordination Sequence:
#
# PCOD9493951 Si02
#       7
#     8   8  16  16   8  16   8
#     4   9  18  30  52  86 120 157 199 237 289 354
#     4  11  23  39  60  83 116 151 187 240 301 352
#     4   9  18  33  55  82 116 153 193 244 296 346
#     4  11  23  39  61  90 115 147 194 245 296 350
#     4   8  14  25  47  75 100 136 178 229 275 315
#     4   9  17  32  52  75 107 141 184 228 274 333
#     4   9  20  36  53  78 108 144 181 223 280 349
#
# _framework density 20.352360999999998
#
# number of rings (size 3 to 8) (size 9 to 14) (size 15 to 20)
#    0.000    2.500    1.000    0.900    2.800    1.600 
#    0.000    8.500    0.000    0.600    0.000    7.000 
#    0.000    0.000    0.000    0.000    0.000    0.000 
#
# Total GULP energy -223183.761912 kJ/mol
# GULP energy per Si atom -5579.594048 kJ/mol
# Density = 2.030604 g / cm^3
# Si number density = 20.352361 Si / 1000 Ang^3
#
#
#
# Elastic Constant Matrix: (Units=GPa)
#
#
# Indices 1 2 3 4 5 6 
#
# 1 95.5175 18.8384 86.0916 0.0000 0.0000 0.0000
# 2 18.8384 49.9552 49.9347 0.0000 0.0000 0.0000
# 3 86.0916 49.9347 229.1543 0.0000 0.0000 0.0000
# 4 0.0000 0.0000 0.0000 9.8633 0.0000 0.0000
# 5 0.0000 0.0000 0.0000 0.0000 -66.5391 0.0000
# 6 0.0000 0.0000 0.0000 0.0000 0.0000 15.6788
#
#
#
# Elastic Compliance Matrix: (Units=1/GPa)
#
#
# Indices 1 2 3 4 5 6 
#
# 1 0.015829 -0.000032 -0.005940 0.000000 0.000000 0.000000
# 2 -0.000032 0.025593 -0.005565 0.000000 0.000000 0.000000
# 3 -0.005940 -0.005565 0.007808 0.000000 0.000000 0.000000
# 4 0.000000 0.000000 0.000000 0.101386 0.000000 0.000000
# 5 0.000000 0.000000 0.000000 0.000000 -0.015029 0.000000
# 6 0.000000 0.000000 0.000000 0.000000 0.000000 0.063780
#
#
# Mechanical properties :
#
#
# Convention : Reuss Voigt Hill
#
# Bulk Modulus (GPa) = 38.23118 76.03962 57.13540
# Shear Modulus (GPa) = 21.63007 6.45144 14.04075
#
# Velocity S-wave (km/s) = 3.26357 1.78234 2.62941
# Velocity P-wave (km/s) = 5.74688 6.45588 6.11167
#
# Compressibility (1/GPa) = 0.02615666
#
# Stress axis : x y z
#
# Youngs Moduli (GPa) = 63.17334 39.07393 128.07100
#
# Poissons Ratio (x) = 0.00124 0.76075
# Poissons Ratio (y) = 0.00200 0.71270
# Poissons Ratio (z) = 0.37526 0.21744
#
# Static dielectric constant tensor:
#      x y z
#    x 1.704620 0.000000 0.000000 
#    y 0.000000 1.769350 0.000000 
#    z 0.000000 0.000000 1.749530 
# 
# From -- ./inp_files/75142.got.cif
#   From: 2010.05.17/outbox.cif.g08.bks.cpg/sg65_38_cif.got.tgz:75142.got - 2010.06.03 17:01:31.
