data_PCOD9493013
_publ_section_title
;
Structure prediction by ZEFSAII (Michael W. Deem and Ramdas Pophale) SiO2 
 PCOD9493013
Probable space group: C M M M
;
_chemical_formula_sum "Si O2"
_cell_formula_units_Z 88
_cell_length_a 8.779345
_cell_length_b 18.479505
_cell_length_c 28.972845
_cell_angle_alpha 90.000000
_cell_angle_beta 90.000000
_cell_angle_gamma 90.000000
_cell_volume 4700.494973
_symmetry_space_group_name_H-M "C M M M"
_symmetry_group_IT_number 65
_symmetry_cell_setting 'orthorhombic'
loop_
_space_group_symop_operation_xyz
x,y,z
-x,-y,z
x,-y,-z
-x,y,-z
-x,-y,-z
x,y,-z
-x,y,z
x,-y,z
1/2+x,1/2+y,z
1/2-x,1/2-y,z
1/2+x,1/2-y,-z
1/2-x,1/2+y,-z
1/2-x,1/2-y,-z
1/2+x,1/2+y,-z
1/2-x,1/2+y,z
1/2+x,1/2-y,z
loop_
_atom_site_type_symbol
_atom_site_label
_atom_site_fract_x
_atom_site_fract_y
_atom_site_fract_z
Si Si1 0.317032 0.330638 0.087504
Si Si2 0.679427 0.913208 0.552021
Si Si3 0.680621 0.329814 0.636345
Si Si4 0.681602 0.169366 0.732851
Si Si5 0.817181 0.915374 0.818526
Si Si6 0.317200 0.914841 0.000000
O O1 0.500000 0.327429 0.083598
O O2 0.250000 0.250000 0.087362
O O3 0.278057 0.371174 0.135256
O O4 0.250206 0.375764 0.044924
O O5 0.724260 0.890542 0.500000
O O6 0.500000 0.895591 0.558031
O O7 0.774569 0.876883 0.592288
O O8 0.693262 0.000000 0.554285
O O9 0.500000 0.325047 0.641872
O O10 0.750000 0.250000 0.629669
O O11 0.753901 0.358444 0.683907
O O12 0.500000 0.174206 0.730803
O O13 0.750000 0.250000 0.739486
O O14 0.734894 0.119488 0.774767
O O15 0.000000 0.909598 0.811912
O O16 0.779444 0.000000 0.823895
O O17 0.500000 0.907960 0.000000
O O18 0.278131 0.000000 0.000000
#
# Coordination Sequence:
#
# PCOD9493013 Si02
#       6
#    16  16  16  16  16   8
#     4  11  23  40  63  89 119 156 196 238 286 341
#     4   9  19  37  59  82 111 147 186 230 281 337
#     4  11  22  37  58  83 113 148 188 235 283 335
#     4  11  22  38  60  84 113 149 189 233 283 339
#     4  10  22  40  61  87 118 151 190 236 285 337
#     4  11  24  41  62  89 121 155 194 243 292 339
#
# _framework density 18.721433000000001
#
# number of rings (size 3 to 8) (size 9 to 14) (size 15 to 20)
#    0.000    1.545    0.000    7.091    0.000    6.545 
#    0.000    0.909    0.000    0.000    0.000    0.000 
#    0.000    0.000    0.000    0.000    0.000    0.000 
#
# Total GULP energy -245989.495806 kJ/mol
# GULP energy per Si atom -5590.670359 kJ/mol
# Density = 1.867882 g / cm^3
# Si number density = 18.721433 Si / 1000 Ang^3
#
#
#
# Elastic Constant Matrix: (Units=GPa)
#
#
# Indices 1 2 3 4 5 6 
#
# 1 112.5888 67.2670 91.8916 0.0000 0.0000 0.0000
# 2 67.2670 110.8990 91.0975 0.0000 0.0000 0.0000
# 3 91.8916 91.0975 182.2381 0.0000 0.0000 0.0000
# 4 0.0000 0.0000 0.0000 46.2735 0.0000 0.0000
# 5 0.0000 0.0000 0.0000 0.0000 10.1106 0.0000
# 6 0.0000 0.0000 0.0000 0.0000 0.0000 21.8423
#
#
#
# Elastic Compliance Matrix: (Units=1/GPa)
#
#
# Indices 1 2 3 4 5 6 
#
# 1 0.016866 -0.005505 -0.005753 0.000000 0.000000 0.000000
# 2 -0.005505 0.017096 -0.005770 0.000000 0.000000 0.000000
# 3 -0.005753 -0.005770 0.011273 0.000000 0.000000 0.000000
# 4 0.000000 0.000000 0.000000 0.021611 0.000000 0.000000
# 5 0.000000 0.000000 0.000000 0.000000 0.098906 0.000000
# 6 0.000000 0.000000 0.000000 0.000000 0.000000 0.045783
#
#
# Mechanical properties :
#
#
# Convention : Reuss Voigt Hill
#
# Bulk Modulus (GPa) = 89.45285 100.69315 95.07300
# Shear Modulus (GPa) = 20.05488 26.00994 23.03241
#
# Velocity S-wave (km/s) = 3.27651 3.73139 3.51133
# Velocity P-wave (km/s) = 7.88662 8.51270 8.20563
#
# Compressibility (1/GPa) = 0.01117907
#
# Stress axis : x y z
#
# Youngs Moduli (GPa) = 59.29128 58.49262 88.71015
#
# Poissons Ratio (x) = 0.32198 0.51033
# Poissons Ratio (y) = 0.32637 0.51190
# Poissons Ratio (z) = 0.34109 0.33753
#
# Static dielectric constant tensor:
#      x y z
#    x 1.626910 0.000000 0.000000 
#    y 0.000000 1.620870 0.000000 
#    z 0.000000 0.000000 1.629510 
# 
# From -- ./inp_files/67524.got.cif
#   From: 2010.05.17/outbox.cif.g08.bks.cpg/sg65_34_cif.got.tgz:67524.got - 2010.06.03 17:01:31.
