data_PCOD9493752
_publ_section_title
;
Structure prediction by ZEFSAII (Michael W. Deem and Ramdas Pophale) SiO2 
 PCOD9493752
Probable space group: C M M M
;
_chemical_formula_sum "Si O2"
_cell_formula_units_Z 88
_cell_length_a 15.110485
_cell_length_b 15.632463
_cell_length_c 20.971831
_cell_angle_alpha 90.000000
_cell_angle_beta 90.000000
_cell_angle_gamma 90.000000
_cell_volume 4953.842136
_symmetry_space_group_name_H-M "C M M M"
_symmetry_group_IT_number 65
_symmetry_cell_setting 'orthorhombic'
loop_
_space_group_symop_operation_xyz
x,y,z
-x,-y,z
x,-y,-z
-x,y,-z
-x,-y,-z
x,y,-z
-x,y,z
x,-y,z
1/2+x,1/2+y,z
1/2-x,1/2-y,z
1/2+x,1/2-y,-z
1/2-x,1/2+y,-z
1/2-x,1/2-y,-z
1/2+x,1/2+y,-z
1/2-x,1/2+y,z
1/2+x,1/2-y,z
loop_
_atom_site_type_symbol
_atom_site_label
_atom_site_fract_x
_atom_site_fract_y
_atom_site_fract_z
Si Si1 0.899465 0.403218 0.180612
Si Si2 0.901336 0.904326 0.133549
Si Si3 0.397291 0.396079 0.359708
Si Si4 0.731011 0.649870 0.244987
Si Si5 0.855006 0.733562 0.929152
Si Si6 0.607120 0.597589 0.500000
O O1 0.891785 0.500000 0.154948
O O2 0.826818 0.392767 0.235937
O O3 0.880725 0.333754 0.125433
O O4 0.000000 0.390539 0.203297
O O5 0.828941 0.885074 0.187121
O O6 0.896119 0.826517 0.084489
O O7 0.000000 0.902980 0.162591
O O8 0.887148 0.000000 0.107006
O O9 0.500000 0.370490 0.345985
O O10 0.397576 0.500000 0.360903
O O11 0.326237 0.367032 0.307862
O O12 0.371079 0.364522 0.430872
O O13 0.750000 0.750000 0.237600
O O14 0.750000 0.750000 0.926600
O O15 0.878881 0.703049 0.000000
O O16 0.641389 0.500000 0.500000
O O17 0.500000 0.592718 0.500000
#
# Coordination Sequence:
#
# PCOD9493752 Si02
#       6
#    16  16  16  16  16   8
#     4  11  23  39  58  77 103 144 189 231 270 312
#     4  11  22  37  59  83 108 138 172 219 281 340
#     4   9  17  31  55  85 114 144 179 221 271 325
#     4  12  22  35  53  79 111 144 180 224 275 318
#     4  11  23  40  60  82 108 139 176 222 278 336
#     4   7  12  26  49  80 115 145 175 215 264 320
#
# _framework density 17.76399
#
# number of rings (size 3 to 8) (size 9 to 14) (size 15 to 20)
#    0.000    1.545    3.636    3.818    0.000    4.364 
#    0.000    4.091    0.000    0.000    0.000    0.636 
#    0.000    3.636    0.000    0.000    0.000    0.545 
#
# Total GULP energy -245315.289115 kJ/mol
# GULP energy per Si atom -5575.347480 kJ/mol
# Density = 1.772356 g / cm^3
# Si number density = 17.763990 Si / 1000 Ang^3
#
#
#
# Elastic Constant Matrix: (Units=GPa)
#
#
# Indices 1 2 3 4 5 6 
#
# 1 123.9292 33.2637 47.2580 0.0000 0.0000 0.0000
# 2 33.2637 93.6029 17.4547 0.0000 0.0000 0.0000
# 3 47.2580 17.4547 90.5506 0.0000 0.0000 0.0000
# 4 0.0000 0.0000 0.0000 32.0303 0.0000 0.0000
# 5 0.0000 0.0000 0.0000 0.0000 20.7743 0.0000
# 6 0.0000 0.0000 0.0000 0.0000 0.0000 21.8215
#
#
#
# Elastic Compliance Matrix: (Units=1/GPa)
#
#
# Indices 1 2 3 4 5 6 
#
# 1 0.010776 -0.002884 -0.005068 0.000000 0.000000 0.000000
# 2 -0.002884 0.011854 -0.000780 0.000000 0.000000 0.000000
# 3 -0.005068 -0.000780 0.013839 0.000000 0.000000 0.000000
# 4 0.000000 0.000000 0.000000 0.031220 0.000000 0.000000
# 5 0.000000 0.000000 0.000000 0.000000 0.048136 0.000000
# 6 0.000000 0.000000 0.000000 0.000000 0.000000 0.045826
#
#
# Mechanical properties :
#
#
# Convention : Reuss Voigt Hill
#
# Bulk Modulus (GPa) = 52.61865 56.00394 54.31129
# Shear Modulus (GPa) = 26.96144 28.93233 27.94688
#
# Velocity S-wave (km/s) = 3.90007 4.04010 3.97070
# Velocity P-wave (km/s) = 7.06866 7.30468 7.18764
#
# Compressibility (1/GPa) = 0.01900467
#
# Stress axis : x y z
#
# Youngs Moduli (GPa) = 92.80010 84.36087 72.26098
#
# Poissons Ratio (x) = 0.24333 0.36621
# Poissons Ratio (y) = 0.26767 0.05634
# Poissons Ratio (z) = 0.47030 0.06577
#
# Static dielectric constant tensor:
#      x y z
#    x 1.634880 0.000000 0.000000 
#    y 0.000000 1.617020 0.000000 
#    z 0.000000 0.000000 1.625340 
# 
# From -- ./inp_files/62501.got.cif
#   From: 2010.05.17/outbox.cif.g08.bks.cpg/sg65_32_cif.got.tgz:62501.got - 2010.06.03 17:01:31.
