data_PCOD9493790
_publ_section_title
;
Structure prediction by ZEFSAII (Michael W. Deem and Ramdas Pophale) SiO2 
 PCOD9493790
Probable space group: C M M M
;
_chemical_formula_sum "Si O2"
_cell_formula_units_Z 112
_cell_length_a 24.777972
_cell_length_b 13.868497
_cell_length_c 14.372028
_cell_angle_alpha 90.000000
_cell_angle_beta 90.000000
_cell_angle_gamma 90.000000
_cell_volume 4938.706408
_symmetry_space_group_name_H-M "C M M M"
_symmetry_group_IT_number 65
_symmetry_cell_setting 'orthorhombic'
loop_
_space_group_symop_operation_xyz
x,y,z
-x,-y,z
x,-y,-z
-x,y,-z
-x,-y,-z
x,y,-z
-x,y,z
x,-y,z
1/2+x,1/2+y,z
1/2-x,1/2-y,z
1/2+x,1/2-y,-z
1/2-x,1/2+y,-z
1/2-x,1/2-y,-z
1/2+x,1/2+y,-z
1/2-x,1/2+y,z
1/2+x,1/2-y,z
loop_
_atom_site_type_symbol
_atom_site_label
_atom_site_fract_x
_atom_site_fract_y
_atom_site_fract_z
Si Si1 0.057211 0.889320 0.870423
Si Si2 0.087904 0.893931 0.342215
Si Si3 0.651598 0.750701 0.103651
Si Si4 0.061133 0.613627 0.196173
Si Si5 0.703904 0.612616 0.752159
Si Si6 0.795223 0.614070 0.602895
Si Si7 0.084428 0.315177 0.600798
O O1 0.060084 0.886548 0.758534
O O2 0.107555 0.833114 0.906186
O O3 0.000000 0.849244 0.899826
O O4 0.060364 0.000000 0.896638
O O5 0.151242 0.888401 0.314537
O O6 0.072373 0.798581 0.396408
O O7 0.076759 0.000000 0.382201
O O8 0.613262 0.832189 0.151734
O O9 0.693977 0.695640 0.170938
O O10 0.671107 0.779070 0.000000
O O11 0.067670 0.500000 0.181365
O O12 0.061863 0.636944 0.306293
O O13 0.000000 0.639972 0.162345
O O14 0.707939 0.500000 0.788081
O O15 0.754908 0.633136 0.686940
O O16 0.770662 0.631719 0.500000
O O17 0.808758 0.500000 0.607140
O O18 0.850870 0.671182 0.608631
O O19 0.068079 0.355496 0.500000
#
# Coordination Sequence:
#
# PCOD9493790 Si02
#       7
#    16  16  16  16  16  16  16
#     4   9  17  31  54  84 118 156 199 248 302 362
#     4   9  18  33  52  82 123 165 203 243 298 367
#     4  11  22  38  62  93 124 156 202 258 310 371
#     4  11  25  45  66  89 122 165 212 262 319 380
#     4   9  18  36  60  90 129 169 203 246 311 379
#     4   9  19  36  61  94 128 164 213 266 310 362
#     4  11  22  38  65  95 123 163 215 267 317 371
#
# _framework density 22.678004000000001
#
# number of rings (size 3 to 8) (size 9 to 14) (size 15 to 20)
#    0.000    2.143    2.857    2.143    0.000    5.143 
#    0.000    5.000    0.000    1.714    0.000    5.000 
#    0.000    0.000    0.000    0.000    0.000    0.000 
#
# Total GULP energy -312602.167660 kJ/mol
# GULP energy per Si atom -5582.181565 kJ/mol
# Density = 2.262639 g / cm^3
# Si number density = 22.678004 Si / 1000 Ang^3
#
#
#
# Elastic Constant Matrix: (Units=GPa)
#
#
# Indices 1 2 3 4 5 6 
#
# 1 81.6018 30.1768 35.5113 0.0000 0.0000 0.0000
# 2 30.1768 131.8780 54.2518 0.0000 0.0000 0.0000
# 3 35.5113 54.2518 123.5360 0.0000 0.0000 0.0000
# 4 0.0000 0.0000 0.0000 -15.0537 0.0000 0.0000
# 5 0.0000 0.0000 0.0000 0.0000 6.6671 0.0000
# 6 0.0000 0.0000 0.0000 0.0000 0.0000 26.2692
#
#
#
# Elastic Compliance Matrix: (Units=1/GPa)
#
#
# Indices 1 2 3 4 5 6 
#
# 1 0.014404 -0.001944 -0.003287 0.000000 0.000000 0.000000
# 2 -0.001944 0.009517 -0.003621 0.000000 0.000000 0.000000
# 3 -0.003287 -0.003621 0.010630 0.000000 0.000000 0.000000
# 4 0.000000 0.000000 0.000000 -0.066429 0.000000 0.000000
# 5 0.000000 0.000000 0.000000 0.000000 0.149990 0.000000
# 6 0.000000 0.000000 0.000000 0.000000 0.000000 0.038067
#
#
# Mechanical properties :
#
#
# Convention : Reuss Voigt Hill
#
# Bulk Modulus (GPa) = 59.35483 64.09953 61.72718
# Shear Modulus (GPa) = 27.85542 18.04824 22.95183
#
# Velocity S-wave (km/s) = 3.50852 2.82414 3.18476
# Velocity P-wave (km/s) = 6.53013 6.24186 6.38762
#
# Compressibility (1/GPa) = 0.01684783
#
# Stress axis : x y z
#
# Youngs Moduli (GPa) = 69.42602 105.07467 94.07598
#
# Poissons Ratio (x) = 0.20424 0.30921
# Poissons Ratio (y) = 0.13495 0.34062
# Poissons Ratio (z) = 0.22819 0.38045
#
# Static dielectric constant tensor:
#      x y z
#    x 1.843040 0.000000 0.000000 
#    y 0.000000 1.851930 0.000000 
#    z 0.000000 0.000000 1.927970 
# 
# From -- ./inp_files/47016.got.cif
#   From: 2010.05.17/outbox.cif.g08.bks.cpg/sg65_24_cif.got.tgz:47016.got - 2010.06.03 17:01:31.
