data_PCOD9493912
_publ_section_title
;
Structure prediction by ZEFSAII (Michael W. Deem and Ramdas Pophale) SiO2 
 PCOD9493912
Probable space group: C M M M
;
_chemical_formula_sum "Si O2"
_cell_formula_units_Z 88
_cell_length_a 15.352565
_cell_length_b 9.520691
_cell_length_c 29.016219
_cell_angle_alpha 90.000000
_cell_angle_beta 90.000000
_cell_angle_gamma 90.000000
_cell_volume 4241.214478
_symmetry_space_group_name_H-M "C M M M"
_symmetry_group_IT_number 65
_symmetry_cell_setting 'orthorhombic'
loop_
_space_group_symop_operation_xyz
x,y,z
-x,-y,z
x,-y,-z
-x,y,-z
-x,-y,-z
x,y,-z
-x,y,z
x,-y,z
1/2+x,1/2+y,z
1/2-x,1/2-y,z
1/2+x,1/2-y,-z
1/2-x,1/2+y,-z
1/2-x,1/2-y,-z
1/2+x,1/2+y,-z
1/2-x,1/2+y,z
1/2+x,1/2-y,z
loop_
_atom_site_type_symbol
_atom_site_label
_atom_site_fract_x
_atom_site_fract_y
_atom_site_fract_z
Si Si1 0.606601 0.162113 0.500000
Si Si2 0.393204 0.159438 0.321753
Si Si3 0.895359 0.660060 0.051623
Si Si4 0.101757 0.844557 0.760990
Si Si5 0.106498 0.838457 0.410459
Si Si6 0.836890 0.833884 0.138882
O O1 0.500000 0.159664 0.500000
O O2 0.633743 0.247218 0.454570
O O3 0.635503 0.000000 0.500000
O O4 0.500000 0.154031 0.322197
O O5 0.363233 0.227291 0.273503
O O6 0.367020 0.260060 0.363698
O O7 0.362691 0.000000 0.327628
O O8 0.864891 0.500000 0.061487
O O9 0.870514 0.766131 0.091683
O O10 0.000000 0.655452 0.050132
O O11 0.864749 0.698861 0.000000
O O12 0.106450 0.812224 0.815208
O O13 0.000000 0.855566 0.749144
O O14 0.141575 0.000000 0.753945
O O15 0.000000 0.841180 0.410792
O O16 0.135868 0.000000 0.412584
O O17 0.750000 0.750000 0.149771
O O18 0.824601 0.000000 0.132939
#
# Coordination Sequence:
#
# PCOD9493912 Si02
#       6
#     8  16  16  16  16  16
#     4   9  15  21  29  43  67 101 142 187 232 281
#     4   9  16  25  39  60  83 109 146 192 239 286
#     4   9  19  37  60  84 109 137 170 209 252 298
#     4   9  18  33  51  70  93 123 161 204 249 297
#     4   9  15  22  32  47  71 105 144 185 231 284
#     4  11  23  37  54  77 106 139 173 210 253 301
#
# _framework density 20.748774999999998
#
# number of rings (size 3 to 8) (size 9 to 14) (size 15 to 20)
#    0.000    2.636    0.000    3.000    0.000    8.727 
#    0.000    2.727    0.000    0.000    0.000    0.000 
#    0.000    0.000    0.000    0.818    0.000   12.000 
#
# Total GULP energy -245492.146143 kJ/mol
# GULP energy per Si atom -5579.366958 kJ/mol
# Density = 2.070155 g / cm^3
# Si number density = 20.748775 Si / 1000 Ang^3
#
#
#
# Elastic Constant Matrix: (Units=GPa)
#
#
# Indices 1 2 3 4 5 6 
#
# 1 15.1272 9.6254 -4.2592 0.0000 0.0000 0.0000
# 2 9.6254 196.3201 119.4514 0.0000 0.0000 0.0000
# 3 -4.2592 119.4514 147.5941 0.0000 0.0000 0.0000
# 4 0.0000 0.0000 0.0000 38.7362 0.0000 0.0000
# 5 0.0000 0.0000 0.0000 0.0000 -25.6095 0.0000
# 6 0.0000 0.0000 0.0000 0.0000 0.0000 11.6362
#
#
#
# Elastic Compliance Matrix: (Units=1/GPa)
#
#
# Indices 1 2 3 4 5 6 
#
# 1 0.075248 -0.009872 0.010161 0.000000 0.000000 0.000000
# 2 -0.009872 0.011331 -0.009455 0.000000 0.000000 0.000000
# 3 0.010161 -0.009455 0.014721 0.000000 0.000000 0.000000
# 4 0.000000 0.000000 0.000000 0.025816 0.000000 0.000000
# 5 0.000000 0.000000 0.000000 0.000000 -0.039048 0.000000
# 6 0.000000 0.000000 0.000000 0.000000 0.000000 0.085939
#
#
# Mechanical properties :
#
#
# Convention : Reuss Voigt Hill
#
# Bulk Modulus (GPa) = 12.05287 67.63072 39.84180
# Shear Modulus (GPa) = 22.72796 20.56752 21.64774
#
# Velocity S-wave (km/s) = 3.31326 3.15185 3.23356
# Velocity P-wave (km/s) = 4.52310 6.77579 5.76063
#
# Compressibility (1/GPa) = 0.08296776
#
# Stress axis : x y z
#
# Youngs Moduli (GPa) = 13.28937 88.25611 67.93137
#
# Poissons Ratio (x) = 0.87124 -0.69025
# Poissons Ratio (y) = 0.13119 0.64229
# Poissons Ratio (z) = -0.13503 0.83447
#
# Static dielectric constant tensor:
#      x y z
#    x 1.800760 0.000000 0.000000 
#    y 0.000000 1.720360 0.000000 
#    z 0.000000 0.000000 1.754590 
# 
# From -- ./inp_files/75382.got.cif
#   From: 2010.05.17/outbox.cif.g08.bks.cpg/sg65_38_cif.got.tgz:75382.got - 2010.06.03 17:01:31.
