data_PCOD9493767
_publ_section_title
;
Structure prediction by ZEFSAII (Michael W. Deem and Ramdas Pophale) SiO2 
 PCOD9493767
Probable space group: C M M M
;
_chemical_formula_sum "Si O2"
_cell_formula_units_Z 52
_cell_length_a 16.915509
_cell_length_b 7.284659
_cell_length_c 18.379017
_cell_angle_alpha 90.000000
_cell_angle_beta 90.000000
_cell_angle_gamma 90.000000
_cell_volume 2264.730751
_symmetry_space_group_name_H-M "C M M M"
_symmetry_group_IT_number 65
_symmetry_cell_setting 'orthorhombic'
loop_
_space_group_symop_operation_xyz
x,y,z
-x,-y,z
x,-y,-z
-x,y,-z
-x,-y,-z
x,y,-z
-x,y,z
x,-y,z
1/2+x,1/2+y,z
1/2-x,1/2-y,z
1/2+x,1/2-y,-z
1/2-x,1/2+y,-z
1/2-x,1/2-y,-z
1/2+x,1/2+y,-z
1/2-x,1/2+y,z
1/2+x,1/2-y,z
loop_
_atom_site_type_symbol
_atom_site_label
_atom_site_fract_x
_atom_site_fract_y
_atom_site_fract_z
Si Si1 0.410124 0.277208 0.767922
Si Si2 0.841761 0.783359 0.384045
Si Si3 0.898600 0.500000 0.500000
Si Si4 0.843978 0.781258 0.079290
O O1 0.500000 0.222080 0.753175
O O2 0.408233 0.500000 0.770806
O O3 0.355777 0.226803 0.699753
O O4 0.382807 0.210050 0.846939
O O5 0.750000 0.750000 0.403998
O O6 0.893451 0.659691 0.436772
O O7 0.858713 0.000000 0.391528
O O8 0.750000 0.750000 0.083893
O O9 0.857635 0.000000 0.078286
O O10 0.870836 0.710714 0.000000
#
# Coordination Sequence:
#
# PCOD9493767 Si02
#       4
#    16  16   4  16
#     4   9  19  36  55  80 116 154 192 231 282 343
#     4  11  22  37  62  88 116 150 188 242 295 345
#     4  12  24  40  63  92 115 142 194 246 294 352
#     4   9  17  31  55  84 114 148 189 236 282 330
#
# _framework density 22.960785999999999
#
# number of rings (size 3 to 8) (size 9 to 14) (size 15 to 20)
#    0.000    2.154    1.538    1.846    0.000    0.615 
#    2.769    5.385    0.000    3.692    0.000    4.308 
#    0.000    0.000    0.000    0.000    0.000    0.000 
#
# Total GULP energy -144781.026743 kJ/mol
# GULP energy per Si atom -5568.501029 kJ/mol
# Density = 2.290853 g / cm^3
# Si number density = 22.960786 Si / 1000 Ang^3
#
#
#
# Elastic Constant Matrix: (Units=GPa)
#
#
# Indices 1 2 3 4 5 6 
#
# 1 32.4909 -3.2297 14.3687 0.0000 0.0000 0.0000
# 2 -3.2297 147.8680 44.8672 0.0000 0.0000 0.0000
# 3 14.3687 44.8672 177.2870 0.0000 0.0000 0.0000
# 4 0.0000 0.0000 0.0000 1133.9436 0.0000 0.0000
# 5 0.0000 0.0000 0.0000 0.0000 -128.6659 0.0000
# 6 0.0000 0.0000 0.0000 0.0000 0.0000 -2.5112
#
#
#
# Elastic Compliance Matrix: (Units=1/GPa)
#
#
# Indices 1 2 3 4 5 6 
#
# 1 0.032278 0.001623 -0.003027 0.000000 0.000000 0.000000
# 2 0.001623 0.007407 -0.002006 0.000000 0.000000 0.000000
# 3 -0.003027 -0.002006 0.006394 0.000000 0.000000 0.000000
# 4 0.000000 0.000000 0.000000 0.000882 0.000000 0.000000
# 5 0.000000 0.000000 0.000000 0.000000 -0.007772 0.000000
# 6 0.000000 0.000000 0.000000 0.000000 0.000000 -0.398218
#
#
# Mechanical properties :
#
#
# Convention : Reuss Voigt Hill
#
# Bulk Modulus (GPa) = 25.47168 52.18425 38.82797
# Shear Modulus (GPa) = -14.74385 220.66263 102.95939
#
# Velocity S-wave (km/s) = -2.53678 9.81391 6.70364
# Velocity P-wave (km/s) = 1.59289 12.29609 8.76730
#
# Compressibility (1/GPa) = 0.03925928
#
# Stress axis : x y z
#
# Youngs Moduli (GPa) = 30.98101 135.00823 156.40664
#
# Poissons Ratio (x) = -0.21918 0.47343
# Poissons Ratio (y) = -0.05030 0.31377
# Poissons Ratio (z) = 0.09378 0.27084
#
# Static dielectric constant tensor:
#      x y z
#    x 1.845500 0.000000 0.000000 
#    y 0.000000 1.855350 0.000000 
#    z 0.000000 0.000000 1.842480 
# 
# From -- ./inp_files/35286.got.cif
#   From: 2010.05.17/outbox.cif.g08.bks.cpg/sg65_18_cif.got.tgz:35286.got - 2010.06.03 17:01:31.
