data_PCOD9493765
_publ_section_title
;
Structure prediction by ZEFSAII (Michael W. Deem and Ramdas Pophale) SiO2 
 PCOD9493765
Probable space group: C M M M
;
_chemical_formula_sum "Si O2"
_cell_formula_units_Z 88
_cell_length_a 17.639214
_cell_length_b 10.091239
_cell_length_c 27.825893
_cell_angle_alpha 90.000000
_cell_angle_beta 90.000000
_cell_angle_gamma 90.000000
_cell_volume 4953.051368
_symmetry_space_group_name_H-M "C M M M"
_symmetry_group_IT_number 65
_symmetry_cell_setting 'orthorhombic'
loop_
_space_group_symop_operation_xyz
x,y,z
-x,-y,z
x,-y,-z
-x,y,-z
-x,-y,-z
x,y,-z
-x,y,z
x,-y,z
1/2+x,1/2+y,z
1/2-x,1/2-y,z
1/2+x,1/2-y,-z
1/2-x,1/2+y,-z
1/2-x,1/2-y,-z
1/2+x,1/2+y,-z
1/2-x,1/2+y,z
1/2+x,1/2-y,z
loop_
_atom_site_type_symbol
_atom_site_label
_atom_site_fract_x
_atom_site_fract_y
_atom_site_fract_z
Si Si1 0.907370 0.846683 0.500000
Si Si2 0.341393 0.245388 0.890818
Si Si3 0.087084 0.500000 0.057133
Si Si4 0.591161 0.151395 0.584678
Si Si5 0.908729 0.000000 0.943174
Si Si6 0.821975 0.345876 0.682794
Si Si7 0.674965 0.841816 0.211096
O O1 0.883240 0.761800 0.453447
O O2 0.000000 0.848131 0.500000
O O3 0.882360 0.000000 0.500000
O O4 0.250000 0.250000 0.890543
O O5 0.369735 0.126144 0.923224
O O6 0.375711 0.375104 0.914741
O O7 0.366733 0.213916 0.835972
O O8 0.000000 0.500000 0.074078
O O9 0.086576 0.500000 0.000000
O O10 0.500000 0.155377 0.586181
O O11 0.623952 0.176456 0.637554
O O12 0.612411 0.000000 0.570253
O O13 0.000000 0.000000 0.941439
O O14 0.887126 0.000000 0.000000
O O15 0.796862 0.500000 0.681230
O O16 0.750000 0.250000 0.679046
O O17 0.859731 0.328569 0.735548
O O18 0.750000 0.750000 0.213936
O O19 0.690807 0.000000 0.203213
#
# Coordination Sequence:
#
# PCOD9493765 Si02
#       7
#     8  16   8  16   8  16  16
#     4   9  17  29  48  73 102 137 175 219 270 317
#     4  11  22  37  61  87 109 140 189 237 270 318
#     4  11  23  39  57  81 115 149 179 220 281 338
#     4   9  17  31  51  74 102 136 177 220 262 311
#     4  11  25  43  59  79 115 155 181 216 283 348
#     4   9  18  33  53  78 106 140 176 212 262 320
#     4   9  18  33  55  83 110 139 176 222 272 318
#
# _framework density 17.766825999999998
#
# number of rings (size 3 to 8) (size 9 to 14) (size 15 to 20)
#    0.000    2.273    0.909    1.909    3.818    5.455 
#    0.000    2.273    0.000    0.000    0.000    0.000 
#    0.000    0.000    0.000    0.000    0.000    0.000 
#
# Total GULP energy -245137.705903 kJ/mol
# GULP energy per Si atom -5571.311498 kJ/mol
# Density = 1.772639 g / cm^3
# Si number density = 17.766826 Si / 1000 Ang^3
#
#
#
# Elastic Constant Matrix: (Units=GPa)
#
#
# Indices 1 2 3 4 5 6 
#
# 1 34.0104 31.9580 34.0088 0.0000 0.0000 0.0000
# 2 31.9580 153.5284 95.2541 0.0000 0.0000 0.0000
# 3 34.0088 95.2541 166.7458 0.0000 0.0000 0.0000
# 4 0.0000 0.0000 0.0000 32.3910 0.0000 0.0000
# 5 0.0000 0.0000 0.0000 0.0000 32.1836 0.0000
# 6 0.0000 0.0000 0.0000 0.0000 0.0000 -5.6725
#
#
#
# Elastic Compliance Matrix: (Units=1/GPa)
#
#
# Indices 1 2 3 4 5 6 
#
# 1 0.039231 -0.004960 -0.005168 0.000000 0.000000 0.000000
# 2 -0.004960 0.010716 -0.005110 0.000000 0.000000 0.000000
# 3 -0.005168 -0.005110 0.009970 0.000000 0.000000 0.000000
# 4 0.000000 0.000000 0.000000 0.030873 0.000000 0.000000
# 5 0.000000 0.000000 0.000000 0.000000 0.031072 0.000000
# 6 0.000000 0.000000 0.000000 0.000000 0.000000 -0.176290
#
#
# Mechanical properties :
#
#
# Convention : Reuss Voigt Hill
#
# Bulk Modulus (GPa) = 33.96537 75.19183 54.57860
# Shear Modulus (GPa) = -353.66039 24.65136 -164.50451
#
# Velocity S-wave (km/s) = -14.12405 3.72895 -9.63285
# Velocity P-wave (km/s) = 15.71070 7.80727 9.64035
#
# Compressibility (1/GPa) = 0.02944175
#
# Stress axis : x y z
#
# Youngs Moduli (GPa) = 25.48998 93.31493 100.29642
#
# Poissons Ratio (x) = 0.46282 0.51835
# Poissons Ratio (y) = 0.12642 0.51254
# Poissons Ratio (z) = 0.13174 0.47686
#
# Static dielectric constant tensor:
#      x y z
#    x 1.577710 0.000000 0.000000 
#    y 0.000000 1.587850 0.000000 
#    z 0.000000 0.000000 1.634420 
# 
# From -- ./inp_files/78002.got.cif
#   From: 2010.05.17/outbox.cif.g08.bks.cpg/sg65_40_cif.got.tgz:78002.got - 2010.06.03 17:01:31.
