data_PCOD9493169
_publ_section_title
;
Structure prediction by ZEFSAII (Michael W. Deem and Ramdas Pophale) SiO2 
 PCOD9493169
Probable space group: C M M M
;
_chemical_formula_sum "Si O2"
_cell_formula_units_Z 48
_cell_length_a 15.172260
_cell_length_b 8.697123
_cell_length_c 19.405659
_cell_angle_alpha 90.000000
_cell_angle_beta 90.000000
_cell_angle_gamma 90.000000
_cell_volume 2560.673955
_symmetry_space_group_name_H-M "C M M M"
_symmetry_group_IT_number 65
_symmetry_cell_setting 'orthorhombic'
loop_
_space_group_symop_operation_xyz
x,y,z
-x,-y,z
x,-y,-z
-x,y,-z
-x,-y,-z
x,y,-z
-x,y,z
x,-y,z
1/2+x,1/2+y,z
1/2-x,1/2-y,z
1/2+x,1/2-y,-z
1/2-x,1/2+y,-z
1/2-x,1/2-y,-z
1/2+x,1/2+y,-z
1/2-x,1/2+y,z
1/2+x,1/2-y,z
loop_
_atom_site_type_symbol
_atom_site_label
_atom_site_fract_x
_atom_site_fract_y
_atom_site_fract_z
Si Si1 0.605887 0.176108 0.000000
Si Si2 0.657635 0.683044 0.146163
Si Si3 0.648868 0.685879 0.500000
Si Si4 0.000000 0.315808 0.400196
Si Si5 0.000000 0.814204 0.247765
O O1 0.637375 0.255521 0.930213
O O2 0.500000 0.178641 0.000000
O O3 0.636986 0.000000 0.000000
O O4 0.660391 0.500000 0.142764
O O5 0.750000 0.750000 0.169253
O O6 0.583280 0.727729 0.200661
O O7 0.651786 0.500000 0.500000
O O8 0.750000 0.750000 0.500000
O O9 0.587968 0.745757 0.436350
O O10 0.000000 0.500000 0.409594
O O11 0.000000 0.269185 0.320552
O O12 0.000000 0.000000 0.258294
#
# Coordination Sequence:
#
# PCOD9493169 Si02
#       5
#     8  16   8   8   8
#     4  11  22  37  60  86 114 150 198 253 305 361
#     4  11  23  40  61  85 116 155 201 250 303 360
#     4  11  22  41  68  96 128 163 204 249 294 352
#     4  11  23  40  64  95 129 164 202 247 299 358
#     4  10  23  42  61  84 121 164 201 246 301 358
#
# _framework density 18.745065
#
# number of rings (size 3 to 8) (size 9 to 14) (size 15 to 20)
#    0.000    1.167    1.667    6.000    0.000    4.667 
#    0.000    3.333    0.000    0.000    0.000    0.000 
#    0.000    0.000    0.000    0.000    0.000    0.000 
#
# Total GULP energy -134142.164745 kJ/mol
# GULP energy per Si atom -5589.256864 kJ/mol
# Density = 1.870240 g / cm^3
# Si number density = 18.745065 Si / 1000 Ang^3
#
#
#
# Elastic Constant Matrix: (Units=GPa)
#
#
# Indices 1 2 3 4 5 6 
#
# 1 190.4893 81.6619 95.2899 0.0000 0.0000 0.0000
# 2 81.6619 124.4181 76.9537 0.0000 0.0000 0.0000
# 3 95.2899 76.9537 166.8482 0.0000 0.0000 0.0000
# 4 0.0000 0.0000 0.0000 -4.4796 0.0000 0.0000
# 5 0.0000 0.0000 0.0000 0.0000 135.5396 0.0000
# 6 0.0000 0.0000 0.0000 0.0000 0.0000 32.8767
#
#
#
# Elastic Compliance Matrix: (Units=1/GPa)
#
#
# Indices 1 2 3 4 5 6 
#
# 1 0.008328 -0.003532 -0.003127 0.000000 0.000000 0.000000
# 2 -0.003532 0.012743 -0.003860 0.000000 0.000000 0.000000
# 3 -0.003127 -0.003860 0.009560 0.000000 0.000000 0.000000
# 4 0.000000 0.000000 0.000000 -0.223234 0.000000 0.000000
# 5 0.000000 0.000000 0.000000 0.000000 0.007378 0.000000
# 6 0.000000 0.000000 0.000000 0.000000 0.000000 0.030417
#
#
# Mechanical properties :
#
#
# Convention : Reuss Voigt Hill
#
# Bulk Modulus (GPa) = 104.25074 109.95183 107.10129
# Shear Modulus (GPa) = -38.29308 47.97735 4.84213
#
# Velocity S-wave (km/s) = -4.52468 5.06460 1.60896
# Velocity P-wave (km/s) = 5.33281 9.64282 7.79175
#
# Compressibility (1/GPa) = 0.00959226
#
# Stress axis : x y z
#
# Youngs Moduli (GPa) = 120.07413 78.47323 104.60225
#
# Poissons Ratio (x) = 0.27716 0.32713
# Poissons Ratio (y) = 0.42409 0.40379
# Poissons Ratio (z) = 0.37552 0.30293
#
# Static dielectric constant tensor:
#      x y z
#    x 1.644630 0.000000 0.000000 
#    y 0.000000 1.639820 0.000000 
#    z 0.000000 0.000000 1.619210 
# 
# From -- ./inp_files/48495.got.cif
#   From: 2010.05.17/outbox.cif.g08.bks.cpg/sg65_25_cif.got.tgz:48495.got - 2010.06.03 17:01:31.
