data_PCOD9493897
_publ_section_title
;
Structure prediction by ZEFSAII (Michael W. Deem and Ramdas Pophale) SiO2 
 PCOD9493897
Probable space group: C M M M
;
_chemical_formula_sum "Si O2"
_cell_formula_units_Z 104
_cell_length_a 19.142602
_cell_length_b 7.849284
_cell_length_c 35.565316
_cell_angle_alpha 90.000000
_cell_angle_beta 90.000000
_cell_angle_gamma 90.000000
_cell_volume 5343.892148
_symmetry_space_group_name_H-M "C M M M"
_symmetry_group_IT_number 65
_symmetry_cell_setting 'orthorhombic'
loop_
_space_group_symop_operation_xyz
x,y,z
-x,-y,z
x,-y,-z
-x,y,-z
-x,-y,-z
x,y,-z
-x,y,z
x,-y,z
1/2+x,1/2+y,z
1/2-x,1/2-y,z
1/2+x,1/2-y,-z
1/2-x,1/2+y,-z
1/2-x,1/2-y,-z
1/2+x,1/2+y,-z
1/2-x,1/2+y,z
1/2+x,1/2-y,z
loop_
_atom_site_type_symbol
_atom_site_label
_atom_site_fract_x
_atom_site_fract_y
_atom_site_fract_z
Si Si1 0.918382 0.704785 0.805412
Si Si2 0.331193 0.794595 0.958370
Si Si3 0.081546 0.708214 0.887282
Si Si4 0.585037 0.196595 0.500000
Si Si5 0.169087 0.797465 0.346168
Si Si6 0.080050 0.203820 0.276117
Si Si7 0.420335 0.205195 0.418451
O O1 0.916733 0.500000 0.805402
O O2 0.890527 0.762857 0.846083
O O3 0.889221 0.762403 0.765410
O O4 0.000000 0.758568 0.805047
O O5 0.250000 0.750000 0.953740
O O6 0.375468 0.729777 0.923114
O O7 0.337373 0.000000 0.958612
O O8 0.353442 0.733300 0.000000
O O9 0.083519 0.500000 0.887517
O O10 0.000000 0.755677 0.890251
O O11 0.500000 0.193554 0.500000
O O12 0.604083 0.272528 0.540569
O O13 0.609690 0.000000 0.500000
O O14 0.250000 0.750000 0.345976
O O15 0.127155 0.727300 0.309965
O O16 0.130259 0.745401 0.384329
O O17 0.165253 0.000000 0.344012
O O18 0.000000 0.271239 0.278047
O O19 0.075564 0.000000 0.280023
O O20 0.500000 0.265599 0.411019
O O21 0.423906 0.000000 0.421946
#
# Coordination Sequence:
#
# PCOD9493897 Si02
#       7
#    16  16  16   8  16  16  16
#     4   8  14  26  46  70  93 117 147 186 230 276
#     4   9  17  29  45  64  88 120 154 187 225 270
#     4   8  14  26  45  69  93 115 146 190 232 268
#     4   7  12  26  50  79 106 129 157 197 240 281
#     4  11  23  37  51  70 100 134 167 205 248 289
#     4   9  18  33  52  72  94 121 154 194 239 286
#     4   9  17  32  56  82 105 131 164 200 240 289
#
# _framework density 19.461469999999998
#
# number of rings (size 3 to 8) (size 9 to 14) (size 15 to 20)
#    0.000    3.154    0.000    2.769    0.000    2.462 
#    0.000    5.385    0.000    6.462    0.000    2.154 
#    0.000    0.000    0.000    0.000    0.000    0.000 
#
# Total GULP energy -289616.231475 kJ/mol
# GULP energy per Si atom -5569.542913 kJ/mol
# Density = 1.941718 g / cm^3
# Si number density = 19.461470 Si / 1000 Ang^3
#
#
#
# Elastic Constant Matrix: (Units=GPa)
#
#
# Indices 1 2 3 4 5 6 
#
# 1 74.0649 3.7678 98.0864 0.0000 0.0000 0.0000
# 2 3.7678 20.6310 12.3724 0.0000 0.0000 0.0000
# 3 98.0864 12.3724 250.6112 0.0000 0.0000 0.0000
# 4 0.0000 0.0000 0.0000 -26.2563 0.0000 0.0000
# 5 0.0000 0.0000 0.0000 0.0000 -12.1869 0.0000
# 6 0.0000 0.0000 0.0000 0.0000 0.0000 -0.6389
#
#
#
# Elastic Compliance Matrix: (Units=1/GPa)
#
#
# Indices 1 2 3 4 5 6 
#
# 1 0.028076 0.001507 -0.011063 0.000000 0.000000 0.000000
# 2 0.001507 0.050031 -0.003060 0.000000 0.000000 0.000000
# 3 -0.011063 -0.003060 0.008471 0.000000 0.000000 0.000000
# 4 0.000000 0.000000 0.000000 -0.038086 0.000000 0.000000
# 5 0.000000 0.000000 0.000000 0.000000 -0.082055 0.000000
# 6 0.000000 0.000000 0.000000 0.000000 0.000000 -1.565092
#
#
# Mechanical properties :
#
#
# Convention : Reuss Voigt Hill
#
# Bulk Modulus (GPa) = 16.30092 63.75116 40.02604
# Shear Modulus (GPa) = -3.21963 7.58893 2.18465
#
# Velocity S-wave (km/s) = -1.28761 1.97685 1.06065
# Velocity P-wave (km/s) = 2.48668 6.16760 4.70228
#
# Compressibility (1/GPa) = 0.06134623
#
# Stress axis : x y z
#
# Youngs Moduli (GPa) = 35.61731 19.98780 118.04587
#
# Poissons Ratio (x) = -0.03012 1.30596
# Poissons Ratio (y) = -0.05367 0.36119
# Poissons Ratio (z) = 0.39404 0.06116
#
# Static dielectric constant tensor:
#      x y z
#    x 1.621890 0.000000 0.000000 
#    y 0.000000 1.709210 0.000000 
#    z 0.000000 0.000000 1.741990 
# 
# From -- ./inp_files/78171.got.cif
#   From: 2010.05.17/outbox.cif.g08.bks.cpg/sg65_40_cif.got.tgz:78171.got - 2010.06.03 17:01:31.
