data_PCOD9493525
_publ_section_title
;
Structure prediction by ZEFSAII (Michael W. Deem and Ramdas Pophale) SiO2 
 PCOD9493525
Probable space group: C M M M
;
_chemical_formula_sum "Si O2"
_cell_formula_units_Z 72
_cell_length_a 24.355666
_cell_length_b 18.129596
_cell_length_c 8.602849
_cell_angle_alpha 90.000000
_cell_angle_beta 90.000000
_cell_angle_gamma 90.000000
_cell_volume 3798.660110
_symmetry_space_group_name_H-M "C M M M"
_symmetry_group_IT_number 65
_symmetry_cell_setting 'orthorhombic'
loop_
_space_group_symop_operation_xyz
x,y,z
-x,-y,z
x,-y,-z
-x,y,-z
-x,-y,-z
x,y,-z
-x,y,z
x,-y,z
1/2+x,1/2+y,z
1/2-x,1/2-y,z
1/2+x,1/2-y,-z
1/2-x,1/2+y,-z
1/2-x,1/2-y,-z
1/2+x,1/2+y,-z
1/2-x,1/2+y,z
1/2+x,1/2-y,z
loop_
_atom_site_type_symbol
_atom_site_label
_atom_site_fract_x
_atom_site_fract_y
_atom_site_fract_z
Si Si1 0.242145 0.085434 0.688987
Si Si2 0.365661 0.913540 0.312635
Si Si3 0.064468 0.000000 0.186638
Si Si4 0.563095 0.783750 0.185758
Si Si5 0.627127 0.356640 0.686746
O O1 0.242795 0.085918 0.500000
O O2 0.303466 0.107423 0.737868
O O3 0.190495 0.133841 0.739370
O O4 0.232853 0.000000 0.735499
O O5 0.368388 0.906263 0.500000
O O6 0.409790 0.860327 0.237310
O O7 0.373529 0.000000 0.275911
O O8 0.093795 0.072524 0.252897
O O9 0.000000 0.000000 0.227962
O O10 0.068779 0.000000 0.000000
O O11 0.500000 0.778242 0.239718
O O12 0.598808 0.717185 0.253918
O O13 0.563468 0.778300 0.000000
O O14 0.626500 0.357187 0.500000
#
# Coordination Sequence:
#
# PCOD9493525 Si02
#       5
#    16  16   8  16  16
#     4   8  15  32  58  88 118 144 179 231 289 338
#     4   9  19  38  65  90 112 143 186 236 288 347
#     4  11  23  37  53  79 119 161 196 233 284 337
#     4  11  25  42  56  77 117 159 192 236 293 344
#     4  11  21  36  61  87 113 150 197 241 279 333
#
# _framework density 18.954052000000001
#
# number of rings (size 3 to 8) (size 9 to 14) (size 15 to 20)
#    0.000    2.111    1.111    3.667    0.000    7.111 
#    0.000    8.889    0.000    0.000    0.000    0.000 
#    0.000    0.000    0.000    0.000    0.000    0.000 
#
# Total GULP energy -201013.810846 kJ/mol
# GULP energy per Si atom -5583.716968 kJ/mol
# Density = 1.891091 g / cm^3
# Si number density = 18.954052 Si / 1000 Ang^3
#
#
#
# Elastic Constant Matrix: (Units=GPa)
#
#
# Indices 1 2 3 4 5 6 
#
# 1 70.5475 28.6663 9.8442 0.0000 0.0000 0.0000
# 2 28.6663 63.0179 17.4771 0.0000 0.0000 0.0000
# 3 9.8442 17.4771 24.5488 0.0000 0.0000 0.0000
# 4 0.0000 0.0000 0.0000 95.0861 0.0000 0.0000
# 5 0.0000 0.0000 0.0000 0.0000 51.7310 0.0000
# 6 0.0000 0.0000 0.0000 0.0000 0.0000 12.3230
#
#
#
# Elastic Compliance Matrix: (Units=1/GPa)
#
#
# Indices 1 2 3 4 5 6 
#
# 1 0.017444 -0.007470 -0.001677 0.000000 0.000000 0.000000
# 2 -0.007470 0.022971 -0.013359 0.000000 0.000000 0.000000
# 3 -0.001677 -0.013359 0.050918 0.000000 0.000000 0.000000
# 4 0.000000 0.000000 0.000000 0.010517 0.000000 0.000000
# 5 0.000000 0.000000 0.000000 0.000000 0.019331 0.000000
# 6 0.000000 0.000000 0.000000 0.000000 0.000000 0.081149
#
#
# Mechanical properties :
#
#
# Convention : Reuss Voigt Hill
#
# Bulk Modulus (GPa) = 21.58786 30.00994 25.79890
# Shear Modulus (GPa) = 19.02716 38.63648 28.83182
#
# Velocity S-wave (km/s) = 3.17181 4.51979 3.90441
# Velocity P-wave (km/s) = 4.98278 6.56547 5.82810
#
# Compressibility (1/GPa) = 0.04632233
#
# Stress axis : x y z
#
# Youngs Moduli (GPa) = 57.32532 43.53235 19.63942
#
# Poissons Ratio (x) = 0.32519 0.03294
# Poissons Ratio (y) = 0.42823 0.26235
# Poissons Ratio (z) = 0.09614 0.58153
#
# Static dielectric constant tensor:
#      x y z
#    x 1.668570 0.000000 0.000000 
#    y 0.000000 1.623060 0.000000 
#    z 0.000000 0.000000 1.644850 
# 
# From -- ./inp_files/13582.got.cif
#   From: 2010.05.17/outbox.cif.g08.bks.cpg/sg65_7_cif.got.tgz:13582.got - 2010.06.03 17:01:31.
