data_PCOD9493170
_publ_section_title
;
Structure prediction by ZEFSAII (Michael W. Deem and Ramdas Pophale) SiO2 
 PCOD9493170
Probable space group: C M M M
;
_chemical_formula_sum "Si O2"
_cell_formula_units_Z 96
_cell_length_a 16.451739
_cell_length_b 18.675700
_cell_length_c 14.794839
_cell_angle_alpha 90.000000
_cell_angle_beta 90.000000
_cell_angle_gamma 90.000000
_cell_volume 4545.680877
_symmetry_space_group_name_H-M "C M M M"
_symmetry_group_IT_number 65
_symmetry_cell_setting 'orthorhombic'
loop_
_space_group_symop_operation_xyz
x,y,z
-x,-y,z
x,-y,-z
-x,y,-z
-x,-y,-z
x,y,-z
-x,y,z
x,-y,z
1/2+x,1/2+y,z
1/2-x,1/2-y,z
1/2+x,1/2-y,-z
1/2-x,1/2+y,-z
1/2-x,1/2-y,-z
1/2+x,1/2+y,-z
1/2-x,1/2+y,z
1/2+x,1/2-y,z
loop_
_atom_site_type_symbol
_atom_site_label
_atom_site_fract_x
_atom_site_fract_y
_atom_site_fract_z
Si Si1 0.326180 0.080528 0.108372
Si Si2 0.500000 0.917483 0.156101
Si Si3 0.328432 0.415820 0.392497
Si Si4 0.662775 0.830467 0.398744
Si Si5 0.187474 0.183947 0.103617
Si Si6 0.593839 0.706590 0.719495
Si Si7 0.500000 0.081644 0.371284
O O1 0.413826 0.115751 0.128039
O O2 0.245784 0.120453 0.139296
O O3 0.328651 0.000000 0.145996
O O4 0.320110 0.077813 0.000000
O O5 0.500000 0.920140 0.262945
O O6 0.500000 0.000000 0.118286
O O7 0.346594 0.409334 0.500000
O O8 0.329553 0.500000 0.369603
O O9 0.239032 0.381305 0.378580
O O10 0.388464 0.367111 0.333645
O O11 0.672967 0.799877 0.500000
O O12 0.649354 0.767370 0.327242
O O13 0.581186 0.877525 0.399077
O O14 0.250000 0.250000 0.100150
O O15 0.118331 0.197919 0.176267
O O16 0.160152 0.170576 0.000000
O O17 0.500000 0.727600 0.709502
O O18 0.500000 0.000000 0.402475
#
# Coordination Sequence:
#
# PCOD9493170 Si02
#       7
#    16   8  16  16  16  16   8
#     4   9  18  35  60  88 121 162 205 253 310 370
#     4   9  19  31  53  93 131 160 195 242 300 371
#     4  10  23  43  68  97 129 168 215 267 319 374
#     4  11  23  42  66  94 129 168 212 261 317 382
#     4  10  23  42  62  89 124 165 212 261 314 373
#     4  12  26  42  66  95 127 170 216 265 323 381
#     4  11  23  35  57  97 138 173 204 245 311 385
#
# _framework density 21.118948
#
# number of rings (size 3 to 8) (size 9 to 14) (size 15 to 20)
#    0.000    1.667    0.833    3.000    4.667    6.000 
#    0.000    0.833    0.000    0.000    0.000    3.500 
#    0.000    0.000    0.000    0.000    0.000    0.000 
#
# Total GULP energy -268367.695552 kJ/mol
# GULP energy per Si atom -5590.993657 kJ/mol
# Density = 2.107088 g / cm^3
# Si number density = 21.118948 Si / 1000 Ang^3
#
#
#
# Elastic Constant Matrix: (Units=GPa)
#
#
# Indices 1 2 3 4 5 6 
#
# 1 48.3070 11.2016 18.5889 0.0000 0.0000 0.0000
# 2 11.2016 87.5434 31.1213 0.0000 0.0000 0.0000
# 3 18.5889 31.1213 89.7679 0.0000 0.0000 0.0000
# 4 0.0000 0.0000 0.0000 11.8544 0.0000 0.0000
# 5 0.0000 0.0000 0.0000 0.0000 31.4173 0.0000
# 6 0.0000 0.0000 0.0000 0.0000 0.0000 27.3977
#
#
#
# Elastic Compliance Matrix: (Units=1/GPa)
#
#
# Indices 1 2 3 4 5 6 
#
# 1 0.022643 -0.001403 -0.004202 0.000000 0.000000 0.000000
# 2 -0.001403 0.013116 -0.004256 0.000000 0.000000 0.000000
# 3 -0.004202 -0.004256 0.013486 0.000000 0.000000 0.000000
# 4 0.000000 0.000000 0.000000 0.084357 0.000000 0.000000
# 5 0.000000 0.000000 0.000000 0.000000 0.031830 0.000000
# 6 0.000000 0.000000 0.000000 0.000000 0.000000 0.036499
#
#
# Mechanical properties :
#
#
# Convention : Reuss Voigt Hill
#
# Bulk Modulus (GPa) = 33.87492 38.60467 36.23980
# Shear Modulus (GPa) = 21.59870 25.11431 23.35651
#
# Velocity S-wave (km/s) = 3.20146 3.45220 3.32919
# Velocity P-wave (km/s) = 5.45350 5.84889 5.65465
#
# Compressibility (1/GPa) = 0.02952036
#
# Stress axis : x y z
#
# Youngs Moduli (GPa) = 44.16283 76.24508 74.15269
#
# Poissons Ratio (x) = 0.10700 0.31162
# Poissons Ratio (y) = 0.06198 0.31562
# Poissons Ratio (z) = 0.18559 0.32453
#
# Static dielectric constant tensor:
#      x y z
#    x 1.737830 0.000000 0.000000 
#    y 0.000000 1.820010 0.000000 
#    z 0.000000 0.000000 1.765140 
# 
# From -- ./inp_files/40465.got.cif
#   From: 2010.05.17/outbox.cif.g08.bks.cpg/sg65_21_cif.got.tgz:40465.got - 2010.06.03 17:01:31.
