data_PCOD9493668
_publ_section_title
;
Structure prediction by ZEFSAII (Michael W. Deem and Ramdas Pophale) SiO2 
 PCOD9493668
Probable space group: C M M M
;
_chemical_formula_sum "Si O2"
_cell_formula_units_Z 72
_cell_length_a 14.748092
_cell_length_b 17.043043
_cell_length_c 14.088334
_cell_angle_alpha 90.000000
_cell_angle_beta 90.000000
_cell_angle_gamma 90.000000
_cell_volume 3541.136086
_symmetry_space_group_name_H-M "C M M M"
_symmetry_group_IT_number 65
_symmetry_cell_setting 'orthorhombic'
loop_
_space_group_symop_operation_xyz
x,y,z
-x,-y,z
x,-y,-z
-x,y,-z
-x,-y,-z
x,y,-z
-x,y,z
x,-y,z
1/2+x,1/2+y,z
1/2-x,1/2-y,z
1/2+x,1/2-y,-z
1/2-x,1/2+y,-z
1/2-x,1/2-y,-z
1/2+x,1/2+y,-z
1/2-x,1/2+y,z
1/2+x,1/2-y,z
loop_
_atom_site_type_symbol
_atom_site_label
_atom_site_fract_x
_atom_site_fract_y
_atom_site_fract_z
Si Si1 0.848432 0.591988 0.000000
Si Si2 0.401352 0.349116 0.201060
Si Si3 0.368991 0.590703 0.000000
Si Si4 0.239413 0.088330 0.669761
Si Si5 0.606143 0.834643 0.208087
Si Si6 0.107566 0.096119 0.500000
O O1 0.739789 0.594256 0.000000
O O2 0.877385 0.632645 0.100228
O O3 0.877604 0.500000 0.000000
O O4 0.500000 0.363146 0.245530
O O5 0.404688 0.365602 0.090988
O O6 0.327349 0.407893 0.240728
O O7 0.375465 0.258483 0.212499
O O8 0.395713 0.500000 0.000000
O O9 0.329384 0.128466 0.711069
O O10 0.171173 0.121737 0.588952
O O11 0.262371 0.000000 0.641099
O O12 0.500000 0.847731 0.228674
O O13 0.000000 0.120964 0.500000
O O14 0.104151 0.000000 0.500000
#
# Coordination Sequence:
#
# PCOD9493668 Si02
#       6
#     8  16   8  16  16   8
#     4  11  22  37  58  85 118 163 212 253 291 341
#     4  11  23  38  58  86 122 161 197 244 306 364
#     4  11  22  35  56  89 122 157 206 257 307 357
#     4  11  22  39  64  91 117 151 197 249 301 358
#     4  11  24  40  59  86 122 166 209 248 294 351
#     4   9  20  40  66  95 123 151 189 242 308 376
#
# _framework density 20.332457000000002
#
# number of rings (size 3 to 8) (size 9 to 14) (size 15 to 20)
#    0.000    1.222    2.222    4.000    0.000    8.000 
#    0.000    2.778    0.000    4.667    0.000    0.000 
#    0.000    0.000    0.000    0.000    0.000    0.000 
#
# Total GULP energy -200730.896987 kJ/mol
# GULP energy per Si atom -5575.858250 kJ/mol
# Density = 2.028618 g / cm^3
# Si number density = 20.332457 Si / 1000 Ang^3
#
#
#
# Elastic Constant Matrix: (Units=GPa)
#
#
# Indices 1 2 3 4 5 6 
#
# 1 143.2025 47.9541 48.4552 0.0000 0.0000 0.0000
# 2 47.9541 68.5475 -0.3352 0.0000 0.0000 0.0000
# 3 48.4552 -0.3352 93.0574 0.0000 0.0000 0.0000
# 4 0.0000 0.0000 0.0000 36.8456 0.0000 0.0000
# 5 0.0000 0.0000 0.0000 0.0000 28.9545 0.0000
# 6 0.0000 0.0000 0.0000 0.0000 0.0000 48.3682
#
#
#
# Elastic Compliance Matrix: (Units=1/GPa)
#
#
# Indices 1 2 3 4 5 6 
#
# 1 0.011879 -0.008341 -0.006216 0.000000 0.000000 0.000000
# 2 -0.008341 0.020445 0.004417 0.000000 0.000000 0.000000
# 3 -0.006216 0.004417 0.013998 0.000000 0.000000 0.000000
# 4 0.000000 0.000000 0.000000 0.027140 0.000000 0.000000
# 5 0.000000 0.000000 0.000000 0.000000 0.034537 0.000000
# 6 0.000000 0.000000 0.000000 0.000000 0.000000 0.020675
#
#
# Mechanical properties :
#
#
# Convention : Reuss Voigt Hill
#
# Bulk Modulus (GPa) = 38.39747 55.21729 46.80738
# Shear Modulus (GPa) = 31.71866 36.74922 34.23394
#
# Velocity S-wave (km/s) = 3.95397 4.25598 4.10775
# Velocity P-wave (km/s) = 6.30642 7.16710 6.75049
#
# Compressibility (1/GPa) = 0.02604338
#
# Stress axis : x y z
#
# Youngs Moduli (GPa) = 84.17895 48.91133 71.43623
#
# Poissons Ratio (x) = 0.40797 0.44403
# Poissons Ratio (y) = 0.70213 -0.31552
# Poissons Ratio (z) = 0.52323 -0.21603
#
# Static dielectric constant tensor:
#      x y z
#    x 1.743840 0.000000 0.000000 
#    y 0.000000 1.721570 0.000000 
#    z 0.000000 0.000000 1.746660 
# 
# From -- ./inp_files/39881.got.cif
#   From: 2010.05.17/outbox.cif.g08.bks.cpg/sg65_20_cif.got.tgz:39881.got - 2010.06.03 17:01:31.
