data_PCOD9493587
_publ_section_title
;
Structure prediction by ZEFSAII (Michael W. Deem and Ramdas Pophale) SiO2 
 PCOD9493587
Probable space group: C M M M
;
_chemical_formula_sum "Si O2"
_cell_formula_units_Z 96
_cell_length_a 15.819672
_cell_length_b 16.821186
_cell_length_c 17.841147
_cell_angle_alpha 90.000000
_cell_angle_beta 90.000000
_cell_angle_gamma 90.000000
_cell_volume 4747.629933
_symmetry_space_group_name_H-M "C M M M"
_symmetry_group_IT_number 65
_symmetry_cell_setting 'orthorhombic'
loop_
_space_group_symop_operation_xyz
x,y,z
-x,-y,z
x,-y,-z
-x,y,-z
-x,-y,-z
x,y,-z
-x,y,z
x,-y,z
1/2+x,1/2+y,z
1/2-x,1/2-y,z
1/2+x,1/2-y,-z
1/2-x,1/2+y,-z
1/2-x,1/2-y,-z
1/2+x,1/2+y,-z
1/2-x,1/2+y,z
1/2+x,1/2-y,z
loop_
_atom_site_type_symbol
_atom_site_label
_atom_site_fract_x
_atom_site_fract_y
_atom_site_fract_z
Si Si1 0.601833 0.088368 0.586674
Si Si2 0.350784 0.229569 0.158594
Si Si3 0.220117 0.590230 0.914440
Si Si4 0.850372 0.250228 0.672952
Si Si5 0.091312 0.120086 0.912119
Si Si6 0.101810 0.088854 0.586673
O O1 0.630127 0.095678 0.500000
O O2 0.500000 0.086368 0.586491
O O3 0.626166 0.168317 0.630303
O O4 0.630558 0.000000 0.614118
O O5 0.250000 0.250000 0.153808
O O6 0.346134 0.138999 0.134125
O O7 0.383401 0.245698 0.241908
O O8 0.400108 0.285947 0.101889
O O9 0.194034 0.500000 0.918567
O O10 0.317274 0.590874 0.883375
O O11 0.224176 0.623602 0.000000
O O12 0.750000 0.250000 0.678621
O O13 0.874612 0.167538 0.632854
O O14 0.000000 0.093603 0.880618
O O15 0.090274 0.100106 0.000000
O O16 0.130217 0.098090 0.500000
O O17 0.000000 0.086558 0.586063
O O18 0.130500 0.000000 0.612744
#
# Coordination Sequence:
#
# PCOD9493587 Si02
#       6
#    16  16  16  16  16  16
#     4   9  19  36  55  73  96 131 173 212 254 308
#     4   9  19  34  48  67 100 139 172 199 240 305
#     4   9  17  31  53  76  98 131 172 210 251 303
#     4  11  22  33  50  78 108 137 172 216 263 308
#     4   9  17  30  50  75 100 126 161 208 256 299
#     4   9  19  37  59  80 104 138 178 217 261 319
#
# _framework density 20.220616
#
# number of rings (size 3 to 8) (size 9 to 14) (size 15 to 20)
#    0.000    2.667    0.000    2.500    0.000    7.667 
#    0.000   10.000    0.000    0.500    0.000    2.333 
#    0.000    0.000    0.000    0.000    0.000    0.000 
#
# Total GULP energy -267211.487637 kJ/mol
# GULP energy per Si atom -5566.905992 kJ/mol
# Density = 2.017459 g / cm^3
# Si number density = 20.220616 Si / 1000 Ang^3
#
#
#
# Elastic Constant Matrix: (Units=GPa)
#
#
# Indices 1 2 3 4 5 6 
#
# 1 28.9227 22.7067 11.0696 0.0000 0.0000 0.0000
# 2 22.7067 151.2392 39.1012 0.0000 0.0000 0.0000
# 3 11.0696 39.1012 37.5112 0.0000 0.0000 0.0000
# 4 0.0000 0.0000 0.0000 8.7703 0.0000 0.0000
# 5 0.0000 0.0000 0.0000 0.0000 51.4176 0.0000
# 6 0.0000 0.0000 0.0000 0.0000 0.0000 -7.8530
#
#
#
# Elastic Compliance Matrix: (Units=1/GPa)
#
#
# Indices 1 2 3 4 5 6 
#
# 1 0.040771 -0.004121 -0.007736 0.000000 0.000000 0.000000
# 2 -0.004121 0.009468 -0.008653 0.000000 0.000000 0.000000
# 3 -0.007736 -0.008653 0.037961 0.000000 0.000000 0.000000
# 4 0.000000 0.000000 0.000000 0.114021 0.000000 0.000000
# 5 0.000000 0.000000 0.000000 0.000000 0.019449 0.000000
# 6 0.000000 0.000000 0.000000 0.000000 0.000000 -0.127340
#
#
# Mechanical properties :
#
#
# Convention : Reuss Voigt Hill
#
# Bulk Modulus (GPa) = 21.19523 40.38092 30.78807
# Shear Modulus (GPa) = 33.09555 20.12001 26.60778
#
# Velocity S-wave (km/s) = 4.05003 3.15782 3.63143
# Velocity P-wave (km/s) = 5.68991 5.77142 5.73081
#
# Compressibility (1/GPa) = 0.04718043
#
# Stress axis : x y z
#
# Youngs Moduli (GPa) = 24.52711 105.61922 26.34254
#
# Poissons Ratio (x) = 0.43529 0.20378
# Poissons Ratio (y) = 0.10108 0.22794
# Poissons Ratio (z) = 0.18973 0.91393
#
# Static dielectric constant tensor:
#      x y z
#    x 1.735740 0.000000 0.000000 
#    y 0.000000 1.773260 0.000000 
#    z 0.000000 0.000000 1.729930 
# 
# From -- ./inp_files/62618.got.cif
#   From: 2010.05.17/outbox.cif.g08.bks.cpg/sg65_32_cif.got.tgz:62618.got - 2010.06.03 17:01:31.
