data_PCOD9493585
_publ_section_title
;
Structure prediction by ZEFSAII (Michael W. Deem and Ramdas Pophale) SiO2 
 PCOD9493585
Probable space group: C M M M
;
_chemical_formula_sum "Si O2"
_cell_formula_units_Z 88
_cell_length_a 7.924276
_cell_length_b 28.958696
_cell_length_c 19.364056
_cell_angle_alpha 90.000000
_cell_angle_beta 90.000000
_cell_angle_gamma 90.000000
_cell_volume 4443.599664
_symmetry_space_group_name_H-M "C M M M"
_symmetry_group_IT_number 65
_symmetry_cell_setting 'orthorhombic'
loop_
_space_group_symop_operation_xyz
x,y,z
-x,-y,z
x,-y,-z
-x,y,-z
-x,-y,-z
x,y,-z
-x,y,z
x,-y,z
1/2+x,1/2+y,z
1/2-x,1/2-y,z
1/2+x,1/2-y,-z
1/2-x,1/2+y,-z
1/2-x,1/2-y,-z
1/2+x,1/2+y,-z
1/2-x,1/2+y,z
1/2+x,1/2-y,z
loop_
_atom_site_type_symbol
_atom_site_label
_atom_site_fract_x
_atom_site_fract_y
_atom_site_fract_z
Si Si1 0.797741 0.552420 0.576047
Si Si2 0.299824 0.607930 0.289223
Si Si3 0.796665 0.195547 0.072907
Si Si4 0.796271 0.196880 0.776536
Si Si5 0.800285 0.443546 0.000000
Si Si6 0.295979 0.053822 0.849551
O O1 0.737283 0.568314 0.500000
O O2 0.734197 0.500000 0.586919
O O3 0.758766 0.583332 0.641643
O O4 0.000000 0.549911 0.572483
O O5 0.500000 0.610154 0.293633
O O6 0.233436 0.660007 0.278708
O O7 0.257690 0.580415 0.218979
O O8 0.750000 0.250000 0.071917
O O9 0.733481 0.180087 0.147609
O O10 0.000000 0.191491 0.072653
O O11 0.732235 0.175476 0.000000
O O12 0.750000 0.250000 0.765455
O O13 0.000000 0.195394 0.778611
O O14 0.731216 0.428427 0.924838
O O15 0.787520 0.500000 0.000000
O O16 0.000000 0.432887 0.000000
O O17 0.500000 0.054767 0.852524
O O18 0.244934 0.000000 0.843146
#
# Coordination Sequence:
#
# PCOD9493585 Si02
#       6
#    16  16  16  16   8  16
#     4   9  19  37  60  84 108 135 169 206 245 298
#     4  11  22  33  48  78 112 137 166 207 259 316
#     4   8  13  24  43  62  82 114 157 205 254 296
#     4   9  19  34  49  69  97 132 174 216 258 304
#     4   7  12  26  47  67  90 127 176 223 256 285
#     4   9  17  31  51  72  97 134 178 218 254 298
#
# _framework density 19.803764999999999
#
# number of rings (size 3 to 8) (size 9 to 14) (size 15 to 20)
#    0.000    3.000    0.000    2.727    0.000    4.727 
#    1.636    1.364    0.000    2.182    0.000    0.000 
#    0.000    0.000    0.000    0.000    0.000    0.000 
#
# Total GULP energy -245213.912976 kJ/mol
# GULP energy per Si atom -5573.043477 kJ/mol
# Density = 1.975869 g / cm^3
# Si number density = 19.803765 Si / 1000 Ang^3
#
#
#
# Elastic Constant Matrix: (Units=GPa)
#
#
# Indices 1 2 3 4 5 6 
#
# 1 22.9636 6.1946 16.7671 0.0000 0.0000 0.0000
# 2 6.1946 90.1094 98.3515 0.0000 0.0000 0.0000
# 3 16.7671 98.3515 202.2343 0.0000 0.0000 0.0000
# 4 0.0000 0.0000 0.0000 28.5381 0.0000 0.0000
# 5 0.0000 0.0000 0.0000 0.0000 0.3176 0.0000
# 6 0.0000 0.0000 0.0000 0.0000 0.0000 15.0903
#
#
#
# Elastic Compliance Matrix: (Units=1/GPa)
#
#
# Indices 1 2 3 4 5 6 
#
# 1 0.046549 0.002158 -0.004909 0.000000 0.000000 0.000000
# 2 0.002158 0.023753 -0.011730 0.000000 0.000000 0.000000
# 3 -0.004909 -0.011730 0.011056 0.000000 0.000000 0.000000
# 4 0.000000 0.000000 0.000000 0.035041 0.000000 0.000000
# 5 0.000000 0.000000 0.000000 0.000000 3.148177 0.000000
# 6 0.000000 0.000000 0.000000 0.000000 0.000000 0.066268
#
#
# Mechanical properties :
#
#
# Convention : Reuss Voigt Hill
#
# Bulk Modulus (GPa) = 19.08557 61.99261 40.53909
# Shear Modulus (GPa) = 1.48048 21.72214 11.60131
#
# Velocity S-wave (km/s) = 0.86556 3.31549 2.42298
# Velocity P-wave (km/s) = 3.26454 6.78440 5.32378
#
# Compressibility (1/GPa) = 0.05239562
#
# Stress axis : x y z
#
# Youngs Moduli (GPa) = 21.48259 42.10066 90.44455
#
# Poissons Ratio (x) = -0.09084 0.44396
# Poissons Ratio (y) = -0.04635 1.06095
# Poissons Ratio (z) = 0.10545 0.49386
#
# Static dielectric constant tensor:
#      x y z
#    x 1.722590 0.000000 0.000000 
#    y 0.000000 1.760100 0.000000 
#    z 0.000000 0.000000 1.755350 
# 
# From -- ./inp_files/50463.got.cif
#   From: 2010.05.17/outbox.cif.g08.bks.cpg/sg65_26_cif.got.tgz:50463.got - 2010.06.03 17:01:31.
