data_PCOD9493458
_publ_section_title
;
Structure prediction by ZEFSAII (Michael W. Deem and Ramdas Pophale) SiO2 
 PCOD9493458
Probable space group: C M M M
;
_chemical_formula_sum "Si O2"
_cell_formula_units_Z 64
_cell_length_a 8.604403
_cell_length_b 23.724272
_cell_length_c 18.646706
_cell_angle_alpha 90.000000
_cell_angle_beta 90.000000
_cell_angle_gamma 90.000000
_cell_volume 3806.411712
_symmetry_space_group_name_H-M "C M M M"
_symmetry_group_IT_number 65
_symmetry_cell_setting 'orthorhombic'
loop_
_space_group_symop_operation_xyz
x,y,z
-x,-y,z
x,-y,-z
-x,y,-z
-x,-y,-z
x,y,-z
-x,y,z
x,-y,z
1/2+x,1/2+y,z
1/2-x,1/2-y,z
1/2+x,1/2-y,-z
1/2-x,1/2+y,-z
1/2-x,1/2-y,-z
1/2+x,1/2+y,-z
1/2-x,1/2+y,z
1/2+x,1/2-y,z
loop_
_atom_site_type_symbol
_atom_site_label
_atom_site_fract_x
_atom_site_fract_y
_atom_site_fract_z
Si Si1 0.813764 0.813051 0.000000
Si Si2 0.813459 0.313982 0.578371
Si Si3 0.314009 0.118726 0.135856
Si Si4 0.185589 0.814192 0.271380
Si Si5 0.313004 0.500000 0.084942
O O1 0.750000 0.750000 0.000000
O O2 0.751092 0.844781 0.069849
O O3 0.000000 0.813568 0.000000
O O4 0.775457 0.339572 0.500000
O O5 0.750000 0.250000 0.575959
O O6 0.739471 0.337471 0.650944
O O7 0.000000 0.312750 0.585542
O O8 0.500000 0.119567 0.135333
O O9 0.251781 0.147117 0.208374
O O10 0.252991 0.055691 0.122451
O O11 0.250000 0.750000 0.263826
O O12 0.000000 0.811715 0.268121
O O13 0.500000 0.500000 0.088522
O O14 0.269856 0.500000 0.000000
#
# Coordination Sequence:
#
# PCOD9493458 Si02
#       5
#     8  16  16  16   8
#     4  12  24  39  56  79 108 140 176 216 264 320
#     4   9  16  27  45  71 104 141 179 217 260 314
#     4  12  24  39  58  80 106 139 179 221 268 318
#     4  11  21  34  52  77 111 146 181 222 269 320
#     4  11  23  41  63  83 105 134 175 226 270 316
#
# _framework density 16.813735000000001
#
# number of rings (size 3 to 8) (size 9 to 14) (size 15 to 20)
#    0.000    1.125    1.250    9.000    0.000    2.000 
#    0.000    0.000    0.000    0.000    0.000    0.875 
#    0.000    7.000    0.000    0.000    0.000    0.000 
#
# Total GULP energy -178728.412540 kJ/mol
# GULP energy per Si atom -5585.262892 kJ/mol
# Density = 1.677547 g / cm^3
# Si number density = 16.813735 Si / 1000 Ang^3
#
#
#
# Elastic Constant Matrix: (Units=GPa)
#
#
# Indices 1 2 3 4 5 6 
#
# 1 165.0910 54.5577 79.3964 0.0000 0.0000 0.0000
# 2 54.5577 111.5781 75.4817 0.0000 0.0000 0.0000
# 3 79.3964 75.4817 191.1362 0.0000 0.0000 0.0000
# 4 0.0000 0.0000 0.0000 -9.5624 0.0000 0.0000
# 5 0.0000 0.0000 0.0000 0.0000 13.3363 0.0000
# 6 0.0000 0.0000 0.0000 0.0000 0.0000 26.8625
#
#
#
# Elastic Compliance Matrix: (Units=1/GPa)
#
#
# Indices 1 2 3 4 5 6 
#
# 1 0.007966 -0.002261 -0.002416 0.000000 0.000000 0.000000
# 2 -0.002261 0.012871 -0.004144 0.000000 0.000000 0.000000
# 3 -0.002416 -0.004144 0.007872 0.000000 0.000000 0.000000
# 4 0.000000 0.000000 0.000000 -0.104576 0.000000 0.000000
# 5 0.000000 0.000000 0.000000 0.000000 0.074983 0.000000
# 6 0.000000 0.000000 0.000000 0.000000 0.000000 0.037227
#
#
# Mechanical properties :
#
#
# Convention : Reuss Voigt Hill
#
# Bulk Modulus (GPa) = 90.35298 98.51966 94.43632
# Shear Modulus (GPa) = 86.69429 23.35193 55.02311
#
# Velocity S-wave (km/s) = 7.18843 3.73078 5.72679
# Velocity P-wave (km/s) = 11.07936 8.79092 10.00081
#
# Compressibility (1/GPa) = 0.01106770
#
# Stress axis : x y z
#
# Youngs Moduli (GPa) = 125.52624 77.69430 127.03086
#
# Poissons Ratio (x) = 0.17564 0.30697
# Poissons Ratio (y) = 0.28376 0.52640
# Poissons Ratio (z) = 0.30333 0.32195
#
# Static dielectric constant tensor:
#      x y z
#    x 1.557850 0.000000 0.000000 
#    y 0.000000 1.539550 0.000000 
#    z 0.000000 0.000000 1.601040 
# 
# From -- ./inp_files/49420.got.cif
#   From: 2010.05.17/outbox.cif.g08.bks.cpg/sg65_25_cif.got.tgz:49420.got - 2010.06.03 17:01:31.
