data_PCOD9493608
_publ_section_title
;
Structure prediction by ZEFSAII (Michael W. Deem and Ramdas Pophale) SiO2 
 PCOD9493608
Probable space group: C M M M
;
_chemical_formula_sum "Si O2"
_cell_formula_units_Z 80
_cell_length_a 7.735132
_cell_length_b 19.811829
_cell_length_c 26.454519
_cell_angle_alpha 90.000000
_cell_angle_beta 90.000000
_cell_angle_gamma 90.000000
_cell_volume 4054.078649
_symmetry_space_group_name_H-M "C M M M"
_symmetry_group_IT_number 65
_symmetry_cell_setting 'orthorhombic'
loop_
_space_group_symop_operation_xyz
x,y,z
-x,-y,z
x,-y,-z
-x,y,-z
-x,-y,-z
x,y,-z
-x,y,z
x,-y,z
1/2+x,1/2+y,z
1/2-x,1/2-y,z
1/2+x,1/2-y,-z
1/2-x,1/2+y,-z
1/2-x,1/2-y,-z
1/2+x,1/2+y,-z
1/2-x,1/2+y,z
1/2+x,1/2-y,z
loop_
_atom_site_type_symbol
_atom_site_label
_atom_site_fract_x
_atom_site_fract_y
_atom_site_fract_z
Si Si1 0.703872 0.328448 0.353362
Si Si2 0.291870 0.171593 0.056329
Si Si3 0.711308 0.422966 0.557693
Si Si4 0.288985 0.922268 0.146625
Si Si5 0.792129 0.576531 0.260413
O O1 0.500000 0.331030 0.359355
O O2 0.750000 0.250000 0.351124
O O3 0.777543 0.369563 0.401408
O O4 0.746296 0.369527 0.302672
O O5 0.500000 0.164881 0.055503
O O6 0.250000 0.250000 0.064492
O O7 0.225751 0.126174 0.102254
O O8 0.228108 0.152740 0.000000
O O9 0.765034 0.408531 0.500000
O O10 0.500000 0.422336 0.557793
O O11 0.762681 0.500000 0.570557
O O12 0.500000 0.919411 0.146638
O O13 0.232137 0.904967 0.203706
O O14 0.241351 0.000000 0.137053
O O15 0.730097 0.500000 0.272304
O O16 0.000000 0.573325 0.258481
#
# Coordination Sequence:
#
# PCOD9493608 Si02
#       5
#    16  16  16  16  16
#     4  11  22  34  50  74 103 133 166 203 242 286
#     4   9  17  29  46  68  94 124 157 193 233 279
#     4   8  15  30  52  75  97 124 160 200 242 288
#     4   8  15  29  49  72  95 120 154 196 240 283
#     4   9  18  34  54  73  97 129 162 200 247 296
#
# _framework density 19.733214
#
# number of rings (size 3 to 8) (size 9 to 14) (size 15 to 20)
#    0.000    3.000    0.000    3.000    0.000    2.800 
#    0.000    5.000    0.000    3.600    0.000    9.800 
#    0.000    0.000    0.000    0.000    0.000    0.000 
#
# Total GULP energy -223067.132876 kJ/mol
# GULP energy per Si atom -5576.678322 kJ/mol
# Density = 1.968830 g / cm^3
# Si number density = 19.733214 Si / 1000 Ang^3
#
#
#
# Elastic Constant Matrix: (Units=GPa)
#
#
# Indices 1 2 3 4 5 6 
#
# 1 29.5030 7.5751 9.8392 0.0000 0.0000 0.0000
# 2 7.5751 161.8621 157.3735 0.0000 0.0000 0.0000
# 3 9.8392 157.3735 203.4329 0.0000 0.0000 0.0000
# 4 0.0000 0.0000 0.0000 -18.5997 0.0000 0.0000
# 5 0.0000 0.0000 0.0000 0.0000 8.1484 0.0000
# 6 0.0000 0.0000 0.0000 0.0000 0.0000 2.0499
#
#
#
# Elastic Compliance Matrix: (Units=1/GPa)
#
#
# Indices 1 2 3 4 5 6 
#
# 1 0.034451 0.000031 -0.001690 0.000000 0.000000 0.000000
# 2 0.000031 0.024925 -0.019284 0.000000 0.000000 0.000000
# 3 -0.001690 -0.019284 0.019915 0.000000 0.000000 0.000000
# 4 0.000000 0.000000 0.000000 -0.053764 0.000000 0.000000
# 5 0.000000 0.000000 0.000000 0.000000 0.122723 0.000000
# 6 0.000000 0.000000 0.000000 0.000000 0.000000 0.487829
#
#
# Mechanical properties :
#
#
# Convention : Reuss Voigt Hill
#
# Bulk Modulus (GPa) = 26.73404 82.70819 54.72111
# Shear Modulus (GPa) = 7.24184 12.98706 10.11445
#
# Velocity S-wave (km/s) = 1.91777 2.56819 2.26643
# Velocity P-wave (km/s) = 4.29895 7.12729 5.88554
#
# Compressibility (1/GPa) = 0.03740550
#
# Stress axis : x y z
#
# Youngs Moduli (GPa) = 29.02710 40.11957 50.21346
#
# Poissons Ratio (x) = -0.00125 0.08488
# Poissons Ratio (y) = -0.00091 0.96830
# Poissons Ratio (z) = 0.04907 0.77365
#
# Static dielectric constant tensor:
#      x y z
#    x 1.734040 0.000000 0.000000 
#    y 0.000000 1.603500 0.000000 
#    z 0.000000 0.000000 1.713580 
# 
# From -- ./inp_files/69696.got.cif
#   From: 2010.05.17/outbox.cif.g08.bks.cpg/sg65_35_cif.got.tgz:69696.got - 2010.06.03 17:01:31.
