data_PCOD9493252
_publ_section_title
;
Structure prediction by ZEFSAII (Michael W. Deem and Ramdas Pophale) SiO2 
 PCOD9493252
Probable space group: C M M M
;
_chemical_formula_sum "Si O2"
_cell_formula_units_Z 50
_cell_length_a 8.330067
_cell_length_b 19.118608
_cell_length_c 15.398701
_cell_angle_alpha 90.000000
_cell_angle_beta 90.000000
_cell_angle_gamma 90.000000
_cell_volume 2452.386120
_symmetry_space_group_name_H-M "C M M M"
_symmetry_group_IT_number 65
_symmetry_cell_setting 'orthorhombic'
loop_
_space_group_symop_operation_xyz
x,y,z
-x,-y,z
x,-y,-z
-x,y,-z
-x,-y,-z
x,y,-z
-x,y,z
x,-y,z
1/2+x,1/2+y,z
1/2-x,1/2-y,z
1/2+x,1/2-y,-z
1/2-x,1/2+y,-z
1/2-x,1/2-y,-z
1/2+x,1/2+y,-z
1/2-x,1/2+y,z
1/2+x,1/2-y,z
loop_
_atom_site_type_symbol
_atom_site_label
_atom_site_fract_x
_atom_site_fract_y
_atom_site_fract_z
Si Si1 0.000000 0.500000 0.000000
Si Si2 0.186736 0.827450 0.810929
Si Si3 0.809758 0.420803 0.660414
Si Si4 0.689088 0.670718 0.500000
Si Si5 0.691465 0.390682 0.000000
O O1 0.149649 0.559566 0.000000
O O2 0.250000 0.750000 0.792537
O O3 0.273467 0.885312 0.752537
O O4 0.000000 0.830148 0.787511
O O5 0.203835 0.845890 0.912082
O O6 0.744203 0.500000 0.655878
O O7 0.744402 0.371592 0.584694
O O8 0.000000 0.424570 0.649114
O O9 0.500000 0.673503 0.500000
O O10 0.750000 0.750000 0.500000
O O11 0.500000 0.417908 0.000000
#
# Coordination Sequence:
#
# PCOD9493252 Si02
#       5
#     2  16  16   8   8
#     4  12  26  40  76  94 140 178 228 276 352 402
#     4  11  24  43  67  96 134 175 224 277 329 397
#     4  11  25  43  67  97 132 170 217 269 330 398
#     4  12  25  44  69  95 129 171 215 268 329 392
#     4  10  26  44  67 102 137 178 230 281 335 402
#
# _framework density 20.388307000000001
#
# number of rings (size 3 to 8) (size 9 to 14) (size 15 to 20)
#    0.000    0.960    0.000    5.520    6.720    4.480 
#    0.000    0.000    0.000    0.000    0.000    0.000 
#    0.000    0.000    0.000    0.000    0.000    0.000 
#
# Total GULP energy -139439.048762 kJ/mol
# GULP energy per Si atom -5577.561950 kJ/mol
# Density = 2.034190 g / cm^3
# Si number density = 20.388307 Si / 1000 Ang^3
#
#
#
# Elastic Constant Matrix: (Units=GPa)
#
#
# Indices 1 2 3 4 5 6 
#
# 1 133.3344 54.6561 17.6416 0.0000 0.0000 0.0000
# 2 54.6561 184.0547 62.8554 0.0000 0.0000 0.0000
# 3 17.6416 62.8554 125.3123 0.0000 0.0000 0.0000
# 4 0.0000 0.0000 0.0000 1.3406 0.0000 0.0000
# 5 0.0000 0.0000 0.0000 0.0000 39.4593 0.0000
# 6 0.0000 0.0000 0.0000 0.0000 0.0000 34.9591
#
#
#
# Elastic Compliance Matrix: (Units=1/GPa)
#
#
# Indices 1 2 3 4 5 6 
#
# 1 0.008540 -0.002565 0.000084 0.000000 0.000000 0.000000
# 2 -0.002565 0.007326 -0.003314 0.000000 0.000000 0.000000
# 3 0.000084 -0.003314 0.009630 0.000000 0.000000 0.000000
# 4 0.000000 0.000000 0.000000 0.745944 0.000000 0.000000
# 5 0.000000 0.000000 0.000000 0.000000 0.025343 0.000000
# 6 0.000000 0.000000 0.000000 0.000000 0.000000 0.028605
#
#
# Mechanical properties :
#
#
# Convention : Reuss Voigt Hill
#
# Bulk Modulus (GPa) = 71.90019 79.22305 75.56162
# Shear Modulus (GPa) = 5.94097 35.65502 20.79799
#
# Velocity S-wave (km/s) = 1.70887 4.18640 3.19736
# Velocity P-wave (km/s) = 6.26383 7.89363 7.12548
#
# Compressibility (1/GPa) = 0.01390817
#
# Stress axis : x y z
#
# Youngs Moduli (GPa) = 117.09387 136.49133 103.83807
#
# Poissons Ratio (x) = 0.35007 -0.00874
# Poissons Ratio (y) = 0.30032 0.34410
# Poissons Ratio (z) = -0.00986 0.45231
#
# Static dielectric constant tensor:
#      x y z
#    x 1.723780 0.000000 0.000000 
#    y 0.000000 1.778190 0.000000 
#    z 0.000000 0.000000 1.704170 
# 
# From -- ./inp_files/35119.got.cif
#   From: 2010.05.17/outbox.cif.g08.bks.cpg/sg65_18_cif.got.tgz:35119.got - 2010.06.03 17:01:31.
