data_PCOD9493501
_publ_section_title
;
Structure prediction by ZEFSAII (Michael W. Deem and Ramdas Pophale) SiO2 
 PCOD9493501
Probable space group: C M M M
;
_chemical_formula_sum "Si O2"
_cell_formula_units_Z 56
_cell_length_a 16.569091
_cell_length_b 10.232480
_cell_length_c 17.640395
_cell_angle_alpha 90.000000
_cell_angle_beta 90.000000
_cell_angle_gamma 90.000000
_cell_volume 2990.803589
_symmetry_space_group_name_H-M "C M M M"
_symmetry_group_IT_number 65
_symmetry_cell_setting 'orthorhombic'
loop_
_space_group_symop_operation_xyz
x,y,z
-x,-y,z
x,-y,-z
-x,y,-z
-x,-y,-z
x,y,-z
-x,y,z
x,-y,z
1/2+x,1/2+y,z
1/2-x,1/2-y,z
1/2+x,1/2-y,-z
1/2-x,1/2+y,-z
1/2-x,1/2-y,-z
1/2+x,1/2+y,-z
1/2-x,1/2+y,z
1/2+x,1/2-y,z
loop_
_atom_site_type_symbol
_atom_site_label
_atom_site_fract_x
_atom_site_fract_y
_atom_site_fract_z
Si Si1 0.372645 0.500000 0.588018
Si Si2 0.820839 0.500000 0.412771
Si Si3 0.098165 0.652342 0.164266
Si Si4 0.593551 0.233304 0.673369
Si Si5 0.093809 0.340716 0.000000
O O1 0.399127 0.500000 0.500000
O O2 0.275574 0.500000 0.588305
O O3 0.400638 0.628467 0.632179
O O4 0.848234 0.500000 0.500000
O O5 0.854127 0.627633 0.371166
O O6 0.120971 0.500000 0.176596
O O7 0.120361 0.733886 0.238579
O O8 0.129184 0.697966 0.081743
O O9 0.000000 0.653808 0.158824
O O10 0.500000 0.189565 0.672589
O O11 0.093288 0.500000 0.000000
O O12 0.000000 0.298027 0.000000
#
# Coordination Sequence:
#
# PCOD9493501 Si02
#       5
#     8   8  16  16   8
#     4  11  25  41  53  72 107 148 180 209 265 335
#     4  11  23  39  57  76 101 138 182 223 263 315
#     4   8  13  24  44  75 107 132 165 211 258 302
#     4  11  21  35  57  83 108 133 174 227 267 305
#     4   7  10  18  38  69 106 136 157 198 258 306
#
# _framework density 18.724065
#
# number of rings (size 3 to 8) (size 9 to 14) (size 15 to 20)
#    0.000    2.429    1.429    4.286    0.000    5.714 
#    0.000    0.000    0.000    0.857    0.000   11.000 
#    0.000    0.000    0.000    0.000    0.000    0.000 
#
# Total GULP energy -156083.633523 kJ/mol
# GULP energy per Si atom -5574.415483 kJ/mol
# Density = 1.868145 g / cm^3
# Si number density = 18.724065 Si / 1000 Ang^3
#
#
#
# Elastic Constant Matrix: (Units=GPa)
#
#
# Indices 1 2 3 4 5 6 
#
# 1 33.4921 -0.3232 17.4699 0.0000 0.0000 0.0000
# 2 -0.3232 64.2378 52.9788 0.0000 0.0000 0.0000
# 3 17.4699 52.9788 219.1284 0.0000 0.0000 0.0000
# 4 0.0000 0.0000 0.0000 34.2532 0.0000 0.0000
# 5 0.0000 0.0000 0.0000 0.0000 -158.0893 0.0000
# 6 0.0000 0.0000 0.0000 0.0000 0.0000 23.8770
#
#
#
# Elastic Compliance Matrix: (Units=1/GPa)
#
#
# Indices 1 2 3 4 5 6 
#
# 1 0.031548 0.002789 -0.003190 0.000000 0.000000 0.000000
# 2 0.002789 0.019691 -0.004983 0.000000 0.000000 0.000000
# 3 -0.003190 -0.004983 0.006023 0.000000 0.000000 0.000000
# 4 0.000000 0.000000 0.000000 0.029194 0.000000 0.000000
# 5 0.000000 0.000000 0.000000 0.000000 -0.006326 0.000000
# 6 0.000000 0.000000 0.000000 0.000000 0.000000 0.041881
#
#
# Mechanical properties :
#
#
# Convention : Reuss Voigt Hill
#
# Bulk Modulus (GPa) = 21.50763 50.78995 36.14879
# Shear Modulus (GPa) = 33.72066 -3.54297 15.08885
#
# Velocity S-wave (km/s) = 4.24834 -1.37707 2.84183
# Velocity P-wave (km/s) = 5.96457 4.96548 5.48780
#
# Compressibility (1/GPa) = 0.04649513
#
# Stress axis : x y z
#
# Youngs Moduli (GPa) = 31.69732 50.78501 166.04205
#
# Poissons Ratio (x) = -0.14165 0.52960
# Poissons Ratio (y) = -0.08841 0.82739
# Poissons Ratio (z) = 0.10110 0.25306
#
# Static dielectric constant tensor:
#      x y z
#    x 1.650250 0.000000 0.000000 
#    y 0.000000 1.614710 0.000000 
#    z 0.000000 0.000000 1.708360 
# 
# From -- ./inp_files/48804.got.cif
#   From: 2010.05.17/outbox.cif.g08.bks.cpg/sg65_25_cif.got.tgz:48804.got - 2010.06.03 17:01:31.
