data_PCOD9493298
_publ_section_title
;
Structure prediction by ZEFSAII (Michael W. Deem and Ramdas Pophale) SiO2 
 PCOD9493298
Probable space group: C M M M
;
_chemical_formula_sum "Si O2"
_cell_formula_units_Z 104
_cell_length_a 22.600532
_cell_length_b 14.470838
_cell_length_c 16.174292
_cell_angle_alpha 90.000000
_cell_angle_beta 90.000000
_cell_angle_gamma 90.000000
_cell_volume 5289.780158
_symmetry_space_group_name_H-M "C M M M"
_symmetry_group_IT_number 65
_symmetry_cell_setting 'orthorhombic'
loop_
_space_group_symop_operation_xyz
x,y,z
-x,-y,z
x,-y,-z
-x,y,-z
-x,-y,-z
x,y,-z
-x,y,z
x,-y,z
1/2+x,1/2+y,z
1/2-x,1/2-y,z
1/2+x,1/2-y,-z
1/2-x,1/2+y,-z
1/2-x,1/2-y,-z
1/2+x,1/2+y,-z
1/2-x,1/2+y,z
1/2+x,1/2-y,z
loop_
_atom_site_type_symbol
_atom_site_label
_atom_site_fract_x
_atom_site_fract_y
_atom_site_fract_z
Si Si1 0.745461 0.860391 0.675861
Si Si2 0.430940 0.610287 0.500000
Si Si3 0.380528 0.604730 0.332193
Si Si4 0.570790 0.223158 0.752627
Si Si5 0.257749 0.606230 0.133232
Si Si6 0.878768 0.607364 0.596114
Si Si7 0.151218 0.730951 0.092443
O O1 0.750000 0.750000 0.674916
O O2 0.810424 0.896679 0.655680
O O3 0.737914 0.890473 0.770652
O O4 0.691513 0.888424 0.617569
O O5 0.418213 0.500000 0.500000
O O6 0.500000 0.623466 0.500000
O O7 0.404763 0.647101 0.416687
O O8 0.401681 0.500000 0.319229
O O9 0.405108 0.673186 0.264033
O O10 0.500000 0.220110 0.759205
O O11 0.591411 0.163122 0.672432
O O12 0.604378 0.199405 0.838038
O O13 0.269866 0.500000 0.110526
O O14 0.202556 0.653699 0.088837
O O15 0.313447 0.674987 0.119295
O O16 0.888786 0.638120 0.500000
O O17 0.897437 0.500000 0.600568
O O18 0.126530 0.743895 0.000000
#
# Coordination Sequence:
#
# PCOD9493298 Si02
#       7
#    16   8  16  16  16  16  16
#     4  12  20  37  64  97 133 163 200 253 318 382
#     4   9  20  36  53  80 119 163 209 250 291 349
#     4  11  22  38  61  90 125 164 205 256 313 372
#     4  12  26  44  65  89 121 169 221 266 313 370
#     4  11  19  37  67  96 129 163 194 247 320 384
#     4  11  25  44  67  95 128 168 211 260 320 381
#     4  11  24  42  62  95 131 158 207 262 313 383
#
# _framework density 19.660551999999999
#
# number of rings (size 3 to 8) (size 9 to 14) (size 15 to 20)
#    0.000    0.846    6.154    2.769    2.154    3.385 
#    0.000    0.769    0.000    0.000    0.000    4.308 
#    0.000    0.000    0.000    0.000    0.000    0.000 
#
# Total GULP energy -290152.994012 kJ/mol
# GULP energy per Si atom -5579.865269 kJ/mol
# Density = 1.961580 g / cm^3
# Si number density = 19.660552 Si / 1000 Ang^3
#
#
#
# Elastic Constant Matrix: (Units=GPa)
#
#
# Indices 1 2 3 4 5 6 
#
# 1 137.2988 20.3322 62.9991 0.0000 0.0000 0.0000
# 2 20.3322 115.5775 31.1598 0.0000 0.0000 0.0000
# 3 62.9991 31.1598 150.5727 0.0000 0.0000 0.0000
# 4 0.0000 0.0000 0.0000 2.8154 0.0000 0.0000
# 5 0.0000 0.0000 0.0000 0.0000 15.4362 0.0000
# 6 0.0000 0.0000 0.0000 0.0000 0.0000 31.6409
#
#
#
# Elastic Compliance Matrix: (Units=1/GPa)
#
#
# Indices 1 2 3 4 5 6 
#
# 1 0.009054 -0.000605 -0.003663 0.000000 0.000000 0.000000
# 2 -0.000605 0.009204 -0.001651 0.000000 0.000000 0.000000
# 3 -0.003663 -0.001651 0.008516 0.000000 0.000000 0.000000
# 4 0.000000 0.000000 0.000000 0.355190 0.000000 0.000000
# 5 0.000000 0.000000 0.000000 0.000000 0.064783 0.000000
# 6 0.000000 0.000000 0.000000 0.000000 0.000000 0.031605
#
#
# Mechanical properties :
#
#
# Convention : Reuss Voigt Hill
#
# Bulk Modulus (GPa) = 66.96027 70.27016 68.61521
# Shear Modulus (GPa) = 10.09760 29.24234 19.66997
#
# Velocity S-wave (km/s) = 2.26873 3.86082 3.16647
# Velocity P-wave (km/s) = 6.40273 7.46283 6.95301
#
# Compressibility (1/GPa) = 0.01493423
#
# Stress axis : x y z
#
# Youngs Moduli (GPa) = 110.45253 108.64948 117.43213
#
# Poissons Ratio (x) = 0.06576 0.43013
# Poissons Ratio (y) = 0.06685 0.19393
# Poissons Ratio (z) = 0.40456 0.17943
#
# Static dielectric constant tensor:
#      x y z
#    x 1.694690 0.000000 0.000000 
#    y 0.000000 1.720380 0.000000 
#    z 0.000000 0.000000 1.733620 
# 
# From -- ./inp_files/45798.got.cif
#   From: 2010.05.17/outbox.cif.g08.bks.cpg/sg65_23_cif.got.tgz:45798.got - 2010.06.03 17:01:31.
