data_PCOD9493737
_publ_section_title
;
Structure prediction by ZEFSAII (Michael W. Deem and Ramdas Pophale) SiO2 
 PCOD9493737
Probable space group: C M M M
;
_chemical_formula_sum "Si O2"
_cell_formula_units_Z 88
_cell_length_a 8.524689
_cell_length_b 24.764589
_cell_length_c 23.692647
_cell_angle_alpha 90.000000
_cell_angle_beta 90.000000
_cell_angle_gamma 90.000000
_cell_volume 5001.764646
_symmetry_space_group_name_H-M "C M M M"
_symmetry_group_IT_number 65
_symmetry_cell_setting 'orthorhombic'
loop_
_space_group_symop_operation_xyz
x,y,z
-x,-y,z
x,-y,-z
-x,y,-z
-x,-y,-z
x,y,-z
-x,y,z
x,-y,z
1/2+x,1/2+y,z
1/2-x,1/2-y,z
1/2+x,1/2-y,-z
1/2-x,1/2+y,-z
1/2-x,1/2-y,-z
1/2+x,1/2+y,-z
1/2-x,1/2+y,z
1/2+x,1/2-y,z
loop_
_atom_site_type_symbol
_atom_site_label
_atom_site_fract_x
_atom_site_fract_y
_atom_site_fract_z
Si Si1 0.811748 0.614608 0.064272
Si Si2 0.188445 0.000000 0.566359
Si Si3 0.822758 0.000000 0.931828
Si Si4 0.689657 0.189821 0.835281
Si Si5 0.687881 0.688507 0.500000
Si Si6 0.811052 0.616270 0.396556
Si Si7 0.689326 0.189170 0.291835
O O1 0.766444 0.554451 0.082700
O O2 0.751935 0.654331 0.112562
O O3 0.000000 0.618767 0.061953
O O4 0.752967 0.624516 0.000000
O O5 0.249814 0.055407 0.594272
O O6 0.236147 0.000000 0.500000
O O7 0.000000 0.000000 0.568373
O O8 0.000000 0.000000 0.910012
O O9 0.829746 0.000000 0.000000
O O10 0.500000 0.188969 0.836259
O O11 0.750000 0.250000 0.843169
O O12 0.738555 0.173314 0.771839
O O13 0.500000 0.689537 0.500000
O O14 0.750000 0.750000 0.500000
O O15 0.748363 0.654997 0.446140
O O16 0.761651 0.645378 0.338260
O O17 0.000000 0.615046 0.398891
O O18 0.500000 0.191878 0.293009
O O19 0.750000 0.250000 0.303738
#
# Coordination Sequence:
#
# PCOD9493737 Si02
#       7
#    16   8   8  16   8  16  16
#     4   9  17  30  49  72  99 134 173 211 256 310
#     4  11  23  39  58  81 109 143 175 209 257 313
#     4   9  17  29  46  69  96 126 163 209 257 302
#     4   9  18  33  51  73 103 136 171 211 256 308
#     4  12  24  37  54  81 112 138 168 210 258 304
#     4  11  22  37  58  81 105 137 176 215 256 306
#     4   9  19  35  55  78 103 135 173 213 259 306
#
# _framework density 17.593789999999998
#
# number of rings (size 3 to 8) (size 9 to 14) (size 15 to 20)
#    0.000    2.182    0.909    2.455    0.000    5.455 
#    0.000    0.909    0.000    5.455    0.000    0.000 
#    0.000    0.000    0.000    0.000    0.000    0.000 
#
# Total GULP energy -245354.301842 kJ/mol
# GULP energy per Si atom -5576.234133 kJ/mol
# Density = 1.755375 g / cm^3
# Si number density = 17.593790 Si / 1000 Ang^3
#
#
#
# Elastic Constant Matrix: (Units=GPa)
#
#
# Indices 1 2 3 4 5 6 
#
# 1 27.2023 26.4784 29.0004 0.0000 0.0000 0.0000
# 2 26.4784 153.9507 116.0678 0.0000 0.0000 0.0000
# 3 29.0004 116.0678 156.4762 0.0000 0.0000 0.0000
# 4 0.0000 0.0000 0.0000 23.7573 0.0000 0.0000
# 5 0.0000 0.0000 0.0000 0.0000 10.2046 0.0000
# 6 0.0000 0.0000 0.0000 0.0000 0.0000 31.8825
#
#
#
# Elastic Compliance Matrix: (Units=1/GPa)
#
#
# Indices 1 2 3 4 5 6 
#
# 1 0.046590 -0.003410 -0.006105 0.000000 0.000000 0.000000
# 2 -0.003410 0.014987 -0.010484 0.000000 0.000000 0.000000
# 3 -0.006105 -0.010484 0.015299 0.000000 0.000000 0.000000
# 4 0.000000 0.000000 0.000000 0.042092 0.000000 0.000000
# 5 0.000000 0.000000 0.000000 0.000000 0.097995 0.000000
# 6 0.000000 0.000000 0.000000 0.000000 0.000000 0.031365
#
#
# Mechanical properties :
#
#
# Convention : Reuss Voigt Hill
#
# Bulk Modulus (GPa) = 27.11791 75.63582 51.37687
# Shear Modulus (GPa) = 16.63232 24.24105 20.43668
#
# Velocity S-wave (km/s) = 3.07799 3.71592 3.41190
# Velocity P-wave (km/s) = 5.29895 7.84182 6.69227
#
# Compressibility (1/GPa) = 0.03687600
#
# Stress axis : x y z
#
# Youngs Moduli (GPa) = 21.46391 66.72594 65.36294
#
# Poissons Ratio (x) = 0.22756 0.39904
# Poissons Ratio (y) = 0.07320 0.68530
# Poissons Ratio (z) = 0.13104 0.69959
#
# Static dielectric constant tensor:
#      x y z
#    x 1.601590 0.000000 0.000000 
#    y 0.000000 1.566970 0.000000 
#    z 0.000000 0.000000 1.619410 
# 
# From -- ./inp_files/67668.got.cif
#   From: 2010.05.17/outbox.cif.g08.bks.cpg/sg65_34_cif.got.tgz:67668.got - 2010.06.03 17:01:31.
