data_PCOD9493173
_publ_section_title
;
Structure prediction by ZEFSAII (Michael W. Deem and Ramdas Pophale) SiO2 
 PCOD9493173
Probable space group: C M M M
;
_chemical_formula_sum "Si O2"
_cell_formula_units_Z 72
_cell_length_a 12.946832
_cell_length_b 23.592187
_cell_length_c 10.409837
_cell_angle_alpha 90.000000
_cell_angle_beta 90.000000
_cell_angle_gamma 90.000000
_cell_volume 3179.623102
_symmetry_space_group_name_H-M "C M M M"
_symmetry_group_IT_number 65
_symmetry_cell_setting 'orthorhombic'
loop_
_space_group_symop_operation_xyz
x,y,z
-x,-y,z
x,-y,-z
-x,y,-z
-x,-y,-z
x,y,-z
-x,y,z
x,-y,z
1/2+x,1/2+y,z
1/2-x,1/2-y,z
1/2+x,1/2-y,-z
1/2-x,1/2+y,-z
1/2-x,1/2-y,-z
1/2+x,1/2+y,-z
1/2-x,1/2+y,z
1/2+x,1/2-y,z
loop_
_atom_site_type_symbol
_atom_site_label
_atom_site_fract_x
_atom_site_fract_y
_atom_site_fract_z
Si Si1 0.000000 0.067179 0.648084
Si Si2 0.123266 0.316020 0.362772
Si Si3 0.122219 0.772192 0.143269
Si Si4 0.329618 0.598603 0.141895
Si Si5 0.618727 0.063734 0.756223
O O1 0.098955 0.082108 0.737130
O O2 0.000000 0.090959 0.500000
O O3 0.000000 0.000000 0.634956
O O4 0.170900 0.301528 0.500000
O O5 0.151232 0.273665 0.249030
O O6 0.137499 0.382730 0.336164
O O7 0.000000 0.309112 0.370820
O O8 0.175350 0.833232 0.149154
O O9 0.000000 0.784713 0.158194
O O10 0.135812 0.747930 0.000000
O O11 0.216220 0.571027 0.150307
O O12 0.373844 0.584684 0.000000
O O13 0.500000 0.070239 0.807217
O O14 0.623634 0.000000 0.700543
#
# Coordination Sequence:
#
# PCOD9493173 Si02
#       5
#     8  16  16  16  16
#     4  11  25  43  65  99 139 175 218 275 338 401
#     4   9  19  37  63  94 127 170 223 272 330 400
#     4   9  18  36  62  94 131 167 210 266 334 403
#     4  11  23  42  69  99 133 177 226 274 332 403
#     4  10  23  42  63  93 135 178 225 282 338 389
#
# _framework density 22.644193000000001
#
# number of rings (size 3 to 8) (size 9 to 14) (size 15 to 20)
#    0.000    2.111    1.111    1.000    0.000    6.667 
#    0.000    8.889    0.000    0.000    0.000    0.000 
#    0.000    0.000    0.000    0.000    0.000    0.000 
#
# Total GULP energy -200777.340926 kJ/mol
# GULP energy per Si atom -5577.148359 kJ/mol
# Density = 2.259265 g / cm^3
# Si number density = 22.644193 Si / 1000 Ang^3
#
#
#
# Elastic Constant Matrix: (Units=GPa)
#
#
# Indices 1 2 3 4 5 6 
#
# 1 128.2743 30.4797 35.2540 0.0000 0.0000 0.0000
# 2 30.4797 143.8508 82.6267 0.0000 0.0000 0.0000
# 3 35.2540 82.6267 177.8821 0.0000 0.0000 0.0000
# 4 0.0000 0.0000 0.0000 -1.0149 0.0000 0.0000
# 5 0.0000 0.0000 0.0000 0.0000 -9.6970 0.0000
# 6 0.0000 0.0000 0.0000 0.0000 0.0000 42.1984
#
#
#
# Elastic Compliance Matrix: (Units=1/GPa)
#
#
# Indices 1 2 3 4 5 6 
#
# 1 0.008375 -0.001120 -0.001140 0.000000 0.000000 0.000000
# 2 -0.001120 0.009631 -0.004252 0.000000 0.000000 0.000000
# 3 -0.001140 -0.004252 0.007822 0.000000 0.000000 0.000000
# 4 0.000000 0.000000 0.000000 -0.985309 0.000000 0.000000
# 5 0.000000 0.000000 0.000000 0.000000 -0.103125 0.000000
# 6 0.000000 0.000000 0.000000 0.000000 0.000000 0.023698
#
#
# Mechanical properties :
#
#
# Convention : Reuss Voigt Hill
#
# Bulk Modulus (GPa) = 78.08764 82.96976 80.52870
# Shear Modulus (GPa) = -4.89420 26.40709 10.75644
#
# Velocity S-wave (km/s) = -1.47175 3.41863 2.18186
# Velocity P-wave (km/s) = 5.62774 7.23208 6.47975
#
# Compressibility (1/GPa) = 0.01280612
#
# Stress axis : x y z
#
# Youngs Moduli (GPa) = 119.40129 103.83036 127.83661
#
# Poissons Ratio (x) = 0.11629 0.14568
# Poissons Ratio (y) = 0.13373 0.54352
# Poissons Ratio (z) = 0.13607 0.44146
#
# Static dielectric constant tensor:
#      x y z
#    x 1.924830 0.000000 0.000000 
#    y 0.000000 1.796050 0.000000 
#    z 0.000000 0.000000 1.873800 
# 
# From -- ./inp_files/7249.got.cif
#   From: 2010.05.17/outbox.cif.g08.bks.cpg/sg65_4_cif.got.tgz:7249.got - 2010.06.03 17:01:31.
