data_PCOD9493369
_publ_section_title
;
Structure prediction by ZEFSAII (Michael W. Deem and Ramdas Pophale) SiO2 
 PCOD9493369
Probable space group: C M M M
;
_chemical_formula_sum "Si O2"
_cell_formula_units_Z 72
_cell_length_a 14.466320
_cell_length_b 33.992559
_cell_length_c 9.429303
_cell_angle_alpha 90.000000
_cell_angle_beta 90.000000
_cell_angle_gamma 90.000000
_cell_volume 4636.833689
_symmetry_space_group_name_H-M "C M M M"
_symmetry_group_IT_number 65
_symmetry_cell_setting 'orthorhombic'
loop_
_space_group_symop_operation_xyz
x,y,z
-x,-y,z
x,-y,-z
-x,y,-z
-x,-y,-z
x,y,-z
-x,y,z
x,-y,z
1/2+x,1/2+y,z
1/2-x,1/2-y,z
1/2+x,1/2-y,-z
1/2-x,1/2+y,-z
1/2-x,1/2-y,-z
1/2+x,1/2+y,-z
1/2-x,1/2+y,z
1/2+x,1/2-y,z
loop_
_atom_site_type_symbol
_atom_site_label
_atom_site_fract_x
_atom_site_fract_y
_atom_site_fract_z
Si Si1 0.612333 0.500000 0.337028
Si Si2 0.278545 0.343057 0.830732
Si Si3 0.392037 0.185126 0.668668
Si Si4 0.389380 0.722673 0.664306
Si Si5 0.891077 0.077943 0.831292
O O1 0.500000 0.500000 0.335918
O O2 0.642951 0.500000 0.500000
O O3 0.639828 0.539602 0.255156
O O4 0.178420 0.340524 0.758668
O O5 0.336963 0.307040 0.765754
O O6 0.331823 0.383525 0.797173
O O7 0.272194 0.339429 0.000000
O O8 0.379830 0.178912 0.500000
O O9 0.500000 0.178488 0.701861
O O10 0.371321 0.231422 0.695851
O O11 0.362150 0.715522 0.500000
O O12 0.500000 0.717030 0.674378
O O13 0.000000 0.085365 0.800900
O O14 0.883822 0.070241 0.000000
#
# Coordination Sequence:
#
# PCOD9493369 Si02
#       5
#     8  16  16  16  16
#     4   9  17  29  47  71  94 117 150 187 217 254
#     4  11  21  30  45  71  97 121 153 193 234 275
#     4   9  19  35  50  63  85 122 164 200 236 277
#     4   9  18  32  48  65  89 124 161 194 231 276
#     4   9  18  32  47  65  95 130 153 173 215 275
#
# _framework density 15.527837
#
# number of rings (size 3 to 8) (size 9 to 14) (size 15 to 20)
#    0.000    2.556    0.000    3.667    0.000    8.444 
#    0.000    4.444    0.000    0.000    0.000    0.778 
#    0.000    6.222    0.000    0.000    0.000    0.000 
#
# Total GULP energy -200829.497905 kJ/mol
# GULP energy per Si atom -5578.597164 kJ/mol
# Density = 1.549250 g / cm^3
# Si number density = 15.527837 Si / 1000 Ang^3
#
#
#
# Elastic Constant Matrix: (Units=GPa)
#
#
# Indices 1 2 3 4 5 6 
#
# 1 79.1339 73.1982 59.0235 0.0000 0.0000 0.0000
# 2 73.1982 102.8809 76.3581 0.0000 0.0000 0.0000
# 3 59.0235 76.3581 71.9837 0.0000 0.0000 0.0000
# 4 0.0000 0.0000 0.0000 45.1548 0.0000 0.0000
# 5 0.0000 0.0000 0.0000 0.0000 26.3531 0.0000
# 6 0.0000 0.0000 0.0000 0.0000 0.0000 19.2859
#
#
#
# Elastic Compliance Matrix: (Units=1/GPa)
#
#
# Indices 1 2 3 4 5 6 
#
# 1 0.039041 -0.018890 -0.011974 0.000000 0.000000 0.000000
# 2 -0.018890 0.054839 -0.042682 0.000000 0.000000 0.000000
# 3 -0.011974 -0.042682 0.068986 0.000000 0.000000 0.000000
# 4 0.000000 0.000000 0.000000 0.022146 0.000000 0.000000
# 5 0.000000 0.000000 0.000000 0.000000 0.037946 0.000000
# 6 0.000000 0.000000 0.000000 0.000000 0.000000 0.051851
#
#
# Mechanical properties :
#
#
# Convention : Reuss Voigt Hill
#
# Bulk Modulus (GPa) = 63.39767 74.57312 68.98539
# Shear Modulus (GPa) = 11.70524 21.18666 16.44595
#
# Velocity S-wave (km/s) = 2.74856 3.69783 3.25795
# Velocity P-wave (km/s) = 7.14072 8.14626 7.66001
#
# Compressibility (1/GPa) = 0.01577345
#
# Stress axis : x y z
#
# Youngs Moduli (GPa) = 25.61422 18.23529 14.49570
#
# Poissons Ratio (x) = 0.34447 0.17357
# Poissons Ratio (y) = 0.48385 0.61871
# Poissons Ratio (z) = 0.30670 0.77832
#
# Static dielectric constant tensor:
#      x y z
#    x 1.521350 0.000000 0.000000 
#    y 0.000000 1.493100 0.000000 
#    z 0.000000 0.000000 1.512720 
# 
# From -- ./inp_files/7198.got.cif
#   From: 2010.05.17/outbox.cif.g08.bks.cpg/sg65_4_cif.got.tgz:7198.got - 2010.06.03 17:01:31.
