data_PCOD9493646
_publ_section_title
;
Structure prediction by ZEFSAII (Michael W. Deem and Ramdas Pophale) SiO2 
 PCOD9493646
Probable space group: C M M M
;
_chemical_formula_sum "Si O2"
_cell_formula_units_Z 64
_cell_length_a 18.620150
_cell_length_b 7.922781
_cell_length_c 23.275739
_cell_angle_alpha 90.000000
_cell_angle_beta 90.000000
_cell_angle_gamma 90.000000
_cell_volume 3433.715471
_symmetry_space_group_name_H-M "C M M M"
_symmetry_group_IT_number 65
_symmetry_cell_setting 'orthorhombic'
loop_
_space_group_symop_operation_xyz
x,y,z
-x,-y,z
x,-y,-z
-x,y,-z
-x,-y,-z
x,y,-z
-x,y,z
x,-y,z
1/2+x,1/2+y,z
1/2-x,1/2-y,z
1/2+x,1/2-y,-z
1/2-x,1/2+y,-z
1/2-x,1/2-y,-z
1/2+x,1/2+y,-z
1/2-x,1/2+y,z
1/2+x,1/2-y,z
loop_
_atom_site_type_symbol
_atom_site_label
_atom_site_fract_x
_atom_site_fract_y
_atom_site_fract_z
Si Si1 0.587547 0.194647 0.147256
Si Si2 0.917112 0.207031 0.500000
Si Si3 0.081323 0.702407 0.274902
Si Si4 0.167196 0.799443 0.387614
Si Si5 0.587672 0.500000 0.066145
O O1 0.500000 0.191221 0.147574
O O2 0.607870 0.254576 0.211592
O O3 0.610424 0.331426 0.100277
O O4 0.610875 0.000000 0.137352
O O5 0.876652 0.266902 0.442686
O O6 0.000000 0.258729 0.500000
O O7 0.915982 0.000000 0.500000
O O8 0.076702 0.500000 0.271430
O O9 0.131421 0.745881 0.327908
O O10 0.000000 0.768364 0.284346
O O11 0.250000 0.750000 0.390811
O O12 0.162846 0.000000 0.390162
O O13 0.500000 0.500000 0.066503
O O14 0.610822 0.500000 0.000000
#
# Coordination Sequence:
#
# PCOD9493646 Si02
#       5
#    16   8  16  16   8
#     4   8  15  27  42  63  95 133 170 214 263 310
#     4   9  19  36  55  77 102 131 176 219 258 314
#     4   9  18  33  52  74 100 132 173 219 264 316
#     4  11  22  35  53  75 104 139 170 216 266 316
#     4   9  16  24  38  64  98 135 175 213 253 315
#
# _framework density 18.638703
#
# number of rings (size 3 to 8) (size 9 to 14) (size 15 to 20)
#    0.000    2.750    0.000    3.375    1.750    2.000 
#    0.000    4.375    0.000    4.500    0.000    0.000 
#    0.000    1.000    0.500    0.000    0.000    0.000 
#
# Total GULP energy -178430.139614 kJ/mol
# GULP energy per Si atom -5575.941863 kJ/mol
# Density = 1.859628 g / cm^3
# Si number density = 18.638703 Si / 1000 Ang^3
#
#
#
# Elastic Constant Matrix: (Units=GPa)
#
#
# Indices 1 2 3 4 5 6 
#
# 1 75.5990 18.3736 73.5542 0.0000 0.0000 0.0000
# 2 18.3736 60.0465 66.3761 0.0000 0.0000 0.0000
# 3 73.5542 66.3761 210.5049 0.0000 0.0000 0.0000
# 4 0.0000 0.0000 0.0000 27.5138 0.0000 0.0000
# 5 0.0000 0.0000 0.0000 0.0000 -4.8556 0.0000
# 6 0.0000 0.0000 0.0000 0.0000 0.0000 5.7543
#
#
#
# Elastic Compliance Matrix: (Units=1/GPa)
#
#
# Indices 1 2 3 4 5 6 
#
# 1 0.020282 0.002499 -0.007875 0.000000 0.000000 0.000000
# 2 0.002499 0.025872 -0.009031 0.000000 0.000000 0.000000
# 3 -0.007875 -0.009031 0.010350 0.000000 0.000000 0.000000
# 4 0.000000 0.000000 0.000000 0.036345 0.000000 0.000000
# 5 0.000000 0.000000 0.000000 0.000000 -0.205948 0.000000
# 6 0.000000 0.000000 0.000000 0.000000 0.000000 0.173784
#
#
# Mechanical properties :
#
#
# Convention : Reuss Voigt Hill
#
# Bulk Modulus (GPa) = 36.11413 73.63979 54.87696
# Shear Modulus (GPa) = 50.64332 18.20559 34.42446
#
# Velocity S-wave (km/s) = 5.21824 3.12871 4.30226
# Velocity P-wave (km/s) = 7.46490 7.25580 7.36109
#
# Compressibility (1/GPa) = 0.02768999
#
# Stress axis : x y z
#
# Youngs Moduli (GPa) = 49.30405 38.65136 96.61985
#
# Poissons Ratio (x) = -0.09659 0.76088
# Poissons Ratio (y) = -0.12321 0.87259
# Poissons Ratio (z) = 0.38827 0.34907
#
# Static dielectric constant tensor:
#      x y z
#    x 1.599210 0.000000 0.000000 
#    y 0.000000 1.661550 0.000000 
#    z 0.000000 0.000000 1.658970 
# 
# From -- ./inp_files/55302.got.cif
#   From: 2010.05.17/outbox.cif.g08.bks.cpg/sg65_28_cif.got.tgz:55302.got - 2010.06.03 17:01:31.
