data_PCOD9493457
_publ_section_title
;
Structure prediction by ZEFSAII (Michael W. Deem and Ramdas Pophale) SiO2 
 PCOD9493457
Probable space group: C M M M
;
_chemical_formula_sum "Si O2"
_cell_formula_units_Z 72
_cell_length_a 14.708593
_cell_length_b 32.555761
_cell_length_c 8.263264
_cell_angle_alpha 90.000000
_cell_angle_beta 90.000000
_cell_angle_gamma 90.000000
_cell_volume 3956.859325
_symmetry_space_group_name_H-M "C M M M"
_symmetry_group_IT_number 65
_symmetry_cell_setting 'orthorhombic'
loop_
_space_group_symop_operation_xyz
x,y,z
-x,-y,z
x,-y,-z
-x,y,-z
-x,-y,-z
x,y,-z
-x,y,z
x,-y,z
1/2+x,1/2+y,z
1/2-x,1/2-y,z
1/2+x,1/2-y,-z
1/2-x,1/2+y,-z
1/2-x,1/2-y,-z
1/2+x,1/2+y,-z
1/2-x,1/2+y,z
1/2+x,1/2-y,z
loop_
_atom_site_type_symbol
_atom_site_label
_atom_site_fract_x
_atom_site_fract_y
_atom_site_fract_z
Si Si1 0.500000 0.760029 0.305855
Si Si2 0.500000 0.335899 0.302474
Si Si3 0.306461 0.210067 0.193570
Si Si4 0.000000 0.048799 0.819609
Si Si5 0.697294 0.631298 0.308135
Si Si6 0.697649 0.453857 0.804498
O O1 0.500000 0.759980 0.500000
O O2 0.500000 0.712001 0.252837
O O3 0.590104 0.782291 0.243741
O O4 0.500000 0.337025 0.500000
O O5 0.405601 0.357185 0.246903
O O6 0.250000 0.250000 0.249565
O O7 0.260577 0.169751 0.266118
O O8 0.299948 0.207558 0.000000
O O9 0.904055 0.054886 0.735477
O O10 0.000000 0.000000 0.843878
O O11 0.000000 0.068133 0.000000
O O12 0.690628 0.627005 0.500000
O O13 0.742191 0.589238 0.240545
O O14 0.727319 0.500000 0.752637
O O15 0.691067 0.455742 0.000000
#
# Coordination Sequence:
#
# PCOD9493457 Si02
#       6
#     8   8  16   8  16  16
#     4  11  21  38  60  79 107 145 181 219 270 324
#     4   9  19  32  49  75 108 144 182 222 267 320
#     4  11  23  38  56  81 110 140 180 225 269 319
#     4   7  11  22  41  63  90 129 173 212 255 308
#     4  11  21  34  52  77 108 145 186 225 271 323
#     4   9  17  30  47  69 100 138 179 224 272 318
#
# _framework density 18.196249000000002
#
# number of rings (size 3 to 8) (size 9 to 14) (size 15 to 20)
#    0.000    2.111    2.222    3.667    0.000    1.333 
#    0.000    1.667    0.000    4.000    0.000    0.778 
#    0.000    6.222    0.000    0.000    0.000    0.000 
#
# Total GULP energy -200508.704243 kJ/mol
# GULP energy per Si atom -5569.686229 kJ/mol
# Density = 1.815483 g / cm^3
# Si number density = 18.196249 Si / 1000 Ang^3
#
#
#
# Elastic Constant Matrix: (Units=GPa)
#
#
# Indices 1 2 3 4 5 6 
#
# 1 79.8458 47.4142 7.0286 0.0000 0.0000 0.0000
# 2 47.4142 188.2721 27.2472 0.0000 0.0000 0.0000
# 3 7.0286 27.2472 29.7296 0.0000 0.0000 0.0000
# 4 0.0000 0.0000 0.0000 21.1369 0.0000 0.0000
# 5 0.0000 0.0000 0.0000 0.0000 35.1619 0.0000
# 6 0.0000 0.0000 0.0000 0.0000 0.0000 21.0686
#
#
#
# Elastic Compliance Matrix: (Units=1/GPa)
#
#
# Indices 1 2 3 4 5 6 
#
# 1 0.014727 -0.003695 -0.000095 0.000000 0.000000 0.000000
# 2 -0.003695 0.007051 -0.005588 0.000000 0.000000 0.000000
# 3 -0.000095 -0.005588 0.038781 0.000000 0.000000 0.000000
# 4 0.000000 0.000000 0.000000 0.047311 0.000000 0.000000
# 5 0.000000 0.000000 0.000000 0.000000 0.028440 0.000000
# 6 0.000000 0.000000 0.000000 0.000000 0.000000 0.047464
#
#
# Mechanical properties :
#
#
# Convention : Reuss Voigt Hill
#
# Bulk Modulus (GPa) = 23.92286 51.24749 37.58518
# Shear Modulus (GPa) = 23.09854 29.88398 26.49126
#
# Velocity S-wave (km/s) = 3.56675 4.05695 3.81972
# Velocity P-wave (km/s) = 5.48980 7.08308 6.33671
#
# Compressibility (1/GPa) = 0.04180102
#
# Stress axis : x y z
#
# Youngs Moduli (GPa) = 67.90403 141.82839 25.78589
#
# Poissons Ratio (x) = 0.52405 0.00245
# Poissons Ratio (y) = 0.25090 0.14410
# Poissons Ratio (z) = 0.00646 0.79261
#
# Static dielectric constant tensor:
#      x y z
#    x 1.772230 0.000000 0.000000 
#    y 0.000000 1.676000 0.000000 
#    z 0.000000 0.000000 1.639170 
# 
# From -- ./inp_files/7353.got.cif
#   From: 2010.05.17/outbox.cif.g08.bks.cpg/sg65_4_cif.got.tgz:7353.got - 2010.06.03 17:01:31.
