data_PCOD9493826
_publ_section_title
;
Structure prediction by ZEFSAII (Michael W. Deem and Ramdas Pophale) SiO2 
 PCOD9493826
Probable space group: C M M M
;
_chemical_formula_sum "Si O2"
_cell_formula_units_Z 50
_cell_length_a 7.901757
_cell_length_b 25.072063
_cell_length_c 13.005980
_cell_angle_alpha 90.000000
_cell_angle_beta 90.000000
_cell_angle_gamma 90.000000
_cell_volume 2576.658259
_symmetry_space_group_name_H-M "C M M M"
_symmetry_group_IT_number 65
_symmetry_cell_setting 'orthorhombic'
loop_
_space_group_symop_operation_xyz
x,y,z
-x,-y,z
x,-y,-z
-x,y,-z
-x,-y,-z
x,y,-z
-x,y,z
x,-y,z
1/2+x,1/2+y,z
1/2-x,1/2-y,z
1/2+x,1/2-y,-z
1/2-x,1/2+y,-z
1/2-x,1/2-y,-z
1/2+x,1/2+y,-z
1/2-x,1/2+y,z
1/2+x,1/2-y,z
loop_
_atom_site_type_symbol
_atom_site_label
_atom_site_fract_x
_atom_site_fract_y
_atom_site_fract_z
Si Si1 0.186236 0.000000 0.658409
Si Si2 0.703350 0.811859 0.385214
Si Si3 0.297167 0.562932 0.000000
Si Si4 0.000000 0.500000 0.500000
Si Si5 0.297614 0.898673 0.220924
O O1 0.204157 0.948318 0.728575
O O2 0.349462 0.000000 0.586670
O O3 0.000000 0.000000 0.610514
O O4 0.764447 0.829812 0.500000
O O5 0.500000 0.815540 0.388426
O O6 0.750000 0.750000 0.373472
O O7 0.758821 0.847439 0.288401
O O8 0.238256 0.595346 0.899540
O O9 0.237430 0.500000 0.000000
O O10 0.500000 0.560774 0.000000
O O11 0.500000 0.903793 0.235318
#
# Coordination Sequence:
#
# PCOD9493826 Si02
#       5
#     8  16   8   2  16
#     4  12  25  40  62  93 127 172 212 256 321 383
#     4   9  20  38  62  89 123 162 205 255 313 379
#     4  11  23  39  60  89 123 160 215 267 312 384
#     4  12  26  44  56  88 140 168 210 264 318 376
#     4  11  22  39  64  90 125 167 209 261 321 380
#
# _framework density 19.404979999999998
#
# number of rings (size 3 to 8) (size 9 to 14) (size 15 to 20)
#    0.000    1.440    3.200    1.680    2.240    3.200 
#    0.000    0.800    0.000    0.000    0.000    0.000 
#    0.000    0.000    0.000    0.000    0.000    0.000 
#
# Total GULP energy -139201.439510 kJ/mol
# GULP energy per Si atom -5568.057580 kJ/mol
# Density = 1.936081 g / cm^3
# Si number density = 19.404980 Si / 1000 Ang^3
#
#
#
# Elastic Constant Matrix: (Units=GPa)
#
#
# Indices 1 2 3 4 5 6 
#
# 1 98.8695 14.8026 39.0662 0.0000 0.0000 0.0000
# 2 14.8026 104.6449 92.2503 0.0000 0.0000 0.0000
# 3 39.0662 92.2503 202.7518 0.0000 0.0000 0.0000
# 4 0.0000 0.0000 0.0000 44.7313 0.0000 0.0000
# 5 0.0000 0.0000 0.0000 0.0000 70.9433 0.0000
# 6 0.0000 0.0000 0.0000 0.0000 0.0000 3.0092
#
#
#
# Elastic Compliance Matrix: (Units=1/GPa)
#
#
# Indices 1 2 3 4 5 6 
#
# 1 0.010965 0.000520 -0.002349 0.000000 0.000000 0.000000
# 2 0.000520 0.015981 -0.007371 0.000000 0.000000 0.000000
# 3 -0.002349 -0.007371 0.008739 0.000000 0.000000 0.000000
# 4 0.000000 0.000000 0.000000 0.022356 0.000000 0.000000
# 5 0.000000 0.000000 0.000000 0.000000 0.014096 0.000000
# 6 0.000000 0.000000 0.000000 0.000000 0.000000 0.332314
#
#
# Mechanical properties :
#
#
# Convention : Reuss Voigt Hill
#
# Bulk Modulus (GPa) = 57.86021 77.61160 67.73591
# Shear Modulus (GPa) = 11.66558 41.07991 26.37274
#
# Velocity S-wave (km/s) = 2.45452 4.60605 3.69056
# Velocity P-wave (km/s) = 6.15750 8.26863 7.28989
#
# Compressibility (1/GPa) = 0.01728303
#
# Stress axis : x y z
#
# Youngs Moduli (GPa) = 91.20122 62.57515 114.43378
#
# Poissons Ratio (x) = -0.03254 0.26884
# Poissons Ratio (y) = -0.04742 0.84353
# Poissons Ratio (z) = 0.21426 0.46126
#
# Static dielectric constant tensor:
#      x y z
#    x 1.689660 0.000000 0.000000 
#    y 0.000000 1.635730 0.000000 
#    z 0.000000 0.000000 1.727560 
# 
# From -- ./inp_files/35324.got.cif
#   From: 2010.05.17/outbox.cif.g08.bks.cpg/sg65_18_cif.got.tgz:35324.got - 2010.06.03 17:01:31.
