data_PCOD9493465
_publ_section_title
;
Structure prediction by ZEFSAII (Michael W. Deem and Ramdas Pophale) SiO2 
 PCOD9493465
Probable space group: C M M M
;
_chemical_formula_sum "Si O2"
_cell_formula_units_Z 88
_cell_length_a 29.594330
_cell_length_b 10.975723
_cell_length_c 14.488299
_cell_angle_alpha 90.000000
_cell_angle_beta 90.000000
_cell_angle_gamma 90.000000
_cell_volume 4706.077233
_symmetry_space_group_name_H-M "C M M M"
_symmetry_group_IT_number 65
_symmetry_cell_setting 'orthorhombic'
loop_
_space_group_symop_operation_xyz
x,y,z
-x,-y,z
x,-y,-z
-x,y,-z
-x,-y,-z
x,y,-z
-x,y,z
x,-y,z
1/2+x,1/2+y,z
1/2-x,1/2-y,z
1/2+x,1/2-y,-z
1/2-x,1/2+y,-z
1/2-x,1/2-y,-z
1/2+x,1/2+y,-z
1/2-x,1/2+y,z
1/2+x,1/2-y,z
loop_
_atom_site_type_symbol
_atom_site_label
_atom_site_fract_x
_atom_site_fract_y
_atom_site_fract_z
Si Si1 0.054634 0.500000 0.895290
Si Si2 0.946200 0.730588 0.769016
Si Si3 0.883768 0.857146 0.102819
Si Si4 0.218162 0.361341 0.612538
Si Si5 0.215984 0.857721 0.112529
Si Si6 0.113741 0.645190 0.607177
O O1 0.066869 0.383536 0.834684
O O2 0.000000 0.500000 0.901444
O O3 0.072324 0.500000 0.000000
O O4 0.924184 0.838369 0.826749
O O5 0.921284 0.712891 0.672441
O O6 0.000000 0.736368 0.759801
O O7 0.834786 0.814739 0.138206
O O8 0.876796 0.000000 0.092311
O O9 0.893488 0.806139 0.000000
O O10 0.219554 0.363684 0.500000
O O11 0.230407 0.500000 0.642463
O O12 0.250000 0.250000 0.642594
O O13 0.165831 0.337187 0.636878
O O14 0.250000 0.750000 0.141218
O O15 0.224676 0.000000 0.141992
O O16 0.216591 0.861282 0.000000
O O17 0.109663 0.681224 0.500000
O O18 0.104865 0.500000 0.612667
#
# Coordination Sequence:
#
# PCOD9493465 Si02
#       6
#     8  16  16  16  16  16
#     4   9  18  32  49  73 105 135 164 214 281 327
#     4  11  21  34  53  77 106 139 179 230 276 320
#     4   9  19  36  56  77 104 141 183 225 271 326
#     4   8  14  27  50  78 106 138 174 216 270 328
#     4   8  14  28  50  75 105 140 178 220 267 322
#     4   9  18  34  55  79 109 144 180 218 266 330
#
# _framework density 18.699224999999998
#
# number of rings (size 3 to 8) (size 9 to 14) (size 15 to 20)
#    0.000    3.000    0.909    2.727    0.000    1.818 
#    1.636    3.636    0.000    6.000    0.000    1.273 
#    0.000    0.000    0.000    0.000    0.000    0.000 
#
# Total GULP energy -245032.500565 kJ/mol
# GULP energy per Si atom -5568.920467 kJ/mol
# Density = 1.865667 g / cm^3
# Si number density = 18.699225 Si / 1000 Ang^3
#
#
#
# Elastic Constant Matrix: (Units=GPa)
#
#
# Indices 1 2 3 4 5 6 
#
# 1 116.7305 51.6807 50.4043 0.0000 0.0000 0.0000
# 2 51.6807 59.1798 21.7052 0.0000 0.0000 0.0000
# 3 50.4043 21.7052 78.8322 0.0000 0.0000 0.0000
# 4 0.0000 0.0000 0.0000 -4.7438 0.0000 0.0000
# 5 0.0000 0.0000 0.0000 0.0000 11.9574 0.0000
# 6 0.0000 0.0000 0.0000 0.0000 0.0000 24.2990
#
#
#
# Elastic Compliance Matrix: (Units=1/GPa)
#
#
# Indices 1 2 3 4 5 6 
#
# 1 0.017348 -0.012326 -0.007698 0.000000 0.000000 0.000000
# 2 -0.012326 0.027554 0.000295 0.000000 0.000000 0.000000
# 3 -0.007698 0.000295 0.017526 0.000000 0.000000 0.000000
# 4 0.000000 0.000000 0.000000 -0.210801 0.000000 0.000000
# 5 0.000000 0.000000 0.000000 0.000000 0.083630 0.000000
# 6 0.000000 0.000000 0.000000 0.000000 0.000000 0.041154
#
#
# Mechanical properties :
#
#
# Convention : Reuss Voigt Hill
#
# Bulk Modulus (GPa) = 43.53787 55.81366 49.67576
# Shear Modulus (GPa) = 212.51187 15.03265 113.77226
#
# Velocity S-wave (km/s) = 10.67212 2.83842 7.80867
# Velocity P-wave (km/s) = 13.23604 6.37613 10.38864
#
# Compressibility (1/GPa) = 0.02296851
#
# Stress axis : x y z
#
# Youngs Moduli (GPa) = 57.64278 36.29240 57.05725
#
# Poissons Ratio (x) = 0.44735 0.43925
# Poissons Ratio (y) = 0.71053 -0.01682
# Poissons Ratio (z) = 0.44376 -0.01070
#
# Static dielectric constant tensor:
#      x y z
#    x 1.635980 0.000000 0.000000 
#    y 0.000000 1.657760 0.000000 
#    z 0.000000 0.000000 1.667980 
# 
# From -- ./inp_files/38409.got.cif
#   From: 2010.05.17/outbox.cif.g08.bks.cpg/sg65_20_cif.got.tgz:38409.got - 2010.06.03 17:01:31.
