data_PCOD9493423
_publ_section_title
;
Structure prediction by ZEFSAII (Michael W. Deem and Ramdas Pophale) SiO2 
 PCOD9493423
Probable space group: C M M M
;
_chemical_formula_sum "Si O2"
_cell_formula_units_Z 104
_cell_length_a 29.573209
_cell_length_b 8.336378
_cell_length_c 23.798870
_cell_angle_alpha 90.000000
_cell_angle_beta 90.000000
_cell_angle_gamma 90.000000
_cell_volume 5867.217501
_symmetry_space_group_name_H-M "C M M M"
_symmetry_group_IT_number 65
_symmetry_cell_setting 'orthorhombic'
loop_
_space_group_symop_operation_xyz
x,y,z
-x,-y,z
x,-y,-z
-x,y,-z
-x,-y,-z
x,y,-z
-x,y,z
x,-y,z
1/2+x,1/2+y,z
1/2-x,1/2-y,z
1/2+x,1/2-y,-z
1/2-x,1/2+y,-z
1/2-x,1/2-y,-z
1/2+x,1/2+y,-z
1/2-x,1/2+y,z
1/2+x,1/2-y,z
loop_
_atom_site_type_symbol
_atom_site_label
_atom_site_fract_x
_atom_site_fract_y
_atom_site_fract_z
Si Si1 0.698490 0.307513 0.280414
Si Si2 0.854391 0.308041 0.390656
Si Si3 0.857057 0.804193 0.829996
Si Si4 0.550373 0.806251 0.649987
Si Si5 0.698501 0.310350 0.500000
Si Si6 0.800878 0.805995 0.936345
Si Si7 0.949578 0.805922 0.778213
O O1 0.697519 0.500000 0.282257
O O2 0.750000 0.250000 0.281518
O O3 0.671579 0.243465 0.334239
O O4 0.673841 0.255199 0.222944
O O5 0.854956 0.500000 0.393145
O O6 0.906444 0.250153 0.385541
O O7 0.827990 0.246472 0.444761
O O8 0.835138 0.749237 0.888294
O O9 0.908188 0.751711 0.816963
O O10 0.857092 0.000000 0.830991
O O11 0.500000 0.750254 0.632814
O O12 0.557479 0.753744 0.714550
O O13 0.550059 0.000000 0.648453
O O14 0.700011 0.500000 0.500000
O O15 0.750000 0.250000 0.500000
O O16 0.750000 0.750000 0.923227
O O17 0.801130 0.000000 0.936116
O O18 0.811756 0.752510 0.000000
O O19 0.000000 0.754942 0.796037
O O20 0.948809 0.000000 0.776718
#
# Coordination Sequence:
#
# PCOD9493423 Si02
#       7
#    16  16  16  16   8  16  16
#     4  11  21  33  49  72 103 133 166 209 258 307
#     4  11  22  38  58  80 106 136 171 208 252 303
#     4   9  17  29  46  71 100 129 165 208 256 304
#     4   9  18  33  54  80 108 135 165 205 252 301
#     4  12  26  44  63  80 103 137 178 215 251 298
#     4   9  17  30  47  66  93 131 172 212 253 300
#     4   9  16  28  48  72  99 131 166 204 250 305
#
# _framework density 17.725608000000001
#
# number of rings (size 3 to 8) (size 9 to 14) (size 15 to 20)
#    0.000    2.154    1.538    2.538    0.000    0.615 
#    0.000    1.923    0.000    2.769    0.000    3.231 
#    0.000    0.000    0.000    7.692    0.000    8.000 
#
# Total GULP energy -290135.848191 kJ/mol
# GULP energy per Si atom -5579.535542 kJ/mol
# Density = 1.768526 g / cm^3
# Si number density = 17.725608 Si / 1000 Ang^3
#
#
#
# Elastic Constant Matrix: (Units=GPa)
#
#
# Indices 1 2 3 4 5 6 
#
# 1 198.4495 26.1225 104.3268 0.0000 0.0000 0.0000
# 2 26.1225 26.3875 19.7219 0.0000 0.0000 0.0000
# 3 104.3268 19.7219 126.2870 0.0000 0.0000 0.0000
# 4 0.0000 0.0000 0.0000 1.4571 0.0000 0.0000
# 5 0.0000 0.0000 0.0000 0.0000 31.9935 0.0000
# 6 0.0000 0.0000 0.0000 0.0000 0.0000 9.9877
#
#
#
# Elastic Compliance Matrix: (Units=1/GPa)
#
#
# Indices 1 2 3 4 5 6 
#
# 1 0.009249 -0.003901 -0.007032 0.000000 0.000000 0.000000
# 2 -0.003901 0.044550 -0.003735 0.000000 0.000000 0.000000
# 3 -0.007032 -0.003735 0.014311 0.000000 0.000000 0.000000
# 4 0.000000 0.000000 0.000000 0.686303 0.000000 0.000000
# 5 0.000000 0.000000 0.000000 0.000000 0.031256 0.000000
# 6 0.000000 0.000000 0.000000 0.000000 0.000000 0.100124
#
#
# Mechanical properties :
#
#
# Convention : Reuss Voigt Hill
#
# Bulk Modulus (GPa) = 25.78975 72.38515 49.08745
# Shear Modulus (GPa) = 5.38763 22.08452 13.73607
#
# Velocity S-wave (km/s) = 1.74530 3.53357 2.78677
# Velocity P-wave (km/s) = 4.31769 7.58771 6.17316
#
# Compressibility (1/GPa) = 0.03877509
#
# Stress axis : x y z
#
# Youngs Moduli (GPa) = 108.11832 22.44689 69.87848
#
# Poissons Ratio (x) = 0.08756 0.49136
# Poissons Ratio (y) = 0.42175 0.26097
# Poissons Ratio (z) = 0.76024 0.08383
#
# Static dielectric constant tensor:
#      x y z
#    x 1.623200 0.000000 0.000000 
#    y 0.000000 1.578370 0.000000 
#    z 0.000000 0.000000 1.614050 
# 
# From -- ./inp_files/66350.got.cif
#   From: 2010.05.17/outbox.cif.g08.bks.cpg/sg65_34_cif.got.tgz:66350.got - 2010.06.03 17:01:31.
