data_PCOD9493953
_publ_section_title
;
Structure prediction by ZEFSAII (Michael W. Deem and Ramdas Pophale) SiO2 
 PCOD9493953
Probable space group: C M M M
;
_chemical_formula_sum "Si O2"
_cell_formula_units_Z 72
_cell_length_a 14.684519
_cell_length_b 30.346656
_cell_length_c 8.701542
_cell_angle_alpha 90.000000
_cell_angle_beta 90.000000
_cell_angle_gamma 90.000000
_cell_volume 3877.633761
_symmetry_space_group_name_H-M "C M M M"
_symmetry_group_IT_number 65
_symmetry_cell_setting 'orthorhombic'
loop_
_space_group_symop_operation_xyz
x,y,z
-x,-y,z
x,-y,-z
-x,y,-z
-x,-y,-z
x,y,-z
-x,y,z
x,-y,z
1/2+x,1/2+y,z
1/2-x,1/2-y,z
1/2+x,1/2-y,-z
1/2-x,1/2+y,-z
1/2-x,1/2-y,-z
1/2+x,1/2+y,-z
1/2-x,1/2+y,z
1/2+x,1/2-y,z
loop_
_atom_site_type_symbol
_atom_site_label
_atom_site_fract_x
_atom_site_fract_y
_atom_site_fract_z
Si Si1 0.316861 0.370479 0.316347
Si Si2 0.500000 0.667327 0.181992
Si Si3 0.191604 0.294860 0.818114
Si Si4 0.000000 0.446410 0.177159
Si Si5 0.308517 0.050532 0.315115
Si Si6 0.000000 0.734307 0.683608
O O1 0.331622 0.370170 0.500000
O O2 0.410128 0.358877 0.231596
O O3 0.244069 0.333164 0.270959
O O4 0.272478 0.417013 0.269753
O O5 0.500000 0.714339 0.267598
O O6 0.500000 0.675679 0.000000
O O7 0.250000 0.250000 0.798811
O O8 0.090985 0.287026 0.753260
O O9 0.188403 0.304716 0.000000
O O10 0.906005 0.432339 0.255388
O O11 0.000000 0.500000 0.186682
O O12 0.000000 0.433342 0.000000
O O13 0.312670 0.050106 0.500000
O O14 0.295859 0.000000 0.262082
O O15 0.000000 0.730638 0.500000
#
# Coordination Sequence:
#
# PCOD9493953 Si02
#       6
#    16   8  16   8  16   8
#     4  11  23  39  62  89 116 152 200 246 291 346
#     4  12  24  40  60  84 116 156 196 238 297 356
#     4  11  23  39  60  86 119 155 191 236 292 349
#     4   9  17  30  53  84 115 150 189 229 282 345
#     4   9  19  37  60  86 118 155 195 241 292 344
#     4  12  24  39  63  89 118 154 199 245 288 345
#
# _framework density 18.568026
#
# number of rings (size 3 to 8) (size 9 to 14) (size 15 to 20)
#    0.000    1.444    2.222    3.667    0.000    4.889 
#    0.000    1.667    0.000    3.333    0.000    0.000 
#    0.000    0.000    0.000    0.000    0.000    0.000 
#
# Total GULP energy -201201.403464 kJ/mol
# GULP energy per Si atom -5588.927874 kJ/mol
# Density = 1.852576 g / cm^3
# Si number density = 18.568026 Si / 1000 Ang^3
#
#
#
# Elastic Constant Matrix: (Units=GPa)
#
#
# Indices 1 2 3 4 5 6 
#
# 1 135.2508 28.6204 9.0487 0.0000 0.0000 0.0000
# 2 28.6204 50.4689 -1.6906 0.0000 0.0000 0.0000
# 3 9.0487 -1.6906 34.4295 0.0000 0.0000 0.0000
# 4 0.0000 0.0000 0.0000 11.0650 0.0000 0.0000
# 5 0.0000 0.0000 0.0000 0.0000 83.6093 0.0000
# 6 0.0000 0.0000 0.0000 0.0000 0.0000 16.3798
#
#
#
# Elastic Compliance Matrix: (Units=1/GPa)
#
#
# Indices 1 2 3 4 5 6 
#
# 1 0.008613 -0.004968 -0.002508 0.000000 0.000000 0.000000
# 2 -0.004968 0.022713 0.002421 0.000000 0.000000 0.000000
# 3 -0.002508 0.002421 0.029823 0.000000 0.000000 0.000000
# 4 0.000000 0.000000 0.000000 0.090375 0.000000 0.000000
# 5 0.000000 0.000000 0.000000 0.000000 0.011960 0.000000
# 6 0.000000 0.000000 0.000000 0.000000 0.000000 0.061051
#
#
# Mechanical properties :
#
#
# Convention : Reuss Voigt Hill
#
# Bulk Modulus (GPa) = 19.59296 32.45623 26.02459
# Shear Modulus (GPa) = 19.86829 34.48885 27.17857
#
# Velocity S-wave (km/s) = 3.27468 4.31447 3.83002
# Velocity P-wave (km/s) = 4.98727 6.50670 5.79698
#
# Compressibility (1/GPa) = 0.05103875
#
# Stress axis : x y z
#
# Youngs Moduli (GPa) = 116.10684 44.02824 33.53144
#
# Poissons Ratio (x) = 0.21874 0.08408
# Poissons Ratio (y) = 0.57684 -0.08118
# Poissons Ratio (z) = 0.29114 -0.10659
#
# Static dielectric constant tensor:
#      x y z
#    x 1.613710 0.000000 0.000000 
#    y 0.000000 1.648010 0.000000 
#    z 0.000000 0.000000 1.619020 
# 
# From -- ./inp_files/7438.got.cif
#   From: 2010.05.17/outbox.cif.g08.bks.cpg/sg65_4_cif.got.tgz:7438.got - 2010.06.03 17:01:31.
