data_PCOD9493184
_publ_section_title
;
Structure prediction by ZEFSAII (Michael W. Deem and Ramdas Pophale) SiO2 
 PCOD9493184
Probable space group: C M M M
;
_chemical_formula_sum "Si O2"
_cell_formula_units_Z 56
_cell_length_a 15.534047
_cell_length_b 16.457752
_cell_length_c 11.340002
_cell_angle_alpha 90.000000
_cell_angle_beta 90.000000
_cell_angle_gamma 90.000000
_cell_volume 2899.133803
_symmetry_space_group_name_H-M "C M M M"
_symmetry_group_IT_number 65
_symmetry_cell_setting 'orthorhombic'
loop_
_space_group_symop_operation_xyz
x,y,z
-x,-y,z
x,-y,-z
-x,y,-z
-x,-y,-z
x,y,-z
-x,y,z
x,-y,z
1/2+x,1/2+y,z
1/2-x,1/2-y,z
1/2+x,1/2-y,-z
1/2-x,1/2+y,-z
1/2-x,1/2-y,-z
1/2+x,1/2+y,-z
1/2-x,1/2+y,z
1/2+x,1/2-y,z
loop_
_atom_site_type_symbol
_atom_site_label
_atom_site_fract_x
_atom_site_fract_y
_atom_site_fract_z
Si Si1 0.353835 0.000000 0.500000
Si Si2 0.103360 0.908413 0.132227
Si Si3 0.352571 0.747143 0.748113
Si Si4 0.000000 0.500000 0.697099
Si Si5 0.500000 0.845653 0.865830
Si Si6 0.829414 0.313167 0.500000
O O1 0.416573 0.000000 0.386789
O O2 0.309184 0.089831 0.500000
O O3 0.127863 0.847689 0.235492
O O4 0.000000 0.910792 0.127989
O O5 0.135244 0.000000 0.151129
O O6 0.132474 0.881962 0.000000
O O7 0.250000 0.750000 0.768435
O O8 0.414966 0.791995 0.840071
O O9 0.374810 0.787971 0.622114
O O10 0.000000 0.421209 0.778441
O O11 0.500000 0.872906 0.000000
O O12 0.750000 0.250000 0.500000
#
# Coordination Sequence:
#
# PCOD9493184 Si02
#       6
#     4  16  16   4   8   8
#     4  11  20  42  74  90 124 181 220 261 338 394
#     4   9  18  36  61  86 118 162 205 248 307 379
#     4  11  23  41  63  92 126 164 218 267 325 388
#     4  11  23  40  66  98 125 171 222 256 320 415
#     4  12  24  41  65  93 132 171 212 277 328 384
#     4  10  23  43  64  92 123 167 222 274 317 381
#
# _framework density 19.316113000000001
#
# number of rings (size 3 to 8) (size 9 to 14) (size 15 to 20)
#    0.000    1.571    4.286    1.929    0.000    2.857 
#   12.857    0.000    0.000    1.714    0.000    0.000 
#    0.000    0.000    0.000    0.000    0.000    0.000 
#
# Total GULP energy -156002.035534 kJ/mol
# GULP energy per Si atom -5571.501269 kJ/mol
# Density = 1.927215 g / cm^3
# Si number density = 19.316113 Si / 1000 Ang^3
#
#
#
# Elastic Constant Matrix: (Units=GPa)
#
#
# Indices 1 2 3 4 5 6 
#
# 1 66.6109 24.4769 21.0349 0.0000 0.0000 0.0000
# 2 24.4769 152.6479 52.1230 0.0000 0.0000 0.0000
# 3 21.0349 52.1230 90.6313 0.0000 0.0000 0.0000
# 4 0.0000 0.0000 0.0000 40.3819 0.0000 0.0000
# 5 0.0000 0.0000 0.0000 0.0000 12.9466 0.0000
# 6 0.0000 0.0000 0.0000 0.0000 0.0000 19.3501
#
#
#
# Elastic Compliance Matrix: (Units=1/GPa)
#
#
# Indices 1 2 3 4 5 6 
#
# 1 0.016535 -0.001669 -0.002878 0.000000 0.000000 0.000000
# 2 -0.001669 0.008320 -0.004398 0.000000 0.000000 0.000000
# 3 -0.002878 -0.004398 0.014231 0.000000 0.000000 0.000000
# 4 0.000000 0.000000 0.000000 0.024764 0.000000 0.000000
# 5 0.000000 0.000000 0.000000 0.000000 0.077240 0.000000
# 6 0.000000 0.000000 0.000000 0.000000 0.000000 0.051679
#
#
# Mechanical properties :
#
#
# Convention : Reuss Voigt Hill
#
# Bulk Modulus (GPa) = 47.17643 56.12885 51.65264
# Shear Modulus (GPa) = 22.96496 28.68607 25.82551
#
# Velocity S-wave (km/s) = 3.45179 3.85786 3.66046
# Velocity P-wave (km/s) = 6.35317 6.99752 6.68312
#
# Compressibility (1/GPa) = 0.02119703
#
# Stress axis : x y z
#
# Youngs Moduli (GPa) = 60.47955 120.18870 70.26979
#
# Poissons Ratio (x) = 0.20055 0.20223
# Poissons Ratio (y) = 0.10092 0.30903
# Poissons Ratio (z) = 0.17405 0.52856
#
# Static dielectric constant tensor:
#      x y z
#    x 1.615720 0.000000 0.000000 
#    y 0.000000 1.712520 0.000000 
#    z 0.000000 0.000000 1.709160 
# 
# From -- ./inp_files/26065.got.cif
#   From: 2010.05.17/outbox.cif.g08.bks.cpg/sg65_14_cif.got.tgz:26065.got - 2010.06.03 17:01:31.
