data_PCOD9493988
_publ_section_title
;
Structure prediction by ZEFSAII (Michael W. Deem and Ramdas Pophale) SiO2 
 PCOD9493988
Probable space group: C M M M
;
_chemical_formula_sum "Si O2"
_cell_formula_units_Z 50
_cell_length_a 20.144904
_cell_length_b 14.081719
_cell_length_c 9.295646
_cell_angle_alpha 90.000000
_cell_angle_beta 90.000000
_cell_angle_gamma 90.000000
_cell_volume 2636.941239
_symmetry_space_group_name_H-M "C M M M"
_symmetry_group_IT_number 65
_symmetry_cell_setting 'orthorhombic'
loop_
_space_group_symop_operation_xyz
x,y,z
-x,-y,z
x,-y,-z
-x,y,-z
-x,-y,-z
x,y,-z
-x,y,z
x,-y,z
1/2+x,1/2+y,z
1/2-x,1/2-y,z
1/2+x,1/2-y,-z
1/2-x,1/2+y,-z
1/2-x,1/2-y,-z
1/2+x,1/2+y,-z
1/2-x,1/2+y,z
1/2+x,1/2-y,z
loop_
_atom_site_type_symbol
_atom_site_label
_atom_site_fract_x
_atom_site_fract_y
_atom_site_fract_z
Si Si1 0.000000 0.000000 0.000000
Si Si2 0.577221 0.287171 0.339171
Si Si3 0.742278 0.000000 0.326554
Si Si4 0.894769 0.000000 0.263018
Si Si5 0.312817 0.179530 0.834077
O O1 0.941218 0.000000 0.123590
O O2 0.593217 0.251993 0.500000
O O3 0.500000 0.269133 0.308645
O O4 0.588351 0.400423 0.338057
O O5 0.624209 0.237568 0.223895
O O6 0.814828 0.000000 0.250726
O O7 0.703579 0.907898 0.269915
O O8 0.750636 0.000000 0.500000
O O9 0.250000 0.250000 0.828970
O O10 0.321820 0.149070 0.000000
#
# Coordination Sequence:
#
# PCOD9493988 Si02
#       5
#     2  16   8   8  16
#     4  12  28  36  58 100 144 174 208 264 332 400
#     4  11  23  41  64  95 131 170 216 264 322 387
#     4  12  25  43  68  95 130 168 219 274 317 378
#     4  12  24  37  63  94 133 173 208 263 323 383
#     4  11  25  41  64  95 130 171 214 264 322 385
#
# _framework density 18.961362000000001
#
# number of rings (size 3 to 8) (size 9 to 14) (size 15 to 20)
#    0.000    0.640    4.800    2.880    4.480    3.200 
#    0.000    0.800    0.000    4.800    0.000    0.000 
#    0.000    0.000    0.000    0.000    0.000    0.000 
#
# Total GULP energy -139396.709582 kJ/mol
# GULP energy per Si atom -5575.868383 kJ/mol
# Density = 1.891820 g / cm^3
# Si number density = 18.961362 Si / 1000 Ang^3
#
#
#
# Elastic Constant Matrix: (Units=GPa)
#
#
# Indices 1 2 3 4 5 6 
#
# 1 88.2001 27.2260 60.7796 0.0000 0.0000 0.0000
# 2 27.2260 74.4940 46.3010 0.0000 0.0000 0.0000
# 3 60.7796 46.3010 111.8992 0.0000 0.0000 0.0000
# 4 0.0000 0.0000 0.0000 36.2351 0.0000 0.0000
# 5 0.0000 0.0000 0.0000 0.0000 33.2686 0.0000
# 6 0.0000 0.0000 0.0000 0.0000 0.0000 18.8859
#
#
#
# Elastic Compliance Matrix: (Units=1/GPa)
#
#
# Indices 1 2 3 4 5 6 
#
# 1 0.018146 -0.000681 -0.009574 0.000000 0.000000 0.000000
# 2 -0.000681 0.018097 -0.007118 0.000000 0.000000 0.000000
# 3 -0.009574 -0.007118 0.017082 0.000000 0.000000 0.000000
# 4 0.000000 0.000000 0.000000 0.027598 0.000000 0.000000
# 5 0.000000 0.000000 0.000000 0.000000 0.030058 0.000000
# 6 0.000000 0.000000 0.000000 0.000000 0.000000 0.052950
#
#
# Mechanical properties :
#
#
# Convention : Reuss Voigt Hill
#
# Bulk Modulus (GPa) = 53.82685 60.35628 57.09157
# Shear Modulus (GPa) = 24.40563 27.03036 25.71799
#
# Velocity S-wave (km/s) = 3.59154 3.77974 3.68684
# Velocity P-wave (km/s) = 6.75634 7.13785 6.94972
#
# Compressibility (1/GPa) = 0.01857809
#
# Stress axis : x y z
#
# Youngs Moduli (GPa) = 55.10892 55.25761 58.53992
#
# Poissons Ratio (x) = 0.03764 0.56048
# Poissons Ratio (y) = 0.03753 0.41670
# Poissons Ratio (z) = 0.52763 0.39333
#
# Static dielectric constant tensor:
#      x y z
#    x 1.627250 0.000000 0.000000 
#    y 0.000000 1.648130 0.000000 
#    z 0.000000 0.000000 1.669470 
# 
# From -- ./inp_files/5883.got.cif
#   From: 2010.05.17/outbox.cif.g08.bks.cpg/sg65_3_cif.got.tgz:5883.got - 2010.06.03 17:01:31.
