data_PCOD9493981
_publ_section_title
;
Structure prediction by ZEFSAII (Michael W. Deem and Ramdas Pophale) SiO2 
 PCOD9493981
Probable space group: C M M M
;
_chemical_formula_sum "Si O2"
_cell_formula_units_Z 88
_cell_length_a 7.887373
_cell_length_b 17.115139
_cell_length_c 33.583951
_cell_angle_alpha 90.000000
_cell_angle_beta 90.000000
_cell_angle_gamma 90.000000
_cell_volume 4533.614594
_symmetry_space_group_name_H-M "C M M M"
_symmetry_group_IT_number 65
_symmetry_cell_setting 'orthorhombic'
loop_
_space_group_symop_operation_xyz
x,y,z
-x,-y,z
x,-y,-z
-x,y,-z
-x,-y,-z
x,y,-z
-x,y,z
x,-y,z
1/2+x,1/2+y,z
1/2-x,1/2-y,z
1/2+x,1/2-y,-z
1/2-x,1/2+y,-z
1/2-x,1/2-y,-z
1/2+x,1/2+y,-z
1/2-x,1/2+y,z
1/2+x,1/2-y,z
loop_
_atom_site_type_symbol
_atom_site_label
_atom_site_fract_x
_atom_site_fract_y
_atom_site_fract_z
Si Si1 0.204004 0.340360 0.745787
Si Si2 0.797447 0.588892 0.169376
Si Si3 0.000000 0.907296 0.691939
Si Si4 0.500000 0.595790 0.601142
Si Si5 0.299391 0.589318 0.915563
Si Si6 0.307312 0.904796 0.545537
Si Si7 0.799548 0.589307 0.000000
O O1 0.250000 0.250000 0.742312
O O2 0.252871 0.367592 0.790492
O O3 0.329278 0.382663 0.715073
O O4 0.000000 0.353313 0.740024
O O5 0.727476 0.500000 0.170254
O O6 0.752269 0.625453 0.126630
O O7 0.000000 0.584144 0.170514
O O8 0.000000 0.876704 0.646621
O O9 0.000000 0.000000 0.689946
O O10 0.500000 0.500000 0.601306
O O11 0.333605 0.621141 0.576758
O O12 0.500000 0.583590 0.915296
O O13 0.225250 0.500000 0.915660
O O14 0.250299 0.626354 0.957811
O O15 0.266848 0.881425 0.500000
O O16 0.500000 0.880234 0.554839
O O17 0.306426 0.000000 0.545820
O O18 0.724714 0.500000 0.000000
O O19 0.000000 0.583207 0.000000
#
# Coordination Sequence:
#
# PCOD9493981 Si02
#       7
#    16  16   8   8  16  16   8
#     4  11  23  41  62  83 112 151 193 242 297 357
#     4   9  18  32  51  76 103 132 174 226 280 333
#     4  11  24  39  60  89 119 154 199 246 298 353
#     4   9  17  28  43  70 108 147 186 233 283 337
#     4   9  16  24  38  63  94 128 165 211 263 319
#     4   8  13  22  39  65 102 148 189 225 275 337
#     4   9  15  23  35  53  88 133 168 201 253 318
#
# _framework density 19.410561000000001
#
# number of rings (size 3 to 8) (size 9 to 14) (size 15 to 20)
#    0.000    2.636    0.909    2.182    1.273    6.182 
#    0.000    1.818    0.000    0.000    0.000    0.636 
#    0.000    2.909    0.000    0.000    0.000    0.000 
#
# Total GULP energy -245140.105999 kJ/mol
# GULP energy per Si atom -5571.366045 kJ/mol
# Density = 1.936638 g / cm^3
# Si number density = 19.410561 Si / 1000 Ang^3
#
#
#
# Elastic Constant Matrix: (Units=GPa)
#
#
# Indices 1 2 3 4 5 6 
#
# 1 107.0121 13.2494 97.3399 0.0000 0.0000 0.0000
# 2 13.2494 20.3100 22.2747 0.0000 0.0000 0.0000
# 3 97.3399 22.2747 205.1896 0.0000 0.0000 0.0000
# 4 0.0000 0.0000 0.0000 -7.3185 0.0000 0.0000
# 5 0.0000 0.0000 0.0000 0.0000 27.2874 0.0000
# 6 0.0000 0.0000 0.0000 0.0000 0.0000 9.8855
#
#
#
# Elastic Compliance Matrix: (Units=1/GPa)
#
#
# Indices 1 2 3 4 5 6 
#
# 1 0.016547 -0.002481 -0.007581 0.000000 0.000000 0.000000
# 2 -0.002481 0.056263 -0.004931 0.000000 0.000000 0.000000
# 3 -0.007581 -0.004931 0.009005 0.000000 0.000000 0.000000
# 4 0.000000 0.000000 0.000000 -0.136640 0.000000 0.000000
# 5 0.000000 0.000000 0.000000 0.000000 0.036647 0.000000
# 6 0.000000 0.000000 0.000000 0.000000 0.000000 0.101158
#
#
# Mechanical properties :
#
#
# Convention : Reuss Voigt Hill
#
# Bulk Modulus (GPa) = 19.29355 66.47109 42.88232
# Shear Modulus (GPa) = 38.39000 19.28072 28.83536
#
# Velocity S-wave (km/s) = 4.45206 3.15510 3.85846
# Velocity P-wave (km/s) = 6.03234 6.89870 6.48001
#
# Compressibility (1/GPa) = 0.05183080
#
# Stress axis : x y z
#
# Youngs Moduli (GPa) = 60.43282 17.77362 111.05003
#
# Poissons Ratio (x) = 0.04410 0.84182
# Poissons Ratio (y) = 0.14993 0.54757
# Poissons Ratio (z) = 0.45811 0.08764
#
# Static dielectric constant tensor:
#      x y z
#    x 1.689080 0.000000 0.000000 
#    y 0.000000 1.682750 0.000000 
#    z 0.000000 0.000000 1.712560 
# 
# From -- ./inp_files/76817.got.cif
#   From: 2010.05.17/outbox.cif.g08.bks.cpg/sg65_39_cif.got.tgz:76817.got - 2010.06.03 17:01:31.
