data_PCOD9493654
_publ_section_title
;
Structure prediction by ZEFSAII (Michael W. Deem and Ramdas Pophale) SiO2 
 PCOD9493654
Probable space group: C M M M
;
_chemical_formula_sum "Si O2"
_cell_formula_units_Z 72
_cell_length_a 19.457331
_cell_length_b 8.674961
_cell_length_c 23.398927
_cell_angle_alpha 90.000000
_cell_angle_beta 90.000000
_cell_angle_gamma 90.000000
_cell_volume 3949.542036
_symmetry_space_group_name_H-M "C M M M"
_symmetry_group_IT_number 65
_symmetry_cell_setting 'orthorhombic'
loop_
_space_group_symop_operation_xyz
x,y,z
-x,-y,z
x,-y,-z
-x,y,-z
-x,-y,-z
x,y,-z
-x,y,z
x,-y,z
1/2+x,1/2+y,z
1/2-x,1/2-y,z
1/2+x,1/2-y,-z
1/2-x,1/2+y,-z
1/2-x,1/2-y,-z
1/2+x,1/2+y,-z
1/2-x,1/2+y,z
1/2+x,1/2-y,z
loop_
_atom_site_type_symbol
_atom_site_label
_atom_site_fract_x
_atom_site_fract_y
_atom_site_fract_z
Si Si1 0.326468 0.684748 0.834598
Si Si2 0.920110 0.185978 0.600033
Si Si3 0.078165 0.812420 0.730901
Si Si4 0.173393 0.683015 0.500000
Si Si5 0.420716 0.185758 0.933866
O O1 0.323765 0.500000 0.833365
O O2 0.250000 0.750000 0.835435
O O3 0.368195 0.739747 0.778426
O O4 0.369025 0.738099 0.889811
O O5 0.905658 0.232662 0.665687
O O6 0.868808 0.259747 0.555165
O O7 0.000000 0.225194 0.587583
O O8 0.914690 0.000000 0.596445
O O9 0.000000 0.762658 0.744361
O O10 0.077770 0.000000 0.731475
O O11 0.176990 0.500000 0.500000
O O12 0.250000 0.750000 0.500000
O O13 0.500000 0.229072 0.921165
O O14 0.416005 0.000000 0.929561
O O15 0.406625 0.227059 0.000000
#
# Coordination Sequence:
#
# PCOD9493654 Si02
#       5
#    16  16  16   8  16
#     4  11  22  35  53  79 112 146 180 219 264 315
#     4   9  18  36  61  84 108 140 176 215 265 322
#     4   8  16  33  57  82 106 136 176 220 264 314
#     4  12  25  38  53  77 111 145 181 224 267 314
#     4   9  19  37  59  81 106 137 175 221 271 321
#
# _framework density 18.229962
#
# number of rings (size 3 to 8) (size 9 to 14) (size 15 to 20)
#    0.000    2.444    0.000    4.667    0.000    4.889 
#    0.000    5.556    0.000    2.667    0.000    0.000 
#    0.000    0.000    0.000    0.000    0.000    0.000 
#
# Total GULP energy -200955.746936 kJ/mol
# GULP energy per Si atom -5582.104082 kJ/mol
# Density = 1.818847 g / cm^3
# Si number density = 18.229962 Si / 1000 Ang^3
#
#
#
# Elastic Constant Matrix: (Units=GPa)
#
#
# Indices 1 2 3 4 5 6 
#
# 1 182.8302 58.0093 143.6736 0.0000 0.0000 0.0000
# 2 58.0093 40.9727 49.9766 0.0000 0.0000 0.0000
# 3 143.6736 49.9766 156.8330 0.0000 0.0000 0.0000
# 4 0.0000 0.0000 0.0000 15.7335 0.0000 0.0000
# 5 0.0000 0.0000 0.0000 0.0000 -13.7673 0.0000
# 6 0.0000 0.0000 0.0000 0.0000 0.0000 15.7323
#
#
#
# Elastic Compliance Matrix: (Units=1/GPa)
#
#
# Indices 1 2 3 4 5 6 
#
# 1 0.022102 -0.010789 -0.016810 0.000000 0.000000 0.000000
# 2 -0.010789 0.045191 -0.004517 0.000000 0.000000 0.000000
# 3 -0.016810 -0.004517 0.023215 0.000000 0.000000 0.000000
# 4 0.000000 0.000000 0.000000 0.063559 0.000000 0.000000
# 5 0.000000 0.000000 0.000000 0.000000 -0.072636 0.000000
# 6 0.000000 0.000000 0.000000 0.000000 0.000000 0.063564
#
#
# Mechanical properties :
#
#
# Convention : Reuss Voigt Hill
#
# Bulk Modulus (GPa) = 38.05616 98.21720 68.13668
# Shear Modulus (GPa) = 22.93730 12.13812 17.53771
#
# Velocity S-wave (km/s) = 3.55099 2.58317 3.10502
# Velocity P-wave (km/s) = 6.14277 7.93037 7.09311
#
# Compressibility (1/GPa) = 0.02627696
#
# Stress axis : x y z
#
# Youngs Moduli (GPa) = 45.24404 22.12826 43.07543
#
# Poissons Ratio (x) = 0.23873 0.72409
# Poissons Ratio (y) = 0.48812 0.19458
# Poissons Ratio (z) = 0.76055 0.09996
#
# Static dielectric constant tensor:
#      x y z
#    x 1.595910 0.000000 0.000000 
#    y 0.000000 1.614560 0.000000 
#    z 0.000000 0.000000 1.620180 
# 
# From -- ./inp_files/64375.got.cif
#   From: 2010.05.17/outbox.cif.g08.bks.cpg/sg65_33_cif.got.tgz:64375.got - 2010.06.03 17:01:31.
