data_PCOD9493226
_publ_section_title
;
Structure prediction by ZEFSAII (Michael W. Deem and Ramdas Pophale) SiO2 
 PCOD9493226
Probable space group: C M M M
;
_chemical_formula_sum "Si O2"
_cell_formula_units_Z 66
_cell_length_a 19.558958
_cell_length_b 17.158175
_cell_length_c 10.338873
_cell_angle_alpha 90.000000
_cell_angle_beta 90.000000
_cell_angle_gamma 90.000000
_cell_volume 3469.684673
_symmetry_space_group_name_H-M "C M M M"
_symmetry_group_IT_number 65
_symmetry_cell_setting 'orthorhombic'
loop_
_space_group_symop_operation_xyz
x,y,z
-x,-y,z
x,-y,-z
-x,y,-z
-x,-y,-z
x,y,-z
-x,y,z
x,-y,z
1/2+x,1/2+y,z
1/2-x,1/2-y,z
1/2+x,1/2-y,-z
1/2-x,1/2+y,-z
1/2-x,1/2-y,-z
1/2+x,1/2+y,-z
1/2-x,1/2+y,z
1/2+x,1/2-y,z
loop_
_atom_site_type_symbol
_atom_site_label
_atom_site_fract_x
_atom_site_fract_y
_atom_site_fract_z
Si Si1 0.145189 0.413524 0.000000
Si Si2 0.233124 0.409273 0.500000
Si Si3 0.083478 0.089401 0.000000
Si Si4 0.189709 0.312756 0.247015
Si Si5 0.897560 0.089320 0.500000
Si Si6 0.422787 0.686844 0.752071
Si Si7 0.500000 0.000000 0.000000
O O1 0.170356 0.366251 0.874835
O O2 0.063023 0.432717 0.000000
O O3 0.177434 0.500000 0.000000
O O4 0.211279 0.500000 0.500000
O O5 0.208713 0.364622 0.371376
O O6 0.315290 0.407188 0.500000
O O7 0.104901 0.136851 0.873152
O O8 0.000000 0.086692 0.000000
O O9 0.107385 0.000000 0.000000
O O10 0.250000 0.250000 0.220635
O O11 0.123789 0.260328 0.276326
O O12 0.922637 0.131982 0.627756
O O13 0.918786 0.000000 0.500000
O O14 0.500000 0.710930 0.783657
#
# Coordination Sequence:
#
# PCOD9493226 Si02
#       7
#     8   8   8  16   8  16   2
#     4  10  24  43  71  96 129 169 217 266 328 395
#     4  11  24  44  65  89 129 174 216 269 334 385
#     4   9  19  37  56  85 126 162 196 247 308 377
#     4  12  23  43  67  96 130 170 216 276 329 393
#     4  11  22  40  60  86 123 168 207 257 316 387
#     4  11  23  37  62  93 123 165 210 260 325 385
#     4   8  24  48  72 102 136 172 220 278 356 372
#
# _framework density 19.021901
#
# number of rings (size 3 to 8) (size 9 to 14) (size 15 to 20)
#    0.364    0.848    2.424    4.000    1.697    1.939 
#    0.000    1.212    0.000    1.455    0.000    0.000 
#    0.000    0.000    0.000    0.000    0.000    0.000 
#
# Total GULP energy -184065.440270 kJ/mol
# GULP energy per Si atom -5577.740614 kJ/mol
# Density = 1.897861 g / cm^3
# Si number density = 19.021901 Si / 1000 Ang^3
#
#
#
# Elastic Constant Matrix: (Units=GPa)
#
#
# Indices 1 2 3 4 5 6 
#
# 1 97.1474 67.3248 41.7860 0.0000 0.0000 0.0000
# 2 67.3248 150.5757 67.1193 0.0000 0.0000 0.0000
# 3 41.7860 67.1193 146.9252 0.0000 0.0000 0.0000
# 4 0.0000 0.0000 0.0000 48.3347 0.0000 0.0000
# 5 0.0000 0.0000 0.0000 0.0000 20.7087 0.0000
# 6 0.0000 0.0000 0.0000 0.0000 0.0000 -186.4017
#
#
#
# Elastic Compliance Matrix: (Units=1/GPa)
#
#
# Indices 1 2 3 4 5 6 
#
# 1 0.015184 -0.006108 -0.001528 0.000000 0.000000 0.000000
# 2 -0.006108 0.010796 -0.003195 0.000000 0.000000 0.000000
# 3 -0.001528 -0.003195 0.008700 0.000000 0.000000 0.000000
# 4 0.000000 0.000000 0.000000 0.020689 0.000000 0.000000
# 5 0.000000 0.000000 0.000000 0.000000 0.048289 0.000000
# 6 0.000000 0.000000 0.000000 0.000000 0.000000 -0.005365
#
#
# Mechanical properties :
#
#
# Convention : Reuss Voigt Hill
#
# Bulk Modulus (GPa) = 76.81286 83.01205 79.91245
# Shear Modulus (GPa) = 40.22706 -8.91045 15.65831
#
# Velocity S-wave (km/s) = 4.60366 -2.16667 2.87221
# Velocity P-wave (km/s) = 8.29019 6.12174 7.28707
#
# Compressibility (1/GPa) = 0.01301865
#
# Stress axis : x y z
#
# Youngs Moduli (GPa) = 65.86026 92.62542 114.93833
#
# Poissons Ratio (x) = 0.56573 0.17564
# Poissons Ratio (y) = 0.40225 0.36722
# Poissons Ratio (z) = 0.10064 0.29593
#
# Static dielectric constant tensor:
#      x y z
#    x 1.676100 0.000000 0.000000 
#    y 0.000000 1.641500 0.000000 
#    z 0.000000 0.000000 1.667650 
# 
# From -- ./inp_files/11002.got.cif
#   From: 2010.05.17/outbox.cif.g08.bks.cpg/sg65_6_cif.got.tgz:11002.got - 2010.06.03 17:01:31.
