data_PCOD9493442
_publ_section_title
;
Structure prediction by ZEFSAII (Michael W. Deem and Ramdas Pophale) SiO2 
 PCOD9493442
Probable space group: C M M M
;
_chemical_formula_sum "Si O2"
_cell_formula_units_Z 116
_cell_length_a 7.926857
_cell_length_b 29.187468
_cell_length_c 27.930875
_cell_angle_alpha 90.000000
_cell_angle_beta 90.000000
_cell_angle_gamma 90.000000
_cell_volume 6462.223683
_symmetry_space_group_name_H-M "C M M M"
_symmetry_group_IT_number 65
_symmetry_cell_setting 'orthorhombic'
loop_
_space_group_symop_operation_xyz
x,y,z
-x,-y,z
x,-y,-z
-x,y,-z
-x,-y,-z
x,y,-z
-x,y,z
x,-y,z
1/2+x,1/2+y,z
1/2-x,1/2-y,z
1/2+x,1/2-y,-z
1/2-x,1/2+y,-z
1/2-x,1/2-y,-z
1/2+x,1/2+y,-z
1/2-x,1/2+y,z
1/2+x,1/2-y,z
loop_
_atom_site_type_symbol
_atom_site_label
_atom_site_fract_x
_atom_site_fract_y
_atom_site_fract_z
Si Si1 0.203507 0.303791 0.926683
Si Si2 0.000000 0.830583 0.000000
Si Si3 0.692261 0.698369 0.730702
Si Si4 0.195381 0.649428 0.824618
Si Si5 0.704070 0.551555 0.803444
Si Si6 0.703986 0.197534 0.554018
Si Si7 0.298893 0.550077 0.306242
Si Si8 0.694427 0.859374 0.642442
O O1 0.250000 0.250000 0.930350
O O2 0.346481 0.327975 0.958957
O O3 0.225702 0.322066 0.872709
O O4 0.000000 0.309280 0.938823
O O5 0.500000 0.699002 0.714408
O O6 0.750000 0.750000 0.740424
O O7 0.704984 0.668921 0.779186
O O8 0.792007 0.674750 0.687629
O O9 0.232227 0.595601 0.831896
O O10 0.000000 0.654963 0.811705
O O11 0.500000 0.552590 0.804387
O O12 0.755621 0.500000 0.818546
O O13 0.762960 0.558054 0.748238
O O14 0.763568 0.187073 0.500000
O O15 0.500000 0.195112 0.553781
O O16 0.750000 0.250000 0.565029
O O17 0.771039 0.164385 0.595502
O O18 0.500000 0.547262 0.301703
O O19 0.235882 0.500000 0.322166
O O20 0.264191 0.592180 0.340441
O O21 0.500000 0.867410 0.631769
#
# Coordination Sequence:
#
# PCOD9493442 Si02
#       8
#    16   4  16  16  16  16  16  16
#     4  11  24  38  59  88 115 152 194 239 284 333
#     4  12  24  40  66  82 117 156 191 248 280 332
#     4  12  24  36  52  72 109 150 183 218 262 331
#     4  11  23  37  54  83 117 146 184 226 275 332
#     4   9  18  33  55  80 110 148 186 224 270 327
#     4   9  19  35  53  74 102 135 177 229 274 321
#     4   9  18  33  52  76 105 140 179 222 269 319
#     4  11  21  33  52  79 105 138 180 222 273 328
#
# _framework density 17.950476999999999
#
# number of rings (size 3 to 8) (size 9 to 14) (size 15 to 20)
#    0.000    1.655    2.069    4.138    1.931    3.862 
#    0.000    1.379    0.000    0.414    0.000    3.862 
#    0.000    2.207    0.000    0.000    0.000    0.000 
#
# Total GULP energy -322954.191819 kJ/mol
# GULP energy per Si atom -5568.175721 kJ/mol
# Density = 1.790962 g / cm^3
# Si number density = 17.950477 Si / 1000 Ang^3
#
#
#
# Elastic Constant Matrix: (Units=GPa)
#
#
# Indices 1 2 3 4 5 6 
#
# 1 55.1515 0.5415 10.9422 0.0000 0.0000 0.0000
# 2 0.5415 55.9133 9.4138 0.0000 0.0000 0.0000
# 3 10.9422 9.4138 53.5467 0.0000 0.0000 0.0000
# 4 0.0000 0.0000 0.0000 26.8224 0.0000 0.0000
# 5 0.0000 0.0000 0.0000 0.0000 9.5649 0.0000
# 6 0.0000 0.0000 0.0000 0.0000 0.0000 16.6009
#
#
#
# Elastic Compliance Matrix: (Units=1/GPa)
#
#
# Indices 1 2 3 4 5 6 
#
# 1 0.018911 0.000482 -0.003949 0.000000 0.000000 0.000000
# 2 0.000482 0.018443 -0.003341 0.000000 0.000000 0.000000
# 3 -0.003949 -0.003341 0.020070 0.000000 0.000000 0.000000
# 4 0.000000 0.000000 0.000000 0.037282 0.000000 0.000000
# 5 0.000000 0.000000 0.000000 0.000000 0.104549 0.000000
# 6 0.000000 0.000000 0.000000 0.000000 0.000000 0.060238
#
#
# Mechanical properties :
#
#
# Convention : Reuss Voigt Hill
#
# Bulk Modulus (GPa) = 22.82754 22.93404 22.88079
# Shear Modulus (GPa) = 17.37859 20.17858 18.77858
#
# Velocity S-wave (km/s) = 3.11487 3.35643 3.23791
# Velocity P-wave (km/s) = 5.06766 5.27493 5.17233
#
# Compressibility (1/GPa) = 0.04380674
#
# Stress axis : x y z
#
# Youngs Moduli (GPa) = 52.88029 54.22215 49.82659
#
# Poissons Ratio (x) = -0.02612 0.19677
# Poissons Ratio (y) = -0.02547 0.16646
# Poissons Ratio (z) = 0.20883 0.18114
#
# Static dielectric constant tensor:
#      x y z
#    x 1.656670 0.000000 0.000000 
#    y 0.000000 1.605160 0.000000 
#    z 0.000000 0.000000 1.617350 
# 
# From -- ./inp_files/73886.got.cif
#   From: 2010.05.17/outbox.cif.g08.bks.cpg/sg65_37_cif.got.tgz:73886.got - 2010.06.03 17:01:31.
