data_PCOD9493706
_publ_section_title
;
Structure prediction by ZEFSAII (Michael W. Deem and Ramdas Pophale) SiO2 
 PCOD9493706
Probable space group: C M M M
;
_chemical_formula_sum "Si O2"
_cell_formula_units_Z 56
_cell_length_a 7.836152
_cell_length_b 29.083077
_cell_length_c 14.105023
_cell_angle_alpha 90.000000
_cell_angle_beta 90.000000
_cell_angle_gamma 90.000000
_cell_volume 3214.526448
_symmetry_space_group_name_H-M "C M M M"
_symmetry_group_IT_number 65
_symmetry_cell_setting 'orthorhombic'
loop_
_space_group_symop_operation_xyz
x,y,z
-x,-y,z
x,-y,-z
-x,y,-z
-x,-y,-z
x,y,-z
-x,y,z
x,-y,z
1/2+x,1/2+y,z
1/2-x,1/2-y,z
1/2+x,1/2-y,-z
1/2-x,1/2+y,-z
1/2-x,1/2-y,-z
1/2+x,1/2+y,-z
1/2-x,1/2+y,z
1/2+x,1/2-y,z
loop_
_atom_site_type_symbol
_atom_site_label
_atom_site_fract_x
_atom_site_fract_y
_atom_site_fract_z
Si Si1 0.796026 0.302013 0.892423
Si Si2 0.698301 0.893158 0.211953
Si Si3 0.000000 0.054156 0.889122
Si Si4 0.206513 0.947492 0.389684
O O1 0.750000 0.250000 0.865833
O O2 0.747774 0.341431 0.817755
O O3 0.000000 0.303615 0.898470
O O4 0.728421 0.310989 0.000000
O O5 0.500000 0.899295 0.184075
O O6 0.717698 0.909250 0.320480
O O7 0.830152 0.925190 0.156555
O O8 0.000000 0.000000 0.873559
O O9 0.000000 0.064296 0.000000
O O10 0.251659 0.941014 0.500000
O O11 0.000000 0.945590 0.382533
O O12 0.257422 0.000000 0.362547
#
# Coordination Sequence:
#
# PCOD9493706 Si02
#       4
#    16  16   8  16
#     4   9  19  34  53  79 107 139 182 230 279 328
#     4  11  22  36  56  82 112 145 184 232 279 333
#     4  11  24  38  53  77 111 153 192 222 268 331
#     4   9  18  34  56  81 109 142 184 231 276 327
#
# _framework density 17.420916999999999
#
# number of rings (size 3 to 8) (size 9 to 14) (size 15 to 20)
#    0.000    2.143    1.429    2.571    2.000    4.571 
#    0.000    2.857    0.000    0.857    0.000    0.000 
#    0.000    0.000    0.000    0.000    0.000    0.000 
#
# Total GULP energy -156143.283678 kJ/mol
# GULP energy per Si atom -5576.545846 kJ/mol
# Density = 1.738127 g / cm^3
# Si number density = 17.420917 Si / 1000 Ang^3
#
#
#
# Elastic Constant Matrix: (Units=GPa)
#
#
# Indices 1 2 3 4 5 6 
#
# 1 69.8287 56.5878 24.8823 0.0000 0.0000 0.0000
# 2 56.5878 254.7929 67.3355 0.0000 0.0000 0.0000
# 3 24.8823 67.3355 103.3166 0.0000 0.0000 0.0000
# 4 0.0000 0.0000 0.0000 33.0032 0.0000 0.0000
# 5 0.0000 0.0000 0.0000 0.0000 21.1477 0.0000
# 6 0.0000 0.0000 0.0000 0.0000 0.0000 26.9768
#
#
#
# Elastic Compliance Matrix: (Units=1/GPa)
#
#
# Indices 1 2 3 4 5 6 
#
# 1 0.017823 -0.003412 -0.002069 0.000000 0.000000 0.000000
# 2 -0.003412 0.005394 -0.002694 0.000000 0.000000 0.000000
# 3 -0.002069 -0.002694 0.011933 0.000000 0.000000 0.000000
# 4 0.000000 0.000000 0.000000 0.030300 0.000000 0.000000
# 5 0.000000 0.000000 0.000000 0.000000 0.047286 0.000000
# 6 0.000000 0.000000 0.000000 0.000000 0.000000 0.037069
#
#
# Mechanical properties :
#
#
# Convention : Reuss Voigt Hill
#
# Bulk Modulus (GPa) = 53.18856 80.61663 66.90259
# Shear Modulus (GPa) = 28.99867 34.83438 31.91652
#
# Velocity S-wave (km/s) = 4.08436 4.47651 4.28492
# Velocity P-wave (km/s) = 7.26914 8.54957 7.93522
#
# Compressibility (1/GPa) = 0.01880104
#
# Stress axis : x y z
#
# Youngs Moduli (GPa) = 56.10855 185.37639 83.80035
#
# Poissons Ratio (x) = 0.63242 0.17337
# Poissons Ratio (y) = 0.19142 0.22577
# Poissons Ratio (z) = 0.11608 0.49943
#
# Static dielectric constant tensor:
#      x y z
#    x 1.591760 0.000000 0.000000 
#    y 0.000000 1.588510 0.000000 
#    z 0.000000 0.000000 1.614750 
# 
# From -- ./inp_files/35776.got.cif
#   From: 2010.05.17/outbox.cif.g08.bks.cpg/sg65_18_cif.got.tgz:35776.got - 2010.06.03 17:01:31.
