data_PCOD9493932
_publ_section_title
;
Structure prediction by ZEFSAII (Michael W. Deem and Ramdas Pophale) SiO2 
 PCOD9493932
Probable space group: C M M M
;
_chemical_formula_sum "Si O2"
_cell_formula_units_Z 96
_cell_length_a 14.814925
_cell_length_b 22.788953
_cell_length_c 13.778000
_cell_angle_alpha 90.000000
_cell_angle_beta 90.000000
_cell_angle_gamma 90.000000
_cell_volume 4651.681922
_symmetry_space_group_name_H-M "C M M M"
_symmetry_group_IT_number 65
_symmetry_cell_setting 'orthorhombic'
loop_
_space_group_symop_operation_xyz
x,y,z
-x,-y,z
x,-y,-z
-x,y,-z
-x,-y,-z
x,y,-z
-x,y,z
x,-y,z
1/2+x,1/2+y,z
1/2-x,1/2-y,z
1/2+x,1/2-y,-z
1/2-x,1/2+y,-z
1/2-x,1/2-y,-z
1/2+x,1/2+y,-z
1/2-x,1/2+y,z
1/2+x,1/2-y,z
loop_
_atom_site_type_symbol
_atom_site_label
_atom_site_fract_x
_atom_site_fract_y
_atom_site_fract_z
Si Si1 0.395098 0.898589 0.612308
Si Si2 0.596947 0.655873 0.610491
Si Si3 0.279110 0.432892 0.715446
Si Si4 0.394332 0.617802 0.888275
Si Si5 0.346923 0.773253 0.685481
Si Si6 0.892459 0.258976 0.107267
O O1 0.372530 0.913997 0.500000
O O2 0.500000 0.913484 0.628482
O O3 0.326690 0.926424 0.690300
O O4 0.382735 0.828425 0.626972
O O5 0.608516 0.674912 0.500000
O O6 0.500000 0.625593 0.620278
O O7 0.674287 0.612043 0.641197
O O8 0.595617 0.714511 0.673650
O O9 0.305271 0.500000 0.699570
O O10 0.321748 0.411924 0.817603
O O11 0.500000 0.606649 0.859706
O O12 0.381709 0.688426 0.887060
O O13 0.384312 0.598611 0.000000
O O14 0.250000 0.750000 0.651869
O O15 0.344786 0.787708 0.800182
O O16 0.000000 0.270890 0.113889
O O17 0.860913 0.278020 0.000000
#
# Coordination Sequence:
#
# PCOD9493932 Si02
#       6
#    16  16  16  16  16  16
#     4  11  25  44  65  89 119 163 219 269 313 368
#     4  11  23  38  58  87 123 157 190 240 310 383
#     4  12  25  41  62  88 121 161 208 265 314 358
#     4   9  18  36  63  95 131 168 204 244 299 374
#     4  12  21  35  62  91 122 158 196 252 314 375
#     4   9  17  31  54  85 122 159 193 235 294 367
#
# _framework density 20.637695999999998
#
# number of rings (size 3 to 8) (size 9 to 14) (size 15 to 20)
#    0.000    1.333    3.333    4.000    0.000    5.667 
#    0.000    3.333    0.000    1.500    0.000    1.167 
#    0.000    0.000    0.000    0.000    0.000    0.000 
#
# Total GULP energy -268047.811106 kJ/mol
# GULP energy per Si atom -5584.329398 kJ/mol
# Density = 2.059072 g / cm^3
# Si number density = 20.637696 Si / 1000 Ang^3
#
#
#
# Elastic Constant Matrix: (Units=GPa)
#
#
# Indices 1 2 3 4 5 6 
#
# 1 103.2566 -2.7687 30.7126 0.0000 0.0000 0.0000
# 2 -2.7687 40.5863 2.8016 0.0000 0.0000 0.0000
# 3 30.7126 2.8016 121.9311 0.0000 0.0000 0.0000
# 4 0.0000 0.0000 0.0000 1.2649 0.0000 0.0000
# 5 0.0000 0.0000 0.0000 0.0000 37.8007 0.0000
# 6 0.0000 0.0000 0.0000 0.0000 0.0000 -4.5811
#
#
#
# Elastic Compliance Matrix: (Units=1/GPa)
#
#
# Indices 1 2 3 4 5 6 
#
# 1 0.010502 0.000900 -0.002666 0.000000 0.000000 0.000000
# 2 0.000900 0.024755 -0.000796 0.000000 0.000000 0.000000
# 3 -0.002666 -0.000796 0.008891 0.000000 0.000000 0.000000
# 4 0.000000 0.000000 0.000000 0.790583 0.000000 0.000000
# 5 0.000000 0.000000 0.000000 0.000000 0.026455 0.000000
# 6 0.000000 0.000000 0.000000 0.000000 0.000000 -0.218287
#
#
# Mechanical properties :
#
#
# Convention : Reuss Voigt Hill
#
# Bulk Modulus (GPa) = 25.62402 36.36278 30.99340
# Shear Modulus (GPa) = 7.56395 22.56546 15.06471
#
# Velocity S-wave (km/s) = 1.91653 3.31026 2.70471
# Velocity P-wave (km/s) = 4.16419 5.68052 4.98040
#
# Compressibility (1/GPa) = 0.03902588
#
# Stress axis : x y z
#
# Youngs Moduli (GPa) = 95.22271 40.39553 112.47158
#
# Poissons Ratio (x) = -0.03637 0.29984
# Poissons Ratio (y) = -0.08574 0.08948
# Poissons Ratio (z) = 0.25385 0.03214
#
# Static dielectric constant tensor:
#      x y z
#    x 1.829370 0.000000 0.000000 
#    y 0.000000 1.691370 0.000000 
#    z 0.000000 0.000000 1.772610 
# 
# From -- ./inp_files/40377.got.cif
#   From: 2010.05.17/outbox.cif.g08.bks.cpg/sg65_21_cif.got.tgz:40377.got - 2010.06.03 17:01:31.
