data_PCOD9493121
_publ_section_title
;
Structure prediction by ZEFSAII (Michael W. Deem and Ramdas Pophale) SiO2 
 PCOD9493121
Probable space group: C M M M
;
_chemical_formula_sum "Si O2"
_cell_formula_units_Z 58
_cell_length_a 9.798392
_cell_length_b 16.838216
_cell_length_c 17.307038
_cell_angle_alpha 90.000000
_cell_angle_beta 90.000000
_cell_angle_gamma 90.000000
_cell_volume 2855.443910
_symmetry_space_group_name_H-M "C M M M"
_symmetry_group_IT_number 65
_symmetry_cell_setting 'orthorhombic'
loop_
_space_group_symop_operation_xyz
x,y,z
-x,-y,z
x,-y,-z
-x,y,-z
-x,-y,-z
x,y,-z
-x,y,z
x,-y,z
1/2+x,1/2+y,z
1/2-x,1/2-y,z
1/2+x,1/2-y,-z
1/2-x,1/2+y,-z
1/2-x,1/2-y,-z
1/2+x,1/2+y,-z
1/2-x,1/2+y,z
1/2+x,1/2-y,z
loop_
_atom_site_type_symbol
_atom_site_label
_atom_site_fract_x
_atom_site_fract_y
_atom_site_fract_z
Si Si1 0.849773 0.595366 0.874056
Si Si2 0.000000 0.129599 0.638614
Si Si3 0.664009 0.330781 0.000000
Si Si4 0.500000 0.500000 0.500000
Si Si5 0.207547 0.405682 0.302004
Si Si6 0.000000 0.686059 0.591852
O O1 0.849650 0.500000 0.877526
O O2 0.724022 0.624901 0.924724
O O3 0.837287 0.617843 0.784105
O O4 0.000000 0.622925 0.902556
O O5 0.134002 0.111652 0.687861
O O6 0.000000 0.220574 0.610348
O O7 0.000000 0.069356 0.567108
O O8 0.750000 0.250000 0.000000
O O9 0.500000 0.323845 0.000000
O O10 0.180530 0.500000 0.312002
O O11 0.128052 0.356320 0.366979
O O12 0.000000 0.673554 0.500000
#
# Coordination Sequence:
#
# PCOD9493121 Si02
#       6
#    16   8   8   2  16   8
#     4  10  22  45  72  99 138 181 227 278 348 419
#     4  12  26  43  68  95 135 187 234 293 353 416
#     4  12  27  44  69 105 143 181 229 284 345 406
#     4  12  24  48  64  94 142 186 244 290 372 420
#     4  11  24  45  69 100 137 184 231 287 350 424
#     4  12  27  42  66 101 136 176 237 297 355 414
#
# _framework density 20.312078
#
# number of rings (size 3 to 8) (size 9 to 14) (size 15 to 20)
#    0.000    0.828    3.448    2.897    3.862    6.621 
#    0.000    0.000    0.000    0.000    0.000    0.000 
#    0.000    0.000    0.000    0.000    0.000    0.000 
#
# Total GULP energy -161873.530619 kJ/mol
# GULP energy per Si atom -5581.845883 kJ/mol
# Density = 2.026585 g / cm^3
# Si number density = 20.312078 Si / 1000 Ang^3
#
#
#
# Elastic Constant Matrix: (Units=GPa)
#
#
# Indices 1 2 3 4 5 6 
#
# 1 177.7166 38.4863 58.0982 0.0000 0.0000 0.0000
# 2 38.4863 99.9643 57.6140 0.0000 0.0000 0.0000
# 3 58.0982 57.6140 132.4791 0.0000 0.0000 0.0000
# 4 0.0000 0.0000 0.0000 14.6389 0.0000 0.0000
# 5 0.0000 0.0000 0.0000 0.0000 -22.7082 0.0000
# 6 0.0000 0.0000 0.0000 0.0000 0.0000 21.8338
#
#
#
# Elastic Compliance Matrix: (Units=1/GPa)
#
#
# Indices 1 2 3 4 5 6 
#
# 1 0.006671 -0.001177 -0.002414 0.000000 0.000000 0.000000
# 2 -0.001177 0.013557 -0.005380 0.000000 0.000000 0.000000
# 3 -0.002414 -0.005380 0.010946 0.000000 0.000000 0.000000
# 4 0.000000 0.000000 0.000000 0.068311 0.000000 0.000000
# 5 0.000000 0.000000 0.000000 0.000000 -0.044037 0.000000
# 6 0.000000 0.000000 0.000000 0.000000 0.000000 0.045800
#
#
# Mechanical properties :
#
#
# Convention : Reuss Voigt Hill
#
# Bulk Modulus (GPa) = 75.56469 79.83966 77.70218
# Shear Modulus (GPa) = 40.45260 19.81701 30.13480
#
# Velocity S-wave (km/s) = 4.46752 3.12689 3.85592
# Velocity P-wave (km/s) = 7.99339 7.24075 7.62636
#
# Compressibility (1/GPa) = 0.01323369
#
# Stress axis : x y z
#
# Youngs Moduli (GPa) = 149.90472 73.76049 91.35437
#
# Poissons Ratio (x) = 0.08684 0.22048
# Poissons Ratio (y) = 0.17648 0.49146
# Poissons Ratio (z) = 0.36180 0.39681
#
# Static dielectric constant tensor:
#      x y z
#    x 1.739370 0.000000 0.000000 
#    y 0.000000 1.726220 0.000000 
#    z 0.000000 0.000000 1.712500 
# 
# From -- ./inp_files/48902.got.cif
#   From: 2010.05.17/outbox.cif.g08.bks.cpg/sg65_25_cif.got.tgz:48902.got - 2010.06.03 17:01:31.
