data_PCOD9493165
_publ_section_title
;
Structure prediction by ZEFSAII (Michael W. Deem and Ramdas Pophale) SiO2 
 PCOD9493165
Probable space group: C M M M
;
_chemical_formula_sum "Si O2"
_cell_formula_units_Z 68
_cell_length_a 9.584200
_cell_length_b 18.354206
_cell_length_c 18.817068
_cell_angle_alpha 90.000000
_cell_angle_beta 90.000000
_cell_angle_gamma 90.000000
_cell_volume 3310.117604
_symmetry_space_group_name_H-M "C M M M"
_symmetry_group_IT_number 65
_symmetry_cell_setting 'orthorhombic'
loop_
_space_group_symop_operation_xyz
x,y,z
-x,-y,z
x,-y,-z
-x,y,-z
-x,-y,-z
x,y,-z
-x,y,z
x,-y,z
1/2+x,1/2+y,z
1/2-x,1/2-y,z
1/2+x,1/2-y,-z
1/2-x,1/2+y,-z
1/2-x,1/2-y,-z
1/2+x,1/2+y,-z
1/2-x,1/2+y,z
1/2+x,1/2-y,z
loop_
_atom_site_type_symbol
_atom_site_label
_atom_site_fract_x
_atom_site_fract_y
_atom_site_fract_z
Si Si1 0.000000 0.113792 0.419631
Si Si2 0.500000 0.789028 0.582989
Si Si3 0.268905 0.123341 0.333833
Si Si4 0.162810 0.323337 0.915196
Si Si5 0.661269 0.586986 0.810699
Si Si6 0.000000 0.500000 0.686567
O O1 0.000000 0.202103 0.417694
O O2 0.142471 0.093191 0.381207
O O3 0.000000 0.088691 0.500000
O O4 0.500000 0.814674 0.500000
O O5 0.360767 0.817138 0.623409
O O6 0.198308 0.137429 0.257424
O O7 0.380645 0.062514 0.316664
O O8 0.250000 0.250000 0.899431
O O9 0.234498 0.388664 0.872499
O O10 0.000000 0.315199 0.895681
O O11 0.170562 0.335433 0.000000
O O12 0.500000 0.599241 0.830662
O O13 0.674958 0.500000 0.795289
#
# Coordination Sequence:
#
# PCOD9493165 Si02
#       6
#     8   8  16  16  16   4
#     4  11  23  42  65  89 125 166 212 270 328 390
#     4  10  23  41  63  95 127 164 211 265 331 395
#     4  11  22  41  65  90 127 167 212 267 323 381
#     4  10  23  43  68 100 138 175 217 266 318 378
#     4  11  24  42  67  94 132 174 219 270 319 385
#     4  10  24  40  63  84 125 168 204 268 316 382
#
# _framework density 20.543078000000001
#
# number of rings (size 3 to 8) (size 9 to 14) (size 15 to 20)
#    0.000    1.412    2.353    2.118    3.294    6.588 
#    0.000   13.529    0.000    0.000    0.000    0.000 
#    0.000    0.000    0.000    0.000    0.000    0.000 
#
# Total GULP energy -189289.049650 kJ/mol
# GULP energy per Si atom -5567.324990 kJ/mol
# Density = 2.049632 g / cm^3
# Si number density = 20.543078 Si / 1000 Ang^3
#
#
#
# Elastic Constant Matrix: (Units=GPa)
#
#
# Indices 1 2 3 4 5 6 
#
# 1 194.0630 12.5073 49.9757 0.0000 0.0000 0.0000
# 2 12.5073 24.2636 8.3592 0.0000 0.0000 0.0000
# 3 49.9757 8.3592 63.4706 0.0000 0.0000 0.0000
# 4 0.0000 0.0000 0.0000 -88.5458 0.0000 0.0000
# 5 0.0000 0.0000 0.0000 0.0000 38.6749 0.0000
# 6 0.0000 0.0000 0.0000 0.0000 0.0000 8.0564
#
#
#
# Elastic Compliance Matrix: (Units=1/GPa)
#
#
# Indices 1 2 3 4 5 6 
#
# 1 0.006528 -0.001670 -0.004920 0.000000 0.000000 0.000000
# 2 -0.001670 0.043600 -0.004427 0.000000 0.000000 0.000000
# 3 -0.004920 -0.004427 0.020212 0.000000 0.000000 0.000000
# 4 0.000000 0.000000 0.000000 -0.011294 0.000000 0.000000
# 5 0.000000 0.000000 0.000000 0.000000 0.025857 0.000000
# 6 0.000000 0.000000 0.000000 0.000000 0.000000 0.124125
#
#
# Mechanical properties :
#
#
# Convention : Reuss Voigt Hill
#
# Bulk Modulus (GPa) = 20.70145 47.05351 33.87748
# Shear Modulus (GPa) = 20.22951 5.70076 12.96513
#
# Velocity S-wave (km/s) = 3.14145 1.66765 2.51493
# Velocity P-wave (km/s) = 4.82258 5.16358 4.99599
#
# Compressibility (1/GPa) = 0.04830580
#
# Stress axis : x y z
#
# Youngs Moduli (GPa) = 153.19707 22.93574 49.47522
#
# Poissons Ratio (x) = 0.03830 0.24341
# Poissons Ratio (y) = 0.25582 0.21904
# Poissons Ratio (z) = 0.75369 0.10154
#
# Static dielectric constant tensor:
#      x y z
#    x 1.635180 0.000000 0.000000 
#    y 0.000000 1.763900 0.000000 
#    z 0.000000 0.000000 1.756800 
# 
# From -- ./inp_files/49282.got.cif
#   From: 2010.05.17/outbox.cif.g08.bks.cpg/sg65_25_cif.got.tgz:49282.got - 2010.06.03 17:01:31.
