data_PCOD9493056
_publ_section_title
;
Structure prediction by ZEFSAII (Michael W. Deem and Ramdas Pophale) SiO2 
 PCOD9493056
Probable space group: C M M M
;
_chemical_formula_sum "Si O2"
_cell_formula_units_Z 72
_cell_length_a 18.450131
_cell_length_b 8.483527
_cell_length_c 24.380784
_cell_angle_alpha 90.000000
_cell_angle_beta 90.000000
_cell_angle_gamma 90.000000
_cell_volume 3816.133571
_symmetry_space_group_name_H-M "C M M M"
_symmetry_group_IT_number 65
_symmetry_cell_setting 'orthorhombic'
loop_
_space_group_symop_operation_xyz
x,y,z
-x,-y,z
x,-y,-z
-x,y,-z
-x,-y,-z
x,y,-z
-x,y,z
x,-y,z
1/2+x,1/2+y,z
1/2-x,1/2-y,z
1/2+x,1/2-y,-z
1/2-x,1/2+y,-z
1/2-x,1/2-y,-z
1/2+x,1/2+y,-z
1/2-x,1/2+y,z
1/2+x,1/2-y,z
loop_
_atom_site_type_symbol
_atom_site_label
_atom_site_fract_x
_atom_site_fract_y
_atom_site_fract_z
Si Si1 0.912282 0.687758 0.058894
Si Si2 0.083731 0.809200 0.606372
Si Si3 0.168434 0.811167 0.284455
Si Si4 0.668135 0.187517 0.500000
Si Si5 0.415309 0.190930 0.178579
O O1 0.897047 0.500000 0.058152
O O2 0.888360 0.748403 0.118442
O O3 0.000000 0.702152 0.059475
O O4 0.886608 0.754006 0.000000
O O5 0.122367 0.757836 0.662604
O O6 0.126597 0.747359 0.553882
O O7 0.000000 0.758415 0.605137
O O8 0.084983 0.000000 0.604867
O O9 0.250000 0.750000 0.288654
O O10 0.131219 0.752564 0.228793
O O11 0.169015 0.000000 0.284282
O O12 0.750000 0.250000 0.500000
O O13 0.669399 0.000000 0.500000
O O14 0.500000 0.236717 0.185187
O O15 0.413188 0.000000 0.178031
#
# Coordination Sequence:
#
# PCOD9493056 Si02
#       5
#    16  16  16   8  16
#     4   7  10  19  39  69 102 133 167 209 258 313
#     4  10  22  41  63  86 113 144 178 219 268 319
#     4  11  23  38  56  78 106 142 182 223 269 320
#     4  12  25  40  61  89 119 151 185 220 261 308
#     4   9  17  30  51  79 108 138 174 218 267 319
#
# _framework density 18.867263000000001
#
# number of rings (size 3 to 8) (size 9 to 14) (size 15 to 20)
#    0.000    2.444    0.000    5.333    0.000    6.667 
#    0.000    0.000    0.000    1.333    0.000    3.111 
#    0.000    0.000    0.000    0.000    0.000    0.000 
#
# Total GULP energy -200797.193823 kJ/mol
# GULP energy per Si atom -5577.699828 kJ/mol
# Density = 1.882432 g / cm^3
# Si number density = 18.867263 Si / 1000 Ang^3
#
#
#
# Elastic Constant Matrix: (Units=GPa)
#
#
# Indices 1 2 3 4 5 6 
#
# 1 135.0074 27.8563 107.4559 0.0000 0.0000 0.0000
# 2 27.8563 17.7759 33.3722 0.0000 0.0000 0.0000
# 3 107.4559 33.3722 238.6382 0.0000 0.0000 0.0000
# 4 0.0000 0.0000 0.0000 61.3312 0.0000 0.0000
# 5 0.0000 0.0000 0.0000 0.0000 -24.1937 0.0000
# 6 0.0000 0.0000 0.0000 0.0000 0.0000 4.1963
#
#
#
# Elastic Compliance Matrix: (Units=1/GPa)
#
#
# Indices 1 2 3 4 5 6 
#
# 1 0.013502 -0.013213 -0.004232 0.000000 0.000000 0.000000
# 2 -0.013213 0.089215 -0.006526 0.000000 0.000000 0.000000
# 3 -0.004232 -0.006526 0.007009 0.000000 0.000000 0.000000
# 4 0.000000 0.000000 0.000000 0.016305 0.000000 0.000000
# 5 0.000000 0.000000 0.000000 0.000000 -0.041333 0.000000
# 6 0.000000 0.000000 0.000000 0.000000 0.000000 0.238304
#
#
# Mechanical properties :
#
#
# Convention : Reuss Voigt Hill
#
# Bulk Modulus (GPa) = 16.18586 80.97669 48.58128
# Shear Modulus (GPa) = 12.77015 23.11590 17.94303
#
# Velocity S-wave (km/s) = 2.60444 3.50406 3.08720
# Velocity P-wave (km/s) = 4.20019 7.70608 6.20585
#
# Compressibility (1/GPa) = 0.06178230
#
# Stress axis : x y z
#
# Youngs Moduli (GPa) = 74.06581 11.20884 142.68121
#
# Poissons Ratio (x) = 0.14811 0.60379
# Poissons Ratio (y) = 0.97866 0.93120
# Poissons Ratio (z) = 0.31343 0.07315
#
# Static dielectric constant tensor:
#      x y z
#    x 1.618690 0.000000 0.000000 
#    y 0.000000 1.652850 0.000000 
#    z 0.000000 0.000000 1.679100 
# 
# From -- ./inp_files/70352.got.cif
#   From: 2010.05.17/outbox.cif.g08.bks.cpg/sg65_36_cif.got.tgz:70352.got - 2010.06.03 17:01:31.
