data_PCOD9493707
_publ_section_title
;
Structure prediction by ZEFSAII (Michael W. Deem and Ramdas Pophale) SiO2 
 PCOD9493707
Probable space group: C M M M
;
_chemical_formula_sum "Si O2"
_cell_formula_units_Z 72
_cell_length_a 18.544474
_cell_length_b 8.417146
_cell_length_c 23.862959
_cell_angle_alpha 90.000000
_cell_angle_beta 90.000000
_cell_angle_gamma 90.000000
_cell_volume 3724.806142
_symmetry_space_group_name_H-M "C M M M"
_symmetry_group_IT_number 65
_symmetry_cell_setting 'orthorhombic'
loop_
_space_group_symop_operation_xyz
x,y,z
-x,-y,z
x,-y,-z
-x,y,-z
-x,-y,-z
x,y,-z
-x,y,z
x,-y,z
1/2+x,1/2+y,z
1/2-x,1/2-y,z
1/2+x,1/2-y,-z
1/2-x,1/2+y,-z
1/2-x,1/2-y,-z
1/2+x,1/2+y,-z
1/2-x,1/2+y,z
1/2+x,1/2-y,z
loop_
_atom_site_type_symbol
_atom_site_label
_atom_site_fract_x
_atom_site_fract_y
_atom_site_fract_z
Si Si1 0.416841 0.693862 0.500000
Si Si2 0.168677 0.809329 0.171838
Si Si3 0.668104 0.309365 0.388733
Si Si4 0.416522 0.693503 0.937219
Si Si5 0.583134 0.809453 0.720051
O O1 0.417308 0.500000 0.500000
O O2 0.500000 0.746377 0.500000
O O3 0.374784 0.745186 0.444217
O O4 0.250000 0.750000 0.178041
O O5 0.133916 0.751919 0.113220
O O6 0.120572 0.751420 0.223522
O O7 0.168613 0.000000 0.171689
O O8 0.668483 0.500000 0.388393
O O9 0.750000 0.250000 0.389736
O O10 0.627309 0.250312 0.333514
O O11 0.500000 0.740085 0.927764
O O12 0.415342 0.500000 0.937165
O O13 0.395179 0.745165 0.000000
O O14 0.500000 0.755266 0.717056
O O15 0.584179 0.000000 0.720308
#
# Coordination Sequence:
#
# PCOD9493707 Si02
#       5
#     8  16  16  16  16
#     4   9  19  36  59  87 116 149 190 233 276 326
#     4  11  22  36  56  82 113 149 188 229 277 332
#     4  11  22  38  61  87 118 152 188 230 277 331
#     4   8  15  30  53  80 108 140 182 230 277 328
#     4  11  24  41  60  83 112 145 185 234 284 334
#
# _framework density 19.329864000000001
#
# number of rings (size 3 to 8) (size 9 to 14) (size 15 to 20)
#    0.000    1.889    0.000    5.000    0.000    4.000 
#    0.000    1.667    0.000    6.000    0.000    7.778 
#    0.000    0.000    0.000    0.000    0.000    0.000 
#
# Total GULP energy -201175.402359 kJ/mol
# GULP energy per Si atom -5588.205621 kJ/mol
# Density = 1.928587 g / cm^3
# Si number density = 19.329864 Si / 1000 Ang^3
#
#
#
# Elastic Constant Matrix: (Units=GPa)
#
#
# Indices 1 2 3 4 5 6 
#
# 1 199.0694 33.1979 124.8584 0.0000 0.0000 0.0000
# 2 33.1979 38.8821 32.1370 0.0000 0.0000 0.0000
# 3 124.8584 32.1370 193.8094 0.0000 0.0000 0.0000
# 4 0.0000 0.0000 0.0000 -14.9957 0.0000 0.0000
# 5 0.0000 0.0000 0.0000 0.0000 12.8278 0.0000
# 6 0.0000 0.0000 0.0000 0.0000 0.0000 -2.1551
#
#
#
# Elastic Compliance Matrix: (Units=1/GPa)
#
#
# Indices 1 2 3 4 5 6 
#
# 1 0.008774 -0.003267 -0.005110 0.000000 0.000000 0.000000
# 2 -0.003267 0.031020 -0.003039 0.000000 0.000000 0.000000
# 3 -0.005110 -0.003039 0.008956 0.000000 0.000000 0.000000
# 4 0.000000 0.000000 0.000000 -0.066686 0.000000 0.000000
# 5 0.000000 0.000000 0.000000 0.000000 0.077956 0.000000
# 6 0.000000 0.000000 0.000000 0.000000 0.000000 -0.464011
#
#
# Mechanical properties :
#
#
# Convention : Reuss Voigt Hill
#
# Bulk Modulus (GPa) = 38.58529 90.23860 64.41195
# Shear Modulus (GPa) = -13.42212 15.23989 0.90888
#
# Velocity S-wave (km/s) = -2.63795 2.81091 0.68645
# Velocity P-wave (km/s) = 3.27512 7.57099 5.83294
#
# Compressibility (1/GPa) = 0.02591661
#
# Stress axis : x y z
#
# Youngs Moduli (GPa) = 113.97907 32.23731 111.65756
#
# Poissons Ratio (x) = 0.10532 0.57062
# Poissons Ratio (y) = 0.37237 0.33932
# Poissons Ratio (z) = 0.58249 0.09797
#
# Static dielectric constant tensor:
#      x y z
#    x 1.640710 0.000000 0.000000 
#    y 0.000000 1.659830 0.000000 
#    z 0.000000 0.000000 1.655010 
# 
# From -- ./inp_files/70339.got.cif
#   From: 2010.05.17/outbox.cif.g08.bks.cpg/sg65_36_cif.got.tgz:70339.got - 2010.06.03 17:01:31.
