data_PCOD9493090
_publ_section_title
;
Structure prediction by ZEFSAII (Michael W. Deem and Ramdas Pophale) SiO2 
 PCOD9493090
Probable space group: C M M M
;
_chemical_formula_sum "Si O2"
_cell_formula_units_Z 88
_cell_length_a 12.414723
_cell_length_b 17.464683
_cell_length_c 19.971148
_cell_angle_alpha 90.000000
_cell_angle_beta 90.000000
_cell_angle_gamma 90.000000
_cell_volume 4330.128367
_symmetry_space_group_name_H-M "C M M M"
_symmetry_group_IT_number 65
_symmetry_cell_setting 'orthorhombic'
loop_
_space_group_symop_operation_xyz
x,y,z
-x,-y,z
x,-y,-z
-x,y,-z
-x,-y,-z
x,y,-z
-x,y,z
x,-y,z
1/2+x,1/2+y,z
1/2-x,1/2-y,z
1/2+x,1/2-y,-z
1/2-x,1/2+y,-z
1/2-x,1/2-y,-z
1/2+x,1/2+y,-z
1/2-x,1/2+y,z
1/2+x,1/2-y,z
loop_
_atom_site_type_symbol
_atom_site_label
_atom_site_fract_x
_atom_site_fract_y
_atom_site_fract_z
Si Si1 0.000000 0.408260 0.777478
Si Si2 0.227530 0.340664 0.425323
Si Si3 0.183409 0.326045 0.137663
Si Si4 0.500000 0.908388 0.616050
Si Si5 0.121025 0.091999 0.313124
Si Si6 0.617960 0.766660 0.000000
Si Si7 0.618059 0.408728 0.158810
O O1 0.105264 0.366359 0.808612
O O2 0.000000 0.401575 0.697007
O O3 0.000000 0.500000 0.793403
O O4 0.259869 0.367254 0.500000
O O5 0.250000 0.250000 0.422798
O O6 0.295702 0.377176 0.365911
O O7 0.105067 0.366484 0.412878
O O8 0.250000 0.250000 0.160652
O O9 0.115943 0.308066 0.071670
O O10 0.281950 0.380950 0.116878
O O11 0.500000 0.000000 0.600375
O O12 0.139924 0.114692 0.236015
O O13 0.000000 0.117072 0.330759
O O14 0.124154 0.000000 0.314076
O O15 0.750000 0.750000 0.000000
O O16 0.500000 0.722246 0.000000
O O17 0.500000 0.378450 0.139975
O O18 0.613178 0.500000 0.157680
#
# Coordination Sequence:
#
# PCOD9493090 Si02
#       7
#     8  16  16   8  16   8  16
#     4  11  24  42  64  94 131 162 204 266 328 378
#     4  11  25  41  59  86 122 161 203 257 316 371
#     4  11  23  38  63  92 125 162 214 256 311 373
#     4  11  25  44  66  90 122 169 213 256 314 390
#     4   9  19  37  61  88 117 154 200 251 310 375
#     4  10  22  42  64  89 132 176 215 264 321 375
#     4   9  19  37  60  87 123 160 198 254 317 373
#
# _framework density 20.322723
#
# number of rings (size 3 to 8) (size 9 to 14) (size 15 to 20)
#    0.000    1.818    0.909    3.545    2.545    8.727 
#    0.000    3.182    0.000    1.091    0.000    0.000 
#    0.000    0.000    0.000    0.000    0.000    0.000 
#
# Total GULP energy -245202.393986 kJ/mol
# GULP energy per Si atom -5572.781681 kJ/mol
# Density = 2.027647 g / cm^3
# Si number density = 20.322723 Si / 1000 Ang^3
#
#
#
# Elastic Constant Matrix: (Units=GPa)
#
#
# Indices 1 2 3 4 5 6 
#
# 1 148.1625 41.9171 22.7786 0.0000 0.0000 0.0000
# 2 41.9171 71.1123 31.4244 0.0000 0.0000 0.0000
# 3 22.7786 31.4244 48.9380 0.0000 0.0000 0.0000
# 4 0.0000 0.0000 0.0000 -5.7019 0.0000 0.0000
# 5 0.0000 0.0000 0.0000 0.0000 -56.3147 0.0000
# 6 0.0000 0.0000 0.0000 0.0000 0.0000 31.7653
#
#
#
# Elastic Compliance Matrix: (Units=1/GPa)
#
#
# Indices 1 2 3 4 5 6 
#
# 1 0.008134 -0.004358 -0.000988 0.000000 0.000000 0.000000
# 2 -0.004358 0.021968 -0.012078 0.000000 0.000000 0.000000
# 3 -0.000988 -0.012078 0.028649 0.000000 0.000000 0.000000
# 4 0.000000 0.000000 0.000000 -0.175381 0.000000 0.000000
# 5 0.000000 0.000000 0.000000 0.000000 -0.017757 0.000000
# 6 0.000000 0.000000 0.000000 0.000000 0.000000 0.031481
#
#
# Mechanical properties :
#
#
# Convention : Reuss Voigt Hill
#
# Bulk Modulus (GPa) = 41.83342 51.16146 46.49744
# Shear Modulus (GPa) = -83.20799 5.42260 -38.89270
#
# Velocity S-wave (km/s) = -6.40564 1.63525 -4.37939
# Velocity P-wave (km/s) = 5.83784 5.36605 1.62570
#
# Compressibility (1/GPa) = 0.02390433
#
# Stress axis : x y z
#
# Youngs Moduli (GPa) = 122.93781 45.51979 34.90498
#
# Poissons Ratio (x) = 0.19839 0.03447
# Poissons Ratio (y) = 0.53580 0.42158
# Poissons Ratio (z) = 0.12141 0.54978
#
# Static dielectric constant tensor:
#      x y z
#    x 1.779010 0.000000 0.000000 
#    y 0.000000 1.815360 0.000000 
#    z 0.000000 0.000000 1.707630 
# 
# From -- ./inp_files/61503.got.cif
#   From: 2010.05.17/outbox.cif.g08.bks.cpg/sg65_31_cif.got.tgz:61503.got - 2010.06.03 17:01:31.
