data_PCOD9493415
_publ_section_title
;
Structure prediction by ZEFSAII (Michael W. Deem and Ramdas Pophale) SiO2 
 PCOD9493415
Probable space group: C M M M
;
_chemical_formula_sum "Si O2"
_cell_formula_units_Z 80
_cell_length_a 28.887121
_cell_length_b 9.287863
_cell_length_c 21.273851
_cell_angle_alpha 90.000000
_cell_angle_beta 90.000000
_cell_angle_gamma 90.000000
_cell_volume 5707.766188
_symmetry_space_group_name_H-M "C M M M"
_symmetry_group_IT_number 65
_symmetry_cell_setting 'orthorhombic'
loop_
_space_group_symop_operation_xyz
x,y,z
-x,-y,z
x,-y,-z
-x,y,-z
-x,-y,-z
x,y,-z
-x,y,z
x,-y,z
1/2+x,1/2+y,z
1/2-x,1/2-y,z
1/2+x,1/2-y,-z
1/2-x,1/2+y,-z
1/2-x,1/2-y,-z
1/2+x,1/2+y,-z
1/2-x,1/2+y,z
1/2+x,1/2-y,z
loop_
_atom_site_type_symbol
_atom_site_label
_atom_site_fract_x
_atom_site_fract_y
_atom_site_fract_z
Si Si1 0.556250 0.334130 0.623340
Si Si2 0.602057 0.826818 0.881323
Si Si3 0.444656 0.327512 0.765028
Si Si4 0.555600 0.329850 0.000000
Si Si5 0.943520 0.334710 0.500000
Si Si6 0.796422 0.328516 0.926312
O O1 0.500000 0.331897 0.623144
O O2 0.570198 0.500000 0.614872
O O3 0.569499 0.287197 0.693683
O O4 0.572113 0.242162 0.564000
O O5 0.581931 0.762408 0.817249
O O6 0.656610 0.794533 0.889552
O O7 0.596035 0.000000 0.885030
O O8 0.575837 0.749506 0.938893
O O9 0.500000 0.303967 0.771525
O O10 0.437207 0.500000 0.772532
O O11 0.567844 0.500000 0.000000
O O12 0.500000 0.319718 0.000000
O O13 0.929767 0.500000 0.500000
O O14 0.000000 0.328569 0.500000
O O15 0.789370 0.500000 0.923710
O O16 0.750000 0.250000 0.904373
O O17 0.803874 0.289618 0.000000
#
# Coordination Sequence:
#
# PCOD9493415 Si02
#       6
#    16  16  16   8   8  16
#     4   8  14  25  39  53  74 107 143 176 208 242
#     4  11  21  33  47  65  87 109 136 175 220 260
#     4   9  18  31  44  60  84 115 151 182 207 247
#     4  11  23  35  46  61  82 111 148 181 206 243
#     4   9  15  21  33  55  79 101 134 179 216 247
#     4   9  18  33  49  66  85 103 130 169 213 263
#
# _framework density 14.01599
#
# number of rings (size 3 to 8) (size 9 to 14) (size 15 to 20)
#    0.000    2.600    1.000    3.000    0.000    7.200 
#    0.000    2.000    0.000    0.000    0.000    0.000 
#    0.000    0.000    0.000    0.900    0.000   11.900 
#
# Total GULP energy -222862.916145 kJ/mol
# GULP energy per Si atom -5571.572904 kJ/mol
# Density = 1.398409 g / cm^3
# Si number density = 14.015990 Si / 1000 Ang^3
#
#
#
# Elastic Constant Matrix: (Units=GPa)
#
#
# Indices 1 2 3 4 5 6 
#
# 1 65.6901 46.9681 49.4520 0.0000 0.0000 0.0000
# 2 46.9681 75.4714 78.8231 0.0000 0.0000 0.0000
# 3 49.4520 78.8231 142.2131 0.0000 0.0000 0.0000
# 4 0.0000 0.0000 0.0000 16.6625 0.0000 0.0000
# 5 0.0000 0.0000 0.0000 0.0000 0.2854 0.0000
# 6 0.0000 0.0000 0.0000 0.0000 0.0000 20.8036
#
#
#
# Elastic Compliance Matrix: (Units=1/GPa)
#
#
# Indices 1 2 3 4 5 6 
#
# 1 0.027429 -0.016879 -0.000182 0.000000 0.000000 0.000000
# 2 -0.016879 0.041851 -0.017327 0.000000 0.000000 0.000000
# 3 -0.000182 -0.017327 0.016699 0.000000 0.000000 0.000000
# 4 0.000000 0.000000 0.000000 0.060015 0.000000 0.000000
# 5 0.000000 0.000000 0.000000 0.000000 3.504062 0.000000
# 6 0.000000 0.000000 0.000000 0.000000 0.000000 0.048069
#
#
# Mechanical properties :
#
#
# Convention : Reuss Voigt Hill
#
# Bulk Modulus (GPa) = 58.13473 70.42902 64.28187
# Shear Modulus (GPa) = 1.32533 14.75906 8.04220
#
# Velocity S-wave (km/s) = 0.97347 3.24854 2.39798
# Velocity P-wave (km/s) = 6.54454 8.02676 7.32324
#
# Compressibility (1/GPa) = 0.01720142
#
# Stress axis : x y z
#
# Youngs Moduli (GPa) = 36.45779 23.89433 59.88510
#
# Poissons Ratio (x) = 0.40332 0.01092
# Poissons Ratio (y) = 0.61539 1.03762
# Poissons Ratio (z) = 0.00665 0.41401
#
# Static dielectric constant tensor:
#      x y z
#    x 1.434060 0.000000 0.000000 
#    y 0.000000 1.466300 0.000000 
#    z 0.000000 0.000000 1.463300 
# 
# From -- ./inp_files/60071.got.cif
#   From: 2010.05.17/outbox.cif.g08.bks.cpg/sg65_31_cif.got.tgz:60071.got - 2010.06.03 17:01:31.
