data_PCOD9493671
_publ_section_title
;
Structure prediction by ZEFSAII (Michael W. Deem and Ramdas Pophale) SiO2 
 PCOD9493671
Probable space group: C M M M
;
_chemical_formula_sum "Si O2"
_cell_formula_units_Z 96
_cell_length_a 7.597284
_cell_length_b 27.085090
_cell_length_c 25.101378
_cell_angle_alpha 90.000000
_cell_angle_beta 90.000000
_cell_angle_gamma 90.000000
_cell_volume 5165.188890
_symmetry_space_group_name_H-M "C M M M"
_symmetry_group_IT_number 65
_symmetry_cell_setting 'orthorhombic'
loop_
_space_group_symop_operation_xyz
x,y,z
-x,-y,z
x,-y,-z
-x,y,-z
-x,-y,-z
x,y,-z
-x,y,z
x,-y,z
1/2+x,1/2+y,z
1/2-x,1/2-y,z
1/2+x,1/2-y,-z
1/2-x,1/2+y,-z
1/2-x,1/2-y,-z
1/2+x,1/2+y,-z
1/2-x,1/2+y,z
1/2+x,1/2-y,z
loop_
_atom_site_type_symbol
_atom_site_label
_atom_site_fract_x
_atom_site_fract_y
_atom_site_fract_z
Si Si1 0.212678 0.940891 0.557362
Si Si2 0.213980 0.941705 0.327290
Si Si3 0.213124 0.840654 0.058235
Si Si4 0.299357 0.592283 0.214824
Si Si5 0.799475 0.694870 0.172926
Si Si6 0.284720 0.445515 0.897777
O O1 0.278604 0.921724 0.500000
O O2 0.277666 0.922526 0.614946
O O3 0.000000 0.935003 0.556927
O O4 0.244823 0.000000 0.557708
O O5 0.279540 0.916975 0.272898
O O6 0.000000 0.936933 0.328875
O O7 0.253116 0.000000 0.323706
O O8 0.277594 0.810645 0.109173
O O9 0.266822 0.897864 0.067899
O O10 0.000000 0.838968 0.059575
O O11 0.272247 0.823707 0.000000
O O12 0.500000 0.573479 0.218063
O O13 0.303451 0.649907 0.199633
O O14 0.222565 0.565147 0.162833
O O15 0.750000 0.750000 0.188832
O O16 0.000000 0.685559 0.186864
O O17 0.500000 0.445052 0.897467
O O18 0.229417 0.500000 0.915525
#
# Coordination Sequence:
#
# PCOD9493671 Si02
#       6
#    16  16  16  16  16  16
#     4   7   9  13  22  42  78 120 154 181 209 238
#     4   8  12  18  33  58  86 119 155 184 208 237
#     4   9  18  32  49  70  93 113 137 169 202 240
#     4   9  16  27  43  64  88 111 141 179 213 248
#     4  11  22  36  52  66  82 105 133 168 214 263
#     4   8  13  22  39  63  88 113 140 170 200 228
#
# _framework density 18.585961999999999
#
# number of rings (size 3 to 8) (size 9 to 14) (size 15 to 20)
#    0.000    3.333    0.000    4.500    0.000    3.000 
#    0.000    1.667    0.000   12.500    0.000    4.667 
#    0.000    1.333    0.000    5.333    0.000    5.000 
#
# Total GULP energy -267268.789946 kJ/mol
# GULP energy per Si atom -5568.099791 kJ/mol
# Density = 1.854366 g / cm^3
# Si number density = 18.585962 Si / 1000 Ang^3
#
#
#
# Elastic Constant Matrix: (Units=GPa)
#
#
# Indices 1 2 3 4 5 6 
#
# 1 42.9883 -8.0705 -3.0984 0.0000 0.0000 0.0000
# 2 -8.0705 38.1178 -9.6555 0.0000 0.0000 0.0000
# 3 -3.0984 -9.6555 107.9873 0.0000 0.0000 0.0000
# 4 0.0000 0.0000 0.0000 4.5237 0.0000 0.0000
# 5 0.0000 0.0000 0.0000 0.0000 -8.1742 0.0000
# 6 0.0000 0.0000 0.0000 0.0000 0.0000 -20.6281
#
#
#
# Elastic Compliance Matrix: (Units=1/GPa)
#
#
# Indices 1 2 3 4 5 6 
#
# 1 0.024373 0.005461 0.001188 0.000000 0.000000 0.000000
# 2 0.005461 0.028066 0.002666 0.000000 0.000000 0.000000
# 3 0.001188 0.002666 0.009533 0.000000 0.000000 0.000000
# 4 0.000000 0.000000 0.000000 0.221056 0.000000 0.000000
# 5 0.000000 0.000000 0.000000 0.000000 -0.122336 0.000000
# 6 0.000000 0.000000 0.000000 0.000000 0.000000 -0.048478
#
#
# Mechanical properties :
#
#
# Convention : Reuss Voigt Hill
#
# Bulk Modulus (GPa) = 12.40665 16.38274 14.39469
# Shear Modulus (GPa) = 41.51068 9.13881 25.32474
#
# Velocity S-wave (km/s) = 4.73106 2.21985 3.69531
# Velocity P-wave (km/s) = 6.04431 3.92479 5.09596
#
# Compressibility (1/GPa) = 0.08060196
#
# Stress axis : x y z
#
# Youngs Moduli (GPa) = 41.02895 35.63014 104.90081
#
# Poissons Ratio (x) = -0.19458 -0.12458
# Poissons Ratio (y) = -0.22407 -0.27968
# Poissons Ratio (z) = -0.04873 -0.09500
#
# Static dielectric constant tensor:
#      x y z
#    x 1.731960 0.000000 0.000000 
#    y 0.000000 1.620890 0.000000 
#    z 0.000000 0.000000 1.702060 
# 
# From -- ./inp_files/73710.got.cif
#   From: 2010.05.17/outbox.cif.g08.bks.cpg/sg65_37_cif.got.tgz:73710.got - 2010.06.03 17:01:31.
