data_PCOD9493980
_publ_section_title
;
Structure prediction by ZEFSAII (Michael W. Deem and Ramdas Pophale) SiO2 
 PCOD9493980
Probable space group: C M M M
;
_chemical_formula_sum "Si O2"
_cell_formula_units_Z 72
_cell_length_a 8.885506
_cell_length_b 15.178576
_cell_length_c 27.704013
_cell_angle_alpha 90.000000
_cell_angle_beta 90.000000
_cell_angle_gamma 90.000000
_cell_volume 3736.421620
_symmetry_space_group_name_H-M "C M M M"
_symmetry_group_IT_number 65
_symmetry_cell_setting 'orthorhombic'
loop_
_space_group_symop_operation_xyz
x,y,z
-x,-y,z
x,-y,-z
-x,y,-z
-x,-y,-z
x,y,-z
-x,y,z
x,-y,z
1/2+x,1/2+y,z
1/2-x,1/2-y,z
1/2+x,1/2-y,-z
1/2-x,1/2+y,-z
1/2-x,1/2-y,-z
1/2+x,1/2+y,-z
1/2-x,1/2+y,z
1/2+x,1/2-y,z
loop_
_atom_site_type_symbol
_atom_site_label
_atom_site_fract_x
_atom_site_fract_y
_atom_site_fract_z
Si Si1 0.320421 0.104010 0.849027
Si Si2 0.177792 0.106878 0.947690
Si Si3 0.680945 0.151646 0.500000
Si Si4 0.818591 0.341073 0.257623
Si Si5 0.180078 0.000000 0.317926
Si Si6 0.181879 0.500000 0.576185
O O1 0.500000 0.111075 0.852475
O O2 0.251575 0.140019 0.898563
O O3 0.272407 0.145963 0.798535
O O4 0.282260 0.000000 0.845574
O O5 0.000000 0.124462 0.946099
O O6 0.196268 0.000000 0.947539
O O7 0.237530 0.137764 0.000000
O O8 0.500000 0.161064 0.500000
O O9 0.750000 0.250000 0.500000
O O10 0.720536 0.088232 0.545497
O O11 0.750000 0.250000 0.274918
O O12 0.748939 0.417227 0.289801
O O13 0.000000 0.343291 0.259852
O O14 0.236583 0.000000 0.372824
O O15 0.000000 0.000000 0.315540
O O16 0.000000 0.500000 0.582218
#
# Coordination Sequence:
#
# PCOD9493980 Si02
#       6
#    16  16   8  16   8   8
#     4   9  17  31  51  74 103 140 180 229 291 350
#     4   8  14  24  40  67 101 134 172 221 277 340
#     4   9  19  37  64  94 126 167 209 247 297 348
#     4  11  23  41  61  85 117 154 198 251 304 361
#     4  12  25  41  63  92 123 163 208 251 304 358
#     4   9  20  40  62  88 126 169 205 247 300 351
#
# _framework density 19.269774000000002
#
# number of rings (size 3 to 8) (size 9 to 14) (size 15 to 20)
#    0.000    2.444    1.111    3.000    0.000    4.000 
#    0.000    5.556    0.000    0.667    0.000    0.000 
#    0.000    0.000    0.000    0.000    0.000    0.000 
#
# Total GULP energy -200858.522155 kJ/mol
# GULP energy per Si atom -5579.403393 kJ/mol
# Density = 1.922591 g / cm^3
# Si number density = 19.269774 Si / 1000 Ang^3
#
#
#
# Elastic Constant Matrix: (Units=GPa)
#
#
# Indices 1 2 3 4 5 6 
#
# 1 54.0397 50.9835 62.3935 0.0000 0.0000 0.0000
# 2 50.9835 140.9126 81.4101 0.0000 0.0000 0.0000
# 3 62.3935 81.4101 171.1998 0.0000 0.0000 0.0000
# 4 0.0000 0.0000 0.0000 -246.1382 0.0000 0.0000
# 5 0.0000 0.0000 0.0000 0.0000 26.7446 0.0000
# 6 0.0000 0.0000 0.0000 0.0000 0.0000 22.6679
#
#
#
# Elastic Compliance Matrix: (Units=1/GPa)
#
#
# Indices 1 2 3 4 5 6 
#
# 1 0.037236 -0.007766 -0.009878 0.000000 0.000000 0.000000
# 2 -0.007766 0.011404 -0.002593 0.000000 0.000000 0.000000
# 3 -0.009878 -0.002593 0.010674 0.000000 0.000000 0.000000
# 4 0.000000 0.000000 0.000000 -0.004063 0.000000 0.000000
# 5 0.000000 0.000000 0.000000 0.000000 0.037391 0.000000
# 6 0.000000 0.000000 0.000000 0.000000 0.000000 0.044115
#
#
# Mechanical properties :
#
#
# Convention : Reuss Voigt Hill
#
# Bulk Modulus (GPa) = 53.07351 83.96960 68.52155
# Shear Modulus (GPa) = 27.24631 -27.92081 -0.33725
#
# Velocity S-wave (km/s) = 3.76432 -3.81063 -0.41880
# Velocity P-wave (km/s) = 6.81877 4.93044 5.94999
#
# Compressibility (1/GPa) = 0.01884179
#
# Stress axis : x y z
#
# Youngs Moduli (GPa) = 26.85560 87.68666 93.68470
#
# Poissons Ratio (x) = 0.68094 0.92541
# Poissons Ratio (y) = 0.20855 0.24291
# Poissons Ratio (z) = 0.26528 0.22736
#
# Static dielectric constant tensor:
#      x y z
#    x 1.640790 0.000000 0.000000 
#    y 0.000000 1.705320 0.000000 
#    z 0.000000 0.000000 1.678610 
# 
# From -- ./inp_files/72617.got.cif
#   From: 2010.05.17/outbox.cif.g08.bks.cpg/sg65_37_cif.got.tgz:72617.got - 2010.06.03 17:01:31.
