data_PCOD9493030
_publ_section_title
;
Structure prediction by ZEFSAII (Michael W. Deem and Ramdas Pophale) SiO2 
 PCOD9493030
Probable space group: C M M M
;
_chemical_formula_sum "Si O2"
_cell_formula_units_Z 72
_cell_length_a 29.339348
_cell_length_b 8.902374
_cell_length_c 13.887403
_cell_angle_alpha 90.000000
_cell_angle_beta 90.000000
_cell_angle_gamma 90.000000
_cell_volume 3627.248690
_symmetry_space_group_name_H-M "C M M M"
_symmetry_group_IT_number 65
_symmetry_cell_setting 'orthorhombic'
loop_
_space_group_symop_operation_xyz
x,y,z
-x,-y,z
x,-y,-z
-x,y,-z
-x,-y,-z
x,y,-z
-x,y,z
x,-y,z
1/2+x,1/2+y,z
1/2-x,1/2-y,z
1/2+x,1/2-y,-z
1/2-x,1/2+y,-z
1/2-x,1/2-y,-z
1/2+x,1/2+y,-z
1/2-x,1/2+y,z
1/2+x,1/2-y,z
loop_
_atom_site_type_symbol
_atom_site_label
_atom_site_fract_x
_atom_site_fract_y
_atom_site_fract_z
Si Si1 0.198138 0.683313 0.500000
Si Si2 0.447358 0.677011 0.794029
Si Si3 0.869873 0.670795 0.672716
Si Si4 0.077248 0.322285 0.000000
Si Si5 0.825869 0.826450 0.000000
Si Si6 0.710282 0.829330 0.819649
O O1 0.202987 0.500000 0.500000
O O2 0.250000 0.750000 0.500000
O O3 0.165049 0.725942 0.410047
O O4 0.500000 0.698142 0.765559
O O5 0.438258 0.500000 0.806895
O O6 0.413474 0.739334 0.711693
O O7 0.440908 0.753755 0.899264
O O8 0.883660 0.500000 0.646592
O O9 0.836961 0.664770 0.764632
O O10 0.130535 0.281313 0.000000
O O11 0.069587 0.500000 0.000000
O O12 0.797119 0.782690 0.092528
O O13 0.839546 0.000000 0.000000
O O14 0.750000 0.750000 0.758173
O O15 0.721614 0.000000 0.846687
#
# Coordination Sequence:
#
# PCOD9493030 Si02
#       6
#     8  16  16   8   8  16
#     4  10  22  42  67  98 127 161 206 253 309 372
#     4  11  24  41  63  92 125 163 209 256 306 365
#     4  10  22  40  63  89 122 159 204 256 307 368
#     4  12  23  38  61  90 124 165 208 252 306 366
#     4  12  23  36  55  81 117 160 201 248 298 354
#     4  11  22  36  55  82 116 158 202 247 299 362
#
# _framework density 19.849755999999999
#
# number of rings (size 3 to 8) (size 9 to 14) (size 15 to 20)
#    0.000    1.111    2.222    4.667    0.000    4.889 
#    0.000    0.556    0.000    3.333    0.000    0.000 
#    0.000    0.000    0.000    0.000    0.000    0.000 
#
# Total GULP energy -200792.854537 kJ/mol
# GULP energy per Si atom -5577.579293 kJ/mol
# Density = 1.980458 g / cm^3
# Si number density = 19.849756 Si / 1000 Ang^3
#
#
#
# Elastic Constant Matrix: (Units=GPa)
#
#
# Indices 1 2 3 4 5 6 
#
# 1 138.3959 67.6409 49.2834 0.0000 0.0000 0.0000
# 2 67.6409 108.6485 44.0911 0.0000 0.0000 0.0000
# 3 49.2834 44.0911 99.3474 0.0000 0.0000 0.0000
# 4 0.0000 0.0000 0.0000 5.6969 0.0000 0.0000
# 5 0.0000 0.0000 0.0000 0.0000 46.8479 0.0000
# 6 0.0000 0.0000 0.0000 0.0000 0.0000 36.4555
#
#
#
# Elastic Compliance Matrix: (Units=1/GPa)
#
#
# Indices 1 2 3 4 5 6 
#
# 1 0.011058 -0.005681 -0.002964 0.000000 0.000000 0.000000
# 2 -0.005681 0.014145 -0.003459 0.000000 0.000000 0.000000
# 3 -0.002964 -0.003459 0.013071 0.000000 0.000000 0.000000
# 4 0.000000 0.000000 0.000000 0.175534 0.000000 0.000000
# 5 0.000000 0.000000 0.000000 0.000000 0.021346 0.000000
# 6 0.000000 0.000000 0.000000 0.000000 0.000000 0.027431
#
#
# Mechanical properties :
#
#
# Convention : Reuss Voigt Hill
#
# Bulk Modulus (GPa) = 71.09998 74.26916 72.68457
# Shear Modulus (GPa) = 17.15372 30.15851 23.65611
#
# Velocity S-wave (km/s) = 2.94288 3.90210 3.45593
# Velocity P-wave (km/s) = 6.88798 7.60255 7.25407
#
# Compressibility (1/GPa) = 0.01406470
#
# Stress axis : x y z
#
# Youngs Moduli (GPa) = 90.43251 70.69707 76.50358
#
# Poissons Ratio (x) = 0.40166 0.22676
# Poissons Ratio (y) = 0.51379 0.26464
# Poissons Ratio (z) = 0.26805 0.24455
#
# Static dielectric constant tensor:
#      x y z
#    x 1.717350 0.000000 0.000000 
#    y 0.000000 1.713460 0.000000 
#    z 0.000000 0.000000 1.746230 
# 
# From -- ./inp_files/46561.got.cif
#   From: 2010.05.17/outbox.cif.g08.bks.cpg/sg65_24_cif.got.tgz:46561.got - 2010.06.03 17:01:31.
