data_PCOD9493678
_publ_section_title
;
Structure prediction by ZEFSAII (Michael W. Deem and Ramdas Pophale) SiO2 
 PCOD9493678
Probable space group: C M M M
;
_chemical_formula_sum "Si O2"
_cell_formula_units_Z 112
_cell_length_a 15.360049
_cell_length_b 15.298400
_cell_length_c 28.352938
_cell_angle_alpha 90.000000
_cell_angle_beta 90.000000
_cell_angle_gamma 90.000000
_cell_volume 6662.491706
_symmetry_space_group_name_H-M "C M M M"
_symmetry_group_IT_number 65
_symmetry_cell_setting 'orthorhombic'
loop_
_space_group_symop_operation_xyz
x,y,z
-x,-y,z
x,-y,-z
-x,y,-z
-x,-y,-z
x,y,-z
-x,y,z
x,-y,z
1/2+x,1/2+y,z
1/2-x,1/2-y,z
1/2+x,1/2-y,-z
1/2-x,1/2+y,-z
1/2-x,1/2-y,-z
1/2+x,1/2+y,-z
1/2-x,1/2+y,z
1/2+x,1/2-y,z
loop_
_atom_site_type_symbol
_atom_site_label
_atom_site_fract_x
_atom_site_fract_y
_atom_site_fract_z
Si Si1 0.148798 0.228076 0.260035
Si Si2 0.097598 0.597943 0.780667
Si Si3 0.097827 0.097981 0.824035
Si Si4 0.229213 0.351029 0.136204
Si Si5 0.598143 0.894486 0.945401
Si Si6 0.105552 0.101337 0.654338
Si Si7 0.897824 0.105966 0.449287
O O1 0.250000 0.250000 0.255628
O O2 0.104313 0.323031 0.256311
O O3 0.116059 0.169456 0.216167
O O4 0.132860 0.169638 0.305957
O O5 0.110383 0.500000 0.761135
O O6 0.169201 0.613967 0.821064
O O7 0.000000 0.601113 0.801588
O O8 0.176339 0.104117 0.861165
O O9 0.000000 0.111510 0.842999
O O10 0.100603 0.000000 0.803049
O O11 0.250000 0.250000 0.143379
O O12 0.172994 0.362545 0.089249
O O13 0.500000 0.865759 0.931483
O O14 0.598503 0.000000 0.943387
O O15 0.611969 0.869245 0.000000
O O16 0.137752 0.130250 0.602158
O O17 0.000000 0.099893 0.653081
O O18 0.132796 0.000000 0.663594
O O19 0.859849 0.135024 0.500000
O O20 0.000000 0.130847 0.449663
O O21 0.895813 0.000000 0.449133
#
# Coordination Sequence:
#
# PCOD9493678 Si02
#       7
#    16  16  16  16  16  16  16
#     4  12  22  34  48  70 100 136 171 217 256 309
#     4  11  22  36  54  73  98 134 174 218 262 301
#     4  11  22  36  54  74 102 139 175 212 253 304
#     4  12  22  35  55  81 108 138 167 216 256 309
#     4   9  19  37  61  86 110 138 173 214 257 300
#     4   9  17  29  48  73 101 133 166 207 259 314
#     4   7  10  19  38  66  97 126 159 201 251 306
#
# _framework density 16.810528000000001
#
# number of rings (size 3 to 8) (size 9 to 14) (size 15 to 20)
#    0.000    1.857    2.857    5.143    0.000    3.714 
#    0.000    0.000    0.000    0.857    0.000    2.000 
#    0.000    0.571    0.000    5.286    0.000    0.286 
#
# Total GULP energy -311911.804174 kJ/mol
# GULP energy per Si atom -5569.853646 kJ/mol
# Density = 1.677227 g / cm^3
# Si number density = 16.810528 Si / 1000 Ang^3
#
#
#
# Elastic Constant Matrix: (Units=GPa)
#
#
# Indices 1 2 3 4 5 6 
#
# 1 107.0860 34.1578 45.4876 0.0000 0.0000 0.0000
# 2 34.1578 101.4547 39.0444 0.0000 0.0000 0.0000
# 3 45.4876 39.0444 103.0945 0.0000 0.0000 0.0000
# 4 0.0000 0.0000 0.0000 8.4076 0.0000 0.0000
# 5 0.0000 0.0000 0.0000 0.0000 9.4161 0.0000
# 6 0.0000 0.0000 0.0000 0.0000 0.0000 23.2823
#
#
#
# Elastic Compliance Matrix: (Units=1/GPa)
#
#
# Indices 1 2 3 4 5 6 
#
# 1 0.011946 -0.002334 -0.004387 0.000000 0.000000 0.000000
# 2 -0.002334 0.011994 -0.003513 0.000000 0.000000 0.000000
# 3 -0.004387 -0.003513 0.012966 0.000000 0.000000 0.000000
# 4 0.000000 0.000000 0.000000 0.118940 0.000000 0.000000
# 5 0.000000 0.000000 0.000000 0.000000 0.106201 0.000000
# 6 0.000000 0.000000 0.000000 0.000000 0.000000 0.042951
#
#
# Mechanical properties :
#
#
# Convention : Reuss Voigt Hill
#
# Bulk Modulus (GPa) = 60.83059 61.00165 60.91612
# Shear Modulus (GPa) = 15.10822 21.08424 18.09623
#
# Velocity S-wave (km/s) = 3.00114 3.54535 3.28454
# Velocity P-wave (km/s) = 6.94793 7.28875 7.12038
#
# Compressibility (1/GPa) = 0.01643910
#
# Stress axis : x y z
#
# Youngs Moduli (GPa) = 83.70848 83.37353 77.12533
#
# Poissons Ratio (x) = 0.19457 0.33836
# Poissons Ratio (y) = 0.19535 0.27093
# Poissons Ratio (z) = 0.36724 0.29288
#
# Static dielectric constant tensor:
#      x y z
#    x 1.602780 0.000000 0.000000 
#    y 0.000000 1.590810 0.000000 
#    z 0.000000 0.000000 1.598090 
# 
# From -- ./inp_files/74857.got.cif
#   From: 2010.05.17/outbox.cif.g08.bks.cpg/sg65_38_cif.got.tgz:74857.got - 2010.06.03 17:01:31.
