data_PCOD9493023
_publ_section_title
;
Structure prediction by ZEFSAII (Michael W. Deem and Ramdas Pophale) SiO2 
 PCOD9493023
Probable space group: C M M M
;
_chemical_formula_sum "Si O2"
_cell_formula_units_Z 66
_cell_length_a 15.572381
_cell_length_b 23.989260
_cell_length_c 9.472315
_cell_angle_alpha 90.000000
_cell_angle_beta 90.000000
_cell_angle_gamma 90.000000
_cell_volume 3538.571735
_symmetry_space_group_name_H-M "C M M M"
_symmetry_group_IT_number 65
_symmetry_cell_setting 'orthorhombic'
loop_
_space_group_symop_operation_xyz
x,y,z
-x,-y,z
x,-y,-z
-x,y,-z
-x,-y,-z
x,y,-z
-x,y,z
x,-y,z
1/2+x,1/2+y,z
1/2-x,1/2-y,z
1/2+x,1/2-y,-z
1/2-x,1/2+y,-z
1/2-x,1/2-y,-z
1/2+x,1/2+y,-z
1/2-x,1/2+y,z
1/2+x,1/2-y,z
loop_
_atom_site_type_symbol
_atom_site_label
_atom_site_fract_x
_atom_site_fract_y
_atom_site_fract_z
Si Si1 0.099235 0.895880 0.334786
Si Si2 0.328195 0.500000 0.170802
Si Si3 0.129819 0.500000 0.234501
Si Si4 0.904036 0.625124 0.838914
Si Si5 0.000000 0.500000 0.500000
Si Si6 0.244714 0.314127 0.332145
O O1 0.110244 0.913490 0.500000
O O2 0.123271 0.945939 0.230397
O O3 0.165476 0.845818 0.308856
O O4 0.000000 0.879671 0.316914
O O5 0.233210 0.500000 0.239703
O O6 0.321362 0.500000 0.000000
O O7 0.106028 0.558257 0.161679
O O8 0.075658 0.500000 0.377830
O O9 0.830479 0.652564 0.745613
O O10 0.000000 0.638142 0.785319
O O11 0.896478 0.644671 0.000000
O O12 0.227389 0.314816 0.500000
O O13 0.250000 0.250000 0.285766
#
# Coordination Sequence:
#
# PCOD9493023 Si02
#       6
#    16   8   8  16   2  16
#     4  10  22  40  62  88 124 163 205 257 316 373
#     4  12  24  38  62  94 125 162 202 253 314 375
#     4  12  24  38  60  94 132 158 203 251 308 367
#     4  11  23  40  62  90 127 165 199 247 311 377
#     4  12  28  36  62 104 130 172 210 252 304 390
#     4  10  23  41  63  90 119 159 212 264 309 362
#
# _framework density 18.651593999999999
#
# number of rings (size 3 to 8) (size 9 to 14) (size 15 to 20)
#    0.000    1.212    3.636    1.818    3.394    4.848 
#    0.000    2.424    0.000    0.000    0.000    0.000 
#    0.000    0.000    0.000    0.000    0.000    0.000 
#
# Total GULP energy -184007.897915 kJ/mol
# GULP energy per Si atom -5575.996907 kJ/mol
# Density = 1.860914 g / cm^3
# Si number density = 18.651594 Si / 1000 Ang^3
#
#
#
# Elastic Constant Matrix: (Units=GPa)
#
#
# Indices 1 2 3 4 5 6 
#
# 1 182.7449 63.6982 67.5283 0.0000 0.0000 0.0000
# 2 63.6982 119.0938 53.4073 0.0000 0.0000 0.0000
# 3 67.5283 53.4073 79.3782 0.0000 0.0000 0.0000
# 4 0.0000 0.0000 0.0000 -22.9702 0.0000 0.0000
# 5 0.0000 0.0000 0.0000 0.0000 104.1507 0.0000
# 6 0.0000 0.0000 0.0000 0.0000 0.0000 -0.1029
#
#
#
# Elastic Compliance Matrix: (Units=1/GPa)
#
#
# Indices 1 2 3 4 5 6 
#
# 1 0.008245 -0.001811 -0.005796 0.000000 0.000000 0.000000
# 2 -0.001811 0.012423 -0.006818 0.000000 0.000000 0.000000
# 3 -0.005796 -0.006818 0.022116 0.000000 0.000000 0.000000
# 4 0.000000 0.000000 0.000000 -0.043535 0.000000 0.000000
# 5 0.000000 0.000000 0.000000 0.000000 0.009601 0.000000
# 6 0.000000 0.000000 0.000000 0.000000 0.000000 -9.718920
#
#
# Mechanical properties :
#
#
# Convention : Reuss Voigt Hill
#
# Bulk Modulus (GPa) = 71.76390 83.38716 77.57553
# Shear Modulus (GPa) = -0.51671 29.32106 14.40217
#
# Velocity S-wave (km/s) = -0.52691 3.96920 2.78181
# Velocity P-wave (km/s) = 6.17975 8.11239 7.21111
#
# Compressibility (1/GPa) = 0.01393458
#
# Stress axis : x y z
#
# Youngs Moduli (GPa) = 121.28627 80.49811 45.21687
#
# Poissons Ratio (x) = 0.14576 0.26207
# Poissons Ratio (y) = 0.21962 0.30828
# Poissons Ratio (z) = 0.70295 0.54882
#
# Static dielectric constant tensor:
#      x y z
#    x 1.639700 0.000000 0.000000 
#    y 0.000000 1.629140 0.000000 
#    z 0.000000 0.000000 1.629010 
# 
# From -- ./inp_files/7160.got.cif
#   From: 2010.05.17/outbox.cif.g08.bks.cpg/sg65_4_cif.got.tgz:7160.got - 2010.06.03 17:01:31.
