data_PCOD9493921
_publ_section_title
;
Structure prediction by ZEFSAII (Michael W. Deem and Ramdas Pophale) SiO2 
 PCOD9493921
Probable space group: C M M M
;
_chemical_formula_sum "Si O2"
_cell_formula_units_Z 64
_cell_length_a 8.799227
_cell_length_b 26.198997
_cell_length_c 12.783426
_cell_angle_alpha 90.000000
_cell_angle_beta 90.000000
_cell_angle_gamma 90.000000
_cell_volume 2946.974979
_symmetry_space_group_name_H-M "C M M M"
_symmetry_group_IT_number 65
_symmetry_cell_setting 'orthorhombic'
loop_
_space_group_symop_operation_xyz
x,y,z
-x,-y,z
x,-y,-z
-x,y,-z
-x,-y,-z
x,y,-z
-x,y,z
x,-y,z
1/2+x,1/2+y,z
1/2-x,1/2-y,z
1/2+x,1/2-y,-z
1/2-x,1/2+y,-z
1/2-x,1/2-y,-z
1/2+x,1/2+y,-z
1/2-x,1/2+y,z
1/2+x,1/2-y,z
loop_
_atom_site_type_symbol
_atom_site_label
_atom_site_fract_x
_atom_site_fract_y
_atom_site_fract_z
Si Si1 0.681478 0.558715 0.000000
Si Si2 0.831449 0.088318 0.380708
Si Si3 0.171751 0.799636 0.311400
Si Si4 0.822705 0.647405 0.884004
Si Si5 0.000000 0.439520 0.380389
O O1 0.740847 0.592646 0.097759
O O2 0.734534 0.500000 0.000000
O O3 0.500000 0.558958 0.000000
O O4 0.830246 0.068324 0.500000
O O5 0.829260 0.149714 0.380898
O O6 0.665901 0.074409 0.333560
O O7 0.000000 0.073823 0.335401
O O8 0.250000 0.750000 0.357717
O O9 0.252212 0.818122 0.205114
O O10 0.000000 0.785558 0.286146
O O11 0.000000 0.639027 0.864024
O O12 0.807051 0.671722 0.000000
O O13 0.000000 0.500000 0.386592
O O14 0.000000 0.417610 0.500000
#
# Coordination Sequence:
#
# PCOD9493921 Si02
#       5
#     8  16  16  16   8
#     4   9  17  33  58  83 110 145 183 229 284 340
#     4   9  20  38  58  84 119 153 191 240 287 341
#     4  11  23  37  58  83 112 151 191 235 288 340
#     4   9  20  36  56  80 110 144 182 232 278 333
#     4   9  18  34  60  88 113 151 195 237 290 341
#
# _framework density 21.717184
#
# number of rings (size 3 to 8) (size 9 to 14) (size 15 to 20)
#    0.750    1.750    0.000    1.500    3.500    2.500 
#    0.000    3.750    0.000    1.500    0.000    0.000 
#    0.000    0.000    0.000    0.000    0.000    0.000 
#
# Total GULP energy -178195.952442 kJ/mol
# GULP energy per Si atom -5568.623514 kJ/mol
# Density = 2.166775 g / cm^3
# Si number density = 21.717184 Si / 1000 Ang^3
#
#
#
# Elastic Constant Matrix: (Units=GPa)
#
#
# Indices 1 2 3 4 5 6 
#
# 1 190.9797 36.5584 20.7426 0.0000 0.0000 0.0000
# 2 36.5584 65.0778 -12.7372 0.0000 0.0000 0.0000
# 3 20.7426 -12.7372 51.5497 0.0000 0.0000 0.0000
# 4 0.0000 0.0000 0.0000 17.1955 0.0000 0.0000
# 5 0.0000 0.0000 0.0000 0.0000 0.6040 0.0000
# 6 0.0000 0.0000 0.0000 0.0000 0.0000 6.2515
#
#
#
# Elastic Compliance Matrix: (Units=1/GPa)
#
#
# Indices 1 2 3 4 5 6 
#
# 1 0.006469 -0.004354 -0.003679 0.000000 0.000000 0.000000
# 2 -0.004354 0.019078 0.006466 0.000000 0.000000 0.000000
# 3 -0.003679 0.006466 0.022477 0.000000 0.000000 0.000000
# 4 0.000000 0.000000 0.000000 0.058155 0.000000 0.000000
# 5 0.000000 0.000000 0.000000 0.000000 1.655715 0.000000
# 6 0.000000 0.000000 0.000000 0.000000 0.000000 0.159962
#
#
# Mechanical properties :
#
#
# Convention : Reuss Voigt Hill
#
# Bulk Modulus (GPa) = 22.27708 44.08164 33.17936
# Shear Modulus (GPa) = 2.57738 22.34641 12.46190
#
# Velocity S-wave (km/s) = 1.09058 3.21124 2.39807
# Velocity P-wave (km/s) = 3.44469 5.83880 4.79361
#
# Compressibility (1/GPa) = 0.04488919
#
# Stress axis : x y z
#
# Youngs Moduli (GPa) = 154.57739 52.41695 44.49042
#
# Poissons Ratio (x) = 0.22824 0.16368
# Poissons Ratio (y) = 0.67307 -0.28767
# Poissons Ratio (z) = 0.56869 -0.33892
#
# Static dielectric constant tensor:
#      x y z
#    x 1.827670 0.000000 0.000000 
#    y 0.000000 1.774290 0.000000 
#    z 0.000000 0.000000 1.818340 
# 
# From -- ./inp_files/36037.got.cif
#   From: 2010.05.17/outbox.cif.g08.bks.cpg/sg65_19_cif.got.tgz:36037.got - 2010.06.03 17:01:31.
