data_PCOD9493171
_publ_section_title
;
Structure prediction by ZEFSAII (Michael W. Deem and Ramdas Pophale) SiO2 
 PCOD9493171
Probable space group: C M M M
;
_chemical_formula_sum "Si O2"
_cell_formula_units_Z 38
_cell_length_a 19.228471
_cell_length_b 18.318451
_cell_length_c 5.189139
_cell_angle_alpha 90.000000
_cell_angle_beta 90.000000
_cell_angle_gamma 90.000000
_cell_volume 1827.800547
_symmetry_space_group_name_H-M "C M M M"
_symmetry_group_IT_number 65
_symmetry_cell_setting 'orthorhombic'
loop_
_space_group_symop_operation_xyz
x,y,z
-x,-y,z
x,-y,-z
-x,y,-z
-x,-y,-z
x,y,-z
-x,y,z
x,-y,z
1/2+x,1/2+y,z
1/2-x,1/2-y,z
1/2+x,1/2-y,-z
1/2-x,1/2+y,-z
1/2-x,1/2-y,-z
1/2+x,1/2+y,-z
1/2-x,1/2+y,z
1/2+x,1/2-y,z
loop_
_atom_site_type_symbol
_atom_site_label
_atom_site_fract_x
_atom_site_fract_y
_atom_site_fract_z
Si Si1 0.697914 0.860457 0.500000
Si Si2 0.500000 0.000000 0.000000
Si Si3 0.273338 0.585547 0.000000
Si Si4 0.923780 0.138009 0.000000
Si Si5 0.100263 0.500000 0.500000
Si Si6 0.922102 0.240686 0.500000
O O1 0.744954 0.870986 0.247782
O O2 0.646845 0.928850 0.500000
O O3 0.645394 0.792207 0.500000
O O4 0.441436 0.000000 0.767895
O O5 0.356730 0.587472 0.000000
O O6 0.250716 0.500000 0.000000
O O7 0.920151 0.190117 0.751069
O O8 0.000000 0.101702 0.000000
O O9 0.000000 0.278269 0.500000
#
# Coordination Sequence:
#
# PCOD9493171 Si02
#       6
#     8   2   8   8   4   8
#     4  12  24  41  63  91 134 165 207 252 314 366
#     4  10  24  34  60  82 120 170 226 234 302 338
#     4  12  24  42  65  93 126 166 206 260 317 372
#     4  10  23  44  66  91 125 157 211 267 313 372
#     4  11  22  42  54  92 127 172 202 270 283 372
#     4  10  23  42  62  93 124 166 207 257 308 369
#
# _framework density 20.790012000000001
#
# number of rings (size 3 to 8) (size 9 to 14) (size 15 to 20)
#    0.000    1.053    2.105    3.789    2.947    5.474 
#    3.789    0.000    0.000    6.316    0.000    0.000 
#    0.000    0.000    0.000    0.000    0.000    0.000 
#
# Total GULP energy -105899.515931 kJ/mol
# GULP energy per Si atom -5573.658733 kJ/mol
# Density = 2.074269 g / cm^3
# Si number density = 20.790012 Si / 1000 Ang^3
#
#
#
# Elastic Constant Matrix: (Units=GPa)
#
#
# Indices 1 2 3 4 5 6 
#
# 1 160.1110 29.6612 59.6849 0.0000 0.0000 0.0000
# 2 29.6612 42.6503 20.7638 0.0000 0.0000 0.0000
# 3 59.6849 20.7638 211.8257 0.0000 0.0000 0.0000
# 4 0.0000 0.0000 0.0000 -0.8960 0.0000 0.0000
# 5 0.0000 0.0000 0.0000 0.0000 106.8140 0.0000
# 6 0.0000 0.0000 0.0000 0.0000 0.0000 102.2087
#
#
#
# Elastic Compliance Matrix: (Units=1/GPa)
#
#
# Indices 1 2 3 4 5 6 
#
# 1 0.007732 -0.004533 -0.001734 0.000000 0.000000 0.000000
# 2 -0.004533 0.027279 -0.001397 0.000000 0.000000 0.000000
# 3 -0.001734 -0.001397 0.005346 0.000000 0.000000 0.000000
# 4 0.000000 0.000000 0.000000 -1.116042 0.000000 0.000000
# 5 0.000000 0.000000 0.000000 0.000000 0.009362 0.000000
# 6 0.000000 0.000000 0.000000 0.000000 0.000000 0.009784
#
#
# Mechanical properties :
#
#
# Convention : Reuss Voigt Hill
#
# Bulk Modulus (GPa) = 39.95291 70.53408 55.24350
# Shear Modulus (GPa) = -4.84089 61.92381 28.54146
#
# Velocity S-wave (km/s) = -1.52759 5.46352 3.70921
# Velocity P-wave (km/s) = 4.01842 8.59073 6.70628
#
# Compressibility (1/GPa) = 0.02502947
#
# Stress axis : x y z
#
# Youngs Moduli (GPa) = 129.33480 36.65840 187.04093
#
# Poissons Ratio (x) = 0.16617 0.32437
# Poissons Ratio (y) = 0.58625 0.26125
# Poissons Ratio (z) = 0.22430 0.05120
#
# Static dielectric constant tensor:
#      x y z
#    x 1.786490 0.000000 0.000000 
#    y 0.000000 1.618420 0.000000 
#    z 0.000000 0.000000 2.040020 
# 
# From -- ./inp_files/925.got.cif
#   From: 2010.05.17/outbox.cif.g08.bks.cpg/sg65_1_cif.got.tgz:925.got - 2010.06.03 17:01:31.
