data_PCOD9493957
_publ_section_title
;
Structure prediction by ZEFSAII (Michael W. Deem and Ramdas Pophale) SiO2 
 PCOD9493957
Probable space group: C M M M
;
_chemical_formula_sum "Si O2"
_cell_formula_units_Z 88
_cell_length_a 17.145634
_cell_length_b 9.755826
_cell_length_c 27.690918
_cell_angle_alpha 90.000000
_cell_angle_beta 90.000000
_cell_angle_gamma 90.000000
_cell_volume 4631.854924
_symmetry_space_group_name_H-M "C M M M"
_symmetry_group_IT_number 65
_symmetry_cell_setting 'orthorhombic'
loop_
_space_group_symop_operation_xyz
x,y,z
-x,-y,z
x,-y,-z
-x,y,-z
-x,-y,-z
x,y,-z
-x,y,z
x,-y,z
1/2+x,1/2+y,z
1/2-x,1/2-y,z
1/2+x,1/2-y,-z
1/2-x,1/2+y,-z
1/2-x,1/2-y,-z
1/2+x,1/2+y,-z
1/2-x,1/2+y,z
1/2+x,1/2-y,z
loop_
_atom_site_type_symbol
_atom_site_label
_atom_site_fract_x
_atom_site_fract_y
_atom_site_fract_z
Si Si1 0.878976 0.000000 0.557259
Si Si2 0.404774 0.841475 0.090343
Si Si3 0.586826 0.782578 0.392419
Si Si4 0.089444 0.666194 0.802705
Si Si5 0.671869 0.165691 0.296359
Si Si6 0.807439 0.500000 0.443672
Si Si7 0.595377 0.341893 0.000000
O O1 0.909479 0.867010 0.584626
O O2 0.898372 0.000000 0.500000
O O3 0.785109 0.000000 0.561569
O O4 0.500000 0.842720 0.090902
O O5 0.381319 0.793267 0.144040
O O6 0.379623 0.741626 0.047548
O O7 0.380726 0.000000 0.082298
O O8 0.500000 0.838469 0.400278
O O9 0.608177 0.791447 0.336102
O O10 0.652888 0.870284 0.418906
O O11 0.086542 0.500000 0.803921
O O12 0.141726 0.703079 0.757086
O O13 0.000000 0.714137 0.796154
O O14 0.750000 0.250000 0.307139
O O15 0.683115 0.000000 0.299295
O O16 0.826328 0.500000 0.500000
O O17 0.620536 0.500000 0.000000
O O18 0.500000 0.341722 0.000000
#
# Coordination Sequence:
#
# PCOD9493957 Si02
#       7
#     8  16  16  16  16   8   8
#     4  11  25  45  65  89 123 161 191 232 293 350
#     4   8  13  23  41  65  93 131 177 224 268 320
#     4  12  25  40  63  91 120 154 195 243 290 339
#     4   8  15  30  53  78 105 138 183 234 280 328
#     4  11  23  39  61  85 114 149 189 235 289 349
#     4  11  23  41  65  91 121 157 199 236 279 342
#     4   9  15  21  33  59 100 141 174 211 269 335
#
# _framework density 18.998867000000001
#
# number of rings (size 3 to 8) (size 9 to 14) (size 15 to 20)
#    0.000    2.091    0.909    4.636    1.273    5.455 
#    0.000    0.909    0.000    1.091    0.000    0.636 
#    0.000    0.000    0.000    0.000    0.000    0.000 
#
# Total GULP energy -245550.505343 kJ/mol
# GULP energy per Si atom -5580.693303 kJ/mol
# Density = 1.895562 g / cm^3
# Si number density = 18.998867 Si / 1000 Ang^3
#
#
#
# Elastic Constant Matrix: (Units=GPa)
#
#
# Indices 1 2 3 4 5 6 
#
# 1 47.5599 16.0519 26.4005 0.0000 0.0000 0.0000
# 2 16.0519 99.5066 51.5534 0.0000 0.0000 0.0000
# 3 26.4005 51.5534 138.5223 0.0000 0.0000 0.0000
# 4 0.0000 0.0000 0.0000 22.9391 0.0000 0.0000
# 5 0.0000 0.0000 0.0000 0.0000 16.5932 0.0000
# 6 0.0000 0.0000 0.0000 0.0000 0.0000 7.1623
#
#
#
# Elastic Compliance Matrix: (Units=1/GPa)
#
#
# Indices 1 2 3 4 5 6 
#
# 1 0.023784 -0.001844 -0.003847 0.000000 0.000000 0.000000
# 2 -0.001844 0.012593 -0.004335 0.000000 0.000000 0.000000
# 3 -0.003847 -0.004335 0.009566 0.000000 0.000000 0.000000
# 4 0.000000 0.000000 0.000000 0.043594 0.000000 0.000000
# 5 0.000000 0.000000 0.000000 0.000000 0.060266 0.000000
# 6 0.000000 0.000000 0.000000 0.000000 0.000000 0.139620
#
#
# Mechanical properties :
#
#
# Convention : Reuss Voigt Hill
#
# Bulk Modulus (GPa) = 38.62357 52.62227 45.62292
# Shear Modulus (GPa) = 15.71813 22.11111 18.91462
#
# Velocity S-wave (km/s) = 2.87944 3.41517 3.15868
# Velocity P-wave (km/s) = 5.60611 6.58095 6.11299
#
# Compressibility (1/GPa) = 0.02589092
#
# Stress axis : x y z
#
# Youngs Moduli (GPa) = 42.04561 79.40857 104.54078
#
# Poissons Ratio (x) = 0.14641 0.40213
# Poissons Ratio (y) = 0.07752 0.45322
# Poissons Ratio (z) = 0.16174 0.34426
#
# Static dielectric constant tensor:
#      x y z
#    x 1.648870 0.000000 0.000000 
#    y 0.000000 1.673800 0.000000 
#    z 0.000000 0.000000 1.675100 
# 
# From -- ./inp_files/78005.got.cif
#   From: 2010.05.17/outbox.cif.g08.bks.cpg/sg65_40_cif.got.tgz:78005.got - 2010.06.03 17:01:31.
