data_PCOD9493753
_publ_section_title
;
Structure prediction by ZEFSAII (Michael W. Deem and Ramdas Pophale) SiO2 
 PCOD9493753
Probable space group: C M M M
;
_chemical_formula_sum "Si O2"
_cell_formula_units_Z 100
_cell_length_a 19.337833
_cell_length_b 7.476863
_cell_length_c 33.898543
_cell_angle_alpha 90.000000
_cell_angle_beta 90.000000
_cell_angle_gamma 90.000000
_cell_volume 4901.265859
_symmetry_space_group_name_H-M "C M M M"
_symmetry_group_IT_number 65
_symmetry_cell_setting 'orthorhombic'
loop_
_space_group_symop_operation_xyz
x,y,z
-x,-y,z
x,-y,-z
-x,y,-z
-x,-y,-z
x,y,-z
-x,y,z
x,-y,z
1/2+x,1/2+y,z
1/2-x,1/2-y,z
1/2+x,1/2-y,-z
1/2-x,1/2+y,-z
1/2-x,1/2-y,-z
1/2+x,1/2+y,-z
1/2-x,1/2+y,z
1/2+x,1/2-y,z
loop_
_atom_site_type_symbol
_atom_site_label
_atom_site_fract_x
_atom_site_fract_y
_atom_site_fract_z
Si Si1 0.578414 0.214090 0.295057
Si Si2 0.579160 0.717858 0.146316
Si Si3 0.080217 0.717870 0.382982
Si Si4 0.668755 0.214325 0.543589
Si Si5 0.172495 0.786667 0.928267
Si Si6 0.337507 0.000000 0.000000
Si Si7 0.331047 0.709302 0.780898
O O1 0.500000 0.279845 0.286386
O O2 0.599898 0.277996 0.338767
O O3 0.631688 0.252353 0.260453
O O4 0.573791 0.000000 0.297692
O O5 0.500000 0.780009 0.148179
O O6 0.577089 0.500000 0.147937
O O7 0.616954 0.759149 0.105274
O O8 0.624850 0.787971 0.182822
O O9 0.084177 0.500000 0.383059
O O10 0.126420 0.783894 0.419058
O O11 0.000000 0.764828 0.388901
O O12 0.648103 0.282253 0.500000
O O13 0.750000 0.250000 0.548512
O O14 0.659281 0.000000 0.542799
O O15 0.250000 0.750000 0.912471
O O16 0.167526 0.000000 0.938026
O O17 0.163804 0.657953 0.965604
O O18 0.335555 0.500000 0.786749
O O19 0.250000 0.750000 0.780893
#
# Coordination Sequence:
#
# PCOD9493753 Si02
#       7
#    16  16  16  16  16   4  16
#     4   9  18  34  54  78 108 143 178 218 274 334
#     4   9  20  40  62  85 115 152 187 227 284 335
#     4   8  15  29  49  72 100 131 168 216 266 318
#     4   9  17  29  46  68  94 128 170 216 266 320
#     4  11  22  38  64  91 123 158 197 244 290 342
#     4  12  24  40  63  96 125 156 206 240 290 348
#     4  11  22  37  59  84 115 146 186 232 276 329
#
# _framework density 20.402892000000001
#
# number of rings (size 3 to 8) (size 9 to 14) (size 15 to 20)
#    0.000    2.400    0.800    2.880    0.000    1.920 
#    2.880    5.200    0.000    3.360    0.000    2.240 
#    0.000    0.000    0.000    0.000    0.000    0.000 
#
# Total GULP energy -278475.336926 kJ/mol
# GULP energy per Si atom -5569.506739 kJ/mol
# Density = 2.035645 g / cm^3
# Si number density = 20.402892 Si / 1000 Ang^3
#
#
#
# Elastic Constant Matrix: (Units=GPa)
#
#
# Indices 1 2 3 4 5 6 
#
# 1 147.4120 18.0305 134.5990 0.0000 0.0000 0.0000
# 2 18.0305 85.2134 23.1200 0.0000 0.0000 0.0000
# 3 134.5990 23.1200 166.9226 0.0000 0.0000 0.0000
# 4 0.0000 0.0000 0.0000 29.5564 0.0000 0.0000
# 5 0.0000 0.0000 0.0000 0.0000 -51.5378 0.0000
# 6 0.0000 0.0000 0.0000 0.0000 0.0000 2.0345
#
#
#
# Elastic Compliance Matrix: (Units=1/GPa)
#
#
# Indices 1 2 3 4 5 6 
#
# 1 0.025725 0.000192 -0.020770 0.000000 0.000000 0.000000
# 2 0.000192 0.012195 -0.001844 0.000000 0.000000 0.000000
# 3 -0.020770 -0.001844 0.022994 0.000000 0.000000 0.000000
# 4 0.000000 0.000000 0.000000 0.033834 0.000000 0.000000
# 5 0.000000 0.000000 0.000000 0.000000 -0.019403 0.000000
# 6 0.000000 0.000000 0.000000 0.000000 0.000000 0.491529
#
#
# Mechanical properties :
#
#
# Convention : Reuss Voigt Hill
#
# Bulk Modulus (GPa) = 62.22687 83.44967 72.83827
# Shear Modulus (GPa) = 8.10275 10.93051 9.51663
#
# Velocity S-wave (km/s) = 1.99499 2.31710 2.16205
# Velocity P-wave (km/s) = 5.98932 6.93890 6.48152
#
# Compressibility (1/GPa) = 0.01607023
#
# Stress axis : x y z
#
# Youngs Moduli (GPa) = 38.87273 82.00144 43.48905
#
# Poissons Ratio (x) = -0.01575 0.90327
# Poissons Ratio (y) = -0.00747 0.08019
# Poissons Ratio (z) = 0.80739 0.15121
#
# Static dielectric constant tensor:
#      x y z
#    x 1.680030 0.000000 0.000000 
#    y 0.000000 1.841360 0.000000 
#    z 0.000000 0.000000 1.744920 
# 
# From -- ./inp_files/78267.got.cif
#   From: 2010.05.17/outbox.cif.g08.bks.cpg/sg65_40_cif.got.tgz:78267.got - 2010.06.03 17:01:31.
