data_PCOD9493080
_publ_section_title
;
Structure prediction by ZEFSAII (Michael W. Deem and Ramdas Pophale) SiO2 
 PCOD9493080
Probable space group: C M M M
;
_chemical_formula_sum "Si O2"
_cell_formula_units_Z 50
_cell_length_a 10.019049
_cell_length_b 10.276668
_cell_length_c 27.316654
_cell_angle_alpha 90.000000
_cell_angle_beta 90.000000
_cell_angle_gamma 90.000000
_cell_volume 2812.589355
_symmetry_space_group_name_H-M "C M M M"
_symmetry_group_IT_number 65
_symmetry_cell_setting 'orthorhombic'
loop_
_space_group_symop_operation_xyz
x,y,z
-x,-y,z
x,-y,-z
-x,y,-z
-x,-y,-z
x,y,-z
-x,y,z
x,-y,z
1/2+x,1/2+y,z
1/2-x,1/2-y,z
1/2+x,1/2-y,-z
1/2-x,1/2+y,-z
1/2-x,1/2-y,-z
1/2+x,1/2+y,-z
1/2-x,1/2+y,z
1/2+x,1/2-y,z
loop_
_atom_site_type_symbol
_atom_site_label
_atom_site_fract_x
_atom_site_fract_y
_atom_site_fract_z
Si Si1 0.000000 0.156125 0.556398
Si Si2 0.000000 0.357772 0.898502
Si Si3 0.838827 0.000000 0.219483
Si Si4 0.839969 0.500000 0.317167
Si Si5 0.250000 0.250000 0.380411
Si Si6 0.000000 0.500000 0.000000
Si Si7 0.250000 0.250000 0.843773
O O1 0.870905 0.204681 0.585343
O O2 0.000000 0.201236 0.500000
O O3 0.000000 0.000000 0.556500
O O4 0.128951 0.286280 0.879089
O O5 0.000000 0.500000 0.873578
O O6 0.000000 0.388743 0.956038
O O7 0.796340 0.128549 0.189295
O O8 0.752006 0.000000 0.268926
O O9 0.000000 0.000000 0.227716
O O10 0.800826 0.629227 0.347627
O O11 0.000000 0.500000 0.307057
#
# Coordination Sequence:
#
# PCOD9493080 Si02
#       7
#     8   8   8   8   8   2   8
#     4  11  24  43  70  99 127 165 214 269 322 384
#     4  10  22  41  66  97 133 176 210 276 323 379
#     4  12  27  41  66  98 125 174 225 270 318 393
#     4  12  28  43  66  94 134 173 213 267 327 388
#     4  12  24  46  66  95 131 170 212 264 326 390
#     4   8  20  44  64 100 136 176 216 264 340 388
#     4  12  23  43  68  95 137 170 223 271 328 376
#
# _framework density 17.777213
#
# number of rings (size 3 to 8) (size 9 to 14) (size 15 to 20)
#    0.480    0.160    6.400    1.440    4.480    3.200 
#    0.000    0.800    0.000    1.920    0.000    0.000 
#    0.000    0.000    0.000    0.000    0.000    0.000 
#
# Total GULP energy -139335.163248 kJ/mol
# GULP energy per Si atom -5573.406530 kJ/mol
# Density = 1.773675 g / cm^3
# Si number density = 17.777213 Si / 1000 Ang^3
#
#
#
# Elastic Constant Matrix: (Units=GPa)
#
#
# Indices 1 2 3 4 5 6 
#
# 1 212.4435 73.5965 112.1056 0.0000 0.0000 0.0000
# 2 73.5965 136.7242 86.8038 0.0000 0.0000 0.0000
# 3 112.1056 86.8038 185.0623 0.0000 0.0000 0.0000
# 4 0.0000 0.0000 0.0000 14.7054 0.0000 0.0000
# 5 0.0000 0.0000 0.0000 0.0000 59.6651 0.0000
# 6 0.0000 0.0000 0.0000 0.0000 0.0000 30.0813
#
#
#
# Elastic Compliance Matrix: (Units=1/GPa)
#
#
# Indices 1 2 3 4 5 6 
#
# 1 0.007146 -0.001564 -0.003595 0.000000 0.000000 0.000000
# 2 -0.001564 0.010758 -0.004099 0.000000 0.000000 0.000000
# 3 -0.003595 -0.004099 0.009504 0.000000 0.000000 0.000000
# 4 0.000000 0.000000 0.000000 0.068002 0.000000 0.000000
# 5 0.000000 0.000000 0.000000 0.000000 0.016760 0.000000
# 6 0.000000 0.000000 0.000000 0.000000 0.000000 0.033243
#
#
# Mechanical properties :
#
#
# Convention : Reuss Voigt Hill
#
# Bulk Modulus (GPa) = 112.45799 119.91577 116.18688
# Shear Modulus (GPa) = 29.95914 38.33863 34.14888
#
# Velocity S-wave (km/s) = 4.10964 4.64898 4.38760
# Velocity P-wave (km/s) = 9.26908 9.81929 9.54815
#
# Compressibility (1/GPa) = 0.00889221
#
# Stress axis : x y z
#
# Youngs Moduli (GPa) = 139.93395 92.95370 105.21872
#
# Poissons Ratio (x) = 0.14539 0.37830
# Poissons Ratio (y) = 0.21887 0.43125
# Poissons Ratio (z) = 0.50311 0.38098
#
# Static dielectric constant tensor:
#      x y z
#    x 1.558580 0.000000 0.000000 
#    y 0.000000 1.610340 0.000000 
#    z 0.000000 0.000000 1.573370 
# 
# From -- ./inp_files/76352.got.cif
#   From: 2010.05.17/outbox.cif.g08.bks.cpg/sg65_39_cif.got.tgz:76352.got - 2010.06.03 17:01:31.
