data_PCOD9493193
_publ_section_title
;
Structure prediction by ZEFSAII (Michael W. Deem and Ramdas Pophale) SiO2 
 PCOD9493193
Probable space group: C M M M
;
_chemical_formula_sum "Si O2"
_cell_formula_units_Z 56
_cell_length_a 24.928105
_cell_length_b 10.813807
_cell_length_c 11.887815
_cell_angle_alpha 90.000000
_cell_angle_beta 90.000000
_cell_angle_gamma 90.000000
_cell_volume 3204.571142
_symmetry_space_group_name_H-M "C M M M"
_symmetry_group_IT_number 65
_symmetry_cell_setting 'orthorhombic'
loop_
_space_group_symop_operation_xyz
x,y,z
-x,-y,z
x,-y,-z
-x,y,-z
-x,-y,-z
x,y,-z
-x,y,z
x,-y,z
1/2+x,1/2+y,z
1/2-x,1/2-y,z
1/2+x,1/2-y,-z
1/2-x,1/2+y,-z
1/2-x,1/2-y,-z
1/2+x,1/2+y,-z
1/2-x,1/2+y,z
1/2+x,1/2-y,z
loop_
_atom_site_type_symbol
_atom_site_label
_atom_site_fract_x
_atom_site_fract_y
_atom_site_fract_z
Si Si1 0.065085 0.000000 0.363554
Si Si2 0.899164 0.741451 0.268960
Si Si3 0.703368 0.853376 0.132957
Si Si4 0.500000 0.145077 0.866396
Si Si5 0.059833 0.355816 0.500000
O O1 0.092767 0.116622 0.303907
O O2 0.073360 0.000000 0.500000
O O3 0.000000 0.000000 0.346260
O O4 0.845466 0.694181 0.209631
O O5 0.908845 0.676312 0.388031
O O6 0.947780 0.705211 0.187291
O O7 0.750000 0.750000 0.147834
O O8 0.716464 0.000000 0.157145
O O9 0.688535 0.849982 0.000000
O O10 0.500000 0.000000 0.836821
O O11 0.500000 0.157300 0.000000
O O12 0.051970 0.500000 0.500000
O O13 0.000000 0.294037 0.500000
#
# Coordination Sequence:
#
# PCOD9493193 Si02
#       5
#     8  16  16   8   8
#     4  11  22  40  60  90 130 172 204 247 310 371
#     4  12  22  38  61  90 123 164 206 253 310 370
#     4  10  23  44  68  93 123 163 210 261 315 370
#     4  11  22  36  57  88 124 158 196 251 314 373
#     4  11  20  33  58  91 123 157 201 249 305 374
#
# _framework density 17.475038000000001
#
# number of rings (size 3 to 8) (size 9 to 14) (size 15 to 20)
#    0.000    1.000    4.286    3.429    2.000    2.286 
#    0.000    3.571    0.000    0.000    0.000    0.000 
#    0.000    0.000    0.000    0.000    0.000    0.000 
#
# Total GULP energy -156182.527480 kJ/mol
# GULP energy per Si atom -5577.947410 kJ/mol
# Density = 1.743526 g / cm^3
# Si number density = 17.475038 Si / 1000 Ang^3
#
#
#
# Elastic Constant Matrix: (Units=GPa)
#
#
# Indices 1 2 3 4 5 6 
#
# 1 118.0883 66.8103 74.9208 0.0000 0.0000 0.0000
# 2 66.8103 182.3098 76.0161 0.0000 0.0000 0.0000
# 3 74.9208 76.0161 80.1978 0.0000 0.0000 0.0000
# 4 0.0000 0.0000 0.0000 35.3454 0.0000 0.0000
# 5 0.0000 0.0000 0.0000 0.0000 70.3252 0.0000
# 6 0.0000 0.0000 0.0000 0.0000 0.0000 -129.4682
#
#
#
# Elastic Compliance Matrix: (Units=1/GPa)
#
#
# Indices 1 2 3 4 5 6 
#
# 1 0.020861 0.000795 -0.020242 0.000000 0.000000 0.000000
# 2 0.000795 0.009100 -0.009369 0.000000 0.000000 0.000000
# 3 -0.020242 -0.009369 0.040259 0.000000 0.000000 0.000000
# 4 0.000000 0.000000 0.000000 0.028292 0.000000 0.000000
# 5 0.000000 0.000000 0.000000 0.000000 0.014220 0.000000
# 6 0.000000 0.000000 0.000000 0.000000 0.000000 -0.007724
#
#
# Mechanical properties :
#
#
# Convention : Reuss Voigt Hill
#
# Bulk Modulus (GPa) = 79.43008 90.67670 85.05339
# Shear Modulus (GPa) = 29.96978 6.09708 18.03343
#
# Velocity S-wave (km/s) = 4.14576 1.86992 3.21589
# Velocity P-wave (km/s) = 8.27457 7.52755 7.90988
#
# Compressibility (1/GPa) = 0.01258969
#
# Stress axis : x y z
#
# Youngs Moduli (GPa) = 47.93706 109.89003 24.83901
#
# Poissons Ratio (x) = -0.08740 0.50279
# Poissons Ratio (y) = -0.03813 0.23271
# Poissons Ratio (z) = 0.97034 1.02951
#
# Static dielectric constant tensor:
#      x y z
#    x 1.572330 0.000000 0.000000 
#    y 0.000000 1.687130 0.000000 
#    z 0.000000 0.000000 1.557900 
# 
# From -- ./inp_files/30060.got.cif
#   From: 2010.05.17/outbox.cif.g08.bks.cpg/sg65_16_cif.got.tgz:30060.got - 2010.06.03 17:01:31.
