data_PCOD9493515
_publ_section_title
;
Structure prediction by ZEFSAII (Michael W. Deem and Ramdas Pophale) SiO2 
 PCOD9493515
Probable space group: C M M M
;
_chemical_formula_sum "Si O2"
_cell_formula_units_Z 72
_cell_length_a 20.692956
_cell_length_b 10.859216
_cell_length_c 18.497505
_cell_angle_alpha 90.000000
_cell_angle_beta 90.000000
_cell_angle_gamma 90.000000
_cell_volume 4156.561010
_symmetry_space_group_name_H-M "C M M M"
_symmetry_group_IT_number 65
_symmetry_cell_setting 'orthorhombic'
loop_
_space_group_symop_operation_xyz
x,y,z
-x,-y,z
x,-y,-z
-x,y,-z
-x,-y,-z
x,y,-z
-x,y,z
x,-y,z
1/2+x,1/2+y,z
1/2-x,1/2-y,z
1/2+x,1/2-y,-z
1/2-x,1/2+y,-z
1/2-x,1/2-y,-z
1/2+x,1/2+y,-z
1/2-x,1/2+y,z
1/2+x,1/2-y,z
loop_
_atom_site_type_symbol
_atom_site_label
_atom_site_fract_x
_atom_site_fract_y
_atom_site_fract_z
Si Si1 0.812080 0.000000 0.077616
Si Si2 0.429859 0.500000 0.812651
Si Si3 0.000000 0.350635 0.084543
Si Si4 0.250000 0.750000 0.875592
Si Si5 0.073270 0.208295 0.309997
Si Si6 0.121074 0.645427 0.188314
Si Si7 0.579061 0.500000 0.584199
O O1 0.769337 0.123986 0.083655
O O2 0.867696 0.000000 0.137461
O O3 0.845025 0.000000 0.000000
O O4 0.500000 0.500000 0.850723
O O5 0.428225 0.614707 0.758028
O O6 0.936619 0.316468 0.132152
O O7 0.000000 0.500000 0.081744
O O8 0.000000 0.308181 0.000000
O O9 0.186641 0.715037 0.830667
O O10 0.104833 0.325263 0.271887
O O11 0.000000 0.240714 0.330385
O O12 0.101513 0.123992 0.374262
O O13 0.129665 0.500000 0.178341
O O14 0.500000 0.500000 0.591661
O O15 0.594986 0.500000 0.500000
#
# Coordination Sequence:
#
# PCOD9493515 Si02
#       7
#     8   8   8   8  16  16   8
#     4  12  25  40  55  73 107 147 186 238 294 347
#     4   9  18  34  54  76 100 132 178 226 278 326
#     4   9  20  36  54  75 101 142 194 244 290 336
#     4  12  25  42  54  76 109 144 194 236 291 346
#     4   9  16  30  54  80 111 142 174 224 267 323
#     4  11  21  36  57  79 107 145 192 240 284 339
#     4   8  15  28  52  89 123 149 174 210 270 342
#
# _framework density 17.322012000000001
#
# number of rings (size 3 to 8) (size 9 to 14) (size 15 to 20)
#    0.000    2.000    4.444    1.667    0.000    2.000 
#    0.000    0.000    0.000    0.667    0.000    3.889 
#    0.000    0.000    0.000    0.000    0.000    0.000 
#
# Total GULP energy -200401.833614 kJ/mol
# GULP energy per Si atom -5566.717600 kJ/mol
# Density = 1.728259 g / cm^3
# Si number density = 17.322012 Si / 1000 Ang^3
#
#
#
# Elastic Constant Matrix: (Units=GPa)
#
#
# Indices 1 2 3 4 5 6 
#
# 1 83.7717 21.1987 34.6165 0.0000 0.0000 0.0000
# 2 21.1987 75.4856 26.8347 0.0000 0.0000 0.0000
# 3 34.6165 26.8347 107.3162 0.0000 0.0000 0.0000
# 4 0.0000 0.0000 0.0000 26.0706 0.0000 0.0000
# 5 0.0000 0.0000 0.0000 0.0000 2315.6324 0.0000
# 6 0.0000 0.0000 0.0000 0.0000 0.0000 19.5236
#
#
#
# Elastic Compliance Matrix: (Units=1/GPa)
#
#
# Indices 1 2 3 4 5 6 
#
# 1 0.014221 -0.002594 -0.003939 0.000000 0.000000 0.000000
# 2 -0.002594 0.015013 -0.002917 0.000000 0.000000 0.000000
# 3 -0.003939 -0.002917 0.011318 0.000000 0.000000 0.000000
# 4 0.000000 0.000000 0.000000 0.038357 0.000000 0.000000
# 5 0.000000 0.000000 0.000000 0.000000 0.000432 0.000000
# 6 0.000000 0.000000 0.000000 0.000000 0.000000 0.051220
#
#
# Mechanical properties :
#
#
# Convention : Reuss Voigt Hill
#
# Bulk Modulus (GPa) = 46.18301 47.98590 47.08446
# Shear Modulus (GPa) = 31.91245 484.50691 258.20968
#
# Velocity S-wave (km/s) = 4.29687 16.74255 12.22244
# Velocity P-wave (km/s) = 7.16497 20.03780 15.04742
#
# Compressibility (1/GPa) = 0.02165299
#
# Stress axis : x y z
#
# Youngs Moduli (GPa) = 70.31816 66.60872 88.35269
#
# Poissons Ratio (x) = 0.17275 0.34800
# Poissons Ratio (y) = 0.18237 0.25777
# Poissons Ratio (z) = 0.27696 0.19433
#
# Static dielectric constant tensor:
#      x y z
#    x 1.594800 0.000000 0.000000 
#    y 0.000000 1.680320 0.000000 
#    z 0.000000 0.000000 1.576050 
# 
# From -- ./inp_files/54156.got.cif
#   From: 2010.05.17/outbox.cif.g08.bks.cpg/sg65_28_cif.got.tgz:54156.got - 2010.06.03 17:01:31.
