data_PCOD9493325
_publ_section_title
;
Structure prediction by ZEFSAII (Michael W. Deem and Ramdas Pophale) SiO2 
 PCOD9493325
Probable space group: C M M M
;
_chemical_formula_sum "Si O2"
_cell_formula_units_Z 112
_cell_length_a 26.647292
_cell_length_b 16.403102
_cell_length_c 14.970147
_cell_angle_alpha 90.000000
_cell_angle_beta 90.000000
_cell_angle_gamma 90.000000
_cell_volume 6543.425036
_symmetry_space_group_name_H-M "C M M M"
_symmetry_group_IT_number 65
_symmetry_cell_setting 'orthorhombic'
loop_
_space_group_symop_operation_xyz
x,y,z
-x,-y,z
x,-y,-z
-x,y,-z
-x,-y,-z
x,y,-z
-x,y,z
x,-y,z
1/2+x,1/2+y,z
1/2-x,1/2-y,z
1/2+x,1/2-y,-z
1/2-x,1/2+y,-z
1/2-x,1/2-y,-z
1/2+x,1/2+y,-z
1/2-x,1/2+y,z
1/2+x,1/2-y,z
loop_
_atom_site_type_symbol
_atom_site_label
_atom_site_fract_x
_atom_site_fract_y
_atom_site_fract_z
Si Si1 0.902376 0.247063 0.214212
Si Si2 0.649324 0.906569 0.600973
Si Si3 0.060632 0.406435 0.894829
Si Si4 0.882143 0.091998 0.894116
Si Si5 0.261661 0.595352 0.897622
Si Si6 0.293145 0.192411 0.743317
Si Si7 0.442281 0.215859 0.399873
O O1 0.919425 0.331555 0.165408
O O2 0.908875 0.166924 0.154360
O O3 0.843097 0.258235 0.231778
O O4 0.929546 0.235217 0.309780
O O5 0.668655 0.897273 0.500000
O O6 0.688471 0.872419 0.671309
O O7 0.597451 0.857271 0.606034
O O8 0.638779 0.000000 0.618681
O O9 0.076482 0.500000 0.869599
O O10 0.000000 0.404917 0.889734
O O11 0.074381 0.394748 0.000000
O O12 0.821666 0.100792 0.882761
O O13 0.895557 0.000000 0.863644
O O14 0.891632 0.096357 0.000000
O O15 0.248133 0.500000 0.887707
O O16 0.230602 0.649480 0.829549
O O17 0.251716 0.619705 0.000000
O O18 0.250000 0.250000 0.705074
O O19 0.435412 0.253292 0.500000
O O20 0.500000 0.188996 0.394913
#
# Coordination Sequence:
#
# PCOD9493325 Si02
#       7
#    16  16  16  16  16  16  16
#     4  11  20  32  54  79 103 139 183 218 263 318
#     4   9  19  35  54  76 102 133 171 215 261 312
#     4   9  19  35  53  77 111 144 172 209 263 328
#     4   9  18  33  52  74 101 136 178 222 263 301
#     4   9  18  32  48  67  97 137 176 215 257 299
#     4  11  21  32  46  72 102 137 173 217 263 308
#     4   9  19  35  55  80 107 133 164 208 264 323
#
# _framework density 17.116417999999999
#
# number of rings (size 3 to 8) (size 9 to 14) (size 15 to 20)
#    0.000    2.429    1.429    2.571    0.000    4.857 
#    0.000    2.857    0.000    2.143    0.000    6.000 
#    0.000    0.000    0.000    0.000    0.000    0.000 
#
# Total GULP energy -312000.543091 kJ/mol
# GULP energy per Si atom -5571.438269 kJ/mol
# Density = 1.707746 g / cm^3
# Si number density = 17.116418 Si / 1000 Ang^3
#
#
#
# Elastic Constant Matrix: (Units=GPa)
#
#
# Indices 1 2 3 4 5 6 
#
# 1 46.1225 22.3742 35.9266 0.0000 0.0000 0.0000
# 2 22.3742 73.5683 52.9107 0.0000 0.0000 0.0000
# 3 35.9266 52.9107 82.1339 0.0000 0.0000 0.0000
# 4 0.0000 0.0000 0.0000 25.8344 0.0000 0.0000
# 5 0.0000 0.0000 0.0000 0.0000 -140.7725 0.0000
# 6 0.0000 0.0000 0.0000 0.0000 0.0000 12.6930
#
#
#
# Elastic Compliance Matrix: (Units=1/GPa)
#
#
# Indices 1 2 3 4 5 6 
#
# 1 0.032903 0.000641 -0.014805 0.000000 0.000000 0.000000
# 2 0.000641 0.025340 -0.016604 0.000000 0.000000 0.000000
# 3 -0.014805 -0.016604 0.029348 0.000000 0.000000 0.000000
# 4 0.000000 0.000000 0.000000 0.038708 0.000000 0.000000
# 5 0.000000 0.000000 0.000000 0.000000 -0.007104 0.000000
# 6 0.000000 0.000000 0.000000 0.000000 0.000000 0.078784
#
#
# Mechanical properties :
#
#
# Convention : Reuss Voigt Hill
#
# Bulk Modulus (GPa) = 38.38238 47.13864 42.76051
# Shear Modulus (GPa) = 18.64285 -14.40814 2.11736
#
# Velocity S-wave (km/s) = 3.30385 -2.90448 1.11343
# Velocity P-wave (km/s) = 6.08497 4.04374 5.16617
#
# Compressibility (1/GPa) = 0.02605362
#
# Stress axis : x y z
#
# Youngs Moduli (GPa) = 30.39274 39.46373 34.07403
#
# Poissons Ratio (x) = -0.02531 0.50448
# Poissons Ratio (y) = -0.01950 0.56578
# Poissons Ratio (z) = 0.44997 0.65527
#
# Static dielectric constant tensor:
#      x y z
#    x 1.567870 0.000000 0.000000 
#    y 0.000000 1.578600 0.000000 
#    z 0.000000 0.000000 1.607640 
# 
# From -- ./inp_files/47049.got.cif
#   From: 2010.05.17/outbox.cif.g08.bks.cpg/sg65_24_cif.got.tgz:47049.got - 2010.06.03 17:01:31.
