data_PCOD9493490
_publ_section_title
;
Structure prediction by ZEFSAII (Michael W. Deem and Ramdas Pophale) SiO2 
 PCOD9493490
Probable space group: C M M M
;
_chemical_formula_sum "Si O2"
_cell_formula_units_Z 96
_cell_length_a 8.002802
_cell_length_b 24.373201
_cell_length_c 26.533470
_cell_angle_alpha 90.000000
_cell_angle_beta 90.000000
_cell_angle_gamma 90.000000
_cell_volume 5175.456849
_symmetry_space_group_name_H-M "C M M M"
_symmetry_group_IT_number 65
_symmetry_cell_setting 'orthorhombic'
loop_
_space_group_symop_operation_xyz
x,y,z
-x,-y,z
x,-y,-z
-x,y,-z
-x,-y,-z
x,y,-z
-x,y,z
x,-y,z
1/2+x,1/2+y,z
1/2-x,1/2-y,z
1/2+x,1/2-y,-z
1/2-x,1/2+y,-z
1/2-x,1/2-y,-z
1/2+x,1/2+y,-z
1/2-x,1/2+y,z
1/2+x,1/2-y,z
loop_
_atom_site_type_symbol
_atom_site_label
_atom_site_fract_x
_atom_site_fract_y
_atom_site_fract_z
Si Si1 0.796127 0.936386 0.556930
Si Si2 0.800103 0.000000 0.172563
Si Si3 0.704288 0.612631 0.341375
Si Si4 0.798153 0.313410 0.055801
Si Si5 0.801669 0.812805 0.251962
Si Si6 0.801352 0.379106 0.847643
Si Si7 0.296649 0.500000 0.712627
O O1 0.741448 0.923346 0.500000
O O2 0.740578 0.894954 0.600764
O O3 0.000000 0.936131 0.557013
O O4 0.748654 0.000000 0.568053
O O5 0.742659 0.056997 0.149072
O O6 0.737309 0.000000 0.230200
O O7 0.000000 0.000000 0.173677
O O8 0.500000 0.614988 0.342123
O O9 0.764623 0.660948 0.304436
O O10 0.753561 0.555479 0.314931
O O11 0.750000 0.250000 0.061988
O O12 0.733448 0.347466 0.103332
O O13 0.000000 0.317016 0.055727
O O14 0.739499 0.331319 0.000000
O O15 0.750000 0.750000 0.243937
O O16 0.757986 0.851316 0.204416
O O17 0.000000 0.813431 0.255743
O O18 0.000000 0.373457 0.847582
O O19 0.500000 0.500000 0.712881
#
# Coordination Sequence:
#
# PCOD9493490 Si02
#       7
#    16   8  16  16  16  16   8
#     4   8  12  18  33  61  94 123 154 199 252 301
#     4  11  21  35  54  77 107 144 175 204 249 305
#     4   9  15  25  43  65  94 129 164 202 252 307
#     4   9  19  36  57  79 103 134 172 213 258 303
#     4  11  22  35  51  72 100 136 173 212 258 307
#     4  11  22  36  55  80 108 135 168 212 256 305
#     4   9  14  25  44  68  93 126 165 198 239 296
#
# _framework density 18.549088000000001
#
# number of rings (size 3 to 8) (size 9 to 14) (size 15 to 20)
#    0.000    2.333    2.500    2.250    0.000    2.667 
#    0.000    0.417    0.000    3.000    0.000    0.000 
#    0.000    2.000    0.000    9.167    0.000    9.000 
#
# Total GULP energy -267617.460479 kJ/mol
# GULP energy per Si atom -5575.363760 kJ/mol
# Density = 1.850687 g / cm^3
# Si number density = 18.549088 Si / 1000 Ang^3
#
#
#
# Elastic Constant Matrix: (Units=GPa)
#
#
# Indices 1 2 3 4 5 6 
#
# 1 18.6279 4.1834 9.2728 0.0000 0.0000 0.0000
# 2 4.1834 104.9329 67.6420 0.0000 0.0000 0.0000
# 3 9.2728 67.6420 156.7784 0.0000 0.0000 0.0000
# 4 0.0000 0.0000 0.0000 27.2738 0.0000 0.0000
# 5 0.0000 0.0000 0.0000 0.0000 5.1858 0.0000
# 6 0.0000 0.0000 0.0000 0.0000 0.0000 13.3919
#
#
#
# Elastic Compliance Matrix: (Units=1/GPa)
#
#
# Indices 1 2 3 4 5 6 
#
# 1 0.055313 -0.000133 -0.003214 0.000000 0.000000 0.000000
# 2 -0.000133 0.013202 -0.005688 0.000000 0.000000 0.000000
# 3 -0.003214 -0.005688 0.009023 0.000000 0.000000 0.000000
# 4 0.000000 0.000000 0.000000 0.036665 0.000000 0.000000
# 5 0.000000 0.000000 0.000000 0.000000 0.192834 0.000000
# 6 0.000000 0.000000 0.000000 0.000000 0.000000 0.074672
#
#
# Mechanical properties :
#
#
# Convention : Reuss Voigt Hill
#
# Bulk Modulus (GPa) = 16.81623 49.17063 32.99343
# Shear Modulus (GPa) = 11.91607 22.45303 17.18455
#
# Velocity S-wave (km/s) = 2.53733 3.48295 3.04704
# Velocity P-wave (km/s) = 4.20351 6.53762 5.49591
#
# Compressibility (1/GPa) = 0.05946636
#
# Stress axis : x y z
#
# Youngs Moduli (GPa) = 18.07904 75.74697 110.83242
#
# Poissons Ratio (x) = 0.01010 0.35621
# Poissons Ratio (y) = 0.00241 0.63042
# Poissons Ratio (z) = 0.05811 0.43085
#
# Static dielectric constant tensor:
#      x y z
#    x 1.671530 0.000000 0.000000 
#    y 0.000000 1.607560 0.000000 
#    z 0.000000 0.000000 1.681740 
# 
# From -- ./inp_files/73528.got.cif
#   From: 2010.05.17/outbox.cif.g08.bks.cpg/sg65_37_cif.got.tgz:73528.got - 2010.06.03 17:01:31.
