data_PCOD9493697
_publ_section_title
;
Structure prediction by ZEFSAII (Michael W. Deem and Ramdas Pophale) SiO2 
 PCOD9493697
Probable space group: C M M M
;
_chemical_formula_sum "Si O2"
_cell_formula_units_Z 72
_cell_length_a 19.134488
_cell_length_b 7.813864
_cell_length_c 24.174111
_cell_angle_alpha 90.000000
_cell_angle_beta 90.000000
_cell_angle_gamma 90.000000
_cell_volume 3614.374969
_symmetry_space_group_name_H-M "C M M M"
_symmetry_group_IT_number 65
_symmetry_cell_setting 'orthorhombic'
loop_
_space_group_symop_operation_xyz
x,y,z
-x,-y,z
x,-y,-z
-x,y,-z
-x,-y,-z
x,y,-z
-x,y,z
x,-y,z
1/2+x,1/2+y,z
1/2-x,1/2-y,z
1/2+x,1/2-y,-z
1/2-x,1/2+y,-z
1/2-x,1/2-y,-z
1/2+x,1/2+y,-z
1/2-x,1/2+y,z
1/2+x,1/2-y,z
loop_
_atom_site_type_symbol
_atom_site_label
_atom_site_fract_x
_atom_site_fract_y
_atom_site_fract_z
Si Si1 0.079777 0.794230 0.711641
Si Si2 0.581045 0.210296 0.500000
Si Si3 0.668748 0.202428 0.605380
Si Si4 0.581157 0.291395 0.165087
Si Si5 0.668607 0.293726 0.060956
O O1 0.132544 0.749134 0.663151
O O2 0.101824 0.734093 0.773060
O O3 0.000000 0.732917 0.700579
O O4 0.076393 0.000000 0.714090
O O5 0.500000 0.263396 0.500000
O O6 0.622767 0.271467 0.554265
O O7 0.580843 0.000000 0.500000
O O8 0.750000 0.250000 0.602599
O O9 0.665664 0.000000 0.600512
O O10 0.500000 0.246788 0.157509
O O11 0.585290 0.500000 0.164937
O O12 0.626471 0.227543 0.113795
O O13 0.661874 0.500000 0.060635
O O14 0.750000 0.250000 0.066534
O O15 0.645072 0.232022 0.000000
#
# Coordination Sequence:
#
# PCOD9493697 Si02
#       5
#    16   8  16  16  16
#     4   9  18  34  54  75 102 134 167 205 251 302
#     4   9  19  36  57  79 102 131 166 205 250 296
#     4  11  22  36  55  78 106 136 168 207 248 293
#     4   8  15  29  49  72  97 125 159 202 247 288
#     4   9  17  29  46  68  94 125 161 200 242 290
#
# _framework density 19.920456000000001
#
# number of rings (size 3 to 8) (size 9 to 14) (size 15 to 20)
#    0.000    2.778    0.000    3.000    0.000    2.667 
#    0.000    7.222    0.000    6.000    0.000    3.111 
#    0.000    0.000    0.000    0.000    0.000    0.000 
#
# Total GULP energy -200798.460763 kJ/mol
# GULP energy per Si atom -5577.735021 kJ/mol
# Density = 1.987512 g / cm^3
# Si number density = 19.920456 Si / 1000 Ang^3
#
#
#
# Elastic Constant Matrix: (Units=GPa)
#
#
# Indices 1 2 3 4 5 6 
#
# 1 139.6089 5.9523 139.8794 0.0000 0.0000 0.0000
# 2 5.9523 24.3804 11.8274 0.0000 0.0000 0.0000
# 3 139.8794 11.8274 234.8505 0.0000 0.0000 0.0000
# 4 0.0000 0.0000 0.0000 -3.0651 0.0000 0.0000
# 5 0.0000 0.0000 0.0000 0.0000 54.7029 0.0000
# 6 0.0000 0.0000 0.0000 0.0000 0.0000 1.7185
#
#
#
# Elastic Compliance Matrix: (Units=1/GPa)
#
#
# Indices 1 2 3 4 5 6 
#
# 1 0.017779 0.000816 -0.010631 0.000000 0.000000 0.000000
# 2 0.000816 0.042081 -0.002606 0.000000 0.000000 0.000000
# 3 -0.010631 -0.002606 0.010721 0.000000 0.000000 0.000000
# 4 0.000000 0.000000 0.000000 -0.326255 0.000000 0.000000
# 5 0.000000 0.000000 0.000000 0.000000 0.018281 0.000000
# 6 0.000000 0.000000 0.000000 0.000000 0.000000 0.581895
#
#
# Mechanical properties :
#
#
# Convention : Reuss Voigt Hill
#
# Bulk Modulus (GPa) = 21.86175 79.35089 50.60632
# Shear Modulus (GPa) = 13.00089 26.74998 19.87543
#
# Velocity S-wave (km/s) = 2.55745 3.66845 3.16213
# Velocity P-wave (km/s) = 4.44062 7.60682 6.22828
#
# Compressibility (1/GPa) = 0.04574199
#
# Stress axis : x y z
#
# Youngs Moduli (GPa) = 56.24510 23.76357 93.27497
#
# Poissons Ratio (x) = -0.01940 0.99158
# Poissons Ratio (y) = -0.04592 0.24304
# Poissons Ratio (z) = 0.59792 0.06192
#
# Static dielectric constant tensor:
#      x y z
#    x 1.617520 0.000000 0.000000 
#    y 0.000000 1.729560 0.000000 
#    z 0.000000 0.000000 1.733200 
# 
# From -- ./inp_files/64360.got.cif
#   From: 2010.05.17/outbox.cif.g08.bks.cpg/sg65_33_cif.got.tgz:64360.got - 2010.06.03 17:01:31.
