data_PCOD9493658
_publ_section_title
;
Structure prediction by ZEFSAII (Michael W. Deem and Ramdas Pophale) SiO2 
 PCOD9493658
Probable space group: C M M M
;
_chemical_formula_sum "Si O2"
_cell_formula_units_Z 104
_cell_length_a 29.536631
_cell_length_b 8.693215
_cell_length_c 25.069893
_cell_angle_alpha 90.000000
_cell_angle_beta 90.000000
_cell_angle_gamma 90.000000
_cell_volume 6437.153397
_symmetry_space_group_name_H-M "C M M M"
_symmetry_group_IT_number 65
_symmetry_cell_setting 'orthorhombic'
loop_
_space_group_symop_operation_xyz
x,y,z
-x,-y,z
x,-y,-z
-x,y,-z
-x,-y,-z
x,y,-z
-x,y,z
x,-y,z
1/2+x,1/2+y,z
1/2-x,1/2-y,z
1/2+x,1/2-y,-z
1/2-x,1/2+y,-z
1/2-x,1/2-y,-z
1/2+x,1/2+y,-z
1/2-x,1/2+y,z
1/2+x,1/2-y,z
loop_
_atom_site_type_symbol
_atom_site_label
_atom_site_fract_x
_atom_site_fract_y
_atom_site_fract_z
Si Si1 0.054781 0.325291 0.110893
Si Si2 0.799035 0.316621 0.615621
Si Si3 0.620745 0.320807 0.685095
Si Si4 0.933936 0.820833 0.500000
Si Si5 0.674827 0.322517 0.500000
Si Si6 0.552416 0.684575 0.224436
Si Si7 0.055193 0.821902 0.000000
Si Si8 0.449245 0.823424 0.388134
O O1 0.070511 0.500000 0.117674
O O2 0.064480 0.228308 0.163807
O O3 0.000000 0.327893 0.107353
O O4 0.070938 0.256877 0.054712
O O5 0.798403 0.500000 0.613835
O O6 0.750000 0.250000 0.629824
O O7 0.835780 0.261964 0.659578
O O8 0.810277 0.255425 0.555637
O O9 0.631673 0.500000 0.693438
O O10 0.592541 0.258814 0.736413
O O11 0.582855 0.298086 0.639927
O O12 0.879488 0.821168 0.500000
O O13 0.949920 0.727352 0.551027
O O14 0.948289 0.000000 0.500000
O O15 0.690923 0.500000 0.500000
O O16 0.500000 0.739724 0.234709
O O17 0.551060 0.500000 0.230342
O O18 0.000000 0.814519 0.000000
O O19 0.067770 0.000000 0.000000
O O20 0.500000 0.816573 0.366116
O O21 0.432643 0.000000 0.382473
#
# Coordination Sequence:
#
# PCOD9493658 Si02
#       8
#    16  16  16   8   8  16   8  16
#     4   9  16  25  39  61  90 124 165 210 249 284
#     4  12  25  41  61  81 101 124 151 191 242 298
#     4  11  22  37  55  75  98 126 162 201 240 288
#     4  11  22  35  54  73  95 124 155 191 234 285
#     4  11  22  39  60  82 102 122 150 189 238 296
#     4   9  18  32  49  69  96 132 170 205 241 283
#     4   9  15  23  37  57  85 123 166 209 250 289
#     4  11  23  36  51  72  98 127 159 195 236 282
#
# _framework density 16.156210000000002
#
# number of rings (size 3 to 8) (size 9 to 14) (size 15 to 20)
#    0.000    1.615    1.538    4.385    0.000    7.385 
#    0.000    1.538    0.000    0.000    0.000    0.000 
#    0.000    0.000    0.000    0.692    0.000    9.308 
#
# Total GULP energy -289946.129144 kJ/mol
# GULP energy per Si atom -5575.887099 kJ/mol
# Density = 1.611944 g / cm^3
# Si number density = 16.156210 Si / 1000 Ang^3
#
#
#
# Elastic Constant Matrix: (Units=GPa)
#
#
# Indices 1 2 3 4 5 6 
#
# 1 82.1875 28.7407 39.9836 0.0000 0.0000 0.0000
# 2 28.7407 67.4456 19.8620 0.0000 0.0000 0.0000
# 3 39.9836 19.8620 110.9773 0.0000 0.0000 0.0000
# 4 0.0000 0.0000 0.0000 0.8009 0.0000 0.0000
# 5 0.0000 0.0000 0.0000 0.0000 3.2853 0.0000
# 6 0.0000 0.0000 0.0000 0.0000 0.0000 16.2475
#
#
#
# Elastic Compliance Matrix: (Units=1/GPa)
#
#
# Indices 1 2 3 4 5 6 
#
# 1 0.016532 -0.005585 -0.004957 0.000000 0.000000 0.000000
# 2 -0.005585 0.017539 -0.001127 0.000000 0.000000 0.000000
# 3 -0.004957 -0.001127 0.010998 0.000000 0.000000 0.000000
# 4 0.000000 0.000000 0.000000 1.248664 0.000000 0.000000
# 5 0.000000 0.000000 0.000000 0.000000 0.304391 0.000000
# 6 0.000000 0.000000 0.000000 0.000000 0.000000 0.061548
#
#
# Mechanical properties :
#
#
# Convention : Reuss Voigt Hill
#
# Bulk Modulus (GPa) = 46.01535 48.64255 47.32895
# Shear Modulus (GPa) = 2.95814 15.53499 9.24656
#
# Velocity S-wave (km/s) = 1.35460 3.10425 2.39492
# Velocity P-wave (km/s) = 5.56686 6.55908 6.08323
#
# Compressibility (1/GPa) = 0.02173188
#
# Stress axis : x y z
#
# Youngs Moduli (GPa) = 60.48981 57.01734 90.92317
#
# Poissons Ratio (x) = 0.31844 0.45067
# Poissons Ratio (y) = 0.33784 0.10245
# Poissons Ratio (z) = 0.29982 0.06424
#
# Static dielectric constant tensor:
#      x y z
#    x 1.545070 0.000000 0.000000 
#    y 0.000000 1.558410 0.000000 
#    z 0.000000 0.000000 1.566760 
# 
# From -- ./inp_files/71939.got.cif
#   From: 2010.05.17/outbox.cif.g08.bks.cpg/sg65_36_cif.got.tgz:71939.got - 2010.06.03 17:01:31.
