data_PCOD9493874
_publ_section_title
;
Structure prediction by ZEFSAII (Michael W. Deem and Ramdas Pophale) SiO2 
 PCOD9493874
Probable space group: C M M M
;
_chemical_formula_sum "Si O2"
_cell_formula_units_Z 80
_cell_length_a 24.400949
_cell_length_b 25.562173
_cell_length_c 7.915849
_cell_angle_alpha 90.000000
_cell_angle_beta 90.000000
_cell_angle_gamma 90.000000
_cell_volume 4937.441785
_symmetry_space_group_name_H-M "C M M M"
_symmetry_group_IT_number 65
_symmetry_cell_setting 'orthorhombic'
loop_
_space_group_symop_operation_xyz
x,y,z
-x,-y,z
x,-y,-z
-x,y,-z
-x,-y,-z
x,y,-z
-x,y,z
x,-y,z
1/2+x,1/2+y,z
1/2-x,1/2-y,z
1/2+x,1/2-y,-z
1/2-x,1/2+y,-z
1/2-x,1/2-y,-z
1/2+x,1/2+y,-z
1/2-x,1/2+y,z
1/2+x,1/2-y,z
loop_
_atom_site_type_symbol
_atom_site_label
_atom_site_fract_x
_atom_site_fract_y
_atom_site_fract_z
Si Si1 0.274406 0.831244 0.793332
Si Si2 0.756561 0.057746 0.793858
Si Si3 0.615460 0.558058 0.203898
Si Si4 0.560677 0.334016 0.699773
Si Si5 0.334289 0.730804 0.202128
O O1 0.276355 0.891227 0.736017
O O2 0.320118 0.789478 0.737297
O O3 0.215704 0.806664 0.740791
O O4 0.275015 0.832222 0.000000
O O5 0.820649 0.064346 0.746298
O O6 0.738470 0.000000 0.737151
O O7 0.755487 0.057378 0.000000
O O8 0.597209 0.500000 0.259877
O O9 0.580401 0.606959 0.263128
O O10 0.614457 0.558592 0.000000
O O11 0.557431 0.328369 0.500000
O O12 0.500000 0.325103 0.773304
O O13 0.607600 0.294177 0.757807
O O14 0.329786 0.732048 0.000000
#
# Coordination Sequence:
#
# PCOD9493874 Si02
#       5
#    16  16  16  16  16
#     4   8  13  23  43  67  87 106 132 172 216 253
#     4   8  12  20  39  66  90 108 130 164 205 249
#     4   9  17  30  48  65  80 106 147 185 212 245
#     4  11  23  34  42  56  83 116 147 181 220 255
#     4   9  16  28  46  64  82 107 141 177 211 250
#
# _framework density 16.202722999999999
#
# number of rings (size 3 to 8) (size 9 to 14) (size 15 to 20)
#    0.000    3.000    2.000    3.000    0.000    2.400 
#    0.000    4.000    0.000    0.000    0.000    0.000 
#    0.000    0.800    0.000   10.000    0.000    1.600 
#
# Total GULP energy -222743.209528 kJ/mol
# GULP energy per Si atom -5568.580238 kJ/mol
# Density = 1.616584 g / cm^3
# Si number density = 16.202723 Si / 1000 Ang^3
#
#
#
# Elastic Constant Matrix: (Units=GPa)
#
#
# Indices 1 2 3 4 5 6 
#
# 1 82.5514 79.0096 2.4336 0.0000 0.0000 0.0000
# 2 79.0096 167.5732 6.1731 0.0000 0.0000 0.0000
# 3 2.4336 6.1731 9.2464 0.0000 0.0000 0.0000
# 4 0.0000 0.0000 0.0000 -11.0334 0.0000 0.0000
# 5 0.0000 0.0000 0.0000 0.0000 17.1673 0.0000
# 6 0.0000 0.0000 0.0000 0.0000 0.0000 2.2923
#
#
#
# Elastic Compliance Matrix: (Units=1/GPa)
#
#
# Indices 1 2 3 4 5 6 
#
# 1 0.022088 -0.010457 0.001168 0.000000 0.000000 0.000000
# 2 -0.010457 0.011069 -0.004638 0.000000 0.000000 0.000000
# 3 0.001168 -0.004638 0.110939 0.000000 0.000000 0.000000
# 4 0.000000 0.000000 0.000000 -0.090634 0.000000 0.000000
# 5 0.000000 0.000000 0.000000 0.000000 0.058250 0.000000
# 6 0.000000 0.000000 0.000000 0.000000 0.000000 0.436239
#
#
# Mechanical properties :
#
#
# Convention : Reuss Voigt Hill
#
# Bulk Modulus (GPa) = 8.60270 48.28927 28.44599
# Shear Modulus (GPa) = 8.13600 13.13556 10.63578
#
# Velocity S-wave (km/s) = 2.24327 2.85037 2.56485
# Velocity P-wave (km/s) = 3.46852 6.37971 5.13475
#
# Compressibility (1/GPa) = 0.11624256
#
# Stress axis : x y z
#
# Youngs Moduli (GPa) = 45.27371 90.34302 9.01394
#
# Poissons Ratio (x) = 0.94474 -0.01053
# Poissons Ratio (y) = 0.47344 0.04180
# Poissons Ratio (z) = -0.05288 0.41897
#
# Static dielectric constant tensor:
#      x y z
#    x 1.549730 0.000000 0.000000 
#    y 0.000000 1.584470 0.000000 
#    z 0.000000 0.000000 1.580830 
# 
# From -- ./inp_files/12533.got.cif
#   From: 2010.05.17/outbox.cif.g08.bks.cpg/sg65_7_cif.got.tgz:12533.got - 2010.06.03 17:01:31.
