data_PCOD9493726
_publ_section_title
;
Structure prediction by ZEFSAII (Michael W. Deem and Ramdas Pophale) SiO2 
 PCOD9493726
Probable space group: C M M M
;
_chemical_formula_sum "Si O2"
_cell_formula_units_Z 64
_cell_length_a 7.961915
_cell_length_b 18.631227
_cell_length_c 23.224641
_cell_angle_alpha 90.000000
_cell_angle_beta 90.000000
_cell_angle_gamma 90.000000
_cell_volume 3445.148953
_symmetry_space_group_name_H-M "C M M M"
_symmetry_group_IT_number 65
_symmetry_cell_setting 'orthorhombic'
loop_
_space_group_symop_operation_xyz
x,y,z
-x,-y,z
x,-y,-z
-x,y,-z
-x,-y,-z
x,y,-z
-x,y,z
x,-y,z
1/2+x,1/2+y,z
1/2-x,1/2-y,z
1/2+x,1/2-y,-z
1/2-x,1/2+y,-z
1/2-x,1/2-y,-z
1/2+x,1/2+y,-z
1/2-x,1/2+y,z
1/2+x,1/2-y,z
loop_
_atom_site_type_symbol
_atom_site_label
_atom_site_fract_x
_atom_site_fract_y
_atom_site_fract_z
Si Si1 0.693296 0.912502 0.146530
Si Si2 0.800390 0.667561 0.613502
Si Si3 0.199923 0.080868 0.500000
Si Si4 0.500000 0.412376 0.933680
Si Si5 0.795154 0.582536 0.275714
O O1 0.500000 0.889396 0.135699
O O2 0.832009 0.889587 0.100364
O O3 0.747948 0.891879 0.211377
O O4 0.690153 0.000000 0.146775
O O5 0.750000 0.750000 0.608244
O O6 0.750441 0.623246 0.557206
O O7 0.732574 0.631035 0.671927
O O8 0.000000 0.664728 0.617437
O O9 0.000000 0.076319 0.500000
O O10 0.270766 0.000000 0.500000
O O11 0.500000 0.500000 0.933248
O O12 0.500000 0.389346 0.000000
O O13 0.739289 0.500000 0.283359
O O14 0.000000 0.581373 0.276601
#
# Coordination Sequence:
#
# PCOD9493726 Si02
#       5
#    16  16   8   8  16
#     4   8  14  26  42  62  91 128 169 211 256 308
#     4  11  22  37  56  78 107 140 172 216 267 319
#     4  11  24  41  58  79 105 133 176 221 260 315
#     4   9  16  24  36  62  98 133 169 205 251 313
#     4   8  15  30  52  73  94 129 175 215 256 313
#
# _framework density 18.576846
#
# number of rings (size 3 to 8) (size 9 to 14) (size 15 to 20)
#    0.000    2.750    0.000    3.750    0.000    2.500 
#    4.500    2.500    0.000    0.000    0.000    0.000 
#    0.000    1.000    0.500    0.000    0.000    0.000 
#
# Total GULP energy -178429.182872 kJ/mol
# GULP energy per Si atom -5575.911965 kJ/mol
# Density = 1.853456 g / cm^3
# Si number density = 18.576846 Si / 1000 Ang^3
#
#
#
# Elastic Constant Matrix: (Units=GPa)
#
#
# Indices 1 2 3 4 5 6 
#
# 1 74.8316 25.0904 70.4464 0.0000 0.0000 0.0000
# 2 25.0904 78.3429 72.1125 0.0000 0.0000 0.0000
# 3 70.4464 72.1125 205.8153 0.0000 0.0000 0.0000
# 4 0.0000 0.0000 0.0000 -4.7933 0.0000 0.0000
# 5 0.0000 0.0000 0.0000 0.0000 96.0676 0.0000
# 6 0.0000 0.0000 0.0000 0.0000 0.0000 1.0847
#
#
#
# Elastic Compliance Matrix: (Units=1/GPa)
#
#
# Indices 1 2 3 4 5 6 
#
# 1 0.019718 -0.000151 -0.006696 0.000000 0.000000 0.000000
# 2 -0.000151 0.018842 -0.006550 0.000000 0.000000 0.000000
# 3 -0.006696 -0.006550 0.009445 0.000000 0.000000 0.000000
# 4 0.000000 0.000000 0.000000 -0.208626 0.000000 0.000000
# 5 0.000000 0.000000 0.000000 0.000000 0.010409 0.000000
# 6 0.000000 0.000000 0.000000 0.000000 0.000000 0.921895
#
#
# Mechanical properties :
#
#
# Convention : Reuss Voigt Hill
#
# Bulk Modulus (GPa) = 47.14633 77.14314 62.14474
# Shear Modulus (GPa) = 6.20696 31.22784 18.71740
#
# Velocity S-wave (km/s) = 1.82989 4.10446 3.17766
# Velocity P-wave (km/s) = 5.46798 8.00492 6.85484
#
# Compressibility (1/GPa) = 0.02121056
#
# Stress axis : x y z
#
# Youngs Moduli (GPa) = 50.71610 53.07328 105.87067
#
# Poissons Ratio (x) = 0.00804 0.70889
# Poissons Ratio (y) = 0.00768 0.69344
# Poissons Ratio (z) = 0.33959 0.34762
#
# Static dielectric constant tensor:
#      x y z
#    x 1.653550 0.000000 0.000000 
#    y 0.000000 1.678410 0.000000 
#    z 0.000000 0.000000 1.661030 
# 
# From -- ./inp_files/58822.got.cif
#   From: 2010.05.17/outbox.cif.g08.bks.cpg/sg65_30_cif.got.tgz:58822.got - 2010.06.03 17:01:31.
