data_PCOD9493135
_publ_section_title
;
Structure prediction by ZEFSAII (Michael W. Deem and Ramdas Pophale) SiO2 
 PCOD9493135
Probable space group: C M M M
;
_chemical_formula_sum "Si O2"
_cell_formula_units_Z 90
_cell_length_a 24.589125
_cell_length_b 8.624256
_cell_length_c 22.790669
_cell_angle_alpha 90.000000
_cell_angle_beta 90.000000
_cell_angle_gamma 90.000000
_cell_volume 4833.055562
_symmetry_space_group_name_H-M "C M M M"
_symmetry_group_IT_number 65
_symmetry_cell_setting 'orthorhombic'
loop_
_space_group_symop_operation_xyz
x,y,z
-x,-y,z
x,-y,-z
-x,y,-z
-x,-y,-z
x,y,-z
-x,y,z
x,-y,z
1/2+x,1/2+y,z
1/2-x,1/2-y,z
1/2+x,1/2-y,-z
1/2-x,1/2+y,-z
1/2-x,1/2-y,-z
1/2+x,1/2+y,-z
1/2-x,1/2+y,z
1/2+x,1/2-y,z
loop_
_atom_site_type_symbol
_atom_site_label
_atom_site_fract_x
_atom_site_fract_y
_atom_site_fract_z
Si Si1 0.310849 0.813559 0.720745
Si Si2 0.500000 0.727936 0.613132
Si Si3 0.896109 0.684044 0.815851
Si Si4 0.063104 0.813393 0.065763
Si Si5 0.000000 0.174415 0.248413
Si Si6 0.881548 0.810965 0.386090
Si Si7 0.310604 0.685063 0.500000
Si Si8 0.500000 0.500000 0.500000
O O1 0.250000 0.750000 0.718360
O O2 0.340668 0.776899 0.782026
O O3 0.346974 0.732762 0.670626
O O4 0.311212 0.000000 0.712215
O O5 0.500000 0.667656 0.680966
O O6 0.437618 0.786346 0.611827
O O7 0.500000 0.630405 0.552685
O O8 0.900558 0.500000 0.819288
O O9 0.901873 0.752014 0.880650
O O10 0.946296 0.744233 0.776336
O O11 0.000000 0.765678 0.075326
O O12 0.064082 0.000000 0.066466
O O13 0.079026 0.762525 0.000000
O O14 0.000000 0.000000 0.224769
O O15 0.845108 0.773625 0.442578
O O16 0.893527 0.000000 0.386695
O O17 0.306031 0.500000 0.500000
O O18 0.250000 0.750000 0.500000
#
# Coordination Sequence:
#
# PCOD9493135 Si02
#       8
#    16   8  16  16   8  16   8   2
#     4  11  25  42  60  84 114 154 198 251 303 361
#     4  12  22  35  61  91 122 153 198 242 299 360
#     4  11  23  37  57  87 125 159 196 248 305 358
#     4   9  18  33  55  87 125 165 205 244 290 352
#     4  12  21  35  57  91 117 157 197 239 296 359
#     4  11  21  38  60  88 115 148 189 242 297 357
#     4  10  23  38  58  80 108 146 192 245 292 342
#     4  12  20  36  56  92 130 152 206 244 278 354
#
# _framework density 18.621759000000001
#
# number of rings (size 3 to 8) (size 9 to 14) (size 15 to 20)
#    0.000    1.244    4.000    2.933    1.244    4.622 
#    0.000    1.333    0.000    0.533    0.000    3.733 
#    0.000    0.000    0.000    0.000    0.000    0.000 
#
# Total GULP energy -250707.864562 kJ/mol
# GULP energy per Si atom -5571.285879 kJ/mol
# Density = 1.857937 g / cm^3
# Si number density = 18.621759 Si / 1000 Ang^3
#
#
#
# Elastic Constant Matrix: (Units=GPa)
#
#
# Indices 1 2 3 4 5 6 
#
# 1 150.8300 26.4192 60.9085 0.0000 0.0000 0.0000
# 2 26.4192 23.9270 33.0379 0.0000 0.0000 0.0000
# 3 60.9085 33.0379 165.2683 0.0000 0.0000 0.0000
# 4 0.0000 0.0000 0.0000 21.2062 0.0000 0.0000
# 5 0.0000 0.0000 0.0000 0.0000 -57.4680 0.0000
# 6 0.0000 0.0000 0.0000 0.0000 0.0000 -3.3254
#
#
#
# Elastic Compliance Matrix: (Units=1/GPa)
#
#
# Indices 1 2 3 4 5 6 
#
# 1 0.008571 -0.007047 -0.001750 0.000000 0.000000 0.000000
# 2 -0.007047 0.063523 -0.010101 0.000000 0.000000 0.000000
# 3 -0.001750 -0.010101 0.008715 0.000000 0.000000 0.000000
# 4 0.000000 0.000000 0.000000 0.047156 0.000000 0.000000
# 5 0.000000 0.000000 0.000000 0.000000 -0.017401 0.000000
# 6 0.000000 0.000000 0.000000 0.000000 0.000000 -0.300718
#
#
# Mechanical properties :
#
#
# Convention : Reuss Voigt Hill
#
# Bulk Modulus (GPa) = 23.24960 64.52849 43.88905
# Shear Modulus (GPa) = -36.22662 6.72654 -14.75004
#
# Velocity S-wave (km/s) = -4.41544 1.90264 -2.81746
# Velocity P-wave (km/s) = 3.67186 6.28921 3.61051
#
# Compressibility (1/GPa) = 0.04301149
#
# Stress axis : x y z
#
# Youngs Moduli (GPa) = 116.67111 15.74239 114.74487
#
# Poissons Ratio (x) = 0.11094 0.20080
# Poissons Ratio (y) = 0.82224 1.15906
# Poissons Ratio (z) = 0.20417 0.15902
#
# Static dielectric constant tensor:
#      x y z
#    x 1.632050 0.000000 0.000000 
#    y 0.000000 1.663090 0.000000 
#    z 0.000000 0.000000 1.644320 
# 
# From -- ./inp_files/65292.got.cif
#   From: 2010.05.17/outbox.cif.g08.bks.cpg/sg65_33_cif.got.tgz:65292.got - 2010.06.03 17:01:31.
