data_PCOD9493966
_publ_section_title
;
Structure prediction by ZEFSAII (Michael W. Deem and Ramdas Pophale) SiO2 
 PCOD9493966
Probable space group: C M M M
;
_chemical_formula_sum "Si O2"
_cell_formula_units_Z 68
_cell_length_a 14.376206
_cell_length_b 20.923247
_cell_length_c 11.931798
_cell_angle_alpha 90.000000
_cell_angle_beta 90.000000
_cell_angle_gamma 90.000000
_cell_volume 3589.047958
_symmetry_space_group_name_H-M "C M M M"
_symmetry_group_IT_number 65
_symmetry_cell_setting 'orthorhombic'
loop_
_space_group_symop_operation_xyz
x,y,z
-x,-y,z
x,-y,-z
-x,y,-z
-x,-y,-z
x,y,-z
-x,y,z
x,-y,z
1/2+x,1/2+y,z
1/2-x,1/2-y,z
1/2+x,1/2-y,-z
1/2-x,1/2+y,-z
1/2-x,1/2-y,-z
1/2+x,1/2+y,-z
1/2-x,1/2+y,z
1/2+x,1/2-y,z
loop_
_atom_site_type_symbol
_atom_site_label
_atom_site_fract_x
_atom_site_fract_y
_atom_site_fract_z
Si Si1 0.294445 0.074109 0.500000
Si Si2 0.210579 0.177450 0.333317
Si Si3 0.500000 0.305314 0.624866
Si Si4 0.500000 0.820295 0.745196
Si Si5 0.000000 0.610296 0.500000
Si Si6 0.892547 0.500000 0.865335
Si Si7 0.314881 0.863960 0.133127
O O1 0.265068 0.120797 0.397327
O O2 0.405314 0.071351 0.500000
O O3 0.259086 0.000000 0.500000
O O4 0.250000 0.250000 0.362497
O O5 0.102788 0.165302 0.363754
O O6 0.231364 0.166821 0.202590
O O7 0.500000 0.276506 0.500000
O O8 0.500000 0.253635 0.720570
O O9 0.500000 0.852431 0.620854
O O10 0.590467 0.835186 0.817052
O O11 0.832422 0.561757 0.838063
O O12 0.000000 0.500000 0.819804
O O13 0.903502 0.500000 0.000000
O O14 0.307155 0.856321 0.000000
#
# Coordination Sequence:
#
# PCOD9493966 Si02
#       7
#     8  16   8   8   4   8  16
#     4  12  26  42  67  99 132 171 214 271 326 383
#     4  12  25  44  68  95 128 172 216 263 329 384
#     4  12  24  43  67  91 122 171 221 266 327 388
#     4  12  21  36  64  95 131 170 214 254 323 386
#     4  12  21  38  62 102 136 164 199 270 323 384
#     4   9  18  34  60  91 130 177 209 248 313 387
#     4  11  23  39  62  96 137 174 212 256 317 394
#
# _framework density 18.946529000000002
#
# number of rings (size 3 to 8) (size 9 to 14) (size 15 to 20)
#    0.000    0.588    7.647    0.882    1.647    0.471 
#    2.118    1.765    0.000    0.000    0.000    2.471 
#    0.000    0.000    0.000    0.000    0.000    0.000 
#
# Total GULP energy -189400.116785 kJ/mol
# GULP energy per Si atom -5570.591670 kJ/mol
# Density = 1.890341 g / cm^3
# Si number density = 18.946529 Si / 1000 Ang^3
#
#
#
# Elastic Constant Matrix: (Units=GPa)
#
#
# Indices 1 2 3 4 5 6 
#
# 1 125.1156 33.1424 36.0417 0.0000 0.0000 0.0000
# 2 33.1424 102.9086 34.6149 0.0000 0.0000 0.0000
# 3 36.0417 34.6149 120.6993 0.0000 0.0000 0.0000
# 4 0.0000 0.0000 0.0000 34.4263 0.0000 0.0000
# 5 0.0000 0.0000 0.0000 0.0000 34.5129 0.0000
# 6 0.0000 0.0000 0.0000 0.0000 0.0000 11.6387
#
#
#
# Elastic Compliance Matrix: (Units=1/GPa)
#
#
# Indices 1 2 3 4 5 6 
#
# 1 0.009195 -0.002255 -0.002099 0.000000 0.000000 0.000000
# 2 -0.002255 0.011308 -0.002570 0.000000 0.000000 0.000000
# 3 -0.002099 -0.002570 0.009649 0.000000 0.000000 0.000000
# 4 0.000000 0.000000 0.000000 0.029048 0.000000 0.000000
# 5 0.000000 0.000000 0.000000 0.000000 0.028975 0.000000
# 6 0.000000 0.000000 0.000000 0.000000 0.000000 0.085920
#
#
# Mechanical properties :
#
#
# Convention : Reuss Voigt Hill
#
# Bulk Modulus (GPa) = 61.33421 61.81349 61.57385
# Shear Modulus (GPa) = 25.85644 32.44390 29.15017
#
# Velocity S-wave (km/s) = 3.69820 4.14260 3.92669
# Velocity P-wave (km/s) = 7.11886 7.45503 7.28888
#
# Compressibility (1/GPa) = 0.01630411
#
# Stress axis : x y z
#
# Youngs Moduli (GPa) = 108.75950 88.43313 103.64112
#
# Poissons Ratio (x) = 0.19944 0.21752
# Poissons Ratio (y) = 0.24528 0.26631
# Poissons Ratio (z) = 0.22827 0.22723
#
# Static dielectric constant tensor:
#      x y z
#    x 1.631980 0.000000 0.000000 
#    y 0.000000 1.696950 0.000000 
#    z 0.000000 0.000000 1.690610 
# 
# From -- ./inp_files/24351.got.cif
#   From: 2010.05.17/outbox.cif.g08.bks.cpg/sg65_13_cif.got.tgz:24351.got - 2010.06.03 17:01:31.
