data_PCOD9493019
_publ_section_title
;
Structure prediction by ZEFSAII (Michael W. Deem and Ramdas Pophale) SiO2 
 PCOD9493019
Probable space group: C M M M
;
_chemical_formula_sum "Si O2"
_cell_formula_units_Z 72
_cell_length_a 28.823127
_cell_length_b 10.075897
_cell_length_c 13.874370
_cell_angle_alpha 90.000000
_cell_angle_beta 90.000000
_cell_angle_gamma 90.000000
_cell_volume 4029.378703
_symmetry_space_group_name_H-M "C M M M"
_symmetry_group_IT_number 65
_symmetry_cell_setting 'orthorhombic'
loop_
_space_group_symop_operation_xyz
x,y,z
-x,-y,z
x,-y,-z
-x,y,-z
-x,-y,-z
x,y,-z
-x,y,z
x,-y,z
1/2+x,1/2+y,z
1/2-x,1/2-y,z
1/2+x,1/2-y,-z
1/2-x,1/2+y,-z
1/2-x,1/2-y,-z
1/2+x,1/2+y,-z
1/2-x,1/2+y,z
1/2+x,1/2-y,z
loop_
_atom_site_type_symbol
_atom_site_label
_atom_site_fract_x
_atom_site_fract_y
_atom_site_fract_z
Si Si1 0.289959 0.347834 0.385170
Si Si2 0.944440 0.000000 0.384074
Si Si3 0.000000 0.350637 0.115492
Si Si4 0.444470 0.000000 0.615519
Si Si5 0.602388 0.838055 0.888478
Si Si6 0.886993 0.752805 0.310196
O O1 0.283150 0.357426 0.500000
O O2 0.288659 0.500000 0.347232
O O3 0.250000 0.250000 0.346388
O O4 0.339977 0.282697 0.367461
O O5 0.920891 0.125426 0.333416
O O6 0.934389 0.000000 0.500000
O O7 0.000000 0.000000 0.373620
O O8 0.049657 0.290905 0.136556
O O9 0.000000 0.500000 0.155104
O O10 0.000000 0.362693 0.000000
O O11 0.416663 0.874403 0.656672
O O12 0.500000 0.000000 0.636639
O O13 0.440742 0.000000 0.500000
O O14 0.629074 0.772447 0.800410
O O15 0.603347 0.000000 0.883502
O O16 0.613060 0.803996 0.000000
#
# Coordination Sequence:
#
# PCOD9493019 Si02
#       6
#    16   8   8   8  16  16
#     4  10  22  40  62  87 115 149 192 244 300 354
#     4  11  24  40  56  78 120 169 200 230 286 360
#     4   7  12  24  44  69 102 141 185 237 283 319
#     4  11  24  36  52  86 124 157 204 250 278 336
#     4   9  18  32  52  81 114 149 194 245 291 337
#     4  12  22  37  61  85 116 160 201 239 293 354
#
# _framework density 17.868760999999999
#
# number of rings (size 3 to 8) (size 9 to 14) (size 15 to 20)
#    0.000    1.889    2.222    4.000    4.667    1.778 
#    0.000    0.556    0.000    1.333    0.000    0.000 
#    0.000    0.000    0.000    0.000    0.000    0.000 
#
# Total GULP energy -200491.614439 kJ/mol
# GULP energy per Si atom -5569.211512 kJ/mol
# Density = 1.782809 g / cm^3
# Si number density = 17.868761 Si / 1000 Ang^3
#
#
#
# Elastic Constant Matrix: (Units=GPa)
#
#
# Indices 1 2 3 4 5 6 
#
# 1 86.5600 56.3610 6.5015 0.0000 0.0000 0.0000
# 2 56.3610 135.2052 36.1556 0.0000 0.0000 0.0000
# 3 6.5015 36.1556 97.1683 0.0000 0.0000 0.0000
# 4 0.0000 0.0000 0.0000 9.8669 0.0000 0.0000
# 5 0.0000 0.0000 0.0000 0.0000 5.3130 0.0000
# 6 0.0000 0.0000 0.0000 0.0000 0.0000 -5.8730
#
#
#
# Elastic Compliance Matrix: (Units=1/GPa)
#
#
# Indices 1 2 3 4 5 6 
#
# 1 0.016070 -0.007120 0.001574 0.000000 0.000000 0.000000
# 2 -0.007120 0.011368 -0.003754 0.000000 0.000000 0.000000
# 3 0.001574 -0.003754 0.011583 0.000000 0.000000 0.000000
# 4 0.000000 0.000000 0.000000 0.101349 0.000000 0.000000
# 5 0.000000 0.000000 0.000000 0.000000 0.188219 0.000000
# 6 0.000000 0.000000 0.000000 0.000000 0.000000 -0.170270
#
#
# Mechanical properties :
#
#
# Convention : Reuss Voigt Hill
#
# Bulk Modulus (GPa) = 48.96643 57.44109 53.20376
# Shear Modulus (GPa) = 27.21464 16.52239 21.86852
#
# Velocity S-wave (km/s) = 3.90683 3.04411 3.50214
# Velocity P-wave (km/s) = 6.91477 6.67618 6.79652
#
# Compressibility (1/GPa) = 0.02042215
#
# Stress axis : x y z
#
# Youngs Moduli (GPa) = 62.22616 87.96704 86.33522
#
# Poissons Ratio (x) = 0.62632 -0.13589
# Poissons Ratio (y) = 0.44305 0.32406
# Poissons Ratio (z) = -0.09794 0.33019
#
# Static dielectric constant tensor:
#      x y z
#    x 1.632450 0.000000 0.000000 
#    y 0.000000 1.647680 0.000000 
#    z 0.000000 0.000000 1.650900 
# 
# From -- ./inp_files/47503.got.cif
#   From: 2010.05.17/outbox.cif.g08.bks.cpg/sg65_24_cif.got.tgz:47503.got - 2010.06.03 17:01:31.
