data_PCOD9493374
_publ_section_title
;
Structure prediction by ZEFSAII (Michael W. Deem and Ramdas Pophale) SiO2 
 PCOD9493374
Probable space group: C M M M
;
_chemical_formula_sum "Si O2"
_cell_formula_units_Z 80
_cell_length_a 28.103930
_cell_length_b 19.153015
_cell_length_c 7.812403
_cell_angle_alpha 90.000000
_cell_angle_beta 90.000000
_cell_angle_gamma 90.000000
_cell_volume 4205.221169
_symmetry_space_group_name_H-M "C M M M"
_symmetry_group_IT_number 65
_symmetry_cell_setting 'orthorhombic'
loop_
_space_group_symop_operation_xyz
x,y,z
-x,-y,z
x,-y,-z
-x,y,-z
-x,-y,-z
x,y,-z
-x,y,z
x,-y,z
1/2+x,1/2+y,z
1/2-x,1/2-y,z
1/2+x,1/2-y,-z
1/2-x,1/2+y,-z
1/2-x,1/2-y,-z
1/2+x,1/2+y,-z
1/2-x,1/2+y,z
1/2+x,1/2-y,z
loop_
_atom_site_type_symbol
_atom_site_label
_atom_site_fract_x
_atom_site_fract_y
_atom_site_fract_z
Si Si1 0.606298 0.718223 0.700334
Si Si2 0.849760 0.421564 0.789838
Si Si3 0.296951 0.785769 0.201335
Si Si4 0.554802 0.421348 0.793092
Si Si5 0.552583 0.145614 0.203387
O O1 0.610874 0.731661 0.500000
O O2 0.657132 0.735986 0.782455
O O3 0.588249 0.640261 0.730336
O O4 0.568202 0.774008 0.771473
O O5 0.837825 0.500000 0.737814
O O6 0.814073 0.360897 0.729408
O O7 0.902989 0.399969 0.732040
O O8 0.850123 0.419518 0.000000
O O9 0.250000 0.750000 0.276964
O O10 0.287537 0.797314 0.000000
O O11 0.500000 0.408930 0.738787
O O12 0.568165 0.500000 0.738692
O O13 0.555297 0.420199 0.000000
O O14 0.500000 0.132518 0.275682
O O15 0.550229 0.132805 0.000000
#
# Coordination Sequence:
#
# PCOD9493374 Si02
#       5
#    16  16  16  16  16
#     4  11  21  31  47  71  99 128 159 198 243 295
#     4   8  14  26  46  72  97 119 151 198 243 278
#     4   9  18  34  54  72  92 122 162 205 247 292
#     4   9  18  33  52  72  96 129 167 205 244 285
#     4   9  17  29  46  68  95 128 163 196 231 278
#
# _framework density 19.023969000000001
#
# number of rings (size 3 to 8) (size 9 to 14) (size 15 to 20)
#    0.000    2.800    0.000    4.200    0.000    4.400 
#    0.000    4.000    0.000   13.200    0.000    5.600 
#    0.000    0.000    0.000    0.000    0.000    0.000 
#
# Total GULP energy -223006.560487 kJ/mol
# GULP energy per Si atom -5575.164012 kJ/mol
# Density = 1.898067 g / cm^3
# Si number density = 19.023969 Si / 1000 Ang^3
#
#
#
# Elastic Constant Matrix: (Units=GPa)
#
#
# Indices 1 2 3 4 5 6 
#
# 1 122.4957 81.7378 -0.3877 0.0000 0.0000 0.0000
# 2 81.7378 155.3817 -6.5698 0.0000 0.0000 0.0000
# 3 -0.3877 -6.5698 21.8851 0.0000 0.0000 0.0000
# 4 0.0000 0.0000 0.0000 -20.1092 0.0000 0.0000
# 5 0.0000 0.0000 0.0000 0.0000 -19.1468 0.0000
# 6 0.0000 0.0000 0.0000 0.0000 0.0000 29.4145
#
#
#
# Elastic Compliance Matrix: (Units=1/GPa)
#
#
# Indices 1 2 3 4 5 6 
#
# 1 0.012648 -0.006730 -0.001796 0.000000 0.000000 0.000000
# 2 -0.006730 0.010099 0.002912 0.000000 0.000000 0.000000
# 3 -0.001796 0.002912 0.046536 0.000000 0.000000 0.000000
# 4 0.000000 0.000000 0.000000 -0.049729 0.000000 0.000000
# 5 0.000000 0.000000 0.000000 0.000000 -0.052228 0.000000
# 6 0.000000 0.000000 0.000000 0.000000 0.000000 0.033997
#
#
# Mechanical properties :
#
#
# Convention : Reuss Voigt Hill
#
# Bulk Modulus (GPa) = 17.22461 49.92479 33.57470
# Shear Modulus (GPa) = 156.73144 13.03051 84.88098
#
# Velocity S-wave (km/s) = 9.08654 2.62000 6.68691
# Velocity P-wave (km/s) = 10.91607 5.95421 8.79242
#
# Compressibility (1/GPa) = 0.05805646
#
# Stress axis : x y z
#
# Youngs Moduli (GPa) = 79.06220 99.02035 21.48892
#
# Poissons Ratio (x) = 0.66636 0.03860
# Poissons Ratio (y) = 0.53205 -0.06259
# Poissons Ratio (z) = 0.14200 -0.28839
#
# Static dielectric constant tensor:
#      x y z
#    x 1.713330 0.000000 0.000000 
#    y 0.000000 1.659540 0.000000 
#    z 0.000000 0.000000 1.675670 
# 
# From -- ./inp_files/9644.got.cif
#   From: 2010.05.17/outbox.cif.g08.bks.cpg/sg65_5_cif.got.tgz:9644.got - 2010.06.03 17:01:31.
