data_PCOD9493048
_publ_section_title
;
Structure prediction by ZEFSAII (Michael W. Deem and Ramdas Pophale) SiO2 
 PCOD9493048
Probable space group: C M M M
;
_chemical_formula_sum "Si O2"
_cell_formula_units_Z 72
_cell_length_a 9.968255
_cell_length_b 28.858446
_cell_length_c 13.694547
_cell_angle_alpha 90.000000
_cell_angle_beta 90.000000
_cell_angle_gamma 90.000000
_cell_volume 3939.487721
_symmetry_space_group_name_H-M "C M M M"
_symmetry_group_IT_number 65
_symmetry_cell_setting 'orthorhombic'
loop_
_space_group_symop_operation_xyz
x,y,z
-x,-y,z
x,-y,-z
-x,y,-z
-x,-y,-z
x,y,-z
-x,y,z
x,-y,z
1/2+x,1/2+y,z
1/2-x,1/2-y,z
1/2+x,1/2-y,-z
1/2-x,1/2+y,-z
1/2-x,1/2-y,-z
1/2+x,1/2+y,-z
1/2-x,1/2+y,z
1/2+x,1/2-y,z
loop_
_atom_site_type_symbol
_atom_site_label
_atom_site_fract_x
_atom_site_fract_y
_atom_site_fract_z
Si Si1 0.158678 0.088457 0.616558
Si Si2 0.155859 0.552697 0.117492
Si Si3 0.000000 0.800083 0.114717
Si Si4 0.844240 0.500000 0.617978
Si Si5 0.000000 0.310810 0.117145
Si Si6 0.739146 0.356951 0.206720
O O1 0.168497 0.095862 0.500000
O O2 0.256449 0.045389 0.642413
O O3 0.210168 0.131651 0.680419
O O4 0.000000 0.079449 0.638261
O O5 0.187977 0.500000 0.147993
O O6 0.252537 0.592106 0.157695
O O7 0.000000 0.562200 0.145869
O O8 0.159541 0.553927 0.000000
O O9 0.000000 0.744709 0.124785
O O10 0.125801 0.824329 0.163823
O O11 0.000000 0.810358 0.000000
O O12 0.852320 0.500000 0.500000
O O13 0.000000 0.500000 0.653037
O O14 0.874177 0.332220 0.172823
O O15 0.000000 0.322715 0.000000
#
# Coordination Sequence:
#
# PCOD9493048 Si02
#       6
#    16  16   8   8   8  16
#     4  10  22  41  61  86 127 172 210 255 310 366
#     4   9  18  33  54  83 122 162 196 232 290 370
#     4  11  24  42  64  92 123 154 204 266 317 375
#     4   9  19  35  61  93 122 159 214 267 302 349
#     4  11  24  42  66  92 123 160 200 258 327 379
#     4  12  22  38  63  92 119 163 209 253 307 379
#
# _framework density 18.276488000000001
#
# number of rings (size 3 to 8) (size 9 to 14) (size 15 to 20)
#    0.000    1.667    2.222    3.667    3.111    3.111 
#    0.000    0.556    0.000    6.000    0.000    0.000 
#    0.000    0.000    0.000    0.000    0.000    0.000 
#
# Total GULP energy -200941.073617 kJ/mol
# GULP energy per Si atom -5581.696489 kJ/mol
# Density = 1.823489 g / cm^3
# Si number density = 18.276488 Si / 1000 Ang^3
#
#
#
# Elastic Constant Matrix: (Units=GPa)
#
#
# Indices 1 2 3 4 5 6 
#
# 1 156.4038 57.9769 58.1237 0.0000 0.0000 0.0000
# 2 57.9769 98.9533 54.6197 0.0000 0.0000 0.0000
# 3 58.1237 54.6197 99.7149 0.0000 0.0000 0.0000
# 4 0.0000 0.0000 0.0000 34.0505 0.0000 0.0000
# 5 0.0000 0.0000 0.0000 0.0000 25.9586 0.0000
# 6 0.0000 0.0000 0.0000 0.0000 0.0000 7.3875
#
#
#
# Elastic Compliance Matrix: (Units=1/GPa)
#
#
# Indices 1 2 3 4 5 6 
#
# 1 0.008879 -0.003362 -0.003334 0.000000 0.000000 0.000000
# 2 -0.003362 0.015758 -0.006672 0.000000 0.000000 0.000000
# 3 -0.003334 -0.006672 0.015627 0.000000 0.000000 0.000000
# 4 0.000000 0.000000 0.000000 0.029368 0.000000 0.000000
# 5 0.000000 0.000000 0.000000 0.000000 0.038523 0.000000
# 6 0.000000 0.000000 0.000000 0.000000 0.000000 0.135363
#
#
# Mechanical properties :
#
#
# Convention : Reuss Voigt Hill
#
# Bulk Modulus (GPa) = 73.92122 77.39030 75.65576
# Shear Modulus (GPa) = 18.19744 25.76943 21.98344
#
# Velocity S-wave (km/s) = 3.15886 3.75904 3.47194
# Velocity P-wave (km/s) = 7.33746 7.82794 7.58667
#
# Compressibility (1/GPa) = 0.01352791
#
# Stress axis : x y z
#
# Youngs Moduli (GPa) = 112.62630 63.45836 63.99300
#
# Poissons Ratio (x) = 0.21334 0.21335
# Poissons Ratio (y) = 0.37864 0.42697
# Poissons Ratio (z) = 0.37550 0.42340
#
# Static dielectric constant tensor:
#      x y z
#    x 1.562120 0.000000 0.000000 
#    y 0.000000 1.613590 0.000000 
#    z 0.000000 0.000000 1.656640 
# 
# From -- ./inp_files/37080.got.cif
#   From: 2010.05.17/outbox.cif.g08.bks.cpg/sg65_19_cif.got.tgz:37080.got - 2010.06.03 17:01:31.
