data_PCOD9493552
_publ_section_title
;
Structure prediction by ZEFSAII (Michael W. Deem and Ramdas Pophale) SiO2 
 PCOD9493552
Probable space group: C M M M
;
_chemical_formula_sum "Si O2"
_cell_formula_units_Z 88
_cell_length_a 14.971945
_cell_length_b 23.779189
_cell_length_c 11.998009
_cell_angle_alpha 90.000000
_cell_angle_beta 90.000000
_cell_angle_gamma 90.000000
_cell_volume 4271.539681
_symmetry_space_group_name_H-M "C M M M"
_symmetry_group_IT_number 65
_symmetry_cell_setting 'orthorhombic'
loop_
_space_group_symop_operation_xyz
x,y,z
-x,-y,z
x,-y,-z
-x,y,-z
-x,-y,-z
x,y,-z
-x,y,z
x,-y,z
1/2+x,1/2+y,z
1/2-x,1/2-y,z
1/2+x,1/2-y,-z
1/2-x,1/2+y,-z
1/2-x,1/2-y,-z
1/2+x,1/2+y,-z
1/2-x,1/2+y,z
1/2+x,1/2-y,z
loop_
_atom_site_type_symbol
_atom_site_label
_atom_site_fract_x
_atom_site_fract_y
_atom_site_fract_z
Si Si1 0.895764 0.914340 0.500000
Si Si2 0.102323 0.378294 0.232900
Si Si3 0.392564 0.936855 0.000000
Si Si4 0.600473 0.636751 0.131611
Si Si5 0.647916 0.249586 0.748124
Si Si6 0.396822 0.279078 0.500000
Si Si7 0.725796 0.435295 0.287360
O O1 0.894646 0.846513 0.500000
O O2 0.841018 0.933422 0.607885
O O3 0.000000 0.931691 0.500000
O O4 0.127933 0.403694 0.112438
O O5 0.106835 0.311037 0.227399
O O6 0.181167 0.402525 0.310617
O O7 0.000000 0.395066 0.260629
O O8 0.500000 0.941425 0.000000
O O9 0.354925 0.000000 0.000000
O O10 0.500000 0.613519 0.147093
O O11 0.603282 0.697364 0.191940
O O12 0.672926 0.597402 0.190307
O O13 0.617081 0.642900 0.000000
O O14 0.750000 0.250000 0.786271
O O15 0.644769 0.258390 0.615062
O O16 0.500000 0.260529 0.500000
O O17 0.745341 0.500000 0.259323
#
# Coordination Sequence:
#
# PCOD9493552 Si02
#       7
#     8  16   8  16  16   8  16
#     4  11  23  45  72  99 131 174 229 281 333 398
#     4  11  24  42  66  99 137 180 224 273 335 399
#     4   9  20  40  65  92 129 185 241 276 311 381
#     4  11  25  44  67  98 135 173 216 274 345 412
#     4  12  23  41  67  99 135 174 221 272 333 402
#     4  11  21  38  66  95 131 170 213 266 328 398
#     4  12  26  44  68  98 132 174 230 283 331 394
#
# _framework density 20.601469999999999
#
# number of rings (size 3 to 8) (size 9 to 14) (size 15 to 20)
#    0.000    0.818    3.636    3.273    2.545    4.364 
#    0.000    2.273    0.000    1.091    0.000    0.000 
#    0.000    0.000    0.000    0.000    0.000    0.000 
#
# Total GULP energy -245974.203259 kJ/mol
# GULP energy per Si atom -5590.322801 kJ/mol
# Density = 2.055458 g / cm^3
# Si number density = 20.601470 Si / 1000 Ang^3
#
#
#
# Elastic Constant Matrix: (Units=GPa)
#
#
# Indices 1 2 3 4 5 6 
#
# 1 152.1679 24.5661 30.1839 0.0000 0.0000 0.0000
# 2 24.5661 123.1465 25.0777 0.0000 0.0000 0.0000
# 3 30.1839 25.0777 88.4047 0.0000 0.0000 0.0000
# 4 0.0000 0.0000 0.0000 27.1309 0.0000 0.0000
# 5 0.0000 0.0000 0.0000 0.0000 47.4143 0.0000
# 6 0.0000 0.0000 0.0000 0.0000 0.0000 20.6063
#
#
#
# Elastic Compliance Matrix: (Units=1/GPa)
#
#
# Indices 1 2 3 4 5 6 
#
# 1 0.007161 -0.000988 -0.002165 0.000000 0.000000 0.000000
# 2 -0.000988 0.008754 -0.002146 0.000000 0.000000 0.000000
# 3 -0.002165 -0.002146 0.012660 0.000000 0.000000 0.000000
# 4 0.000000 0.000000 0.000000 0.036858 0.000000 0.000000
# 5 0.000000 0.000000 0.000000 0.000000 0.021091 0.000000
# 6 0.000000 0.000000 0.000000 0.000000 0.000000 0.048529
#
#
# Mechanical properties :
#
#
# Convention : Reuss Voigt Hill
#
# Bulk Modulus (GPa) = 55.62478 58.15273 56.88875
# Shear Modulus (GPa) = 32.97243 37.95638 35.46441
#
# Velocity S-wave (km/s) = 4.00495 4.29699 4.15354
# Velocity P-wave (km/s) = 6.96026 7.27376 7.11873
#
# Compressibility (1/GPa) = 0.01797760
#
# Stress axis : x y z
#
# Youngs Moduli (GPa) = 139.65485 114.22726 78.99206
#
# Poissons Ratio (x) = 0.11281 0.17099
# Poissons Ratio (y) = 0.13793 0.16953
# Poissons Ratio (z) = 0.30230 0.24515
#
# Static dielectric constant tensor:
#      x y z
#    x 1.756060 0.000000 0.000000 
#    y 0.000000 1.708750 0.000000 
#    z 0.000000 0.000000 1.727090 
# 
# From -- ./inp_files/24878.got.cif
#   From: 2010.05.17/outbox.cif.g08.bks.cpg/sg65_13_cif.got.tgz:24878.got - 2010.06.03 17:01:31.
