data_PCOD9493886
_publ_section_title
;
Structure prediction by ZEFSAII (Michael W. Deem and Ramdas Pophale) SiO2 
 PCOD9493886
Probable space group: C M M M
;
_chemical_formula_sum "Si O2"
_cell_formula_units_Z 72
_cell_length_a 7.780449
_cell_length_b 18.213511
_cell_length_c 26.527867
_cell_angle_alpha 90.000000
_cell_angle_beta 90.000000
_cell_angle_gamma 90.000000
_cell_volume 3759.245289
_symmetry_space_group_name_H-M "C M M M"
_symmetry_group_IT_number 65
_symmetry_cell_setting 'orthorhombic'
loop_
_space_group_symop_operation_xyz
x,y,z
-x,-y,z
x,-y,-z
-x,y,-z
-x,-y,-z
x,y,-z
-x,y,z
x,-y,z
1/2+x,1/2+y,z
1/2-x,1/2-y,z
1/2+x,1/2-y,-z
1/2-x,1/2+y,-z
1/2-x,1/2-y,-z
1/2+x,1/2+y,-z
1/2-x,1/2+y,z
1/2+x,1/2-y,z
loop_
_atom_site_type_symbol
_atom_site_label
_atom_site_fract_x
_atom_site_fract_y
_atom_site_fract_z
Si Si1 0.296405 0.165055 0.235527
Si Si2 0.204195 0.910892 0.554190
Si Si3 0.500000 0.410601 0.057629
Si Si4 0.794250 0.083403 0.662667
Si Si5 0.700980 0.088414 0.866837
O O1 0.500000 0.157056 0.234829
O O2 0.250000 0.250000 0.232254
O O3 0.237520 0.131131 0.288264
O O4 0.234270 0.122322 0.185860
O O5 0.277589 0.886086 0.500000
O O6 0.273321 0.886509 0.608744
O O7 0.000000 0.894143 0.552801
O O8 0.218355 0.000000 0.555343
O O9 0.500000 0.500000 0.056543
O O10 0.329703 0.388695 0.088639
O O11 0.500000 0.384800 0.000000
O O12 0.000000 0.078429 0.656737
O O13 0.728846 0.000000 0.670478
O O14 0.500000 0.108863 0.875409
O O15 0.706537 0.000000 0.862766
#
# Coordination Sequence:
#
# PCOD9493886 Si02
#       5
#    16  16   8  16  16
#     4  11  23  36  51  73 100 137 174 216 265 310
#     4   7  10  19  38  66  97 126 159 201 249 302
#     4   9  18  32  56  88 114 140 172 212 260 305
#     4   9  17  29  49  76 103 132 167 209 257 311
#     4   9  19  35  55  81 110 141 176 216 262 313
#
# _framework density 19.152781000000001
#
# number of rings (size 3 to 8) (size 9 to 14) (size 15 to 20)
#    0.000    3.000    0.000    3.333    3.111    1.778 
#    0.000    2.222    0.000    2.000    0.000    3.111 
#    0.000    0.000    0.000    0.000    0.000    0.000 
#
# Total GULP energy -200492.807578 kJ/mol
# GULP energy per Si atom -5569.244655 kJ/mol
# Density = 1.910919 g / cm^3
# Si number density = 19.152781 Si / 1000 Ang^3
#
#
#
# Elastic Constant Matrix: (Units=GPa)
#
#
# Indices 1 2 3 4 5 6 
#
# 1 54.9002 14.9783 59.2292 0.0000 0.0000 0.0000
# 2 14.9783 25.9148 44.1030 0.0000 0.0000 0.0000
# 3 59.2292 44.1030 227.6775 0.0000 0.0000 0.0000
# 4 0.0000 0.0000 0.0000 -6.6922 0.0000 0.0000
# 5 0.0000 0.0000 0.0000 0.0000 -45.0596 0.0000
# 6 0.0000 0.0000 0.0000 0.0000 0.0000 -172.0735
#
#
#
# Elastic Compliance Matrix: (Units=1/GPa)
#
#
# Indices 1 2 3 4 5 6 
#
# 1 0.025783 -0.005202 -0.005700 0.000000 0.000000 0.000000
# 2 -0.005202 0.058615 -0.010001 0.000000 0.000000 0.000000
# 3 -0.005700 -0.010001 0.007812 0.000000 0.000000 0.000000
# 4 0.000000 0.000000 0.000000 -0.149428 0.000000 0.000000
# 5 0.000000 0.000000 0.000000 0.000000 -0.022193 0.000000
# 6 0.000000 0.000000 0.000000 0.000000 0.000000 -0.005811
#
#
# Mechanical properties :
#
#
# Convention : Reuss Voigt Hill
#
# Bulk Modulus (GPa) = 19.83951 60.56816 40.20384
# Shear Modulus (GPa) = -187.86009 -32.08627 -109.97318
#
# Velocity S-wave (km/s) = -9.91453 -4.09746 -7.58575
# Velocity P-wave (km/s) = 10.98558 3.05070 7.46244
#
# Compressibility (1/GPa) = 0.05040447
#
# Stress axis : x y z
#
# Youngs Moduli (GPa) = 38.78475 17.06062 128.00577
#
# Poissons Ratio (x) = 0.08875 0.72959
# Poissons Ratio (y) = 0.20177 1.28015
# Poissons Ratio (z) = 0.22106 0.17062
#
# Static dielectric constant tensor:
#      x y z
#    x 1.704390 0.000000 0.000000 
#    y 0.000000 1.616420 0.000000 
#    z 0.000000 0.000000 1.719570 
# 
# From -- ./inp_files/72560.got.cif
#   From: 2010.05.17/outbox.cif.g08.bks.cpg/sg65_37_cif.got.tgz:72560.got - 2010.06.03 17:01:31.
