data_PCOD9493803
_publ_section_title
;
Structure prediction by ZEFSAII (Michael W. Deem and Ramdas Pophale) SiO2 
 PCOD9493803
Probable space group: C M M M
;
_chemical_formula_sum "Si O2"
_cell_formula_units_Z 96
_cell_length_a 13.064100
_cell_length_b 15.825889
_cell_length_c 24.338739
_cell_angle_alpha 90.000000
_cell_angle_beta 90.000000
_cell_angle_gamma 90.000000
_cell_volume 5032.058541
_symmetry_space_group_name_H-M "C M M M"
_symmetry_group_IT_number 65
_symmetry_cell_setting 'orthorhombic'
loop_
_space_group_symop_operation_xyz
x,y,z
-x,-y,z
x,-y,-z
-x,y,-z
-x,-y,-z
x,y,-z
-x,y,z
x,-y,z
1/2+x,1/2+y,z
1/2-x,1/2-y,z
1/2+x,1/2-y,-z
1/2-x,1/2+y,-z
1/2-x,1/2-y,-z
1/2+x,1/2+y,-z
1/2-x,1/2+y,z
1/2+x,1/2-y,z
loop_
_atom_site_type_symbol
_atom_site_label
_atom_site_fract_x
_atom_site_fract_y
_atom_site_fract_z
Si Si1 0.500000 0.602987 0.732818
Si Si2 0.314563 0.396455 0.937740
Si Si3 0.612960 0.099657 0.248784
Si Si4 0.381641 0.601841 0.561878
Si Si5 0.616321 0.103368 0.125158
Si Si6 0.290129 0.655552 0.673777
Si Si7 0.000000 0.103034 0.860539
O O1 0.500000 0.500000 0.728026
O O2 0.397607 0.637395 0.704060
O O3 0.500000 0.627629 0.796928
O O4 0.315786 0.500000 0.937786
O O5 0.203451 0.368451 0.916605
O O6 0.400285 0.369276 0.894256
O O7 0.336058 0.369585 0.000000
O O8 0.500000 0.134014 0.264541
O O9 0.640398 0.132264 0.187691
O O10 0.700496 0.108638 0.293549
O O11 0.601625 0.000000 0.240861
O O12 0.353270 0.629008 0.500000
O O13 0.500000 0.628528 0.572040
O O14 0.381883 0.500000 0.562576
O O15 0.309180 0.631522 0.610582
O O16 0.500000 0.128961 0.112224
O O17 0.618186 0.000000 0.124163
O O18 0.250000 0.750000 0.676691
O O19 0.000000 0.000000 0.860402
#
# Coordination Sequence:
#
# PCOD9493803 Si02
#       7
#     8  16  16  16  16  16   8
#     4  11  22  39  61  83 110 156 203 237 277 343
#     4   9  15  22  35  60  97 133 164 214 284 338
#     4   9  18  33  53  74 103 149 193 225 271 345
#     4   9  18  36  62  87 112 148 197 240 272 324
#     4   8  14  25  40  60  88 129 179 219 258 323
#     4  12  24  34  56  85 122 146 182 239 294 331
#     4   9  17  28  45  67  96 134 181 223 270 334
#
# _framework density 19.077680000000001
#
# number of rings (size 3 to 8) (size 9 to 14) (size 15 to 20)
#    0.000    2.500    0.833    4.250    1.167    4.333 
#    0.000    1.667    0.000    0.500    0.000    2.333 
#    0.000   16.667    0.000    0.000    0.000    0.000 
#
# Total GULP energy -267632.365429 kJ/mol
# GULP energy per Si atom -5575.674280 kJ/mol
# Density = 1.903426 g / cm^3
# Si number density = 19.077680 Si / 1000 Ang^3
#
#
#
# Elastic Constant Matrix: (Units=GPa)
#
#
# Indices 1 2 3 4 5 6 
#
# 1 107.4902 14.6753 73.6842 0.0000 0.0000 0.0000
# 2 14.6753 22.8488 19.5012 0.0000 0.0000 0.0000
# 3 73.6842 19.5012 142.6561 0.0000 0.0000 0.0000
# 4 0.0000 0.0000 0.0000 -22.1917 0.0000 0.0000
# 5 0.0000 0.0000 0.0000 0.0000 9.0524 0.0000
# 6 0.0000 0.0000 0.0000 0.0000 0.0000 4.6274
#
#
#
# Elastic Compliance Matrix: (Units=1/GPa)
#
#
# Indices 1 2 3 4 5 6 
#
# 1 0.014624 -0.003335 -0.007098 0.000000 0.000000 0.000000
# 2 -0.003335 0.050307 -0.005155 0.000000 0.000000 0.000000
# 3 -0.007098 -0.005155 0.011381 0.000000 0.000000 0.000000
# 4 0.000000 0.000000 0.000000 -0.045062 0.000000 0.000000
# 5 0.000000 0.000000 0.000000 0.000000 0.110468 0.000000
# 6 0.000000 0.000000 0.000000 0.000000 0.000000 0.216102
#
#
# Mechanical properties :
#
#
# Convention : Reuss Voigt Hill
#
# Bulk Modulus (GPa) = 22.15449 54.30182 38.22815
# Shear Modulus (GPa) = 12.37502 9.30659 10.84080
#
# Velocity S-wave (km/s) = 2.54965 2.21107 2.38638
# Velocity P-wave (km/s) = 4.50618 5.91978 5.26068
#
# Compressibility (1/GPa) = 0.04513758
#
# Stress axis : x y z
#
# Youngs Moduli (GPa) = 68.38147 19.87790 87.86955
#
# Poissons Ratio (x) = 0.06629 0.62366
# Poissons Ratio (y) = 0.22804 0.45292
# Poissons Ratio (z) = 0.48534 0.10246
#
# Static dielectric constant tensor:
#      x y z
#    x 1.626720 0.000000 0.000000 
#    y 0.000000 1.670630 0.000000 
#    z 0.000000 0.000000 1.659470 
# 
# From -- ./inp_files/69042.got.cif
#   From: 2010.05.17/outbox.cif.g08.bks.cpg/sg65_35_cif.got.tgz:69042.got - 2010.06.03 17:01:31.
