data_PCOD9493358
_publ_section_title
;
Structure prediction by ZEFSAII (Michael W. Deem and Ramdas Pophale) SiO2 
 PCOD9493358
Probable space group: C M M M
;
_chemical_formula_sum "Si O2"
_cell_formula_units_Z 48
_cell_length_a 9.970793
_cell_length_b 25.387222
_cell_length_c 10.219060
_cell_angle_alpha 90.000000
_cell_angle_beta 90.000000
_cell_angle_gamma 90.000000
_cell_volume 2586.758173
_symmetry_space_group_name_H-M "C M M M"
_symmetry_group_IT_number 65
_symmetry_cell_setting 'orthorhombic'
loop_
_space_group_symop_operation_xyz
x,y,z
-x,-y,z
x,-y,-z
-x,y,-z
-x,-y,-z
x,y,-z
-x,y,z
x,-y,z
1/2+x,1/2+y,z
1/2-x,1/2-y,z
1/2+x,1/2-y,-z
1/2-x,1/2+y,-z
1/2-x,1/2-y,-z
1/2+x,1/2+y,-z
1/2-x,1/2+y,z
1/2+x,1/2-y,z
loop_
_atom_site_type_symbol
_atom_site_label
_atom_site_fract_x
_atom_site_fract_y
_atom_site_fract_z
Si Si1 0.000000 0.436341 0.340462
Si Si2 0.000000 0.061703 0.348890
Si Si3 0.660630 0.301777 0.500000
Si Si4 0.737238 0.373651 0.254476
Si Si5 0.166011 0.194780 0.000000
O O1 0.874613 0.404622 0.280228
O O2 0.000000 0.500000 0.313740
O O3 0.000000 0.431243 0.500000
O O4 0.873785 0.081647 0.269794
O O5 0.000000 0.082573 0.500000
O O6 0.000000 0.000000 0.359413
O O7 0.500000 0.291699 0.500000
O O8 0.750000 0.250000 0.500000
O O9 0.704179 0.334387 0.373276
O O10 0.713514 0.339501 0.124852
O O11 0.250000 0.250000 0.000000
O O12 0.000000 0.201470 0.000000
#
# Coordination Sequence:
#
# PCOD9493358 Si02
#       5
#     8   8   8  16   8
#     4  11  24  43  72 107 139 179 225 277 342 401
#     4  11  20  39  70  99 131 175 221 281 344 401
#     4  12  24  40  65  96 128 170 231 288 341 398
#     4  12  23  44  66 100 136 174 227 280 336 402
#     4  12  28  48  71  98 136 184 229 280 347 406
#
# _framework density 18.556045999999998
#
# number of rings (size 3 to 8) (size 9 to 14) (size 15 to 20)
#    0.000    0.333    6.667    2.000    4.667    2.667 
#    0.000    5.000    0.000    0.000    0.000    0.000 
#    0.000    0.000    0.000    0.000    0.000    0.000 
#
# Total GULP energy -133922.100439 kJ/mol
# GULP energy per Si atom -5580.087518 kJ/mol
# Density = 1.851381 g / cm^3
# Si number density = 18.556046 Si / 1000 Ang^3
#
#
#
# Elastic Constant Matrix: (Units=GPa)
#
#
# Indices 1 2 3 4 5 6 
#
# 1 232.1730 104.6780 64.5987 0.0000 0.0000 0.0000
# 2 104.6780 162.7556 83.2986 0.0000 0.0000 0.0000
# 3 64.5987 83.2986 166.1631 0.0000 0.0000 0.0000
# 4 0.0000 0.0000 0.0000 -14.9858 0.0000 0.0000
# 5 0.0000 0.0000 0.0000 0.0000 19.5612 0.0000
# 6 0.0000 0.0000 0.0000 0.0000 0.0000 49.7550
#
#
#
# Elastic Compliance Matrix: (Units=1/GPa)
#
#
# Indices 1 2 3 4 5 6 
#
# 1 0.006103 -0.003646 -0.000545 0.000000 0.000000 0.000000
# 2 -0.003646 0.010443 -0.003818 0.000000 0.000000 0.000000
# 3 -0.000545 -0.003818 0.008144 0.000000 0.000000 0.000000
# 4 0.000000 0.000000 0.000000 -0.066730 0.000000 0.000000
# 5 0.000000 0.000000 0.000000 0.000000 0.051122 0.000000
# 6 0.000000 0.000000 0.000000 0.000000 0.000000 0.020098
#
#
# Mechanical properties :
#
#
# Convention : Reuss Voigt Hill
#
# Bulk Modulus (GPa) = 115.30752 118.47137 116.88945
# Shear Modulus (GPa) = 103.97630 31.43384 67.70507
#
# Velocity S-wave (km/s) = 7.49368 4.12028 6.04698
# Velocity P-wave (km/s) = 11.71105 9.30695 10.57753
#
# Compressibility (1/GPa) = 0.00867246
#
# Stress axis : x y z
#
# Youngs Moduli (GPa) = 163.86430 95.75615 122.79349
#
# Poissons Ratio (x) = 0.34915 0.06688
# Poissons Ratio (y) = 0.59749 0.46879
# Poissons Ratio (z) = 0.08924 0.36557
#
# Static dielectric constant tensor:
#      x y z
#    x 1.770460 0.000000 0.000000 
#    y 0.000000 1.665970 0.000000 
#    z 0.000000 0.000000 1.616850 
# 
# From -- ./inp_files/3157.got.cif
#   From: 2010.05.17/outbox.cif.g08.bks.cpg/sg65_2_cif.got.tgz:3157.got - 2010.06.03 17:01:31.
