data_PCOD9493244
_publ_section_title
;
Structure prediction by ZEFSAII (Michael W. Deem and Ramdas Pophale) SiO2 
 PCOD9493244
Probable space group: C M M M
;
_chemical_formula_sum "Si O2"
_cell_formula_units_Z 66
_cell_length_a 15.367575
_cell_length_b 26.165207
_cell_length_c 8.019542
_cell_angle_alpha 90.000000
_cell_angle_beta 90.000000
_cell_angle_gamma 90.000000
_cell_volume 3224.624003
_symmetry_space_group_name_H-M "C M M M"
_symmetry_group_IT_number 65
_symmetry_cell_setting 'orthorhombic'
loop_
_space_group_symop_operation_xyz
x,y,z
-x,-y,z
x,-y,-z
-x,y,-z
-x,-y,-z
x,y,-z
-x,y,z
x,-y,z
1/2+x,1/2+y,z
1/2-x,1/2-y,z
1/2+x,1/2-y,-z
1/2-x,1/2+y,-z
1/2-x,1/2-y,-z
1/2+x,1/2+y,-z
1/2-x,1/2+y,z
1/2+x,1/2-y,z
loop_
_atom_site_type_symbol
_atom_site_label
_atom_site_fract_x
_atom_site_fract_y
_atom_site_fract_z
Si Si1 0.000000 0.728025 0.795524
Si Si2 0.132727 0.355995 0.196812
Si Si3 0.500000 0.941408 0.204403
Si Si4 0.500000 0.344234 0.198952
Si Si5 0.814723 0.112887 0.306418
Si Si6 0.500000 0.500000 0.000000
Si Si7 0.856984 0.000000 0.697793
O O1 0.083225 0.694562 0.740268
O O2 0.000000 0.786145 0.735866
O O3 0.000000 0.731035 0.000000
O O4 0.082990 0.407019 0.259066
O O5 0.235216 0.357934 0.222923
O O6 0.116729 0.355813 0.000000
O O7 0.500000 0.000000 0.263006
O O8 0.500000 0.943596 0.000000
O O9 0.588215 0.372533 0.250696
O O10 0.500000 0.343657 0.000000
O O11 0.808890 0.124380 0.500000
O O12 0.804119 0.052254 0.281888
O O13 0.425832 0.500000 0.151091
O O14 0.889243 0.000000 0.500000
#
# Coordination Sequence:
#
# PCOD9493244 Si02
#       7
#     8  16   8   8  16   2   8
#     4   8  18  39  61  88 120 150 190 257 305 341
#     4   9  18  35  61  87 117 152 194 237 295 359
#     4   8  15  29  53  88 116 141 183 244 286 330
#     4  11  23  39  62  85 111 152 208 250 296 355
#     4  11  24  41  57  84 124 159 192 247 305 352
#     4  12  22  36  68  82 108 166 226 232 308 354
#     4  10  25  41  57  87 130 160 197 257 306 365
#
# _framework density 20.467502
#
# number of rings (size 3 to 8) (size 9 to 14) (size 15 to 20)
#    0.000    2.303    0.000    3.455    6.788    2.909 
#    0.000    9.697    0.000    0.727    0.000    0.000 
#    0.000    0.000    0.000    0.000    0.000    0.000 
#
# Total GULP energy -183738.763851 kJ/mol
# GULP energy per Si atom -5567.841329 kJ/mol
# Density = 2.042092 g / cm^3
# Si number density = 20.467502 Si / 1000 Ang^3
#
#
#
# Elastic Constant Matrix: (Units=GPa)
#
#
# Indices 1 2 3 4 5 6 
#
# 1 104.5979 34.9929 -15.1026 0.0000 0.0000 0.0000
# 2 34.9929 125.7613 -5.0921 0.0000 0.0000 0.0000
# 3 -15.1026 -5.0921 34.1999 0.0000 0.0000 0.0000
# 4 0.0000 0.0000 0.0000 8.2572 0.0000 0.0000
# 5 0.0000 0.0000 0.0000 0.0000 -192.7531 0.0000
# 6 0.0000 0.0000 0.0000 0.0000 0.0000 7.7206
#
#
#
# Elastic Compliance Matrix: (Units=1/GPa)
#
#
# Indices 1 2 3 4 5 6 
#
# 1 0.011192 -0.002932 0.004506 0.000000 0.000000 0.000000
# 2 -0.002932 0.008768 0.000011 0.000000 0.000000 0.000000
# 3 0.004506 0.000011 0.031231 0.000000 0.000000 0.000000
# 4 0.000000 0.000000 0.000000 0.121106 0.000000 0.000000
# 5 0.000000 0.000000 0.000000 0.000000 -0.005188 0.000000
# 6 0.000000 0.000000 0.000000 0.000000 0.000000 0.129523
#
#
# Mechanical properties :
#
#
# Convention : Reuss Voigt Hill
#
# Bulk Modulus (GPa) = 18.39569 32.68394 25.53981
# Shear Modulus (GPa) = 16.04713 -18.70432 -1.32860
#
# Velocity S-wave (km/s) = 2.80309 -3.02628 -0.80656
# Velocity P-wave (km/s) = 4.41403 1.94735 3.41144
#
# Compressibility (1/GPa) = 0.05436057
#
# Stress axis : x y z
#
# Youngs Moduli (GPa) = 89.35140 114.05452 32.01930
#
# Poissons Ratio (x) = 0.33437 -0.14427
# Poissons Ratio (y) = 0.26195 -0.00035
# Poissons Ratio (z) = -0.40260 -0.00124
#
# Static dielectric constant tensor:
#      x y z
#    x 1.605370 0.000000 0.000000 
#    y 0.000000 1.744450 0.000000 
#    z 0.000000 0.000000 1.743150 
# 
# From -- ./inp_files/7178.got.cif
#   From: 2010.05.17/outbox.cif.g08.bks.cpg/sg65_4_cif.got.tgz:7178.got - 2010.06.03 17:01:31.
