data_PCOD9493185
_publ_section_title
;
Structure prediction by ZEFSAII (Michael W. Deem and Ramdas Pophale) SiO2 
 PCOD9493185
Probable space group: C M M M
;
_chemical_formula_sum "Si O2"
_cell_formula_units_Z 96
_cell_length_a 14.839134
_cell_length_b 14.440549
_cell_length_c 22.844628
_cell_angle_alpha 90.000000
_cell_angle_beta 90.000000
_cell_angle_gamma 90.000000
_cell_volume 4895.266631
_symmetry_space_group_name_H-M "C M M M"
_symmetry_group_IT_number 65
_symmetry_cell_setting 'orthorhombic'
loop_
_space_group_symop_operation_xyz
x,y,z
-x,-y,z
x,-y,-z
-x,y,-z
-x,-y,-z
x,y,-z
-x,y,z
x,-y,z
1/2+x,1/2+y,z
1/2-x,1/2-y,z
1/2+x,1/2-y,-z
1/2-x,1/2+y,-z
1/2-x,1/2-y,-z
1/2+x,1/2+y,-z
1/2-x,1/2+y,z
1/2+x,1/2-y,z
loop_
_atom_site_type_symbol
_atom_site_label
_atom_site_fract_x
_atom_site_fract_y
_atom_site_fract_z
Si Si1 0.733293 0.607486 0.570253
Si Si2 0.352008 0.764234 0.740814
Si Si3 0.397953 0.232277 0.610740
Si Si4 0.107510 0.102663 0.830490
Si Si5 0.390826 0.105361 0.152378
Si Si6 0.389857 0.267470 0.066625
O O1 0.725765 0.611493 0.500000
O O2 0.728357 0.500000 0.588855
O O3 0.653301 0.671174 0.596244
O O4 0.828897 0.653955 0.587576
O O5 0.250000 0.750000 0.722073
O O6 0.403684 0.777934 0.680856
O O7 0.378125 0.673139 0.777416
O O8 0.359512 0.847511 0.787280
O O9 0.500000 0.228573 0.586726
O O10 0.141563 0.151206 0.889886
O O11 0.000000 0.095683 0.837346
O O12 0.144257 0.000000 0.820883
O O13 0.500000 0.106669 0.154141
O O14 0.363916 0.172196 0.098942
O O15 0.361109 0.000000 0.145890
O O16 0.500000 0.269696 0.065742
O O17 0.359113 0.274960 0.000000
#
# Coordination Sequence:
#
# PCOD9493185 Si02
#       6
#    16  16  16  16  16  16
#     4  10  23  43  64  93 131 164 201 249 296 348
#     4  11  21  36  54  77 111 145 184 235 288 342
#     4  11  22  40  65  92 123 163 207 250 299 354
#     4   9  18  32  50  74 104 138 178 226 283 345
#     4   9  18  32  50  74 104 138 178 226 283 345
#     4   8  14  26  46  73 103 133 171 224 283 342
#
# _framework density 19.610779999999998
#
# number of rings (size 3 to 8) (size 9 to 14) (size 15 to 20)
#    0.000    2.333    1.667    3.500    0.000    4.667 
#    0.000    5.000    0.000    8.000    0.000    9.333 
#    0.000    0.000    0.000    0.000    0.000    0.000 
#
# Total GULP energy -267836.220324 kJ/mol
# GULP energy per Si atom -5579.921257 kJ/mol
# Density = 1.956614 g / cm^3
# Si number density = 19.610780 Si / 1000 Ang^3
#
#
#
# Elastic Constant Matrix: (Units=GPa)
#
#
# Indices 1 2 3 4 5 6 
#
# 1 69.3656 -29.7671 -27.3431 0.0000 0.0000 0.0000
# 2 -29.7671 78.3031 -10.0289 0.0000 0.0000 0.0000
# 3 -27.3431 -10.0289 67.5243 0.0000 0.0000 0.0000
# 4 0.0000 0.0000 0.0000 0.6233 0.0000 0.0000
# 5 0.0000 0.0000 0.0000 0.0000 21.1110 0.0000
# 6 0.0000 0.0000 0.0000 0.0000 0.0000 33.1176
#
#
#
# Elastic Compliance Matrix: (Units=1/GPa)
#
#
# Indices 1 2 3 4 5 6 
#
# 1 0.023044 0.010148 0.010839 0.000000 0.000000 0.000000
# 2 0.010148 0.017488 0.006707 0.000000 0.000000 0.000000
# 3 0.010839 0.006707 0.020195 0.000000 0.000000 0.000000
# 4 0.000000 0.000000 0.000000 1.604387 0.000000 0.000000
# 5 0.000000 0.000000 0.000000 0.000000 0.047369 0.000000
# 6 0.000000 0.000000 0.000000 0.000000 0.000000 0.030195
#
#
# Mechanical properties :
#
#
# Convention : Reuss Voigt Hill
#
# Bulk Modulus (GPa) = 8.61227 8.99053 8.80140
# Shear Modulus (GPa) = 2.89688 29.79251 16.34470
#
# Velocity S-wave (km/s) = 1.21671 3.90191 2.89009
# Velocity P-wave (km/s) = 2.52488 4.98942 3.95407
#
# Compressibility (1/GPa) = 0.11611337
#
# Stress axis : x y z
#
# Youngs Moduli (GPa) = 43.39567 57.18275 49.51836
#
# Poissons Ratio (x) = -0.58031 -0.53671
# Poissons Ratio (y) = -0.44039 -0.33211
# Poissons Ratio (z) = -0.47035 -0.38351
#
# Static dielectric constant tensor:
#      x y z
#    x 1.735850 0.000000 0.000000 
#    y 0.000000 0.983750 0.000000 
#    z 0.000000 0.000000 1.668880 
# 
# From -- ./inp_files/62583.got.cif
#   From: 2010.05.17/outbox.cif.g08.bks.cpg/sg65_32_cif.got.tgz:62583.got - 2010.06.03 17:01:31.
