data_PCOD9493964
_publ_section_title
;
Structure prediction by ZEFSAII (Michael W. Deem and Ramdas Pophale) SiO2 
 PCOD9493964
Probable space group: C M M M
;
_chemical_formula_sum "Si O2"
_cell_formula_units_Z 72
_cell_length_a 24.689224
_cell_length_b 17.126601
_cell_length_c 8.938923
_cell_angle_alpha 90.000000
_cell_angle_beta 90.000000
_cell_angle_gamma 90.000000
_cell_volume 3779.756445
_symmetry_space_group_name_H-M "C M M M"
_symmetry_group_IT_number 65
_symmetry_cell_setting 'orthorhombic'
loop_
_space_group_symop_operation_xyz
x,y,z
-x,-y,z
x,-y,-z
-x,y,-z
-x,-y,-z
x,y,-z
-x,y,z
x,-y,z
1/2+x,1/2+y,z
1/2-x,1/2-y,z
1/2+x,1/2-y,-z
1/2-x,1/2+y,-z
1/2-x,1/2-y,-z
1/2+x,1/2+y,-z
1/2-x,1/2+y,z
1/2+x,1/2-y,z
loop_
_atom_site_type_symbol
_atom_site_label
_atom_site_fract_x
_atom_site_fract_y
_atom_site_fract_z
Si Si1 0.436056 0.408217 0.325478
Si Si2 0.563817 0.000000 0.679492
Si Si3 0.347374 0.694332 0.823433
Si Si4 0.241892 0.087274 0.322390
Si Si5 0.856621 0.623520 0.820732
O O1 0.421552 0.393950 0.500000
O O2 0.500000 0.393150 0.308599
O O3 0.427078 0.500000 0.296345
O O4 0.399916 0.355216 0.220733
O O5 0.594923 0.925128 0.746722
O O6 0.500000 0.000000 0.716277
O O7 0.569504 0.000000 0.500000
O O8 0.297511 0.654036 0.738351
O O9 0.357195 0.784512 0.783906
O O10 0.336406 0.690252 0.000000
O O11 0.249265 0.095712 0.500000
O O12 0.299621 0.092489 0.241791
O O13 0.218623 0.000000 0.294771
O O14 0.858766 0.614254 0.000000
#
# Coordination Sequence:
#
# PCOD9493964 Si02
#       5
#    16   8  16  16  16
#     4   9  19  37  59  83 115 156 201 248 299 356
#     4  11  25  45  69  95 121 157 208 259 310 371
#     4  11  24  38  57  90 125 159 202 248 302 368
#     4  11  23  39  62  91 123 160 204 251 302 362
#     4  11  24  42  63  88 122 160 199 250 308 365
#
# _framework density 19.048846000000001
#
# number of rings (size 3 to 8) (size 9 to 14) (size 15 to 20)
#    0.000    1.444    1.111    4.333    0.000   12.889 
#    0.000    5.556    0.000    0.000    0.000    0.000 
#    0.000    0.000    0.000    0.000    0.000    0.000 
#
# Total GULP energy -201277.501290 kJ/mol
# GULP energy per Si atom -5591.041702 kJ/mol
# Density = 1.900549 g / cm^3
# Si number density = 19.048846 Si / 1000 Ang^3
#
#
#
# Elastic Constant Matrix: (Units=GPa)
#
#
# Indices 1 2 3 4 5 6 
#
# 1 109.8895 75.2254 54.7818 0.0000 0.0000 0.0000
# 2 75.2254 124.5658 70.0353 0.0000 0.0000 0.0000
# 3 54.7818 70.0353 71.3667 0.0000 0.0000 0.0000
# 4 0.0000 0.0000 0.0000 34.1367 0.0000 0.0000
# 5 0.0000 0.0000 0.0000 0.0000 53.1667 0.0000
# 6 0.0000 0.0000 0.0000 0.0000 0.0000 -106.3522
#
#
#
# Elastic Compliance Matrix: (Units=1/GPa)
#
#
# Indices 1 2 3 4 5 6 
#
# 1 0.016782 -0.006452 -0.006551 0.000000 0.000000 0.000000
# 2 -0.006452 0.020390 -0.015057 0.000000 0.000000 0.000000
# 3 -0.006551 -0.015057 0.033817 0.000000 0.000000 0.000000
# 4 0.000000 0.000000 0.000000 0.029294 0.000000 0.000000
# 5 0.000000 0.000000 0.000000 0.000000 0.018809 0.000000
# 6 0.000000 0.000000 0.000000 0.000000 0.000000 -0.009403
#
#
# Mechanical properties :
#
#
# Convention : Reuss Voigt Hill
#
# Bulk Modulus (GPa) = 67.25119 78.43411 72.84265
# Shear Modulus (GPa) = 29.28020 3.24221 16.26121
#
# Velocity S-wave (km/s) = 3.92485 1.30604 2.92491
# Velocity P-wave (km/s) = 7.47800 6.59841 7.05193
#
# Compressibility (1/GPa) = 0.01486963
#
# Stress axis : x y z
#
# Youngs Moduli (GPa) = 59.58637 49.04480 29.57131
#
# Poissons Ratio (x) = 0.31642 0.19372
# Poissons Ratio (y) = 0.38443 0.44525
# Poissons Ratio (z) = 0.39035 0.73845
#
# Static dielectric constant tensor:
#      x y z
#    x 1.636560 0.000000 0.000000 
#    y 0.000000 1.661700 0.000000 
#    z 0.000000 0.000000 1.639810 
# 
# From -- ./inp_files/13606.got.cif
#   From: 2010.05.17/outbox.cif.g08.bks.cpg/sg65_7_cif.got.tgz:13606.got - 2010.06.03 17:01:31.
