data_PCOD9493637
_publ_section_title
;
Structure prediction by ZEFSAII (Michael W. Deem and Ramdas Pophale) SiO2 
 PCOD9493637
Probable space group: C M M M
;
_chemical_formula_sum "Si O2"
_cell_formula_units_Z 88
_cell_length_a 16.263112
_cell_length_b 14.133056
_cell_length_c 21.936479
_cell_angle_alpha 90.000000
_cell_angle_beta 90.000000
_cell_angle_gamma 90.000000
_cell_volume 5042.044257
_symmetry_space_group_name_H-M "C M M M"
_symmetry_group_IT_number 65
_symmetry_cell_setting 'orthorhombic'
loop_
_space_group_symop_operation_xyz
x,y,z
-x,-y,z
x,-y,-z
-x,y,-z
-x,-y,-z
x,y,-z
-x,y,z
x,-y,z
1/2+x,1/2+y,z
1/2-x,1/2-y,z
1/2+x,1/2-y,-z
1/2-x,1/2+y,-z
1/2-x,1/2-y,-z
1/2+x,1/2+y,-z
1/2-x,1/2+y,z
1/2+x,1/2-y,z
loop_
_atom_site_type_symbol
_atom_site_label
_atom_site_fract_x
_atom_site_fract_y
_atom_site_fract_z
Si Si1 0.400434 0.891394 0.738132
Si Si2 0.600116 0.389776 0.931763
Si Si3 0.100262 0.212014 0.189212
Si Si4 0.597834 0.395003 0.310293
Si Si5 0.843453 0.281529 0.379958
Si Si6 0.598459 0.109490 0.500000
O O1 0.500000 0.885165 0.729315
O O2 0.378239 0.818941 0.792146
O O3 0.359013 0.851655 0.676928
O O4 0.379394 0.000000 0.749656
O O5 0.500000 0.386227 0.931814
O O6 0.621803 0.500000 0.921638
O O7 0.629441 0.325984 0.875728
O O8 0.627076 0.362020 0.000000
O O9 0.129305 0.146667 0.245760
O O10 0.000000 0.207063 0.188499
O O11 0.500000 0.402742 0.303183
O O12 0.631198 0.500000 0.323076
O O13 0.611882 0.316272 0.361627
O O14 0.750000 0.250000 0.385809
O O15 0.873100 0.334018 0.440300
O O16 0.500000 0.106698 0.500000
O O17 0.628081 0.000000 0.500000
#
# Coordination Sequence:
#
# PCOD9493637 Si02
#       6
#    16  16  16  16  16   8
#     4   9  17  31  51  71  92 123 164 203 235 275
#     4   8  12  17  28  51  85 123 159 195 238 286
#     4   8  13  22  38  60  86 118 158 199 235 276
#     4   9  17  30  48  68  92 124 157 187 227 284
#     4  11  22  35  51  75 102 123 148 190 241 282
#     4  11  23  40  61  77  93 125 166 199 224 262
#
# _framework density 17.453237999999999
#
# number of rings (size 3 to 8) (size 9 to 14) (size 15 to 20)
#    0.000    2.818    0.000    4.636    0.000    5.091 
#    0.000    0.455    0.000    2.182    0.000    3.818 
#    0.000   11.636    0.000   14.545    0.000   14.545 
#
# Total GULP energy -245120.294216 kJ/mol
# GULP energy per Si atom -5570.915778 kJ/mol
# Density = 1.741351 g / cm^3
# Si number density = 17.453238 Si / 1000 Ang^3
#
#
#
# Elastic Constant Matrix: (Units=GPa)
#
#
# Indices 1 2 3 4 5 6 
#
# 1 20.2400 23.1914 16.9467 0.0000 0.0000 0.0000
# 2 23.1914 176.9950 105.7004 0.0000 0.0000 0.0000
# 3 16.9467 105.7004 161.4057 0.0000 0.0000 0.0000
# 4 0.0000 0.0000 0.0000 27.6783 0.0000 0.0000
# 5 0.0000 0.0000 0.0000 0.0000 -1.0319 0.0000
# 6 0.0000 0.0000 0.0000 0.0000 0.0000 1.5564
#
#
#
# Elastic Compliance Matrix: (Units=1/GPa)
#
#
# Indices 1 2 3 4 5 6 
#
# 1 0.058467 -0.006561 -0.001842 0.000000 0.000000 0.000000
# 2 -0.006561 0.010015 -0.005870 0.000000 0.000000 0.000000
# 3 -0.001842 -0.005870 0.010233 0.000000 0.000000 0.000000
# 4 0.000000 0.000000 0.000000 0.036129 0.000000 0.000000
# 5 0.000000 0.000000 0.000000 0.000000 -0.969095 0.000000
# 6 0.000000 0.000000 0.000000 0.000000 0.000000 0.642503
#
#
# Mechanical properties :
#
#
# Convention : Reuss Voigt Hill
#
# Bulk Modulus (GPa) = 19.93242 72.25751 46.09497
# Shear Modulus (GPa) = -30.03375 19.82737 -5.10319
#
# Velocity S-wave (km/s) = -4.15277 3.37416 -1.71180
# Velocity P-wave (km/s) = 3.39834 7.52798 4.74983
#
# Compressibility (1/GPa) = 0.05016952
#
# Stress axis : x y z
#
# Youngs Moduli (GPa) = 17.10367 99.85214 97.72448
#
# Poissons Ratio (x) = 0.65509 0.18004
# Poissons Ratio (y) = 0.11221 0.57360
# Poissons Ratio (z) = 0.03151 0.58609
#
# Static dielectric constant tensor:
#      x y z
#    x 1.183050 0.000000 0.000000 
#    y 0.000000 1.714770 0.000000 
#    z 0.000000 0.000000 1.585010 
# 
# From -- ./inp_files/63742.got.cif
#   From: 2010.05.17/outbox.cif.g08.bks.cpg/sg65_32_cif.got.tgz:63742.got - 2010.06.03 17:01:31.
