data_PCOD9493249
_publ_section_title
;
Structure prediction by ZEFSAII (Michael W. Deem and Ramdas Pophale) SiO2 
 PCOD9493249
Probable space group: C M M M
;
_chemical_formula_sum "Si O2"
_cell_formula_units_Z 66
_cell_length_a 14.445455
_cell_length_b 26.189441
_cell_length_c 10.346974
_cell_angle_alpha 90.000000
_cell_angle_beta 90.000000
_cell_angle_gamma 90.000000
_cell_volume 3914.450560
_symmetry_space_group_name_H-M "C M M M"
_symmetry_group_IT_number 65
_symmetry_cell_setting 'orthorhombic'
loop_
_space_group_symop_operation_xyz
x,y,z
-x,-y,z
x,-y,-z
-x,y,-z
-x,-y,-z
x,y,-z
-x,y,z
x,-y,z
1/2+x,1/2+y,z
1/2-x,1/2-y,z
1/2+x,1/2-y,-z
1/2-x,1/2+y,-z
1/2-x,1/2-y,-z
1/2+x,1/2+y,-z
1/2-x,1/2+y,z
1/2+x,1/2-y,z
loop_
_atom_site_type_symbol
_atom_site_label
_atom_site_fract_x
_atom_site_fract_y
_atom_site_fract_z
Si Si1 0.109264 0.061418 0.500000
Si Si2 0.713115 0.616450 0.736315
Si Si3 0.605062 0.830239 0.655661
Si Si4 0.809670 0.056430 0.000000
Si Si5 0.000000 0.000000 0.000000
Si Si6 0.388734 0.713835 0.349094
O O1 0.161084 0.083412 0.625847
O O2 0.000000 0.076627 0.500000
O O3 0.112599 0.000000 0.500000
O O4 0.818218 0.630177 0.700022
O O5 0.711379 0.587467 0.871142
O O6 0.659055 0.670419 0.734623
O O7 0.603120 0.830388 0.500000
O O8 0.500000 0.840126 0.701014
O O9 0.632111 0.771947 0.691067
O O10 0.763372 0.000000 0.000000
O O11 0.918436 0.043393 0.000000
O O12 0.359093 0.706760 0.500000
O O13 0.500000 0.708499 0.346481
#
# Coordination Sequence:
#
# PCOD9493249 Si02
#       6
#     8  16  16   8   2  16
#     4  11  24  34  54  85 111 129 178 246 290 321
#     4  12  20  36  58  82 109 152 190 225 273 341
#     4   9  18  34  56  86 119 148 180 226 281 329
#     4  10  26  40  58  75 113 151 188 221 290 341
#     4   8  24  48  56  74 110 164 176 230 280 364
#     4   9  17  29  52  87 120 145 178 223 277 337
#
# _framework density 16.860603999999999
#
# number of rings (size 3 to 8) (size 9 to 14) (size 15 to 20)
#    0.364    1.576    2.424    3.636    3.394    1.939 
#    0.000    3.030    0.000    7.273    0.000    0.000 
#    0.000    0.000    0.000    0.000    0.000    0.000 
#
# Total GULP energy -183785.353271 kJ/mol
# GULP energy per Si atom -5569.253129 kJ/mol
# Density = 1.682223 g / cm^3
# Si number density = 16.860604 Si / 1000 Ang^3
#
#
#
# Elastic Constant Matrix: (Units=GPa)
#
#
# Indices 1 2 3 4 5 6 
#
# 1 97.1747 75.6415 45.6860 0.0000 0.0000 0.0000
# 2 75.6415 110.4171 67.8515 0.0000 0.0000 0.0000
# 3 45.6860 67.8515 103.5863 0.0000 0.0000 0.0000
# 4 0.0000 0.0000 0.0000 66.8793 0.0000 0.0000
# 5 0.0000 0.0000 0.0000 0.0000 -4.3178 0.0000
# 6 0.0000 0.0000 0.0000 0.0000 0.0000 30.4798
#
#
#
# Elastic Compliance Matrix: (Units=1/GPa)
#
#
# Indices 1 2 3 4 5 6 
#
# 1 0.022053 -0.015281 0.000284 0.000000 0.000000 0.000000
# 2 -0.015281 0.025747 -0.010125 0.000000 0.000000 0.000000
# 3 0.000284 -0.010125 0.016161 0.000000 0.000000 0.000000
# 4 0.000000 0.000000 0.000000 0.014952 0.000000 0.000000
# 5 0.000000 0.000000 0.000000 0.000000 -0.231597 0.000000
# 6 0.000000 0.000000 0.000000 0.000000 0.000000 0.032809
#
#
# Mechanical properties :
#
#
# Convention : Reuss Voigt Hill
#
# Bulk Modulus (GPa) = 72.91535 76.61512 74.76524
# Shear Modulus (GPa) = -76.85481 26.74154 -25.05664
#
# Velocity S-wave (km/s) = -6.75880 3.98683 -3.85919
# Velocity P-wave (km/s) = 4.19150 8.16897 4.95799
#
# Compressibility (1/GPa) = 0.01371453
#
# Stress axis : x y z
#
# Youngs Moduli (GPa) = 45.34603 38.83931 61.87751
#
# Poissons Ratio (x) = 0.59352 -0.01755
# Poissons Ratio (y) = 0.69295 0.62652
# Poissons Ratio (z) = -0.01286 0.39325
#
# Static dielectric constant tensor:
#      x y z
#    x 1.579130 0.000000 0.000000 
#    y 0.000000 1.581480 0.000000 
#    z 0.000000 0.000000 1.552950 
# 
# From -- ./inp_files/7134.got.cif
#   From: 2010.05.17/outbox.cif.g08.bks.cpg/sg65_4_cif.got.tgz:7134.got - 2010.06.03 17:01:31.
