data_PCOD9493702
_publ_section_title
;
Structure prediction by ZEFSAII (Michael W. Deem and Ramdas Pophale) SiO2 
 PCOD9493702
Probable space group: C M M M
;
_chemical_formula_sum "Si O2"
_cell_formula_units_Z 88
_cell_length_a 13.427625
_cell_length_b 18.029227
_cell_length_c 18.181527
_cell_angle_alpha 90.000000
_cell_angle_beta 90.000000
_cell_angle_gamma 90.000000
_cell_volume 4401.560402
_symmetry_space_group_name_H-M "C M M M"
_symmetry_group_IT_number 65
_symmetry_cell_setting 'orthorhombic'
loop_
_space_group_symop_operation_xyz
x,y,z
-x,-y,z
x,-y,-z
-x,y,-z
-x,-y,-z
x,y,-z
-x,y,z
x,-y,z
1/2+x,1/2+y,z
1/2-x,1/2-y,z
1/2+x,1/2-y,-z
1/2-x,1/2+y,-z
1/2-x,1/2-y,-z
1/2+x,1/2+y,-z
1/2-x,1/2+y,z
1/2+x,1/2-y,z
loop_
_atom_site_type_symbol
_atom_site_label
_atom_site_fract_x
_atom_site_fract_y
_atom_site_fract_z
Si Si1 0.380219 0.379747 0.745992
Si Si2 0.617457 0.390211 0.580839
Si Si3 0.204138 0.415293 0.843265
Si Si4 0.380789 0.205074 0.734097
Si Si5 0.884284 0.410821 0.000000
Si Si6 0.382822 0.210981 0.577172
O O1 0.500000 0.388294 0.752945
O O2 0.350562 0.410402 0.664390
O O3 0.317290 0.413563 0.812876
O O4 0.355880 0.291132 0.748691
O O5 0.656604 0.415518 0.500000
O O6 0.500000 0.408729 0.579885
O O7 0.622834 0.300183 0.579974
O O8 0.167234 0.500000 0.833529
O O9 0.150617 0.355048 0.792582
O O10 0.178001 0.392357 0.926658
O O11 0.500000 0.205018 0.729154
O O12 0.340552 0.182884 0.653382
O O13 0.891990 0.500000 0.000000
O O14 0.000000 0.382734 0.000000
O O15 0.338143 0.185434 0.500000
O O16 0.500000 0.192547 0.575349
#
# Coordination Sequence:
#
# PCOD9493702 Si02
#       6
#    16  16  16  16   8  16
#     4   9  18  33  53  79 112 144 174 214 261 307
#     4   7  10  20  42  70  98 134 181 222 248 276
#     4  11  22  36  56  79 102 132 171 214 261 315
#     4   9  17  31  53  79 106 136 172 217 265 307
#     4   9  20  40  62  81 101 129 171 218 258 308
#     4   7  10  19  39  68  99 131 169 211 252 295
#
# _framework density 19.992909999999998
#
# number of rings (size 3 to 8) (size 9 to 14) (size 15 to 20)
#    0.000    3.364    0.000    4.364    0.000    1.455 
#    0.000    3.182    0.000   10.364    0.000    5.091 
#    0.000    0.000    0.000    0.000    0.000    0.000 
#
# Total GULP energy -244953.562086 kJ/mol
# GULP energy per Si atom -5567.126411 kJ/mol
# Density = 1.994741 g / cm^3
# Si number density = 19.992910 Si / 1000 Ang^3
#
#
#
# Elastic Constant Matrix: (Units=GPa)
#
#
# Indices 1 2 3 4 5 6 
#
# 1 80.0209 15.5880 46.1096 0.0000 0.0000 0.0000
# 2 15.5880 72.0485 53.5805 0.0000 0.0000 0.0000
# 3 46.1096 53.5805 212.0877 0.0000 0.0000 0.0000
# 4 0.0000 0.0000 0.0000 33.2261 0.0000 0.0000
# 5 0.0000 0.0000 0.0000 0.0000 151.6408 0.0000
# 6 0.0000 0.0000 0.0000 0.0000 0.0000 12.0354
#
#
#
# Elastic Compliance Matrix: (Units=1/GPa)
#
#
# Indices 1 2 3 4 5 6 
#
# 1 0.014341 -0.000965 -0.002874 0.000000 0.000000 0.000000
# 2 -0.000965 0.017155 -0.004124 0.000000 0.000000 0.000000
# 3 -0.002874 -0.004124 0.006382 0.000000 0.000000 0.000000
# 4 0.000000 0.000000 0.000000 0.030097 0.000000 0.000000
# 5 0.000000 0.000000 0.000000 0.000000 0.006595 0.000000
# 6 0.000000 0.000000 0.000000 0.000000 0.000000 0.083088
#
#
# Mechanical properties :
#
#
# Convention : Reuss Voigt Hill
#
# Bulk Modulus (GPa) = 45.55608 66.07926 55.81767
# Shear Modulus (GPa) = 27.63937 55.97241 41.80589
#
# Velocity S-wave (km/s) = 3.72218 5.29688 4.57775
# Velocity P-wave (km/s) = 6.42716 8.39835 7.47799
#
# Compressibility (1/GPa) = 0.02195097
#
# Stress axis : x y z
#
# Youngs Moduli (GPa) = 69.73111 58.29061 156.69713
#
# Poissons Ratio (x) = 0.05628 0.45033
# Poissons Ratio (y) = 0.06732 0.64624
# Poissons Ratio (z) = 0.20040 0.24040
#
# Static dielectric constant tensor:
#      x y z
#    x 1.790140 0.000000 0.000000 
#    y 0.000000 1.700610 0.000000 
#    z 0.000000 0.000000 1.740970 
# 
# From -- ./inp_files/53059.got.cif
#   From: 2010.05.17/outbox.cif.g08.bks.cpg/sg65_27_cif.got.tgz:53059.got - 2010.06.03 17:01:31.
