data_PCOD9493593
_publ_section_title
;
Structure prediction by ZEFSAII (Michael W. Deem and Ramdas Pophale) SiO2 
 PCOD9493593
Probable space group: C M M M
;
_chemical_formula_sum "Si O2"
_cell_formula_units_Z 72
_cell_length_a 18.870416
_cell_length_b 7.663278
_cell_length_c 24.857252
_cell_angle_alpha 90.000000
_cell_angle_beta 90.000000
_cell_angle_gamma 90.000000
_cell_volume 3594.588414
_symmetry_space_group_name_H-M "C M M M"
_symmetry_group_IT_number 65
_symmetry_cell_setting 'orthorhombic'
loop_
_space_group_symop_operation_xyz
x,y,z
-x,-y,z
x,-y,-z
-x,y,-z
-x,-y,-z
x,y,-z
-x,y,z
x,-y,z
1/2+x,1/2+y,z
1/2-x,1/2-y,z
1/2+x,1/2-y,-z
1/2-x,1/2+y,-z
1/2-x,1/2-y,-z
1/2+x,1/2+y,-z
1/2-x,1/2+y,z
1/2+x,1/2-y,z
loop_
_atom_site_type_symbol
_atom_site_label
_atom_site_fract_x
_atom_site_fract_y
_atom_site_fract_z
Si Si1 0.914754 0.209598 0.942230
Si Si2 0.082675 0.786211 0.825013
Si Si3 0.086437 0.298331 0.500000
Si Si4 0.580272 0.790995 0.616143
Si Si5 0.332394 0.706502 0.278182
O O1 0.889969 0.273635 0.883835
O O2 0.000000 0.236028 0.941748
O O3 0.903831 0.000000 0.942922
O O4 0.887999 0.278471 0.000000
O O5 0.127704 0.721535 0.774538
O O6 0.000000 0.737237 0.818869
O O7 0.084047 0.000000 0.825911
O O8 0.110987 0.500000 0.500000
O O9 0.106312 0.220757 0.558035
O O10 0.000000 0.299181 0.500000
O O11 0.500000 0.725948 0.626607
O O12 0.630032 0.759245 0.666536
O O13 0.575306 0.000000 0.609572
O O14 0.339550 0.500000 0.274864
O O15 0.250000 0.750000 0.278185
#
# Coordination Sequence:
#
# PCOD9493593 Si02
#       5
#    16  16   8  16  16
#     4   7   9  15  31  57  86 111 137 176 227 278
#     4   8  14  25  42  64  88 115 149 190 235 280
#     4   7  12  26  50  77 100 121 145 179 226 277
#     4   9  17  32  55  79 100 122 151 187 229 280
#     4  11  22  34  47  65  94 130 165 200 238 277
#
# _framework density 20.030108999999999
#
# number of rings (size 3 to 8) (size 9 to 14) (size 15 to 20)
#    0.000    3.444    0.000    4.667    0.000    1.333 
#    0.000    1.111    0.000    2.667    0.000    0.000 
#    0.000    2.667    0.000   25.111    0.000   20.667 
#
# Total GULP energy -200418.774423 kJ/mol
# GULP energy per Si atom -5567.188178 kJ/mol
# Density = 1.998452 g / cm^3
# Si number density = 20.030109 Si / 1000 Ang^3
#
#
#
# Elastic Constant Matrix: (Units=GPa)
#
#
# Indices 1 2 3 4 5 6 
#
# 1 72.1293 0.4013 95.6305 0.0000 0.0000 0.0000
# 2 0.4013 36.1358 10.3118 0.0000 0.0000 0.0000
# 3 95.6305 10.3118 276.4707 0.0000 0.0000 0.0000
# 4 0.0000 0.0000 0.0000 8.6368 0.0000 0.0000
# 5 0.0000 0.0000 0.0000 0.0000 -5.1630 0.0000
# 6 0.0000 0.0000 0.0000 0.0000 0.0000 607.4915
#
#
#
# Elastic Compliance Matrix: (Units=1/GPa)
#
#
# Indices 1 2 3 4 5 6 
#
# 1 0.025793 0.002284 -0.009007 0.000000 0.000000 0.000000
# 2 0.002284 0.028173 -0.001841 0.000000 0.000000 0.000000
# 3 -0.009007 -0.001841 0.006801 0.000000 0.000000 0.000000
# 4 0.000000 0.000000 0.000000 0.115783 0.000000 0.000000
# 5 0.000000 0.000000 0.000000 0.000000 -0.193687 0.000000
# 6 0.000000 0.000000 0.000000 0.000000 0.000000 0.001646
#
#
# Mechanical properties :
#
#
# Convention : Reuss Voigt Hill
#
# Bulk Modulus (GPa) = 22.91499 66.38034 44.64767
# Shear Modulus (GPa) = 308.95784 140.75255 224.85519
#
# Velocity S-wave (km/s) = 12.43308 8.39184 10.60671
# Velocity P-wave (km/s) = 14.75039 11.27429 13.12790
#
# Compressibility (1/GPa) = 0.04363955
#
# Stress axis : x y z
#
# Youngs Moduli (GPa) = 38.77070 35.49457 147.03494
#
# Poissons Ratio (x) = -0.08106 1.32431
# Poissons Ratio (y) = -0.08854 0.27066
# Poissons Ratio (z) = 0.34920 0.06534
#
# Static dielectric constant tensor:
#      x y z
#    x 1.634570 0.000000 0.000000 
#    y 0.000000 1.761290 0.000000 
#    z 0.000000 0.000000 1.799110 
# 
# From -- ./inp_files/67207.got.cif
#   From: 2010.05.17/outbox.cif.g08.bks.cpg/sg65_34_cif.got.tgz:67207.got - 2010.06.03 17:01:31.
