data_PCOD9493946
_publ_section_title
;
Structure prediction by ZEFSAII (Michael W. Deem and Ramdas Pophale) SiO2 
 PCOD9493946
Probable space group: C M M M
;
_chemical_formula_sum "Si O2"
_cell_formula_units_Z 88
_cell_length_a 18.824807
_cell_length_b 8.069018
_cell_length_c 30.011270
_cell_angle_alpha 90.000000
_cell_angle_beta 90.000000
_cell_angle_gamma 90.000000
_cell_volume 4558.643083
_symmetry_space_group_name_H-M "C M M M"
_symmetry_group_IT_number 65
_symmetry_cell_setting 'orthorhombic'
loop_
_space_group_symop_operation_xyz
x,y,z
-x,-y,z
x,-y,-z
-x,y,-z
-x,-y,-z
x,y,-z
-x,y,z
x,-y,z
1/2+x,1/2+y,z
1/2-x,1/2-y,z
1/2+x,1/2-y,-z
1/2-x,1/2+y,-z
1/2-x,1/2-y,-z
1/2+x,1/2+y,-z
1/2-x,1/2+y,z
1/2+x,1/2-y,z
loop_
_atom_site_type_symbol
_atom_site_label
_atom_site_fract_x
_atom_site_fract_y
_atom_site_fract_z
Si Si1 0.166856 0.299846 0.047892
Si Si2 0.667722 0.799560 0.144721
Si Si3 0.418085 0.699726 0.327825
Si Si4 0.419167 0.802242 0.500000
Si Si5 0.418380 0.799949 0.769780
Si Si6 0.831657 0.802364 0.413115
O O1 0.162458 0.500000 0.047734
O O2 0.250000 0.250000 0.047934
O O3 0.139061 0.242247 0.096131
O O4 0.136979 0.240823 0.000000
O O5 0.750000 0.750000 0.147957
O O6 0.625656 0.738254 0.187858
O O7 0.663964 0.000000 0.144798
O O8 0.500000 0.759203 0.332339
O O9 0.419854 0.500000 0.329932
O O10 0.391130 0.748170 0.278832
O O11 0.369670 0.762586 0.368212
O O12 0.500000 0.735696 0.500000
O O13 0.376540 0.749397 0.543846
O O14 0.422788 0.000000 0.500000
O O15 0.500000 0.742349 0.772902
O O16 0.418460 0.000000 0.771123
O O17 0.750000 0.750000 0.416530
O O18 0.833037 0.000000 0.410986
#
# Coordination Sequence:
#
# PCOD9493946 Si02
#       6
#    16  16  16   8  16  16
#     4   8  13  22  37  57  82 112 146 186 231 279
#     4   9  17  28  43  65  91 118 152 194 239 287
#     4   9  19  36  56  76  98 129 170 210 247 292
#     4  11  24  41  62  87 113 143 180 217 252 297
#     4   9  18  32  49  68  93 127 162 197 240 291
#     4  11  23  39  59  83 113 144 174 212 258 303
#
# _framework density 19.303989000000001
#
# number of rings (size 3 to 8) (size 9 to 14) (size 15 to 20)
#    0.000    2.636    0.000    1.636    0.000    4.364 
#    0.000    5.455    0.000    0.545    0.000    3.818 
#    0.000    0.000    0.000   34.000    0.000   18.545 
#
# Total GULP energy -245250.446538 kJ/mol
# GULP energy per Si atom -5573.873785 kJ/mol
# Density = 1.926005 g / cm^3
# Si number density = 19.303989 Si / 1000 Ang^3
#
#
#
# Elastic Constant Matrix: (Units=GPa)
#
#
# Indices 1 2 3 4 5 6 
#
# 1 86.9733 9.1695 99.4536 0.0000 0.0000 0.0000
# 2 9.1695 18.8662 15.0683 0.0000 0.0000 0.0000
# 3 99.4536 15.0683 251.3644 0.0000 0.0000 0.0000
# 4 0.0000 0.0000 0.0000 20.8361 0.0000 0.0000
# 5 0.0000 0.0000 0.0000 0.0000 93.8296 0.0000
# 6 0.0000 0.0000 0.0000 0.0000 0.0000 11.9781
#
#
#
# Elastic Compliance Matrix: (Units=1/GPa)
#
#
# Indices 1 2 3 4 5 6 
#
# 1 0.021253 -0.003795 -0.008182 0.000000 0.000000 0.000000
# 2 -0.003795 0.056348 -0.001876 0.000000 0.000000 0.000000
# 3 -0.008182 -0.001876 0.007328 0.000000 0.000000 0.000000
# 4 0.000000 0.000000 0.000000 0.047994 0.000000 0.000000
# 5 0.000000 0.000000 0.000000 0.000000 0.010658 0.000000
# 6 0.000000 0.000000 0.000000 0.000000 0.000000 0.083486
#
#
# Mechanical properties :
#
#
# Convention : Reuss Voigt Hill
#
# Bulk Modulus (GPa) = 17.47541 67.17630 42.32586
# Shear Modulus (GPa) = 18.25841 40.89628 29.57735
#
# Velocity S-wave (km/s) = 3.07878 4.60775 3.91856
# Velocity P-wave (km/s) = 4.65950 7.94879 6.51514
#
# Compressibility (1/GPa) = 0.05722326
#
# Stress axis : x y z
#
# Youngs Moduli (GPa) = 47.05126 17.74686 136.46635
#
# Poissons Ratio (x) = 0.06735 1.11650
# Poissons Ratio (y) = 0.17857 0.25604
# Poissons Ratio (z) = 0.38495 0.03330
#
# Static dielectric constant tensor:
#      x y z
#    x 1.666160 0.000000 0.000000 
#    y 0.000000 1.690350 0.000000 
#    z 0.000000 0.000000 1.721570 
# 
# From -- ./inp_files/77856.got.cif
#   From: 2010.05.17/outbox.cif.g08.bks.cpg/sg65_39_cif.got.tgz:77856.got - 2010.06.03 17:01:31.
