data_PCOD9493781
_publ_section_title
;
Structure prediction by ZEFSAII (Michael W. Deem and Ramdas Pophale) SiO2 
 PCOD9493781
Probable space group: C M M M
;
_chemical_formula_sum "Si O2"
_cell_formula_units_Z 56
_cell_length_a 15.600986
_cell_length_b 20.381876
_cell_length_c 8.712412
_cell_angle_alpha 90.000000
_cell_angle_beta 90.000000
_cell_angle_gamma 90.000000
_cell_volume 2770.349786
_symmetry_space_group_name_H-M "C M M M"
_symmetry_group_IT_number 65
_symmetry_cell_setting 'orthorhombic'
loop_
_space_group_symop_operation_xyz
x,y,z
-x,-y,z
x,-y,-z
-x,y,-z
-x,-y,-z
x,y,-z
-x,y,z
x,-y,z
1/2+x,1/2+y,z
1/2-x,1/2-y,z
1/2+x,1/2-y,-z
1/2-x,1/2+y,-z
1/2-x,1/2-y,-z
1/2+x,1/2+y,-z
1/2-x,1/2+y,z
1/2+x,1/2-y,z
loop_
_atom_site_type_symbol
_atom_site_label
_atom_site_fract_x
_atom_site_fract_y
_atom_site_fract_z
Si Si1 0.398247 0.927458 0.169527
Si Si2 0.000000 0.921600 0.314840
Si Si3 0.643448 0.675980 0.183134
Si Si4 0.165852 0.307097 0.677332
O O1 0.500000 0.932792 0.159215
O O2 0.378898 0.876005 0.298951
O O3 0.362260 0.000000 0.197724
O O4 0.366880 0.905054 0.000000
O O5 0.917681 0.880624 0.251556
O O6 0.000000 0.918308 0.500000
O O7 0.000000 0.000000 0.272650
O O8 0.739125 0.678570 0.254797
O O9 0.616211 0.750028 0.230282
O O10 0.646288 0.669506 0.000000
O O11 0.169380 0.288278 0.500000
#
# Coordination Sequence:
#
# PCOD9493781 Si02
#       4
#    16   8  16  16
#     4   9  19  36  57  83 117 156 199 244 292 351
#     4  11  25  45  67  93 126 161 202 255 315 373
#     4  11  23  41  64  89 119 157 204 251 298 361
#     4  11  22  38  61  89 123 159 201 253 305 358
#
# _framework density 20.214053
#
# number of rings (size 3 to 8) (size 9 to 14) (size 15 to 20)
#    0.000    1.571    0.000    8.143    2.000    3.429 
#    0.000    1.429    0.000    0.000    0.000    0.000 
#    0.000    0.000    0.000    0.000    0.000    0.000 
#
# Total GULP energy -156103.954784 kJ/mol
# GULP energy per Si atom -5575.141242 kJ/mol
# Density = 2.016805 g / cm^3
# Si number density = 20.214053 Si / 1000 Ang^3
#
#
#
# Elastic Constant Matrix: (Units=GPa)
#
#
# Indices 1 2 3 4 5 6 
#
# 1 58.5110 44.7479 27.8307 0.0000 0.0000 0.0000
# 2 44.7479 127.0742 51.9033 0.0000 0.0000 0.0000
# 3 27.8307 51.9033 126.9827 0.0000 0.0000 0.0000
# 4 0.0000 0.0000 0.0000 33.8948 0.0000 0.0000
# 5 0.0000 0.0000 0.0000 0.0000 26.7941 0.0000
# 6 0.0000 0.0000 0.0000 0.0000 0.0000 41.3107
#
#
#
# Elastic Compliance Matrix: (Units=1/GPa)
#
#
# Indices 1 2 3 4 5 6 
#
# 1 0.023872 -0.007526 -0.002156 0.000000 0.000000 0.000000
# 2 -0.007526 0.011819 -0.003182 0.000000 0.000000 0.000000
# 3 -0.002156 -0.003182 0.009648 0.000000 0.000000 0.000000
# 4 0.000000 0.000000 0.000000 0.029503 0.000000 0.000000
# 5 0.000000 0.000000 0.000000 0.000000 0.037322 0.000000
# 6 0.000000 0.000000 0.000000 0.000000 0.000000 0.024207
#
#
# Mechanical properties :
#
#
# Convention : Reuss Voigt Hill
#
# Bulk Modulus (GPa) = 50.98764 62.39241 56.69003
# Shear Modulus (GPa) = 29.65004 32.93897 31.29450
#
# Velocity S-wave (km/s) = 3.83404 4.04110 3.93893
# Velocity P-wave (km/s) = 6.69914 7.25995 6.98517
#
# Compressibility (1/GPa) = 0.01961260
#
# Stress axis : x y z
#
# Youngs Moduli (GPa) = 41.89066 84.60971 103.64808
#
# Poissons Ratio (x) = 0.63674 0.22346
# Poissons Ratio (y) = 0.31525 0.32976
# Poissons Ratio (z) = 0.09031 0.26919
#
# Static dielectric constant tensor:
#      x y z
#    x 1.753300 0.000000 0.000000 
#    y 0.000000 1.793760 0.000000 
#    z 0.000000 0.000000 1.734490 
# 
# From -- ./inp_files/6234.got.cif
#   From: 2010.05.17/outbox.cif.g08.bks.cpg/sg65_4_cif.got.tgz:6234.got - 2010.06.03 17:01:31.
