data_PCOD9493319
_publ_section_title
;
Structure prediction by ZEFSAII (Michael W. Deem and Ramdas Pophale) SiO2 
 PCOD9493319
Probable space group: C M M M
;
_chemical_formula_sum "Si O2"
_cell_formula_units_Z 72
_cell_length_a 19.595495
_cell_length_b 28.640284
_cell_length_c 8.749814
_cell_angle_alpha 90.000000
_cell_angle_beta 90.000000
_cell_angle_gamma 90.000000
_cell_volume 4910.575355
_symmetry_space_group_name_H-M "C M M M"
_symmetry_group_IT_number 65
_symmetry_cell_setting 'orthorhombic'
loop_
_space_group_symop_operation_xyz
x,y,z
-x,-y,z
x,-y,-z
-x,y,-z
-x,-y,-z
x,y,-z
-x,y,z
x,-y,z
1/2+x,1/2+y,z
1/2-x,1/2-y,z
1/2+x,1/2-y,-z
1/2-x,1/2+y,-z
1/2-x,1/2-y,-z
1/2+x,1/2+y,-z
1/2-x,1/2+y,z
1/2+x,1/2-y,z
loop_
_atom_site_type_symbol
_atom_site_label
_atom_site_fract_x
_atom_site_fract_y
_atom_site_fract_z
Si Si1 0.280210 0.676282 0.683912
Si Si2 0.000000 0.260263 0.818469
Si Si3 0.857452 0.728469 0.683905
Si Si4 0.628442 0.398871 0.183416
Si Si5 0.579583 0.500000 0.185664
Si Si6 0.500000 0.656376 0.317446
O O1 0.284475 0.672027 0.500000
O O2 0.203959 0.693202 0.722776
O O3 0.330153 0.719616 0.727591
O O4 0.305043 0.628789 0.760622
O O5 0.070485 0.282496 0.759764
O O6 0.000000 0.208356 0.747929
O O7 0.000000 0.257884 0.000000
O O8 0.864991 0.728763 0.500000
O O9 0.618190 0.452680 0.231368
O O10 0.565677 0.370818 0.256546
O O11 0.623937 0.396603 0.000000
O O12 0.500000 0.500000 0.237397
O O13 0.577024 0.500000 0.000000
O O14 0.500000 0.658298 0.500000
#
# Coordination Sequence:
#
# PCOD9493319 Si02
#       6
#    16   8  16  16   8   8
#     4   9  18  32  48  66  90 122 154 187 227 274
#     4  12  22  30  45  71  94 117 156 196 226 265
#     4   9  18  32  48  65  91 124 152 182 229 277
#     4  11  20  32  49  66  88 121 159 197 232 268
#     4   9  18  32  46  64  94 123 152 191 236 272
#     4  12  22  31  43  62  91 124 157 193 232 273
#
# _framework density 14.662233000000001
#
# number of rings (size 3 to 8) (size 9 to 14) (size 15 to 20)
#    0.000    1.889    3.333    4.000    0.000    0.889 
#    0.000    5.000    0.000    0.000    0.000    0.000 
#    0.000    0.889    0.000   10.000    0.000    4.444 
#
# Total GULP energy -200818.420565 kJ/mol
# GULP energy per Si atom -5578.289460 kJ/mol
# Density = 1.462886 g / cm^3
# Si number density = 14.662233 Si / 1000 Ang^3
#
#
#
# Elastic Constant Matrix: (Units=GPa)
#
#
# Indices 1 2 3 4 5 6 
#
# 1 115.2266 53.9852 42.1390 0.0000 0.0000 0.0000
# 2 53.9852 94.0916 28.6572 0.0000 0.0000 0.0000
# 3 42.1390 28.6572 48.0503 0.0000 0.0000 0.0000
# 4 0.0000 0.0000 0.0000 3.5916 0.0000 0.0000
# 5 0.0000 0.0000 0.0000 0.0000 11.4837 0.0000
# 6 0.0000 0.0000 0.0000 0.0000 0.0000 21.4535
#
#
#
# Elastic Compliance Matrix: (Units=1/GPa)
#
#
# Indices 1 2 3 4 5 6 
#
# 1 0.014824 -0.005555 -0.009687 0.000000 0.000000 0.000000
# 2 -0.005555 0.015068 -0.004115 0.000000 0.000000 0.000000
# 3 -0.009687 -0.004115 0.031761 0.000000 0.000000 0.000000
# 4 0.000000 0.000000 0.000000 0.278431 0.000000 0.000000
# 5 0.000000 0.000000 0.000000 0.000000 0.087080 0.000000
# 6 0.000000 0.000000 0.000000 0.000000 0.000000 0.046613
#
#
# Mechanical properties :
#
#
# Convention : Reuss Voigt Hill
#
# Bulk Modulus (GPa) = 43.59424 56.32569 49.95996
# Shear Modulus (GPa) = 9.61284 16.14488 12.87886
#
# Velocity S-wave (km/s) = 2.56328 3.32191 2.96694
# Velocity P-wave (km/s) = 6.20946 7.29468 6.77384
#
# Compressibility (1/GPa) = 0.02293881
#
# Stress axis : x y z
#
# Youngs Moduli (GPa) = 67.45980 66.36412 31.48470
#
# Poissons Ratio (x) = 0.36863 0.30500
# Poissons Ratio (y) = 0.37472 0.12957
# Poissons Ratio (z) = 0.65350 0.27312
#
# Static dielectric constant tensor:
#      x y z
#    x 1.505480 0.000000 0.000000 
#    y 0.000000 1.478990 0.000000 
#    z 0.000000 0.000000 1.490270 
# 
# From -- ./inp_files/12044.got.cif
#   From: 2010.05.17/outbox.cif.g08.bks.cpg/sg65_7_cif.got.tgz:12044.got - 2010.06.03 17:01:31.
