data_PCOD9493278
_publ_section_title
;
Structure prediction by ZEFSAII (Michael W. Deem and Ramdas Pophale) SiO2 
 PCOD9493278
Probable space group: C M M M
;
_chemical_formula_sum "Si O2"
_cell_formula_units_Z 72
_cell_length_a 20.067053
_cell_length_b 28.817041
_cell_length_c 7.793837
_cell_angle_alpha 90.000000
_cell_angle_beta 90.000000
_cell_angle_gamma 90.000000
_cell_volume 4506.966198
_symmetry_space_group_name_H-M "C M M M"
_symmetry_group_IT_number 65
_symmetry_cell_setting 'orthorhombic'
loop_
_space_group_symop_operation_xyz
x,y,z
-x,-y,z
x,-y,-z
-x,y,-z
-x,-y,-z
x,y,-z
-x,y,z
x,-y,z
1/2+x,1/2+y,z
1/2-x,1/2-y,z
1/2+x,1/2-y,-z
1/2-x,1/2+y,-z
1/2-x,1/2-y,-z
1/2+x,1/2+y,-z
1/2-x,1/2+y,z
1/2+x,1/2-y,z
loop_
_atom_site_type_symbol
_atom_site_label
_atom_site_fract_x
_atom_site_fract_y
_atom_site_fract_z
Si Si1 0.278581 0.679982 0.704099
Si Si2 0.000000 0.261839 0.709323
Si Si3 0.853755 0.727478 0.710193
Si Si4 0.631657 0.402464 0.200546
Si Si5 0.578217 0.500000 0.211090
Si Si6 0.500000 0.653903 0.293752
O O1 0.276350 0.685863 0.500000
O O2 0.204407 0.692372 0.767291
O O3 0.328515 0.721057 0.764716
O O4 0.307829 0.629363 0.736547
O O5 0.929076 0.281954 0.768114
O O6 0.000000 0.207533 0.757702
O O7 0.000000 0.263848 0.500000
O O8 0.855311 0.727399 0.500000
O O9 0.615263 0.453446 0.272305
O O10 0.565207 0.372357 0.230038
O O11 0.642311 0.408749 0.000000
O O12 0.500000 0.500000 0.261799
O O13 0.577675 0.500000 0.000000
O O14 0.500000 0.652702 0.500000
#
# Coordination Sequence:
#
# PCOD9493278 Si02
#       6
#    16   8  16  16   8   8
#     4   9  16  28  43  61  84 111 140 173 209 244
#     4   9  14  23  42  64  81 109 147 172 193 240
#     4   8  14  24  41  62  85 111 141 171 203 245
#     4  11  20  31  45  59  81 112 146 178 211 249
#     4   9  18  32  44  56  80 113 142 171 209 254
#     4  11  19  28  44  63  84 110 143 179 210 244
#
# _framework density 15.97527
#
# number of rings (size 3 to 8) (size 9 to 14) (size 15 to 20)
#    0.000    2.556    3.333    2.333    0.000    0.000 
#    0.000    5.000    0.000    0.000    0.000    0.000 
#    0.000    0.889    0.000   11.111    0.000    0.889 
#
# Total GULP energy -200553.172993 kJ/mol
# GULP energy per Si atom -5570.921472 kJ/mol
# Density = 1.593891 g / cm^3
# Si number density = 15.975270 Si / 1000 Ang^3
#
#
#
# Elastic Constant Matrix: (Units=GPa)
#
#
# Indices 1 2 3 4 5 6 
#
# 1 153.2336 68.7220 5.2403 0.0000 0.0000 0.0000
# 2 68.7220 97.0593 0.2398 0.0000 0.0000 0.0000
# 3 5.2403 0.2398 11.5521 0.0000 0.0000 0.0000
# 4 0.0000 0.0000 0.0000 14.9976 0.0000 0.0000
# 5 0.0000 0.0000 0.0000 0.0000 -4.3983 0.0000
# 6 0.0000 0.0000 0.0000 0.0000 0.0000 26.9430
#
#
#
# Elastic Compliance Matrix: (Units=1/GPa)
#
#
# Indices 1 2 3 4 5 6 
#
# 1 0.009770 -0.006907 -0.004289 0.000000 0.000000 0.000000
# 2 -0.006907 0.015187 0.002818 0.000000 0.000000 0.000000
# 3 -0.004289 0.002818 0.088452 0.000000 0.000000 0.000000
# 4 0.000000 0.000000 0.000000 0.066678 0.000000 0.000000
# 5 0.000000 0.000000 0.000000 0.000000 -0.227361 0.000000
# 6 0.000000 0.000000 0.000000 0.000000 0.000000 0.037115
#
#
# Mechanical properties :
#
#
# Convention : Reuss Voigt Hill
#
# Bulk Modulus (GPa) = 10.34630 45.58324 27.96477
# Shear Modulus (GPa) = 128.81895 20.01798 74.41847
#
# Velocity S-wave (km/s) = 8.98952 3.54370 6.83262
# Velocity P-wave (km/s) = 10.68827 6.73345 8.93248
#
# Compressibility (1/GPa) = 0.09665291
#
# Stress axis : x y z
#
# Youngs Moduli (GPa) = 102.34981 65.84734 11.30561
#
# Poissons Ratio (x) = 0.45482 0.04849
# Poissons Ratio (y) = 0.70696 -0.03186
# Poissons Ratio (z) = 0.43896 -0.18557
#
# Static dielectric constant tensor:
#      x y z
#    x 1.555380 0.000000 0.000000 
#    y 0.000000 1.539830 0.000000 
#    z 0.000000 0.000000 1.585260 
# 
# From -- ./inp_files/12045.got.cif
#   From: 2010.05.17/outbox.cif.g08.bks.cpg/sg65_7_cif.got.tgz:12045.got - 2010.06.03 17:01:31.
