data_PCOD9493512
_publ_section_title
;
Structure prediction by ZEFSAII (Michael W. Deem and Ramdas Pophale) SiO2 
 PCOD9493512
Probable space group: C M M M
;
_chemical_formula_sum "Si O2"
_cell_formula_units_Z 48
_cell_length_a 28.356066
_cell_length_b 11.067909
_cell_length_c 7.522239
_cell_angle_alpha 90.000000
_cell_angle_beta 90.000000
_cell_angle_gamma 90.000000
_cell_volume 2360.797226
_symmetry_space_group_name_H-M "C M M M"
_symmetry_group_IT_number 65
_symmetry_cell_setting 'orthorhombic'
loop_
_space_group_symop_operation_xyz
x,y,z
-x,-y,z
x,-y,-z
-x,y,-z
-x,-y,-z
x,y,-z
-x,y,z
x,-y,z
1/2+x,1/2+y,z
1/2-x,1/2-y,z
1/2+x,1/2-y,-z
1/2-x,1/2+y,-z
1/2-x,1/2-y,-z
1/2+x,1/2+y,-z
1/2-x,1/2+y,z
1/2+x,1/2-y,z
loop_
_atom_site_type_symbol
_atom_site_label
_atom_site_fract_x
_atom_site_fract_y
_atom_site_fract_z
Si Si1 0.611961 0.267570 0.800067
Si Si2 0.946344 0.358240 0.500000
Si Si3 0.944520 0.000000 0.287333
Si Si4 0.215452 0.140443 0.783566
O O1 0.584729 0.179424 0.668798
O O2 0.578980 0.384343 0.798423
O O3 0.662856 0.315294 0.736031
O O4 0.617527 0.218999 0.000000
O O5 0.951793 0.500000 0.500000
O O6 0.000000 0.303334 0.500000
O O7 0.934655 0.000000 0.500000
O O8 0.000000 0.000000 0.262816
O O9 0.250000 0.250000 0.726037
O O10 0.224109 0.000000 0.724865
O O11 0.217646 0.136324 0.000000
#
# Coordination Sequence:
#
# PCOD9493512 Si02
#       4
#    16   8   8  16
#     4  11  22  39  64  92 123 162 209 258 313 376
#     4  11  26  45  62  87 126 166 208 261 317 380
#     4  11  21  35  61  94 127 161 200 255 317 369
#     4   9  18  34  58  90 127 165 208 261 317 376
#
# _framework density 20.332113
#
# number of rings (size 3 to 8) (size 9 to 14) (size 15 to 20)
#    0.000    1.667    3.333    1.500    0.000    5.333 
#    0.000    5.833    0.000    0.000    0.000    0.000 
#    0.000    0.000    0.000    0.000    0.000    0.000 
#
# Total GULP energy -133940.928875 kJ/mol
# GULP energy per Si atom -5580.872036 kJ/mol
# Density = 2.028584 g / cm^3
# Si number density = 20.332113 Si / 1000 Ang^3
#
#
#
# Elastic Constant Matrix: (Units=GPa)
#
#
# Indices 1 2 3 4 5 6 
#
# 1 145.5676 75.3164 45.4871 0.0000 0.0000 0.0000
# 2 75.3164 134.3120 35.6878 0.0000 0.0000 0.0000
# 3 45.4871 35.6878 74.3529 0.0000 0.0000 0.0000
# 4 0.0000 0.0000 0.0000 76.9804 0.0000 0.0000
# 5 0.0000 0.0000 0.0000 0.0000 -18.1250 0.0000
# 6 0.0000 0.0000 0.0000 0.0000 0.0000 48.4346
#
#
#
# Elastic Compliance Matrix: (Units=1/GPa)
#
#
# Indices 1 2 3 4 5 6 
#
# 1 0.010715 -0.004890 -0.004208 0.000000 0.000000 0.000000
# 2 -0.004890 0.010766 -0.002176 0.000000 0.000000 0.000000
# 3 -0.004208 -0.002176 0.017068 0.000000 0.000000 0.000000
# 4 0.000000 0.000000 0.000000 0.012990 0.000000 0.000000
# 5 0.000000 0.000000 0.000000 0.000000 -0.055172 0.000000
# 6 0.000000 0.000000 0.000000 0.000000 0.000000 0.020646
#
#
# Mechanical properties :
#
#
# Convention : Reuss Voigt Hill
#
# Bulk Modulus (GPa) = 62.49607 74.13502 68.31554
# Shear Modulus (GPa) = 111.37492 34.64076 73.00784
#
# Velocity S-wave (km/s) = 7.40923 4.13212 5.99880
# Velocity P-wave (km/s) = 10.19804 7.70111 9.03624
#
# Compressibility (1/GPa) = 0.01600101
#
# Stress axis : x y z
#
# Youngs Moduli (GPa) = 93.32928 92.88754 58.58998
#
# Poissons Ratio (x) = 0.45425 0.24653
# Poissons Ratio (y) = 0.45641 0.12746
# Poissons Ratio (z) = 0.39270 0.20208
#
# Static dielectric constant tensor:
#      x y z
#    x 1.694600 0.000000 0.000000 
#    y 0.000000 1.693180 0.000000 
#    z 0.000000 0.000000 1.825610 
# 
# From -- ./inp_files/13088.got.cif
#   From: 2010.05.17/outbox.cif.g08.bks.cpg/sg65_7_cif.got.tgz:13088.got - 2010.06.03 17:01:31.
