data_PCOD9493736
_publ_section_title
;
Structure prediction by ZEFSAII (Michael W. Deem and Ramdas Pophale) SiO2 
 PCOD9493736
Probable space group: C M M M
;
_chemical_formula_sum "Si O2"
_cell_formula_units_Z 64
_cell_length_a 35.911755
_cell_length_b 11.442680
_cell_length_c 8.842026
_cell_angle_alpha 90.000000
_cell_angle_beta 90.000000
_cell_angle_gamma 90.000000
_cell_volume 3633.424749
_symmetry_space_group_name_H-M "C M M M"
_symmetry_group_IT_number 65
_symmetry_cell_setting 'orthorhombic'
loop_
_space_group_symop_operation_xyz
x,y,z
-x,-y,z
x,-y,-z
-x,y,-z
-x,-y,-z
x,y,-z
-x,y,z
x,-y,z
1/2+x,1/2+y,z
1/2-x,1/2-y,z
1/2+x,1/2-y,-z
1/2-x,1/2+y,-z
1/2-x,1/2-y,-z
1/2+x,1/2+y,-z
1/2-x,1/2+y,z
1/2+x,1/2-y,z
loop_
_atom_site_type_symbol
_atom_site_label
_atom_site_fract_x
_atom_site_fract_y
_atom_site_fract_z
Si Si1 0.000000 0.138824 0.828026
Si Si2 0.646051 0.363812 0.321643
Si Si3 0.929439 0.740044 0.681704
Si Si4 0.226934 0.134633 0.182023
Si Si5 0.955832 0.500000 0.819364
O O1 0.036937 0.181521 0.744095
O O2 0.000000 0.000000 0.834112
O O3 0.000000 0.186948 0.000000
O O4 0.652892 0.341303 0.500000
O O5 0.635462 0.500000 0.306721
O O6 0.610901 0.288076 0.270889
O O7 0.684333 0.346446 0.232802
O O8 0.930660 0.739640 0.500000
O O9 0.937185 0.613122 0.747739
O O10 0.250000 0.250000 0.234464
O O11 0.237436 0.000000 0.233099
O O12 0.229331 0.132833 0.000000
O O13 0.000000 0.500000 0.783644
O O14 0.952027 0.500000 0.000000
#
# Coordination Sequence:
#
# PCOD9493736 Si02
#       5
#     8  16  16  16   8
#     4  11  23  36  53  80 111 141 179 227 274 327
#     4   9  19  36  57  82 111 141 177 222 271 322
#     4  11  22  37  58  80 107 142 184 229 274 327
#     4   9  18  34  56  81 111 145 182 223 270 327
#     4  11  23  39  57  77 108 146 186 228 276 332
#
# _framework density 17.614235000000001
#
# number of rings (size 3 to 8) (size 9 to 14) (size 15 to 20)
#    0.000    2.000    1.250    2.250    0.000    5.000 
#    2.250    2.500    0.000    0.000    0.000    0.000 
#    0.000    0.000    0.000    0.000    0.000    0.000 
#
# Total GULP energy -178489.320751 kJ/mol
# GULP energy per Si atom -5577.791273 kJ/mol
# Density = 1.757414 g / cm^3
# Si number density = 17.614235 Si / 1000 Ang^3
#
#
#
# Elastic Constant Matrix: (Units=GPa)
#
#
# Indices 1 2 3 4 5 6 
#
# 1 110.3147 83.4021 28.1847 0.0000 0.0000 0.0000
# 2 83.4021 132.5578 32.0930 0.0000 0.0000 0.0000
# 3 28.1847 32.0930 31.3566 0.0000 0.0000 0.0000
# 4 0.0000 0.0000 0.0000 25.8705 0.0000 0.0000
# 5 0.0000 0.0000 0.0000 0.0000 38.3236 0.0000
# 6 0.0000 0.0000 0.0000 0.0000 0.0000 44.6059
#
#
#
# Elastic Compliance Matrix: (Units=1/GPa)
#
#
# Indices 1 2 3 4 5 6 
#
# 1 0.018138 -0.009924 -0.006146 0.000000 0.000000 0.000000
# 2 -0.009924 0.015459 -0.006902 0.000000 0.000000 0.000000
# 3 -0.006146 -0.006902 0.044479 0.000000 0.000000 0.000000
# 4 0.000000 0.000000 0.000000 0.038654 0.000000 0.000000
# 5 0.000000 0.000000 0.000000 0.000000 0.026094 0.000000
# 6 0.000000 0.000000 0.000000 0.000000 0.000000 0.022419
#
#
# Mechanical properties :
#
#
# Convention : Reuss Voigt Hill
#
# Bulk Modulus (GPa) = 31.12117 62.39875 46.75996
# Shear Modulus (GPa) = 22.53290 30.46330 26.49810
#
# Velocity S-wave (km/s) = 3.58053 4.16320 3.88281
# Velocity P-wave (km/s) = 5.89917 7.65583 6.83418
#
# Compressibility (1/GPa) = 0.03213247
#
# Stress axis : x y z
#
# Youngs Moduli (GPa) = 55.13183 64.68800 22.48229
#
# Poissons Ratio (x) = 0.64197 0.13818
# Poissons Ratio (y) = 0.54714 0.15516
# Poissons Ratio (z) = 0.33886 0.44645
#
# Static dielectric constant tensor:
#      x y z
#    x 1.565100 0.000000 0.000000 
#    y 0.000000 1.614330 0.000000 
#    z 0.000000 0.000000 1.597330 
# 
# From -- ./inp_files/4914.got.cif
#   From: 2010.05.17/outbox.cif.g08.bks.cpg/sg65_3_cif.got.tgz:4914.got - 2010.06.03 17:01:31.
