data_PCOD9493324
_publ_section_title
;
Structure prediction by ZEFSAII (Michael W. Deem and Ramdas Pophale) SiO2 
 PCOD9493324
Probable space group: C M M M
;
_chemical_formula_sum "Si O2"
_cell_formula_units_Z 72
_cell_length_a 8.051165
_cell_length_b 19.073257
_cell_length_c 22.924207
_cell_angle_alpha 90.000000
_cell_angle_beta 90.000000
_cell_angle_gamma 90.000000
_cell_volume 3520.285681
_symmetry_space_group_name_H-M "C M M M"
_symmetry_group_IT_number 65
_symmetry_cell_setting 'orthorhombic'
loop_
_space_group_symop_operation_xyz
x,y,z
-x,-y,z
x,-y,-z
-x,y,-z
-x,-y,-z
x,y,-z
-x,y,z
x,-y,z
1/2+x,1/2+y,z
1/2-x,1/2-y,z
1/2+x,1/2-y,-z
1/2-x,1/2+y,-z
1/2-x,1/2-y,-z
1/2+x,1/2+y,-z
1/2-x,1/2+y,z
1/2+x,1/2-y,z
loop_
_atom_site_type_symbol
_atom_site_label
_atom_site_fract_x
_atom_site_fract_y
_atom_site_fract_z
Si Si1 0.201148 0.831492 0.872821
Si Si2 0.814957 0.113955 0.366803
Si Si3 0.000000 0.770503 0.430579
Si Si4 0.701399 0.419379 0.237534
Si Si5 0.700061 0.331760 0.000000
Si Si6 0.000000 0.397734 0.567834
O O1 0.250000 0.750000 0.866712
O O2 0.263704 0.876922 0.818505
O O3 0.258541 0.858592 0.936791
O O4 0.000000 0.834173 0.872682
O O5 0.850943 0.187768 0.398853
O O6 0.763134 0.117747 0.299250
O O7 0.668043 0.077916 0.401587
O O8 0.000000 0.080221 0.368194
O O9 0.000000 0.687362 0.424663
O O10 0.000000 0.786231 0.500000
O O11 0.500000 0.421007 0.232855
O O12 0.759156 0.500000 0.239189
O O13 0.750000 0.250000 0.000000
O O14 0.500000 0.337220 0.000000
O O15 0.000000 0.413797 0.500000
#
# Coordination Sequence:
#
# PCOD9493324 Si02
#       6
#    16  16   8  16   8   8
#     4   9  17  30  51  79 107 139 176 219 266 317
#     4   9  20  33  50  75 102 139 178 219 267 327
#     4   9  18  32  49  75 107 134 169 216 269 325
#     4   9  18  36  55  72 101 143 182 220 267 320
#     4   8  14  26  45  73 109 139 169 210 264 320
#     4  11  20  32  53  79 109 140 171 222 279 325
#
# _framework density 20.452885999999999
#
# number of rings (size 3 to 8) (size 9 to 14) (size 15 to 20)
#    0.667    2.222    0.000    1.333    0.000    3.556 
#    2.000    1.111    0.000    7.333    0.000    0.000 
#    0.000    8.889    0.000    0.000    0.000    0.000 
#
# Total GULP energy -200414.779539 kJ/mol
# GULP energy per Si atom -5567.077209 kJ/mol
# Density = 2.040633 g / cm^3
# Si number density = 20.452886 Si / 1000 Ang^3
#
#
#
# Elastic Constant Matrix: (Units=GPa)
#
#
# Indices 1 2 3 4 5 6 
#
# 1 69.2316 -2.8618 40.5828 0.0000 0.0000 0.0000
# 2 -2.8618 95.7643 70.9605 0.0000 0.0000 0.0000
# 3 40.5828 70.9605 227.8091 0.0000 0.0000 0.0000
# 4 0.0000 0.0000 0.0000 -58.9546 0.0000 0.0000
# 5 0.0000 0.0000 0.0000 0.0000 17.2095 0.0000
# 6 0.0000 0.0000 0.0000 0.0000 0.0000 -6.4451
#
#
#
# Elastic Compliance Matrix: (Units=1/GPa)
#
#
# Indices 1 2 3 4 5 6 
#
# 1 0.017024 0.003583 -0.004149 0.000000 0.000000 0.000000
# 2 0.003583 0.014330 -0.005102 0.000000 0.000000 0.000000
# 3 -0.004149 -0.005102 0.006718 0.000000 0.000000 0.000000
# 4 0.000000 0.000000 0.000000 -0.016962 0.000000 0.000000
# 5 0.000000 0.000000 0.000000 0.000000 0.058107 0.000000
# 6 0.000000 0.000000 0.000000 0.000000 0.000000 -0.155157
#
#
# Mechanical properties :
#
#
# Convention : Reuss Voigt Hill
#
# Bulk Modulus (GPa) = 37.40183 67.79647 52.59915
# Shear Modulus (GPa) = -89.77891 9.30354 -40.23768
#
# Velocity S-wave (km/s) = -6.63255 2.13510 -4.44028
# Velocity P-wave (km/s) = 6.35042 6.26879 0.71765
#
# Compressibility (1/GPa) = 0.02673666
#
# Stress axis : x y z
#
# Youngs Moduli (GPa) = 58.73920 69.78443 148.85521
#
# Poissons Ratio (x) = -0.25004 0.61758
# Poissons Ratio (y) = -0.21046 0.75945
# Poissons Ratio (z) = 0.24370 0.35603
#
# Static dielectric constant tensor:
#      x y z
#    x 1.788020 0.000000 0.000000 
#    y 0.000000 1.697370 0.000000 
#    z 0.000000 0.000000 1.739860 
# 
# From -- ./inp_files/59433.got.cif
#   From: 2010.05.17/outbox.cif.g08.bks.cpg/sg65_30_cif.got.tgz:59433.got - 2010.06.03 17:01:31.
