data_PCOD9493754
_publ_section_title
;
Structure prediction by ZEFSAII (Michael W. Deem and Ramdas Pophale) SiO2 
 PCOD9493754
Probable space group: C M M M
;
_chemical_formula_sum "Si O2"
_cell_formula_units_Z 64
_cell_length_a 35.628470
_cell_length_b 9.737138
_cell_length_c 10.675057
_cell_angle_alpha 90.000000
_cell_angle_beta 90.000000
_cell_angle_gamma 90.000000
_cell_volume 3703.383613
_symmetry_space_group_name_H-M "C M M M"
_symmetry_group_IT_number 65
_symmetry_cell_setting 'orthorhombic'
loop_
_space_group_symop_operation_xyz
x,y,z
-x,-y,z
x,-y,-z
-x,y,-z
-x,-y,-z
x,y,-z
-x,y,z
x,-y,z
1/2+x,1/2+y,z
1/2-x,1/2-y,z
1/2+x,1/2-y,-z
1/2-x,1/2+y,-z
1/2-x,1/2-y,-z
1/2+x,1/2+y,-z
1/2-x,1/2+y,z
1/2+x,1/2-y,z
loop_
_atom_site_type_symbol
_atom_site_label
_atom_site_fract_x
_atom_site_fract_y
_atom_site_fract_z
Si Si1 0.541033 0.000000 0.207027
Si Si2 0.623359 0.341808 0.000000
Si Si3 0.459056 0.763411 0.000000
Si Si4 0.794285 0.000000 0.349324
Si Si5 0.618037 0.000000 0.356346
Si Si6 0.273529 0.000000 0.851547
Si Si7 0.831765 0.729576 0.764121
O O1 0.542132 0.133669 0.118176
O O2 0.500000 0.000000 0.271791
O O3 0.578745 0.000000 0.284954
O O4 0.578505 0.324694 0.000000
O O5 0.641788 0.274627 0.121675
O O6 0.633914 0.500000 0.000000
O O7 0.500000 0.693004 0.000000
O O8 0.816666 0.861531 0.311044
O O9 0.785738 0.000000 0.500000
O O10 0.759199 0.000000 0.252490
O O11 0.643305 0.869247 0.321440
O O12 0.609241 0.000000 0.500000
O O13 0.298567 0.135264 0.822301
O O14 0.262312 0.000000 0.000000
#
# Coordination Sequence:
#
# PCOD9493754 Si02
#       7
#     8   8   8   8   8   8  16
#     4   9  17  31  55  85 116 152 189 237 293 346
#     4  12  21  36  63  92 115 156 200 243 296 351
#     4   9  18  33  57  88 121 149 187 241 298 345
#     4  12  27  45  61  84 123 160 197 250 310 365
#     4  11  22  37  59  85 116 159 202 240 287 354
#     4  11  25  40  66  91 117 151 199 255 300 356
#     4  11  24  40  62  89 117 150 200 250 298 353
#
# _framework density 17.281493000000001
#
# number of rings (size 3 to 8) (size 9 to 14) (size 15 to 20)
#    0.000    1.250    5.000    2.250    1.750    5.500 
#    0.000    0.000    0.000    0.000    0.000    0.000 
#    0.000    8.000    0.000    0.000    0.000    0.000 
#
# Total GULP energy -178544.828898 kJ/mol
# GULP energy per Si atom -5579.525903 kJ/mol
# Density = 1.724216 g / cm^3
# Si number density = 17.281493 Si / 1000 Ang^3
#
#
#
# Elastic Constant Matrix: (Units=GPa)
#
#
# Indices 1 2 3 4 5 6 
#
# 1 135.3722 44.9565 64.4763 0.0000 0.0000 0.0000
# 2 44.9565 99.9710 33.1363 0.0000 0.0000 0.0000
# 3 64.4763 33.1363 122.3515 0.0000 0.0000 0.0000
# 4 0.0000 0.0000 0.0000 13.5090 0.0000 0.0000
# 5 0.0000 0.0000 0.0000 0.0000 -140.2565 0.0000
# 6 0.0000 0.0000 0.0000 0.0000 0.0000 -166.0355
#
#
#
# Elastic Compliance Matrix: (Units=1/GPa)
#
#
# Indices 1 2 3 4 5 6 
#
# 1 0.010743 -0.003246 -0.004782 0.000000 0.000000 0.000000
# 2 -0.003246 0.011970 -0.001531 0.000000 0.000000 0.000000
# 3 -0.004782 -0.001531 0.011108 0.000000 0.000000 0.000000
# 4 0.000000 0.000000 0.000000 0.074025 0.000000 0.000000
# 5 0.000000 0.000000 0.000000 0.000000 -0.007130 0.000000
# 6 0.000000 0.000000 0.000000 0.000000 0.000000 -0.006023
#
#
# Mechanical properties :
#
#
# Convention : Reuss Voigt Hill
#
# Bulk Modulus (GPa) = 68.01718 71.42587 69.72153
# Shear Modulus (GPa) = 42.11881 -44.21488 -1.04804
#
# Velocity S-wave (km/s) = 4.94218 -5.06366 -0.77959
# Velocity P-wave (km/s) = 8.48591 2.68943 6.29459
#
# Compressibility (1/GPa) = 0.01470217
#
# Stress axis : x y z
#
# Youngs Moduli (GPa) = 93.08728 83.54131 90.02577
#
# Poissons Ratio (x) = 0.27116 0.43051
# Poissons Ratio (y) = 0.30215 0.13786
# Poissons Ratio (z) = 0.44515 0.12793
#
# Static dielectric constant tensor:
#      x y z
#    x 1.594520 0.000000 0.000000 
#    y 0.000000 1.571410 0.000000 
#    z 0.000000 0.000000 1.608720 
# 
# From -- ./inp_files/33328.got.cif
#   From: 2010.05.17/outbox.cif.g08.bks.cpg/sg65_17_cif.got.tgz:33328.got - 2010.06.03 17:01:31.
