data_PCOD9493459
_publ_section_title
;
Structure prediction by ZEFSAII (Michael W. Deem and Ramdas Pophale) SiO2 
 PCOD9493459
Probable space group: C M M M
;
_chemical_formula_sum "Si O2"
_cell_formula_units_Z 64
_cell_length_a 23.662934
_cell_length_b 19.491353
_cell_length_c 8.661406
_cell_angle_alpha 90.000000
_cell_angle_beta 90.000000
_cell_angle_gamma 90.000000
_cell_volume 3994.836192
_symmetry_space_group_name_H-M "C M M M"
_symmetry_group_IT_number 65
_symmetry_cell_setting 'orthorhombic'
loop_
_space_group_symop_operation_xyz
x,y,z
-x,-y,z
x,-y,-z
-x,y,-z
-x,-y,-z
x,y,-z
-x,y,z
x,-y,z
1/2+x,1/2+y,z
1/2-x,1/2-y,z
1/2+x,1/2-y,-z
1/2-x,1/2+y,-z
1/2-x,1/2-y,-z
1/2+x,1/2+y,-z
1/2-x,1/2+y,z
1/2+x,1/2-y,z
loop_
_atom_site_type_symbol
_atom_site_label
_atom_site_fract_x
_atom_site_fract_y
_atom_site_fract_z
Si Si1 0.066046 0.359118 0.815138
Si Si2 0.749098 0.500000 0.684943
Si Si3 0.616830 0.000000 0.314846
Si Si4 0.835605 0.728887 0.315516
Si Si5 0.271301 0.646241 0.184592
O O1 0.088255 0.432183 0.753680
O O2 0.104941 0.300904 0.739691
O O3 0.000000 0.351351 0.777911
O O4 0.072768 0.357221 0.000000
O O5 0.743331 0.500000 0.500000
O O6 0.816326 0.500000 0.721467
O O7 0.723377 0.569058 0.755453
O O8 0.610943 0.000000 0.500000
O O9 0.832118 0.730502 0.500000
O O10 0.787050 0.677507 0.252322
O O11 0.819646 0.802813 0.246475
O O12 0.268981 0.648655 0.000000
#
# Coordination Sequence:
#
# PCOD9493459 Si02
#       5
#    16   8   8  16  16
#     4  11  23  37  53  74 103 140 181 221 259 305
#     4  11  21  34  52  79 108 139 173 214 261 311
#     4  11  22  34  51  74 105 141 179 219 256 305
#     4  11  21  35  53  75 103 136 173 217 262 309
#     4  11  21  34  54  77 103 136 172 214 262 313
#
# _framework density 16.020682000000001
#
# number of rings (size 3 to 8) (size 9 to 14) (size 15 to 20)
#    0.000    1.000    2.500    7.875    0.000    4.500 
#    0.000    0.000    0.000    0.000    0.000    0.875 
#    0.000    7.000    0.000    0.000    0.000    0.000 
#
# Total GULP energy -178901.307559 kJ/mol
# GULP energy per Si atom -5590.665861 kJ/mol
# Density = 1.598422 g / cm^3
# Si number density = 16.020682 Si / 1000 Ang^3
#
#
#
# Elastic Constant Matrix: (Units=GPa)
#
#
# Indices 1 2 3 4 5 6 
#
# 1 84.8672 67.9599 53.8261 0.0000 0.0000 0.0000
# 2 67.9599 159.4447 68.3164 0.0000 0.0000 0.0000
# 3 53.8261 68.3164 121.9799 0.0000 0.0000 0.0000
# 4 0.0000 0.0000 0.0000 31.8358 0.0000 0.0000
# 5 0.0000 0.0000 0.0000 0.0000 -0.5871 0.0000
# 6 0.0000 0.0000 0.0000 0.0000 0.0000 19.1278
#
#
#
# Elastic Compliance Matrix: (Units=1/GPa)
#
#
# Indices 1 2 3 4 5 6 
#
# 1 0.020277 -0.006327 -0.005404 0.000000 0.000000 0.000000
# 2 -0.006327 0.010226 -0.002935 0.000000 0.000000 0.000000
# 3 -0.005404 -0.002935 0.012227 0.000000 0.000000 0.000000
# 4 0.000000 0.000000 0.000000 0.031411 0.000000 0.000000
# 5 0.000000 0.000000 0.000000 0.000000 -1.703192 0.000000
# 6 0.000000 0.000000 0.000000 0.000000 0.000000 0.052280
#
#
# Mechanical properties :
#
#
# Convention : Reuss Voigt Hill
#
# Bulk Modulus (GPa) = 74.64408 82.94408 78.79408
# Shear Modulus (GPa) = -3.24050 21.82127 9.29038
#
# Velocity S-wave (km/s) = -1.42376 3.69463 2.41072
# Velocity P-wave (km/s) = 6.63255 8.37173 7.55237
#
# Compressibility (1/GPa) = 0.01339691
#
# Stress axis : x y z
#
# Youngs Moduli (GPa) = 49.31596 97.78659 81.78814
#
# Poissons Ratio (x) = 0.61873 0.44199
# Poissons Ratio (y) = 0.31204 0.24008
# Poissons Ratio (z) = 0.26651 0.28704
#
# Static dielectric constant tensor:
#      x y z
#    x 1.518500 0.000000 0.000000 
#    y 0.000000 1.528380 0.000000 
#    z 0.000000 0.000000 1.532620 
# 
# From -- ./inp_files/13528.got.cif
#   From: 2010.05.17/outbox.cif.g08.bks.cpg/sg65_7_cif.got.tgz:13528.got - 2010.06.03 17:01:31.
