data_PCOD9493054
_publ_section_title
;
Structure prediction by ZEFSAII (Michael W. Deem and Ramdas Pophale) SiO2 
 PCOD9493054
Probable space group: C M M M
;
_chemical_formula_sum "Si O2"
_cell_formula_units_Z 80
_cell_length_a 26.741042
_cell_length_b 17.277695
_cell_length_c 10.132799
_cell_angle_alpha 90.000000
_cell_angle_beta 90.000000
_cell_angle_gamma 90.000000
_cell_volume 4681.591944
_symmetry_space_group_name_H-M "C M M M"
_symmetry_group_IT_number 65
_symmetry_cell_setting 'orthorhombic'
loop_
_space_group_symop_operation_xyz
x,y,z
-x,-y,z
x,-y,-z
-x,y,-z
-x,-y,-z
x,y,-z
-x,y,z
x,-y,z
1/2+x,1/2+y,z
1/2-x,1/2-y,z
1/2+x,1/2-y,-z
1/2-x,1/2+y,-z
1/2-x,1/2-y,-z
1/2+x,1/2+y,-z
1/2-x,1/2+y,z
1/2+x,1/2-y,z
loop_
_atom_site_type_symbol
_atom_site_label
_atom_site_fract_x
_atom_site_fract_y
_atom_site_fract_z
Si Si1 0.940098 0.410888 0.500000
Si Si2 0.939828 0.406812 0.000000
Si Si3 0.055261 0.157852 0.155905
Si Si4 0.692564 0.275425 0.344440
Si Si5 0.660789 0.588912 0.154505
Si Si6 0.401586 0.184040 0.747553
O O1 0.923277 0.500000 0.500000
O O2 0.920453 0.365577 0.374121
O O3 0.000000 0.410545 0.500000
O O4 0.913226 0.367743 0.874881
O O5 0.934886 0.500000 0.000000
O O6 0.000000 0.389699 0.000000
O O7 0.101018 0.099406 0.174570
O O8 0.067731 0.236058 0.234299
O O9 0.000000 0.128319 0.188419
O O10 0.055704 0.178409 0.000000
O O11 0.679087 0.285844 0.500000
O O12 0.750000 0.250000 0.338492
O O13 0.685554 0.352671 0.257520
O O14 0.654972 0.212460 0.279835
O O15 0.675217 0.500000 0.174176
O O16 0.670852 0.609673 0.000000
#
# Coordination Sequence:
#
# PCOD9493054 Si02
#       6
#     8   8  16  16  16  16
#     4  11  22  34  51  78 115 153 186 231 290 344
#     4  11  22  36  57  84 119 159 192 229 286 352
#     4   9  16  28  51  79 107 143 179 212 256 318
#     4  10  22  41  63  82 106 149 199 240 287 340
#     4   9  19  35  56  86 117 143 179 227 281 336
#     4  11  20  36  55  82 110 147 191 238 281 340
#
# _framework density 17.088204999999999
#
# number of rings (size 3 to 8) (size 9 to 14) (size 15 to 20)
#    0.000    2.000    2.000    2.400    1.400    2.800 
#    0.000    4.000    0.000    0.000    0.000    2.800 
#    0.000    0.000    0.000    0.000    0.000    0.000 
#
# Total GULP energy -223024.717419 kJ/mol
# GULP energy per Si atom -5575.617935 kJ/mol
# Density = 1.704931 g / cm^3
# Si number density = 17.088205 Si / 1000 Ang^3
#
#
#
# Elastic Constant Matrix: (Units=GPa)
#
#
# Indices 1 2 3 4 5 6 
#
# 1 88.5874 35.6407 51.3056 0.0000 0.0000 0.0000
# 2 35.6407 97.8858 67.8148 0.0000 0.0000 0.0000
# 3 51.3056 67.8148 138.6636 0.0000 0.0000 0.0000
# 4 0.0000 0.0000 0.0000 40.4139 0.0000 0.0000
# 5 0.0000 0.0000 0.0000 0.0000 24.7636 0.0000
# 6 0.0000 0.0000 0.0000 0.0000 0.0000 10.4200
#
#
#
# Elastic Compliance Matrix: (Units=1/GPa)
#
#
# Indices 1 2 3 4 5 6 
#
# 1 0.014731 -0.002401 -0.004276 0.000000 0.000000 0.000000
# 2 -0.002401 0.015842 -0.006860 0.000000 0.000000 0.000000
# 3 -0.004276 -0.006860 0.012149 0.000000 0.000000 0.000000
# 4 0.000000 0.000000 0.000000 0.024744 0.000000 0.000000
# 5 0.000000 0.000000 0.000000 0.000000 0.040382 0.000000
# 6 0.000000 0.000000 0.000000 0.000000 0.000000 0.095969
#
#
# Mechanical properties :
#
#
# Convention : Reuss Voigt Hill
#
# Bulk Modulus (GPa) = 63.90424 70.51767 67.21095
# Shear Modulus (GPa) = 21.17689 26.47789 23.82739
#
# Velocity S-wave (km/s) = 3.52415 3.94062 3.73819
# Velocity P-wave (km/s) = 7.35101 7.87789 7.61900
#
# Compressibility (1/GPa) = 0.01564841
#
# Stress axis : x y z
#
# Youngs Moduli (GPa) = 67.88487 63.12144 82.31401
#
# Poissons Ratio (x) = 0.15156 0.35199
# Poissons Ratio (y) = 0.16300 0.56464
# Poissons Ratio (z) = 0.29029 0.43298
#
# Static dielectric constant tensor:
#      x y z
#    x 1.578160 0.000000 0.000000 
#    y 0.000000 1.557680 0.000000 
#    z 0.000000 0.000000 1.544200 
# 
# From -- ./inp_files/16064.got.cif
#   From: 2010.05.17/outbox.cif.g08.bks.cpg/sg65_9_cif.got.tgz:16064.got - 2010.06.03 17:01:31.
