data_PCOD9493915
_publ_section_title
;
Structure prediction by ZEFSAII (Michael W. Deem and Ramdas Pophale) SiO2 
 PCOD9493915
Probable space group: C M M M
;
_chemical_formula_sum "Si O2"
_cell_formula_units_Z 88
_cell_length_a 8.141178
_cell_length_b 19.508206
_cell_length_c 29.432856
_cell_angle_alpha 90.000000
_cell_angle_beta 90.000000
_cell_angle_gamma 90.000000
_cell_volume 4674.519641
_symmetry_space_group_name_H-M "C M M M"
_symmetry_group_IT_number 65
_symmetry_cell_setting 'orthorhombic'
loop_
_space_group_symop_operation_xyz
x,y,z
-x,-y,z
x,-y,-z
-x,y,-z
-x,-y,-z
x,y,-z
-x,y,z
x,-y,z
1/2+x,1/2+y,z
1/2-x,1/2-y,z
1/2+x,1/2-y,-z
1/2-x,1/2+y,-z
1/2-x,1/2-y,-z
1/2+x,1/2+y,-z
1/2-x,1/2+y,z
1/2+x,1/2-y,z
loop_
_atom_site_type_symbol
_atom_site_label
_atom_site_fract_x
_atom_site_fract_y
_atom_site_fract_z
Si Si1 0.198002 0.329636 0.000000
Si Si2 0.301827 0.578745 0.283002
Si Si3 0.198429 0.578782 0.817494
Si Si4 0.801813 0.577754 0.448203
Si Si5 0.801162 0.670748 0.099028
Si Si6 0.304534 0.328434 0.634239
O O1 0.250000 0.250000 0.000000
O O2 0.254882 0.356322 0.049229
O O3 0.000000 0.333956 0.000000
O O4 0.500000 0.577361 0.285001
O O5 0.243377 0.500000 0.289287
O O6 0.252183 0.601890 0.232577
O O7 0.239047 0.628301 0.322641
O O8 0.254170 0.500000 0.823176
O O9 0.258500 0.626144 0.858574
O O10 0.000000 0.578867 0.818508
O O11 0.747944 0.592464 0.500000
O O12 0.747136 0.500000 0.436506
O O13 0.744244 0.632221 0.411593
O O14 0.000000 0.577504 0.448271
O O15 0.750000 0.750000 0.103455
O O16 0.000000 0.668569 0.099200
O O17 0.500000 0.329197 0.637296
O O18 0.250000 0.250000 0.634513
#
# Coordination Sequence:
#
# PCOD9493915 Si02
#       6
#     8  16  16  16  16  16
#     4   8  14  26  43  63  89 121 155 192 234 280
#     4   9  19  36  55  73  95 127 167 207 247 295
#     4   9  18  32  49  70  96 125 158 197 242 293
#     4   9  19  37  60  84 109 138 173 211 251 299
#     4   9  17  29  46  68  93 122 158 197 237 284
#     4  11  23  37  54  78 108 139 172 212 256 301
#
# _framework density 18.825462999999999
#
# number of rings (size 3 to 8) (size 9 to 14) (size 15 to 20)
#    0.000    2.727    0.000    1.636    0.000    4.727 
#    0.000    6.818    0.000    2.727    0.000    0.000 
#    0.000   10.182    0.000    0.000    0.000    0.000 
#
# Total GULP energy -245310.890789 kJ/mol
# GULP energy per Si atom -5575.247518 kJ/mol
# Density = 1.878262 g / cm^3
# Si number density = 18.825463 Si / 1000 Ang^3
#
#
#
# Elastic Constant Matrix: (Units=GPa)
#
#
# Indices 1 2 3 4 5 6 
#
# 1 12.4721 12.4394 16.1700 0.0000 0.0000 0.0000
# 2 12.4394 107.3780 118.4597 0.0000 0.0000 0.0000
# 3 16.1700 118.4597 198.9298 0.0000 0.0000 0.0000
# 4 0.0000 0.0000 0.0000 38.3849 0.0000 0.0000
# 5 0.0000 0.0000 0.0000 0.0000 22.0069 0.0000
# 6 0.0000 0.0000 0.0000 0.0000 0.0000 10.4594
#
#
#
# Elastic Compliance Matrix: (Units=1/GPa)
#
#
# Indices 1 2 3 4 5 6 
#
# 1 0.091380 -0.006972 -0.003276 0.000000 0.000000 0.000000
# 2 -0.006972 0.027679 -0.015915 0.000000 0.000000 0.000000
# 3 -0.003276 -0.015915 0.014771 0.000000 0.000000 0.000000
# 4 0.000000 0.000000 0.000000 0.026052 0.000000 0.000000
# 5 0.000000 0.000000 0.000000 0.000000 0.045440 0.000000
# 6 0.000000 0.000000 0.000000 0.000000 0.000000 0.095608
#
#
# Mechanical properties :
#
#
# Convention : Reuss Voigt Hill
#
# Bulk Modulus (GPa) = 12.26959 68.10204 40.18582
# Shear Modulus (GPa) = 13.14325 25.61762 19.38043
#
# Velocity S-wave (km/s) = 2.64514 3.69290 3.21203
# Velocity P-wave (km/s) = 3.98256 7.37817 5.92866
#
# Compressibility (1/GPa) = 0.08150229
#
# Stress axis : x y z
#
# Youngs Moduli (GPa) = 10.94331 36.12912 67.70197
#
# Poissons Ratio (x) = 0.25188 0.22181
# Poissons Ratio (y) = 0.07629 1.07751
# Poissons Ratio (z) = 0.03585 0.57501
#
# Static dielectric constant tensor:
#      x y z
#    x 1.666370 0.000000 0.000000 
#    y 0.000000 1.643530 0.000000 
#    z 0.000000 0.000000 1.672930 
# 
# From -- ./inp_files/73188.got.cif
#   From: 2010.05.17/outbox.cif.g08.bks.cpg/sg65_37_cif.got.tgz:73188.got - 2010.06.03 17:01:31.
