data_PCOD9493063
_publ_section_title
;
Structure prediction by ZEFSAII (Michael W. Deem and Ramdas Pophale) SiO2 
 PCOD9493063
Probable space group: C M M M
;
_chemical_formula_sum "Si O2"
_cell_formula_units_Z 72
_cell_length_a 8.921586
_cell_length_b 18.334377
_cell_length_c 23.397425
_cell_angle_alpha 90.000000
_cell_angle_beta 90.000000
_cell_angle_gamma 90.000000
_cell_volume 3827.157078
_symmetry_space_group_name_H-M "C M M M"
_symmetry_group_IT_number 65
_symmetry_cell_setting 'orthorhombic'
loop_
_space_group_symop_operation_xyz
x,y,z
-x,-y,z
x,-y,-z
-x,y,-z
-x,-y,-z
x,y,-z
-x,y,z
x,-y,z
1/2+x,1/2+y,z
1/2-x,1/2-y,z
1/2+x,1/2-y,-z
1/2-x,1/2+y,-z
1/2-x,1/2-y,-z
1/2+x,1/2+y,-z
1/2-x,1/2+y,z
1/2+x,1/2-y,z
loop_
_atom_site_type_symbol
_atom_site_label
_atom_site_fract_x
_atom_site_fract_y
_atom_site_fract_z
Si Si1 0.321069 0.914620 0.225215
Si Si2 0.179739 0.330382 0.892538
Si Si3 0.822004 0.829494 0.670055
Si Si4 0.820768 0.913479 0.000000
Si Si5 0.178997 0.586024 0.433809
O O1 0.500000 0.908583 0.235903
O O2 0.287626 0.871111 0.167122
O O3 0.234873 0.879820 0.278176
O O4 0.285309 0.000000 0.218522
O O5 0.250000 0.250000 0.892110
O O6 0.249297 0.376090 0.944439
O O7 0.000000 0.325868 0.899179
O O8 0.750000 0.750000 0.676574
O O9 0.766782 0.865457 0.611082
O O10 0.000000 0.823637 0.671011
O O11 0.000000 0.902423 0.000000
O O12 0.790749 0.000000 0.000000
O O13 0.214828 0.602584 0.500000
O O14 0.209671 0.500000 0.424254
O O15 0.000000 0.596389 0.426182
#
# Coordination Sequence:
#
# PCOD9493063 Si02
#       5
#    16  16  16   8  16
#     4  10  22  41  64  89 118 153 193 239 292 349
#     4  11  23  40  63  90 121 157 197 241 291 346
#     4  12  25  39  58  85 118 156 196 241 292 345
#     4  11  24  41  62  89 121 157 198 245 294 345
#     4   9  19  38  63  88 116 152 192 236 289 348
#
# _framework density 18.812919000000001
#
# number of rings (size 3 to 8) (size 9 to 14) (size 15 to 20)
#    0.000    1.444    0.000    6.000    0.000    9.778 
#    0.000    1.111    0.000    0.000    0.000    0.000 
#    0.000    0.000    0.000    0.000    0.000    0.000 
#
# Total GULP energy -201376.048149 kJ/mol
# GULP energy per Si atom -5593.779115 kJ/mol
# Density = 1.877010 g / cm^3
# Si number density = 18.812919 Si / 1000 Ang^3
#
#
#
# Elastic Constant Matrix: (Units=GPa)
#
#
# Indices 1 2 3 4 5 6 
#
# 1 90.8793 90.5975 85.1154 0.0000 0.0000 0.0000
# 2 90.5975 163.5447 96.2827 0.0000 0.0000 0.0000
# 3 85.1154 96.2827 129.4127 0.0000 0.0000 0.0000
# 4 0.0000 0.0000 0.0000 53.2456 0.0000 0.0000
# 5 0.0000 0.0000 0.0000 0.0000 -39.8800 0.0000
# 6 0.0000 0.0000 0.0000 0.0000 0.0000 29.7220
#
#
#
# Elastic Compliance Matrix: (Units=1/GPa)
#
#
# Indices 1 2 3 4 5 6 
#
# 1 0.037305 -0.011069 -0.016300 0.000000 0.000000 0.000000
# 2 -0.011069 0.014165 -0.003258 0.000000 0.000000 0.000000
# 3 -0.016300 -0.003258 0.020872 0.000000 0.000000 0.000000
# 4 0.000000 0.000000 0.000000 0.018781 0.000000 0.000000
# 5 0.000000 0.000000 0.000000 0.000000 -0.025075 0.000000
# 6 0.000000 0.000000 0.000000 0.000000 0.000000 0.033645
#
#
# Mechanical properties :
#
#
# Convention : Reuss Voigt Hill
#
# Bulk Modulus (GPa) = 90.20046 103.09200 96.64623
# Shear Modulus (GPa) = 30.36891 16.07361 23.22126
#
# Velocity S-wave (km/s) = 4.02214 2.92617 3.51711
# Velocity P-wave (km/s) = 8.34388 8.14457 8.24483
#
# Compressibility (1/GPa) = 0.01108642
#
# Stress axis : x y z
#
# Youngs Moduli (GPa) = 26.80634 70.59861 47.91124
#
# Poissons Ratio (x) = 0.78146 0.78096
# Poissons Ratio (y) = 0.29672 0.15610
# Poissons Ratio (z) = 0.43694 0.23002
#
# Static dielectric constant tensor:
#      x y z
#    x 1.626730 0.000000 0.000000 
#    y 0.000000 1.620610 0.000000 
#    z 0.000000 0.000000 1.620350 
# 
# From -- ./inp_files/59303.got.cif
#   From: 2010.05.17/outbox.cif.g08.bks.cpg/sg65_30_cif.got.tgz:59303.got - 2010.06.03 17:01:31.
