data_PCOD9493138
_publ_section_title
;
Structure prediction by ZEFSAII (Michael W. Deem and Ramdas Pophale) SiO2 
 PCOD9493138
Probable space group: C M M M
;
_chemical_formula_sum "Si O2"
_cell_formula_units_Z 58
_cell_length_a 24.586630
_cell_length_b 15.832595
_cell_length_c 7.180678
_cell_angle_alpha 90.000000
_cell_angle_beta 90.000000
_cell_angle_gamma 90.000000
_cell_volume 2795.223640
_symmetry_space_group_name_H-M "C M M M"
_symmetry_group_IT_number 65
_symmetry_cell_setting 'orthorhombic'
loop_
_space_group_symop_operation_xyz
x,y,z
-x,-y,z
x,-y,-z
-x,y,-z
-x,-y,-z
x,y,-z
-x,y,z
x,-y,z
1/2+x,1/2+y,z
1/2-x,1/2-y,z
1/2+x,1/2-y,-z
1/2-x,1/2+y,-z
1/2-x,1/2-y,-z
1/2+x,1/2+y,-z
1/2-x,1/2+y,z
1/2+x,1/2-y,z
loop_
_atom_site_type_symbol
_atom_site_label
_atom_site_fract_x
_atom_site_fract_y
_atom_site_fract_z
Si Si1 0.175886 0.595297 0.273706
Si Si2 0.000000 0.000000 0.000000
Si Si3 0.500000 0.338994 0.274716
Si Si4 0.699120 0.404442 0.274001
Si Si5 0.615123 0.261032 0.725739
O O1 0.175651 0.595132 0.500000
O O2 0.161780 0.500000 0.215335
O O3 0.238539 0.612624 0.218854
O O4 0.136471 0.669870 0.212145
O O5 0.000000 0.074280 0.162345
O O6 0.500000 0.353330 0.500000
O O7 0.445773 0.286869 0.225793
O O8 0.698593 0.403938 0.500000
O O9 0.684409 0.500000 0.216716
O O10 0.656932 0.333927 0.212181
O O11 0.617440 0.260190 0.500000
#
# Coordination Sequence:
#
# PCOD9493138 Si02
#       5
#    16   2   8  16  16
#     4   8  13  22  38  66 105 142 177 222 270 317
#     4  12  26  44  60  78 110 148 182 228 268 320
#     4  10  23  39  58  82 109 142 184 224 271 323
#     4   8  13  20  35  63 100 139 176 218 269 321
#     4   9  16  27  44  69 104 141 178 224 270 316
#
# _framework density 20.749680999999999
#
# number of rings (size 3 to 8) (size 9 to 14) (size 15 to 20)
#    0.000    3.310    0.000    2.690    1.931    3.310 
#    0.000    0.690    0.000    4.138    0.000    5.793 
#    0.000    0.000    0.000    0.000    0.000    0.552 
#
# Total GULP energy -161660.498558 kJ/mol
# GULP energy per Si atom -5574.499950 kJ/mol
# Density = 2.070245 g / cm^3
# Si number density = 20.749681 Si / 1000 Ang^3
#
#
#
# Elastic Constant Matrix: (Units=GPa)
#
#
# Indices 1 2 3 4 5 6 
#
# 1 167.8090 166.7921 20.9858 0.0000 0.0000 0.0000
# 2 166.7921 224.5463 21.7091 0.0000 0.0000 0.0000
# 3 20.9858 21.7091 116.9552 0.0000 0.0000 0.0000
# 4 0.0000 0.0000 0.0000 -26.6988 0.0000 0.0000
# 5 0.0000 0.0000 0.0000 0.0000 -33.6769 0.0000
# 6 0.0000 0.0000 0.0000 0.0000 0.0000 -4.4612
#
#
#
# Elastic Compliance Matrix: (Units=1/GPa)
#
#
# Indices 1 2 3 4 5 6 
#
# 1 0.022878 -0.016900 -0.000968 0.000000 0.000000 0.000000
# 2 -0.016900 0.017019 -0.000127 0.000000 0.000000 0.000000
# 3 -0.000968 -0.000127 0.008747 0.000000 0.000000 0.000000
# 4 0.000000 0.000000 0.000000 -0.037455 0.000000 0.000000
# 5 0.000000 0.000000 0.000000 0.000000 -0.029694 0.000000
# 6 0.000000 0.000000 0.000000 0.000000 0.000000 -0.224154
#
#
# Mechanical properties :
#
#
# Convention : Reuss Voigt Hill
#
# Bulk Modulus (GPa) = 79.02104 103.14270 91.08187
# Shear Modulus (GPa) = -24.69731 7.02084 -8.83824
#
# Velocity S-wave (km/s) = -3.45374 1.84145 -2.06608
# Velocity P-wave (km/s) = 4.71818 7.37138 6.18864
#
# Compressibility (1/GPa) = 0.01265486
#
# Stress axis : x y z
#
# Youngs Moduli (GPa) = 43.71084 58.75864 114.31844
#
# Poissons Ratio (x) = 0.99301 0.11067
# Poissons Ratio (y) = 0.73870 0.01447
# Poissons Ratio (z) = 0.04232 0.00744
#
# Static dielectric constant tensor:
#      x y z
#    x 1.694290 0.000000 0.000000 
#    y 0.000000 1.703780 0.000000 
#    z 0.000000 0.000000 1.774770 
# 
# From -- ./inp_files/7012.got.cif
#   From: 2010.05.17/outbox.cif.g08.bks.cpg/sg65_4_cif.got.tgz:7012.got - 2010.06.03 17:01:31.
