data_PCOD9493086
_publ_section_title
;
Structure prediction by ZEFSAII (Michael W. Deem and Ramdas Pophale) SiO2 
 PCOD9493086
Probable space group: C M M M
;
_chemical_formula_sum "Si O2"
_cell_formula_units_Z 84
_cell_length_a 11.779666
_cell_length_b 31.404460
_cell_length_c 12.167484
_cell_angle_alpha 90.000000
_cell_angle_beta 90.000000
_cell_angle_gamma 90.000000
_cell_volume 4501.166631
_symmetry_space_group_name_H-M "C M M M"
_symmetry_group_IT_number 65
_symmetry_cell_setting 'orthorhombic'
loop_
_space_group_symop_operation_xyz
x,y,z
-x,-y,z
x,-y,-z
-x,y,-z
-x,-y,-z
x,y,-z
-x,y,z
x,-y,z
1/2+x,1/2+y,z
1/2-x,1/2-y,z
1/2+x,1/2-y,-z
1/2-x,1/2+y,-z
1/2-x,1/2-y,-z
1/2+x,1/2+y,-z
1/2-x,1/2+y,z
1/2+x,1/2-y,z
loop_
_atom_site_type_symbol
_atom_site_label
_atom_site_fract_x
_atom_site_fract_y
_atom_site_fract_z
Si Si1 0.500000 0.372938 0.500000
Si Si2 0.238821 0.125497 0.379211
Si Si3 0.744300 0.451780 0.781184
Si Si4 0.500000 0.571304 0.870722
Si Si5 0.135578 0.580613 0.000000
Si Si6 0.000000 0.825931 0.870855
Si Si7 0.739755 0.297093 0.221315
Si Si8 0.364608 0.819437 0.000000
O O1 0.397146 0.373222 0.405981
O O2 0.293308 0.126163 0.500000
O O3 0.267072 0.083085 0.311992
O O4 0.272231 0.165994 0.306335
O O5 0.766783 0.500000 0.746056
O O6 0.612691 0.446514 0.814956
O O7 0.814311 0.440622 0.890929
O O8 0.500000 0.622710 0.863615
O O9 0.500000 0.560174 0.000000
O O10 0.169879 0.630535 0.000000
O O11 0.000000 0.578119 0.000000
O O12 0.888069 0.807317 0.815702
O O13 0.000000 0.814907 0.000000
O O14 0.750000 0.250000 0.269657
O O15 0.814467 0.299384 0.110569
O O16 0.500000 0.816533 0.000000
#
# Coordination Sequence:
#
# PCOD9493086 Si02
#       8
#     4  16  16   8   8   8  16   8
#     4   8  20  42  67  88 124 162 216 256 313 376
#     4  10  22  42  61  86 122 164 209 256 305 369
#     4  12  23  38  62  95 132 166 204 255 313 378
#     4  11  20  34  58  92 134 167 196 240 322 390
#     4  11  23  42  66  90 129 174 214 252 305 371
#     4  11  21  36  61  91 131 168 204 243 315 393
#     4  12  24  39  65  93 127 165 207 259 316 378
#     4  11  23  41  62  97 131 162 205 256 317 377
#
# _framework density 18.661829999999998
#
# number of rings (size 3 to 8) (size 9 to 14) (size 15 to 20)
#    0.571    0.381    5.714    2.000    1.333    1.905 
#    0.000    0.476    0.000    2.286    0.000    1.333 
#    0.000    0.000    0.000    0.000    0.000    0.000 
#
# Total GULP energy -234140.996001 kJ/mol
# GULP energy per Si atom -5574.785619 kJ/mol
# Density = 1.861935 g / cm^3
# Si number density = 18.661830 Si / 1000 Ang^3
#
#
#
# Elastic Constant Matrix: (Units=GPa)
#
#
# Indices 1 2 3 4 5 6 
#
# 1 31.4786 10.1483 7.9726 0.0000 0.0000 0.0000
# 2 10.1483 146.8817 57.2005 0.0000 0.0000 0.0000
# 3 7.9726 57.2005 132.1446 0.0000 0.0000 0.0000
# 4 0.0000 0.0000 0.0000 -2.9262 0.0000 0.0000
# 5 0.0000 0.0000 0.0000 0.0000 1.7121 0.0000
# 6 0.0000 0.0000 0.0000 0.0000 0.0000 90.2368
#
#
#
# Elastic Compliance Matrix: (Units=1/GPa)
#
#
# Indices 1 2 3 4 5 6 
#
# 1 0.032647 -0.001790 -0.001195 0.000000 0.000000 0.000000
# 2 -0.001790 0.008287 -0.003479 0.000000 0.000000 0.000000
# 3 -0.001195 -0.003479 0.009145 0.000000 0.000000 0.000000
# 4 0.000000 0.000000 0.000000 -0.341739 0.000000 0.000000
# 5 0.000000 0.000000 0.000000 0.000000 0.584095 0.000000
# 6 0.000000 0.000000 0.000000 0.000000 0.000000 0.011082
#
#
# Mechanical properties :
#
#
# Convention : Reuss Voigt Hill
#
# Bulk Modulus (GPa) = 26.91687 51.23864 39.07776
# Shear Modulus (GPa) = 15.20545 33.48341 24.34443
#
# Velocity S-wave (km/s) = 2.85755 4.24042 3.61571
# Velocity P-wave (km/s) = 5.03411 7.17571 6.19811
#
# Compressibility (1/GPa) = 0.03715142
#
# Stress axis : x y z
#
# Youngs Moduli (GPa) = 30.63027 120.67468 109.34367
#
# Poissons Ratio (x) = 0.21606 0.13063
# Poissons Ratio (y) = 0.05484 0.38041
# Poissons Ratio (z) = 0.03659 0.41983
#
# Static dielectric constant tensor:
#      x y z
#    x 1.470240 0.000000 0.000000 
#    y 0.000000 1.660310 0.000000 
#    z 0.000000 0.000000 1.642900 
# 
# From -- ./inp_files/23069.got.cif
#   From: 2010.05.17/outbox.cif.g08.bks.cpg/sg65_12_cif.got.tgz:23069.got - 2010.06.03 17:01:31.
