data_PCOD9493375
_publ_section_title
;
Structure prediction by ZEFSAII (Michael W. Deem and Ramdas Pophale) SiO2 
 PCOD9493375
Probable space group: C M M M
;
_chemical_formula_sum "Si O2"
_cell_formula_units_Z 104
_cell_length_a 9.164586
_cell_length_b 31.596414
_cell_length_c 22.273460
_cell_angle_alpha 90.000000
_cell_angle_beta 90.000000
_cell_angle_gamma 90.000000
_cell_volume 6449.682455
_symmetry_space_group_name_H-M "C M M M"
_symmetry_group_IT_number 65
_symmetry_cell_setting 'orthorhombic'
loop_
_space_group_symop_operation_xyz
x,y,z
-x,-y,z
x,-y,-z
-x,y,-z
-x,-y,-z
x,y,-z
-x,y,z
x,-y,z
1/2+x,1/2+y,z
1/2-x,1/2-y,z
1/2+x,1/2-y,-z
1/2-x,1/2+y,-z
1/2-x,1/2-y,-z
1/2+x,1/2+y,-z
1/2-x,1/2+y,z
1/2+x,1/2-y,z
loop_
_atom_site_type_symbol
_atom_site_label
_atom_site_fract_x
_atom_site_fract_y
_atom_site_fract_z
Si Si1 0.323061 0.884223 0.224961
Si Si2 0.825339 0.450739 0.122084
Si Si3 0.833744 0.708571 0.785682
Si Si4 0.169070 0.292697 0.639427
Si Si5 0.825775 0.879810 0.645952
Si Si6 0.667747 0.448552 0.000000
Si Si7 0.330247 0.951149 0.427947
O O1 0.500000 0.883066 0.234960
O O2 0.289139 0.921435 0.178657
O O3 0.279384 0.838290 0.198270
O O4 0.242206 0.888729 0.288251
O O5 0.786193 0.500000 0.132986
O O6 0.000000 0.448937 0.113415
O O7 0.748251 0.435752 0.061111
O O8 0.750000 0.750000 0.806624
O O9 0.831178 0.708768 0.712561
O O10 0.000000 0.712111 0.805369
O O11 0.250000 0.250000 0.618705
O O12 0.255111 0.335497 0.623819
O O13 0.000000 0.294191 0.620226
O O14 0.774042 0.917859 0.603637
O O15 0.000000 0.876079 0.649052
O O16 0.671736 0.500000 0.000000
O O17 0.500000 0.435090 0.000000
O O18 0.319193 0.948144 0.500000
O O19 0.500000 0.942399 0.411699
O O20 0.298943 0.000000 0.411255
#
# Coordination Sequence:
#
# PCOD9493375 Si02
#       7
#    16  16  16  16  16   8  16
#     4   9  18  31  45  66  96 126 157 194 233 273
#     4   9  17  30  48  67  88 119 158 193 226 272
#     4   8  14  24  39  59  85 116 149 186 225 264
#     4   9  16  28  46  68  95 126 160 195 232 278
#     4  11  21  31  47  73 103 131 157 191 239 290
#     4   9  17  29  45  65  90 119 150 187 230 273
#     4   9  19  37  58  74  89 118 162 205 242 283
#
# _framework density 16.124825000000001
#
# number of rings (size 3 to 8) (size 9 to 14) (size 15 to 20)
#    0.000    2.846    0.000    3.462    0.000    6.462 
#    0.000    2.308    0.000    0.462    0.000    0.538 
#    0.000    0.000    0.000    0.000    0.000    0.000 
#
# Total GULP energy -289657.555630 kJ/mol
# GULP energy per Si atom -5570.337608 kJ/mol
# Density = 1.608812 g / cm^3
# Si number density = 16.124825 Si / 1000 Ang^3
#
#
#
# Elastic Constant Matrix: (Units=GPa)
#
#
# Indices 1 2 3 4 5 6 
#
# 1 84.4270 62.4622 33.7501 0.0000 0.0000 0.0000
# 2 62.4622 113.1404 41.3217 0.0000 0.0000 0.0000
# 3 33.7501 41.3217 31.3680 0.0000 0.0000 0.0000
# 4 0.0000 0.0000 0.0000 -5.1292 0.0000 0.0000
# 5 0.0000 0.0000 0.0000 0.0000 10.9692 0.0000
# 6 0.0000 0.0000 0.0000 0.0000 0.0000 26.6070
#
#
#
# Elastic Compliance Matrix: (Units=1/GPa)
#
#
# Indices 1 2 3 4 5 6 
#
# 1 0.023478 -0.007200 -0.015777 0.000000 0.000000 0.000000
# 2 -0.007200 0.019242 -0.017601 0.000000 0.000000 0.000000
# 3 -0.015777 -0.017601 0.072040 0.000000 0.000000 0.000000
# 4 0.000000 0.000000 0.000000 -0.194963 0.000000 0.000000
# 5 0.000000 0.000000 0.000000 0.000000 0.091164 0.000000
# 6 0.000000 0.000000 0.000000 0.000000 0.000000 0.037584
#
#
# Mechanical properties :
#
#
# Convention : Reuss Voigt Hill
#
# Bulk Modulus (GPa) = 29.75706 56.00039 42.87873
# Shear Modulus (GPa) = 35.48583 12.58282 24.03433
#
# Velocity S-wave (km/s) = 4.69625 2.79648 3.86491
# Velocity P-wave (km/s) = 6.92102 6.72546 6.82394
#
# Compressibility (1/GPa) = 0.03360547
#
# Stress axis : x y z
#
# Youngs Moduli (GPa) = 42.59336 51.97064 13.88109
#
# Poissons Ratio (x) = 0.37417 0.21900
# Poissons Ratio (y) = 0.30665 0.24432
# Poissons Ratio (z) = 0.67198 0.91474
#
# Static dielectric constant tensor:
#      x y z
#    x 1.545560 0.000000 0.000000 
#    y 0.000000 1.555360 0.000000 
#    z 0.000000 0.000000 1.512560 
# 
# From -- ./inp_files/68484.got.cif
#   From: 2010.05.17/outbox.cif.g08.bks.cpg/sg65_35_cif.got.tgz:68484.got - 2010.06.03 17:01:31.
