data_PCOD9493849
_publ_section_title
;
Structure prediction by ZEFSAII (Michael W. Deem and Ramdas Pophale) SiO2 
 PCOD9493849
Probable space group: C M M M
;
_chemical_formula_sum "Si O2"
_cell_formula_units_Z 88
_cell_length_a 12.777486
_cell_length_b 15.214878
_cell_length_c 24.765371
_cell_angle_alpha 90.000000
_cell_angle_beta 90.000000
_cell_angle_gamma 90.000000
_cell_volume 4814.583537
_symmetry_space_group_name_H-M "C M M M"
_symmetry_group_IT_number 65
_symmetry_cell_setting 'orthorhombic'
loop_
_space_group_symop_operation_xyz
x,y,z
-x,-y,z
x,-y,-z
-x,y,-z
-x,-y,-z
x,y,-z
-x,y,z
x,-y,z
1/2+x,1/2+y,z
1/2-x,1/2-y,z
1/2+x,1/2-y,-z
1/2-x,1/2+y,-z
1/2-x,1/2-y,-z
1/2+x,1/2+y,-z
1/2-x,1/2+y,z
1/2+x,1/2-y,z
loop_
_atom_site_type_symbol
_atom_site_label
_atom_site_fract_x
_atom_site_fract_y
_atom_site_fract_z
Si Si1 0.121875 0.606194 0.722736
Si Si2 0.373682 0.500000 0.565417
Si Si3 0.722298 0.849536 0.387083
Si Si4 0.500000 0.399897 0.934631
Si Si5 0.119892 0.392773 0.155826
Si Si6 0.000000 0.398298 0.563967
Si Si7 0.772759 0.108133 0.061896
O O1 0.121696 0.500000 0.721214
O O2 0.200377 0.637177 0.676599
O O3 0.151482 0.634057 0.783547
O O4 0.000000 0.633241 0.712664
O O5 0.500000 0.500000 0.577292
O O6 0.362957 0.500000 0.500000
O O7 0.309859 0.583516 0.589868
O O8 0.750000 0.750000 0.398520
O O9 0.608901 0.864084 0.413541
O O10 0.500000 0.500000 0.913170
O O11 0.388340 0.359785 0.921202
O O12 0.500000 0.405733 0.000000
O O13 0.122411 0.500000 0.155533
O O14 0.190689 0.362990 0.106437
O O15 0.000000 0.366310 0.147655
O O16 0.000000 0.500000 0.579156
O O17 0.000000 0.388360 0.500000
O O18 0.776031 0.000000 0.061461
O O19 0.749490 0.134132 0.000000
#
# Coordination Sequence:
#
# PCOD9493849 Si02
#       7
#    16   8  16   8  16   8  16
#     4   9  16  32  56  77 101 139 190 242 283 330
#     4  11  26  45  61  85 127 164 184 225 298 360
#     4  12  24  39  64  91 119 156 200 245 291 343
#     4   7  10  16  26  39  62 106 158 201 242 298
#     4   8  14  22  37  61  87 121 167 218 275 331
#     4  11  22  40  66  94 119 151 204 252 283 336
#     4   8  12  18  29  48  81 120 161 210 264 326
#
# _framework density 18.277799999999999
#
# number of rings (size 3 to 8) (size 9 to 14) (size 15 to 20)
#    0.000    2.636    2.727    2.727    1.273    1.818 
#    0.000    1.818    2.000    0.000    0.000    0.000 
#    0.000    0.727    0.000    0.000    0.000    0.000 
#
# Total GULP energy -245123.425866 kJ/mol
# GULP energy per Si atom -5570.986951 kJ/mol
# Density = 1.823620 g / cm^3
# Si number density = 18.277800 Si / 1000 Ang^3
#
#
#
# Elastic Constant Matrix: (Units=GPa)
#
#
# Indices 1 2 3 4 5 6 
#
# 1 153.9879 52.0008 101.5266 0.0000 0.0000 0.0000
# 2 52.0008 81.5087 23.4901 0.0000 0.0000 0.0000
# 3 101.5266 23.4901 144.4548 0.0000 0.0000 0.0000
# 4 0.0000 0.0000 0.0000 59.4684 0.0000 0.0000
# 5 0.0000 0.0000 0.0000 0.0000 33.6108 0.0000
# 6 0.0000 0.0000 0.0000 0.0000 0.0000 15.3911
#
#
#
# Elastic Compliance Matrix: (Units=1/GPa)
#
#
# Indices 1 2 3 4 5 6 
#
# 1 0.015056 -0.006878 -0.009463 0.000000 0.000000 0.000000
# 2 -0.006878 0.016014 0.002230 0.000000 0.000000 0.000000
# 3 -0.009463 0.002230 0.013211 0.000000 0.000000 0.000000
# 4 0.000000 0.000000 0.000000 0.016816 0.000000 0.000000
# 5 0.000000 0.000000 0.000000 0.000000 0.029752 0.000000
# 6 0.000000 0.000000 0.000000 0.000000 0.000000 0.064973
#
#
# Mechanical properties :
#
#
# Convention : Reuss Voigt Hill
#
# Bulk Modulus (GPa) = 62.27309 81.55405 71.91357
# Shear Modulus (GPa) = 26.39954 35.22301 30.81128
#
# Velocity S-wave (km/s) = 3.80458 4.39463 4.11021
# Velocity P-wave (km/s) = 7.31055 8.39443 7.87117
#
# Compressibility (1/GPa) = 0.01605830
#
# Stress axis : x y z
#
# Youngs Moduli (GPa) = 66.41852 62.44513 75.69453
#
# Poissons Ratio (x) = 0.42951 0.71632
# Poissons Ratio (y) = 0.45684 -0.16881
# Poissons Ratio (z) = 0.62854 -0.13926
#
# Static dielectric constant tensor:
#      x y z
#    x 1.619210 0.000000 0.000000 
#    y 0.000000 1.636010 0.000000 
#    z 0.000000 0.000000 1.639780 
# 
# From -- ./inp_files/74293.got.cif
#   From: 2010.05.17/outbox.cif.g08.bks.cpg/sg65_38_cif.got.tgz:74293.got - 2010.06.03 17:01:31.
