data_PCOD9493098
_publ_section_title
;
Structure prediction by ZEFSAII (Michael W. Deem and Ramdas Pophale) SiO2 
 PCOD9493098
Probable space group: C M M M
;
_chemical_formula_sum "Si O2"
_cell_formula_units_Z 52
_cell_length_a 25.704542
_cell_length_b 12.270488
_cell_length_c 7.294640
_cell_angle_alpha 90.000000
_cell_angle_beta 90.000000
_cell_angle_gamma 90.000000
_cell_volume 2300.782518
_symmetry_space_group_name_H-M "C M M M"
_symmetry_group_IT_number 65
_symmetry_cell_setting 'orthorhombic'
loop_
_space_group_symop_operation_xyz
x,y,z
-x,-y,z
x,-y,-z
-x,y,-z
-x,-y,-z
x,y,-z
-x,y,z
x,-y,z
1/2+x,1/2+y,z
1/2-x,1/2-y,z
1/2+x,1/2-y,-z
1/2-x,1/2+y,-z
1/2-x,1/2-y,-z
1/2+x,1/2+y,-z
1/2-x,1/2+y,z
1/2+x,1/2-y,z
loop_
_atom_site_type_symbol
_atom_site_label
_atom_site_fract_x
_atom_site_fract_y
_atom_site_fract_z
Si Si1 0.000000 0.624977 0.276638
Si Si2 0.939092 0.000000 0.723436
Si Si3 0.801997 0.624940 0.284050
Si Si4 0.250000 0.250000 0.000000
Si Si5 0.599767 0.734738 0.723117
O O1 0.948875 0.690730 0.220494
O O2 0.000000 0.500000 0.216554
O O3 0.000000 0.624082 0.500000
O O4 0.911004 0.111185 0.781531
O O5 0.939388 0.000000 0.500000
O O6 0.000000 0.000000 0.778363
O O7 0.792642 0.639712 0.500000
O O8 0.818916 0.500000 0.257849
O O9 0.753649 0.655947 0.161081
O O10 0.847286 0.707137 0.217666
O O11 0.600890 0.735358 0.500000
#
# Coordination Sequence:
#
# PCOD9493098 Si02
#       5
#     8   8  16   4  16
#     4   9  14  21  41  76 116 156 201 247 293 358
#     4   9  14  24  44  79 127 165 200 251 301 354
#     4  10  22  42  66  93 126 163 207 262 322 383
#     4  12  24  44  68  94 120 154 208 268 336 388
#     4   9  16  28  49  81 120 163 205 248 303 366
#
# _framework density 22.601005000000001
#
# number of rings (size 3 to 8) (size 9 to 14) (size 15 to 20)
#    0.000    2.462    1.538    1.846    0.000    3.692 
#    5.538    0.000    0.000    0.923    0.000    4.308 
#    0.000    0.000    0.000    0.000    0.000    1.846 
#
# Total GULP energy -144787.715304 kJ/mol
# GULP energy per Si atom -5568.758281 kJ/mol
# Density = 2.254956 g / cm^3
# Si number density = 22.601005 Si / 1000 Ang^3
#
#
#
# Elastic Constant Matrix: (Units=GPa)
#
#
# Indices 1 2 3 4 5 6 
#
# 1 49.7188 44.3457 14.9888 0.0000 0.0000 0.0000
# 2 44.3457 207.8704 36.7445 0.0000 0.0000 0.0000
# 3 14.9888 36.7445 116.4940 0.0000 0.0000 0.0000
# 4 0.0000 0.0000 0.0000 -10.2507 0.0000 0.0000
# 5 0.0000 0.0000 0.0000 0.0000 4.4583 0.0000
# 6 0.0000 0.0000 0.0000 0.0000 0.0000 45.0090
#
#
#
# Elastic Compliance Matrix: (Units=1/GPa)
#
#
# Indices 1 2 3 4 5 6 
#
# 1 0.025130 -0.005072 -0.001633 0.000000 0.000000 0.000000
# 2 -0.005072 0.006119 -0.001277 0.000000 0.000000 0.000000
# 3 -0.001633 -0.001277 0.009197 0.000000 0.000000 0.000000
# 4 0.000000 0.000000 0.000000 -0.097554 0.000000 0.000000
# 5 0.000000 0.000000 0.000000 0.000000 0.224302 0.000000
# 6 0.000000 0.000000 0.000000 0.000000 0.000000 0.022218
#
#
# Mechanical properties :
#
#
# Convention : Reuss Voigt Hill
#
# Bulk Modulus (GPa) = 40.85067 62.91571 51.88319
# Shear Modulus (GPa) = 23.41524 26.37692 24.89608
#
# Velocity S-wave (km/s) = 3.22223 3.41994 3.32256
# Velocity P-wave (km/s) = 5.65311 6.59490 6.14208
#
# Compressibility (1/GPa) = 0.02447940
#
# Stress axis : x y z
#
# Youngs Moduli (GPa) = 39.79364 163.43726 108.72890
#
# Poissons Ratio (x) = 0.82900 0.17760
# Poissons Ratio (y) = 0.20184 0.13888
# Poissons Ratio (z) = 0.06500 0.20876
#
# Static dielectric constant tensor:
#      x y z
#    x 1.919140 0.000000 0.000000 
#    y 0.000000 1.814490 0.000000 
#    z 0.000000 0.000000 1.022280 
# 
# From -- ./inp_files/17645.got.cif
#   From: 2010.05.17/outbox.cif.g08.bks.cpg/sg65_9_cif.got.tgz:17645.got - 2010.06.03 17:01:31.
