data_PCOD9493628
_publ_section_title
;
Structure prediction by ZEFSAII (Michael W. Deem and Ramdas Pophale) SiO2 
 PCOD9493628
Probable space group: C M M M
;
_chemical_formula_sum "Si O2"
_cell_formula_units_Z 88
_cell_length_a 14.239793
_cell_length_b 21.099575
_cell_length_c 15.587023
_cell_angle_alpha 90.000000
_cell_angle_beta 90.000000
_cell_angle_gamma 90.000000
_cell_volume 4683.176868
_symmetry_space_group_name_H-M "C M M M"
_symmetry_group_IT_number 65
_symmetry_cell_setting 'orthorhombic'
loop_
_space_group_symop_operation_xyz
x,y,z
-x,-y,z
x,-y,-z
-x,y,-z
-x,-y,-z
x,y,-z
-x,y,z
x,-y,z
1/2+x,1/2+y,z
1/2-x,1/2-y,z
1/2+x,1/2-y,-z
1/2-x,1/2+y,-z
1/2-x,1/2-y,-z
1/2+x,1/2+y,-z
1/2-x,1/2+y,z
1/2+x,1/2-y,z
loop_
_atom_site_type_symbol
_atom_site_label
_atom_site_fract_x
_atom_site_fract_y
_atom_site_fract_z
Si Si1 0.605204 0.000000 0.396150
Si Si2 0.390600 0.787425 0.279300
Si Si3 0.723039 0.123771 0.397638
Si Si4 0.385624 0.364066 0.907754
Si Si5 0.114424 0.284680 0.907858
Si Si6 0.108462 0.133847 0.720480
O O1 0.659973 0.063394 0.373260
O O2 0.500000 0.000000 0.361523
O O3 0.600301 0.000000 0.500000
O O4 0.500000 0.805738 0.291783
O O5 0.326242 0.816270 0.352682
O O6 0.356401 0.810475 0.184870
O O7 0.388616 0.711006 0.277419
O O8 0.726883 0.130517 0.500000
O O9 0.824362 0.113760 0.355769
O O10 0.500000 0.364987 0.906298
O O11 0.358700 0.289600 0.909254
O O12 0.357702 0.389684 0.814574
O O13 0.356433 0.392234 0.000000
O O14 0.000000 0.286084 0.906092
O O15 0.144149 0.312761 0.000000
O O16 0.000000 0.115436 0.708392
#
# Coordination Sequence:
#
# PCOD9493628 Si02
#       6
#     8  16  16  16  16  16
#     4   9  20  40  61  75  86 109 157 217 259 280
#     4   9  17  29  47  73 103 132 161 195 239 290
#     4  11  22  35  51  70  93 124 165 209 246 284
#     4   7  10  20  40  64  93 130 163 189 222 266
#     4   7  10  19  37  62  94 129 159 188 227 277
#     4   9  18  31  47  73 108 136 157 187 234 295
#
# _framework density 18.790664
#
# number of rings (size 3 to 8) (size 9 to 14) (size 15 to 20)
#    0.000    3.364    0.000    4.364    0.000    2.909 
#    0.000    3.182    0.000    6.000    0.000    2.545 
#    0.000    8.727    0.000    0.000    0.000    0.000 
#
# Total GULP energy -245023.975079 kJ/mol
# GULP energy per Si atom -5568.726706 kJ/mol
# Density = 1.874790 g / cm^3
# Si number density = 18.790664 Si / 1000 Ang^3
#
#
#
# Elastic Constant Matrix: (Units=GPa)
#
#
# Indices 1 2 3 4 5 6 
#
# 1 89.6307 11.8495 54.5780 0.0000 0.0000 0.0000
# 2 11.8495 7.6443 10.9925 0.0000 0.0000 0.0000
# 3 54.5780 10.9925 152.7916 0.0000 0.0000 0.0000
# 4 0.0000 0.0000 0.0000 -12.6857 0.0000 0.0000
# 5 0.0000 0.0000 0.0000 0.0000 16.5637 0.0000
# 6 0.0000 0.0000 0.0000 0.0000 0.0000 12.2311
#
#
#
# Elastic Compliance Matrix: (Units=1/GPa)
#
#
# Indices 1 2 3 4 5 6 
#
# 1 0.016400 -0.018959 -0.004494 0.000000 0.000000 0.000000
# 2 -0.018959 0.167830 -0.005302 0.000000 0.000000 0.000000
# 3 -0.004494 -0.005302 0.008532 0.000000 0.000000 0.000000
# 4 0.000000 0.000000 0.000000 -0.078829 0.000000 0.000000
# 5 0.000000 0.000000 0.000000 0.000000 0.060373 0.000000
# 6 0.000000 0.000000 0.000000 0.000000 0.000000 0.081759
#
#
# Mechanical properties :
#
#
# Convention : Reuss Voigt Hill
#
# Bulk Modulus (GPa) = 7.39367 44.98964 26.19165
# Shear Modulus (GPa) = 13.94080 14.73159 14.33620
#
# Velocity S-wave (km/s) = 2.72674 2.80301 2.76514
# Velocity P-wave (km/s) = 3.72247 5.87115 4.91564
#
# Compressibility (1/GPa) = 0.13525087
#
# Stress axis : x y z
#
# Youngs Moduli (GPa) = 60.97578 5.95840 117.21068
#
# Poissons Ratio (x) = 0.11297 0.52676
# Poissons Ratio (y) = 1.15606 0.62146
# Poissons Ratio (z) = 0.27403 0.03159
#
# Static dielectric constant tensor:
#      x y z
#    x 1.706310 0.000000 0.000000 
#    y 0.000000 1.631140 0.000000 
#    z 0.000000 0.000000 1.696020 
# 
# From -- ./inp_files/40167.got.cif
#   From: 2010.05.17/outbox.cif.g08.bks.cpg/sg65_21_cif.got.tgz:40167.got - 2010.06.03 17:01:31.
