data_PCOD9493183
_publ_section_title
;
Structure prediction by ZEFSAII (Michael W. Deem and Ramdas Pophale) SiO2 
 PCOD9493183
Probable space group: C M M M
;
_chemical_formula_sum "Si O2"
_cell_formula_units_Z 112
_cell_length_a 14.452074
_cell_length_b 14.166487
_cell_length_c 27.671900
_cell_angle_alpha 90.000000
_cell_angle_beta 90.000000
_cell_angle_gamma 90.000000
_cell_volume 5665.409724
_symmetry_space_group_name_H-M "C M M M"
_symmetry_group_IT_number 65
_symmetry_cell_setting 'orthorhombic'
loop_
_space_group_symop_operation_xyz
x,y,z
-x,-y,z
x,-y,-z
-x,y,-z
-x,-y,-z
x,y,-z
-x,y,z
x,-y,z
1/2+x,1/2+y,z
1/2-x,1/2-y,z
1/2+x,1/2-y,-z
1/2-x,1/2+y,-z
1/2-x,1/2-y,-z
1/2+x,1/2+y,-z
1/2-x,1/2+y,z
1/2+x,1/2-y,z
loop_
_atom_site_type_symbol
_atom_site_label
_atom_site_fract_x
_atom_site_fract_y
_atom_site_fract_z
Si Si1 0.108357 0.397227 0.759985
Si Si2 0.112479 0.107588 0.210065
Si Si3 0.789595 0.608251 0.557636
Si Si4 0.612729 0.109009 0.054663
Si Si5 0.103457 0.791430 0.589235
Si Si6 0.886804 0.282737 0.148195
Si Si7 0.648198 0.277136 0.305097
O O1 0.147485 0.500000 0.748039
O O2 0.147166 0.352605 0.809234
O O3 0.112810 0.319691 0.718409
O O4 0.000000 0.408067 0.769928
O O5 0.138774 0.178873 0.166964
O O6 0.148752 0.148953 0.260963
O O7 0.000000 0.111484 0.214005
O O8 0.139923 0.000000 0.202105
O O9 0.803999 0.612072 0.500000
O O10 0.802664 0.500000 0.574074
O O11 0.859188 0.684427 0.581016
O O12 0.684561 0.642792 0.567963
O O13 0.500000 0.110996 0.054507
O O14 0.644623 0.179743 0.096415
O O15 0.638417 0.000000 0.065541
O O16 0.642985 0.131771 0.000000
O O17 0.098992 0.809810 0.646707
O O18 0.000000 0.803278 0.568854
O O19 0.000000 0.284909 0.147505
O O20 0.750000 0.250000 0.321501
#
# Coordination Sequence:
#
# PCOD9493183 Si02
#       7
#    16  16  16  16  16  16  16
#     4   9  17  29  46  68  94 127 166 205 251 313
#     4   9  18  32  49  68  92 129 176 217 254 307
#     4  10  23  43  64  91 124 154 192 241 287 335
#     4   8  12  17  29  54  87 121 157 200 255 317
#     4  11  22  40  64  89 119 156 194 235 286 343
#     4   8  13  23  39  58  85 122 163 206 253 308
#     4  11  21  35  51  74 108 138 170 216 269 320
#
# _framework density 19.769091
#
# number of rings (size 3 to 8) (size 9 to 14) (size 15 to 20)
#    0.000    2.571    1.429    3.857    0.000    5.143 
#    0.000    1.429    0.000    0.429    0.000    3.000 
#    0.000    9.143    0.000   11.429    0.000   11.429 
#
# Total GULP energy -312266.006885 kJ/mol
# GULP energy per Si atom -5576.178694 kJ/mol
# Density = 1.972410 g / cm^3
# Si number density = 19.769091 Si / 1000 Ang^3
#
#
#
# Elastic Constant Matrix: (Units=GPa)
#
#
# Indices 1 2 3 4 5 6 
#
# 1 51.2237 -22.9540 -11.2750 0.0000 0.0000 0.0000
# 2 -22.9540 91.8906 30.4376 0.0000 0.0000 0.0000
# 3 -11.2750 30.4376 91.9551 0.0000 0.0000 0.0000
# 4 0.0000 0.0000 0.0000 0.1439 0.0000 0.0000
# 5 0.0000 0.0000 0.0000 0.0000 16.5333 0.0000
# 6 0.0000 0.0000 0.0000 0.0000 0.0000 -27.4521
#
#
#
# Elastic Compliance Matrix: (Units=1/GPa)
#
#
# Indices 1 2 3 4 5 6 
#
# 1 0.022063 0.005183 0.000989 0.000000 0.000000 0.000000
# 2 0.005183 0.013440 -0.003813 0.000000 0.000000 0.000000
# 3 0.000989 -0.003813 0.012258 0.000000 0.000000 0.000000
# 4 0.000000 0.000000 0.000000 6.948825 0.000000 0.000000
# 5 0.000000 0.000000 0.000000 0.000000 0.060484 0.000000
# 6 0.000000 0.000000 0.000000 0.000000 0.000000 -0.036427
#
#
# Mechanical properties :
#
#
# Convention : Reuss Voigt Hill
#
# Bulk Modulus (GPa) = 19.05455 25.27630 22.16542
# Shear Modulus (GPa) = 0.71089 13.76907 7.23998
#
# Velocity S-wave (km/s) = 0.60032 2.64198 1.91578
# Velocity P-wave (km/s) = 3.18433 4.70322 4.01623
#
# Compressibility (1/GPa) = 0.05248091
#
# Stress axis : x y z
#
# Youngs Moduli (GPa) = 45.32518 74.40235 81.57664
#
# Poissons Ratio (x) = -0.38566 -0.08071
# Poissons Ratio (y) = -0.23494 0.31108
# Poissons Ratio (z) = -0.04485 0.28372
#
# Static dielectric constant tensor:
#      x y z
#    x 1.835570 0.000000 0.000000 
#    y 0.000000 1.695790 0.000000 
#    z 0.000000 0.000000 1.683950 
# 
# From -- ./inp_files/77721.got.cif
#   From: 2010.05.17/outbox.cif.g08.bks.cpg/sg65_39_cif.got.tgz:77721.got - 2010.06.03 17:01:31.
