data_PCOD9493629
_publ_section_title
;
Structure prediction by ZEFSAII (Michael W. Deem and Ramdas Pophale) SiO2 
 PCOD9493629
Probable space group: C M M M
;
_chemical_formula_sum "Si O2"
_cell_formula_units_Z 104
_cell_length_a 30.813080
_cell_length_b 9.323730
_cell_length_c 23.294686
_cell_angle_alpha 90.000000
_cell_angle_beta 90.000000
_cell_angle_gamma 90.000000
_cell_volume 6692.396460
_symmetry_space_group_name_H-M "C M M M"
_symmetry_group_IT_number 65
_symmetry_cell_setting 'orthorhombic'
loop_
_space_group_symop_operation_xyz
x,y,z
-x,-y,z
x,-y,-z
-x,y,-z
-x,-y,-z
x,y,-z
-x,y,z
x,-y,z
1/2+x,1/2+y,z
1/2-x,1/2-y,z
1/2+x,1/2-y,-z
1/2-x,1/2+y,-z
1/2-x,1/2-y,-z
1/2+x,1/2+y,-z
1/2-x,1/2+y,z
1/2+x,1/2-y,z
loop_
_atom_site_type_symbol
_atom_site_label
_atom_site_fract_x
_atom_site_fract_y
_atom_site_fract_z
Si Si1 0.619521 0.327736 0.277966
Si Si2 0.550633 0.672445 0.179251
Si Si3 0.409758 0.340819 0.595311
Si Si4 0.293650 0.827202 0.317077
Si Si5 0.447448 0.166111 0.063497
Si Si6 0.550896 0.846743 0.500000
Si Si7 0.308820 0.664249 0.565782
O O1 0.629414 0.500000 0.274754
O O2 0.586366 0.288385 0.227149
O O3 0.594492 0.305391 0.338000
O O4 0.664058 0.238381 0.284841
O O5 0.500000 0.715811 0.191779
O O6 0.550419 0.500000 0.175445
O O7 0.564259 0.739628 0.118283
O O8 0.428213 0.500000 0.589455
O O9 0.436072 0.233885 0.557173
O O10 0.360941 0.342378 0.570448
O O11 0.250000 0.750000 0.294502
O O12 0.296481 0.774077 0.383856
O O13 0.292220 0.000000 0.313558
O O14 0.500000 0.167739 0.061987
O O15 0.434278 0.000000 0.071091
O O16 0.432585 0.214860 0.000000
O O17 0.500000 0.859950 0.500000
O O18 0.573525 0.000000 0.500000
O O19 0.297281 0.701058 0.500000
O O20 0.293272 0.500000 0.578146
#
# Coordination Sequence:
#
# PCOD9493629 Si02
#       7
#    16  16  16  16  16   8  16
#     4   9  19  35  52  70  95 124 156 198 242 284
#     4   9  17  29  47  72 100 130 165 203 239 276
#     4   9  17  32  50  64  79 109 148 185 229 282
#     4  11  22  35  51  71  94 121 154 191 237 290
#     4   8  14  25  41  63  95 134 169 199 233 273
#     4  11  23  33  41  59  86 111 142 191 241 281
#     4   9  17  32  52  70  89 111 138 177 227 284
#
# _framework density 15.540024000000001
#
# number of rings (size 3 to 8) (size 9 to 14) (size 15 to 20)
#    0.000    2.692    0.769    3.000    0.000    5.231 
#    0.000    3.077    0.000    1.846    0.000    0.000 
#    0.000    0.615    0.000    2.000    0.000    2.923 
#
# Total GULP energy -289517.063849 kJ/mol
# GULP energy per Si atom -5567.635843 kJ/mol
# Density = 1.550465 g / cm^3
# Si number density = 15.540024 Si / 1000 Ang^3
#
#
#
# Elastic Constant Matrix: (Units=GPa)
#
#
# Indices 1 2 3 4 5 6 
#
# 1 69.2991 52.0751 54.2154 0.0000 0.0000 0.0000
# 2 52.0751 77.8111 57.4276 0.0000 0.0000 0.0000
# 3 54.2154 57.4276 118.6877 0.0000 0.0000 0.0000
# 4 0.0000 0.0000 0.0000 14.2321 0.0000 0.0000
# 5 0.0000 0.0000 0.0000 0.0000 -15.1735 0.0000
# 6 0.0000 0.0000 0.0000 0.0000 0.0000 15.6963
#
#
#
# Elastic Compliance Matrix: (Units=1/GPa)
#
#
# Indices 1 2 3 4 5 6 
#
# 1 0.032068 -0.016566 -0.006633 0.000000 0.000000 0.000000
# 2 -0.016566 0.028548 -0.006246 0.000000 0.000000 0.000000
# 3 -0.006633 -0.006246 0.014477 0.000000 0.000000 0.000000
# 4 0.000000 0.000000 0.000000 0.070264 0.000000 0.000000
# 5 0.000000 0.000000 0.000000 0.000000 -0.065904 0.000000
# 6 0.000000 0.000000 0.000000 0.000000 0.000000 0.063709
#
#
# Mechanical properties :
#
#
# Convention : Reuss Voigt Hill
#
# Bulk Modulus (GPa) = 61.71366 65.91491 63.81428
# Shear Modulus (GPa) = 24.10179 9.75631 16.92905
#
# Velocity S-wave (km/s) = 3.94248 2.50835 3.30416
# Velocity P-wave (km/s) = 7.77966 7.13424 7.46393
#
# Compressibility (1/GPa) = 0.01620387
#
# Stress axis : x y z
#
# Youngs Moduli (GPa) = 31.18361 35.02819 69.07350
#
# Poissons Ratio (x) = 0.58029 0.45814
# Poissons Ratio (y) = 0.51660 0.43143
# Poissons Ratio (z) = 0.20683 0.21878
#
# Static dielectric constant tensor:
#      x y z
#    x 1.527510 0.000000 0.000000 
#    y 0.000000 1.560530 0.000000 
#    z 0.000000 0.000000 1.505710 
# 
# From -- ./inp_files/71814.got.cif
#   From: 2010.05.17/outbox.cif.g08.bks.cpg/sg65_36_cif.got.tgz:71814.got - 2010.06.03 17:01:31.
