data_PCOD9493307
_publ_section_title
;
Structure prediction by ZEFSAII (Michael W. Deem and Ramdas Pophale) SiO2 
 PCOD9493307
Probable space group: C M M M
;
_chemical_formula_sum "Si O2"
_cell_formula_units_Z 80
_cell_length_a 11.291096
_cell_length_b 30.247728
_cell_length_c 13.567914
_cell_angle_alpha 90.000000
_cell_angle_beta 90.000000
_cell_angle_gamma 90.000000
_cell_volume 4633.849677
_symmetry_space_group_name_H-M "C M M M"
_symmetry_group_IT_number 65
_symmetry_cell_setting 'orthorhombic'
loop_
_space_group_symop_operation_xyz
x,y,z
-x,-y,z
x,-y,-z
-x,y,-z
-x,-y,-z
x,y,-z
-x,y,z
x,-y,z
1/2+x,1/2+y,z
1/2-x,1/2-y,z
1/2+x,1/2-y,-z
1/2-x,1/2+y,-z
1/2-x,1/2-y,-z
1/2+x,1/2+y,-z
1/2-x,1/2+y,z
1/2+x,1/2-y,z
loop_
_atom_site_type_symbol
_atom_site_label
_atom_site_fract_x
_atom_site_fract_y
_atom_site_fract_z
Si Si1 0.139037 0.325611 0.110327
Si Si2 0.000000 0.946866 0.117926
Si Si3 0.253520 0.587099 0.196071
Si Si4 0.140066 0.500000 0.889469
Si Si5 0.636693 0.779183 0.314859
Si Si6 0.636854 0.120583 0.386326
O O1 0.211898 0.369470 0.136629
O O2 0.152896 0.290738 0.198630
O O3 0.000000 0.338243 0.112549
O O4 0.167190 0.309727 0.000000
O O5 0.886157 0.925177 0.168012
O O6 0.000000 0.000000 0.132642
O O7 0.000000 0.939110 0.000000
O O8 0.179804 0.544315 0.163958
O O9 0.224703 0.597962 0.309419
O O10 0.000000 0.500000 0.896754
O O11 0.193532 0.500000 0.000000
O O12 0.500000 0.762183 0.328853
O O13 0.750000 0.750000 0.345504
O O14 0.642803 0.826578 0.369031
O O15 0.660262 0.110274 0.500000
O O16 0.500000 0.108031 0.362766
#
# Coordination Sequence:
#
# PCOD9493307 Si02
#       6
#    16   8  16   8  16  16
#     4   9  17  31  51  74 103 139 175 219 273 323
#     4  11  22  36  53  75 111 155 182 208 258 320
#     4  11  20  34  53  75 107 140 181 221 260 315
#     4  11  20  29  50  82 107 129 169 224 268 310
#     4   9  18  33  53  78 108 138 175 219 269 327
#     4   9  19  38  61  81 104 137 177 225 281 324
#
# _framework density 17.264264000000001
#
# number of rings (size 3 to 8) (size 9 to 14) (size 15 to 20)
#    0.000    2.200    1.000    4.800    0.000    2.400 
#    7.200    1.000    0.000    2.400    0.000    0.000 
#    0.000    0.000    0.000    0.000    0.000    0.000 
#
# Total GULP energy -223020.878991 kJ/mol
# GULP energy per Si atom -5575.521975 kJ/mol
# Density = 1.722497 g / cm^3
# Si number density = 17.264264 Si / 1000 Ang^3
#
#
#
# Elastic Constant Matrix: (Units=GPa)
#
#
# Indices 1 2 3 4 5 6 
#
# 1 128.3927 49.0139 41.2604 0.0000 0.0000 0.0000
# 2 49.0139 43.8490 13.9793 0.0000 0.0000 0.0000
# 3 41.2604 13.9793 96.8468 0.0000 0.0000 0.0000
# 4 0.0000 0.0000 0.0000 3.6534 0.0000 0.0000
# 5 0.0000 0.0000 0.0000 0.0000 21.9060 0.0000
# 6 0.0000 0.0000 0.0000 0.0000 0.0000 46.4824
#
#
#
# Elastic Compliance Matrix: (Units=1/GPa)
#
#
# Indices 1 2 3 4 5 6 
#
# 1 0.015039 -0.015480 -0.004173 0.000000 0.000000 0.000000
# 2 -0.015480 0.039840 0.000845 0.000000 0.000000 0.000000
# 3 -0.004173 0.000845 0.011981 0.000000 0.000000 0.000000
# 4 0.000000 0.000000 0.000000 0.273717 0.000000 0.000000
# 5 0.000000 0.000000 0.000000 0.000000 0.045650 0.000000
# 6 0.000000 0.000000 0.000000 0.000000 0.000000 0.021514
#
#
# Mechanical properties :
#
#
# Convention : Reuss Voigt Hill
#
# Bulk Modulus (GPa) = 34.19565 53.06620 43.63093
# Shear Modulus (GPa) = 10.98645 25.39735 18.19190
#
# Velocity S-wave (km/s) = 2.52537 3.83965 3.24965
# Velocity P-wave (km/s) = 5.32480 7.10363 6.27754
#
# Compressibility (1/GPa) = 0.02924348
#
# Stress axis : x y z
#
# Youngs Moduli (GPa) = 66.49304 25.10040 83.46251
#
# Poissons Ratio (x) = 0.38856 0.34827
# Poissons Ratio (y) = 1.02933 -0.07048
# Poissons Ratio (z) = 0.27746 -0.02120
#
# Static dielectric constant tensor:
#      x y z
#    x 1.565210 0.000000 0.000000 
#    y 0.000000 1.561530 0.000000 
#    z 0.000000 0.000000 1.605980 
# 
# From -- ./inp_files/38319.got.cif
#   From: 2010.05.17/outbox.cif.g08.bks.cpg/sg65_20_cif.got.tgz:38319.got - 2010.06.03 17:01:31.
