data_PCOD9493592
_publ_section_title
;
Structure prediction by ZEFSAII (Michael W. Deem and Ramdas Pophale) SiO2 
 PCOD9493592
Probable space group: C M M M
;
_chemical_formula_sum "Si O2"
_cell_formula_units_Z 72
_cell_length_a 7.683408
_cell_length_b 18.878248
_cell_length_c 24.861463
_cell_angle_alpha 90.000000
_cell_angle_beta 90.000000
_cell_angle_gamma 90.000000
_cell_volume 3606.137350
_symmetry_space_group_name_H-M "C M M M"
_symmetry_group_IT_number 65
_symmetry_cell_setting 'orthorhombic'
loop_
_space_group_symop_operation_xyz
x,y,z
-x,-y,z
x,-y,-z
-x,y,-z
-x,-y,-z
x,y,-z
-x,y,z
x,-y,z
1/2+x,1/2+y,z
1/2-x,1/2-y,z
1/2+x,1/2-y,-z
1/2-x,1/2+y,-z
1/2-x,1/2-y,-z
1/2+x,1/2+y,-z
1/2-x,1/2+y,z
1/2+x,1/2-y,z
loop_
_atom_site_type_symbol
_atom_site_label
_atom_site_fract_x
_atom_site_fract_y
_atom_site_fract_z
Si Si1 0.794071 0.832289 0.279852
Si Si2 0.703051 0.413823 0.500000
Si Si3 0.286397 0.582401 0.617173
Si Si4 0.791462 0.419428 0.173972
Si Si5 0.293263 0.085874 0.942170
O O1 0.750000 0.750000 0.278949
O O2 0.722560 0.871416 0.332915
O O3 0.742092 0.870918 0.224948
O O4 0.000000 0.839113 0.283466
O O5 0.707294 0.500000 0.500000
O O6 0.500000 0.392663 0.500000
O O7 0.776089 0.392510 0.558119
O O8 0.500000 0.583930 0.615575
O O9 0.238239 0.500000 0.624731
O O10 0.726287 0.500000 0.183072
O O11 0.723475 0.391230 0.116141
O O12 0.000000 0.424240 0.168039
O O13 0.500000 0.102063 0.943482
O O14 0.278706 0.000000 0.941165
O O15 0.219535 0.110042 0.000000
#
# Coordination Sequence:
#
# PCOD9493592 Si02
#       5
#    16   8  16  16  16
#     4  11  22  34  47  65  94 129 164 200 237 277
#     4   7  10  20  41  68  93 113 140 183 230 275
#     4   8  14  26  46  70  92 116 149 189 232 278
#     4   9  17  30  50  75  99 123 154 191 232 280
#     4   7  10  19  39  68  97 120 144 179 224 274
#
# _framework density 19.965962999999999
#
# number of rings (size 3 to 8) (size 9 to 14) (size 15 to 20)
#    0.000    3.444    0.000    4.667    0.000    1.333 
#    0.000    0.556    0.000    1.333    0.000    5.444 
#    0.000   12.444    0.000    0.000    0.000    0.000 
#
# Total GULP energy -200411.388887 kJ/mol
# GULP energy per Si atom -5566.983025 kJ/mol
# Density = 1.992052 g / cm^3
# Si number density = 19.965963 Si / 1000 Ang^3
#
#
#
# Elastic Constant Matrix: (Units=GPa)
#
#
# Indices 1 2 3 4 5 6 
#
# 1 35.1082 1.1083 11.6215 0.0000 0.0000 0.0000
# 2 1.1083 72.2863 97.6086 0.0000 0.0000 0.0000
# 3 11.6215 97.6086 278.8262 0.0000 0.0000 0.0000
# 4 0.0000 0.0000 0.0000 -5.1578 0.0000 0.0000
# 5 0.0000 0.0000 0.0000 0.0000 6.5588 0.0000
# 6 0.0000 0.0000 0.0000 0.0000 0.0000 707.5253
#
#
#
# Elastic Compliance Matrix: (Units=1/GPa)
#
#
# Indices 1 2 3 4 5 6 
#
# 1 0.029075 0.002258 -0.002002 0.000000 0.000000 0.000000
# 2 0.002258 0.026411 -0.009340 0.000000 0.000000 0.000000
# 3 -0.002002 -0.009340 0.006939 0.000000 0.000000 0.000000
# 4 0.000000 0.000000 0.000000 -0.193882 0.000000 0.000000
# 5 0.000000 0.000000 0.000000 0.000000 0.152466 0.000000
# 6 0.000000 0.000000 0.000000 0.000000 0.000000 0.001413
#
#
# Mechanical properties :
#
#
# Convention : Reuss Voigt Hill
#
# Bulk Modulus (GPa) = 22.59533 67.43305 45.01419
# Shear Modulus (GPa) = 90.34507 160.17741 125.26124
#
# Velocity S-wave (km/s) = 6.73408 8.96657 7.92929
# Velocity P-wave (km/s) = 8.47379 11.87630 10.31629
#
# Compressibility (1/GPa) = 0.04425693
#
# Stress axis : x y z
#
# Youngs Moduli (GPa) = 34.39390 37.86341 144.10337
#
# Poissons Ratio (x) = -0.08549 0.28853
# Poissons Ratio (y) = -0.07766 1.34588
# Poissons Ratio (z) = 0.06887 0.35363
#
# Static dielectric constant tensor:
#      x y z
#    x 1.761090 0.000000 0.000000 
#    y 0.000000 1.632070 0.000000 
#    z 0.000000 0.000000 1.796210 
# 
# From -- ./inp_files/67133.got.cif
#   From: 2010.05.17/outbox.cif.g08.bks.cpg/sg65_34_cif.got.tgz:67133.got - 2010.06.03 17:01:31.
