data_PCOD9493172
_publ_section_title
;
Structure prediction by ZEFSAII (Michael W. Deem and Ramdas Pophale) SiO2 
 PCOD9493172
Probable space group: C M M M
;
_chemical_formula_sum "Si O2"
_cell_formula_units_Z 66
_cell_length_a 14.829760
_cell_length_b 7.304869
_cell_length_c 28.359354
_cell_angle_alpha 90.000000
_cell_angle_beta 90.000000
_cell_angle_gamma 90.000000
_cell_volume 3072.153337
_symmetry_space_group_name_H-M "C M M M"
_symmetry_group_IT_number 65
_symmetry_cell_setting 'orthorhombic'
loop_
_space_group_symop_operation_xyz
x,y,z
-x,-y,z
x,-y,-z
-x,y,-z
-x,-y,-z
x,y,-z
-x,y,z
x,-y,z
1/2+x,1/2+y,z
1/2-x,1/2-y,z
1/2+x,1/2-y,-z
1/2-x,1/2+y,-z
1/2-x,1/2-y,-z
1/2+x,1/2+y,-z
1/2-x,1/2+y,z
1/2+x,1/2-y,z
loop_
_atom_site_type_symbol
_atom_site_label
_atom_site_fract_x
_atom_site_fract_y
_atom_site_fract_z
Si Si1 0.143470 0.281719 0.628896
Si Si2 0.500000 0.500000 0.000000
Si Si3 0.356675 0.782437 0.833991
Si Si4 0.000000 0.276245 0.553855
Si Si5 0.000000 0.723390 0.088627
Si Si6 0.357970 0.782004 0.731509
O O1 0.130475 0.500000 0.630795
O O2 0.250000 0.250000 0.623629
O O3 0.086010 0.216435 0.584665
O O4 0.112144 0.210890 0.680413
O O5 0.500000 0.660803 0.958647
O O6 0.250000 0.750000 0.839524
O O7 0.414319 0.724247 0.878704
O O8 0.387720 0.710013 0.782585
O O9 0.369787 0.000000 0.831409
O O10 0.000000 0.500000 0.552332
O O11 0.000000 0.214073 0.500000
O O12 0.000000 0.500000 0.081123
O O13 0.250000 0.750000 0.731519
O O14 0.375501 0.000000 0.731458
#
# Coordination Sequence:
#
# PCOD9493172 Si02
#       6
#    16   2  16   8   8  16
#     4   9  17  30  49  71  99 133 171 213 264 322
#     4  12  26  44  68  82 116 154 198 240 278 322
#     4   9  18  33  57  84 115 142 176 221 272 334
#     4   9  18  31  46  67  94 131 179 228 265 310
#     4  10  23  42  63  86 115 150 189 239 283 323
#     4   8  14  26  46  76 105 135 166 207 263 322
#
# _framework density 21.483301999999998
#
# number of rings (size 3 to 8) (size 9 to 14) (size 15 to 20)
#    0.000    3.030    0.000    0.182    1.697    1.455 
#    0.000    6.061    0.000    0.727    0.000    0.000 
#    0.000    0.000    0.000    0.000    0.000    0.000 
#
# Total GULP energy -183752.067111 kJ/mol
# GULP energy per Si atom -5568.244458 kJ/mol
# Density = 2.143441 g / cm^3
# Si number density = 21.483302 Si / 1000 Ang^3
#
#
#
# Elastic Constant Matrix: (Units=GPa)
#
#
# Indices 1 2 3 4 5 6 
#
# 1 104.8721 4.2168 99.4368 0.0000 0.0000 0.0000
# 2 4.2168 107.6928 42.9222 0.0000 0.0000 0.0000
# 3 99.4368 42.9222 302.0289 0.0000 0.0000 0.0000
# 4 0.0000 0.0000 0.0000 -1.9414 0.0000 0.0000
# 5 0.0000 0.0000 0.0000 0.0000 -1.4434 0.0000
# 6 0.0000 0.0000 0.0000 0.0000 0.0000 7.1241
#
#
#
# Elastic Compliance Matrix: (Units=1/GPa)
#
#
# Indices 1 2 3 4 5 6 
#
# 1 0.014051 0.001371 -0.004821 0.000000 0.000000 0.000000
# 2 0.001371 0.009977 -0.001869 0.000000 0.000000 0.000000
# 3 -0.004821 -0.001869 0.005164 0.000000 0.000000 0.000000
# 4 0.000000 0.000000 0.000000 -0.515098 0.000000 0.000000
# 5 0.000000 0.000000 0.000000 0.000000 -0.692797 0.000000
# 6 0.000000 0.000000 0.000000 0.000000 0.000000 0.140369
#
#
# Mechanical properties :
#
#
# Convention : Reuss Voigt Hill
#
# Bulk Modulus (GPa) = 53.89630 89.74948 71.82289
# Shear Modulus (GPa) = -4.89471 25.28239 10.19384
#
# Velocity S-wave (km/s) = -1.51107 3.43423 2.18067
# Velocity P-wave (km/s) = 4.70080 7.58896 6.31229
#
# Compressibility (1/GPa) = 0.01855415
#
# Stress axis : x y z
#
# Youngs Moduli (GPa) = 71.16698 100.23034 193.65497
#
# Poissons Ratio (x) = -0.13744 0.93362
# Poissons Ratio (y) = -0.09759 0.36201
# Poissons Ratio (z) = 0.34310 0.18736
#
# Static dielectric constant tensor:
#      x y z
#    x 1.785820 0.000000 0.000000 
#    y 0.000000 1.807210 0.000000 
#    z 0.000000 0.000000 1.775110 
# 
# From -- ./inp_files/74559.got.cif
#   From: 2010.05.17/outbox.cif.g08.bks.cpg/sg65_38_cif.got.tgz:74559.got - 2010.06.03 17:01:31.
