data_PCOD9493839
_publ_section_title
;
Structure prediction by ZEFSAII (Michael W. Deem and Ramdas Pophale) SiO2 
 PCOD9493839
Probable space group: C M M M
;
_chemical_formula_sum "Si O2"
_cell_formula_units_Z 116
_cell_length_a 18.128824
_cell_length_b 24.555312
_cell_length_c 13.243303
_cell_angle_alpha 90.000000
_cell_angle_beta 90.000000
_cell_angle_gamma 90.000000
_cell_volume 5895.374587
_symmetry_space_group_name_H-M "C M M M"
_symmetry_group_IT_number 65
_symmetry_cell_setting 'orthorhombic'
loop_
_space_group_symop_operation_xyz
x,y,z
-x,-y,z
x,-y,-z
-x,y,-z
-x,-y,-z
x,y,-z
-x,y,z
x,-y,z
1/2+x,1/2+y,z
1/2-x,1/2-y,z
1/2+x,1/2-y,-z
1/2-x,1/2+y,-z
1/2-x,1/2-y,-z
1/2+x,1/2+y,-z
1/2-x,1/2+y,z
1/2+x,1/2-y,z
loop_
_atom_site_type_symbol
_atom_site_label
_atom_site_fract_x
_atom_site_fract_y
_atom_site_fract_z
Si Si1 0.622597 0.906094 0.169063
Si Si2 0.086190 0.130884 0.614120
Si Si3 0.413268 0.217977 0.884581
Si Si4 0.224497 0.876150 0.888746
Si Si5 0.416638 0.435393 0.185929
Si Si6 0.685627 0.286533 0.270492
Si Si7 0.500000 0.000000 0.134265
Si Si8 0.588832 0.934860 0.612389
O O1 0.598295 0.846676 0.130857
O O2 0.705271 0.914752 0.129518
O O3 0.564517 0.952206 0.137283
O O4 0.623504 0.906415 0.291355
O O5 0.103531 0.113523 0.500000
O O6 0.094927 0.084027 0.698305
O O7 0.136863 0.180537 0.649954
O O8 0.000000 0.147084 0.617209
O O9 0.500000 0.230077 0.872129
O O10 0.366663 0.250918 0.802474
O O11 0.392142 0.232044 0.000000
O O12 0.147234 0.907108 0.877428
O O13 0.224415 0.830243 0.803373
O O14 0.231077 0.851877 0.000000
O O15 0.500000 0.418325 0.156651
O O16 0.411983 0.500000 0.177937
O O17 0.750000 0.250000 0.316646
O O18 0.612126 0.917446 0.500000
O O19 0.500000 0.928080 0.619570
O O20 0.601536 0.000000 0.621124
#
# Coordination Sequence:
#
# PCOD9493839 Si02
#       8
#    16  16  16  16  16  16   4  16
#     4  12  21  39  58  87 123 163 206 254 301 366
#     4   9  19  38  64  93 123 158 199 244 305 377
#     4  11  23  39  61  88 118 157 209 259 306 368
#     4  11  25  41  61  89 122 163 212 261 314 371
#     4   9  20  40  64  92 125 160 200 251 309 372
#     4  11  22  40  63  86 117 159 198 266 319 366
#     4  12  24  40  62  84 130 176 204 254 304 362
#     4   9  16  31  56  80 107 152 203 246 293 347
#
# _framework density 19.676442999999999
#
# number of rings (size 3 to 8) (size 9 to 14) (size 15 to 20)
#    0.000    1.655    3.448    1.655    0.966    2.207 
#    0.000    7.931    0.000    2.483    0.000    0.000 
#    0.000    0.000    0.000    0.000    0.000    0.000 
#
# Total GULP energy -323350.177137 kJ/mol
# GULP energy per Si atom -5575.003054 kJ/mol
# Density = 1.963166 g / cm^3
# Si number density = 19.676443 Si / 1000 Ang^3
#
#
#
# Elastic Constant Matrix: (Units=GPa)
#
#
# Indices 1 2 3 4 5 6 
#
# 1 81.7110 15.6218 3.0502 0.0000 0.0000 0.0000
# 2 15.6218 36.1034 -24.4422 0.0000 0.0000 0.0000
# 3 3.0502 -24.4422 55.9896 0.0000 0.0000 0.0000
# 4 0.0000 0.0000 0.0000 44.7517 0.0000 0.0000
# 5 0.0000 0.0000 0.0000 0.0000 17.3046 0.0000
# 6 0.0000 0.0000 0.0000 0.0000 0.0000 34.8090
#
#
#
# Elastic Compliance Matrix: (Units=1/GPa)
#
#
# Indices 1 2 3 4 5 6 
#
# 1 0.014236 -0.009490 -0.004918 0.000000 0.000000 0.000000
# 2 -0.009490 0.045644 0.020443 0.000000 0.000000 0.000000
# 3 -0.004918 0.020443 0.027053 0.000000 0.000000 0.000000
# 4 0.000000 0.000000 0.000000 0.022346 0.000000 0.000000
# 5 0.000000 0.000000 0.000000 0.000000 0.057788 0.000000
# 6 0.000000 0.000000 0.000000 0.000000 0.000000 0.028728
#
#
# Mechanical properties :
#
#
# Convention : Reuss Voigt Hill
#
# Bulk Modulus (GPa) = 10.10065 18.02928 14.06497
# Shear Modulus (GPa) = 23.07065 31.34468 27.20766
#
# Velocity S-wave (km/s) = 3.42789 3.99558 3.72257
# Velocity P-wave (km/s) = 4.56200 5.51987 5.06363
#
# Compressibility (1/GPa) = 0.09900349
#
# Stress axis : x y z
#
# Youngs Moduli (GPa) = 70.24401 21.90856 36.96482
#
# Poissons Ratio (x) = 0.20790 0.18180
# Poissons Ratio (y) = 0.66658 -0.75567
# Poissons Ratio (z) = 0.34547 -0.44788
#
# Static dielectric constant tensor:
#      x y z
#    x 1.702640 0.000000 0.000000 
#    y 0.000000 1.660290 0.000000 
#    z 0.000000 0.000000 1.698430 
# 
# From -- ./inp_files/43169.got.cif
#   From: 2010.05.17/outbox.cif.g08.bks.cpg/sg65_22_cif.got.tgz:43169.got - 2010.06.03 17:01:31.
