data_PCOD9493727
_publ_section_title
;
Structure prediction by ZEFSAII (Michael W. Deem and Ramdas Pophale) SiO2 
 PCOD9493727
Probable space group: C M M M
;
_chemical_formula_sum "Si O2"
_cell_formula_units_Z 72
_cell_length_a 8.641483
_cell_length_b 15.258336
_cell_length_c 26.502153
_cell_angle_alpha 90.000000
_cell_angle_beta 90.000000
_cell_angle_gamma 90.000000
_cell_volume 3494.432139
_symmetry_space_group_name_H-M "C M M M"
_symmetry_group_IT_number 65
_symmetry_cell_setting 'orthorhombic'
loop_
_space_group_symop_operation_xyz
x,y,z
-x,-y,z
x,-y,-z
-x,y,-z
-x,-y,-z
x,y,-z
-x,y,z
x,-y,z
1/2+x,1/2+y,z
1/2-x,1/2-y,z
1/2+x,1/2-y,-z
1/2-x,1/2+y,-z
1/2-x,1/2-y,-z
1/2+x,1/2+y,-z
1/2-x,1/2+y,z
1/2+x,1/2-y,z
loop_
_atom_site_type_symbol
_atom_site_label
_atom_site_fract_x
_atom_site_fract_y
_atom_site_fract_z
Si Si1 0.325023 0.895891 0.162126
Si Si2 0.311692 0.896342 0.945829
Si Si3 0.317359 0.347438 0.266503
Si Si4 0.185432 0.000000 0.559156
Si Si5 0.815598 0.349221 0.629075
O O1 0.500000 0.860668 0.170892
O O2 0.259691 0.860619 0.108684
O O3 0.225669 0.884741 0.212076
O O4 0.339496 0.000000 0.154453
O O5 0.500000 0.891352 0.944493
O O6 0.272035 0.000000 0.947420
O O7 0.259281 0.858716 0.000000
O O8 0.500000 0.348021 0.274113
O O9 0.250000 0.250000 0.264747
O O10 0.238248 0.386567 0.316358
O O11 0.252463 0.914109 0.586558
O O12 0.224318 0.000000 0.500000
O O13 0.000000 0.000000 0.564493
O O14 0.750000 0.250000 0.623867
O O15 0.000000 0.345082 0.627817
#
# Coordination Sequence:
#
# PCOD9493727 Si02
#       5
#    16  16  16   8  16
#     4   9  17  29  48  76 107 137 176 224 278 340
#     4   7  10  19  38  65  96 130 169 216 269 328
#     4  11  22  37  56  78 109 146 188 234 286 346
#     4  11  25  45  69  99 133 169 210 253 298 351
#     4  11  23  42  67  94 127 166 209 256 307 363
#
# _framework density 20.604205
#
# number of rings (size 3 to 8) (size 9 to 14) (size 15 to 20)
#    0.000    2.333    0.000    7.667    1.556    1.778 
#    0.000    0.000    0.000    1.333    0.000    3.111 
#    0.000    0.000    0.000    0.000    0.000    0.000 
#
# Total GULP energy -200739.022638 kJ/mol
# GULP energy per Si atom -5576.083962 kJ/mol
# Density = 2.055731 g / cm^3
# Si number density = 20.604205 Si / 1000 Ang^3
#
#
#
# Elastic Constant Matrix: (Units=GPa)
#
#
# Indices 1 2 3 4 5 6 
#
# 1 108.9431 24.4013 77.0194 0.0000 0.0000 0.0000
# 2 24.4013 63.9103 55.9736 0.0000 0.0000 0.0000
# 3 77.0194 55.9736 219.9450 0.0000 0.0000 0.0000
# 4 0.0000 0.0000 0.0000 107.2789 0.0000 0.0000
# 5 0.0000 0.0000 0.0000 0.0000 87.9591 0.0000
# 6 0.0000 0.0000 0.0000 0.0000 0.0000 20.3998
#
#
#
# Elastic Compliance Matrix: (Units=1/GPa)
#
#
# Indices 1 2 3 4 5 6 
#
# 1 0.012269 -0.001186 -0.003994 0.000000 0.000000 0.000000
# 2 -0.001186 0.020249 -0.004738 0.000000 0.000000 0.000000
# 3 -0.003994 -0.004738 0.007151 0.000000 0.000000 0.000000
# 4 0.000000 0.000000 0.000000 0.009321 0.000000 0.000000
# 5 0.000000 0.000000 0.000000 0.000000 0.011369 0.000000
# 6 0.000000 0.000000 0.000000 0.000000 0.000000 0.049020
#
#
# Mechanical properties :
#
#
# Convention : Reuss Voigt Hill
#
# Bulk Modulus (GPa) = 50.42215 78.62075 64.52145
# Shear Modulus (GPa) = 36.81157 58.82116 47.81636
#
# Velocity S-wave (km/s) = 4.23141 5.34884 4.82260
# Velocity P-wave (km/s) = 6.95687 8.73998 7.89890
#
# Compressibility (1/GPa) = 0.01983255
#
# Stress axis : x y z
#
# Youngs Moduli (GPa) = 81.50875 49.38447 139.83900
#
# Poissons Ratio (x) = 0.05856 0.55857
# Poissons Ratio (y) = 0.09666 0.66255
# Poissons Ratio (z) = 0.32558 0.23398
#
# Static dielectric constant tensor:
#      x y z
#    x 1.708150 0.000000 0.000000 
#    y 0.000000 1.767130 0.000000 
#    z 0.000000 0.000000 1.814850 
# 
# From -- ./inp_files/67128.got.cif
#   From: 2010.05.17/outbox.cif.g08.bks.cpg/sg65_34_cif.got.tgz:67128.got - 2010.06.03 17:01:31.
