data_PCOD9493467
_publ_section_title
;
Structure prediction by ZEFSAII (Michael W. Deem and Ramdas Pophale) SiO2 
 PCOD9493467
Probable space group: C M M M
;
_chemical_formula_sum "Si O2"
_cell_formula_units_Z 72
_cell_length_a 26.526098
_cell_length_b 8.542098
_cell_length_c 15.546083
_cell_angle_alpha 90.000000
_cell_angle_beta 90.000000
_cell_angle_gamma 90.000000
_cell_volume 3522.564074
_symmetry_space_group_name_H-M "C M M M"
_symmetry_group_IT_number 65
_symmetry_cell_setting 'orthorhombic'
loop_
_space_group_symop_operation_xyz
x,y,z
-x,-y,z
x,-y,-z
-x,y,-z
-x,-y,-z
x,y,-z
-x,y,z
x,-y,z
1/2+x,1/2+y,z
1/2-x,1/2-y,z
1/2+x,1/2-y,-z
1/2-x,1/2+y,-z
1/2-x,1/2-y,-z
1/2+x,1/2+y,-z
1/2-x,1/2+y,z
1/2+x,1/2-y,z
loop_
_atom_site_type_symbol
_atom_site_label
_atom_site_fract_x
_atom_site_fract_y
_atom_site_fract_z
Si Si1 0.921824 0.685929 0.905594
Si Si2 0.313011 0.675064 0.902361
Si Si3 0.500000 0.187378 0.601194
Si Si4 0.802800 0.320726 0.269664
Si Si5 0.083765 0.186557 0.274514
O O1 0.910091 0.500000 0.900866
O O2 0.872310 0.792801 0.909291
O O3 0.940752 0.735226 0.811597
O O4 0.946663 0.707540 0.000000
O O5 0.304085 0.500000 0.867833
O O6 0.297001 0.805014 0.834234
O O7 0.294744 0.682535 0.000000
O O8 0.500000 0.221529 0.500000
O O9 0.549390 0.258105 0.646817
O O10 0.500000 0.000000 0.613140
O O11 0.806999 0.500000 0.295397
O O12 0.750000 0.250000 0.304786
O O13 0.857228 0.238631 0.285626
O O14 0.082271 0.000000 0.265482
#
# Coordination Sequence:
#
# PCOD9493467 Si02
#       5
#    16  16   8  16  16
#     4   9  16  28  49  78 115 160 206 249 294 348
#     4   9  16  26  41  65 101 147 200 253 300 346
#     4  11  25  47  74  99 122 151 191 242 300 361
#     4  11  21  34  53  79 115 158 203 247 296 355
#     4  11  22  38  62  92 126 161 201 251 304 359
#
# _framework density 20.439654999999998
#
# number of rings (size 3 to 8) (size 9 to 14) (size 15 to 20)
#    0.000    1.889    0.000    8.333    0.000    4.000 
#    0.000    0.556    0.000    4.000    0.000    0.000 
#    0.000    0.000    0.000    0.000    0.000    0.000 
#
# Total GULP energy -200486.557934 kJ/mol
# GULP energy per Si atom -5569.071054 kJ/mol
# Density = 2.039313 g / cm^3
# Si number density = 20.439655 Si / 1000 Ang^3
#
#
#
# Elastic Constant Matrix: (Units=GPa)
#
#
# Indices 1 2 3 4 5 6 
#
# 1 134.3826 50.5588 45.2685 0.0000 0.0000 0.0000
# 2 50.5588 136.5877 51.1391 0.0000 0.0000 0.0000
# 3 45.2685 51.1391 102.7645 0.0000 0.0000 0.0000
# 4 0.0000 0.0000 0.0000 22.9005 0.0000 0.0000
# 5 0.0000 0.0000 0.0000 0.0000 -40.0120 0.0000
# 6 0.0000 0.0000 0.0000 0.0000 0.0000 21.1478
#
#
#
# Elastic Compliance Matrix: (Units=1/GPa)
#
#
# Indices 1 2 3 4 5 6 
#
# 1 0.009313 -0.002349 -0.002934 0.000000 0.000000 0.000000
# 2 -0.002349 0.009590 -0.003738 0.000000 0.000000 0.000000
# 3 -0.002934 -0.003738 0.012883 0.000000 0.000000 0.000000
# 4 0.000000 0.000000 0.000000 0.043667 0.000000 0.000000
# 5 0.000000 0.000000 0.000000 0.000000 -0.024992 0.000000
# 6 0.000000 0.000000 0.000000 0.000000 0.000000 0.047286
#
#
# Mechanical properties :
#
#
# Convention : Reuss Voigt Hill
#
# Bulk Modulus (GPa) = 72.74738 74.18531 73.46634
# Shear Modulus (GPa) = 41.53837 15.92515 28.73176
#
# Velocity S-wave (km/s) = 4.51293 2.79432 3.75332
# Velocity P-wave (km/s) = 7.92616 6.83992 7.40299
#
# Compressibility (1/GPa) = 0.01374620
#
# Stress axis : x y z
#
# Youngs Moduli (GPa) = 107.37126 104.27296 77.62004
#
# Poissons Ratio (x) = 0.24494 0.22771
# Poissons Ratio (y) = 0.25222 0.29012
# Poissons Ratio (z) = 0.31499 0.38973
#
# Static dielectric constant tensor:
#      x y z
#    x 1.857040 0.000000 0.000000 
#    y 0.000000 1.693970 0.000000 
#    z 0.000000 0.000000 1.750820 
# 
# From -- ./inp_files/47473.got.cif
#   From: 2010.05.17/outbox.cif.g08.bks.cpg/sg65_24_cif.got.tgz:47473.got - 2010.06.03 17:01:31.
