data_PCOD9493042
_publ_section_title
;
Structure prediction by ZEFSAII (Michael W. Deem and Ramdas Pophale) SiO2 
 PCOD9493042
Probable space group: C M M M
;
_chemical_formula_sum "Si O2"
_cell_formula_units_Z 80
_cell_length_a 23.461972
_cell_length_b 14.637729
_cell_length_c 11.830661
_cell_angle_alpha 90.000000
_cell_angle_beta 90.000000
_cell_angle_gamma 90.000000
_cell_volume 4063.003765
_symmetry_space_group_name_H-M "C M M M"
_symmetry_group_IT_number 65
_symmetry_cell_setting 'orthorhombic'
loop_
_space_group_symop_operation_xyz
x,y,z
-x,-y,z
x,-y,-z
-x,y,-z
-x,-y,-z
x,y,-z
-x,y,z
x,-y,z
1/2+x,1/2+y,z
1/2-x,1/2-y,z
1/2+x,1/2-y,-z
1/2-x,1/2+y,-z
1/2-x,1/2-y,-z
1/2+x,1/2+y,-z
1/2-x,1/2+y,z
1/2+x,1/2-y,z
loop_
_atom_site_type_symbol
_atom_site_label
_atom_site_fract_x
_atom_site_fract_y
_atom_site_fract_z
Si Si1 0.934208 0.346235 0.000000
Si Si2 0.175511 0.000000 0.309666
Si Si3 0.313108 0.292571 0.626203
Si Si4 0.137603 0.360274 0.774983
Si Si5 0.432154 0.500000 0.806167
Si Si6 0.065996 0.869775 0.000000
Si Si7 0.433758 0.000000 0.365599
Si Si8 0.270686 0.000000 0.136627
O O1 0.901069 0.371274 0.886693
O O2 0.931649 0.236898 0.000000
O O3 0.000000 0.376726 0.000000
O O4 0.191265 0.902178 0.362460
O O5 0.207628 0.000000 0.188300
O O6 0.107206 0.000000 0.301681
O O7 0.336386 0.271922 0.500000
O O8 0.250000 0.250000 0.631628
O O9 0.348095 0.239680 0.724660
O O10 0.102047 0.414223 0.680428
O O11 0.195318 0.413208 0.811209
O O12 0.500000 0.500000 0.784049
O O13 0.413432 0.414595 0.884525
O O14 0.000000 0.897873 0.000000
O O15 0.500000 0.000000 0.325857
O O16 0.434423 0.000000 0.500000
O O17 0.272110 0.000000 0.000000
#
# Coordination Sequence:
#
# PCOD9493042 Si02
#       8
#     8   8  16  16   8   8   8   8
#     4  11  21  35  60  91 129 175 212 255 318 393
#     4  12  23  41  65  94 127 166 219 267 327 396
#     4  11  24  43  66  95 127 168 222 277 335 392
#     4  11  22  41  62  91 134 170 213 270 325 392
#     4   9  18  34  57  82 118 158 203 258 304 369
#     4   8  16  31  49  79 112 155 208 241 289 364
#     4  10  22  40  65  95 125 167 220 268 324 390
#     4  11  23  40  56  94 134 169 213 262 330 396
#
# _framework density 19.689865999999999
#
# number of rings (size 3 to 8) (size 9 to 14) (size 15 to 20)
#    0.000    1.500    3.000    3.300    1.400    0.000 
#    1.800    4.000    0.000    3.600    0.000    0.000 
#    0.000    0.000    0.000    0.000    0.000    0.000 
#
# Total GULP energy -222941.323633 kJ/mol
# GULP energy per Si atom -5573.533091 kJ/mol
# Density = 1.964505 g / cm^3
# Si number density = 19.689866 Si / 1000 Ang^3
#
#
#
# Elastic Constant Matrix: (Units=GPa)
#
#
# Indices 1 2 3 4 5 6 
#
# 1 92.4929 21.7229 35.6015 0.0000 0.0000 0.0000
# 2 21.7229 105.8507 26.6021 0.0000 0.0000 0.0000
# 3 35.6015 26.6021 104.4235 0.0000 0.0000 0.0000
# 4 0.0000 0.0000 0.0000 46.3085 0.0000 0.0000
# 5 0.0000 0.0000 0.0000 0.0000 23.5726 0.0000
# 6 0.0000 0.0000 0.0000 0.0000 0.0000 19.7552
#
#
#
# Elastic Compliance Matrix: (Units=1/GPa)
#
#
# Indices 1 2 3 4 5 6 
#
# 1 0.012700 -0.001622 -0.003917 0.000000 0.000000 0.000000
# 2 -0.001622 0.010301 -0.002071 0.000000 0.000000 0.000000
# 3 -0.003917 -0.002071 0.011439 0.000000 0.000000 0.000000
# 4 0.000000 0.000000 0.000000 0.021594 0.000000 0.000000
# 5 0.000000 0.000000 0.000000 0.000000 0.042422 0.000000
# 6 0.000000 0.000000 0.000000 0.000000 0.000000 0.050619
#
#
# Mechanical properties :
#
#
# Convention : Reuss Voigt Hill
#
# Bulk Modulus (GPa) = 52.02780 52.29113 52.15946
# Shear Modulus (GPa) = 29.29071 32.51664 30.90367
#
# Velocity S-wave (km/s) = 3.86113 4.06820 3.96602
# Velocity P-wave (km/s) = 6.80873 6.97725 6.89350
#
# Compressibility (1/GPa) = 0.01922049
#
# Stress axis : x y z
#
# Youngs Moduli (GPa) = 78.73911 97.08131 87.41759
#
# Poissons Ratio (x) = 0.15747 0.34239
# Poissons Ratio (y) = 0.12772 0.18105
# Poissons Ratio (z) = 0.30840 0.20107
#
# Static dielectric constant tensor:
#      x y z
#    x 1.698020 0.000000 0.000000 
#    y 0.000000 1.684080 0.000000 
#    z 0.000000 0.000000 1.756110 
# 
# From -- ./inp_files/30509.got.cif
#   From: 2010.05.17/outbox.cif.g08.bks.cpg/sg65_16_cif.got.tgz:30509.got - 2010.06.03 17:01:31.
