data_PCOD9493733
_publ_section_title
;
Structure prediction by ZEFSAII (Michael W. Deem and Ramdas Pophale) SiO2 
 PCOD9493733
Probable space group: C M M M
;
_chemical_formula_sum "Si O2"
_cell_formula_units_Z 88
_cell_length_a 19.976302
_cell_length_b 8.566520
_cell_length_c 28.541628
_cell_angle_alpha 90.000000
_cell_angle_beta 90.000000
_cell_angle_gamma 90.000000
_cell_volume 4884.254323
_symmetry_space_group_name_H-M "C M M M"
_symmetry_group_IT_number 65
_symmetry_cell_setting 'orthorhombic'
loop_
_space_group_symop_operation_xyz
x,y,z
-x,-y,z
x,-y,-z
-x,y,-z
-x,-y,-z
x,y,-z
-x,y,z
x,-y,z
1/2+x,1/2+y,z
1/2-x,1/2-y,z
1/2+x,1/2-y,-z
1/2-x,1/2+y,-z
1/2-x,1/2-y,-z
1/2+x,1/2+y,-z
1/2-x,1/2+y,z
1/2+x,1/2-y,z
loop_
_atom_site_type_symbol
_atom_site_label
_atom_site_fract_x
_atom_site_fract_y
_atom_site_fract_z
Si Si1 0.175218 0.311283 0.947119
Si Si2 0.323926 0.185934 0.421455
Si Si3 0.577792 0.687370 0.500000
Si Si4 0.423232 0.190396 0.865437
Si Si5 0.822163 0.184932 0.682395
Si Si6 0.579345 0.813043 0.759558
O O1 0.176373 0.500000 0.945882
O O2 0.250000 0.250000 0.939245
O O3 0.125427 0.255836 0.906575
O O4 0.154598 0.264714 0.000000
O O5 0.250000 0.250000 0.434467
O O6 0.380963 0.252117 0.455241
O O7 0.336655 0.237700 0.367970
O O8 0.322394 0.000000 0.424727
O O9 0.578752 0.500000 0.500000
O O10 0.500000 0.738534 0.500000
O O11 0.500000 0.239711 0.873176
O O12 0.402597 0.235921 0.812730
O O13 0.423321 0.000000 0.865759
O O14 0.750000 0.250000 0.697991
O O15 0.877346 0.228509 0.720538
O O16 0.817607 0.000000 0.675857
O O17 0.500000 0.784820 0.753735
O O18 0.589887 0.000000 0.755647
#
# Coordination Sequence:
#
# PCOD9493733 Si02
#       6
#    16  16   8  16  16  16
#     4   9  17  29  46  69  97 128 163 205 253 304
#     4  11  22  39  62  85 112 145 183 222 265 317
#     4  11  24  41  60  85 117 149 184 225 266 309
#     4   8  15  29  49  72  97 127 166 210 253 300
#     4  11  22  37  57  81 109 139 177 221 264 312
#     4   9  18  34  54  75 103 138 173 212 262 317
#
# _framework density 18.01708
#
# number of rings (size 3 to 8) (size 9 to 14) (size 15 to 20)
#    0.000    2.273    0.000    6.000    0.000    2.909 
#    0.000    4.545    0.000    1.636    0.000    2.545 
#    0.000    0.000    0.000    0.000    0.000    0.000 
#
# Total GULP energy -245580.135688 kJ/mol
# GULP energy per Si atom -5581.366720 kJ/mol
# Density = 1.797607 g / cm^3
# Si number density = 18.017080 Si / 1000 Ang^3
#
#
#
# Elastic Constant Matrix: (Units=GPa)
#
#
# Indices 1 2 3 4 5 6 
#
# 1 106.7408 42.1628 93.0372 0.0000 0.0000 0.0000
# 2 42.1628 71.5978 37.5814 0.0000 0.0000 0.0000
# 3 93.0372 37.5814 117.1565 0.0000 0.0000 0.0000
# 4 0.0000 0.0000 0.0000 14.5598 0.0000 0.0000
# 5 0.0000 0.0000 0.0000 0.0000 41.8509 0.0000
# 6 0.0000 0.0000 0.0000 0.0000 0.0000 24.4794
#
#
#
# Elastic Compliance Matrix: (Units=1/GPa)
#
#
# Indices 1 2 3 4 5 6 
#
# 1 0.032994 -0.006826 -0.024011 0.000000 0.000000 0.000000
# 2 -0.006826 0.018207 -0.000420 0.000000 0.000000 0.000000
# 3 -0.024011 -0.000420 0.027738 0.000000 0.000000 0.000000
# 4 0.000000 0.000000 0.000000 0.068682 0.000000 0.000000
# 5 0.000000 0.000000 0.000000 0.000000 0.023894 0.000000
# 6 0.000000 0.000000 0.000000 0.000000 0.000000 0.040851
#
#
# Mechanical properties :
#
#
# Convention : Reuss Voigt Hill
#
# Bulk Modulus (GPa) = 60.88427 71.22865 66.05646
# Shear Modulus (GPa) = 17.83452 24.35893 21.09672
#
# Velocity S-wave (km/s) = 3.14963 3.68093 3.42560
# Velocity P-wave (km/s) = 6.86242 7.59509 7.23803
#
# Compressibility (1/GPa) = 0.01642460
#
# Stress axis : x y z
#
# Youngs Moduli (GPa) = 30.30898 54.92419 36.05109
#
# Poissons Ratio (x) = 0.37490 0.86564
# Poissons Ratio (y) = 0.20688 0.01513
# Poissons Ratio (z) = 0.72776 0.02306
#
# Static dielectric constant tensor:
#      x y z
#    x 1.591000 0.000000 0.000000 
#    y 0.000000 1.610800 0.000000 
#    z 0.000000 0.000000 1.613530 
# 
# From -- ./inp_files/77845.got.cif
#   From: 2010.05.17/outbox.cif.g08.bks.cpg/sg65_39_cif.got.tgz:77845.got - 2010.06.03 17:01:31.
