data_PCOD9493559
_publ_section_title
;
Structure prediction by ZEFSAII (Michael W. Deem and Ramdas Pophale) SiO2 
 PCOD9493559
Probable space group: C M M M
;
_chemical_formula_sum "Si O2"
_cell_formula_units_Z 58
_cell_length_a 7.556263
_cell_length_b 16.126120
_cell_length_c 22.294012
_cell_angle_alpha 90.000000
_cell_angle_beta 90.000000
_cell_angle_gamma 90.000000
_cell_volume 2716.596790
_symmetry_space_group_name_H-M "C M M M"
_symmetry_group_IT_number 65
_symmetry_cell_setting 'orthorhombic'
loop_
_space_group_symop_operation_xyz
x,y,z
-x,-y,z
x,-y,-z
-x,y,-z
-x,-y,-z
x,y,-z
-x,y,z
x,-y,z
1/2+x,1/2+y,z
1/2-x,1/2-y,z
1/2+x,1/2-y,-z
1/2-x,1/2+y,-z
1/2-x,1/2-y,-z
1/2+x,1/2+y,-z
1/2-x,1/2+y,z
1/2+x,1/2-y,z
loop_
_atom_site_type_symbol
_atom_site_label
_atom_site_fract_x
_atom_site_fract_y
_atom_site_fract_z
Si Si1 0.787673 0.847990 0.935153
Si Si2 0.000000 0.000000 0.500000
Si Si3 0.289000 0.657731 0.681799
Si Si4 0.304642 0.000000 0.601997
Si Si5 0.214876 0.905278 0.806401
O O1 0.750000 0.750000 0.933531
O O2 0.718190 0.884417 0.872876
O O3 0.000000 0.860611 0.935428
O O4 0.721208 0.879636 0.000000
O O5 0.846303 0.000000 0.552475
O O6 0.500000 0.646248 0.682384
O O7 0.250000 0.750000 0.658709
O O8 0.214396 0.582387 0.642922
O O9 0.223351 0.649895 0.750721
O O10 0.500000 0.000000 0.575233
O O11 0.000000 0.898129 0.809090
O O12 0.257390 0.000000 0.791621
#
# Coordination Sequence:
#
# PCOD9493559 Si02
#       5
#    16   2  16   8  16
#     4   9  17  29  46  70 104 150 206 264 326 395
#     4  12  26  52  80 106 152 186 216 272 328 386
#     4  11  21  39  66  98 137 178 226 284 337 398
#     4  12  25  47  77 108 142 184 227 268 331 393
#     4   9  17  30  52  81 116 161 209 271 336 390
#
# _framework density 21.350242000000001
#
# number of rings (size 3 to 8) (size 9 to 14) (size 15 to 20)
#    0.000    1.931    2.759    1.862    0.000    0.552 
#    0.000    4.828    0.000    0.000    0.000    3.862 
#    0.000    0.000    0.000    0.000    0.000    0.000 
#
# Total GULP energy -161664.763790 kJ/mol
# GULP energy per Si atom -5574.647027 kJ/mol
# Density = 2.130165 g / cm^3
# Si number density = 21.350242 Si / 1000 Ang^3
#
#
#
# Elastic Constant Matrix: (Units=GPa)
#
#
# Indices 1 2 3 4 5 6 
#
# 1 109.8765 7.4094 38.8950 0.0000 0.0000 0.0000
# 2 7.4094 112.0609 55.7965 0.0000 0.0000 0.0000
# 3 38.8950 55.7965 148.6227 0.0000 0.0000 0.0000
# 4 0.0000 0.0000 0.0000 -7.7048 0.0000 0.0000
# 5 0.0000 0.0000 0.0000 0.0000 -32.6375 0.0000
# 6 0.0000 0.0000 0.0000 0.0000 0.0000 17.7878
#
#
#
# Elastic Compliance Matrix: (Units=1/GPa)
#
#
# Indices 1 2 3 4 5 6 
#
# 1 0.010088 0.000796 -0.002939 0.000000 0.000000 0.000000
# 2 0.000796 0.011038 -0.004352 0.000000 0.000000 0.000000
# 3 -0.002939 -0.004352 0.009132 0.000000 0.000000 0.000000
# 4 0.000000 0.000000 0.000000 -0.129790 0.000000 0.000000
# 5 0.000000 0.000000 0.000000 0.000000 -0.030640 0.000000
# 6 0.000000 0.000000 0.000000 0.000000 0.000000 0.056218
#
#
# Mechanical properties :
#
#
# Convention : Reuss Voigt Hill
#
# Bulk Modulus (GPa) = 57.91225 63.86242 60.88733
# Shear Modulus (GPa) = -90.56735 13.38638 -38.59049
#
# Velocity S-wave (km/s) = -6.52012 2.50669 -4.25608
# Velocity P-wave (km/s) = 5.43128 6.19312 2.10428
#
# Compressibility (1/GPa) = 0.01726750
#
# Stress axis : x y z
#
# Youngs Moduli (GPa) = 99.12973 90.59468 109.51005
#
# Poissons Ratio (x) = -0.07215 0.32185
# Poissons Ratio (y) = -0.07894 0.47663
# Poissons Ratio (z) = 0.29134 0.39430
#
# Static dielectric constant tensor:
#      x y z
#    x 1.758120 0.000000 0.000000 
#    y 0.000000 1.743540 0.000000 
#    z 0.000000 0.000000 1.778450 
# 
# From -- ./inp_files/66696.got.cif
#   From: 2010.05.17/outbox.cif.g08.bks.cpg/sg65_34_cif.got.tgz:66696.got - 2010.06.03 17:01:31.
