data_PCOD9493167
_publ_section_title
;
Structure prediction by ZEFSAII (Michael W. Deem and Ramdas Pophale) SiO2 
 PCOD9493167
Probable space group: C M M M
;
_chemical_formula_sum "Si O2"
_cell_formula_units_Z 72
_cell_length_a 14.853570
_cell_length_b 27.053292
_cell_length_c 9.903523
_cell_angle_alpha 90.000000
_cell_angle_beta 90.000000
_cell_angle_gamma 90.000000
_cell_volume 3979.611543
_symmetry_space_group_name_H-M "C M M M"
_symmetry_group_IT_number 65
_symmetry_cell_setting 'orthorhombic'
loop_
_space_group_symop_operation_xyz
x,y,z
-x,-y,z
x,-y,-z
-x,y,-z
-x,-y,-z
x,y,-z
-x,y,z
x,-y,z
1/2+x,1/2+y,z
1/2-x,1/2-y,z
1/2+x,1/2-y,-z
1/2-x,1/2+y,-z
1/2-x,1/2-y,-z
1/2+x,1/2+y,-z
1/2-x,1/2+y,z
1/2+x,1/2-y,z
loop_
_atom_site_type_symbol
_atom_site_label
_atom_site_fract_x
_atom_site_fract_y
_atom_site_fract_z
Si Si1 0.606582 0.941437 0.500000
Si Si2 0.500000 0.191794 0.336747
Si Si3 0.000000 0.940131 0.664247
Si Si4 0.161440 0.619973 0.251561
Si Si5 0.137870 0.875388 0.839545
Si Si6 0.106068 0.554822 0.000000
Si Si7 0.500000 0.286618 0.847532
O O1 0.500000 0.927326 0.500000
O O2 0.655522 0.917844 0.625802
O O3 0.610323 0.000000 0.500000
O O4 0.500000 0.194368 0.500000
O O5 0.589288 0.162563 0.286342
O O6 0.500000 0.244821 0.265008
O O7 0.084627 0.914784 0.744298
O O8 0.000000 0.929756 0.500000
O O9 0.000000 0.000000 0.679090
O O10 0.262870 0.634732 0.217245
O O11 0.130134 0.587426 0.126818
O O12 0.083608 0.824025 0.834937
O O13 0.139880 0.890679 0.000000
O O14 0.148345 0.500000 0.000000
O O15 0.000000 0.548605 0.000000
O O16 0.500000 0.264989 0.000000
#
# Coordination Sequence:
#
# PCOD9493167 Si02
#       7
#     8   8   8  16  16   8   8
#     4  11  22  40  60  84 130 178 210 247 304 369
#     4  12  25  43  63  93 127 160 210 258 318 376
#     4  10  23  41  64  93 125 166 213 258 306 366
#     4  12  22  40  62  93 127 166 207 257 308 371
#     4  10  23  44  65  92 127 162 207 257 317 371
#     4  11  22  36  58  92 130 166 210 251 300 363
#     4   9  23  45  68  87 114 162 205 260 322 377
#
# _framework density 18.092217999999999
#
# number of rings (size 3 to 8) (size 9 to 14) (size 15 to 20)
#    0.000    1.222    4.444    1.667    3.111    7.111 
#    0.000    3.333    0.000    0.000    0.000    0.000 
#    0.000    0.000    0.000    0.000    0.000    0.000 
#
# Total GULP energy -200781.724880 kJ/mol
# GULP energy per Si atom -5577.270136 kJ/mol
# Density = 1.805104 g / cm^3
# Si number density = 18.092218 Si / 1000 Ang^3
#
#
#
# Elastic Constant Matrix: (Units=GPa)
#
#
# Indices 1 2 3 4 5 6 
#
# 1 157.0997 53.4500 65.5293 0.0000 0.0000 0.0000
# 2 53.4500 107.7940 77.8984 0.0000 0.0000 0.0000
# 3 65.5293 77.8984 191.6063 0.0000 0.0000 0.0000
# 4 0.0000 0.0000 0.0000 34.2121 0.0000 0.0000
# 5 0.0000 0.0000 0.0000 0.0000 44.8570 0.0000
# 6 0.0000 0.0000 0.0000 0.0000 0.0000 14.0878
#
#
#
# Elastic Compliance Matrix: (Units=1/GPa)
#
#
# Indices 1 2 3 4 5 6 
#
# 1 0.007984 -0.002812 -0.001587 0.000000 0.000000 0.000000
# 2 -0.002812 0.014127 -0.004782 0.000000 0.000000 0.000000
# 3 -0.001587 -0.004782 0.007706 0.000000 0.000000 0.000000
# 4 0.000000 0.000000 0.000000 0.029229 0.000000 0.000000
# 5 0.000000 0.000000 0.000000 0.000000 0.022293 0.000000
# 6 0.000000 0.000000 0.000000 0.000000 0.000000 0.070983
#
#
# Mechanical properties :
#
#
# Convention : Reuss Voigt Hill
#
# Bulk Modulus (GPa) = 87.29767 94.47282 90.88525
# Shear Modulus (GPa) = 28.65285 35.93953 32.29619
#
# Velocity S-wave (km/s) = 3.98390 4.46181 4.22961
# Velocity P-wave (km/s) = 8.33776 8.88113 8.61373
#
# Compressibility (1/GPa) = 0.01145506
#
# Stress axis : x y z
#
# Youngs Moduli (GPa) = 125.24736 70.78793 129.77013
#
# Poissons Ratio (x) = 0.19904 0.20600
# Poissons Ratio (y) = 0.35217 0.62051
# Poissons Ratio (z) = 0.19882 0.33848
#
# Static dielectric constant tensor:
#      x y z
#    x 1.685170 0.000000 0.000000 
#    y 0.000000 1.605280 0.000000 
#    z 0.000000 0.000000 1.606930 
# 
# From -- ./inp_files/7453.got.cif
#   From: 2010.05.17/outbox.cif.g08.bks.cpg/sg65_4_cif.got.tgz:7453.got - 2010.06.03 17:01:31.
