data_PCOD9493834
_publ_section_title
;
Structure prediction by ZEFSAII (Michael W. Deem and Ramdas Pophale) SiO2 
 PCOD9493834
Probable space group: C M M M
;
_chemical_formula_sum "Si O2"
_cell_formula_units_Z 72
_cell_length_a 8.542571
_cell_length_b 15.497257
_cell_length_c 27.988266
_cell_angle_alpha 90.000000
_cell_angle_beta 90.000000
_cell_angle_gamma 90.000000
_cell_volume 3705.266288
_symmetry_space_group_name_H-M "C M M M"
_symmetry_group_IT_number 65
_symmetry_cell_setting 'orthorhombic'
loop_
_space_group_symop_operation_xyz
x,y,z
-x,-y,z
x,-y,-z
-x,y,-z
-x,-y,-z
x,y,-z
-x,y,z
x,-y,z
1/2+x,1/2+y,z
1/2-x,1/2-y,z
1/2+x,1/2-y,-z
1/2-x,1/2+y,-z
1/2-x,1/2-y,-z
1/2+x,1/2+y,-z
1/2-x,1/2+y,z
1/2+x,1/2-y,z
loop_
_atom_site_type_symbol
_atom_site_label
_atom_site_fract_x
_atom_site_fract_y
_atom_site_fract_z
Si Si1 0.687766 0.500000 0.164446
Si Si2 0.689259 0.348549 0.448773
Si Si3 0.315796 0.396335 0.000000
Si Si4 0.691245 0.500000 0.274282
Si Si5 0.185819 0.342596 0.897651
Si Si6 0.810503 0.152214 0.343596
O O1 0.500000 0.500000 0.163753
O O2 0.741867 0.500000 0.219380
O O3 0.747063 0.416879 0.136018
O O4 0.740129 0.387673 0.500000
O O5 0.500000 0.349099 0.448981
O O6 0.750000 0.250000 0.449089
O O7 0.737514 0.381943 0.396591
O O8 0.240203 0.360280 0.048079
O O9 0.298740 0.500000 0.000000
O O10 0.500000 0.375512 0.000000
O O11 0.500000 0.500000 0.274596
O O12 0.741603 0.414702 0.303167
O O13 0.250000 0.250000 0.882498
O O14 0.000000 0.343709 0.895909
O O15 0.750000 0.250000 0.337400
O O16 0.000000 0.155413 0.342794
#
# Coordination Sequence:
#
# PCOD9493834 Si02
#       6
#     8  16   8   8  16  16
#     4  11  23  42  62  84 115 152 197 248 299 346
#     4   8  13  22  40  67  98 131 168 211 261 321
#     4  11  22  39  66  96 131 167 197 233 282 336
#     4   9  20  37  57  78 106 142 180 230 287 338
#     4  12  25  42  65  93 125 160 199 240 288 342
#     4   9  17  32  52  75 103 138 178 221 274 332
#
# _framework density 19.431801
#
# number of rings (size 3 to 8) (size 9 to 14) (size 15 to 20)
#    0.000    2.111    1.111    3.000    0.000    1.333 
#    0.000    5.556    0.000    3.333    0.000    0.000 
#    0.000   17.778    0.000    0.000    0.000    0.000 
#
# Total GULP energy -200887.902636 kJ/mol
# GULP energy per Si atom -5580.219518 kJ/mol
# Density = 1.938757 g / cm^3
# Si number density = 19.431801 Si / 1000 Ang^3
#
#
#
# Elastic Constant Matrix: (Units=GPa)
#
#
# Indices 1 2 3 4 5 6 
#
# 1 61.5332 39.9911 36.8979 0.0000 0.0000 0.0000
# 2 39.9911 131.9988 100.4932 0.0000 0.0000 0.0000
# 3 36.8979 100.4932 201.9375 0.0000 0.0000 0.0000
# 4 0.0000 0.0000 0.0000 -14.2091 0.0000 0.0000
# 5 0.0000 0.0000 0.0000 0.0000 11.0773 0.0000
# 6 0.0000 0.0000 0.0000 0.0000 0.0000 24.3462
#
#
#
# Elastic Compliance Matrix: (Units=1/GPa)
#
#
# Indices 1 2 3 4 5 6 
#
# 1 0.020373 -0.005374 -0.001048 0.000000 0.000000 0.000000
# 2 -0.005374 0.013615 -0.005793 0.000000 0.000000 0.000000
# 3 -0.001048 -0.005793 0.008026 0.000000 0.000000 0.000000
# 4 0.000000 0.000000 0.000000 -0.070377 0.000000 0.000000
# 5 0.000000 0.000000 0.000000 0.000000 0.090274 0.000000
# 6 0.000000 0.000000 0.000000 0.000000 0.000000 0.041074
#
#
# Mechanical properties :
#
#
# Convention : Reuss Voigt Hill
#
# Bulk Modulus (GPa) = 56.87441 83.35932 70.11687
# Shear Modulus (GPa) = 37.51593 18.78205 28.14899
#
# Velocity S-wave (km/s) = 4.39868 3.11233 3.81018
# Velocity P-wave (km/s) = 7.42496 7.47710 7.45108
#
# Compressibility (1/GPa) = 0.01758260
#
# Stress axis : x y z
#
# Youngs Moduli (GPa) = 49.08538 73.45068 124.58774
#
# Poissons Ratio (x) = 0.39475 0.13056
# Poissons Ratio (y) = 0.26380 0.72176
# Poissons Ratio (z) = 0.05144 0.42552
#
# Static dielectric constant tensor:
#      x y z
#    x 1.657440 0.000000 0.000000 
#    y 0.000000 1.604810 0.000000 
#    z 0.000000 0.000000 1.704590 
# 
# From -- ./inp_files/76383.got.cif
#   From: 2010.05.17/outbox.cif.g08.bks.cpg/sg65_39_cif.got.tgz:76383.got - 2010.06.03 17:01:31.
