data_PCOD9493351
_publ_section_title
;
Structure prediction by ZEFSAII (Michael W. Deem and Ramdas Pophale) SiO2 
 PCOD9493351
Probable space group: C M M M
;
_chemical_formula_sum "Si O2"
_cell_formula_units_Z 56
_cell_length_a 7.718491
_cell_length_b 15.887673
_cell_length_c 21.307731
_cell_angle_alpha 90.000000
_cell_angle_beta 90.000000
_cell_angle_gamma 90.000000
_cell_volume 2612.942784
_symmetry_space_group_name_H-M "C M M M"
_symmetry_group_IT_number 65
_symmetry_cell_setting 'orthorhombic'
loop_
_space_group_symop_operation_xyz
x,y,z
-x,-y,z
x,-y,-z
-x,y,-z
-x,-y,-z
x,y,-z
-x,y,z
x,-y,z
1/2+x,1/2+y,z
1/2-x,1/2-y,z
1/2+x,1/2-y,-z
1/2-x,1/2+y,-z
1/2-x,1/2-y,-z
1/2+x,1/2+y,-z
1/2-x,1/2+y,z
1/2+x,1/2-y,z
loop_
_atom_site_type_symbol
_atom_site_label
_atom_site_fract_x
_atom_site_fract_y
_atom_site_fract_z
Si Si1 0.698030 0.847736 0.661573
Si Si2 0.500000 0.598743 0.430396
Si Si3 0.291271 0.649868 0.932557
Si Si4 0.707443 0.649888 0.202795
O O1 0.500000 0.856120 0.641623
O O2 0.750000 0.750000 0.668242
O O3 0.831831 0.880743 0.610755
O O4 0.719064 0.884678 0.731932
O O5 0.500000 0.500000 0.438276
O O6 0.500000 0.639171 0.500000
O O7 0.500000 0.640974 0.932256
O O8 0.250000 0.750000 0.932857
O O9 0.230155 0.615985 0.864947
O O10 0.227483 0.616110 0.000000
O O11 0.500000 0.640774 0.206277
O O12 0.750000 0.750000 0.200954
#
# Coordination Sequence:
#
# PCOD9493351 Si02
#       4
#    16   8  16  16
#     4  11  20  37  62  90 118 152 197 239 285 339
#     4  11  26  46  64  88 122 152 184 234 294 353
#     4   8  13  19  29  51  88 135 178 217 269 328
#     4   9  14  23  41  66 101 140 183 233 279 325
#
# _framework density 21.431773
#
# number of rings (size 3 to 8) (size 9 to 14) (size 15 to 20)
#    0.000    2.429    2.857    2.571    0.000    2.857 
#    0.000    1.429    0.000    0.000    0.000    0.000 
#    0.000    2.286    0.000    2.571    0.000    1.429 
#
# Total GULP energy -156019.964701 kJ/mol
# GULP energy per Si atom -5572.141596 kJ/mol
# Density = 2.138299 g / cm^3
# Si number density = 21.431773 Si / 1000 Ang^3
#
#
#
# Elastic Constant Matrix: (Units=GPa)
#
#
# Indices 1 2 3 4 5 6 
#
# 1 140.6588 3.8960 81.0515 0.0000 0.0000 0.0000
# 2 3.8960 16.4845 24.4702 0.0000 0.0000 0.0000
# 3 81.0515 24.4702 248.7645 0.0000 0.0000 0.0000
# 4 0.0000 0.0000 0.0000 92.5287 0.0000 0.0000
# 5 0.0000 0.0000 0.0000 0.0000 15.6413 0.0000
# 6 0.0000 0.0000 0.0000 0.0000 0.0000 -0.1050
#
#
#
# Elastic Compliance Matrix: (Units=1/GPa)
#
#
# Indices 1 2 3 4 5 6 
#
# 1 0.008844 0.002561 -0.003133 0.000000 0.000000 0.000000
# 2 0.002561 0.071778 -0.007895 0.000000 0.000000 0.000000
# 3 -0.003133 -0.007895 0.005817 0.000000 0.000000 0.000000
# 4 0.000000 0.000000 0.000000 0.010807 0.000000 0.000000
# 5 0.000000 0.000000 0.000000 0.000000 0.063933 0.000000
# 6 0.000000 0.000000 0.000000 0.000000 0.000000 -9.524858
#
#
# Mechanical properties :
#
#
# Convention : Reuss Voigt Hill
#
# Bulk Modulus (GPa) = 14.38756 69.41590 41.90173
# Shear Modulus (GPa) = -0.53627 41.37902 20.42137
#
# Velocity S-wave (km/s) = -0.50077 4.39878 3.09018
# Velocity P-wave (km/s) = 2.52852 7.63273 5.68559
#
# Compressibility (1/GPa) = 0.06950451
#
# Stress axis : x y z
#
# Youngs Moduli (GPa) = 113.07022 13.93193 171.89775
#
# Poissons Ratio (x) = -0.03568 0.53864
# Poissons Ratio (y) = -0.28960 1.35714
# Poissons Ratio (z) = 0.35430 0.10999
#
# Static dielectric constant tensor:
#      x y z
#    x 1.754210 0.000000 0.000000 
#    y 0.000000 1.774420 0.000000 
#    z 0.000000 0.000000 1.905000 
# 
# From -- ./inp_files/58717.got.cif
#   From: 2010.05.17/outbox.cif.g08.bks.cpg/sg65_30_cif.got.tgz:58717.got - 2010.06.03 17:01:31.
