data_PCOD9493064
_publ_section_title
;
Structure prediction by ZEFSAII (Michael W. Deem and Ramdas Pophale) SiO2 
 PCOD9493064
Probable space group: C M M M
;
_chemical_formula_sum "Si O2"
_cell_formula_units_Z 56
_cell_length_a 10.584682
_cell_length_b 18.640795
_cell_length_c 14.220550
_cell_angle_alpha 90.000000
_cell_angle_beta 90.000000
_cell_angle_gamma 90.000000
_cell_volume 2805.812456
_symmetry_space_group_name_H-M "C M M M"
_symmetry_group_IT_number 65
_symmetry_cell_setting 'orthorhombic'
loop_
_space_group_symop_operation_xyz
x,y,z
-x,-y,z
x,-y,-z
-x,y,-z
-x,-y,-z
x,y,-z
-x,y,z
x,-y,z
1/2+x,1/2+y,z
1/2-x,1/2-y,z
1/2+x,1/2-y,-z
1/2-x,1/2+y,-z
1/2-x,1/2-y,-z
1/2+x,1/2+y,-z
1/2-x,1/2+y,z
1/2+x,1/2-y,z
loop_
_atom_site_type_symbol
_atom_site_label
_atom_site_fract_x
_atom_site_fract_y
_atom_site_fract_z
Si Si1 0.739783 0.585007 0.267293
Si Si2 0.638732 0.193943 0.390736
Si Si3 0.500000 0.586273 0.396153
Si Si4 0.352121 0.312259 0.112348
O O1 0.760511 0.500000 0.262263
O O2 0.850670 0.629117 0.317197
O O3 0.624017 0.602081 0.337610
O O4 0.696735 0.618590 0.168686
O O5 0.652213 0.169607 0.500000
O O6 0.500000 0.227891 0.381857
O O7 0.750000 0.250000 0.371686
O O8 0.500000 0.500000 0.405288
O O9 0.500000 0.618552 0.500000
O O10 0.500000 0.296191 0.137003
O O11 0.250000 0.250000 0.135106
O O12 0.348431 0.322973 0.000000
#
# Coordination Sequence:
#
# PCOD9493064 Si02
#       4
#    16  16   8  16
#     4  11  22  36  59  90 122 160 200 247 307 366
#     4  10  23  41  61  87 121 163 209 255 302 358
#     4   9  18  32  51  81 119 157 193 232 284 350
#     4  10  22  41  64  89 118 156 205 258 311 369
#
# _framework density 19.958568
#
# number of rings (size 3 to 8) (size 9 to 14) (size 15 to 20)
#    0.000    1.857    1.429    1.714    2.000    6.286 
#    0.000    2.857    0.000    0.000    0.000    6.000 
#    0.000    0.000    0.000    0.000    0.000    0.000 
#
# Total GULP energy -156338.111384 kJ/mol
# GULP energy per Si atom -5583.503978 kJ/mol
# Density = 1.991314 g / cm^3
# Si number density = 19.958568 Si / 1000 Ang^3
#
#
#
# Elastic Constant Matrix: (Units=GPa)
#
#
# Indices 1 2 3 4 5 6 
#
# 1 133.4016 58.1407 33.2241 0.0000 0.0000 0.0000
# 2 58.1407 126.4327 48.6537 0.0000 0.0000 0.0000
# 3 33.2241 48.6537 78.7713 0.0000 0.0000 0.0000
# 4 0.0000 0.0000 0.0000 34.3648 0.0000 0.0000
# 5 0.0000 0.0000 0.0000 0.0000 45.0554 0.0000
# 6 0.0000 0.0000 0.0000 0.0000 0.0000 23.9580
#
#
#
# Elastic Compliance Matrix: (Units=1/GPa)
#
#
# Indices 1 2 3 4 5 6 
#
# 1 0.009551 -0.003728 -0.001726 0.000000 0.000000 0.000000
# 2 -0.003728 0.011830 -0.005735 0.000000 0.000000 0.000000
# 3 -0.001726 -0.005735 0.016965 0.000000 0.000000 0.000000
# 4 0.000000 0.000000 0.000000 0.029100 0.000000 0.000000
# 5 0.000000 0.000000 0.000000 0.000000 0.022195 0.000000
# 6 0.000000 0.000000 0.000000 0.000000 0.000000 0.041740
#
#
# Mechanical properties :
#
#
# Convention : Reuss Voigt Hill
#
# Bulk Modulus (GPa) = 62.62010 68.73806 65.67908
# Shear Modulus (GPa) = 31.43067 33.91480 32.67273
#
# Velocity S-wave (km/s) = 3.97267 4.12668 4.05041
# Velocity P-wave (km/s) = 7.24472 7.56446 7.40632
#
# Compressibility (1/GPa) = 0.01596931
#
# Stress axis : x y z
#
# Youngs Moduli (GPa) = 104.70476 84.52742 58.94471
#
# Poissons Ratio (x) = 0.31510 0.10172
# Poissons Ratio (y) = 0.39032 0.33804
# Poissons Ratio (z) = 0.18070 0.48475
#
# Static dielectric constant tensor:
#      x y z
#    x 1.754330 0.000000 0.000000 
#    y 0.000000 1.690190 0.000000 
#    z 0.000000 0.000000 1.709740 
# 
# From -- ./inp_files/35440.got.cif
#   From: 2010.05.17/outbox.cif.g08.bks.cpg/sg65_18_cif.got.tgz:35440.got - 2010.06.03 17:01:31.
