data_PCOD9493339
_publ_section_title
;
Structure prediction by ZEFSAII (Michael W. Deem and Ramdas Pophale) SiO2 
 PCOD9493339
Probable space group: C M M M
;
_chemical_formula_sum "Si O2"
_cell_formula_units_Z 72
_cell_length_a 14.030391
_cell_length_b 29.790556
_cell_length_c 7.989214
_cell_angle_alpha 90.000000
_cell_angle_beta 90.000000
_cell_angle_gamma 90.000000
_cell_volume 3339.276932
_symmetry_space_group_name_H-M "C M M M"
_symmetry_group_IT_number 65
_symmetry_cell_setting 'orthorhombic'
loop_
_space_group_symop_operation_xyz
x,y,z
-x,-y,z
x,-y,-z
-x,y,-z
-x,-y,-z
x,y,-z
-x,y,z
x,-y,z
1/2+x,1/2+y,z
1/2-x,1/2-y,z
1/2+x,1/2-y,-z
1/2-x,1/2+y,-z
1/2-x,1/2-y,-z
1/2+x,1/2+y,-z
1/2-x,1/2+y,z
1/2+x,1/2-y,z
loop_
_atom_site_type_symbol
_atom_site_label
_atom_site_fract_x
_atom_site_fract_y
_atom_site_fract_z
Si Si1 0.000000 0.051849 0.697051
Si Si2 0.287206 0.799450 0.204887
Si Si3 0.166039 0.118638 0.185338
Si Si4 0.500000 0.932420 0.801743
Si Si5 0.500000 0.825066 0.198793
Si Si6 0.294956 0.049223 0.692270
O O1 0.089144 0.084174 0.740193
O O2 0.000000 0.046091 0.500000
O O3 0.000000 0.000000 0.768566
O O4 0.250000 0.750000 0.245526
O O5 0.208871 0.836103 0.265893
O O6 0.396610 0.807737 0.263325
O O7 0.288787 0.804094 0.000000
O O8 0.258425 0.087010 0.184666
O O9 0.131235 0.130303 0.000000
O O10 0.500000 0.878637 0.781977
O O11 0.592912 0.951348 0.714472
O O12 0.500000 0.942811 0.000000
O O13 0.500000 0.814426 0.000000
O O14 0.270192 0.060315 0.500000
O O15 0.254455 0.000000 0.730019
#
# Coordination Sequence:
#
# PCOD9493339 Si02
#       6
#     8  16  16   8   8  16
#     4  11  25  44  63  85 120 166 206 249 317 385
#     4   9  18  33  57  90 124 157 196 248 307 361
#     4  11  22  38  62  91 117 150 203 257 301 353
#     4  11  20  34  56  83 114 151 195 242 287 335
#     4   9  16  31  53  82 121 154 185 234 291 346
#     4  11  23  37  54  81 119 160 196 233 290 361
#
# _framework density 21.561554000000001
#
# number of rings (size 3 to 8) (size 9 to 14) (size 15 to 20)
#    0.000    1.667    2.222    3.000    0.000    7.556 
#    0.000    3.333    0.000    2.667    0.000    0.000 
#    0.000    0.000    0.000    0.000    0.000    0.000 
#
# Total GULP energy -200689.276479 kJ/mol
# GULP energy per Si atom -5574.702124 kJ/mol
# Density = 2.151248 g / cm^3
# Si number density = 21.561554 Si / 1000 Ang^3
#
#
#
# Elastic Constant Matrix: (Units=GPa)
#
#
# Indices 1 2 3 4 5 6 
#
# 1 126.5744 73.1537 1.9872 0.0000 0.0000 0.0000
# 2 73.1537 164.8118 28.2980 0.0000 0.0000 0.0000
# 3 1.9872 28.2980 28.6833 0.0000 0.0000 0.0000
# 4 0.0000 0.0000 0.0000 14.7438 0.0000 0.0000
# 5 0.0000 0.0000 0.0000 0.0000 30.8214 0.0000
# 6 0.0000 0.0000 0.0000 0.0000 0.0000 10.9856
#
#
#
# Elastic Compliance Matrix: (Units=1/GPa)
#
#
# Indices 1 2 3 4 5 6 
#
# 1 0.011184 -0.005816 0.004963 0.000000 0.000000 0.000000
# 2 -0.005816 0.010330 -0.009788 0.000000 0.000000 0.000000
# 3 0.004963 -0.009788 0.044176 0.000000 0.000000 0.000000
# 4 0.000000 0.000000 0.000000 0.067825 0.000000 0.000000
# 5 0.000000 0.000000 0.000000 0.000000 0.032445 0.000000
# 6 0.000000 0.000000 0.000000 0.000000 0.000000 0.091028
#
#
# Mechanical properties :
#
#
# Convention : Reuss Voigt Hill
#
# Bulk Modulus (GPa) = 22.51840 58.54969 40.53405
# Shear Modulus (GPa) = 17.06058 25.75222 21.40640
#
# Velocity S-wave (km/s) = 2.81597 3.45970 3.15430
# Velocity P-wave (km/s) = 4.58687 6.57061 5.66623
#
# Compressibility (1/GPa) = 0.04440812
#
# Stress axis : x y z
#
# Youngs Moduli (GPa) = 89.41191 96.80695 22.63659
#
# Poissons Ratio (x) = 0.56307 -0.11236
# Poissons Ratio (y) = 0.52006 0.22157
# Poissons Ratio (z) = -0.44380 0.94756
#
# Static dielectric constant tensor:
#      x y z
#    x 1.868950 0.000000 0.000000 
#    y 0.000000 1.791970 0.000000 
#    z 0.000000 0.000000 1.816600 
# 
# From -- ./inp_files/7710.got.cif
#   From: 2010.05.17/outbox.cif.g08.bks.cpg/sg65_4_cif.got.tgz:7710.got - 2010.06.03 17:01:31.
