data_PCOD9493329
_publ_section_title
;
Structure prediction by ZEFSAII (Michael W. Deem and Ramdas Pophale) SiO2 
 PCOD9493329
Probable space group: C M M M
;
_chemical_formula_sum "Si O2"
_cell_formula_units_Z 72
_cell_length_a 22.371387
_cell_length_b 20.862342
_cell_length_c 7.937098
_cell_angle_alpha 90.000000
_cell_angle_beta 90.000000
_cell_angle_gamma 90.000000
_cell_volume 3704.398621
_symmetry_space_group_name_H-M "C M M M"
_symmetry_group_IT_number 65
_symmetry_cell_setting 'orthorhombic'
loop_
_space_group_symop_operation_xyz
x,y,z
-x,-y,z
x,-y,-z
-x,y,-z
-x,-y,-z
x,y,-z
-x,y,z
x,-y,z
1/2+x,1/2+y,z
1/2-x,1/2-y,z
1/2+x,1/2-y,-z
1/2-x,1/2+y,-z
1/2-x,1/2-y,-z
1/2+x,1/2+y,-z
1/2-x,1/2+y,z
1/2+x,1/2-y,z
loop_
_atom_site_type_symbol
_atom_site_label
_atom_site_fract_x
_atom_site_fract_y
_atom_site_fract_z
Si Si1 0.652565 0.500000 0.207188
Si Si2 0.569100 0.238504 0.796824
Si Si3 0.712273 0.000000 0.801317
Si Si4 0.067735 0.114801 0.205445
Si Si5 0.626007 0.885381 0.300267
Si Si6 0.500000 0.075666 0.306502
O O1 0.720585 0.500000 0.269632
O O2 0.615931 0.562927 0.261035
O O3 0.652783 0.500000 0.000000
O O4 0.500000 0.221627 0.743186
O O5 0.579513 0.311885 0.742318
O O6 0.620880 0.190416 0.735182
O O7 0.568999 0.236938 0.000000
O O8 0.676354 0.065166 0.758015
O O9 0.718261 0.000000 0.000000
O O10 0.000000 0.097497 0.256778
O O11 0.068067 0.114751 0.000000
O O12 0.624061 0.894998 0.500000
O O13 0.562115 0.906163 0.222445
O O14 0.500000 0.101262 0.500000
O O15 0.500000 0.000000 0.320004
#
# Coordination Sequence:
#
# PCOD9493329 Si02
#       6
#     8  16   8  16  16   8
#     4   9  17  31  51  74 102 136 170 206 250 303
#     4   9  17  29  48  79 111 130 154 205 263 303
#     4  11  23  35  48  72 103 135 175 216 252 290
#     4   8  14  27  51  81 107 129 159 203 256 308
#     4  11  20  33  51  71  99 137 176 209 245 298
#     4   9  16  28  46  68  90 117 164 213 245 284
#
# _framework density 19.436354000000001
#
# number of rings (size 3 to 8) (size 9 to 14) (size 15 to 20)
#    0.000    2.556    2.222    2.667    0.000    1.333 
#    0.000    1.667    0.000    9.333    0.000    0.000 
#    0.000    7.111    0.000    0.000    0.000    0.000 
#
# Total GULP energy -200474.437493 kJ/mol
# GULP energy per Si atom -5568.734375 kJ/mol
# Density = 1.939212 g / cm^3
# Si number density = 19.436354 Si / 1000 Ang^3
#
#
#
# Elastic Constant Matrix: (Units=GPa)
#
#
# Indices 1 2 3 4 5 6 
#
# 1 154.5885 105.7944 12.5773 0.0000 0.0000 0.0000
# 2 105.7944 149.9807 10.6215 0.0000 0.0000 0.0000
# 3 12.5773 10.6215 25.7693 0.0000 0.0000 0.0000
# 4 0.0000 0.0000 0.0000 -11.4653 0.0000 0.0000
# 5 0.0000 0.0000 0.0000 0.0000 4.2783 0.0000
# 6 0.0000 0.0000 0.0000 0.0000 0.0000 5.0771
#
#
#
# Elastic Compliance Matrix: (Units=1/GPa)
#
#
# Indices 1 2 3 4 5 6 
#
# 1 0.012670 -0.008755 -0.002575 0.000000 0.000000 0.000000
# 2 -0.008755 0.012917 -0.001051 0.000000 0.000000 0.000000
# 3 -0.002575 -0.001051 0.040496 0.000000 0.000000 0.000000
# 4 0.000000 0.000000 0.000000 -0.087219 0.000000 0.000000
# 5 0.000000 0.000000 0.000000 0.000000 0.233738 0.000000
# 6 0.000000 0.000000 0.000000 0.000000 0.000000 0.196961
#
#
# Mechanical properties :
#
#
# Convention : Reuss Voigt Hill
#
# Bulk Modulus (GPa) = 24.20096 65.36945 44.78520
# Shear Modulus (GPa) = 11.15826 13.00104 12.07965
#
# Velocity S-wave (km/s) = 2.39862 2.58912 2.49569
# Velocity P-wave (km/s) = 4.48883 6.53021 5.60327
#
# Compressibility (1/GPa) = 0.04132067
#
# Stress axis : x y z
#
# Youngs Moduli (GPa) = 78.92894 77.41517 24.69373
#
# Poissons Ratio (x) = 0.67774 0.06359
# Poissons Ratio (y) = 0.69099 0.02596
# Poissons Ratio (z) = 0.20326 0.08139
#
# Static dielectric constant tensor:
#      x y z
#    x 1.697620 0.000000 0.000000 
#    y 0.000000 1.738330 0.000000 
#    z 0.000000 0.000000 1.703710 
# 
# From -- ./inp_files/11311.got.cif
#   From: 2010.05.17/outbox.cif.g08.bks.cpg/sg65_6_cif.got.tgz:11311.got - 2010.06.03 17:01:31.
