data_PCOD9493416
_publ_section_title
;
Structure prediction by ZEFSAII (Michael W. Deem and Ramdas Pophale) SiO2 
 PCOD9493416
Probable space group: C M M M
;
_chemical_formula_sum "Si O2"
_cell_formula_units_Z 72
_cell_length_a 8.561866
_cell_length_b 23.918366
_cell_length_c 21.625035
_cell_angle_alpha 90.000000
_cell_angle_beta 90.000000
_cell_angle_gamma 90.000000
_cell_volume 4428.501058
_symmetry_space_group_name_H-M "C M M M"
_symmetry_group_IT_number 65
_symmetry_cell_setting 'orthorhombic'
loop_
_space_group_symop_operation_xyz
x,y,z
-x,-y,z
x,-y,-z
-x,y,-z
-x,-y,-z
x,y,-z
-x,y,z
x,-y,z
1/2+x,1/2+y,z
1/2-x,1/2-y,z
1/2+x,1/2-y,-z
1/2-x,1/2+y,-z
1/2-x,1/2-y,-z
1/2+x,1/2+y,-z
1/2-x,1/2+y,z
1/2+x,1/2-y,z
loop_
_atom_site_type_symbol
_atom_site_label
_atom_site_fract_x
_atom_site_fract_y
_atom_site_fract_z
Si Si1 0.311769 0.313658 0.000000
Si Si2 0.688035 0.379245 0.381511
Si Si3 0.186866 0.687239 0.500000
Si Si4 0.686000 0.813635 0.736172
Si Si5 0.312140 0.686229 0.866188
Si Si6 0.809998 0.000000 0.571858
O O1 0.250000 0.250000 0.000000
O O2 0.265763 0.338886 0.066717
O O3 0.500000 0.311310 0.000000
O O4 0.500000 0.377079 0.380668
O O5 0.749587 0.343990 0.439573
O O6 0.752225 0.351776 0.319220
O O7 0.737746 0.443319 0.393713
O O8 0.250000 0.750000 0.500000
O O9 0.000000 0.687120 0.500000
O O10 0.500000 0.810729 0.735110
O O11 0.750000 0.750000 0.729196
O O12 0.742427 0.836891 0.802715
O O13 0.500000 0.686540 0.861579
O O14 0.250000 0.750000 0.867770
O O15 0.757402 0.000000 0.500000
O O16 0.000000 0.000000 0.570016
#
# Coordination Sequence:
#
# PCOD9493416 Si02
#       6
#     8  16   8  16  16   8
#     4   8  14  22  36  58  86 119 160 199 232 274
#     4  11  21  37  57  75  96 124 158 197 239 289
#     4  12  24  37  52  75 101 128 158 194 235 282
#     4  11  21  33  47  69  99 132 166 201 242 287
#     4   9  15  25  40  61  89 125 162 198 237 280
#     4   9  18  36  60  80  94 117 154 195 242 292
#
# _framework density 16.258323000000001
#
# number of rings (size 3 to 8) (size 9 to 14) (size 15 to 20)
#    0.000    1.889    1.111    6.333    0.000    0.889 
#    0.000    2.778    0.000    0.000    0.000    0.000 
#    0.000    0.889    0.000   10.222    0.000    5.111 
#
# Total GULP energy -200695.948408 kJ/mol
# GULP energy per Si atom -5574.887456 kJ/mol
# Density = 1.622132 g / cm^3
# Si number density = 16.258323 Si / 1000 Ang^3
#
#
#
# Elastic Constant Matrix: (Units=GPa)
#
#
# Indices 1 2 3 4 5 6 
#
# 1 93.2768 32.0807 54.8417 0.0000 0.0000 0.0000
# 2 32.0807 91.6069 68.8562 0.0000 0.0000 0.0000
# 3 54.8417 68.8562 204.0647 0.0000 0.0000 0.0000
# 4 0.0000 0.0000 0.0000 3.0420 0.0000 0.0000
# 5 0.0000 0.0000 0.0000 0.0000 24.6753 0.0000
# 6 0.0000 0.0000 0.0000 0.0000 0.0000 13.2172
#
#
#
# Elastic Compliance Matrix: (Units=1/GPa)
#
#
# Indices 1 2 3 4 5 6 
#
# 1 0.013185 -0.002618 -0.002660 0.000000 0.000000 0.000000
# 2 -0.002618 0.015145 -0.004407 0.000000 0.000000 0.000000
# 3 -0.002660 -0.004407 0.007102 0.000000 0.000000 0.000000
# 4 0.000000 0.000000 0.000000 0.328727 0.000000 0.000000
# 5 0.000000 0.000000 0.000000 0.000000 0.040526 0.000000
# 6 0.000000 0.000000 0.000000 0.000000 0.000000 0.075659
#
#
# Mechanical properties :
#
#
# Convention : Reuss Voigt Hill
#
# Bulk Modulus (GPa) = 62.25485 77.83398 70.04441
# Shear Modulus (GPa) = 9.89962 23.73156 16.81559
#
# Velocity S-wave (km/s) = 2.47026 3.82469 3.21950
# Velocity P-wave (km/s) = 6.81986 8.21472 7.54957
#
# Compressibility (1/GPa) = 0.01606301
#
# Stress axis : x y z
#
# Youngs Moduli (GPa) = 75.84274 66.02654 140.79995
#
# Poissons Ratio (x) = 0.17286 0.37454
# Poissons Ratio (y) = 0.19855 0.62048
# Poissons Ratio (z) = 0.20175 0.29097
#
# Static dielectric constant tensor:
#      x y z
#    x 1.548000 0.000000 0.000000 
#    y 0.000000 1.522150 0.000000 
#    z 0.000000 0.000000 1.593040 
# 
# From -- ./inp_files/59582.got.cif
#   From: 2010.05.17/outbox.cif.g08.bks.cpg/sg65_30_cif.got.tgz:59582.got - 2010.06.03 17:01:31.
