data_PCOD9493987
_publ_section_title
;
Structure prediction by ZEFSAII (Michael W. Deem and Ramdas Pophale) SiO2 
 PCOD9493987
Probable space group: C M M M
;
_chemical_formula_sum "Si O2"
_cell_formula_units_Z 72
_cell_length_a 15.515033
_cell_length_b 8.532566
_cell_length_c 26.492293
_cell_angle_alpha 90.000000
_cell_angle_beta 90.000000
_cell_angle_gamma 90.000000
_cell_volume 3507.130365
_symmetry_space_group_name_H-M "C M M M"
_symmetry_group_IT_number 65
_symmetry_cell_setting 'orthorhombic'
loop_
_space_group_symop_operation_xyz
x,y,z
-x,-y,z
x,-y,-z
-x,y,-z
-x,-y,-z
x,y,-z
-x,y,z
x,-y,z
1/2+x,1/2+y,z
1/2-x,1/2-y,z
1/2+x,1/2-y,-z
1/2-x,1/2+y,-z
1/2-x,1/2-y,-z
1/2+x,1/2+y,-z
1/2-x,1/2+y,z
1/2+x,1/2-y,z
loop_
_atom_site_type_symbol
_atom_site_label
_atom_site_fract_x
_atom_site_fract_y
_atom_site_fract_z
Si Si1 0.000000 0.312159 0.441704
Si Si2 0.100633 0.811806 0.731544
Si Si3 0.896439 0.312825 0.162733
Si Si4 0.104079 0.688740 0.054125
Si Si5 0.159162 0.187762 0.377655
O O1 0.082669 0.249237 0.412159
O O2 0.000000 0.500000 0.440371
O O3 0.000000 0.261021 0.500000
O O4 0.137750 0.754781 0.784888
O O5 0.145375 0.756312 0.680302
O O6 0.000000 0.762113 0.728357
O O7 0.102067 0.000000 0.731975
O O8 0.885656 0.500000 0.163631
O O9 0.863269 0.251293 0.108401
O O10 0.000000 0.281420 0.162872
O O11 0.116781 0.500000 0.054080
O O12 0.000000 0.711496 0.054168
O O13 0.136763 0.750975 0.000000
O O14 0.250000 0.250000 0.396445
O O15 0.157574 0.000000 0.377328
#
# Coordination Sequence:
#
# PCOD9493987 Si02
#       5
#     8  16  16  16  16
#     4  11  25  45  69  97 127 161 200 241 288 341
#     4   9  17  31  49  71 104 143 181 225 283 343
#     4   8  13  20  34  59  86 120 171 222 270 328
#     4   7   9  14  25  44  75 114 157 210 268 322
#     4  11  23  41  64  92 124 161 203 246 294 347
#
# _framework density 20.529605
#
# number of rings (size 3 to 8) (size 9 to 14) (size 15 to 20)
#    0.000    3.000    1.111    3.000    0.000    3.111 
#    0.000    0.000    0.000    0.667    0.000    4.667 
#    0.000    0.889    0.000    2.000    0.000    5.333 
#
# Total GULP energy -200667.385312 kJ/mol
# GULP energy per Si atom -5574.094036 kJ/mol
# Density = 2.048288 g / cm^3
# Si number density = 20.529605 Si / 1000 Ang^3
#
#
#
# Elastic Constant Matrix: (Units=GPa)
#
#
# Indices 1 2 3 4 5 6 
#
# 1 89.0763 16.6192 63.4056 0.0000 0.0000 0.0000
# 2 16.6192 11.2529 39.2932 0.0000 0.0000 0.0000
# 3 63.4056 39.2932 207.0296 0.0000 0.0000 0.0000
# 4 0.0000 0.0000 0.0000 -28.5364 0.0000 0.0000
# 5 0.0000 0.0000 0.0000 0.0000 -19.2191 0.0000
# 6 0.0000 0.0000 0.0000 0.0000 0.0000 12.8804
#
#
#
# Elastic Compliance Matrix: (Units=1/GPa)
#
#
# Indices 1 2 3 4 5 6 
#
# 1 0.015596 -0.018842 -0.001200 0.000000 0.000000 0.000000
# 2 -0.018842 0.286254 -0.048559 0.000000 0.000000 0.000000
# 3 -0.001200 -0.048559 0.014414 0.000000 0.000000 0.000000
# 4 0.000000 0.000000 0.000000 -0.035043 0.000000 0.000000
# 5 0.000000 0.000000 0.000000 0.000000 -0.052032 0.000000
# 6 0.000000 0.000000 0.000000 0.000000 0.000000 0.077637
#
#
# Mechanical properties :
#
#
# Convention : Reuss Voigt Hill
#
# Bulk Modulus (GPa) = 5.58469 60.66608 33.12538
# Shear Modulus (GPa) = 9.92621 5.56105 7.74363
#
# Velocity S-wave (km/s) = 2.20127 1.64763 1.94425
# Velocity P-wave (km/s) = 3.03100 5.76492 4.60550
#
# Compressibility (1/GPa) = 0.17906109
#
# Stress axis : x y z
#
# Youngs Moduli (GPa) = 64.11807 3.49340 69.37667
#
# Poissons Ratio (x) = 0.06582 0.08328
# Poissons Ratio (y) = 1.20814 3.36885
# Poissons Ratio (z) = 0.07697 0.16964
#
# Static dielectric constant tensor:
#      x y z
#    x 1.759100 0.000000 0.000000 
#    y 0.000000 1.696920 0.000000 
#    z 0.000000 0.000000 1.788850 
# 
# From -- ./inp_files/72512.got.cif
#   From: 2010.05.17/outbox.cif.g08.bks.cpg/sg65_37_cif.got.tgz:72512.got - 2010.06.03 17:01:31.
