data_PCOD9493600
_publ_section_title
;
Structure prediction by ZEFSAII (Michael W. Deem and Ramdas Pophale) SiO2 
 PCOD9493600
Probable space group: C M M M
;
_chemical_formula_sum "Si O2"
_cell_formula_units_Z 64
_cell_length_a 7.854778
_cell_length_b 19.211178
_cell_length_c 21.789619
_cell_angle_alpha 90.000000
_cell_angle_beta 90.000000
_cell_angle_gamma 90.000000
_cell_volume 3288.043447
_symmetry_space_group_name_H-M "C M M M"
_symmetry_group_IT_number 65
_symmetry_cell_setting 'orthorhombic'
loop_
_space_group_symop_operation_xyz
x,y,z
-x,-y,z
x,-y,-z
-x,y,-z
-x,-y,-z
x,y,-z
-x,y,z
x,-y,z
1/2+x,1/2+y,z
1/2-x,1/2-y,z
1/2+x,1/2-y,-z
1/2-x,1/2+y,-z
1/2-x,1/2-y,-z
1/2+x,1/2+y,-z
1/2-x,1/2+y,z
1/2+x,1/2-y,z
loop_
_atom_site_type_symbol
_atom_site_label
_atom_site_fract_x
_atom_site_fract_y
_atom_site_fract_z
Si Si1 0.796395 0.416007 0.434108
Si Si2 0.795165 0.921072 0.068907
Si Si3 0.798626 0.330383 0.185242
Si Si4 0.291125 0.081106 0.699875
O O1 0.726752 0.390622 0.500000
O O2 0.776015 0.500000 0.433520
O O3 0.732292 0.392715 0.367422
O O4 0.000000 0.403049 0.434964
O O5 0.747435 0.868206 0.121959
O O6 0.000000 0.923315 0.066863
O O7 0.734991 0.000000 0.082685
O O8 0.735493 0.902422 0.000000
O O9 0.750000 0.250000 0.185330
O O10 0.727779 0.372673 0.243750
O O11 0.000000 0.334195 0.190976
O O12 0.500000 0.081934 0.698810
O O13 0.242642 0.000000 0.707877
#
# Coordination Sequence:
#
# PCOD9493600 Si02
#       4
#    16  16  16  16
#     4   7   9  15  31  57  87 115 144 185 238 288
#     4   9  19  37  59  80 101 124 152 191 239 290
#     4  11  22  34  49  70  99 134 168 203 241 282
#     4   8  14  25  42  65  91 119 155 199 243 286
#
# _framework density 19.464462000000001
#
# number of rings (size 3 to 8) (size 9 to 14) (size 15 to 20)
#    0.000    3.250    0.000    4.500    0.000    2.500 
#    0.000    1.250    0.000    0.750    0.000    0.000 
#    0.000    3.000    0.000   28.250    0.000   23.250 
#
# Total GULP energy -178219.199199 kJ/mol
# GULP energy per Si atom -5569.349975 kJ/mol
# Density = 1.942016 g / cm^3
# Si number density = 19.464462 Si / 1000 Ang^3
#
#
#
# Elastic Constant Matrix: (Units=GPa)
#
#
# Indices 1 2 3 4 5 6 
#
# 1 21.5586 6.7074 12.4064 0.0000 0.0000 0.0000
# 2 6.7074 99.3209 116.7667 0.0000 0.0000 0.0000
# 3 12.4064 116.7667 231.1282 0.0000 0.0000 0.0000
# 4 0.0000 0.0000 0.0000 -3.8362 0.0000 0.0000
# 5 0.0000 0.0000 0.0000 0.0000 -18.0516 0.0000
# 6 0.0000 0.0000 0.0000 0.0000 0.0000 -39.0914
#
#
#
# Elastic Compliance Matrix: (Units=1/GPa)
#
#
# Indices 1 2 3 4 5 6 
#
# 1 0.047875 -0.000522 -0.002306 0.000000 0.000000 0.000000
# 2 -0.000522 0.024801 -0.012502 0.000000 0.000000 0.000000
# 3 -0.002306 -0.012502 0.010766 0.000000 0.000000 0.000000
# 4 0.000000 0.000000 0.000000 -0.260671 0.000000 0.000000
# 5 0.000000 0.000000 0.000000 0.000000 -0.055397 0.000000
# 6 0.000000 0.000000 0.000000 0.000000 0.000000 -0.025581
#
#
# Mechanical properties :
#
#
# Convention : Reuss Voigt Hill
#
# Bulk Modulus (GPa) = 18.94560 69.30764 44.12662
# Shear Modulus (GPa) = -23.81478 2.21263 -10.80107
#
# Velocity S-wave (km/s) = -3.50165 1.06734 -2.35821
# Velocity P-wave (km/s) = 2.56792 6.09947 3.91212
#
# Compressibility (1/GPa) = 0.05278272
#
# Stress axis : x y z
#
# Youngs Moduli (GPa) = 20.88790 40.32068 92.88288
#
# Poissons Ratio (x) = 0.02104 0.21420
# Poissons Ratio (y) = 0.01090 1.16119
# Poissons Ratio (z) = 0.04817 0.50407
#
# Static dielectric constant tensor:
#      x y z
#    x 1.717730 0.000000 0.000000 
#    y 0.000000 1.579770 0.000000 
#    z 0.000000 0.000000 1.751170 
# 
# From -- ./inp_files/58756.got.cif
#   From: 2010.05.17/outbox.cif.g08.bks.cpg/sg65_30_cif.got.tgz:58756.got - 2010.06.03 17:01:31.
