data_PCOD9493476
_publ_section_title
;
Structure prediction by ZEFSAII (Michael W. Deem and Ramdas Pophale) SiO2 
 PCOD9493476
Probable space group: C M M M
;
_chemical_formula_sum "Si O2"
_cell_formula_units_Z 72
_cell_length_a 18.042367
_cell_length_b 8.709875
_cell_length_c 24.078996
_cell_angle_alpha 90.000000
_cell_angle_beta 90.000000
_cell_angle_gamma 90.000000
_cell_volume 3783.936236
_symmetry_space_group_name_H-M "C M M M"
_symmetry_group_IT_number 65
_symmetry_cell_setting 'orthorhombic'
loop_
_space_group_symop_operation_xyz
x,y,z
-x,-y,z
x,-y,-z
-x,y,-z
-x,-y,-z
x,y,-z
-x,y,z
x,-y,z
1/2+x,1/2+y,z
1/2-x,1/2-y,z
1/2+x,1/2-y,-z
1/2-x,1/2+y,-z
1/2-x,1/2-y,-z
1/2+x,1/2+y,-z
1/2-x,1/2+y,z
1/2+x,1/2-y,z
loop_
_atom_site_type_symbol
_atom_site_label
_atom_site_fract_x
_atom_site_fract_y
_atom_site_fract_z
Si Si1 0.333813 0.684184 0.939237
Si Si2 0.911818 0.817286 0.500000
Si Si3 0.588121 0.682401 0.717025
Si Si4 0.333610 0.183319 0.824921
Si Si5 0.667266 0.816505 0.391516
O O1 0.330931 0.500000 0.933582
O O2 0.250000 0.750000 0.940872
O O3 0.366663 0.756574 0.883483
O O4 0.367477 0.720135 0.000000
O O5 0.876187 0.743967 0.445329
O O6 0.000000 0.793150 0.500000
O O7 0.897627 0.000000 0.500000
O O8 0.500000 0.705264 0.713668
O O9 0.603168 0.500000 0.717453
O O10 0.620172 0.756409 0.772907
O O11 0.627084 0.756822 0.663825
O O12 0.250000 0.250000 0.820130
O O13 0.329860 0.000000 0.825425
O O14 0.750000 0.750000 0.392894
O O15 0.669575 0.000000 0.391687
#
# Coordination Sequence:
#
# PCOD9493476 Si02
#       5
#    16   8  16  16  16
#     4   9  16  27  46  74 108 144 184 231 283 338
#     4  11  24  43  66  93 127 163 198 237 286 341
#     4  11  24  42  62  84 114 151 191 237 291 348
#     4  11  21  34  55  82 114 149 189 236 285 341
#     4  12  25  42  65  92 123 156 196 242 287 338
#
# _framework density 19.027805000000001
#
# number of rings (size 3 to 8) (size 9 to 14) (size 15 to 20)
#    0.000    1.222    0.000    8.667    0.000    6.667 
#    0.000    0.000    0.000    0.667    0.000    4.667 
#    0.000    0.000    0.000    0.000    0.000    0.000 
#
# Total GULP energy -201252.384899 kJ/mol
# GULP energy per Si atom -5590.344025 kJ/mol
# Density = 1.898450 g / cm^3
# Si number density = 19.027805 Si / 1000 Ang^3
#
#
#
# Elastic Constant Matrix: (Units=GPa)
#
#
# Indices 1 2 3 4 5 6 
#
# 1 72.3257 85.7562 76.7949 0.0000 0.0000 0.0000
# 2 85.7562 188.7805 112.9955 0.0000 0.0000 0.0000
# 3 76.7949 112.9955 234.4621 0.0000 0.0000 0.0000
# 4 0.0000 0.0000 0.0000 40.0635 0.0000 0.0000
# 5 0.0000 0.0000 0.0000 0.0000 -14.8905 0.0000
# 6 0.0000 0.0000 0.0000 0.0000 0.0000 26.0757
#
#
#
# Elastic Compliance Matrix: (Units=1/GPa)
#
#
# Indices 1 2 3 4 5 6 
#
# 1 0.033918 -0.012309 -0.005177 0.000000 0.000000 0.000000
# 2 -0.012309 0.011912 -0.001709 0.000000 0.000000 0.000000
# 3 -0.005177 -0.001709 0.006784 0.000000 0.000000 0.000000
# 4 0.000000 0.000000 0.000000 0.024960 0.000000 0.000000
# 5 0.000000 0.000000 0.000000 0.000000 -0.067157 0.000000
# 6 0.000000 0.000000 0.000000 0.000000 0.000000 0.038350
#
#
# Mechanical properties :
#
#
# Convention : Reuss Voigt Hill
#
# Bulk Modulus (GPa) = 70.30484 116.29571 93.30028
# Shear Modulus (GPa) = 54.40729 24.91785 39.66257
#
# Velocity S-wave (km/s) = 5.35310 3.62270 4.57053
# Velocity P-wave (km/s) = 8.67388 8.87412 8.77457
#
# Compressibility (1/GPa) = 0.01422377
#
# Stress axis : x y z
#
# Youngs Moduli (GPa) = 29.48266 83.95192 147.39526
#
# Poissons Ratio (x) = 1.03336 0.76312
# Poissons Ratio (y) = 0.36290 0.25190
# Poissons Ratio (z) = 0.15264 0.14347
#
# Static dielectric constant tensor:
#      x y z
#    x 1.627970 0.000000 0.000000 
#    y 0.000000 1.633120 0.000000 
#    z 0.000000 0.000000 1.670400 
# 
# From -- ./inp_files/70307.got.cif
#   From: 2010.05.17/outbox.cif.g08.bks.cpg/sg65_36_cif.got.tgz:70307.got - 2010.06.03 17:01:31.
