data_PCOD9493495
_publ_section_title
;
Structure prediction by ZEFSAII (Michael W. Deem and Ramdas Pophale) SiO2 
 PCOD9493495
Probable space group: C M M M
;
_chemical_formula_sum "Si O2"
_cell_formula_units_Z 64
_cell_length_a 16.743081
_cell_length_b 10.441291
_cell_length_c 20.495145
_cell_angle_alpha 90.000000
_cell_angle_beta 90.000000
_cell_angle_gamma 90.000000
_cell_volume 3582.948562
_symmetry_space_group_name_H-M "C M M M"
_symmetry_group_IT_number 65
_symmetry_cell_setting 'orthorhombic'
loop_
_space_group_symop_operation_xyz
x,y,z
-x,-y,z
x,-y,-z
-x,y,-z
-x,-y,-z
x,y,-z
-x,y,z
x,-y,z
1/2+x,1/2+y,z
1/2-x,1/2-y,z
1/2+x,1/2-y,-z
1/2-x,1/2+y,-z
1/2-x,1/2-y,-z
1/2+x,1/2+y,-z
1/2-x,1/2+y,z
1/2+x,1/2-y,z
loop_
_atom_site_type_symbol
_atom_site_label
_atom_site_fract_x
_atom_site_fract_y
_atom_site_fract_z
Si Si1 0.646024 0.500000 0.075537
Si Si2 0.405367 0.155296 0.570196
Si Si3 0.337382 0.000000 0.074642
Si Si4 0.402561 0.849924 0.712079
Si Si5 0.404581 0.755624 0.149860
O O1 0.741796 0.500000 0.074267
O O2 0.617857 0.374883 0.114119
O O3 0.617773 0.500000 0.000000
O O4 0.371409 0.198983 0.500000
O O5 0.500000 0.186696 0.569224
O O6 0.373310 0.196747 0.640901
O O7 0.400803 0.000000 0.571274
O O8 0.367841 0.874324 0.111041
O O9 0.366098 0.000000 0.000000
O O10 0.500000 0.848156 0.709440
O O11 0.377540 0.768121 0.774683
O O12 0.380584 0.000000 0.721813
O O13 0.500000 0.769289 0.149508
#
# Coordination Sequence:
#
# PCOD9493495 Si02
#       5
#     8  16   8  16  16
#     4  11  25  41  53  71 104 137 166 208 259 309
#     4   7   9  14  28  54  91 129 155 183 235 291
#     4  11  23  39  57  75  98 131 170 210 255 307
#     4   8  13  23  40  66  98 126 158 203 246 284
#     4  11  21  35  56  80 103 131 167 211 257 300
#
# _framework density 17.862383999999999
#
# number of rings (size 3 to 8) (size 9 to 14) (size 15 to 20)
#    0.000    2.750    1.250    4.500    0.000    5.000 
#    0.000    0.000    0.000    0.000    0.000    0.875 
#    0.000   12.000    0.000    0.000    0.000    0.000 
#
# Total GULP energy -178180.658192 kJ/mol
# GULP energy per Si atom -5568.145569 kJ/mol
# Density = 1.782173 g / cm^3
# Si number density = 17.862384 Si / 1000 Ang^3
#
#
#
# Elastic Constant Matrix: (Units=GPa)
#
#
# Indices 1 2 3 4 5 6 
#
# 1 23.6170 15.8220 25.5422 0.0000 0.0000 0.0000
# 2 15.8220 116.7430 86.5033 0.0000 0.0000 0.0000
# 3 25.5422 86.5033 244.7571 0.0000 0.0000 0.0000
# 4 0.0000 0.0000 0.0000 43.4105 0.0000 0.0000
# 5 0.0000 0.0000 0.0000 0.0000 -40.4957 0.0000
# 6 0.0000 0.0000 0.0000 0.0000 0.0000 21.6228
#
#
#
# Elastic Compliance Matrix: (Units=1/GPa)
#
#
# Indices 1 2 3 4 5 6 
#
# 1 0.048982 -0.003862 -0.003747 0.000000 0.000000 0.000000
# 2 -0.003862 0.011909 -0.003806 0.000000 0.000000 0.000000
# 3 -0.003747 -0.003806 0.005822 0.000000 0.000000 0.000000
# 4 0.000000 0.000000 0.000000 0.023036 0.000000 0.000000
# 5 0.000000 0.000000 0.000000 0.000000 -0.024694 0.000000
# 6 0.000000 0.000000 0.000000 0.000000 0.000000 0.046248
#
#
# Mechanical properties :
#
#
# Convention : Reuss Voigt Hill
#
# Bulk Modulus (GPa) = 22.78770 71.20578 46.99674
# Shear Modulus (GPa) = 33.61111 22.05749 27.83430
#
# Velocity S-wave (km/s) = 4.34253 3.51787 3.95177
# Velocity P-wave (km/s) = 6.15861 7.51336 6.86946
#
# Compressibility (1/GPa) = 0.04388332
#
# Stress axis : x y z
#
# Youngs Moduli (GPa) = 20.41568 83.96699 171.76769
#
# Poissons Ratio (x) = 0.32431 0.64354
# Poissons Ratio (y) = 0.07885 0.65375
# Poissons Ratio (z) = 0.07649 0.31958
#
# Static dielectric constant tensor:
#      x y z
#    x 1.599530 0.000000 0.000000 
#    y 0.000000 1.574180 0.000000 
#    z 0.000000 0.000000 1.699860 
# 
# From -- ./inp_files/63279.got.cif
#   From: 2010.05.17/outbox.cif.g08.bks.cpg/sg65_32_cif.got.tgz:63279.got - 2010.06.03 17:01:31.
