data_PCOD9493218
_publ_section_title
;
Structure prediction by ZEFSAII (Michael W. Deem and Ramdas Pophale) SiO2 
 PCOD9493218
Probable space group: C M M M
;
_chemical_formula_sum "Si O2"
_cell_formula_units_Z 48
_cell_length_a 17.285204
_cell_length_b 14.130227
_cell_length_c 10.508922
_cell_angle_alpha 90.000000
_cell_angle_beta 90.000000
_cell_angle_gamma 90.000000
_cell_volume 2566.739634
_symmetry_space_group_name_H-M "C M M M"
_symmetry_group_IT_number 65
_symmetry_cell_setting 'orthorhombic'
loop_
_space_group_symop_operation_xyz
x,y,z
-x,-y,z
x,-y,-z
-x,y,-z
-x,-y,-z
x,y,-z
-x,y,z
x,-y,z
1/2+x,1/2+y,z
1/2-x,1/2-y,z
1/2+x,1/2-y,-z
1/2-x,1/2+y,-z
1/2-x,1/2-y,-z
1/2+x,1/2+y,-z
1/2-x,1/2+y,z
1/2+x,1/2-y,z
loop_
_atom_site_type_symbol
_atom_site_label
_atom_site_fract_x
_atom_site_fract_y
_atom_site_fract_z
Si Si1 0.689693 0.000000 0.255993
Si Si2 0.699018 0.500000 0.500000
Si Si3 0.708855 0.500000 0.000000
Si Si4 0.908305 0.308411 0.750671
Si Si5 0.408645 0.683514 0.500000
Si Si6 0.661582 0.288044 0.000000
O O1 0.747335 0.000000 0.375351
O O2 0.637179 0.906629 0.259144
O O3 0.738092 0.000000 0.125524
O O4 0.644897 0.407941 0.500000
O O5 0.661959 0.401904 0.000000
O O6 0.893346 0.246025 0.625194
O O7 0.000000 0.325573 0.759455
O O8 0.879237 0.252632 0.874668
O O9 0.500000 0.658100 0.500000
O O10 0.750000 0.250000 0.000000
#
# Coordination Sequence:
#
# PCOD9493218 Si02
#       6
#     8   4   4  16   8   8
#     4  12  23  39  64  97 124 164 212 266 316 387
#     4  12  25  38  67  94 126 170 212 258 331 370
#     4  12  24  38  62  96 128 160 208 270 312 360
#     4  11  24  43  65  92 129 171 210 264 324 379
#     4  10  24  43  63  91 130 169 213 260 313 388
#     4  12  23  42  65  94 131 163 217 261 312 378
#
# _framework density 18.700766999999999
#
# number of rings (size 3 to 8) (size 9 to 14) (size 15 to 20)
#    0.000    0.667    3.333    4.250    0.000    1.333 
#    0.000    9.167    0.000    0.000    0.000    0.000 
#    0.000    0.000    0.000    0.000    0.000    0.000 
#
# Total GULP energy -134325.633165 kJ/mol
# GULP energy per Si atom -5596.901382 kJ/mol
# Density = 1.865820 g / cm^3
# Si number density = 18.700767 Si / 1000 Ang^3
#
#
#
# Elastic Constant Matrix: (Units=GPa)
#
#
# Indices 1 2 3 4 5 6 
#
# 1 107.5457 118.8290 104.9615 0.0000 0.0000 0.0000
# 2 118.8290 226.1798 105.3425 0.0000 0.0000 0.0000
# 3 104.9615 105.3425 217.5841 0.0000 0.0000 0.0000
# 4 0.0000 0.0000 0.0000 -32.0562 0.0000 0.0000
# 5 0.0000 0.0000 0.0000 0.0000 33.3372 0.0000
# 6 0.0000 0.0000 0.0000 0.0000 0.0000 -13.9270
#
#
#
# Elastic Compliance Matrix: (Units=1/GPa)
#
#
# Indices 1 2 3 4 5 6 
#
# 1 0.032779 -0.012726 -0.009651 0.000000 0.000000 0.000000
# 2 -0.012726 0.010649 0.000983 0.000000 0.000000 0.000000
# 3 -0.009651 0.000983 0.008776 0.000000 0.000000 0.000000
# 4 0.000000 0.000000 0.000000 -0.031195 0.000000 0.000000
# 5 0.000000 0.000000 0.000000 0.000000 0.029997 0.000000
# 6 0.000000 0.000000 0.000000 0.000000 0.000000 -0.071803
#
#
# Mechanical properties :
#
#
# Convention : Reuss Voigt Hill
#
# Bulk Modulus (GPa) = 106.20556 134.39731 120.30143
# Shear Modulus (GPa) = 198.97175 12.28255 105.62715
#
# Velocity S-wave (km/s) = 10.32611 2.56558 7.52366
# Velocity P-wave (km/s) = 14.10981 8.98886 11.82976
#
# Compressibility (1/GPa) = 0.00941570
#
# Stress axis : x y z
#
# Youngs Moduli (GPa) = 30.50730 93.90202 113.95348
#
# Poissons Ratio (x) = 1.19503 1.09977
# Poissons Ratio (y) = 0.38825 -0.11204
# Poissons Ratio (z) = 0.29443 -0.09233
#
# Static dielectric constant tensor:
#      x y z
#    x 1.620810 0.000000 0.000000 
#    y 0.000000 1.617250 0.000000 
#    z 0.000000 0.000000 1.611940 
# 
# From -- ./inp_files/8233.got.cif
#   From: 2010.05.17/outbox.cif.g08.bks.cpg/sg65_5_cif.got.tgz:8233.got - 2010.06.03 17:01:31.
