data_PCOD9493149
_publ_section_title
;
Structure prediction by ZEFSAII (Michael W. Deem and Ramdas Pophale) SiO2 
 PCOD9493149
Probable space group: C M M M
;
_chemical_formula_sum "Si O2"
_cell_formula_units_Z 58
_cell_length_a 9.995477
_cell_length_b 25.922397
_cell_length_c 12.584901
_cell_angle_alpha 90.000000
_cell_angle_beta 90.000000
_cell_angle_gamma 90.000000
_cell_volume 3260.832457
_symmetry_space_group_name_H-M "C M M M"
_symmetry_group_IT_number 65
_symmetry_cell_setting 'orthorhombic'
loop_
_space_group_symop_operation_xyz
x,y,z
-x,-y,z
x,-y,-z
-x,y,-z
-x,-y,-z
x,y,-z
-x,y,z
x,-y,z
1/2+x,1/2+y,z
1/2-x,1/2-y,z
1/2+x,1/2-y,-z
1/2-x,1/2+y,-z
1/2-x,1/2-y,-z
1/2+x,1/2+y,-z
1/2-x,1/2+y,z
1/2+x,1/2-y,z
loop_
_atom_site_type_symbol
_atom_site_label
_atom_site_fract_x
_atom_site_fract_y
_atom_site_fract_z
Si Si1 0.160039 0.802309 0.000000
Si Si2 0.500000 0.058353 0.126569
Si Si3 0.500000 0.500000 0.500000
Si Si4 0.500000 0.557126 0.722474
Si Si5 0.345242 0.799115 0.621362
Si Si6 0.746436 0.374945 0.197271
O O1 0.250000 0.750000 0.000000
O O2 0.196779 0.837089 0.102963
O O3 0.000000 0.790758 0.000000
O O4 0.631662 0.089400 0.159623
O O5 0.500000 0.000000 0.170587
O O6 0.500000 0.055318 0.000000
O O7 0.500000 0.544308 0.596362
O O8 0.500000 0.500000 0.774124
O O9 0.627696 0.589188 0.760274
O O10 0.333540 0.818469 0.500000
O O11 0.500000 0.784404 0.638961
O O12 0.250000 0.750000 0.632014
O O13 0.300549 0.840648 0.706284
#
# Coordination Sequence:
#
# PCOD9493149 Si02
#       6
#     8   8   2   8  16  16
#     4  12  28  44  65  98 136 176 225 272 331 392
#     4  11  24  42  65  94 131 171 214 262 325 387
#     4   8  24  48  68 100 132 176 224 278 346 376
#     4  10  24  43  68  97 129 166 224 273 327 401
#     4  10  23  40  61  92 126 164 212 264 323 393
#     4  12  23  43  67  95 131 174 215 269 331 389
#
# _framework density 17.78687
#
# number of rings (size 3 to 8) (size 9 to 14) (size 15 to 20)
#    0.414    0.690    4.138    1.655    5.793    2.207 
#    0.000    0.690    0.000    1.655    0.000    0.000 
#    0.000    0.000    0.000    0.000    0.000    0.000 
#
# Total GULP energy -161641.174936 kJ/mol
# GULP energy per Si atom -5573.833618 kJ/mol
# Density = 1.774639 g / cm^3
# Si number density = 17.786870 Si / 1000 Ang^3
#
#
#
# Elastic Constant Matrix: (Units=GPa)
#
#
# Indices 1 2 3 4 5 6 
#
# 1 186.0078 93.2692 87.1897 0.0000 0.0000 0.0000
# 2 93.2692 137.7085 96.7268 0.0000 0.0000 0.0000
# 3 87.1897 96.7268 123.5228 0.0000 0.0000 0.0000
# 4 0.0000 0.0000 0.0000 43.5482 0.0000 0.0000
# 5 0.0000 0.0000 0.0000 0.0000 16.3543 0.0000
# 6 0.0000 0.0000 0.0000 0.0000 0.0000 98.4007
#
#
#
# Elastic Compliance Matrix: (Units=1/GPa)
#
#
# Indices 1 2 3 4 5 6 
#
# 1 0.008743 -0.003526 -0.003410 0.000000 0.000000 0.000000
# 2 -0.003526 0.017561 -0.011262 0.000000 0.000000 0.000000
# 3 -0.003410 -0.011262 0.019321 0.000000 0.000000 0.000000
# 4 0.000000 0.000000 0.000000 0.022963 0.000000 0.000000
# 5 0.000000 0.000000 0.000000 0.000000 0.061146 0.000000
# 6 0.000000 0.000000 0.000000 0.000000 0.000000 0.010163
#
#
# Mechanical properties :
#
#
# Convention : Reuss Voigt Hill
#
# Bulk Modulus (GPa) = 108.36072 111.29005 109.82539
# Shear Modulus (GPa) = 27.87562 42.99753 35.43657
#
# Velocity S-wave (km/s) = 3.96308 4.92201 4.46835
# Velocity P-wave (km/s) = 9.05513 9.74711 9.40748
#
# Compressibility (1/GPa) = 0.00922844
#
# Stress axis : x y z
#
# Youngs Moduli (GPa) = 114.38284 56.94579 51.75633
#
# Poissons Ratio (x) = 0.20081 0.17647
# Poissons Ratio (y) = 0.40335 0.58288
# Poissons Ratio (z) = 0.39000 0.64132
#
# Static dielectric constant tensor:
#      x y z
#    x 1.586440 0.000000 0.000000 
#    y 0.000000 1.597660 0.000000 
#    z 0.000000 0.000000 1.595310 
# 
# From -- ./inp_files/20569.got.cif
#   From: 2010.05.17/outbox.cif.g08.bks.cpg/sg65_11_cif.got.tgz:20569.got - 2010.06.03 17:01:31.
