data_PCOD9493047
_publ_section_title
;
Structure prediction by ZEFSAII (Michael W. Deem and Ramdas Pophale) SiO2 
 PCOD9493047
Probable space group: C M M M
;
_chemical_formula_sum "Si O2"
_cell_formula_units_Z 104
_cell_length_a 27.120095
_cell_length_b 23.856369
_cell_length_c 8.695498
_cell_angle_alpha 90.000000
_cell_angle_beta 90.000000
_cell_angle_gamma 90.000000
_cell_volume 5625.874109
_symmetry_space_group_name_H-M "C M M M"
_symmetry_group_IT_number 65
_symmetry_cell_setting 'orthorhombic'
loop_
_space_group_symop_operation_xyz
x,y,z
-x,-y,z
x,-y,-z
-x,y,-z
-x,-y,-z
x,y,-z
-x,y,z
x,-y,z
1/2+x,1/2+y,z
1/2-x,1/2-y,z
1/2+x,1/2-y,-z
1/2-x,1/2+y,-z
1/2-x,1/2-y,-z
1/2+x,1/2+y,-z
1/2-x,1/2+y,z
1/2+x,1/2-y,z
loop_
_atom_site_type_symbol
_atom_site_label
_atom_site_fract_x
_atom_site_fract_y
_atom_site_fract_z
Si Si1 0.943350 0.566830 0.328631
Si Si2 0.824174 0.063684 0.814665
Si Si3 0.208985 0.563119 0.812769
Si Si4 0.942909 0.260288 0.314769
Si Si5 0.373870 0.144487 0.176491
Si Si6 0.910189 0.135461 0.315845
Si Si7 0.000000 0.064812 0.184238
O O1 0.925184 0.584029 0.500000
O O2 0.942378 0.500000 0.323052
O O3 0.911888 0.593155 0.194663
O O4 0.000000 0.585288 0.318159
O O5 0.766516 0.069895 0.773750
O O6 0.858525 0.110805 0.742288
O O7 0.839516 0.000000 0.769623
O O8 0.827902 0.066663 0.000000
O O9 0.193162 0.500000 0.761423
O O10 0.175822 0.615341 0.758637
O O11 0.205465 0.562808 0.000000
O O12 0.944343 0.262090 0.500000
O O13 0.902962 0.305457 0.258699
O O14 0.924072 0.198638 0.267120
O O15 0.000000 0.269464 0.261674
O O16 0.365471 0.160335 0.000000
O O17 0.911386 0.134120 0.500000
O O18 0.952174 0.095292 0.249448
O O19 0.000000 0.000000 0.229113
O O20 0.000000 0.068363 0.000000
#
# Coordination Sequence:
#
# PCOD9493047 Si02
#       7
#    16  16  16  16  16  16   8
#     4   9  18  32  48  68  99 139 176 214 272 341
#     4   9  18  35  59  84 111 145 179 214 269 336
#     4   8  16  33  55  79 111 146 177 218 276 335
#     4  10  22  41  57  71 103 151 190 221 270 333
#     4  11  21  32  52  81 105 134 183 236 279 317
#     4  11  22  38  58  82 111 146 185 226 271 318
#     4  11  23  37  57  87 119 147 176 215 268 333
#
# _framework density 18.486014999999998
#
# number of rings (size 3 to 8) (size 9 to 14) (size 15 to 20)
#    0.000    2.231    0.769    3.923    0.000    7.385 
#    0.000    3.077    0.000    6.462    0.000    0.000 
#    0.000    0.000    0.000    0.000    0.000    0.000 
#
# Total GULP energy -289941.556391 kJ/mol
# GULP energy per Si atom -5575.799161 kJ/mol
# Density = 1.844394 g / cm^3
# Si number density = 18.486015 Si / 1000 Ang^3
#
#
#
# Elastic Constant Matrix: (Units=GPa)
#
#
# Indices 1 2 3 4 5 6 
#
# 1 102.7405 75.9820 18.4676 0.0000 0.0000 0.0000
# 2 75.9820 129.6681 24.6210 0.0000 0.0000 0.0000
# 3 18.4676 24.6210 14.6093 0.0000 0.0000 0.0000
# 4 0.0000 0.0000 0.0000 33.8978 0.0000 0.0000
# 5 0.0000 0.0000 0.0000 0.0000 48.6668 0.0000
# 6 0.0000 0.0000 0.0000 0.0000 0.0000 24.6048
#
#
#
# Elastic Compliance Matrix: (Units=1/GPa)
#
#
# Indices 1 2 3 4 5 6 
#
# 1 0.017676 -0.008993 -0.007189 0.000000 0.000000 0.000000
# 2 -0.008993 0.015916 -0.015456 0.000000 0.000000 0.000000
# 3 -0.007189 -0.015456 0.103584 0.000000 0.000000 0.000000
# 4 0.000000 0.000000 0.000000 0.029500 0.000000 0.000000
# 5 0.000000 0.000000 0.000000 0.000000 0.020548 0.000000
# 6 0.000000 0.000000 0.000000 0.000000 0.000000 0.040642
#
#
# Mechanical properties :
#
#
# Convention : Reuss Voigt Hill
#
# Bulk Modulus (GPa) = 13.53148 53.90655 33.71902
# Shear Modulus (GPa) = 15.83403 29.96372 22.89887
#
# Velocity S-wave (km/s) = 2.92985 4.03039 3.52335
# Velocity P-wave (km/s) = 4.33371 7.13321 5.90186
#
# Compressibility (1/GPa) = 0.07390175
#
# Stress axis : x y z
#
# Youngs Moduli (GPa) = 56.57387 62.82933 9.65398
#
# Poissons Ratio (x) = 0.56500 0.06940
# Poissons Ratio (y) = 0.50875 0.14921
# Poissons Ratio (z) = 0.40670 0.97107
#
# Static dielectric constant tensor:
#      x y z
#    x 1.542850 0.000000 0.000000 
#    y 0.000000 1.646600 0.000000 
#    z 0.000000 0.000000 1.650460 
# 
# From -- ./inp_files/16743.got.cif
#   From: 2010.05.17/outbox.cif.g08.bks.cpg/sg65_9_cif.got.tgz:16743.got - 2010.06.03 17:01:31.
