data_PCOD9493675
_publ_section_title
;
Structure prediction by ZEFSAII (Michael W. Deem and Ramdas Pophale) SiO2 
 PCOD9493675
Probable space group: C M M M
;
_chemical_formula_sum "Si O2"
_cell_formula_units_Z 88
_cell_length_a 31.819520
_cell_length_b 8.064856
_cell_length_c 18.285713
_cell_angle_alpha 90.000000
_cell_angle_beta 90.000000
_cell_angle_gamma 90.000000
_cell_volume 4692.476868
_symmetry_space_group_name_H-M "C M M M"
_symmetry_group_IT_number 65
_symmetry_cell_setting 'orthorhombic'
loop_
_space_group_symop_operation_xyz
x,y,z
-x,-y,z
x,-y,-z
-x,y,-z
-x,-y,-z
x,y,-z
-x,y,z
x,-y,z
1/2+x,1/2+y,z
1/2-x,1/2-y,z
1/2+x,1/2-y,-z
1/2-x,1/2+y,-z
1/2-x,1/2-y,-z
1/2+x,1/2+y,-z
1/2-x,1/2+y,z
1/2+x,1/2-y,z
loop_
_atom_site_type_symbol
_atom_site_label
_atom_site_fract_x
_atom_site_fract_y
_atom_site_fract_z
Si Si1 0.296098 0.195374 0.258506
Si Si2 0.588641 0.702610 0.641994
Si Si3 0.452617 0.297508 0.915231
Si Si4 0.382752 0.300779 0.198429
Si Si5 0.176305 0.800110 0.420150
Si Si6 0.500000 0.297778 0.584579
O O1 0.250000 0.250000 0.234332
O O2 0.333534 0.259265 0.206282
O O3 0.302423 0.250876 0.343463
O O4 0.298694 0.000000 0.258607
O O5 0.588158 0.500000 0.641074
O O6 0.598831 0.756805 0.723894
O O7 0.627471 0.750730 0.590429
O O8 0.543158 0.762532 0.619000
O O9 0.500000 0.247695 0.890642
O O10 0.452396 0.500000 0.913586
O O11 0.413620 0.239288 0.865630
O O12 0.447757 0.248229 0.000000
O O13 0.385274 0.500000 0.196511
O O14 0.191917 0.739644 0.500000
O O15 0.178106 0.000000 0.421805
O O16 0.500000 0.500000 0.590830
O O17 0.500000 0.256886 0.500000
#
# Coordination Sequence:
#
# PCOD9493675 Si02
#       6
#    16  16  16  16  16   8
#     4  11  22  36  53  72  96 126 167 212 259 309
#     4   8  14  22  35  59  90 124 160 199 241 279
#     4   8  14  25  46  80 116 143 167 200 243 289
#     4   9  17  30  49  73 102 133 167 205 247 294
#     4   9  17  31  49  69  96 128 163 207 257 305
#     4   9  14  18  28  52  86 120 156 199 241 275
#
# _framework density 18.753422
#
# number of rings (size 3 to 8) (size 9 to 14) (size 15 to 20)
#    0.000    3.000    0.000    3.818    1.273    2.909 
#    0.000    0.000    0.000    1.636    0.000    1.273 
#    0.000    6.909    0.000    0.000    0.000    0.000 
#
# Total GULP energy -245062.462893 kJ/mol
# GULP energy per Si atom -5569.601429 kJ/mol
# Density = 1.871074 g / cm^3
# Si number density = 18.753422 Si / 1000 Ang^3
#
#
#
# Elastic Constant Matrix: (Units=GPa)
#
#
# Indices 1 2 3 4 5 6 
#
# 1 159.8511 3.0570 64.8780 0.0000 0.0000 0.0000
# 2 3.0570 14.7137 12.1972 0.0000 0.0000 0.0000
# 3 64.8780 12.1972 83.1888 0.0000 0.0000 0.0000
# 4 0.0000 0.0000 0.0000 7.0267 0.0000 0.0000
# 5 0.0000 0.0000 0.0000 0.0000 14.6723 0.0000
# 6 0.0000 0.0000 0.0000 0.0000 0.0000 12.5491
#
#
#
# Elastic Compliance Matrix: (Units=1/GPa)
#
#
# Indices 1 2 3 4 5 6 
#
# 1 0.009431 0.004710 -0.008046 0.000000 0.000000 0.000000
# 2 0.004710 0.079720 -0.015362 0.000000 0.000000 0.000000
# 3 -0.008046 -0.015362 0.020548 0.000000 0.000000 0.000000
# 4 0.000000 0.000000 0.000000 0.142315 0.000000 0.000000
# 5 0.000000 0.000000 0.000000 0.000000 0.068155 0.000000
# 6 0.000000 0.000000 0.000000 0.000000 0.000000 0.079687
#
#
# Mechanical properties :
#
#
# Convention : Reuss Voigt Hill
#
# Bulk Modulus (GPa) = 13.83049 46.44645 30.13847
# Shear Modulus (GPa) = 10.83766 18.69104 14.76435
#
# Velocity S-wave (km/s) = 2.40657 3.16044 2.80891
# Velocity P-wave (km/s) = 3.88755 6.17564 5.16002
#
# Compressibility (1/GPa) = 0.07230399
#
# Stress axis : x y z
#
# Youngs Moduli (GPa) = 106.02940 12.54389 48.66584
#
# Poissons Ratio (x) = -0.05909 0.39157
# Poissons Ratio (y) = -0.49944 0.74762
# Poissons Ratio (z) = 0.85312 0.19270
#
# Static dielectric constant tensor:
#      x y z
#    x 1.665740 0.000000 0.000000 
#    y 0.000000 1.682640 0.000000 
#    z 0.000000 0.000000 1.650210 
# 
# From -- ./inp_files/57991.got.cif
#   From: 2010.05.17/outbox.cif.g08.bks.cpg/sg65_29_cif.got.tgz:57991.got - 2010.06.03 17:01:31.
