data_PCOD9493139
_publ_section_title
;
Structure prediction by ZEFSAII (Michael W. Deem and Ramdas Pophale) SiO2 
 PCOD9493139
Probable space group: C M M M
;
_chemical_formula_sum "Si O2"
_cell_formula_units_Z 88
_cell_length_a 8.201469
_cell_length_b 22.073495
_cell_length_c 27.173073
_cell_angle_alpha 90.000000
_cell_angle_beta 90.000000
_cell_angle_gamma 90.000000
_cell_volume 4919.279579
_symmetry_space_group_name_H-M "C M M M"
_symmetry_group_IT_number 65
_symmetry_cell_setting 'orthorhombic'
loop_
_space_group_symop_operation_xyz
x,y,z
-x,-y,z
x,-y,-z
-x,y,-z
-x,-y,-z
x,y,-z
-x,y,z
x,-y,z
1/2+x,1/2+y,z
1/2-x,1/2-y,z
1/2+x,1/2-y,-z
1/2-x,1/2+y,-z
1/2-x,1/2-y,-z
1/2+x,1/2+y,-z
1/2-x,1/2+y,z
1/2+x,1/2-y,z
loop_
_atom_site_type_symbol
_atom_site_label
_atom_site_fract_x
_atom_site_fract_y
_atom_site_fract_z
Si Si1 0.317954 0.572533 0.883537
Si Si2 0.000000 0.426064 0.942635
Si Si3 0.803087 0.681214 0.701407
Si Si4 0.806250 0.182199 0.500000
Si Si5 0.807421 0.000000 0.442510
Si Si6 0.307213 0.876337 0.600356
Si Si7 0.302336 0.069603 0.772377
O O1 0.500000 0.596619 0.894369
O O2 0.324136 0.500000 0.892133
O O3 0.165170 0.595439 0.915578
O O4 0.274730 0.579749 0.826050
O O5 0.000000 0.500000 0.939235
O O6 0.000000 0.410152 0.000000
O O7 0.750000 0.750000 0.713577
O O8 0.742865 0.661180 0.647035
O O9 0.753807 0.625451 0.737194
O O10 0.000000 0.682106 0.701524
O O11 0.750000 0.250000 0.500000
O O12 0.734012 0.155136 0.549346
O O13 0.000000 0.173666 0.500000
O O14 0.758573 0.057084 0.409779
O O15 0.740449 0.000000 0.500000
O O16 0.000000 0.000000 0.448436
O O17 0.500000 0.880804 0.607167
O O18 0.500000 0.070665 0.776857
O O19 0.259966 0.000000 0.756268
#
# Coordination Sequence:
#
# PCOD9493139 Si02
#       7
#    16   8  16   8   8  16  16
#     4   9  16  27  45  71 103 144 192 235 279 334
#     4   9  16  26  42  68 108 154 190 231 286 334
#     4  10  23  39  58  83 112 146 180 231 284 334
#     4  12  24  39  58  79 104 138 178 220 270 340
#     4  11  23  39  59  85 112 140 172 222 276 327
#     4  11  23  39  60  83 107 141 181 222 276 335
#     4   9  17  33  56  77 104 146 190 232 280 336
#
# _framework density 17.888798999999999
#
# number of rings (size 3 to 8) (size 9 to 14) (size 15 to 20)
#    0.000    2.000    1.818    2.182    1.273    4.364 
#    0.000    1.818    0.000    0.000    0.000    0.000 
#    0.000    0.727    0.364    0.000    0.000    0.000 
#
# Total GULP energy -245191.473908 kJ/mol
# GULP energy per Si atom -5572.533498 kJ/mol
# Density = 1.784808 g / cm^3
# Si number density = 17.888799 Si / 1000 Ang^3
#
#
#
# Elastic Constant Matrix: (Units=GPa)
#
#
# Indices 1 2 3 4 5 6 
#
# 1 76.5256 29.2509 46.6484 0.0000 0.0000 0.0000
# 2 29.2509 119.6386 52.1550 0.0000 0.0000 0.0000
# 3 46.6484 52.1550 99.2386 0.0000 0.0000 0.0000
# 4 0.0000 0.0000 0.0000 -7.1984 0.0000 0.0000
# 5 0.0000 0.0000 0.0000 0.0000 -8.8241 0.0000
# 6 0.0000 0.0000 0.0000 0.0000 0.0000 23.6213
#
#
#
# Elastic Compliance Matrix: (Units=1/GPa)
#
#
# Indices 1 2 3 4 5 6 
#
# 1 0.018398 -0.000944 -0.008152 0.000000 0.000000 0.000000
# 2 -0.000944 0.010891 -0.005280 0.000000 0.000000 0.000000
# 3 -0.008152 -0.005280 0.016683 0.000000 0.000000 0.000000
# 4 0.000000 0.000000 0.000000 -0.138919 0.000000 0.000000
# 5 0.000000 0.000000 0.000000 0.000000 -0.113326 0.000000
# 6 0.000000 0.000000 0.000000 0.000000 0.000000 0.042335
#
#
# Mechanical properties :
#
#
# Convention : Reuss Voigt Hill
#
# Bulk Modulus (GPa) = 58.07181 61.27904 59.67542
# Shear Modulus (GPa) = -38.62588 12.67633 -12.97478
#
# Velocity S-wave (km/s) = -4.65178 2.66488 -2.69606
# Velocity P-wave (km/s) = 1.91860 6.61806 4.87235
#
# Compressibility (1/GPa) = 0.01722006
#
# Stress axis : x y z
#
# Youngs Moduli (GPa) = 54.35484 91.81783 59.93992
#
# Poissons Ratio (x) = 0.08672 0.48861
# Poissons Ratio (y) = 0.05134 0.31648
# Poissons Ratio (z) = 0.44308 0.48479
#
# Static dielectric constant tensor:
#      x y z
#    x 1.639520 0.000000 0.000000 
#    y 0.000000 1.600990 0.000000 
#    z 0.000000 0.000000 1.596990 
# 
# From -- ./inp_files/67634.got.cif
#   From: 2010.05.17/outbox.cif.g08.bks.cpg/sg65_34_cif.got.tgz:67634.got - 2010.06.03 17:01:31.
