data_PCOD9493570
_publ_section_title
;
Structure prediction by ZEFSAII (Michael W. Deem and Ramdas Pophale) SiO2 
 PCOD9493570
Probable space group: C M M M
;
_chemical_formula_sum "Si O2"
_cell_formula_units_Z 80
_cell_length_a 8.049184
_cell_length_b 29.405220
_cell_length_c 19.142539
_cell_angle_alpha 90.000000
_cell_angle_beta 90.000000
_cell_angle_gamma 90.000000
_cell_volume 4530.809775
_symmetry_space_group_name_H-M "C M M M"
_symmetry_group_IT_number 65
_symmetry_cell_setting 'orthorhombic'
loop_
_space_group_symop_operation_xyz
x,y,z
-x,-y,z
x,-y,-z
-x,y,-z
-x,-y,-z
x,y,-z
-x,y,z
x,-y,z
1/2+x,1/2+y,z
1/2-x,1/2-y,z
1/2+x,1/2-y,-z
1/2-x,1/2+y,-z
1/2-x,1/2-y,-z
1/2+x,1/2+y,-z
1/2-x,1/2+y,z
1/2+x,1/2-y,z
loop_
_atom_site_type_symbol
_atom_site_label
_atom_site_fract_x
_atom_site_fract_y
_atom_site_fract_z
Si Si1 0.199453 0.948418 0.650964
Si Si2 0.800386 0.697079 0.000000
Si Si3 0.299108 0.802312 0.152380
Si Si4 0.299425 0.446464 0.922203
Si Si5 0.802933 0.608042 0.784320
Si Si6 0.807641 0.055419 0.500000
O O1 0.234358 0.917524 0.717162
O O2 0.266036 0.931713 0.575406
O O3 0.000000 0.951219 0.643401
O O4 0.260945 0.000000 0.663641
O O5 0.750000 0.750000 0.000000
O O6 0.738824 0.681046 0.924662
O O7 0.000000 0.692525 0.000000
O O8 0.500000 0.802983 0.151022
O O9 0.250000 0.750000 0.163942
O O10 0.239780 0.840264 0.206332
O O11 0.500000 0.443975 0.921195
O O12 0.254909 0.500000 0.915608
O O13 0.234141 0.418904 0.856085
O O14 0.243160 0.430868 0.000000
O O15 0.000000 0.609754 0.776197
O O16 0.000000 0.070911 0.500000
O O17 0.808770 0.000000 0.500000
#
# Coordination Sequence:
#
# PCOD9493570 Si02
#       6
#    16   8  16  16  16   8
#     4   9  17  31  51  73  98 128 161 194 227 271
#     4   8  14  28  46  60  77 104 141 187 234 273
#     4   9  19  33  48  65  88 118 154 197 241 285
#     4   9  19  35  50  64  87 123 167 206 233 265
#     4  11  22  31  45  71 100 126 154 191 240 290
#     4   7  12  26  49  73  94 121 158 195 228 265
#
# _framework density 17.656889
#
# number of rings (size 3 to 8) (size 9 to 14) (size 15 to 20)
#    0.000    2.900    0.000    3.000    1.400    5.200 
#    0.000    1.500    0.000    1.800    0.000    0.700 
#    0.000    0.000    0.000    0.000    0.000    0.000 
#
# Total GULP energy -222785.501101 kJ/mol
# GULP energy per Si atom -5569.637528 kJ/mol
# Density = 1.761670 g / cm^3
# Si number density = 17.656889 Si / 1000 Ang^3
#
#
#
# Elastic Constant Matrix: (Units=GPa)
#
#
# Indices 1 2 3 4 5 6 
#
# 1 12.4724 4.8679 9.2406 0.0000 0.0000 0.0000
# 2 4.8679 85.2383 78.7992 0.0000 0.0000 0.0000
# 3 9.2406 78.7992 159.1427 0.0000 0.0000 0.0000
# 4 0.0000 0.0000 0.0000 15.5269 0.0000 0.0000
# 5 0.0000 0.0000 0.0000 0.0000 -8.4895 0.0000
# 6 0.0000 0.0000 0.0000 0.0000 0.0000 17.3669
#
#
#
# Elastic Compliance Matrix: (Units=1/GPa)
#
#
# Indices 1 2 3 4 5 6 
#
# 1 0.083794 -0.000530 -0.004603 0.000000 0.000000 0.000000
# 2 -0.000530 0.021639 -0.010683 0.000000 0.000000 0.000000
# 3 -0.004603 -0.010683 0.011841 0.000000 0.000000 0.000000
# 4 0.000000 0.000000 0.000000 0.064404 0.000000 0.000000
# 5 0.000000 0.000000 0.000000 0.000000 -0.117793 0.000000
# 6 0.000000 0.000000 0.000000 0.000000 0.000000 0.057581
#
#
# Mechanical properties :
#
#
# Convention : Reuss Voigt Hill
#
# Bulk Modulus (GPa) = 11.67671 49.18540 30.43106
# Shear Modulus (GPa) = 27.52607 15.81059 21.66833
#
# Velocity S-wave (km/s) = 3.95263 2.99563 3.50693
# Velocity P-wave (km/s) = 5.24009 6.31520 5.80260
#
# Compressibility (1/GPa) = 0.08564055
#
# Stress axis : x y z
#
# Youngs Moduli (GPa) = 11.93396 46.21392 84.45347
#
# Poissons Ratio (x) = 0.02450 0.38874
# Poissons Ratio (y) = 0.00633 0.90226
# Poissons Ratio (z) = 0.05493 0.49373
#
# Static dielectric constant tensor:
#      x y z
#    x 1.641200 0.000000 0.000000 
#    y 0.000000 1.606630 0.000000 
#    z 0.000000 0.000000 1.642480 
# 
# From -- ./inp_files/50247.got.cif
#   From: 2010.05.17/outbox.cif.g08.bks.cpg/sg65_26_cif.got.tgz:50247.got - 2010.06.03 17:01:31.
