data_PCOD9493806
_publ_section_title
;
Structure prediction by ZEFSAII (Michael W. Deem and Ramdas Pophale) SiO2 
 PCOD9493806
Probable space group: C M M M
;
_chemical_formula_sum "Si O2"
_cell_formula_units_Z 72
_cell_length_a 8.061260
_cell_length_b 15.736886
_cell_length_c 27.689669
_cell_angle_alpha 90.000000
_cell_angle_beta 90.000000
_cell_angle_gamma 90.000000
_cell_volume 3512.687309
_symmetry_space_group_name_H-M "C M M M"
_symmetry_group_IT_number 65
_symmetry_cell_setting 'orthorhombic'
loop_
_space_group_symop_operation_xyz
x,y,z
-x,-y,z
x,-y,-z
-x,y,-z
-x,-y,-z
x,y,-z
-x,y,z
x,-y,z
1/2+x,1/2+y,z
1/2-x,1/2-y,z
1/2+x,1/2-y,-z
1/2-x,1/2+y,-z
1/2-x,1/2-y,-z
1/2+x,1/2+y,-z
1/2-x,1/2+y,z
1/2+x,1/2-y,z
loop_
_atom_site_type_symbol
_atom_site_label
_atom_site_fract_x
_atom_site_fract_y
_atom_site_fract_z
Si Si1 0.799648 0.149653 0.500000
Si Si2 0.799373 0.151330 0.052096
Si Si3 0.800352 0.097837 0.843474
Si Si4 0.194372 0.500000 0.679388
Si Si5 0.303698 0.500000 0.429989
Si Si6 0.302014 0.340663 0.257021
O O1 0.750000 0.250000 0.500000
O O2 0.743236 0.088225 0.544804
O O3 0.000000 0.152548 0.500000
O O4 0.750000 0.250000 0.052496
O O5 0.735061 0.114674 0.102658
O O6 0.000000 0.143256 0.052260
O O7 0.742004 0.115556 0.000000
O O8 0.734666 0.150541 0.798073
O O9 0.000000 0.111548 0.846221
O O10 0.773048 0.000000 0.831007
O O11 0.275353 0.500000 0.626820
O O12 0.242455 0.582263 0.710386
O O13 0.000000 0.500000 0.671599
O O14 0.500000 0.500000 0.439112
O O15 0.500000 0.345797 0.254409
O O16 0.250000 0.250000 0.277128
#
# Coordination Sequence:
#
# PCOD9493806 Si02
#       6
#     8  16  16   8   8  16
#     4   9  19  37  64  94 126 165 207 245 289 344
#     4   9  17  29  47  71  99 131 170 219 275 341
#     4   9  17  31  52  76 103 137 180 230 287 347
#     4  12  25  41  61  90 123 159 206 254 302 357
#     4   9  20  40  62  88 126 169 203 243 298 348
#     4  11  22  39  61  84 114 154 197 248 303 359
#
# _framework density 20.497126999999999
#
# number of rings (size 3 to 8) (size 9 to 14) (size 15 to 20)
#    0.000    2.222    1.111    3.000    0.000    2.222 
#    0.000    6.667    0.000    0.000    0.000    3.111 
#    0.000    0.000    0.000    0.000    0.000    0.000 
#
# Total GULP energy -200698.794323 kJ/mol
# GULP energy per Si atom -5574.966509 kJ/mol
# Density = 2.045048 g / cm^3
# Si number density = 20.497127 Si / 1000 Ang^3
#
#
#
# Elastic Constant Matrix: (Units=GPa)
#
#
# Indices 1 2 3 4 5 6 
#
# 1 16.7342 -4.2933 1.7577 0.0000 0.0000 0.0000
# 2 -4.2933 130.2626 78.4014 0.0000 0.0000 0.0000
# 3 1.7577 78.4014 135.1336 0.0000 0.0000 0.0000
# 4 0.0000 0.0000 0.0000 -265.4446 0.0000 0.0000
# 5 0.0000 0.0000 0.0000 0.0000 1.8100 0.0000
# 6 0.0000 0.0000 0.0000 0.0000 0.0000 26.4064
#
#
#
# Elastic Compliance Matrix: (Units=1/GPa)
#
#
# Indices 1 2 3 4 5 6 
#
# 1 0.061056 0.003826 -0.003014 0.000000 0.000000 0.000000
# 2 0.003826 0.012036 -0.007033 0.000000 0.000000 0.000000
# 3 -0.003014 -0.007033 0.011519 0.000000 0.000000 0.000000
# 4 0.000000 0.000000 0.000000 -0.003767 0.000000 0.000000
# 5 0.000000 0.000000 0.000000 0.000000 0.552473 0.000000
# 6 0.000000 0.000000 0.000000 0.000000 0.000000 0.037870
#
#
# Mechanical properties :
#
#
# Convention : Reuss Voigt Hill
#
# Bulk Modulus (GPa) = 13.85609 48.20690 31.03149
# Shear Modulus (GPa) = 7.06530 -33.69465 -13.31468
#
# Velocity S-wave (km/s) = 1.85862 -4.05887 -2.55147
# Velocity P-wave (km/s) = 3.37352 1.26651 2.54801
#
# Compressibility (1/GPa) = 0.07217046
#
# Stress axis : x y z
#
# Youngs Moduli (GPa) = 16.37841 83.08680 86.80994
#
# Poissons Ratio (x) = -0.31793 0.26166
# Poissons Ratio (y) = -0.06267 0.61050
# Poissons Ratio (z) = 0.04937 0.58431
#
# Static dielectric constant tensor:
#      x y z
#    x 1.733750 0.000000 0.000000 
#    y 0.000000 1.718430 0.000000 
#    z 0.000000 0.000000 1.798830 
# 
# From -- ./inp_files/72606.got.cif
#   From: 2010.05.17/outbox.cif.g08.bks.cpg/sg65_37_cif.got.tgz:72606.got - 2010.06.03 17:01:31.
