data_PCOD9493455
_publ_section_title
;
Structure prediction by ZEFSAII (Michael W. Deem and Ramdas Pophale) SiO2 
 PCOD9493455
Probable space group: C M M M
;
_chemical_formula_sum "Si O2"
_cell_formula_units_Z 88
_cell_length_a 28.738032
_cell_length_b 19.756631
_cell_length_c 8.503360
_cell_angle_alpha 90.000000
_cell_angle_beta 90.000000
_cell_angle_gamma 90.000000
_cell_volume 4827.924594
_symmetry_space_group_name_H-M "C M M M"
_symmetry_group_IT_number 65
_symmetry_cell_setting 'orthorhombic'
loop_
_space_group_symop_operation_xyz
x,y,z
-x,-y,z
x,-y,-z
-x,y,-z
-x,-y,-z
x,y,-z
-x,y,z
x,-y,z
1/2+x,1/2+y,z
1/2-x,1/2-y,z
1/2+x,1/2-y,-z
1/2-x,1/2+y,-z
1/2-x,1/2-y,-z
1/2+x,1/2+y,-z
1/2-x,1/2+y,z
1/2+x,1/2-y,z
loop_
_atom_site_type_symbol
_atom_site_label
_atom_site_fract_x
_atom_site_fract_y
_atom_site_fract_z
Si Si1 0.000000 0.578790 0.688724
Si Si2 0.719886 0.417838 0.681142
Si Si3 0.677845 0.078527 0.309594
Si Si4 0.089506 0.341249 0.811528
Si Si5 0.553796 0.304805 0.192207
Si Si6 0.879060 0.922911 0.811459
O O1 0.045757 0.614798 0.754470
O O2 0.000000 0.500000 0.732839
O O3 0.000000 0.583546 0.500000
O O4 0.715749 0.395802 0.500000
O O5 0.721424 0.500000 0.681874
O O6 0.770713 0.397779 0.744244
O O7 0.673017 0.398576 0.770230
O O8 0.678995 0.078092 0.500000
O O9 0.636589 0.125985 0.252820
O O10 0.670184 0.000000 0.259772
O O11 0.079526 0.264216 0.759696
O O12 0.090905 0.342230 0.000000
O O13 0.500000 0.304346 0.243191
O O14 0.582369 0.370348 0.246505
O O15 0.553381 0.305559 0.000000
O O16 0.884962 0.000000 0.751028
O O17 0.882771 0.925741 0.000000
#
# Coordination Sequence:
#
# PCOD9493455 Si02
#       6
#     8  16  16  16  16  16
#     4  11  23  37  53  73 100 133 170 214 255 293
#     4   8  15  30  51  73 101 135 164 199 254 307
#     4   9  18  33  52  74 102 136 171 208 252 299
#     4  11  21  34  52  74 101 136 172 208 251 298
#     4   9  18  34  52  71 102 137 165 204 258 306
#     4   9  17  30  53  81 101 124 166 213 252 298
#
# _framework density 18.227295000000002
#
# number of rings (size 3 to 8) (size 9 to 14) (size 15 to 20)
#    0.000    2.636    0.909    2.455    0.000    4.364 
#    0.000    6.364    0.000    5.455    0.000    2.545 
#    0.000    0.000    0.000    0.000    0.000    0.000 
#
# Total GULP energy -245291.002296 kJ/mol
# GULP energy per Si atom -5574.795507 kJ/mol
# Density = 1.818581 g / cm^3
# Si number density = 18.227295 Si / 1000 Ang^3
#
#
#
# Elastic Constant Matrix: (Units=GPa)
#
#
# Indices 1 2 3 4 5 6 
#
# 1 146.7850 87.9261 13.1763 0.0000 0.0000 0.0000
# 2 87.9261 113.9253 18.5536 0.0000 0.0000 0.0000
# 3 13.1763 18.5536 8.5778 0.0000 0.0000 0.0000
# 4 0.0000 0.0000 0.0000 4.9090 0.0000 0.0000
# 5 0.0000 0.0000 0.0000 0.0000 36.7075 0.0000
# 6 0.0000 0.0000 0.0000 0.0000 0.0000 40.2795
#
#
#
# Elastic Compliance Matrix: (Units=1/GPa)
#
#
# Indices 1 2 3 4 5 6 
#
# 1 0.012708 -0.010234 0.002614 0.000000 0.000000 0.000000
# 2 -0.010234 0.021792 -0.031416 0.000000 0.000000 0.000000
# 3 0.002614 -0.031416 0.180516 0.000000 0.000000 0.000000
# 4 0.000000 0.000000 0.000000 0.203708 0.000000 0.000000
# 5 0.000000 0.000000 0.000000 0.000000 0.027242 0.000000
# 6 0.000000 0.000000 0.000000 0.000000 0.000000 0.024827
#
#
# Mechanical properties :
#
#
# Convention : Reuss Voigt Hill
#
# Bulk Modulus (GPa) = 7.30217 56.51112 31.90664
# Shear Modulus (GPa) = 8.41025 26.35468 17.38247
#
# Velocity S-wave (km/s) = 2.15038 3.80661 3.09147
# Velocity P-wave (km/s) = 3.19067 7.09868 5.50325
#
# Compressibility (1/GPa) = 0.13694569
#
# Stress axis : x y z
#
# Youngs Moduli (GPa) = 78.68968 45.88771 5.53967
#
# Poissons Ratio (x) = 0.46960 -0.01448
# Poissons Ratio (y) = 0.80529 0.17404
# Poissons Ratio (z) = -0.20573 1.44162
#
# Static dielectric constant tensor:
#      x y z
#    x 1.622330 0.000000 0.000000 
#    y 0.000000 1.623570 0.000000 
#    z 0.000000 0.000000 1.631740 
# 
# From -- ./inp_files/18322.got.cif
#   From: 2010.05.17/outbox.cif.g08.bks.cpg/sg65_10_cif.got.tgz:18322.got - 2010.06.03 17:01:31.
