data_PCOD9493647
_publ_section_title
;
Structure prediction by ZEFSAII (Michael W. Deem and Ramdas Pophale) SiO2 
 PCOD9493647
Probable space group: C M M M
;
_chemical_formula_sum "Si O2"
_cell_formula_units_Z 80
_cell_length_a 18.893556
_cell_length_b 7.793818
_cell_length_c 27.195882
_cell_angle_alpha 90.000000
_cell_angle_beta 90.000000
_cell_angle_gamma 90.000000
_cell_volume 4004.673494
_symmetry_space_group_name_H-M "C M M M"
_symmetry_group_IT_number 65
_symmetry_cell_setting 'orthorhombic'
loop_
_space_group_symop_operation_xyz
x,y,z
-x,-y,z
x,-y,-z
-x,y,-z
-x,-y,-z
x,y,-z
-x,y,z
x,-y,z
1/2+x,1/2+y,z
1/2-x,1/2-y,z
1/2+x,1/2-y,-z
1/2-x,1/2+y,-z
1/2-x,1/2-y,-z
1/2+x,1/2+y,-z
1/2-x,1/2+y,z
1/2+x,1/2-y,z
loop_
_atom_site_type_symbol
_atom_site_label
_atom_site_fract_x
_atom_site_fract_y
_atom_site_fract_z
Si Si1 0.418284 0.710654 0.744425
Si Si2 0.333040 0.293154 0.839983
Si Si3 0.919705 0.706190 0.445016
Si Si4 0.166370 0.793334 0.052809
Si Si5 0.831922 0.202674 0.349772
O O1 0.500000 0.762986 0.743445
O O2 0.417316 0.500000 0.744529
O O3 0.378244 0.768491 0.793764
O O4 0.376729 0.773721 0.696158
O O5 0.337995 0.500000 0.840675
O O6 0.250000 0.250000 0.834109
O O7 0.358948 0.230159 0.893813
O O8 0.899820 0.767168 0.500000
O O9 0.922451 0.500000 0.447021
O O10 0.866767 0.751245 0.401716
O O11 0.000000 0.767639 0.434398
O O12 0.250000 0.750000 0.052683
O O13 0.158940 0.000000 0.052662
O O14 0.137486 0.729683 0.000000
O O15 0.750000 0.250000 0.347179
O O16 0.836254 0.000000 0.345385
#
# Coordination Sequence:
#
# PCOD9493647 Si02
#       5
#    16  16  16  16  16
#     4   9  18  32  49  69  93 123 159 196 238 290
#     4   9  16  27  45  66  90 120 152 191 235 278
#     4   9  19  37  59  81 106 135 165 198 238 285
#     4   8  13  21  35  58  86 114 146 184 226 272
#     4  11  22  35  53  76 102 131 165 206 247 289
#
# _framework density 19.976659000000001
#
# number of rings (size 3 to 8) (size 9 to 14) (size 15 to 20)
#    0.000    2.800    0.000    2.400    0.000    2.000 
#    0.000    2.000    0.000    3.600    0.000    4.200 
#    0.000    0.000    0.000   32.400    0.000   15.200 
#
# Total GULP energy -222968.315308 kJ/mol
# GULP energy per Si atom -5574.207883 kJ/mol
# Density = 1.993119 g / cm^3
# Si number density = 19.976659 Si / 1000 Ang^3
#
#
#
# Elastic Constant Matrix: (Units=GPa)
#
#
# Indices 1 2 3 4 5 6 
#
# 1 124.9101 4.2880 123.8740 0.0000 0.0000 0.0000
# 2 4.2880 27.1010 11.2117 0.0000 0.0000 0.0000
# 3 123.8740 11.2117 234.6159 0.0000 0.0000 0.0000
# 4 0.0000 0.0000 0.0000 15.3147 0.0000 0.0000
# 5 0.0000 0.0000 0.0000 0.0000 -17.1676 0.0000
# 6 0.0000 0.0000 0.0000 0.0000 0.0000 -16.9829
#
#
#
# Elastic Compliance Matrix: (Units=1/GPa)
#
#
# Indices 1 2 3 4 5 6 
#
# 1 0.016833 0.001034 -0.008937 0.000000 0.000000 0.000000
# 2 0.001034 0.037707 -0.002348 0.000000 0.000000 0.000000
# 3 -0.008937 -0.002348 0.009093 0.000000 0.000000 0.000000
# 4 0.000000 0.000000 0.000000 0.065297 0.000000 0.000000
# 5 0.000000 0.000000 0.000000 0.000000 -0.058249 0.000000
# 6 0.000000 0.000000 0.000000 0.000000 0.000000 -0.058883
#
#
# Mechanical properties :
#
#
# Convention : Reuss Voigt Hill
#
# Bulk Modulus (GPa) = 23.18515 73.93049 48.55782
# Shear Modulus (GPa) = 107.11839 12.71637 59.91738
#
# Velocity S-wave (km/s) = 7.33063 2.52575 5.48259
# Velocity P-wave (km/s) = 9.12591 6.75238 8.02736
#
# Compressibility (1/GPa) = 0.04313106
#
# Stress axis : x y z
#
# Youngs Moduli (GPa) = 59.40611 26.52048 109.97259
#
# Poissons Ratio (x) = -0.02742 0.98284
# Poissons Ratio (y) = -0.06142 0.25819
# Poissons Ratio (z) = 0.53092 0.06226
#
# Static dielectric constant tensor:
#      x y z
#    x 1.626350 0.000000 0.000000 
#    y 0.000000 1.730690 0.000000 
#    z 0.000000 0.000000 1.765490 
# 
# From -- ./inp_files/72797.got.cif
#   From: 2010.05.17/outbox.cif.g08.bks.cpg/sg65_37_cif.got.tgz:72797.got - 2010.06.03 17:01:31.
