data_PCOD9493641
_publ_section_title
;
Structure prediction by ZEFSAII (Michael W. Deem and Ramdas Pophale) SiO2 
 PCOD9493641
Probable space group: C M M M
;
_chemical_formula_sum "Si O2"
_cell_formula_units_Z 88
_cell_length_a 7.755866
_cell_length_b 17.649308
_cell_length_c 31.083402
_cell_angle_alpha 90.000000
_cell_angle_beta 90.000000
_cell_angle_gamma 90.000000
_cell_volume 4254.872242
_symmetry_space_group_name_H-M "C M M M"
_symmetry_group_IT_number 65
_symmetry_cell_setting 'orthorhombic'
loop_
_space_group_symop_operation_xyz
x,y,z
-x,-y,z
x,-y,-z
-x,y,-z
-x,-y,-z
x,y,-z
-x,y,z
x,-y,z
1/2+x,1/2+y,z
1/2-x,1/2-y,z
1/2+x,1/2-y,-z
1/2-x,1/2+y,-z
1/2-x,1/2-y,-z
1/2+x,1/2+y,-z
1/2-x,1/2+y,z
1/2+x,1/2-y,z
loop_
_atom_site_type_symbol
_atom_site_label
_atom_site_fract_x
_atom_site_fract_y
_atom_site_fract_z
Si Si1 0.206897 0.586575 0.546240
Si Si2 0.710332 0.413014 0.722275
Si Si3 0.290226 0.500000 0.050163
Si Si4 0.706776 0.664185 0.808231
Si Si5 0.208064 0.838696 0.906328
Si Si6 0.796847 0.163238 0.364088
O O1 0.267573 0.619648 0.500000
O O2 0.269667 0.500000 0.548214
O O3 0.249271 0.625891 0.590755
O O4 0.000000 0.584888 0.544307
O O5 0.500000 0.405336 0.723723
O O6 0.751332 0.500000 0.716108
O O7 0.773313 0.385745 0.768874
O O8 0.778006 0.369605 0.680358
O O9 0.500000 0.500000 0.053982
O O10 0.234503 0.417200 0.069743
O O11 0.244080 0.500000 0.000000
O O12 0.500000 0.654299 0.810745
O O13 0.750000 0.750000 0.796383
O O14 0.771401 0.652677 0.856884
O O15 0.250000 0.750000 0.919957
O O16 0.000000 0.840664 0.907373
O O17 0.750000 0.250000 0.366650
O O18 0.000000 0.153623 0.360237
#
# Coordination Sequence:
#
# PCOD9493641 Si02
#       6
#    16  16   8  16  16  16
#     4   9  19  37  59  80 102 129 162 203 251 301
#     4   9  18  31  49  74 100 127 163 208 252 298
#     4   9  18  32  51  77 107 139 181 229 270 317
#     4   9  17  30  50  73  99 130 166 207 252 305
#     4   9  18  32  52  77 104 139 179 222 271 322
#     4  11  22  35  52  74 102 135 168 206 250 298
#
# _framework density 20.682174
#
# number of rings (size 3 to 8) (size 9 to 14) (size 15 to 20)
#    0.000    2.636    0.000    2.182    1.273    2.182 
#    0.000    2.273    0.000    3.273    0.000    0.000 
#    0.000    0.000    0.000    0.000    0.000    0.000 
#
# Total GULP energy -245044.656892 kJ/mol
# GULP energy per Si atom -5569.196748 kJ/mol
# Density = 2.063510 g / cm^3
# Si number density = 20.682174 Si / 1000 Ang^3
#
#
#
# Elastic Constant Matrix: (Units=GPa)
#
#
# Indices 1 2 3 4 5 6 
#
# 1 28.5989 1.8914 8.7811 0.0000 0.0000 0.0000
# 2 1.8914 143.1494 101.2520 0.0000 0.0000 0.0000
# 3 8.7811 101.2520 136.8127 0.0000 0.0000 0.0000
# 4 0.0000 0.0000 0.0000 76.3135 0.0000 0.0000
# 5 0.0000 0.0000 0.0000 0.0000 7.6718 0.0000
# 6 0.0000 0.0000 0.0000 0.0000 0.0000 -19.8713
#
#
#
# Elastic Compliance Matrix: (Units=1/GPa)
#
#
# Indices 1 2 3 4 5 6 
#
# 1 0.036070 0.002436 -0.004118 0.000000 0.000000 0.000000
# 2 0.002436 0.014824 -0.011127 0.000000 0.000000 0.000000
# 3 -0.004118 -0.011127 0.015809 0.000000 0.000000 0.000000
# 4 0.000000 0.000000 0.000000 0.013104 0.000000 0.000000
# 5 0.000000 0.000000 0.000000 0.000000 0.130348 0.000000
# 6 0.000000 0.000000 0.000000 0.000000 0.000000 -0.050324
#
#
# Mechanical properties :
#
#
# Convention : Reuss Voigt Hill
#
# Bulk Modulus (GPa) = 24.34040 59.15669 41.74855
# Shear Modulus (GPa) = 25.10759 25.93188 25.51974
#
# Velocity S-wave (km/s) = 3.48799 3.54478 3.51650
# Velocity P-wave (km/s) = 5.29299 6.73935 6.05948
#
# Compressibility (1/GPa) = 0.04108396
#
# Stress axis : x y z
#
# Youngs Moduli (GPa) = 27.72417 67.45795 63.25654
#
# Poissons Ratio (x) = -0.16434 0.26049
# Poissons Ratio (y) = -0.06754 0.70387
# Poissons Ratio (z) = 0.11417 0.75063
#
# Static dielectric constant tensor:
#      x y z
#    x 1.787720 0.000000 0.000000 
#    y 0.000000 1.717520 0.000000 
#    z 0.000000 0.000000 1.776610 
# 
# From -- ./inp_files/76483.got.cif
#   From: 2010.05.17/outbox.cif.g08.bks.cpg/sg65_39_cif.got.tgz:76483.got - 2010.06.03 17:01:31.
