data_PCOD9493610
_publ_section_title
;
Structure prediction by ZEFSAII (Michael W. Deem and Ramdas Pophale) SiO2 
 PCOD9493610
Probable space group: C M M M
;
_chemical_formula_sum "Si O2"
_cell_formula_units_Z 88
_cell_length_a 29.875217
_cell_length_b 18.626589
_cell_length_c 7.407351
_cell_angle_alpha 90.000000
_cell_angle_beta 90.000000
_cell_angle_gamma 90.000000
_cell_volume 4121.993710
_symmetry_space_group_name_H-M "C M M M"
_symmetry_group_IT_number 65
_symmetry_cell_setting 'orthorhombic'
loop_
_space_group_symop_operation_xyz
x,y,z
-x,-y,z
x,-y,-z
-x,y,-z
-x,-y,-z
x,y,-z
-x,y,z
x,-y,z
1/2+x,1/2+y,z
1/2-x,1/2-y,z
1/2+x,1/2-y,-z
1/2-x,1/2+y,-z
1/2-x,1/2-y,-z
1/2+x,1/2+y,-z
1/2-x,1/2+y,z
1/2+x,1/2-y,z
loop_
_atom_site_type_symbol
_atom_site_label
_atom_site_fract_x
_atom_site_fract_y
_atom_site_fract_z
Si Si1 0.881960 0.835900 0.297100
Si Si2 0.047181 0.266809 0.206557
Si Si3 0.698443 0.238124 0.719880
Si Si4 0.444745 0.586412 0.000000
Si Si5 0.934282 0.423633 0.714539
Si Si6 0.827689 0.578744 0.284255
O O1 0.875906 0.865962 0.500000
O O2 0.910810 0.762755 0.309860
O O3 0.834927 0.803331 0.223073
O O4 0.914604 0.884578 0.171340
O O5 0.047159 0.351826 0.204905
O O6 0.000000 0.240570 0.282021
O O7 0.050960 0.242353 0.000000
O O8 0.694504 0.238330 0.500000
O O9 0.750000 0.250000 0.767196
O O10 0.686970 0.157137 0.783827
O O11 0.442892 0.500000 0.000000
O O12 0.500000 0.602706 0.000000
O O13 0.942924 0.420724 0.500000
O O14 0.950622 0.500000 0.782919
O O15 0.881006 0.422395 0.740606
O O16 0.818671 0.578923 0.500000
O O17 0.810787 0.500000 0.217105
#
# Coordination Sequence:
#
# PCOD9493610 Si02
#       6
#    16  16  16   8  16  16
#     4  11  22  40  66  94 126 163 204 256 317 383
#     4  11  22  34  51  78 114 155 198 246 303 363
#     4   9  17  31  55  90 126 162 208 259 310 371
#     4  11  26  48  71  96 127 163 208 265 332 408
#     4   9  17  30  48  71 103 148 200 245 285 336
#     4   8  13  24  44  70 104 148 192 235 286 341
#
# _framework density 21.348894000000001
#
# number of rings (size 3 to 8) (size 9 to 14) (size 15 to 20)
#    0.000    2.273    2.727    2.182    0.000    3.636 
#    0.000    4.091    0.000    3.273    0.000    0.000 
#    0.000    0.000    0.000    0.000    0.000    0.000 
#
# Total GULP energy -245033.233893 kJ/mol
# GULP energy per Si atom -5568.937134 kJ/mol
# Density = 2.130030 g / cm^3
# Si number density = 21.348894 Si / 1000 Ang^3
#
#
#
# Elastic Constant Matrix: (Units=GPa)
#
#
# Indices 1 2 3 4 5 6 
#
# 1 124.8565 49.1664 36.4486 0.0000 0.0000 0.0000
# 2 49.1664 129.9601 29.0553 0.0000 0.0000 0.0000
# 3 36.4486 29.0553 83.7562 0.0000 0.0000 0.0000
# 4 0.0000 0.0000 0.0000 16.4252 0.0000 0.0000
# 5 0.0000 0.0000 0.0000 0.0000 6.3329 0.0000
# 6 0.0000 0.0000 0.0000 0.0000 0.0000 21.2054
#
#
#
# Elastic Compliance Matrix: (Units=1/GPa)
#
#
# Indices 1 2 3 4 5 6 
#
# 1 0.010218 -0.003113 -0.003367 0.000000 0.000000 0.000000
# 2 -0.003113 0.009290 -0.001868 0.000000 0.000000 0.000000
# 3 -0.003367 -0.001868 0.014053 0.000000 0.000000 0.000000
# 4 0.000000 0.000000 0.000000 0.060882 0.000000 0.000000
# 5 0.000000 0.000000 0.000000 0.000000 0.157906 0.000000
# 6 0.000000 0.000000 0.000000 0.000000 0.000000 0.047158
#
#
# Mechanical properties :
#
#
# Convention : Reuss Voigt Hill
#
# Bulk Modulus (GPa) = 59.29412 63.10147 61.19779
# Shear Modulus (GPa) = 15.53646 23.71953 19.62800
#
# Velocity S-wave (km/s) = 2.70059 3.33685 3.03544
# Velocity P-wave (km/s) = 6.12849 6.66839 6.40414
#
# Compressibility (1/GPa) = 0.01686508
#
# Stress axis : x y z
#
# Youngs Moduli (GPa) = 97.86832 107.64276 71.16153
#
# Poissons Ratio (x) = 0.33508 0.23958
# Poissons Ratio (y) = 0.30466 0.13293
# Poissons Ratio (z) = 0.32949 0.20108
#
# Static dielectric constant tensor:
#      x y z
#    x 1.702110 0.000000 0.000000 
#    y 0.000000 1.802350 0.000000 
#    z 0.000000 0.000000 1.845360 
# 
# From -- ./inp_files/18308.got.cif
#   From: 2010.05.17/outbox.cif.g08.bks.cpg/sg65_10_cif.got.tgz:18308.got - 2010.06.03 17:01:31.
