data_PCOD9493898
_publ_section_title
;
Structure prediction by ZEFSAII (Michael W. Deem and Ramdas Pophale) SiO2 
 PCOD9493898
Probable space group: C M M M
;
_chemical_formula_sum "Si O2"
_cell_formula_units_Z 72
_cell_length_a 18.087612
_cell_length_b 9.133292
_cell_length_c 24.462725
_cell_angle_alpha 90.000000
_cell_angle_beta 90.000000
_cell_angle_gamma 90.000000
_cell_volume 4041.228519
_symmetry_space_group_name_H-M "C M M M"
_symmetry_group_IT_number 65
_symmetry_cell_setting 'orthorhombic'
loop_
_space_group_symop_operation_xyz
x,y,z
-x,-y,z
x,-y,-z
-x,y,-z
-x,-y,-z
x,y,-z
-x,y,z
x,-y,z
1/2+x,1/2+y,z
1/2-x,1/2-y,z
1/2+x,1/2-y,-z
1/2-x,1/2+y,-z
1/2-x,1/2-y,-z
1/2+x,1/2+y,-z
1/2-x,1/2+y,z
1/2+x,1/2-y,z
loop_
_atom_site_type_symbol
_atom_site_label
_atom_site_fract_x
_atom_site_fract_y
_atom_site_fract_z
Si Si1 0.910345 0.827560 0.940072
Si Si2 0.914239 0.177981 0.500000
Si Si3 0.413656 0.824501 0.829895
Si Si4 0.589404 0.327656 0.380374
Si Si5 0.170413 0.675714 0.281037
O O1 0.884222 0.744880 0.886097
O O2 0.000000 0.813403 0.940406
O O3 0.893833 0.000000 0.935840
O O4 0.884378 0.774793 0.000000
O O5 0.883037 0.221005 0.440886
O O6 0.000000 0.225472 0.500000
O O7 0.914824 0.000000 0.500000
O O8 0.500000 0.781711 0.823117
O O9 0.369066 0.781915 0.775933
O O10 0.411303 0.000000 0.834830
O O11 0.500000 0.317686 0.380244
O O12 0.607856 0.500000 0.372991
O O13 0.622950 0.233501 0.331958
O O14 0.176074 0.500000 0.282786
O O15 0.250000 0.750000 0.283625
#
# Coordination Sequence:
#
# PCOD9493898 Si02
#       5
#    16   8  16  16  16
#     4   8  14  25  43  70 101 127 153 191 238 287
#     4   7  12  26  50  79 106 129 157 197 242 291
#     4   9  18  32  50  72  97 126 160 200 247 296
#     4   9  17  32  56  82 105 131 164 201 245 298
#     4  11  23  37  51  70 100 135 172 213 254 296
#
# _framework density 17.816364
#
# number of rings (size 3 to 8) (size 9 to 14) (size 15 to 20)
#    0.000    3.000    0.000    3.333    0.000    3.556 
#    0.000    5.556    0.000    2.667    0.000    0.000 
#    0.000    0.000    0.000    0.000    0.000    0.000 
#
# Total GULP energy -200510.372990 kJ/mol
# GULP energy per Si atom -5569.732583 kJ/mol
# Density = 1.777581 g / cm^3
# Si number density = 17.816364 Si / 1000 Ang^3
#
#
#
# Elastic Constant Matrix: (Units=GPa)
#
#
# Indices 1 2 3 4 5 6 
#
# 1 28.5464 21.9294 39.6674 0.0000 0.0000 0.0000
# 2 21.9294 34.9545 58.3216 0.0000 0.0000 0.0000
# 3 39.6674 58.3216 201.8324 0.0000 0.0000 0.0000
# 4 0.0000 0.0000 0.0000 24.0351 0.0000 0.0000
# 5 0.0000 0.0000 0.0000 0.0000 -7.6726 0.0000
# 6 0.0000 0.0000 0.0000 0.0000 0.0000 13.0193
#
#
#
# Elastic Compliance Matrix: (Units=1/GPa)
#
#
# Indices 1 2 3 4 5 6 
#
# 1 0.068037 -0.039341 -0.002004 0.000000 0.000000 0.000000
# 2 -0.039341 0.077991 -0.014804 0.000000 0.000000 0.000000
# 3 -0.002004 -0.014804 0.009626 0.000000 0.000000 0.000000
# 4 0.000000 0.000000 0.000000 0.041606 0.000000 0.000000
# 5 0.000000 0.000000 0.000000 0.000000 -0.130334 0.000000
# 6 0.000000 0.000000 0.000000 0.000000 0.000000 0.076809
#
#
# Mechanical properties :
#
#
# Convention : Reuss Voigt Hill
#
# Bulk Modulus (GPa) = 23.06487 56.13001 39.59744
# Shear Modulus (GPa) = 18.48534 15.57069 17.02801
#
# Velocity S-wave (km/s) = 3.22459 2.95948 3.09488
# Velocity P-wave (km/s) = 5.18054 6.57656 5.91985
#
# Compressibility (1/GPa) = 0.04335597
#
# Stress axis : x y z
#
# Youngs Moduli (GPa) = 14.69796 12.82201 103.88206
#
# Poissons Ratio (x) = 0.50443 0.20815
# Poissons Ratio (y) = 0.57823 1.53791
# Poissons Ratio (z) = 0.02945 0.18982
#
# Static dielectric constant tensor:
#      x y z
#    x 1.591940 0.000000 0.000000 
#    y 0.000000 1.589630 0.000000 
#    z 0.000000 0.000000 1.636710 
# 
# From -- ./inp_files/67102.got.cif
#   From: 2010.05.17/outbox.cif.g08.bks.cpg/sg65_34_cif.got.tgz:67102.got - 2010.06.03 17:01:31.
