data_PCOD9493133
_publ_section_title
;
Structure prediction by ZEFSAII (Michael W. Deem and Ramdas Pophale) SiO2 
 PCOD9493133
Probable space group: C M M M
;
_chemical_formula_sum "Si O2"
_cell_formula_units_Z 60
_cell_length_a 10.917344
_cell_length_b 24.226750
_cell_length_c 12.043485
_cell_angle_alpha 90.000000
_cell_angle_beta 90.000000
_cell_angle_gamma 90.000000
_cell_volume 3185.402589
_symmetry_space_group_name_H-M "C M M M"
_symmetry_group_IT_number 65
_symmetry_cell_setting 'orthorhombic'
loop_
_space_group_symop_operation_xyz
x,y,z
-x,-y,z
x,-y,-z
-x,y,-z
-x,-y,-z
x,y,-z
-x,y,z
x,-y,z
1/2+x,1/2+y,z
1/2-x,1/2-y,z
1/2+x,1/2-y,-z
1/2-x,1/2+y,-z
1/2-x,1/2-y,-z
1/2+x,1/2+y,-z
1/2-x,1/2+y,z
1/2+x,1/2-y,z
loop_
_atom_site_type_symbol
_atom_site_label
_atom_site_fract_x
_atom_site_fract_y
_atom_site_fract_z
Si Si1 0.355501 0.297484 0.769195
Si Si2 0.241626 0.183265 0.000000
Si Si3 0.500000 0.932152 0.759293
Si Si4 0.130408 0.000000 0.633358
Si Si5 0.732386 0.888437 0.368321
Si Si6 0.000000 0.618039 0.000000
O O1 0.500000 0.280446 0.763979
O O2 0.250000 0.250000 0.764891
O O3 0.316852 0.338185 0.670452
O O4 0.330541 0.328813 0.886259
O O5 0.250000 0.250000 0.000000
O O6 0.376591 0.155893 0.000000
O O7 0.388085 0.898915 0.703494
O O8 0.500000 0.919551 0.890044
O O9 0.500000 0.000000 0.737917
O O10 0.196815 0.055754 0.658972
O O11 0.120343 0.000000 0.500000
O O12 0.000000 0.000000 0.688593
O O13 0.705694 0.885262 0.500000
#
# Coordination Sequence:
#
# PCOD9493133 Si02
#       6
#    16   8   8   8  16   4
#     4  11  25  42  66  95 131 172 220 272 332 392
#     4  10  23  37  67  91 124 164 226 269 322 381
#     4  12  24  42  67  99 132 170 220 271 333 400
#     4   9  18  35  59  83 114 163 214 259 311 376
#     4  11  23  39  63  93 129 170 216 268 323 391
#     4  12  23  44  68  98 132 176 211 282 334 382
#
# _framework density 18.835925
#
# number of rings (size 3 to 8) (size 9 to 14) (size 15 to 20)
#    0.000    1.200    4.000    1.800    9.333    2.667 
#    0.000    0.000    0.000    0.000    0.000    5.600 
#    0.000    0.000    0.000    0.000    0.000    0.000 
#
# Total GULP energy -167061.399789 kJ/mol
# GULP energy per Si atom -5568.713326 kJ/mol
# Density = 1.879305 g / cm^3
# Si number density = 18.835925 Si / 1000 Ang^3
#
#
#
# Elastic Constant Matrix: (Units=GPa)
#
#
# Indices 1 2 3 4 5 6 
#
# 1 166.3851 38.7125 40.7365 0.0000 0.0000 0.0000
# 2 38.7125 61.7150 21.2488 0.0000 0.0000 0.0000
# 3 40.7365 21.2488 108.9329 0.0000 0.0000 0.0000
# 4 0.0000 0.0000 0.0000 30.5359 0.0000 0.0000
# 5 0.0000 0.0000 0.0000 0.0000 27.0127 0.0000
# 6 0.0000 0.0000 0.0000 0.0000 0.0000 22.6068
#
#
#
# Elastic Compliance Matrix: (Units=1/GPa)
#
#
# Indices 1 2 3 4 5 6 
#
# 1 0.007423 -0.003967 -0.002002 0.000000 0.000000 0.000000
# 2 -0.003967 0.019490 -0.002318 0.000000 0.000000 0.000000
# 3 -0.002002 -0.002318 0.010381 0.000000 0.000000 0.000000
# 4 0.000000 0.000000 0.000000 0.032748 0.000000 0.000000
# 5 0.000000 0.000000 0.000000 0.000000 0.037020 0.000000
# 6 0.000000 0.000000 0.000000 0.000000 0.000000 0.044234
#
#
# Mechanical properties :
#
#
# Convention : Reuss Voigt Hill
#
# Bulk Modulus (GPa) = 48.26430 59.82542 54.04486
# Shear Modulus (GPa) = 28.60761 31.78676 30.19719
#
# Velocity S-wave (km/s) = 3.90138 4.11245 4.00830
# Velocity P-wave (km/s) = 6.78038 7.37428 7.08355
#
# Compressibility (1/GPa) = 0.02071925
#
# Stress axis : x y z
#
# Youngs Moduli (GPa) = 134.70936 51.30779 96.33061
#
# Poissons Ratio (x) = 0.20355 0.19287
# Poissons Ratio (y) = 0.53441 0.22332
# Poissons Ratio (z) = 0.26971 0.11895
#
# Static dielectric constant tensor:
#      x y z
#    x 1.630700 0.000000 0.000000 
#    y 0.000000 1.635160 0.000000 
#    z 0.000000 0.000000 1.672850 
# 
# From -- ./inp_files/22257.got.cif
#   From: 2010.05.17/outbox.cif.g08.bks.cpg/sg65_12_cif.got.tgz:22257.got - 2010.06.03 17:01:31.
