data_PCOD9493076
_publ_section_title
;
Structure prediction by ZEFSAII (Michael W. Deem and Ramdas Pophale) SiO2 
 PCOD9493076
Probable space group: C M M M
;
_chemical_formula_sum "Si O2"
_cell_formula_units_Z 48
_cell_length_a 10.213999
_cell_length_b 28.218426
_cell_length_c 8.759873
_cell_angle_alpha 90.000000
_cell_angle_beta 90.000000
_cell_angle_gamma 90.000000
_cell_volume 2524.796656
_symmetry_space_group_name_H-M "C M M M"
_symmetry_group_IT_number 65
_symmetry_cell_setting 'orthorhombic'
loop_
_space_group_symop_operation_xyz
x,y,z
-x,-y,z
x,-y,-z
-x,y,-z
-x,-y,-z
x,y,-z
-x,y,z
x,-y,z
1/2+x,1/2+y,z
1/2-x,1/2-y,z
1/2+x,1/2-y,-z
1/2-x,1/2+y,-z
1/2-x,1/2-y,-z
1/2+x,1/2+y,-z
1/2-x,1/2+y,z
1/2+x,1/2-y,z
loop_
_atom_site_type_symbol
_atom_site_label
_atom_site_fract_x
_atom_site_fract_y
_atom_site_fract_z
Si Si1 0.500000 0.943675 0.175054
Si Si2 0.653967 0.793442 0.184250
Si Si3 0.500000 0.555684 0.183502
Si Si4 0.753887 0.393275 0.318238
O O1 0.374088 0.925232 0.262748
O O2 0.500000 0.000000 0.169195
O O3 0.500000 0.925244 0.000000
O O4 0.500000 0.786978 0.227836
O O5 0.750000 0.750000 0.225503
O O6 0.712515 0.840913 0.257327
O O7 0.656670 0.798027 0.000000
O O8 0.500000 0.500000 0.230269
O O9 0.374494 0.583484 0.245684
O O10 0.500000 0.556732 0.000000
O O11 0.742827 0.392618 0.500000
#
# Coordination Sequence:
#
# PCOD9493076 Si02
#       4
#     8  16   8  16
#     4  11  23  41  66  93 124 169 219 262 310 377
#     4  10  22  41  66  95 127 168 217 264 314 379
#     4  11  25  45  68  93 126 173 223 266 314 381
#     4  12  25  41  64  97 134 168 207 265 329 382
#
# _framework density 19.011430000000001
#
# number of rings (size 3 to 8) (size 9 to 14) (size 15 to 20)
#    0.000    1.000    1.667    5.000    2.333    7.333 
#    0.000    0.000    0.000    0.000    0.000    0.000 
#    0.000    0.000    0.000    0.000    0.000    0.000 
#
# Total GULP energy -134205.736857 kJ/mol
# GULP energy per Si atom -5591.905702 kJ/mol
# Density = 1.896816 g / cm^3
# Si number density = 19.011430 Si / 1000 Ang^3
#
#
#
# Elastic Constant Matrix: (Units=GPa)
#
#
# Indices 1 2 3 4 5 6 
#
# 1 222.8037 110.1181 66.7454 0.0000 0.0000 0.0000
# 2 110.1181 167.7191 67.4882 0.0000 0.0000 0.0000
# 3 66.7454 67.4882 80.5088 0.0000 0.0000 0.0000
# 4 0.0000 0.0000 0.0000 -255.1446 0.0000 0.0000
# 5 0.0000 0.0000 0.0000 0.0000 38.5438 0.0000
# 6 0.0000 0.0000 0.0000 0.0000 0.0000 48.4713
#
#
#
# Elastic Compliance Matrix: (Units=1/GPa)
#
#
# Indices 1 2 3 4 5 6 
#
# 1 0.007089 -0.003455 -0.002981 0.000000 0.000000 0.000000
# 2 -0.003455 0.010681 -0.006089 0.000000 0.000000 0.000000
# 3 -0.002981 -0.006089 0.019997 0.000000 0.000000 0.000000
# 4 0.000000 0.000000 0.000000 -0.003919 0.000000 0.000000
# 5 0.000000 0.000000 0.000000 0.000000 0.025944 0.000000
# 6 0.000000 0.000000 0.000000 0.000000 0.000000 0.020631
#
#
# Mechanical properties :
#
#
# Convention : Reuss Voigt Hill
#
# Bulk Modulus (GPa) = 78.63793 106.63725 92.63759
# Shear Modulus (GPa) = 45.57431 -18.51389 13.53021
#
# Velocity S-wave (km/s) = 4.90144 -3.12401 2.67064
# Velocity P-wave (km/s) = 8.57236 6.57269 7.63825
#
# Compressibility (1/GPa) = 0.01271651
#
# Stress axis : x y z
#
# Youngs Moduli (GPa) = 141.07003 93.62538 50.00798
#
# Poissons Ratio (x) = 0.32345 0.14907
# Poissons Ratio (y) = 0.48735 0.30452
# Poissons Ratio (z) = 0.42051 0.57012
#
# Static dielectric constant tensor:
#      x y z
#    x 2.073540 0.000000 0.000000 
#    y 0.000000 1.648190 0.000000 
#    z 0.000000 0.000000 1.635190 
# 
# From -- ./inp_files/3021.got.cif
#   From: 2010.05.17/outbox.cif.g08.bks.cpg/sg65_2_cif.got.tgz:3021.got - 2010.06.03 17:01:31.
