data_PCOD9493976
_publ_section_title
;
Structure prediction by ZEFSAII (Michael W. Deem and Ramdas Pophale) SiO2 
 PCOD9493976
Probable space group: C M M M
;
_chemical_formula_sum "Si O2"
_cell_formula_units_Z 56
_cell_length_a 19.197859
_cell_length_b 9.941195
_cell_length_c 13.256476
_cell_angle_alpha 90.000000
_cell_angle_beta 90.000000
_cell_angle_gamma 90.000000
_cell_volume 2529.993936
_symmetry_space_group_name_H-M "C M M M"
_symmetry_group_IT_number 65
_symmetry_cell_setting 'orthorhombic'
loop_
_space_group_symop_operation_xyz
x,y,z
-x,-y,z
x,-y,-z
-x,y,-z
-x,-y,-z
x,y,-z
-x,y,z
x,-y,z
1/2+x,1/2+y,z
1/2-x,1/2-y,z
1/2+x,1/2-y,-z
1/2-x,1/2+y,-z
1/2-x,1/2-y,-z
1/2+x,1/2+y,-z
1/2-x,1/2+y,z
1/2+x,1/2-y,z
loop_
_atom_site_type_symbol
_atom_site_label
_atom_site_fract_x
_atom_site_fract_y
_atom_site_fract_z
Si Si1 0.269278 0.500000 0.117132
Si Si2 0.897442 0.500000 0.117191
Si Si3 0.374794 0.152775 0.381893
Si Si4 0.500000 0.231815 0.879131
Si Si5 0.750000 0.750000 0.244037
Si Si6 0.500000 0.347933 0.324756
O O1 0.184854 0.500000 0.122297
O O2 0.287630 0.362622 0.174562
O O3 0.290989 0.500000 0.000000
O O4 0.934291 0.636704 0.150566
O O5 0.916709 0.500000 0.000000
O O6 0.356073 0.158076 0.500000
O O7 0.307246 0.180407 0.314321
O O8 0.433305 0.263776 0.361492
O O9 0.400220 0.000000 0.360362
O O10 0.500000 0.348443 0.797663
O O11 0.500000 0.263222 0.000000
O O12 0.500000 0.500000 0.362526
#
# Coordination Sequence:
#
# PCOD9493976 Si02
#       6
#     8   8  16   8   8   8
#     4  11  23  40  64  99 141 182 225 277 338 408
#     4   8  16  33  60  88 121 173 231 271 312 381
#     4  11  26  49  74 100 133 181 235 288 345 412
#     4   9  18  34  62  96 131 178 225 271 325 397
#     4  12  24  44  72 104 138 182 232 284 342 410
#     4  12  27  42  69 105 142 176 222 285 351 407
#
# _framework density 22.134440000000001
#
# number of rings (size 3 to 8) (size 9 to 14) (size 15 to 20)
#    0.000    1.429    1.429    4.286    6.000    2.571 
#    0.000    1.429    0.000    0.000    0.000    0.000 
#    0.000    0.000    0.000    0.000    0.000    0.000 
#
# Total GULP energy -156551.563491 kJ/mol
# GULP energy per Si atom -5591.127268 kJ/mol
# Density = 2.208406 g / cm^3
# Si number density = 22.134440 Si / 1000 Ang^3
#
#
#
# Elastic Constant Matrix: (Units=GPa)
#
#
# Indices 1 2 3 4 5 6 
#
# 1 43.5841 17.8838 15.5925 0.0000 0.0000 0.0000
# 2 17.8838 169.2625 67.5720 0.0000 0.0000 0.0000
# 3 15.5925 67.5720 158.7500 0.0000 0.0000 0.0000
# 4 0.0000 0.0000 0.0000 22.7041 0.0000 0.0000
# 5 0.0000 0.0000 0.0000 0.0000 22.7201 0.0000
# 6 0.0000 0.0000 0.0000 0.0000 0.0000 18.8783
#
#
#
# Elastic Compliance Matrix: (Units=1/GPa)
#
#
# Indices 1 2 3 4 5 6 
#
# 1 0.024300 -0.001945 -0.001559 0.000000 0.000000 0.000000
# 2 -0.001945 0.007273 -0.002905 0.000000 0.000000 0.000000
# 3 -0.001559 -0.002905 0.007689 0.000000 0.000000 0.000000
# 4 0.000000 0.000000 0.000000 0.044045 0.000000 0.000000
# 5 0.000000 0.000000 0.000000 0.000000 0.044014 0.000000
# 6 0.000000 0.000000 0.000000 0.000000 0.000000 0.052971
#
#
# Mechanical properties :
#
#
# Convention : Reuss Voigt Hill
#
# Bulk Modulus (GPa) = 37.81518 63.74368 50.77943
# Shear Modulus (GPa) = 24.76183 30.89706 27.82945
#
# Velocity S-wave (km/s) = 3.34833 3.74020 3.54968
# Velocity P-wave (km/s) = 5.66302 6.89297 6.30805
#
# Compressibility (1/GPa) = 0.02644441
#
# Stress axis : x y z
#
# Youngs Moduli (GPa) = 41.15227 137.49259 130.06063
#
# Poissons Ratio (x) = 0.26745 0.20274
# Poissons Ratio (y) = 0.08005 0.37779
# Poissons Ratio (z) = 0.06415 0.39938
#
# Static dielectric constant tensor:
#      x y z
#    x 1.784470 0.000000 0.000000 
#    y 0.000000 1.823960 0.000000 
#    z 0.000000 0.000000 1.849640 
# 
# From -- ./inp_files/43620.got.cif
#   From: 2010.05.17/outbox.cif.g08.bks.cpg/sg65_22_cif.got.tgz:43620.got - 2010.06.03 17:01:31.
