data_PCOD9493282
_publ_section_title
;
Structure prediction by ZEFSAII (Michael W. Deem and Ramdas Pophale) SiO2 
 PCOD9493282
Probable space group: C M M M
;
_chemical_formula_sum "Si O2"
_cell_formula_units_Z 104
_cell_length_a 33.366232
_cell_length_b 7.852698
_cell_length_c 22.736882
_cell_angle_alpha 90.000000
_cell_angle_beta 90.000000
_cell_angle_gamma 90.000000
_cell_volume 5957.402848
_symmetry_space_group_name_H-M "C M M M"
_symmetry_group_IT_number 65
_symmetry_cell_setting 'orthorhombic'
loop_
_space_group_symop_operation_xyz
x,y,z
-x,-y,z
x,-y,-z
-x,y,-z
-x,-y,-z
x,y,-z
-x,y,z
x,-y,z
1/2+x,1/2+y,z
1/2-x,1/2-y,z
1/2+x,1/2-y,-z
1/2-x,1/2+y,-z
1/2-x,1/2-y,-z
1/2+x,1/2+y,-z
1/2-x,1/2+y,z
1/2+x,1/2-y,z
loop_
_atom_site_type_symbol
_atom_site_label
_atom_site_fract_x
_atom_site_fract_y
_atom_site_fract_z
Si Si1 0.000000 0.707824 0.768586
Si Si2 0.830378 0.206354 0.564927
Si Si3 0.075442 0.800016 0.152080
Si Si4 0.876362 0.198452 0.257758
Si Si5 0.794919 0.697886 0.687673
Si Si6 0.048070 0.500000 0.069830
Si Si7 0.000000 0.701683 0.366951
Si Si8 0.587478 0.704221 0.621769
O O1 0.961718 0.778498 0.802936
O O2 0.000000 0.500000 0.770667
O O3 0.000000 0.765507 0.700752
O O4 0.818541 0.265057 0.500000
O O5 0.803263 0.266645 0.618764
O O6 0.876150 0.260620 0.579887
O O7 0.829382 0.000000 0.565504
O O8 0.112391 0.738011 0.193172
O O9 0.066578 0.668859 0.099742
O O10 0.079051 0.000000 0.134627
O O11 0.830262 0.211387 0.276496
O O12 0.901625 0.274000 0.312748
O O13 0.887488 0.000000 0.255036
O O14 0.800217 0.500000 0.698654
O O15 0.750000 0.750000 0.702751
O O16 0.000000 0.500000 0.081671
O O17 0.053895 0.500000 0.000000
O O18 0.957846 0.754617 0.395171
O O19 0.000000 0.500000 0.364380
O O20 0.590557 0.500000 0.624443
#
# Coordination Sequence:
#
# PCOD9493282 Si02
#       8
#     8  16  16  16  16   8   8  16
#     4  11  19  29  45  72 107 137 178 225 264 320
#     4   9  19  37  56  71  92 126 171 215 253 306
#     4  11  20  33  55  77 104 145 188 228 271 315
#     4   9  19  33  52  77 102 131 169 214 263 318
#     4  11  22  35  54  78 108 137 160 200 259 318
#     4  11  24  38  50  74 116 156 195 239 265 297
#     4  11  21  27  42  68  99 130 163 210 266 318
#     4   9  17  30  47  68  94 123 161 209 264 312
#
# _framework density 17.457270999999999
#
# number of rings (size 3 to 8) (size 9 to 14) (size 15 to 20)
#    0.000    1.923    3.077    2.769    1.077    4.000 
#    0.000    1.154    0.000    2.308    0.000    0.000 
#    0.000    0.615    0.308    0.000    0.000    0.000 
#
# Total GULP energy -290026.521157 kJ/mol
# GULP energy per Si atom -5577.433099 kJ/mol
# Density = 1.741754 g / cm^3
# Si number density = 17.457271 Si / 1000 Ang^3
#
#
#
# Elastic Constant Matrix: (Units=GPa)
#
#
# Indices 1 2 3 4 5 6 
#
# 1 77.9509 -6.0438 10.4458 0.0000 0.0000 0.0000
# 2 -6.0438 54.6891 18.1319 0.0000 0.0000 0.0000
# 3 10.4458 18.1319 64.1083 0.0000 0.0000 0.0000
# 4 0.0000 0.0000 0.0000 15.0900 0.0000 0.0000
# 5 0.0000 0.0000 0.0000 0.0000 16.4226 0.0000
# 6 0.0000 0.0000 0.0000 0.0000 0.0000 19.0767
#
#
#
# Elastic Compliance Matrix: (Units=1/GPa)
#
#
# Indices 1 2 3 4 5 6 
#
# 1 0.013402 0.002433 -0.002872 0.000000 0.000000 0.000000
# 2 0.002433 0.020619 -0.006228 0.000000 0.000000 0.000000
# 3 -0.002872 -0.006228 0.017828 0.000000 0.000000 0.000000
# 4 0.000000 0.000000 0.000000 0.066269 0.000000 0.000000
# 5 0.000000 0.000000 0.000000 0.000000 0.060892 0.000000
# 6 0.000000 0.000000 0.000000 0.000000 0.000000 0.052420
#
#
# Mechanical properties :
#
#
# Convention : Reuss Voigt Hill
#
# Bulk Modulus (GPa) = 25.96361 26.86846 26.41603
# Shear Modulus (GPa) = 19.40980 21.73217 20.57098
#
# Velocity S-wave (km/s) = 3.33805 3.53211 3.43645
# Velocity P-wave (km/s) = 5.45543 5.66205 5.55970
#
# Compressibility (1/GPa) = 0.03851545
#
# Stress axis : x y z
#
# Youngs Moduli (GPa) = 74.61516 48.49893 56.09125
#
# Poissons Ratio (x) = -0.11801 0.16109
# Poissons Ratio (y) = -0.18156 0.34935
# Poissons Ratio (z) = 0.21429 0.30206
#
# Static dielectric constant tensor:
#      x y z
#    x 1.747760 0.000000 0.000000 
#    y 0.000000 1.623910 0.000000 
#    z 0.000000 0.000000 1.598890 
# 
# From -- ./inp_files/72209.got.cif
#   From: 2010.05.17/outbox.cif.g08.bks.cpg/sg65_37_cif.got.tgz:72209.got - 2010.06.03 17:01:31.
