data_PCOD9493527
_publ_section_title
;
Structure prediction by ZEFSAII (Michael W. Deem and Ramdas Pophale) SiO2 
 PCOD9493527
Probable space group: C M M M
;
_chemical_formula_sum "Si O2"
_cell_formula_units_Z 80
_cell_length_a 21.840592
_cell_length_b 22.279620
_cell_length_c 8.407998
_cell_angle_alpha 90.000000
_cell_angle_beta 90.000000
_cell_angle_gamma 90.000000
_cell_volume 4091.332586
_symmetry_space_group_name_H-M "C M M M"
_symmetry_group_IT_number 65
_symmetry_cell_setting 'orthorhombic'
loop_
_space_group_symop_operation_xyz
x,y,z
-x,-y,z
x,-y,-z
-x,y,-z
-x,-y,-z
x,y,-z
-x,y,z
x,-y,z
1/2+x,1/2+y,z
1/2-x,1/2-y,z
1/2+x,1/2-y,-z
1/2-x,1/2+y,-z
1/2-x,1/2-y,-z
1/2+x,1/2+y,-z
1/2-x,1/2+y,z
1/2+x,1/2-y,z
loop_
_atom_site_type_symbol
_atom_site_label
_atom_site_fract_x
_atom_site_fract_y
_atom_site_fract_z
Si Si1 0.427984 0.257142 0.176301
Si Si2 0.872985 0.125708 0.688625
Si Si3 0.748874 0.178806 0.811516
Si Si4 0.929095 0.000000 0.306235
Si Si5 0.620645 0.857587 0.316888
Si Si6 0.500000 0.929781 0.306079
O O1 0.500000 0.248445 0.171406
O O2 0.412623 0.324415 0.222104
O O3 0.401378 0.211134 0.302805
O O4 0.402037 0.243254 0.000000
O O5 0.884082 0.130112 0.500000
O O6 0.803416 0.143733 0.725330
O O7 0.893487 0.059907 0.742883
O O8 0.750000 0.250000 0.762967
O O9 0.685142 0.145467 0.772934
O O10 0.759825 0.177975 0.000000
O O11 0.930026 0.000000 0.500000
O O12 0.000000 0.000000 0.253670
O O13 0.631076 0.874809 0.500000
O O14 0.563075 0.896938 0.253427
O O15 0.500000 0.925354 0.500000
O O16 0.500000 0.000000 0.263083
#
# Coordination Sequence:
#
# PCOD9493527 Si02
#       6
#    16  16  16   8  16   8
#     4  11  22  35  55  86 123 157 193 244 306 360
#     4  11  22  38  63  89 118 158 206 253 299 357
#     4  11  23  39  59  86 125 163 195 245 308 362
#     4   9  20  40  63  91 125 158 197 252 307 353
#     4  11  21  36  62  90 116 153 201 249 300 356
#     4   9  20  40  63  91 123 152 193 254 309 355
#
# _framework density 19.553531
#
# number of rings (size 3 to 8) (size 9 to 14) (size 15 to 20)
#    0.000    1.400    3.000    3.000    0.000    2.800 
#    1.800    2.000    0.000    7.800    0.000    0.000 
#    0.000    0.000    0.000    0.000    0.000    0.000 
#
# Total GULP energy -223299.056784 kJ/mol
# GULP energy per Si atom -5582.476420 kJ/mol
# Density = 1.950903 g / cm^3
# Si number density = 19.553531 Si / 1000 Ang^3
#
#
#
# Elastic Constant Matrix: (Units=GPa)
#
#
# Indices 1 2 3 4 5 6 
#
# 1 75.3373 21.3946 5.0432 0.0000 0.0000 0.0000
# 2 21.3946 102.2938 -4.3628 0.0000 0.0000 0.0000
# 3 5.0432 -4.3628 29.7050 0.0000 0.0000 0.0000
# 4 0.0000 0.0000 0.0000 1.2186 0.0000 0.0000
# 5 0.0000 0.0000 0.0000 0.0000 22.8560 0.0000
# 6 0.0000 0.0000 0.0000 0.0000 0.0000 29.8911
#
#
#
# Elastic Compliance Matrix: (Units=1/GPa)
#
#
# Indices 1 2 3 4 5 6 
#
# 1 0.014355 -0.003126 -0.002896 0.000000 0.000000 0.000000
# 2 -0.003126 0.010518 0.002076 0.000000 0.000000 0.000000
# 3 -0.002896 0.002076 0.034461 0.000000 0.000000 0.000000
# 4 0.000000 0.000000 0.000000 0.820611 0.000000 0.000000
# 5 0.000000 0.000000 0.000000 0.000000 0.043752 0.000000
# 6 0.000000 0.000000 0.000000 0.000000 0.000000 0.033455
#
#
# Mechanical properties :
#
#
# Convention : Reuss Voigt Hill
#
# Bulk Modulus (GPa) = 19.43981 27.94290 23.69135
# Shear Modulus (GPa) = 5.09065 23.14389 14.11727
#
# Velocity S-wave (km/s) = 1.61527 3.44411 2.68988
# Velocity P-wave (km/s) = 3.66636 5.48975 4.66795
#
# Compressibility (1/GPa) = 0.05144083
#
# Stress axis : x y z
#
# Youngs Moduli (GPa) = 69.66111 95.07460 29.01843
#
# Poissons Ratio (x) = 0.29719 0.08404
# Poissons Ratio (y) = 0.21775 -0.06023
# Poissons Ratio (z) = 0.20176 -0.19733
#
# Static dielectric constant tensor:
#      x y z
#    x 1.733820 0.000000 0.000000 
#    y 0.000000 1.654240 0.000000 
#    z 0.000000 0.000000 1.743930 
# 
# From -- ./inp_files/13839.got.cif
#   From: 2010.05.17/outbox.cif.g08.bks.cpg/sg65_7_cif.got.tgz:13839.got - 2010.06.03 17:01:31.
