data_PCOD9493411
_publ_section_title
;
Structure prediction by ZEFSAII (Michael W. Deem and Ramdas Pophale) SiO2 
 PCOD9493411
Probable space group: C M M M
;
_chemical_formula_sum "Si O2"
_cell_formula_units_Z 96
_cell_length_a 15.181941
_cell_length_b 22.383587
_cell_length_c 14.314409
_cell_angle_alpha 90.000000
_cell_angle_beta 90.000000
_cell_angle_gamma 90.000000
_cell_volume 4864.412607
_symmetry_space_group_name_H-M "C M M M"
_symmetry_group_IT_number 65
_symmetry_cell_setting 'orthorhombic'
loop_
_space_group_symop_operation_xyz
x,y,z
-x,-y,z
x,-y,-z
-x,y,-z
-x,-y,-z
x,y,-z
-x,y,z
x,-y,z
1/2+x,1/2+y,z
1/2-x,1/2-y,z
1/2+x,1/2-y,-z
1/2-x,1/2+y,-z
1/2-x,1/2-y,-z
1/2+x,1/2+y,-z
1/2-x,1/2+y,z
1/2+x,1/2-y,z
loop_
_atom_site_type_symbol
_atom_site_label
_atom_site_fract_x
_atom_site_fract_y
_atom_site_fract_z
Si Si1 0.636953 0.189066 0.392947
Si Si2 0.902923 0.355291 0.801432
Si Si3 0.599348 0.724929 0.889451
Si Si4 0.722897 0.386640 0.888937
Si Si5 0.848851 0.174874 0.393197
Si Si6 0.102324 0.064808 0.261432
O O1 0.609613 0.176791 0.500000
O O2 0.601612 0.147638 0.310766
O O3 0.742947 0.181953 0.389678
O O4 0.615128 0.258706 0.371624
O O5 0.892134 0.286652 0.835301
O O6 0.820683 0.388440 0.847107
O O7 0.000000 0.375852 0.831469
O O8 0.500000 0.700493 0.871241
O O9 0.676408 0.677976 0.869469
O O10 0.604111 0.738383 0.000000
O O11 0.661230 0.430366 0.830761
O O12 0.722643 0.395561 0.000000
O O13 0.873984 0.161281 0.500000
O O14 0.876913 0.121430 0.326572
O O15 0.000000 0.067280 0.236548
O O16 0.119244 0.000000 0.307511
#
# Coordination Sequence:
#
# PCOD9493411 Si02
#       6
#    16  16  16  16  16  16
#     4   9  18  33  56  85 117 155 193 232 285 344
#     4  11  21  32  52  82 115 148 187 237 287 346
#     4   9  18  31  49  77 110 146 188 232 284 347
#     4  11  22  37  56  76 108 153 196 241 294 345
#     4   9  18  35  58  85 119 156 194 235 282 342
#     4  11  24  40  60  87 117 153 198 242 286 342
#
# _framework density 19.735168000000002
#
# number of rings (size 3 to 8) (size 9 to 14) (size 15 to 20)
#    0.000    2.000    1.667    3.500    2.333    6.667 
#    0.000    3.333    0.000    0.500    0.000    1.167 
#    0.000    2.667    0.000    0.000    0.000    0.000 
#
# Total GULP energy -268000.287085 kJ/mol
# GULP energy per Si atom -5583.339314 kJ/mol
# Density = 1.969025 g / cm^3
# Si number density = 19.735168 Si / 1000 Ang^3
#
#
#
# Elastic Constant Matrix: (Units=GPa)
#
#
# Indices 1 2 3 4 5 6 
#
# 1 120.6759 28.6344 48.0660 0.0000 0.0000 0.0000
# 2 28.6344 52.4849 43.9655 0.0000 0.0000 0.0000
# 3 48.0660 43.9655 83.0316 0.0000 0.0000 0.0000
# 4 0.0000 0.0000 0.0000 11.3764 0.0000 0.0000
# 5 0.0000 0.0000 0.0000 0.0000 15.1517 0.0000
# 6 0.0000 0.0000 0.0000 0.0000 0.0000 15.4799
#
#
#
# Elastic Compliance Matrix: (Units=1/GPa)
#
#
# Indices 1 2 3 4 5 6 
#
# 1 0.010810 -0.001178 -0.005634 0.000000 0.000000 0.000000
# 2 -0.001178 0.034369 -0.017517 0.000000 0.000000 0.000000
# 3 -0.005634 -0.017517 0.024580 0.000000 0.000000 0.000000
# 4 0.000000 0.000000 0.000000 0.087901 0.000000 0.000000
# 5 0.000000 0.000000 0.000000 0.000000 0.065999 0.000000
# 6 0.000000 0.000000 0.000000 0.000000 0.000000 0.064600
#
#
# Mechanical properties :
#
#
# Convention : Reuss Voigt Hill
#
# Bulk Modulus (GPa) = 47.38902 55.28047 51.33474
# Shear Modulus (GPa) = 14.53693 17.43670 15.98681
#
# Velocity S-wave (km/s) = 2.71698 2.97566 2.84926
# Velocity P-wave (km/s) = 5.82299 6.31490 6.07393
#
# Compressibility (1/GPa) = 0.02110194
#
# Stress axis : x y z
#
# Youngs Moduli (GPa) = 92.50410 29.09584 40.68318
#
# Poissons Ratio (x) = 0.03428 0.22921
# Poissons Ratio (y) = 0.10900 0.71263
# Poissons Ratio (z) = 0.52117 0.50966
#
# Static dielectric constant tensor:
#      x y z
#    x 1.720790 0.000000 0.000000 
#    y 0.000000 1.681160 0.000000 
#    z 0.000000 0.000000 1.709300 
# 
# From -- ./inp_files/40401.got.cif
#   From: 2010.05.17/outbox.cif.g08.bks.cpg/sg65_21_cif.got.tgz:40401.got - 2010.06.03 17:01:31.
