data_PCOD9493840
_publ_section_title
;
Structure prediction by ZEFSAII (Michael W. Deem and Ramdas Pophale) SiO2 
 PCOD9493840
Probable space group: C M M M
;
_chemical_formula_sum "Si O2"
_cell_formula_units_Z 56
_cell_length_a 15.499178
_cell_length_b 12.111495
_cell_length_c 17.266324
_cell_angle_alpha 90.000000
_cell_angle_beta 90.000000
_cell_angle_gamma 90.000000
_cell_volume 3241.203553
_symmetry_space_group_name_H-M "C M M M"
_symmetry_group_IT_number 65
_symmetry_cell_setting 'orthorhombic'
loop_
_space_group_symop_operation_xyz
x,y,z
-x,-y,z
x,-y,-z
-x,y,-z
-x,-y,-z
x,y,-z
-x,y,z
x,-y,z
1/2+x,1/2+y,z
1/2-x,1/2-y,z
1/2+x,1/2-y,-z
1/2-x,1/2+y,-z
1/2-x,1/2-y,-z
1/2+x,1/2+y,-z
1/2-x,1/2+y,z
1/2+x,1/2-y,z
loop_
_atom_site_type_symbol
_atom_site_label
_atom_site_fract_x
_atom_site_fract_y
_atom_site_fract_z
Si Si1 0.895118 0.129138 0.669546
Si Si2 0.650401 0.726031 0.830004
Si Si3 0.099630 0.865885 0.500000
Si Si4 0.396903 0.500000 0.913162
Si Si5 0.000000 0.367473 0.092239
O O1 0.864847 0.207082 0.738595
O O2 0.863451 0.164715 0.583905
O O3 0.000000 0.130030 0.668789
O O4 0.870284 0.000000 0.682920
O O5 0.750000 0.750000 0.844978
O O6 0.629507 0.609262 0.868952
O O7 0.584001 0.813878 0.866850
O O8 0.000000 0.827882 0.500000
O O9 0.097693 0.000000 0.500000
O O10 0.500000 0.500000 0.916889
O O11 0.361278 0.500000 0.000000
O O12 0.000000 0.500000 0.099727
O O13 0.000000 0.339841 0.000000
#
# Coordination Sequence:
#
# PCOD9493840 Si02
#       5
#    16  16   8   8   8
#     4   9  15  30  55  84 115 145 185 236 282 335
#     4  12  24  38  60  89 116 152 191 237 291 343
#     4   7  12  22  47  84 114 141 177 228 287 331
#     4  11  22  40  64  86 110 146 197 248 292 337
#     4  11  26  45  59  78 115 155 192 237 290 346
#
# _framework density 17.277533999999999
#
# number of rings (size 3 to 8) (size 9 to 14) (size 15 to 20)
#    0.000    1.857    4.286    2.571    2.000    2.286 
#    0.000    0.714    0.000    0.000    0.000    2.000 
#    0.000    0.000    0.000    0.000    0.000    0.000 
#
# Total GULP energy -156085.395077 kJ/mol
# GULP energy per Si atom -5574.478396 kJ/mol
# Density = 1.723821 g / cm^3
# Si number density = 17.277534 Si / 1000 Ang^3
#
#
#
# Elastic Constant Matrix: (Units=GPa)
#
#
# Indices 1 2 3 4 5 6 
#
# 1 96.1201 39.2652 44.2103 0.0000 0.0000 0.0000
# 2 39.2652 79.9078 54.2840 0.0000 0.0000 0.0000
# 3 44.2103 54.2840 166.8059 0.0000 0.0000 0.0000
# 4 0.0000 0.0000 0.0000 26.7711 0.0000 0.0000
# 5 0.0000 0.0000 0.0000 0.0000 58.5293 0.0000
# 6 0.0000 0.0000 0.0000 0.0000 0.0000 8.5876
#
#
#
# Elastic Compliance Matrix: (Units=1/GPa)
#
#
# Indices 1 2 3 4 5 6 
#
# 1 0.013430 -0.005368 -0.001813 0.000000 0.000000 0.000000
# 2 -0.005368 0.018212 -0.004504 0.000000 0.000000 0.000000
# 3 -0.001813 -0.004504 0.007941 0.000000 0.000000 0.000000
# 4 0.000000 0.000000 0.000000 0.037354 0.000000 0.000000
# 5 0.000000 0.000000 0.000000 0.000000 0.017085 0.000000
# 6 0.000000 0.000000 0.000000 0.000000 0.000000 0.116447
#
#
# Mechanical properties :
#
#
# Convention : Reuss Voigt Hill
#
# Bulk Modulus (GPa) = 61.67502 68.70587 65.19044
# Shear Modulus (GPa) = 20.89920 32.44921 26.67420
#
# Velocity S-wave (km/s) = 3.48173 4.33842 3.93347
# Velocity P-wave (km/s) = 7.20676 8.05905 7.64479
#
# Compressibility (1/GPa) = 0.01621402
#
# Stress axis : x y z
#
# Youngs Moduli (GPa) = 74.45915 54.90926 125.92608
#
# Poissons Ratio (x) = 0.29475 0.22826
# Poissons Ratio (y) = 0.39969 0.56717
# Poissons Ratio (z) = 0.13497 0.24731
#
# Static dielectric constant tensor:
#      x y z
#    x 1.558370 0.000000 0.000000 
#    y 0.000000 1.558910 0.000000 
#    z 0.000000 0.000000 1.649600 
# 
# From -- ./inp_files/50793.got.cif
#   From: 2010.05.17/outbox.cif.g08.bks.cpg/sg65_26_cif.got.tgz:50793.got - 2010.06.03 17:01:31.
