data_PCOD9493814
_publ_section_title
;
Structure prediction by ZEFSAII (Michael W. Deem and Ramdas Pophale) SiO2 
 PCOD9493814
Probable space group: C M M M
;
_chemical_formula_sum "Si O2"
_cell_formula_units_Z 72
_cell_length_a 7.882964
_cell_length_b 15.589316
_cell_length_c 28.222897
_cell_angle_alpha 90.000000
_cell_angle_beta 90.000000
_cell_angle_gamma 90.000000
_cell_volume 3468.312287
_symmetry_space_group_name_H-M "C M M M"
_symmetry_group_IT_number 65
_symmetry_cell_setting 'orthorhombic'
loop_
_space_group_symop_operation_xyz
x,y,z
-x,-y,z
x,-y,-z
-x,y,-z
-x,-y,-z
x,y,-z
-x,y,z
x,-y,z
1/2+x,1/2+y,z
1/2-x,1/2-y,z
1/2+x,1/2-y,-z
1/2-x,1/2+y,-z
1/2-x,1/2-y,-z
1/2+x,1/2+y,-z
1/2-x,1/2+y,z
1/2+x,1/2-y,z
loop_
_atom_site_type_symbol
_atom_site_label
_atom_site_fract_x
_atom_site_fract_y
_atom_site_fract_z
Si Si1 0.295366 0.850127 0.654719
Si Si2 0.299750 0.000000 0.168716
Si Si3 0.799125 0.843597 0.102100
Si Si4 0.295476 0.148880 0.550784
Si Si5 0.291433 0.000000 0.275919
Si Si6 0.293319 0.399240 0.000000
O O1 0.500000 0.853940 0.653779
O O2 0.250000 0.750000 0.661784
O O3 0.234300 0.880741 0.602404
O O4 0.237149 0.915200 0.695273
O O5 0.252875 0.082670 0.138013
O O6 0.500000 0.000000 0.173960
O O7 0.228577 0.000000 0.221942
O O8 0.750000 0.750000 0.119386
O O9 0.000000 0.848315 0.097788
O O10 0.728154 0.858767 0.048913
O O11 0.233371 0.113172 0.500000
O O12 0.500000 0.139693 0.550630
O O13 0.250000 0.250000 0.550400
O O14 0.500000 0.000000 0.275724
O O15 0.252532 0.500000 0.000000
O O16 0.500000 0.392775 0.000000
#
# Coordination Sequence:
#
# PCOD9493814 Si02
#       6
#    16   8  16  16   8   8
#     4   9  17  32  52  73  99 133 170 211 261 314
#     4  11  23  40  58  80 110 147 191 236 281 326
#     4  11  22  39  62  88 118 150 185 225 273 326
#     4   8  13  22  40  67  96 125 159 200 249 307
#     4   9  20  37  55  74 102 137 175 222 271 316
#     4   9  17  34  60  87 118 152 182 219 266 321
#
# _framework density 20.759374999999999
#
# number of rings (size 3 to 8) (size 9 to 14) (size 15 to 20)
#    0.000    2.556    1.111    1.333    0.000    0.889 
#    0.000    7.778    0.000    3.333    0.000    0.000 
#    0.000   17.778    0.000    0.000    0.000    0.000 
#
# Total GULP energy -200781.426475 kJ/mol
# GULP energy per Si atom -5577.261847 kJ/mol
# Density = 2.071213 g / cm^3
# Si number density = 20.759375 Si / 1000 Ang^3
#
#
#
# Elastic Constant Matrix: (Units=GPa)
#
#
# Indices 1 2 3 4 5 6 
#
# 1 26.6153 4.6889 17.7409 0.0000 0.0000 0.0000
# 2 4.6889 139.7328 104.3882 0.0000 0.0000 0.0000
# 3 17.7409 104.3882 221.4597 0.0000 0.0000 0.0000
# 4 0.0000 0.0000 0.0000 -13.3183 0.0000 0.0000
# 5 0.0000 0.0000 0.0000 0.0000 7.5205 0.0000
# 6 0.0000 0.0000 0.0000 0.0000 0.0000 18.4227
#
#
#
# Elastic Compliance Matrix: (Units=1/GPa)
#
#
# Indices 1 2 3 4 5 6 
#
# 1 0.039928 0.001620 -0.003962 0.000000 0.000000 0.000000
# 2 0.001620 0.011112 -0.005368 0.000000 0.000000 0.000000
# 3 -0.003962 -0.005368 0.007363 0.000000 0.000000 0.000000
# 4 0.000000 0.000000 0.000000 -0.075085 0.000000 0.000000
# 5 0.000000 0.000000 0.000000 0.000000 0.132970 0.000000
# 6 0.000000 0.000000 0.000000 0.000000 0.000000 0.054281
#
#
# Mechanical properties :
#
#
# Convention : Reuss Voigt Hill
#
# Bulk Modulus (GPa) = 23.26455 71.27151 47.26803
# Shear Modulus (GPa) = 24.96046 19.92430 22.44238
#
# Velocity S-wave (km/s) = 3.47128 3.10138 3.29153
# Velocity P-wave (km/s) = 5.22470 6.87252 6.10447
#
# Compressibility (1/GPa) = 0.04298384
#
# Stress axis : x y z
#
# Youngs Moduli (GPa) = 25.04498 89.99227 135.81379
#
# Poissons Ratio (x) = -0.14581 0.53814
# Poissons Ratio (y) = -0.04058 0.72900
# Poissons Ratio (z) = 0.09924 0.48305
#
# Static dielectric constant tensor:
#      x y z
#    x 1.768410 0.000000 0.000000 
#    y 0.000000 1.679790 0.000000 
#    z 0.000000 0.000000 1.795710 
# 
# From -- ./inp_files/72625.got.cif
#   From: 2010.05.17/outbox.cif.g08.bks.cpg/sg65_37_cif.got.tgz:72625.got - 2010.06.03 17:01:31.
