data_PCOD9493475
_publ_section_title
;
Structure prediction by ZEFSAII (Michael W. Deem and Ramdas Pophale) SiO2 
 PCOD9493475
Probable space group: C M M M
;
_chemical_formula_sum "Si O2"
_cell_formula_units_Z 56
_cell_length_a 17.978041
_cell_length_b 8.721681
_cell_length_c 18.842839
_cell_angle_alpha 90.000000
_cell_angle_beta 90.000000
_cell_angle_gamma 90.000000
_cell_volume 2954.533387
_symmetry_space_group_name_H-M "C M M M"
_symmetry_group_IT_number 65
_symmetry_cell_setting 'orthorhombic'
loop_
_space_group_symop_operation_xyz
x,y,z
-x,-y,z
x,-y,-z
-x,y,-z
-x,-y,-z
x,y,-z
-x,y,z
x,-y,z
1/2+x,1/2+y,z
1/2-x,1/2-y,z
1/2+x,1/2-y,-z
1/2-x,1/2+y,-z
1/2-x,1/2-y,-z
1/2+x,1/2+y,-z
1/2-x,1/2+y,z
1/2+x,1/2-y,z
loop_
_atom_site_type_symbol
_atom_site_label
_atom_site_fract_x
_atom_site_fract_y
_atom_site_fract_z
Si Si1 0.832879 0.316850 0.000000
Si Si2 0.411312 0.318920 0.861309
Si Si3 0.334064 0.683911 0.422348
Si Si4 0.666223 0.817020 0.276585
O O1 0.750000 0.250000 0.000000
O O2 0.874576 0.256875 0.930107
O O3 0.830545 0.500000 0.000000
O O4 0.500000 0.301668 0.864644
O O5 0.393427 0.500000 0.860424
O O6 0.379658 0.242023 0.790400
O O7 0.367846 0.719751 0.500000
O O8 0.331019 0.500000 0.415161
O O9 0.250000 0.750000 0.424392
O O10 0.367238 0.755982 0.351127
O O11 0.750000 0.750000 0.270540
O O12 0.670118 0.000000 0.277865
#
# Coordination Sequence:
#
# PCOD9493475 Si02
#       4
#     8  16  16  16
#     4  12  25  42  65  91 119 147 183 228 273 326
#     4  11  24  42  62  84 114 150 187 228 278 334
#     4   9  16  27  46  74 108 144 184 231 282 333
#     4  11  21  34  55  82 114 149 189 235 281 332
#
# _framework density 18.953925000000002
#
# number of rings (size 3 to 8) (size 9 to 14) (size 15 to 20)
#    0.000    1.429    0.000    8.571    0.000    5.714 
#    0.000    0.000    0.000    0.857    0.000    6.000 
#    0.000    0.000    0.000    0.000    0.000    0.000 
#
# Total GULP energy -156428.966400 kJ/mol
# GULP energy per Si atom -5586.748800 kJ/mol
# Density = 1.891078 g / cm^3
# Si number density = 18.953925 Si / 1000 Ang^3
#
#
#
# Elastic Constant Matrix: (Units=GPa)
#
#
# Indices 1 2 3 4 5 6 
#
# 1 42.1845 58.6634 56.5163 0.0000 0.0000 0.0000
# 2 58.6634 188.8154 109.2590 0.0000 0.0000 0.0000
# 3 56.5163 109.2590 233.8989 0.0000 0.0000 0.0000
# 4 0.0000 0.0000 0.0000 19.9890 0.0000 0.0000
# 5 0.0000 0.0000 0.0000 0.0000 -13.3726 0.0000
# 6 0.0000 0.0000 0.0000 0.0000 0.0000 22.8837
#
#
#
# Elastic Compliance Matrix: (Units=1/GPa)
#
#
# Indices 1 2 3 4 5 6 
#
# 1 0.047679 -0.011165 -0.006305 0.000000 0.000000 0.000000
# 2 -0.011165 0.009873 -0.001914 0.000000 0.000000 0.000000
# 3 -0.006305 -0.001914 0.006693 0.000000 0.000000 0.000000
# 4 0.000000 0.000000 0.000000 0.050028 0.000000 0.000000
# 5 0.000000 0.000000 0.000000 0.000000 -0.074780 0.000000
# 6 0.000000 0.000000 0.000000 0.000000 0.000000 0.043699
#
#
# Mechanical properties :
#
#
# Convention : Reuss Voigt Hill
#
# Bulk Modulus (GPa) = 39.25202 101.53070 70.39136
# Shear Modulus (GPa) = 38.32841 21.93070 30.12956
#
# Velocity S-wave (km/s) = 4.50175 3.40524 3.99133
# Velocity P-wave (km/s) = 6.91196 8.31530 7.64590
#
# Compressibility (1/GPa) = 0.02547640
#
# Stress axis : x y z
#
# Youngs Moduli (GPa) = 20.97355 101.29116 149.41253
#
# Poissons Ratio (x) = 1.13091 0.94207
# Poissons Ratio (y) = 0.23417 0.28596
# Poissons Ratio (z) = 0.13224 0.19386
#
# Static dielectric constant tensor:
#      x y z
#    x 1.624150 0.000000 0.000000 
#    y 0.000000 1.630990 0.000000 
#    z 0.000000 0.000000 1.684910 
# 
# From -- ./inp_files/53897.got.cif
#   From: 2010.05.17/outbox.cif.g08.bks.cpg/sg65_27_cif.got.tgz:53897.got - 2010.06.03 17:01:31.
