data_PCOD9493577
_publ_section_title
;
Structure prediction by ZEFSAII (Michael W. Deem and Ramdas Pophale) SiO2 
 PCOD9493577
Probable space group: C M M M
;
_chemical_formula_sum "Si O2"
_cell_formula_units_Z 112
_cell_length_a 17.718598
_cell_length_b 13.255646
_cell_length_c 24.963553
_cell_angle_alpha 90.000000
_cell_angle_beta 90.000000
_cell_angle_gamma 90.000000
_cell_volume 5863.226207
_symmetry_space_group_name_H-M "C M M M"
_symmetry_group_IT_number 65
_symmetry_cell_setting 'orthorhombic'
loop_
_space_group_symop_operation_xyz
x,y,z
-x,-y,z
x,-y,-z
-x,y,-z
-x,-y,-z
x,y,-z
-x,y,z
x,-y,z
1/2+x,1/2+y,z
1/2-x,1/2-y,z
1/2+x,1/2-y,-z
1/2-x,1/2+y,-z
1/2-x,1/2-y,-z
1/2+x,1/2+y,-z
1/2-x,1/2+y,z
1/2+x,1/2-y,z
loop_
_atom_site_type_symbol
_atom_site_label
_atom_site_fract_x
_atom_site_fract_y
_atom_site_fract_z
Si Si1 0.161530 0.779914 0.360557
Si Si2 0.115940 0.118758 0.062727
Si Si3 0.708577 0.119671 0.058264
Si Si4 0.914759 0.000000 0.232642
Si Si5 0.917950 0.302868 0.866719
Si Si6 0.909659 0.214442 0.244479
Si Si7 0.410993 0.500000 0.362286
Si Si8 0.409114 0.886001 0.562135
O O1 0.250000 0.750000 0.362353
O O2 0.131388 0.763197 0.299914
O O3 0.121872 0.701253 0.400353
O O4 0.134671 0.895614 0.375254
O O5 0.204575 0.148277 0.066510
O O6 0.078120 0.193182 0.104654
O O7 0.106335 0.000000 0.075438
O O8 0.093390 0.130969 0.000000
O O9 0.650585 0.144806 0.104111
O O10 0.711977 0.000000 0.054682
O O11 0.681956 0.157956 0.000000
O O12 0.879333 0.107762 0.220670
O O13 0.917136 0.000000 0.297626
O O14 0.000000 0.000000 0.210585
O O15 0.903325 0.292427 0.803629
O O16 0.000000 0.351671 0.874980
O O17 0.000000 0.201626 0.255538
O O18 0.500000 0.500000 0.381493
O O19 0.386674 0.870934 0.500000
O O20 0.500000 0.884125 0.564016
O O21 0.385069 0.000000 0.578112
#
# Coordination Sequence:
#
# PCOD9493577 Si02
#       8
#    16  16  16   8  16  16   8  16
#     4  11  22  35  61  90 124 154 202 258 304 343
#     4   9  19  35  53  73  99 133 171 214 272 336
#     4   9  19  37  56  70  92 136 183 219 266 333
#     4   7  12  28  52  69  91 136 189 216 244 319
#     4  11  22  32  51  80 107 133 172 221 275 328
#     4   9  19  35  53  76 108 152 190 222 273 349
#     4   9  18  36  59  84 118 165 202 239 299 366
#     4   9  19  38  64  90 120 164 209 243 290 363
#
# _framework density 19.102111000000001
#
# number of rings (size 3 to 8) (size 9 to 14) (size 15 to 20)
#    0.000    2.571    0.000    4.286    2.000    4.286 
#    0.000    2.500    0.000    2.143    0.000    0.000 
#    0.000    0.000    0.000    0.000    0.000    0.000 
#
# Total GULP energy -312002.056105 kJ/mol
# GULP energy per Si atom -5571.465288 kJ/mol
# Density = 1.905863 g / cm^3
# Si number density = 19.102111 Si / 1000 Ang^3
#
#
#
# Elastic Constant Matrix: (Units=GPa)
#
#
# Indices 1 2 3 4 5 6 
#
# 1 91.8214 54.2169 44.4129 0.0000 0.0000 0.0000
# 2 54.2169 70.3182 37.4843 0.0000 0.0000 0.0000
# 3 44.4129 37.4843 73.6561 0.0000 0.0000 0.0000
# 4 0.0000 0.0000 0.0000 23.5345 0.0000 0.0000
# 5 0.0000 0.0000 0.0000 0.0000 13.1703 0.0000
# 6 0.0000 0.0000 0.0000 0.0000 0.0000 22.3930
#
#
#
# Elastic Compliance Matrix: (Units=1/GPa)
#
#
# Indices 1 2 3 4 5 6 
#
# 1 0.021961 -0.013549 -0.006347 0.000000 0.000000 0.000000
# 2 -0.013549 0.027875 -0.006016 0.000000 0.000000 0.000000
# 3 -0.006347 -0.006016 0.020465 0.000000 0.000000 0.000000
# 4 0.000000 0.000000 0.000000 0.042491 0.000000 0.000000
# 5 0.000000 0.000000 0.000000 0.000000 0.075928 0.000000
# 6 0.000000 0.000000 0.000000 0.000000 0.000000 0.044657
#
#
# Mechanical properties :
#
#
# Convention : Reuss Voigt Hill
#
# Bulk Modulus (GPa) = 54.12053 56.44711 55.28382
# Shear Modulus (GPa) = 17.16102 18.46500 17.81301
#
# Velocity S-wave (km/s) = 3.00056 3.11247 3.05702
# Velocity P-wave (km/s) = 6.35596 6.52158 6.43930
#
# Compressibility (1/GPa) = 0.01847728
#
# Stress axis : x y z
#
# Youngs Moduli (GPa) = 45.53614 35.87506 48.86400
#
# Poissons Ratio (x) = 0.48607 0.31012
# Poissons Ratio (y) = 0.61697 0.29396
# Poissons Ratio (z) = 0.28900 0.21582
#
# Static dielectric constant tensor:
#      x y z
#    x 1.680390 0.000000 0.000000 
#    y 0.000000 1.723680 0.000000 
#    z 0.000000 0.000000 1.635850 
# 
# From -- ./inp_files/74938.got.cif
#   From: 2010.05.17/outbox.cif.g08.bks.cpg/sg65_38_cif.got.tgz:74938.got - 2010.06.03 17:01:31.
