data_PCOD9493982
_publ_section_title
;
Structure prediction by ZEFSAII (Michael W. Deem and Ramdas Pophale) SiO2 
 PCOD9493982
Probable space group: C M M M
;
_chemical_formula_sum "Si O2"
_cell_formula_units_Z 64
_cell_length_a 9.005991
_cell_length_b 15.125076
_cell_length_c 24.757814
_cell_angle_alpha 90.000000
_cell_angle_beta 90.000000
_cell_angle_gamma 90.000000
_cell_volume 3372.417778
_symmetry_space_group_name_H-M "C M M M"
_symmetry_group_IT_number 65
_symmetry_cell_setting 'orthorhombic'
loop_
_space_group_symop_operation_xyz
x,y,z
-x,-y,z
x,-y,-z
-x,y,-z
-x,-y,-z
x,y,-z
-x,y,z
x,-y,z
1/2+x,1/2+y,z
1/2-x,1/2-y,z
1/2+x,1/2-y,-z
1/2-x,1/2+y,-z
1/2-x,1/2-y,-z
1/2+x,1/2+y,-z
1/2-x,1/2+y,z
1/2+x,1/2-y,z
loop_
_atom_site_type_symbol
_atom_site_label
_atom_site_fract_x
_atom_site_fract_y
_atom_site_fract_z
Si Si1 0.329475 0.108082 0.000000
Si Si2 0.320798 0.500000 0.585743
Si Si3 0.821897 0.152320 0.500000
Si Si4 0.325670 0.606229 0.109429
Si Si5 0.679530 0.658583 0.229916
Si Si6 0.678243 0.000000 0.703090
O O1 0.255534 0.138214 0.944328
O O2 0.500000 0.133118 0.000000
O O3 0.318642 0.000000 0.000000
O O4 0.500000 0.500000 0.594199
O O5 0.284894 0.588369 0.550943
O O6 0.234281 0.500000 0.641646
O O7 0.750000 0.250000 0.500000
O O8 0.000000 0.163688 0.500000
O O9 0.500000 0.623566 0.102910
O O10 0.305845 0.500000 0.113117
O O11 0.277672 0.644371 0.166930
O O12 0.500000 0.656441 0.233338
O O13 0.750000 0.750000 0.248157
O O14 0.751552 0.582947 0.265841
O O15 0.500000 0.000000 0.706210
#
# Coordination Sequence:
#
# PCOD9493982 Si02
#       6
#     8   8   8  16  16   8
#     4   9  17  27  46  79 110 138 180 236 292 352
#     4   9  20  40  62  88 125 167 205 244 295 353
#     4   9  19  37  64  94 126 165 203 245 297 344
#     4   9  17  33  55  77 106 146 188 234 296 363
#     4  11  23  41  62  87 117 155 201 252 307 363
#     4  12  25  41  63  91 123 164 207 252 302 354
#
# _framework density 18.977481999999998
#
# number of rings (size 3 to 8) (size 9 to 14) (size 15 to 20)
#    0.000    2.125    1.250    3.000    0.000    5.500 
#    0.000    4.375    0.000    0.000    0.000    0.000 
#    0.000    0.000    0.000    0.000    0.000    0.000 
#
# Total GULP energy -178667.582292 kJ/mol
# GULP energy per Si atom -5583.361947 kJ/mol
# Density = 1.893429 g / cm^3
# Si number density = 18.977482 Si / 1000 Ang^3
#
#
#
# Elastic Constant Matrix: (Units=GPa)
#
#
# Indices 1 2 3 4 5 6 
#
# 1 74.8053 74.1216 71.4889 0.0000 0.0000 0.0000
# 2 74.1216 131.5354 97.2386 0.0000 0.0000 0.0000
# 3 71.4889 97.2386 152.2695 0.0000 0.0000 0.0000
# 4 0.0000 0.0000 0.0000 -580.9360 0.0000 0.0000
# 5 0.0000 0.0000 0.0000 0.0000 21.2372 0.0000
# 6 0.0000 0.0000 0.0000 0.0000 0.0000 26.3081
#
#
#
# Elastic Compliance Matrix: (Units=1/GPa)
#
#
# Indices 1 2 3 4 5 6 
#
# 1 0.033818 -0.013865 -0.007023 0.000000 0.000000 0.000000
# 2 -0.013865 0.020085 -0.006317 0.000000 0.000000 0.000000
# 3 -0.007023 -0.006317 0.013899 0.000000 0.000000 0.000000
# 4 0.000000 0.000000 0.000000 -0.001721 0.000000 0.000000
# 5 0.000000 0.000000 0.000000 0.000000 0.047087 0.000000
# 6 0.000000 0.000000 0.000000 0.000000 0.000000 0.038011
#
#
# Mechanical properties :
#
#
# Convention : Reuss Voigt Hill
#
# Bulk Modulus (GPa) = 74.67191 93.81204 84.24198
# Shear Modulus (GPa) = 23.80351 -98.96073 -37.57861
#
# Velocity S-wave (km/s) = 3.54546 -7.22908 -4.45474
# Velocity P-wave (km/s) = 7.49623 4.48763 4.24586
#
# Compressibility (1/GPa) = 0.01339192
#
# Stress axis : x y z
#
# Youngs Moduli (GPa) = 29.57006 49.78725 71.94948
#
# Poissons Ratio (x) = 0.69029 0.50531
# Poissons Ratio (y) = 0.40999 0.45451
# Poissons Ratio (z) = 0.20767 0.31451
#
# Static dielectric constant tensor:
#      x y z
#    x 1.625960 0.000000 0.000000 
#    y 0.000000 1.303400 0.000000 
#    z 0.000000 0.000000 1.654830 
# 
# From -- ./inp_files/66883.got.cif
#   From: 2010.05.17/outbox.cif.g08.bks.cpg/sg65_34_cif.got.tgz:66883.got - 2010.06.03 17:01:31.
