data_PCOD9493595
_publ_section_title
;
Structure prediction by ZEFSAII (Michael W. Deem and Ramdas Pophale) SiO2 
 PCOD9493595
Probable space group: C M M M
;
_chemical_formula_sum "Si O2"
_cell_formula_units_Z 88
_cell_length_a 18.775690
_cell_length_b 7.716838
_cell_length_c 32.080270
_cell_angle_alpha 90.000000
_cell_angle_beta 90.000000
_cell_angle_gamma 90.000000
_cell_volume 4648.076895
_symmetry_space_group_name_H-M "C M M M"
_symmetry_group_IT_number 65
_symmetry_cell_setting 'orthorhombic'
loop_
_space_group_symop_operation_xyz
x,y,z
-x,-y,z
x,-y,-z
-x,y,-z
-x,-y,-z
x,y,-z
-x,y,z
x,-y,z
1/2+x,1/2+y,z
1/2-x,1/2-y,z
1/2+x,1/2-y,-z
1/2-x,1/2+y,-z
1/2-x,1/2-y,-z
1/2+x,1/2+y,-z
1/2-x,1/2+y,z
1/2+x,1/2-y,z
loop_
_atom_site_type_symbol
_atom_site_label
_atom_site_fract_x
_atom_site_fract_y
_atom_site_fract_z
Si Si1 0.587042 0.200911 0.110289
Si Si2 0.581277 0.207696 0.291235
Si Si3 0.915521 0.290748 0.201307
Si Si4 0.667463 0.294864 0.373785
Si Si5 0.582732 0.288418 0.546381
Si Si6 0.413093 0.500000 0.047789
O O1 0.500000 0.201385 0.111647
O O2 0.611436 0.267549 0.156083
O O3 0.609043 0.330184 0.073772
O O4 0.608228 0.000000 0.104117
O O5 0.500000 0.272916 0.297144
O O6 0.611617 0.270968 0.246428
O O7 0.628236 0.243840 0.331325
O O8 0.576547 0.000000 0.287335
O O9 0.908775 0.500000 0.199536
O O10 0.000000 0.252147 0.202862
O O11 0.661032 0.500000 0.376664
O O12 0.750000 0.250000 0.372592
O O13 0.629257 0.222355 0.415185
O O14 0.605945 0.232560 0.500000
O O15 0.500000 0.239673 0.552022
O O16 0.584661 0.500000 0.546324
O O17 0.500000 0.500000 0.047297
O O18 0.389060 0.500000 0.000000
#
# Coordination Sequence:
#
# PCOD9493595 Si02
#       6
#    16  16  16  16  16   8
#     4   8  13  22  34  47  68 100 138 183 231 277
#     4   9  17  31  51  72  94 120 152 196 247 293
#     4   7  11  22  40  59  78 103 137 179 228 278
#     4  11  22  34  48  69  98 130 163 196 233 288
#     4   8  15  30  52  74  94 119 154 198 245 287
#     4   9  16  22  28  44  70 102 144 188 229 277
#
# _framework density 18.932561
#
# number of rings (size 3 to 8) (size 9 to 14) (size 15 to 20)
#    0.000    3.364    0.000    3.818    0.000    1.818 
#    1.636    1.818    0.000    1.636    0.000    6.364 
#    0.000    0.000    0.000    0.000    0.000    0.909 
#
# Total GULP energy -244950.329070 kJ/mol
# GULP energy per Si atom -5567.052933 kJ/mol
# Density = 1.888947 g / cm^3
# Si number density = 18.932561 Si / 1000 Ang^3
#
#
#
# Elastic Constant Matrix: (Units=GPa)
#
#
# Indices 1 2 3 4 5 6 
#
# 1 38.4929 10.4363 65.6093 0.0000 0.0000 0.0000
# 2 10.4363 52.1885 49.0226 0.0000 0.0000 0.0000
# 3 65.6093 49.0226 246.4233 0.0000 0.0000 0.0000
# 4 0.0000 0.0000 0.0000 18.9014 0.0000 0.0000
# 5 0.0000 0.0000 0.0000 0.0000 -3.9057 0.0000
# 6 0.0000 0.0000 0.0000 0.0000 0.0000 -9.0218
#
#
#
# Elastic Compliance Matrix: (Units=1/GPa)
#
#
# Indices 1 2 3 4 5 6 
#
# 1 0.047931 0.002955 -0.013349 0.000000 0.000000 0.000000
# 2 0.002955 0.023747 -0.005511 0.000000 0.000000 0.000000
# 3 -0.013349 -0.005511 0.008709 0.000000 0.000000 0.000000
# 4 0.000000 0.000000 0.000000 0.052906 0.000000 0.000000
# 5 0.000000 0.000000 0.000000 0.000000 -0.256038 0.000000
# 6 0.000000 0.000000 0.000000 0.000000 0.000000 -0.110842
#
#
# Mechanical properties :
#
#
# Convention : Reuss Voigt Hill
#
# Bulk Modulus (GPa) = 20.58651 65.24899 42.91775
# Shear Modulus (GPa) = -26.94183 15.33055 -5.80564
#
# Velocity S-wave (km/s) = -3.77642 2.84869 -1.75304
# Velocity P-wave (km/s) = 2.84919 6.73489 4.31514
#
# Compressibility (1/GPa) = 0.04857551
#
# Stress axis : x y z
#
# Youngs Moduli (GPa) = 20.86337 42.11070 114.82999
#
# Poissons Ratio (x) = -0.12442 1.53289
# Poissons Ratio (y) = -0.06164 0.63280
# Poissons Ratio (z) = 0.27851 0.23206
#
# Static dielectric constant tensor:
#      x y z
#    x 1.601770 0.000000 0.000000 
#    y 0.000000 1.726040 0.000000 
#    z 0.000000 0.000000 1.714800 
# 
# From -- ./inp_files/77806.got.cif
#   From: 2010.05.17/outbox.cif.g08.bks.cpg/sg65_39_cif.got.tgz:77806.got - 2010.06.03 17:01:31.
