data_PCOD9493071
_publ_section_title
;
Structure prediction by ZEFSAII (Michael W. Deem and Ramdas Pophale) SiO2 
 PCOD9493071
Probable space group: C M M M
;
_chemical_formula_sum "Si O2"
_cell_formula_units_Z 66
_cell_length_a 22.836528
_cell_length_b 17.658751
_cell_length_c 8.146573
_cell_angle_alpha 90.000000
_cell_angle_beta 90.000000
_cell_angle_gamma 90.000000
_cell_volume 3285.224190
_symmetry_space_group_name_H-M "C M M M"
_symmetry_group_IT_number 65
_symmetry_cell_setting 'orthorhombic'
loop_
_space_group_symop_operation_xyz
x,y,z
-x,-y,z
x,-y,-z
-x,y,-z
-x,-y,-z
x,y,-z
-x,y,z
x,-y,z
1/2+x,1/2+y,z
1/2-x,1/2-y,z
1/2+x,1/2-y,-z
1/2-x,1/2+y,-z
1/2-x,1/2-y,-z
1/2+x,1/2+y,-z
1/2-x,1/2+y,z
1/2+x,1/2-y,z
loop_
_atom_site_type_symbol
_atom_site_label
_atom_site_fract_x
_atom_site_fract_y
_atom_site_fract_z
Si Si1 0.877240 0.208460 0.309551
Si Si2 0.065220 0.500000 0.693579
Si Si3 0.281955 0.587301 0.801008
Si Si4 0.000000 0.000000 0.000000
Si Si5 0.652076 0.127959 0.809453
Si Si6 0.500000 0.624270 0.303060
O O1 0.871429 0.229195 0.500000
O O2 0.830495 0.143666 0.266850
O O3 0.863828 0.284500 0.210861
O O4 0.941669 0.174553 0.283812
O O5 0.059106 0.500000 0.500000
O O6 0.102714 0.573802 0.737598
O O7 0.000000 0.500000 0.768771
O O8 0.293629 0.500000 0.756264
O O9 0.217069 0.610619 0.741951
O O10 0.283701 0.592419 0.000000
O O11 0.000000 0.065004 0.151064
O O12 0.655511 0.107982 0.000000
O O13 0.500000 0.597491 0.500000
#
# Coordination Sequence:
#
# PCOD9493071 Si02
#       6
#    16   8  16   2  16   8
#     4  11  25  43  64  94 136 175 215 275 335 390
#     4  11  25  43  66  97 133 172 212 267 333 390
#     4  10  22  41  65  95 130 168 220 275 324 390
#     4  12  26  44  80  90 132 186 226 268 354 390
#     4  11  23  43  68  96 131 169 222 273 323 395
#     4  10  27  47  67 105 140 172 230 286 330 408
#
# _framework density 20.089955
#
# number of rings (size 3 to 8) (size 9 to 14) (size 15 to 20)
#    0.000    1.333    1.212    2.727    6.788    6.303 
#    0.000    0.000    0.000    0.000    0.000    0.000 
#    0.000    0.000    0.000    0.000    0.000    0.000 
#
# Total GULP energy -184094.719115 kJ/mol
# GULP energy per Si atom -5578.627852 kJ/mol
# Density = 2.004423 g / cm^3
# Si number density = 20.089955 Si / 1000 Ang^3
#
#
#
# Elastic Constant Matrix: (Units=GPa)
#
#
# Indices 1 2 3 4 5 6 
#
# 1 172.7083 61.0413 14.0849 0.0000 0.0000 0.0000
# 2 61.0413 99.8605 5.6526 0.0000 0.0000 0.0000
# 3 14.0849 5.6526 46.7760 0.0000 0.0000 0.0000
# 4 0.0000 0.0000 0.0000 40.9937 0.0000 0.0000
# 5 0.0000 0.0000 0.0000 0.0000 26.1418 0.0000
# 6 0.0000 0.0000 0.0000 0.0000 0.0000 -14.1656
#
#
#
# Elastic Compliance Matrix: (Units=1/GPa)
#
#
# Indices 1 2 3 4 5 6 
#
# 1 0.007521 -0.004500 -0.001721 0.000000 0.000000 0.000000
# 2 -0.004500 0.012775 -0.000189 0.000000 0.000000 0.000000
# 3 -0.001721 -0.000189 0.021919 0.000000 0.000000 0.000000
# 4 0.000000 0.000000 0.000000 0.024394 0.000000 0.000000
# 5 0.000000 0.000000 0.000000 0.000000 0.038253 0.000000
# 6 0.000000 0.000000 0.000000 0.000000 0.000000 -0.070593
#
#
# Mechanical properties :
#
#
# Convention : Reuss Voigt Hill
#
# Bulk Modulus (GPa) = 34.01764 53.43361 43.72563
# Shear Modulus (GPa) = 87.89342 26.49837 57.19589
#
# Velocity S-wave (km/s) = 6.62155 3.63572 5.34151
# Velocity P-wave (km/s) = 8.68500 6.65429 7.73657
#
# Compressibility (1/GPa) = 0.02939651
#
# Stress axis : x y z
#
# Youngs Moduli (GPa) = 132.96362 78.27630 45.62151
#
# Poissons Ratio (x) = 0.35223 0.07851
# Poissons Ratio (y) = 0.59831 0.00862
# Poissons Ratio (z) = 0.22881 0.01478
#
# Static dielectric constant tensor:
#      x y z
#    x 1.717650 0.000000 0.000000 
#    y 0.000000 1.659560 0.000000 
#    z 0.000000 0.000000 1.721600 
# 
# From -- ./inp_files/10972.got.cif
#   From: 2010.05.17/outbox.cif.g08.bks.cpg/sg65_6_cif.got.tgz:10972.got - 2010.06.03 17:01:31.
