data_PCOD9493968
_publ_section_title
;
Structure prediction by ZEFSAII (Michael W. Deem and Ramdas Pophale) SiO2 
 PCOD9493968
Probable space group: C M M M
;
_chemical_formula_sum "Si O2"
_cell_formula_units_Z 68
_cell_length_a 14.849712
_cell_length_b 20.296524
_cell_length_c 9.915204
_cell_angle_alpha 90.000000
_cell_angle_beta 90.000000
_cell_angle_gamma 90.000000
_cell_volume 2988.418055
_symmetry_space_group_name_H-M "C M M M"
_symmetry_group_IT_number 65
_symmetry_cell_setting 'orthorhombic'
loop_
_space_group_symop_operation_xyz
x,y,z
-x,-y,z
x,-y,-z
-x,y,-z
-x,-y,-z
x,y,-z
-x,y,z
x,-y,z
1/2+x,1/2+y,z
1/2-x,1/2-y,z
1/2+x,1/2-y,-z
1/2-x,1/2+y,-z
1/2-x,1/2-y,-z
1/2+x,1/2+y,-z
1/2-x,1/2+y,z
1/2+x,1/2-y,z
loop_
_atom_site_type_symbol
_atom_site_label
_atom_site_fract_x
_atom_site_fract_y
_atom_site_fract_z
Si Si1 0.500000 0.669324 0.500000
Si Si2 0.150506 0.135959 0.717429
Si Si3 0.143314 0.622682 0.655440
Si Si4 0.643016 0.500000 0.152768
Si Si5 0.605586 0.240346 0.146528
Si Si6 0.637745 0.000000 0.157204
O O1 0.579021 0.665008 0.615005
O O2 0.247910 0.121689 0.654648
O O3 0.160492 0.192608 0.829718
O O4 0.115255 0.066748 0.773912
O O5 0.111788 0.618534 0.500000
O O6 0.118185 0.689971 0.730882
O O7 0.111792 0.563626 0.753610
O O8 0.752743 0.500000 0.151377
O O9 0.611454 0.500000 0.000000
O O10 0.500000 0.257527 0.141956
O O11 0.628736 0.210343 0.000000
O O12 0.607389 0.000000 0.000000
#
# Coordination Sequence:
#
# PCOD9493968 Si02
#       6
#     4  16  16   8  16   8
#     4  12  24  41  58  92 130 173 204 264 310 369
#     4  11  23  40  64  88 128 168 213 259 310 369
#     4  11  23  39  67  96 124 163 209 256 314 375
#     4   9  20  38  61  89 120 167 216 261 305 361
#     4  11  25  43  63  91 126 165 209 262 317 373
#     4   9  19  39  64  93 127 160 205 259 308 370
#
# _framework density 22.754512999999999
#
# number of rings (size 3 to 8) (size 9 to 14) (size 15 to 20)
#    0.000    1.412    2.353    2.471    1.647    6.588 
#    0.000    1.176    0.000    3.529    0.000    0.000 
#    0.000    0.000    0.000    0.000    0.000    0.000 
#
# Total GULP energy -189554.865232 kJ/mol
# GULP energy per Si atom -5575.143095 kJ/mol
# Density = 2.270272 g / cm^3
# Si number density = 22.754513 Si / 1000 Ang^3
#
#
#
# Elastic Constant Matrix: (Units=GPa)
#
#
# Indices 1 2 3 4 5 6 
#
# 1 69.6075 -8.2568 13.8357 0.0000 0.0000 0.0000
# 2 -8.2568 148.5089 69.7195 0.0000 0.0000 0.0000
# 3 13.8357 69.7195 203.0505 0.0000 0.0000 0.0000
# 4 0.0000 0.0000 0.0000 -468.2154 0.0000 0.0000
# 5 0.0000 0.0000 0.0000 0.0000 25.4255 0.0000
# 6 0.0000 0.0000 0.0000 0.0000 0.0000 26.8403
#
#
#
# Elastic Compliance Matrix: (Units=1/GPa)
#
#
# Indices 1 2 3 4 5 6 
#
# 1 0.014857 0.001551 -0.001545 0.000000 0.000000 0.000000
# 2 0.001551 0.008190 -0.002918 0.000000 0.000000 0.000000
# 3 -0.001545 -0.002918 0.006032 0.000000 0.000000 0.000000
# 4 0.000000 0.000000 0.000000 -0.002136 0.000000 0.000000
# 5 0.000000 0.000000 0.000000 0.000000 0.039331 0.000000
# 6 0.000000 0.000000 0.000000 0.000000 0.000000 0.037257
#
#
# Mechanical properties :
#
#
# Convention : Reuss Voigt Hill
#
# Bulk Modulus (GPa) = 42.99918 63.52930 53.26424
# Shear Modulus (GPa) = 42.69631 -60.13202 -8.71785
#
# Velocity S-wave (km/s) = 4.33643 -5.14624 -1.95948
# Velocity P-wave (km/s) = 6.63407 2.70771 4.28247
#
# Compressibility (1/GPa) = 0.02325626
#
# Stress axis : x y z
#
# Youngs Moduli (GPa) = 67.30655 122.10597 165.78297
#
# Poissons Ratio (x) = -0.18943 0.25614
# Poissons Ratio (y) = -0.10442 0.48370
# Poissons Ratio (z) = 0.10399 0.35627
#
# Static dielectric constant tensor:
#      x y z
#    x 1.849600 0.000000 0.000000 
#    y 0.000000 1.835890 0.000000 
#    z 0.000000 0.000000 1.941620 
# 
# From -- ./inp_files/8983.got.cif
#   From: 2010.05.17/outbox.cif.g08.bks.cpg/sg65_5_cif.got.tgz:8983.got - 2010.06.03 17:01:31.
