data_PCOD9493366
_publ_section_title
;
Structure prediction by ZEFSAII (Michael W. Deem and Ramdas Pophale) SiO2 
 PCOD9493366
Probable space group: C M M M
;
_chemical_formula_sum "Si O2"
_cell_formula_units_Z 72
_cell_length_a 37.682274
_cell_length_b 14.917486
_cell_length_c 7.953982
_cell_angle_alpha 90.000000
_cell_angle_beta 90.000000
_cell_angle_gamma 90.000000
_cell_volume 4471.130500
_symmetry_space_group_name_H-M "C M M M"
_symmetry_group_IT_number 65
_symmetry_cell_setting 'orthorhombic'
loop_
_space_group_symop_operation_xyz
x,y,z
-x,-y,z
x,-y,-z
-x,y,-z
-x,-y,-z
x,y,-z
-x,y,z
x,-y,z
1/2+x,1/2+y,z
1/2-x,1/2-y,z
1/2+x,1/2-y,-z
1/2-x,1/2+y,-z
1/2-x,1/2-y,-z
1/2+x,1/2+y,-z
1/2-x,1/2+y,z
1/2+x,1/2-y,z
loop_
_atom_site_type_symbol
_atom_site_label
_atom_site_fract_x
_atom_site_fract_y
_atom_site_fract_z
Si Si1 0.837364 0.785270 0.198420
Si Si2 0.689738 0.101308 0.702719
Si Si3 0.540391 0.391483 0.500000
Si Si4 0.092948 0.107481 0.800309
Si Si5 0.729997 0.399268 0.298310
O O1 0.835935 0.680869 0.244295
O O2 0.871775 0.839847 0.257670
O O3 0.800889 0.830777 0.257332
O O4 0.837939 0.793564 0.000000
O O5 0.690404 0.100436 0.500000
O O6 0.730137 0.122231 0.762281
O O7 0.681021 0.000000 0.758850
O O8 0.538986 0.500000 0.500000
O O9 0.500000 0.357805 0.500000
O O10 0.561755 0.367486 0.329825
O O11 0.098912 0.000000 0.787321
O O12 0.085788 0.125877 0.000000
O O13 0.732324 0.402325 0.500000
O O14 0.720946 0.500000 0.238121
#
# Coordination Sequence:
#
# PCOD9493366 Si02
#       5
#    16  16   8  16  16
#     4  11  21  30  44  67  93 122 155 193 242 288
#     4   9  19  34  47  61  84 118 163 207 243 281
#     4   9  18  32  52  76  98 129 165 185 216 274
#     4   9  19  33  47  71 105 131 156 193 231 274
#     4   9  18  31  46  63  85 119 161 201 240 281
#
# _framework density 16.103308999999999
#
# number of rings (size 3 to 8) (size 9 to 14) (size 15 to 20)
#    0.000    2.556    0.000    3.333    3.111    5.778 
#    0.000    4.444    0.000    0.000    0.000    0.000 
#    0.000    1.778    0.000    4.889    0.000    0.222 
#
# Total GULP energy -200611.529993 kJ/mol
# GULP energy per Si atom -5572.542500 kJ/mol
# Density = 1.606666 g / cm^3
# Si number density = 16.103309 Si / 1000 Ang^3
#
#
#
# Elastic Constant Matrix: (Units=GPa)
#
#
# Indices 1 2 3 4 5 6 
#
# 1 80.7093 49.1390 30.9704 0.0000 0.0000 0.0000
# 2 49.1390 63.3347 16.9931 0.0000 0.0000 0.0000
# 3 30.9704 16.9931 38.9947 0.0000 0.0000 0.0000
# 4 0.0000 0.0000 0.0000 8.3411 0.0000 0.0000
# 5 0.0000 0.0000 0.0000 0.0000 46.8352 0.0000
# 6 0.0000 0.0000 0.0000 0.0000 0.0000 13.4068
#
#
#
# Elastic Compliance Matrix: (Units=1/GPa)
#
#
# Indices 1 2 3 4 5 6 
#
# 1 0.029942 -0.019082 -0.015465 0.000000 0.000000 0.000000
# 2 -0.019082 0.030040 0.002064 0.000000 0.000000 0.000000
# 3 -0.015465 0.002064 0.037028 0.000000 0.000000 0.000000
# 4 0.000000 0.000000 0.000000 0.119888 0.000000 0.000000
# 5 0.000000 0.000000 0.000000 0.000000 0.021351 0.000000
# 6 0.000000 0.000000 0.000000 0.000000 0.000000 0.074589
#
#
# Mechanical properties :
#
#
# Convention : Reuss Voigt Hill
#
# Bulk Modulus (GPa) = 31.20653 41.91599 36.56126
# Shear Modulus (GPa) = 12.87045 19.44570 16.15808
#
# Velocity S-wave (km/s) = 2.83016 3.47877 3.17109
# Velocity P-wave (km/s) = 5.48641 6.49782 6.01342
#
# Compressibility (1/GPa) = 0.03204457
#
# Stress axis : x y z
#
# Youngs Moduli (GPa) = 33.39749 33.28891 27.00663
#
# Poissons Ratio (x) = 0.63521 0.41767
# Poissons Ratio (y) = 0.63728 -0.05575
# Poissons Ratio (z) = 0.51651 -0.06872
#
# Static dielectric constant tensor:
#      x y z
#    x 1.540490 0.000000 0.000000 
#    y 0.000000 1.559720 0.000000 
#    z 0.000000 0.000000 1.572810 
# 
# From -- ./inp_files/7197.got.cif
#   From: 2010.05.17/outbox.cif.g08.bks.cpg/sg65_4_cif.got.tgz:7197.got - 2010.06.03 17:01:31.
