data_PCOD9493919
_publ_section_title
;
Structure prediction by ZEFSAII (Michael W. Deem and Ramdas Pophale) SiO2 
 PCOD9493919
Probable space group: C M M M
;
_chemical_formula_sum "Si O2"
_cell_formula_units_Z 64
_cell_length_a 18.944116
_cell_length_b 25.207878
_cell_length_c 7.439918
_cell_angle_alpha 90.000000
_cell_angle_beta 90.000000
_cell_angle_gamma 90.000000
_cell_volume 3552.865621
_symmetry_space_group_name_H-M "C M M M"
_symmetry_group_IT_number 65
_symmetry_cell_setting 'orthorhombic'
loop_
_space_group_symop_operation_xyz
x,y,z
-x,-y,z
x,-y,-z
-x,y,-z
-x,-y,-z
x,y,-z
-x,y,z
x,-y,z
1/2+x,1/2+y,z
1/2-x,1/2-y,z
1/2+x,1/2-y,-z
1/2-x,1/2+y,-z
1/2-x,1/2-y,-z
1/2+x,1/2+y,-z
1/2-x,1/2+y,z
1/2+x,1/2-y,z
loop_
_atom_site_type_symbol
_atom_site_label
_atom_site_fract_x
_atom_site_fract_y
_atom_site_fract_z
Si Si1 0.415302 0.632634 0.500000
Si Si2 0.585531 0.754139 0.500000
Si Si3 0.339056 0.438459 0.785803
Si Si4 0.825551 0.559106 0.218261
Si Si5 0.915967 0.340139 0.212631
O O1 0.500000 0.631840 0.500000
O O2 0.389875 0.693668 0.500000
O O3 0.385787 0.601414 0.327865
O O4 0.500000 0.751757 0.500000
O O5 0.606137 0.788929 0.673107
O O6 0.357851 0.500000 0.748720
O O7 0.256469 0.432150 0.735355
O O8 0.345438 0.430119 0.000000
O O9 0.846545 0.500000 0.279956
O O10 0.874526 0.607515 0.275310
O O11 0.828548 0.558059 0.000000
O O12 0.000000 0.348022 0.237625
O O13 0.903323 0.332420 0.000000
#
# Coordination Sequence:
#
# PCOD9493919 Si02
#       5
#     8   8  16  16  16
#     4  11  23  37  55  76  96 125 169 214 252 300
#     4   9  20  36  49  68 100 133 168 209 252 297
#     4   9  19  36  55  76 105 134 157 194 253 310
#     4   8  15  30  52  77 105 136 167 199 243 299
#     4   9  17  31  52  75 102 137 172 207 243 279
#
# _framework density 18.013629000000002
#
# number of rings (size 3 to 8) (size 9 to 14) (size 15 to 20)
#    0.000    3.000    0.000    1.875    0.000    4.000 
#    0.000   10.625    0.000    6.750    0.000    0.000 
#    0.000    0.000    0.000    0.000    0.000    0.000 
#
# Total GULP energy -178439.530349 kJ/mol
# GULP energy per Si atom -5576.235323 kJ/mol
# Density = 1.797263 g / cm^3
# Si number density = 18.013629 Si / 1000 Ang^3
#
#
#
# Elastic Constant Matrix: (Units=GPa)
#
#
# Indices 1 2 3 4 5 6 
#
# 1 48.1531 77.9126 39.6027 0.0000 0.0000 0.0000
# 2 77.9126 195.8520 79.3806 0.0000 0.0000 0.0000
# 3 39.6027 79.3806 84.1676 0.0000 0.0000 0.0000
# 4 0.0000 0.0000 0.0000 25.9452 0.0000 0.0000
# 5 0.0000 0.0000 0.0000 0.0000 11.1940 0.0000
# 6 0.0000 0.0000 0.0000 0.0000 0.0000 -288.7079
#
#
#
# Elastic Compliance Matrix: (Units=1/GPa)
#
#
# Indices 1 2 3 4 5 6 
#
# 1 0.062814 -0.021059 -0.009694 0.000000 0.000000 0.000000
# 2 -0.021059 0.015326 -0.004545 0.000000 0.000000 0.000000
# 3 -0.009694 -0.004545 0.020729 0.000000 0.000000 0.000000
# 4 0.000000 0.000000 0.000000 0.038543 0.000000 0.000000
# 5 0.000000 0.000000 0.000000 0.000000 0.089333 0.000000
# 6 0.000000 0.000000 0.000000 0.000000 0.000000 -0.003464
#
#
# Mechanical properties :
#
#
# Convention : Reuss Voigt Hill
#
# Bulk Modulus (GPa) = 35.37069 80.21827 57.79448
# Shear Modulus (GPa) = 16.48523 -41.56194 -12.53835
#
# Velocity S-wave (km/s) = 3.02843 -4.80859 -2.64113
# Velocity P-wave (km/s) = 5.64860 3.71464 4.78044
#
# Compressibility (1/GPa) = 0.02827200
#
# Stress axis : x y z
#
# Youngs Moduli (GPa) = 15.92005 65.24928 48.24158
#
# Poissons Ratio (x) = 1.37410 0.46764
# Poissons Ratio (y) = 0.33526 0.21927
# Poissons Ratio (z) = 0.15432 0.29658
#
# Static dielectric constant tensor:
#      x y z
#    x 1.593930 0.000000 0.000000 
#    y 0.000000 1.600640 0.000000 
#    z 0.000000 0.000000 1.649600 
# 
# From -- ./inp_files/6761.got.cif
#   From: 2010.05.17/outbox.cif.g08.bks.cpg/sg65_4_cif.got.tgz:6761.got - 2010.06.03 17:01:31.
