data_PCOD9493443
_publ_section_title
;
Structure prediction by ZEFSAII (Michael W. Deem and Ramdas Pophale) SiO2 
 PCOD9493443
Probable space group: C M M M
;
_chemical_formula_sum "Si O2"
_cell_formula_units_Z 72
_cell_length_a 14.413863
_cell_length_b 30.465390
_cell_length_c 8.006859
_cell_angle_alpha 90.000000
_cell_angle_beta 90.000000
_cell_angle_gamma 90.000000
_cell_volume 3516.003613
_symmetry_space_group_name_H-M "C M M M"
_symmetry_group_IT_number 65
_symmetry_cell_setting 'orthorhombic'
loop_
_space_group_symop_operation_xyz
x,y,z
-x,-y,z
x,-y,-z
-x,y,-z
-x,-y,-z
x,y,-z
-x,y,z
x,-y,z
1/2+x,1/2+y,z
1/2-x,1/2-y,z
1/2+x,1/2-y,-z
1/2-x,1/2+y,-z
1/2-x,1/2-y,-z
1/2+x,1/2+y,-z
1/2-x,1/2+y,z
1/2+x,1/2-y,z
loop_
_atom_site_type_symbol
_atom_site_label
_atom_site_fract_x
_atom_site_fract_y
_atom_site_fract_z
Si Si1 0.397625 0.500000 0.696741
Si Si2 0.895401 0.551461 0.298415
Si Si3 0.294175 0.412454 0.805778
Si Si4 0.604310 0.771824 0.796352
Si Si5 0.206320 0.183476 0.795548
O O1 0.500000 0.500000 0.775696
O O2 0.406927 0.500000 0.500000
O O3 0.343170 0.455690 0.738085
O O4 0.888224 0.553966 0.500000
O O5 0.881935 0.500000 0.253567
O O6 0.815524 0.580242 0.218774
O O7 0.000000 0.563941 0.250336
O O8 0.319766 0.364873 0.733615
O O9 0.316651 0.411206 0.000000
O O10 0.500000 0.781905 0.738307
O O11 0.688821 0.803398 0.743749
O O12 0.637449 0.722784 0.747349
O O13 0.602984 0.772852 0.000000
O O14 0.206664 0.182740 0.000000
#
# Coordination Sequence:
#
# PCOD9493443 Si02
#       5
#     8  16  16  16  16
#     4  11  25  43  58  71  96 141 189 222 254 307
#     4   9  18  33  52  72  99 139 180 212 249 307
#     4  11  21  33  53  82 112 136 167 222 276 308
#     4   8  13  25  44  64  96 140 171 194 238 307
#     4   8  16  27  41  70 105 133 165 203 251 309
#
# _framework density 20.477793999999999
#
# number of rings (size 3 to 8) (size 9 to 14) (size 15 to 20)
#    0.000    2.778    1.111    3.000    0.000    3.111 
#    0.000    5.556    0.000    0.000    0.000   12.444 
#    0.000   21.333    0.000    0.000    0.000    0.000 
#
# Total GULP energy -200774.973948 kJ/mol
# GULP energy per Si atom -5577.082610 kJ/mol
# Density = 2.043119 g / cm^3
# Si number density = 20.477794 Si / 1000 Ang^3
#
#
#
# Elastic Constant Matrix: (Units=GPa)
#
#
# Indices 1 2 3 4 5 6 
#
# 1 68.3247 20.5226 2.0817 0.0000 0.0000 0.0000
# 2 20.5226 120.3677 13.8787 0.0000 0.0000 0.0000
# 3 2.0817 13.8787 14.4641 0.0000 0.0000 0.0000
# 4 0.0000 0.0000 0.0000 -48.0319 0.0000 0.0000
# 5 0.0000 0.0000 0.0000 0.0000 23.1058 0.0000
# 6 0.0000 0.0000 0.0000 0.0000 0.0000 4.9343
#
#
#
# Elastic Compliance Matrix: (Units=1/GPa)
#
#
# Indices 1 2 3 4 5 6 
#
# 1 0.015427 -0.002670 0.000341 0.000000 0.000000 0.000000
# 2 -0.002670 0.009803 -0.009022 0.000000 0.000000 0.000000
# 3 0.000341 -0.009022 0.077745 0.000000 0.000000 0.000000
# 4 0.000000 0.000000 0.000000 -0.020820 0.000000 0.000000
# 5 0.000000 0.000000 0.000000 0.000000 0.043279 0.000000
# 6 0.000000 0.000000 0.000000 0.000000 0.000000 0.202663
#
#
# Mechanical properties :
#
#
# Convention : Reuss Voigt Hill
#
# Bulk Modulus (GPa) = 12.45734 30.68028 21.56881
# Shear Modulus (GPa) = 13.24302 7.11323 10.17813
#
# Velocity S-wave (km/s) = 2.54579 1.86579 2.23184
# Velocity P-wave (km/s) = 3.83900 4.43354 4.14694
#
# Compressibility (1/GPa) = 0.08027394
#
# Stress axis : x y z
#
# Youngs Moduli (GPa) = 64.81935 102.00593 12.86262
#
# Poissons Ratio (x) = 0.27233 -0.00439
# Poissons Ratio (y) = 0.17305 0.11605
# Poissons Ratio (z) = -0.02212 0.92033
#
# Static dielectric constant tensor:
#      x y z
#    x 1.734360 0.000000 0.000000 
#    y 0.000000 1.762630 0.000000 
#    z 0.000000 0.000000 1.722530 
# 
# From -- ./inp_files/7655.got.cif
#   From: 2010.05.17/outbox.cif.g08.bks.cpg/sg65_4_cif.got.tgz:7655.got - 2010.06.03 17:01:31.
