data_PCOD9493864
_publ_section_title
;
Structure prediction by ZEFSAII (Michael W. Deem and Ramdas Pophale) SiO2 
 PCOD9493864
Probable space group: C M M M
;
_chemical_formula_sum "Si O2"
_cell_formula_units_Z 48
_cell_length_a 25.471423
_cell_length_b 9.899220
_cell_length_c 10.254133
_cell_angle_alpha 90.000000
_cell_angle_beta 90.000000
_cell_angle_gamma 90.000000
_cell_volume 2585.551129
_symmetry_space_group_name_H-M "C M M M"
_symmetry_group_IT_number 65
_symmetry_cell_setting 'orthorhombic'
loop_
_space_group_symop_operation_xyz
x,y,z
-x,-y,z
x,-y,-z
-x,y,-z
-x,-y,-z
x,y,-z
-x,y,z
x,-y,z
1/2+x,1/2+y,z
1/2-x,1/2-y,z
1/2+x,1/2-y,-z
1/2-x,1/2+y,-z
1/2-x,1/2-y,-z
1/2+x,1/2+y,-z
1/2-x,1/2+y,z
1/2+x,1/2-y,z
loop_
_atom_site_type_symbol
_atom_site_label
_atom_site_fract_x
_atom_site_fract_y
_atom_site_fract_z
Si Si1 0.804690 0.668079 0.000000
Si Si2 0.063124 0.000000 0.341616
Si Si3 0.626748 0.763168 0.253641
Si Si4 0.438422 0.000000 0.850208
Si Si5 0.197819 0.659718 0.500000
O O1 0.750000 0.750000 0.000000
O O2 0.836458 0.720943 0.126447
O O3 0.799089 0.500000 0.000000
O O4 0.095448 0.873432 0.284067
O O5 0.066873 0.000000 0.500000
O O6 0.000000 0.000000 0.310101
O O7 0.582167 0.872427 0.226819
O O8 0.663064 0.803553 0.374719
O O9 0.500000 0.000000 0.857386
O O10 0.418015 0.000000 0.000000
O O11 0.210371 0.500000 0.500000
O O12 0.250000 0.750000 0.500000
#
# Coordination Sequence:
#
# PCOD9493864 Si02
#       5
#     8   8  16   8   8
#     4  12  26  46  71 102 136 180 229 282 341 406
#     4  11  26  45  68 102 139 180 227 281 342 399
#     4  12  23  46  67  99 137 174 226 280 337 401
#     4  11  22  43  72 100 133 174 219 281 342 401
#     4  12  26  42  69  98 130 178 229 278 339 402
#
# _framework density 18.564706000000001
#
# number of rings (size 3 to 8) (size 9 to 14) (size 15 to 20)
#    0.000    0.333    6.667    2.000    4.667    0.000 
#    0.000    1.667    0.000    0.000    0.000    0.000 
#    0.000    0.000    0.000    0.000    0.000    0.000 
#
# Total GULP energy -133964.117203 kJ/mol
# GULP energy per Si atom -5581.838217 kJ/mol
# Density = 1.852245 g / cm^3
# Si number density = 18.564706 Si / 1000 Ang^3
#
#
#
# Elastic Constant Matrix: (Units=GPa)
#
#
# Indices 1 2 3 4 5 6 
#
# 1 165.6844 108.4597 81.2187 0.0000 0.0000 0.0000
# 2 108.4597 227.7834 78.9627 0.0000 0.0000 0.0000
# 3 81.2187 78.9627 167.9950 0.0000 0.0000 0.0000
# 4 0.0000 0.0000 0.0000 24.6614 0.0000 0.0000
# 5 0.0000 0.0000 0.0000 0.0000 58.9496 0.0000
# 6 0.0000 0.0000 0.0000 0.0000 0.0000 49.4869
#
#
#
# Elastic Compliance Matrix: (Units=1/GPa)
#
#
# Indices 1 2 3 4 5 6 
#
# 1 0.009949 -0.003667 -0.003086 0.000000 0.000000 0.000000
# 2 -0.003667 0.006597 -0.001328 0.000000 0.000000 0.000000
# 3 -0.003086 -0.001328 0.008069 0.000000 0.000000 0.000000
# 4 0.000000 0.000000 0.000000 0.040549 0.000000 0.000000
# 5 0.000000 0.000000 0.000000 0.000000 0.016964 0.000000
# 6 0.000000 0.000000 0.000000 0.000000 0.000000 0.020207
#
#
# Mechanical properties :
#
#
# Convention : Reuss Voigt Hill
#
# Bulk Modulus (GPa) = 118.31551 122.08276 120.19914
# Shear Modulus (GPa) = 41.21519 46.14104 43.67811
#
# Velocity S-wave (km/s) = 4.71689 4.99080 4.85578
# Velocity P-wave (km/s) = 9.67136 9.95562 9.81452
#
# Compressibility (1/GPa) = 0.00845198
#
# Stress axis : x y z
#
# Youngs Moduli (GPa) = 100.51016 151.59278 123.93734
#
# Poissons Ratio (x) = 0.55597 0.38250
# Poissons Ratio (y) = 0.36862 0.16453
# Poissons Ratio (z) = 0.31020 0.20124
#
# Static dielectric constant tensor:
#      x y z
#    x 1.626550 0.000000 0.000000 
#    y 0.000000 1.661080 0.000000 
#    z 0.000000 0.000000 1.639850 
# 
# From -- ./inp_files/3156.got.cif
#   From: 2010.05.17/outbox.cif.g08.bks.cpg/sg65_2_cif.got.tgz:3156.got - 2010.06.03 17:01:31.
