data_PCOD9493541
_publ_section_title
;
Structure prediction by ZEFSAII (Michael W. Deem and Ramdas Pophale) SiO2 
 PCOD9493541
Probable space group: C M M M
;
_chemical_formula_sum "Si O2"
_cell_formula_units_Z 56
_cell_length_a 13.089602
_cell_length_b 31.639350
_cell_length_c 7.769504
_cell_angle_alpha 90.000000
_cell_angle_beta 90.000000
_cell_angle_gamma 90.000000
_cell_volume 3217.712881
_symmetry_space_group_name_H-M "C M M M"
_symmetry_group_IT_number 65
_symmetry_cell_setting 'orthorhombic'
loop_
_space_group_symop_operation_xyz
x,y,z
-x,-y,z
x,-y,-z
-x,y,-z
-x,-y,-z
x,y,-z
-x,y,z
x,-y,z
1/2+x,1/2+y,z
1/2-x,1/2-y,z
1/2+x,1/2-y,-z
1/2-x,1/2+y,-z
1/2-x,1/2-y,-z
1/2+x,1/2+y,-z
1/2-x,1/2+y,z
1/2+x,1/2-y,z
loop_
_atom_site_type_symbol
_atom_site_label
_atom_site_fract_x
_atom_site_fract_y
_atom_site_fract_z
Si Si1 0.321156 0.388989 0.802404
Si Si2 0.000000 0.729780 0.793665
Si Si3 0.623085 0.450465 0.500000
Si Si4 0.887739 0.650857 0.296621
Si Si5 0.500000 0.325399 0.208479
O O1 0.334117 0.427055 0.668991
O O2 0.207967 0.369648 0.794405
O O3 0.400543 0.352495 0.744430
O O4 0.345888 0.400764 0.000000
O O5 0.096239 0.701062 0.735500
O O6 0.000000 0.777389 0.726681
O O7 0.000000 0.730436 0.000000
O O8 0.647751 0.500000 0.500000
O O9 0.500000 0.445927 0.500000
O O10 0.876276 0.643992 0.500000
O O11 0.000000 0.633657 0.242363
O O12 0.500000 0.322640 0.000000
#
# Coordination Sequence:
#
# PCOD9493541 Si02
#       5
#    16   8   8  16   8
#     4  11  21  38  61  85 116 153 190 234 287 340
#     4   9  17  33  51  79 116 156 200 235 276 325
#     4  11  24  42  63  90 118 144 180 231 291 355
#     4   9  19  35  52  81 115 155 199 235 276 330
#     4   9  20  34  52  81 117 153 195 240 279 328
#
# _framework density 17.403666000000001
#
# number of rings (size 3 to 8) (size 9 to 14) (size 15 to 20)
#    0.857    1.286    2.857    0.857    0.000    1.714 
#    5.143    7.143    0.000    1.714    0.000    2.000 
#    0.000    0.000    0.000    0.000    0.000    0.000 
#
# Total GULP energy -155951.199091 kJ/mol
# GULP energy per Si atom -5569.685682 kJ/mol
# Density = 1.736405 g / cm^3
# Si number density = 17.403666 Si / 1000 Ang^3
#
#
#
# Elastic Constant Matrix: (Units=GPa)
#
#
# Indices 1 2 3 4 5 6 
#
# 1 103.9719 52.2730 26.8345 0.0000 0.0000 0.0000
# 2 52.2730 131.9931 48.3195 0.0000 0.0000 0.0000
# 3 26.8345 48.3195 80.4907 0.0000 0.0000 0.0000
# 4 0.0000 0.0000 0.0000 36.9431 0.0000 0.0000
# 5 0.0000 0.0000 0.0000 0.0000 23.8916 0.0000
# 6 0.0000 0.0000 0.0000 0.0000 0.0000 198.5126
#
#
#
# Elastic Compliance Matrix: (Units=1/GPa)
#
#
# Indices 1 2 3 4 5 6 
#
# 1 0.012147 -0.004265 -0.001489 0.000000 0.000000 0.000000
# 2 -0.004265 0.011208 -0.005306 0.000000 0.000000 0.000000
# 3 -0.001489 -0.005306 0.016106 0.000000 0.000000 0.000000
# 4 0.000000 0.000000 0.000000 0.027069 0.000000 0.000000
# 5 0.000000 0.000000 0.000000 0.000000 0.041856 0.000000
# 6 0.000000 0.000000 0.000000 0.000000 0.000000 0.005037
#
#
# Mechanical properties :
#
#
# Convention : Reuss Voigt Hill
#
# Bulk Modulus (GPa) = 57.67329 63.47884 60.57607
# Shear Modulus (GPa) = 35.38003 64.47139 49.92571
#
# Velocity S-wave (km/s) = 4.51367 6.09304 5.36183
# Velocity P-wave (km/s) = 7.77012 9.27652 8.55653
#
# Compressibility (1/GPa) = 0.01733905
#
# Stress axis : x y z
#
# Youngs Moduli (GPa) = 82.32657 89.22343 62.09032
#
# Poissons Ratio (x) = 0.38057 0.09245
# Poissons Ratio (y) = 0.35115 0.32946
# Poissons Ratio (z) = 0.12258 0.47344
#
# Static dielectric constant tensor:
#      x y z
#    x 1.593790 0.000000 0.000000 
#    y 0.000000 1.573260 0.000000 
#    z 0.000000 0.000000 1.619610 
# 
# From -- ./inp_files/4509.got.cif
#   From: 2010.05.17/outbox.cif.g08.bks.cpg/sg65_3_cif.got.tgz:4509.got - 2010.06.03 17:01:31.
