data_PCOD9493224
_publ_section_title
;
Structure prediction by ZEFSAII (Michael W. Deem and Ramdas Pophale) SiO2 
 PCOD9493224
Probable space group: C M M M
;
_chemical_formula_sum "Si O2"
_cell_formula_units_Z 90
_cell_length_a 21.051455
_cell_length_b 18.260329
_cell_length_c 11.645234
_cell_angle_alpha 90.000000
_cell_angle_beta 90.000000
_cell_angle_gamma 90.000000
_cell_volume 4476.503576
_symmetry_space_group_name_H-M "C M M M"
_symmetry_group_IT_number 65
_symmetry_cell_setting 'orthorhombic'
loop_
_space_group_symop_operation_xyz
x,y,z
-x,-y,z
x,-y,-z
-x,y,-z
-x,-y,-z
x,y,-z
-x,y,z
x,-y,z
1/2+x,1/2+y,z
1/2-x,1/2-y,z
1/2+x,1/2-y,-z
1/2-x,1/2+y,-z
1/2-x,1/2-y,-z
1/2+x,1/2+y,-z
1/2-x,1/2+y,z
1/2+x,1/2-y,z
loop_
_atom_site_type_symbol
_atom_site_label
_atom_site_fract_x
_atom_site_fract_y
_atom_site_fract_z
Si Si1 0.876648 0.182612 0.269662
Si Si2 0.571629 0.079792 0.860999
Si Si3 0.820442 0.688396 0.863725
Si Si4 0.576066 0.758611 0.500000
Si Si5 0.500000 0.500000 0.000000
Si Si6 0.789637 0.328334 0.500000
Si Si7 0.500000 0.347405 0.122991
Si Si8 0.237051 0.913221 0.721640
O O1 0.825617 0.239790 0.214708
O O2 0.905981 0.211834 0.387560
O O3 0.836960 0.108389 0.283912
O O4 0.935686 0.173570 0.185756
O O5 0.500000 0.088169 0.819500
O O6 0.614743 0.146897 0.830390
O O7 0.596032 0.000000 0.822837
O O8 0.570374 0.078022 0.000000
O O9 0.768134 0.627905 0.830975
O O10 0.818104 0.705291 0.000000
O O11 0.500000 0.778056 0.500000
O O12 0.633872 0.817962 0.500000
O O13 0.500000 0.565974 0.903058
O O14 0.750000 0.250000 0.500000
O O15 0.768947 0.373968 0.611751
O O16 0.500000 0.307689 0.000000
O O17 0.246631 0.000000 0.723869
#
# Coordination Sequence:
#
# PCOD9493224 Si02
#       8
#    16  16  16   8   2   8   8  16
#     4  12  24  43  70 101 137 179 238 293 351 414
#     4   8  15  29  50  76 114 162 209 265 332 392
#     4  11  23  39  61  95 136 177 232 288 340 410
#     4  12  24  44  76 108 136 170 224 302 358 406
#     4   8  24  48  68  94 156 204 222 280 364 428
#     4  12  21  48  73  99 139 177 227 298 365 419
#     4  10  24  43  69 101 142 193 230 279 355 428
#     4  12  26  42  69  98 133 187 233 286 353 429
#
# _framework density 20.104976000000001
#
# number of rings (size 3 to 8) (size 9 to 14) (size 15 to 20)
#    0.267    0.889    4.444    2.400    2.489    3.200 
#    0.000    0.000    0.000    2.133    0.000    0.000 
#    0.000    0.000    0.000    0.000    0.000    0.000 
#
# Total GULP energy -250833.023912 kJ/mol
# GULP energy per Si atom -5574.067198 kJ/mol
# Density = 2.005922 g / cm^3
# Si number density = 20.104976 Si / 1000 Ang^3
#
#
#
# Elastic Constant Matrix: (Units=GPa)
#
#
# Indices 1 2 3 4 5 6 
#
# 1 122.5767 44.0589 31.2591 0.0000 0.0000 0.0000
# 2 44.0589 120.7339 26.0216 0.0000 0.0000 0.0000
# 3 31.2591 26.0216 107.5093 0.0000 0.0000 0.0000
# 4 0.0000 0.0000 0.0000 18.1275 0.0000 0.0000
# 5 0.0000 0.0000 0.0000 0.0000 5.1591 0.0000
# 6 0.0000 0.0000 0.0000 0.0000 0.0000 24.7233
#
#
#
# Elastic Compliance Matrix: (Units=1/GPa)
#
#
# Indices 1 2 3 4 5 6 
#
# 1 0.009818 -0.003131 -0.002097 0.000000 0.000000 0.000000
# 2 -0.003131 0.009737 -0.001446 0.000000 0.000000 0.000000
# 3 -0.002097 -0.001446 0.010261 0.000000 0.000000 0.000000
# 4 0.000000 0.000000 0.000000 0.055165 0.000000 0.000000
# 5 0.000000 0.000000 0.000000 0.000000 0.193831 0.000000
# 6 0.000000 0.000000 0.000000 0.000000 0.000000 0.040448
#
#
# Mechanical properties :
#
#
# Convention : Reuss Voigt Hill
#
# Bulk Modulus (GPa) = 60.72383 61.49989 61.11186
# Shear Modulus (GPa) = 14.78859 26.23400 20.51130
#
# Velocity S-wave (km/s) = 2.71508 3.61619 3.19754
# Velocity P-wave (km/s) = 6.33228 6.93481 6.64038
#
# Compressibility (1/GPa) = 0.01646800
#
# Stress axis : x y z
#
# Youngs Moduli (GPa) = 101.85042 102.70103 97.45353
#
# Poissons Ratio (x) = 0.32156 0.20435
# Poissons Ratio (y) = 0.31890 0.14095
# Poissons Ratio (z) = 0.21357 0.14854
#
# Static dielectric constant tensor:
#      x y z
#    x 1.749630 0.000000 0.000000 
#    y 0.000000 1.725370 0.000000 
#    z 0.000000 0.000000 1.718490 
# 
# From -- ./inp_files/28816.got.cif
#   From: 2010.05.17/outbox.cif.g08.bks.cpg/sg65_15_cif.got.tgz:28816.got - 2010.06.03 17:01:31.
