data_PCOD9493203
_publ_section_title
;
Structure prediction by ZEFSAII (Michael W. Deem and Ramdas Pophale) SiO2 
 PCOD9493203
Probable space group: C M M M
;
_chemical_formula_sum "Si O2"
_cell_formula_units_Z 58
_cell_length_a 13.907321
_cell_length_b 25.462974
_cell_length_c 8.743670
_cell_angle_alpha 90.000000
_cell_angle_beta 90.000000
_cell_angle_gamma 90.000000
_cell_volume 3096.323748
_symmetry_space_group_name_H-M "C M M M"
_symmetry_group_IT_number 65
_symmetry_cell_setting 'orthorhombic'
loop_
_space_group_symop_operation_xyz
x,y,z
-x,-y,z
x,-y,-z
-x,y,-z
-x,-y,-z
x,y,-z
-x,y,z
x,-y,z
1/2+x,1/2+y,z
1/2-x,1/2-y,z
1/2+x,1/2-y,-z
1/2-x,1/2+y,-z
1/2-x,1/2-y,-z
1/2+x,1/2+y,-z
1/2-x,1/2+y,z
1/2+x,1/2-y,z
loop_
_atom_site_type_symbol
_atom_site_label
_atom_site_fract_x
_atom_site_fract_y
_atom_site_fract_z
Si Si1 0.000000 0.130892 0.683103
Si Si2 0.817671 0.300806 0.674496
Si Si3 0.000000 0.500000 0.500000
Si Si4 0.798529 0.500000 0.669961
Si Si5 0.000000 0.751764 0.180017
Si Si6 0.795841 0.101725 0.182857
O O1 0.096383 0.104796 0.749851
O O2 0.000000 0.128244 0.500000
O O3 0.000000 0.192359 0.733003
O O4 0.844723 0.315534 0.500000
O O5 0.750000 0.250000 0.666604
O O6 0.908728 0.282272 0.770320
O O7 0.760371 0.347672 0.753047
O O8 0.912627 0.500000 0.631610
O O9 0.752177 0.500000 0.500000
O O10 0.761694 0.551047 0.758482
O O11 0.000000 0.762565 0.000000
O O12 0.800174 0.103043 0.000000
#
# Coordination Sequence:
#
# PCOD9493203 Si02
#       6
#     8  16   2   8   8  16
#     4  12  24  41  66  99 138 185 225 268 337 415
#     4  11  23  40  64  93 132 183 230 274 332 408
#     4   8  24  48  82  94 128 176 226 280 320 392
#     4  10  23  48  74 100 129 177 222 273 331 404
#     4  12  24  39  62  95 134 176 227 285 345 398
#     4  12  25  43  69 102 140 175 224 286 342 397
#
# _framework density 18.731891000000001
#
# number of rings (size 3 to 8) (size 9 to 14) (size 15 to 20)
#    0.414    0.276    2.759    6.207    0.000    2.759 
#    0.000    5.517    0.000    0.000    0.000    0.000 
#    0.000    0.000    0.000    0.000    0.000    0.000 
#
# Total GULP energy -161833.481109 kJ/mol
# GULP energy per Si atom -5580.464866 kJ/mol
# Density = 1.868926 g / cm^3
# Si number density = 18.731891 Si / 1000 Ang^3
#
#
#
# Elastic Constant Matrix: (Units=GPa)
#
#
# Indices 1 2 3 4 5 6 
#
# 1 140.1137 69.8036 40.5228 0.0000 0.0000 0.0000
# 2 69.8036 128.4044 64.2091 0.0000 0.0000 0.0000
# 3 40.5228 64.2091 173.7613 0.0000 0.0000 0.0000
# 4 0.0000 0.0000 0.0000 38.3738 0.0000 0.0000
# 5 0.0000 0.0000 0.0000 0.0000 19.7873 0.0000
# 6 0.0000 0.0000 0.0000 0.0000 0.0000 157.6529
#
#
#
# Elastic Compliance Matrix: (Units=1/GPa)
#
#
# Indices 1 2 3 4 5 6 
#
# 1 0.009809 -0.005138 -0.000389 0.000000 0.000000 0.000000
# 2 -0.005138 0.012244 -0.003326 0.000000 0.000000 0.000000
# 3 -0.000389 -0.003326 0.007075 0.000000 0.000000 0.000000
# 4 0.000000 0.000000 0.000000 0.026059 0.000000 0.000000
# 5 0.000000 0.000000 0.000000 0.000000 0.050537 0.000000
# 6 0.000000 0.000000 0.000000 0.000000 0.000000 0.006343
#
#
# Mechanical properties :
#
#
# Convention : Reuss Voigt Hill
#
# Bulk Modulus (GPa) = 87.55175 87.92783 87.73979
# Shear Modulus (GPa) = 37.43002 61.01238 49.22120
#
# Velocity S-wave (km/s) = 4.47497 5.71333 5.13164
# Velocity P-wave (km/s) = 8.57563 9.51656 9.05832
#
# Compressibility (1/GPa) = 0.01142182
#
# Stress axis : x y z
#
# Youngs Moduli (GPa) = 101.94403 81.66982 141.34441
#
# Poissons Ratio (x) = 0.41962 0.05498
# Poissons Ratio (y) = 0.52379 0.47016
# Poissons Ratio (z) = 0.03965 0.27166
#
# Static dielectric constant tensor:
#      x y z
#    x 1.592550 0.000000 0.000000 
#    y 0.000000 1.657090 0.000000 
#    z 0.000000 0.000000 1.638760 
# 
# From -- ./inp_files/6633.got.cif
#   From: 2010.05.17/outbox.cif.g08.bks.cpg/sg65_4_cif.got.tgz:6633.got - 2010.06.03 17:01:31.
