data_PCOD9493686
_publ_section_title
;
Structure prediction by ZEFSAII (Michael W. Deem and Ramdas Pophale) SiO2 
 PCOD9493686
Probable space group: C M M M
;
_chemical_formula_sum "Si O2"
_cell_formula_units_Z 88
_cell_length_a 8.479889
_cell_length_b 20.127136
_cell_length_c 30.122129
_cell_angle_alpha 90.000000
_cell_angle_beta 90.000000
_cell_angle_gamma 90.000000
_cell_volume 5141.120849
_symmetry_space_group_name_H-M "C M M M"
_symmetry_group_IT_number 65
_symmetry_cell_setting 'orthorhombic'
loop_
_space_group_symop_operation_xyz
x,y,z
-x,-y,z
x,-y,-z
-x,y,-z
-x,-y,-z
x,y,-z
-x,y,z
x,-y,z
1/2+x,1/2+y,z
1/2-x,1/2-y,z
1/2+x,1/2-y,-z
1/2-x,1/2+y,-z
1/2-x,1/2-y,-z
1/2+x,1/2+y,-z
1/2-x,1/2+y,z
1/2+x,1/2-y,z
loop_
_atom_site_type_symbol
_atom_site_label
_atom_site_fract_x
_atom_site_fract_y
_atom_site_fract_z
Si Si1 0.313764 0.176156 0.221538
Si Si2 0.312074 0.423698 0.705553
Si Si3 0.500000 0.919114 0.448238
Si Si4 0.819492 0.080590 0.397932
Si Si5 0.313142 0.675567 0.875043
Si Si6 0.690345 0.923441 0.949571
O O1 0.500000 0.180330 0.216905
O O2 0.250000 0.250000 0.231277
O O3 0.268121 0.125645 0.260233
O O4 0.244363 0.154717 0.173951
O O5 0.500000 0.422841 0.713601
O O6 0.256758 0.500000 0.710805
O O7 0.290529 0.404166 0.654006
O O8 0.500000 0.901083 0.500000
O O9 0.334549 0.896883 0.425540
O O10 0.500000 0.000000 0.445263
O O11 0.000000 0.102949 0.409912
O O12 0.824008 0.000000 0.401366
O O13 0.500000 0.677885 0.874896
O O14 0.250000 0.750000 0.882921
O O15 0.254930 0.625897 0.912839
O O16 0.500000 0.921402 0.948403
O O17 0.738064 0.000000 0.941289
O O18 0.739384 0.905889 0.000000
#
# Coordination Sequence:
#
# PCOD9493686 Si02
#       6
#    16  16   8  16  16  16
#     4  11  22  36  54  75 103 137 170 213 261 308
#     4   9  18  33  52  74 101 135 173 213 258 308
#     4   9  16  24  38  62  94 132 172 212 254 310
#     4   8  15  27  42  62  93 131 167 210 259 305
#     4  11  22  37  56  76 103 136 171 210 255 307
#     4   9  19  37  59  81 106 135 168 210 256 301
#
# _framework density 17.116890000000001
#
# number of rings (size 3 to 8) (size 9 to 14) (size 15 to 20)
#    0.000    2.455    0.000    6.000    1.273    2.545 
#    0.000    2.727    0.000    0.000    0.000    0.000 
#    0.000    0.727    0.364    0.000    0.000    0.000 
#
# Total GULP energy -245306.550284 kJ/mol
# GULP energy per Si atom -5575.148870 kJ/mol
# Density = 1.707793 g / cm^3
# Si number density = 17.116890 Si / 1000 Ang^3
#
#
#
# Elastic Constant Matrix: (Units=GPa)
#
#
# Indices 1 2 3 4 5 6 
#
# 1 124.7154 42.4230 82.9941 0.0000 0.0000 0.0000
# 2 42.4230 40.1191 58.0064 0.0000 0.0000 0.0000
# 3 82.9941 58.0064 116.4503 0.0000 0.0000 0.0000
# 4 0.0000 0.0000 0.0000 -24.8816 0.0000 0.0000
# 5 0.0000 0.0000 0.0000 0.0000 26.4097 0.0000
# 6 0.0000 0.0000 0.0000 0.0000 0.0000 18.0984
#
#
#
# Elastic Compliance Matrix: (Units=1/GPa)
#
#
# Indices 1 2 3 4 5 6 
#
# 1 0.015276 -0.001472 -0.010154 0.000000 0.000000 0.000000
# 2 -0.001472 0.089230 -0.043398 0.000000 0.000000 0.000000
# 3 -0.010154 -0.043398 0.037442 0.000000 0.000000 0.000000
# 4 0.000000 0.000000 0.000000 -0.040190 0.000000 0.000000
# 5 0.000000 0.000000 0.000000 0.000000 0.037865 0.000000
# 6 0.000000 0.000000 0.000000 0.000000 0.000000 0.055254
#
#
# Mechanical properties :
#
#
# Convention : Reuss Voigt Hill
#
# Bulk Modulus (GPa) = 31.34884 72.01464 51.68174
# Shear Modulus (GPa) = 15.84498 10.44938 13.14718
#
# Velocity S-wave (km/s) = 3.04582 2.47345 2.77444
# Velocity P-wave (km/s) = 5.54289 7.09372 6.36571
#
# Compressibility (1/GPa) = 0.03189911
#
# Stress axis : x y z
#
# Youngs Moduli (GPa) = 65.46122 11.20700 26.70829
#
# Poissons Ratio (x) = 0.01650 0.27119
# Poissons Ratio (y) = 0.09638 1.15909
# Poissons Ratio (z) = 0.66469 0.48636
#
# Static dielectric constant tensor:
#      x y z
#    x 1.587680 0.000000 0.000000 
#    y 0.000000 1.555660 0.000000 
#    z 0.000000 0.000000 1.569500 
# 
# From -- ./inp_files/76485.got.cif
#   From: 2010.05.17/outbox.cif.g08.bks.cpg/sg65_39_cif.got.tgz:76485.got - 2010.06.03 17:01:31.
