data_PCOD9493855
_publ_section_title
;
Structure prediction by ZEFSAII (Michael W. Deem and Ramdas Pophale) SiO2 
 PCOD9493855
Probable space group: C M M M
;
_chemical_formula_sum "Si O2"
_cell_formula_units_Z 88
_cell_length_a 17.906793
_cell_length_b 7.387267
_cell_length_c 32.350805
_cell_angle_alpha 90.000000
_cell_angle_beta 90.000000
_cell_angle_gamma 90.000000
_cell_volume 4279.437631
_symmetry_space_group_name_H-M "C M M M"
_symmetry_group_IT_number 65
_symmetry_cell_setting 'orthorhombic'
loop_
_space_group_symop_operation_xyz
x,y,z
-x,-y,z
x,-y,-z
-x,y,-z
-x,-y,-z
x,y,-z
-x,y,z
x,-y,z
1/2+x,1/2+y,z
1/2-x,1/2-y,z
1/2+x,1/2-y,-z
1/2-x,1/2+y,-z
1/2-x,1/2-y,-z
1/2+x,1/2+y,-z
1/2-x,1/2+y,z
1/2+x,1/2-y,z
loop_
_atom_site_type_symbol
_atom_site_label
_atom_site_fract_x
_atom_site_fract_y
_atom_site_fract_z
Si Si1 0.339414 0.283519 0.633513
Si Si2 0.338636 0.283384 0.723234
Si Si3 0.837918 0.213773 0.892606
Si Si4 0.339569 0.716742 0.455477
Si Si5 0.410690 0.000000 0.952004
Si Si6 0.585725 0.279488 0.807221
O O1 0.350961 0.500000 0.633304
O O2 0.250000 0.250000 0.633604
O O3 0.365638 0.214276 0.678248
O O4 0.367956 0.214104 0.589037
O O5 0.349141 0.500000 0.722397
O O6 0.250000 0.250000 0.726734
O O7 0.379384 0.214662 0.764084
O O8 0.750000 0.250000 0.894669
O O9 0.878754 0.327038 0.927882
O O10 0.868032 0.273806 0.847636
O O11 0.852239 0.000000 0.897019
O O12 0.367917 0.785796 0.500000
O O13 0.350508 0.500000 0.455512
O O14 0.250000 0.750000 0.455445
O O15 0.500000 0.000000 0.949692
O O16 0.388205 0.000000 0.000000
O O17 0.500000 0.223535 0.811273
O O18 0.587313 0.500000 0.806191
#
# Coordination Sequence:
#
# PCOD9493855 Si02
#       6
#    16  16  16  16   8  16
#     4   8  13  20  31  48  71 102 140 181 232 289
#     4   9  16  27  43  63  89 121 157 201 248 306
#     4  11  22  41  66  95 125 163 205 252 300 352
#     4   8  12  17  25  39  62  93 130 173 222 281
#     4  11  26  46  68  98 133 167 207 253 301 353
#     4   9  18  32  52  76 105 139 176 220 273 330
#
# _framework density 20.563448999999999
#
# number of rings (size 3 to 8) (size 9 to 14) (size 15 to 20)
#    0.000    2.818    0.909    1.091    0.000    1.818 
#    1.636    0.909    0.000    0.000    0.000    0.000 
#    0.000    0.727    0.000   10.182    0.000    3.455 
#
# Total GULP energy -245288.812797 kJ/mol
# GULP energy per Si atom -5574.745745 kJ/mol
# Density = 2.051665 g / cm^3
# Si number density = 20.563449 Si / 1000 Ang^3
#
#
#
# Elastic Constant Matrix: (Units=GPa)
#
#
# Indices 1 2 3 4 5 6 
#
# 1 53.7536 9.1815 65.3010 0.0000 0.0000 0.0000
# 2 9.1815 96.1610 47.5970 0.0000 0.0000 0.0000
# 3 65.3010 47.5970 257.8865 0.0000 0.0000 0.0000
# 4 0.0000 0.0000 0.0000-3342.2252 0.0000 0.0000
# 5 0.0000 0.0000 0.0000 0.0000 -91.1218 0.0000
# 6 0.0000 0.0000 0.0000 0.0000 0.0000 -1.1865
#
#
#
# Elastic Compliance Matrix: (Units=1/GPa)
#
#
# Indices 1 2 3 4 5 6 
#
# 1 0.026937 0.000885 -0.006984 0.000000 0.000000 0.000000
# 2 0.000885 0.011474 -0.002342 0.000000 0.000000 0.000000
# 3 -0.006984 -0.002342 0.006078 0.000000 0.000000 0.000000
# 4 0.000000 0.000000 0.000000 -0.000299 0.000000 0.000000
# 5 0.000000 0.000000 0.000000 0.000000 -0.010974 0.000000
# 6 0.000000 0.000000 0.000000 0.000000 0.000000 -0.842799
#
#
# Mechanical properties :
#
#
# Convention : Reuss Voigt Hill
#
# Bulk Modulus (GPa) = 36.22253 72.43999 54.33126
# Shear Modulus (GPa) = -6.38163 -667.85859 -337.12011
#
# Velocity S-wave (km/s) = -1.76355 -18.04119 -12.81785
# Velocity P-wave (km/s) = 3.67511 19.96686 13.87748
#
# Compressibility (1/GPa) = 0.02760712
#
# Stress axis : x y z
#
# Youngs Moduli (GPa) = 37.12406 87.15485 164.51742
#
# Poissons Ratio (x) = -0.07713 1.14901
# Poissons Ratio (y) = -0.03286 0.38526
# Poissons Ratio (z) = 0.25928 0.20410
#
# Static dielectric constant tensor:
#      x y z
#    x 1.678690 0.000000 0.000000 
#    y 0.000000 1.733390 0.000000 
#    z 0.000000 0.000000 1.782010 
# 
# From -- ./inp_files/77867.got.cif
#   From: 2010.05.17/outbox.cif.g08.bks.cpg/sg65_39_cif.got.tgz:77867.got - 2010.06.03 17:01:31.
