data_PCOD9493026
_publ_section_title
;
Structure prediction by ZEFSAII (Michael W. Deem and Ramdas Pophale) SiO2 
 PCOD9493026
Probable space group: C M M M
;
_chemical_formula_sum "Si O2"
_cell_formula_units_Z 64
_cell_length_a 11.248903
_cell_length_b 17.956279
_cell_length_c 14.906350
_cell_angle_alpha 90.000000
_cell_angle_beta 90.000000
_cell_angle_gamma 90.000000
_cell_volume 3010.910393
_symmetry_space_group_name_H-M "C M M M"
_symmetry_group_IT_number 65
_symmetry_cell_setting 'orthorhombic'
loop_
_space_group_symop_operation_xyz
x,y,z
-x,-y,z
x,-y,-z
-x,y,-z
-x,-y,-z
x,y,-z
-x,y,z
x,-y,z
1/2+x,1/2+y,z
1/2-x,1/2-y,z
1/2+x,1/2-y,-z
1/2-x,1/2+y,-z
1/2-x,1/2-y,-z
1/2+x,1/2+y,-z
1/2-x,1/2+y,z
1/2+x,1/2-y,z
loop_
_atom_site_type_symbol
_atom_site_label
_atom_site_fract_x
_atom_site_fract_y
_atom_site_fract_z
Si Si1 0.863402 0.304948 0.105621
Si Si2 0.000000 0.416715 0.607107
Si Si3 0.751152 0.661121 0.396612
Si Si4 0.776929 0.088631 0.779493
Si Si5 0.000000 0.910421 0.098185
O O1 0.750000 0.250000 0.120149
O O2 0.836560 0.371816 0.174942
O O3 0.000000 0.277279 0.120795
O O4 0.857500 0.327261 0.000000
O O5 0.882352 0.370156 0.624123
O O6 0.000000 0.500000 0.647106
O O7 0.000000 0.425987 0.500000
O O8 0.719113 0.641804 0.500000
O O9 0.750000 0.750000 0.389382
O O10 0.681946 0.622609 0.315857
O O11 0.881898 0.106468 0.848540
O O12 0.761370 0.000000 0.770898
O O13 0.000000 0.000000 0.089706
O O14 0.000000 0.875488 0.000000
#
# Coordination Sequence:
#
# PCOD9493026 Si02
#       5
#    16   8  16  16   8
#     4  10  23  42  65  96 132 172 219 276 341 406
#     4   9  18  35  60  88 122 165 210 266 336 405
#     4  10  22  40  62  91 127 169 218 274 335 402
#     4  11  23  39  64  95 129 172 222 276 336 399
#     4   9  20  39  61  89 127 172 213 253 320 403
#
# _framework density 21.256029999999999
#
# number of rings (size 3 to 8) (size 9 to 14) (size 15 to 20)
#    0.000    2.000    0.000    2.250    3.500    4.500 
#    0.000    3.125    0.000    2.250    0.000    0.000 
#    0.000    0.000    0.000    0.000    0.000    0.000 
#
# Total GULP energy -178517.852198 kJ/mol
# GULP energy per Si atom -5578.682881 kJ/mol
# Density = 2.120765 g / cm^3
# Si number density = 21.256030 Si / 1000 Ang^3
#
#
#
# Elastic Constant Matrix: (Units=GPa)
#
#
# Indices 1 2 3 4 5 6 
#
# 1 96.0084 37.0151 48.0838 0.0000 0.0000 0.0000
# 2 37.0151 125.1230 65.1360 0.0000 0.0000 0.0000
# 3 48.0838 65.1360 162.8102 0.0000 0.0000 0.0000
# 4 0.0000 0.0000 0.0000 68.3104 0.0000 0.0000
# 5 0.0000 0.0000 0.0000 0.0000 5.8041 0.0000
# 6 0.0000 0.0000 0.0000 0.0000 0.0000 36.3064
#
#
#
# Elastic Compliance Matrix: (Units=1/GPa)
#
#
# Indices 1 2 3 4 5 6 
#
# 1 0.012720 -0.002283 -0.002843 0.000000 0.000000 0.000000
# 2 -0.002283 0.010504 -0.003528 0.000000 0.000000 0.000000
# 3 -0.002843 -0.003528 0.008393 0.000000 0.000000 0.000000
# 4 0.000000 0.000000 0.000000 0.014639 0.000000 0.000000
# 5 0.000000 0.000000 0.000000 0.000000 0.172291 0.000000
# 6 0.000000 0.000000 0.000000 0.000000 0.000000 0.027543
#
#
# Mechanical properties :
#
#
# Convention : Reuss Voigt Hill
#
# Bulk Modulus (GPa) = 69.88733 76.04569 72.96651
# Shear Modulus (GPa) = 18.64492 37.66464 28.15478
#
# Velocity S-wave (km/s) = 2.96490 4.21402 3.64339
# Velocity P-wave (km/s) = 6.68364 7.71563 7.21810
#
# Compressibility (1/GPa) = 0.01430875
#
# Stress axis : x y z
#
# Youngs Moduli (GPa) = 78.61705 95.20035 119.14059
#
# Poissons Ratio (x) = 0.21732 0.33876
# Poissons Ratio (y) = 0.17946 0.42036
# Poissons Ratio (z) = 0.22354 0.33589
#
# Static dielectric constant tensor:
#      x y z
#    x 2.818510 0.000000 0.000000 
#    y 0.000000 1.775160 0.000000 
#    z 0.000000 0.000000 1.797290 
# 
# From -- ./inp_files/37779.got.cif
#   From: 2010.05.17/outbox.cif.g08.bks.cpg/sg65_19_cif.got.tgz:37779.got - 2010.06.03 17:01:31.
