data_PCOD9493851
_publ_section_title
;
Structure prediction by ZEFSAII (Michael W. Deem and Ramdas Pophale) SiO2 
 PCOD9493851
Probable space group: C M M M
;
_chemical_formula_sum "Si O2"
_cell_formula_units_Z 34
_cell_length_a 7.816523
_cell_length_b 16.785890
_cell_length_c 11.513638
_cell_angle_alpha 90.000000
_cell_angle_beta 90.000000
_cell_angle_gamma 90.000000
_cell_volume 1510.673301
_symmetry_space_group_name_H-M "C M M M"
_symmetry_group_IT_number 65
_symmetry_cell_setting 'orthorhombic'
loop_
_space_group_symop_operation_xyz
x,y,z
-x,-y,z
x,-y,-z
-x,y,-z
-x,-y,-z
x,y,-z
-x,y,z
x,-y,z
1/2+x,1/2+y,z
1/2-x,1/2-y,z
1/2+x,1/2-y,-z
1/2-x,1/2+y,-z
1/2-x,1/2-y,-z
1/2+x,1/2+y,-z
1/2-x,1/2+y,z
1/2+x,1/2-y,z
loop_
_atom_site_type_symbol
_atom_site_label
_atom_site_fract_x
_atom_site_fract_y
_atom_site_fract_z
Si Si1 0.000000 0.500000 0.500000
Si Si2 0.205253 0.333423 0.746228
Si Si3 0.291435 0.000000 0.866180
Si Si4 0.812621 0.876038 0.500000
O O1 0.849649 0.567015 0.500000
O O2 0.250000 0.250000 0.808749
O O3 0.260848 0.417204 0.804903
O O4 0.295013 0.330297 0.621099
O O5 0.000000 0.337773 0.734108
O O6 0.500000 0.000000 0.862480
O O7 0.237819 0.000000 0.000000
O O8 0.000000 0.913491 0.500000
#
# Coordination Sequence:
#
# PCOD9493851 Si02
#       4
#     2  16   8   8
#     4  12  22  40  60  98 138 178 214 268 328 392
#     4  11  22  40  67  97 137 175 225 280 336 405
#     4   9  21  41  65  91 127 178 230 280 338 403
#     4  12  24  40  66 100 141 180 222 270 332 408
#
# _framework density 22.506519999999998
#
# number of rings (size 3 to 8) (size 9 to 14) (size 15 to 20)
#    0.000    1.176    2.353    3.882    3.294    0.941 
#    0.000    3.529    0.000    9.882    0.000    0.000 
#    0.000    0.000    0.000    0.000    0.000    0.000 
#
# Total GULP energy -94651.935563 kJ/mol
# GULP energy per Si atom -5567.760915 kJ/mol
# Density = 2.245529 g / cm^3
# Si number density = 22.506520 Si / 1000 Ang^3
#
#
#
# Elastic Constant Matrix: (Units=GPa)
#
#
# Indices 1 2 3 4 5 6 
#
# 1 142.9984 39.3297 5.6272 0.0000 0.0000 0.0000
# 2 39.3297 234.1851 79.4607 0.0000 0.0000 0.0000
# 3 5.6272 79.4607 114.2643 0.0000 0.0000 0.0000
# 4 0.0000 0.0000 0.0000 0.1096 0.0000 0.0000
# 5 0.0000 0.0000 0.0000 0.0000 -24.3323 0.0000
# 6 0.0000 0.0000 0.0000 0.0000 0.0000 68.2849
#
#
#
# Elastic Compliance Matrix: (Units=1/GPa)
#
#
# Indices 1 2 3 4 5 6 
#
# 1 0.007369 -0.001459 0.000651 0.000000 0.000000 0.000000
# 2 -0.001459 0.005878 -0.004015 0.000000 0.000000 0.000000
# 3 0.000651 -0.004015 0.011512 0.000000 0.000000 0.000000
# 4 0.000000 0.000000 0.000000 9.124915 0.000000 0.000000
# 5 0.000000 0.000000 0.000000 0.000000 -0.041098 0.000000
# 6 0.000000 0.000000 0.000000 0.000000 0.000000 0.014645
#
#
# Mechanical properties :
#
#
# Convention : Reuss Voigt Hill
#
# Bulk Modulus (GPa) = 66.16868 82.25365 74.21117
# Shear Modulus (GPa) = 0.54717 33.28111 16.91414
#
# Velocity S-wave (km/s) = 0.49360 3.84960 2.74436
# Velocity P-wave (km/s) = 5.45788 7.50900 6.56405
#
# Compressibility (1/GPa) = 0.01511289
#
# Stress axis : x y z
#
# Youngs Moduli (GPa) = 135.71098 170.13863 86.86605
#
# Poissons Ratio (x) = 0.24815 -0.05658
# Poissons Ratio (y) = 0.19794 0.34881
# Poissons Ratio (z) = -0.08840 0.68319
#
# Static dielectric constant tensor:
#      x y z
#    x 1.797490 0.000000 0.000000 
#    y 0.000000 1.897300 0.000000 
#    z 0.000000 0.000000 1.858310 
# 
# From -- ./inp_files/19630.got.cif
#   From: 2010.05.17/outbox.cif.g08.bks.cpg/sg65_10_cif.got.tgz:19630.got - 2010.06.03 17:01:31.
