data_PCOD9493805
_publ_section_title
;
Structure prediction by ZEFSAII (Michael W. Deem and Ramdas Pophale) SiO2 
 PCOD9493805
Probable space group: C M M M
;
_chemical_formula_sum "Si O2"
_cell_formula_units_Z 64
_cell_length_a 15.149703
_cell_length_b 8.650208
_cell_length_c 25.118078
_cell_angle_alpha 90.000000
_cell_angle_beta 90.000000
_cell_angle_gamma 90.000000
_cell_volume 3291.675948
_symmetry_space_group_name_H-M "C M M M"
_symmetry_group_IT_number 65
_symmetry_cell_setting 'orthorhombic'
loop_
_space_group_symop_operation_xyz
x,y,z
-x,-y,z
x,-y,-z
-x,y,-z
-x,-y,-z
x,y,-z
-x,y,z
x,-y,z
1/2+x,1/2+y,z
1/2-x,1/2-y,z
1/2+x,1/2-y,-z
1/2-x,1/2+y,-z
1/2-x,1/2-y,-z
1/2+x,1/2+y,-z
1/2-x,1/2+y,z
1/2+x,1/2-y,z
loop_
_atom_site_type_symbol
_atom_site_label
_atom_site_fract_x
_atom_site_fract_y
_atom_site_fract_z
Si Si1 0.500000 0.315420 0.202740
Si Si2 0.000000 0.687251 0.915852
Si Si3 0.896902 0.329193 0.500000
Si Si4 0.651851 0.683940 0.387997
Si Si5 0.850025 0.315021 0.277965
Si Si6 0.349857 0.186094 0.000000
O O1 0.500000 0.500000 0.207720
O O2 0.500000 0.264398 0.141485
O O3 0.585981 0.246698 0.232173
O O4 0.088016 0.729864 0.949582
O O5 0.000000 0.500000 0.910907
O O6 0.851987 0.500000 0.500000
O O7 0.878548 0.238435 0.554156
O O8 0.000000 0.352122 0.500000
O O9 0.750000 0.750000 0.385311
O O10 0.610736 0.756931 0.334781
O O11 0.851628 0.000000 0.384112
O O12 0.846372 0.500000 0.278178
O O13 0.750000 0.250000 0.271817
O O14 0.250000 0.250000 0.000000
O O15 0.343715 0.000000 0.000000
#
# Coordination Sequence:
#
# PCOD9493805 Si02
#       6
#     8   8   8  16  16   8
#     4  12  25  41  63  93 127 168 211 258 309 364
#     4   9  20  40  60  88 127 169 209 252 305 363
#     4  11  24  39  56  81 113 147 190 239 297 364
#     4  11  22  39  61  84 113 147 190 241 299 365
#     4  11  23  42  65  90 121 160 206 256 311 372
#     4   9  19  37  64  92 126 167 209 253 305 358
#
# _framework density 19.442983000000002
#
# number of rings (size 3 to 8) (size 9 to 14) (size 15 to 20)
#    0.000    1.375    0.000    8.625    1.750    3.000 
#    0.000    3.750    0.000    0.000    0.000    0.000 
#    0.000    0.000    0.000    0.000    0.000    0.000 
#
# Total GULP energy -178667.255926 kJ/mol
# GULP energy per Si atom -5583.351748 kJ/mol
# Density = 1.939873 g / cm^3
# Si number density = 19.442983 Si / 1000 Ang^3
#
#
#
# Elastic Constant Matrix: (Units=GPa)
#
#
# Indices 1 2 3 4 5 6 
#
# 1 129.8349 54.0283 81.8690 0.0000 0.0000 0.0000
# 2 54.0283 185.1116 87.3817 0.0000 0.0000 0.0000
# 3 81.8690 87.3817 197.5768 0.0000 0.0000 0.0000
# 4 0.0000 0.0000 0.0000 39.1704 0.0000 0.0000
# 5 0.0000 0.0000 0.0000 0.0000 23.6534 0.0000
# 6 0.0000 0.0000 0.0000 0.0000 0.0000 26.6816
#
#
#
# Elastic Compliance Matrix: (Units=1/GPa)
#
#
# Indices 1 2 3 4 5 6 
#
# 1 0.010667 -0.001298 -0.003846 0.000000 0.000000 0.000000
# 2 -0.001298 0.006985 -0.002552 0.000000 0.000000 0.000000
# 3 -0.003846 -0.002552 0.007784 0.000000 0.000000 0.000000
# 4 0.000000 0.000000 0.000000 0.025529 0.000000 0.000000
# 5 0.000000 0.000000 0.000000 0.000000 0.042277 0.000000
# 6 0.000000 0.000000 0.000000 0.000000 0.000000 0.037479
#
#
# Mechanical properties :
#
#
# Convention : Reuss Voigt Hill
#
# Bulk Modulus (GPa) = 99.55207 106.56460 103.05834
# Shear Modulus (GPa) = 33.45335 37.18405 35.31870
#
# Velocity S-wave (km/s) = 4.15250 4.37792 4.26670
# Velocity P-wave (km/s) = 8.61999 8.97121 8.79735
#
# Compressibility (1/GPa) = 0.01004499
#
# Stress axis : x y z
#
# Youngs Moduli (GPa) = 93.74304 143.15444 128.47589
#
# Poissons Ratio (x) = 0.18580 0.49414
# Poissons Ratio (y) = 0.12167 0.32782
# Poissons Ratio (z) = 0.36056 0.36528
#
# Static dielectric constant tensor:
#      x y z
#    x 1.670130 0.000000 0.000000 
#    y 0.000000 1.722820 0.000000 
#    z 0.000000 0.000000 1.786280 
# 
# From -- ./inp_files/69584.got.cif
#   From: 2010.05.17/outbox.cif.g08.bks.cpg/sg65_35_cif.got.tgz:69584.got - 2010.06.03 17:01:31.
