data_PCOD9493892
_publ_section_title
;
Structure prediction by ZEFSAII (Michael W. Deem and Ramdas Pophale) SiO2 
 PCOD9493892
Probable space group: C M M M
;
_chemical_formula_sum "Si O2"
_cell_formula_units_Z 120
_cell_length_a 27.953197
_cell_length_b 28.664152
_cell_length_c 7.964536
_cell_angle_alpha 90.000000
_cell_angle_beta 90.000000
_cell_angle_gamma 90.000000
_cell_volume 6381.621805
_symmetry_space_group_name_H-M "C M M M"
_symmetry_group_IT_number 65
_symmetry_cell_setting 'orthorhombic'
loop_
_space_group_symop_operation_xyz
x,y,z
-x,-y,z
x,-y,-z
-x,y,-z
-x,-y,-z
x,y,-z
-x,y,z
x,-y,z
1/2+x,1/2+y,z
1/2-x,1/2-y,z
1/2+x,1/2-y,-z
1/2-x,1/2+y,-z
1/2-x,1/2-y,-z
1/2+x,1/2+y,-z
1/2-x,1/2+y,z
1/2+x,1/2-y,z
loop_
_atom_site_type_symbol
_atom_site_label
_atom_site_fract_x
_atom_site_fract_y
_atom_site_fract_z
Si Si1 0.946982 0.812972 0.798229
Si Si2 0.101300 0.717725 0.703361
Si Si3 0.909344 0.613458 0.698879
Si Si4 0.000000 0.552353 0.198798
Si Si5 0.851361 0.860955 0.798711
Si Si6 0.709984 0.553223 0.794708
Si Si7 0.198302 0.766508 0.296938
Si Si8 0.318865 0.053335 0.797401
O O1 0.933023 0.759464 0.760589
O O2 0.903401 0.845020 0.732651
O O3 0.000000 0.823732 0.733183
O O4 0.947772 0.818067 0.000000
O O5 0.100377 0.717427 0.500000
O O6 0.088505 0.666295 0.767215
O O7 0.154969 0.732587 0.756113
O O8 0.913154 0.617379 0.500000
O O9 0.859080 0.588957 0.739617
O O10 0.952763 0.581058 0.755626
O O11 0.000000 0.500000 0.273150
O O12 0.000000 0.547766 0.000000
O O13 0.827796 0.908546 0.734352
O O14 0.815949 0.817996 0.762041
O O15 0.855638 0.865387 0.000000
O O16 0.699679 0.500000 0.743464
O O17 0.764600 0.564759 0.743234
O O18 0.709725 0.553827 0.000000
O O19 0.199033 0.766801 0.500000
O O20 0.250000 0.750000 0.236391
O O21 0.329635 0.000000 0.742380
O O22 0.319191 0.053129 0.000000
#
# Coordination Sequence:
#
# PCOD9493892 Si02
#       8
#    16  16  16   8  16  16  16  16
#     4   9  18  32  50  72  98 127 162 206 249 289
#     4   9  20  35  48  70  99 128 161 195 238 291
#     4  11  23  36  53  76 100 124 158 208 256 296
#     4  11  25  43  59  73  93 127 169 209 252 303
#     4   9  17  30  49  73  98 127 166 207 244 286
#     4   8  15  29  50  75 102 133 167 202 242 290
#     4   9  18  32  49  68  98 135 162 190 236 294
#     4   9  18  33  51  71  96 127 164 201 239 292
#
# _framework density 18.803996999999999
#
# number of rings (size 3 to 8) (size 9 to 14) (size 15 to 20)
#    0.000    2.733    0.000    1.800    2.800    4.000 
#    0.000    0.000    0.000    1.600    0.000    2.800 
#    0.000    0.000    0.000    6.667    0.000    6.933 
#
# Total GULP energy -334663.101676 kJ/mol
# GULP energy per Si atom -5577.718361 kJ/mol
# Density = 1.876120 g / cm^3
# Si number density = 18.803997 Si / 1000 Ang^3
#
#
#
# Elastic Constant Matrix: (Units=GPa)
#
#
# Indices 1 2 3 4 5 6 
#
# 1 155.6798 99.9960 7.8376 0.0000 0.0000 0.0000
# 2 99.9960 149.1804 7.3158 0.0000 0.0000 0.0000
# 3 7.8376 7.3158 16.1727 0.0000 0.0000 0.0000
# 4 0.0000 0.0000 0.0000 30.3489 0.0000 0.0000
# 5 0.0000 0.0000 0.0000 0.0000 -6.7507 0.0000
# 6 0.0000 0.0000 0.0000 0.0000 0.0000 15.3392
#
#
#
# Elastic Compliance Matrix: (Units=1/GPa)
#
#
# Indices 1 2 3 4 5 6 
#
# 1 0.011350 -0.007504 -0.002106 0.000000 0.000000 0.000000
# 2 -0.007504 0.011817 -0.001709 0.000000 0.000000 0.000000
# 3 -0.002106 -0.001709 0.063626 0.000000 0.000000 0.000000
# 4 0.000000 0.000000 0.000000 0.032950 0.000000 0.000000
# 5 0.000000 0.000000 0.000000 0.000000 -0.148133 0.000000
# 6 0.000000 0.000000 0.000000 0.000000 0.000000 0.065193
#
#
# Mechanical properties :
#
#
# Convention : Reuss Voigt Hill
#
# Bulk Modulus (GPa) = 15.58719 61.25908 38.42314
# Shear Modulus (GPa) = 61.86125 21.51304 41.68714
#
# Velocity S-wave (km/s) = 5.74189 3.38608 4.71354
# Velocity P-wave (km/s) = 7.22955 6.92357 7.07821
#
# Compressibility (1/GPa) = 0.06415525
#
# Stress axis : x y z
#
# Youngs Moduli (GPa) = 88.10795 84.62119 15.71684
#
# Poissons Ratio (x) = 0.63504 0.03309
# Poissons Ratio (y) = 0.66120 0.02686
# Poissons Ratio (z) = 0.18552 0.14460
#
# Static dielectric constant tensor:
#      x y z
#    x 1.640640 0.000000 0.000000 
#    y 0.000000 1.651110 0.000000 
#    z 0.000000 0.000000 1.669900 
# 
# From -- ./inp_files/17109.got.cif
#   From: 2010.05.17/outbox.cif.g08.bks.cpg/sg65_9_cif.got.tgz:17109.got - 2010.06.03 17:01:31.
