data_PCOD9493962
_publ_section_title
;
Structure prediction by ZEFSAII (Michael W. Deem and Ramdas Pophale) SiO2 
 PCOD9493962
Probable space group: C M M M
;
_chemical_formula_sum "Si O2"
_cell_formula_units_Z 100
_cell_length_a 21.291033
_cell_length_b 7.545366
_cell_length_c 30.149732
_cell_angle_alpha 90.000000
_cell_angle_beta 90.000000
_cell_angle_gamma 90.000000
_cell_volume 4843.513337
_symmetry_space_group_name_H-M "C M M M"
_symmetry_group_IT_number 65
_symmetry_cell_setting 'orthorhombic'
loop_
_space_group_symop_operation_xyz
x,y,z
-x,-y,z
x,-y,-z
-x,y,-z
-x,-y,-z
x,y,-z
-x,y,z
x,-y,z
1/2+x,1/2+y,z
1/2-x,1/2-y,z
1/2+x,1/2-y,-z
1/2-x,1/2+y,-z
1/2-x,1/2-y,-z
1/2+x,1/2+y,-z
1/2-x,1/2+y,z
1/2+x,1/2-y,z
loop_
_atom_site_type_symbol
_atom_site_label
_atom_site_fract_x
_atom_site_fract_y
_atom_site_fract_z
Si Si1 0.895228 0.294885 0.864444
Si Si2 0.679545 0.711293 0.783077
Si Si3 0.821071 0.712638 0.449445
Si Si4 0.930075 0.788811 0.719182
Si Si5 0.822569 0.712063 0.950170
Si Si6 0.000000 0.000000 0.156207
Si Si7 0.070535 0.286167 0.615818
O O1 0.917282 0.500000 0.867660
O O2 0.836487 0.291184 0.830815
O O3 0.870538 0.229452 0.912323
O O4 0.945593 0.157079 0.845704
O O5 0.673877 0.500000 0.786327
O O6 0.750000 0.750000 0.768297
O O7 0.626402 0.779681 0.749129
O O8 0.827498 0.780317 0.500000
O O9 0.827431 0.500000 0.451286
O O10 0.750000 0.750000 0.434253
O O11 0.874910 0.780103 0.416597
O O12 0.918115 0.760228 0.667119
O O13 0.000000 0.717390 0.729606
O O14 0.933258 0.000000 0.726820
O O15 0.828659 0.500000 0.951666
O O16 0.750000 0.750000 0.938840
O O17 0.834247 0.781836 0.000000
O O18 0.069979 0.500000 0.613091
O O19 0.000000 0.223899 0.604125
#
# Coordination Sequence:
#
# PCOD9493962 Si02
#       7
#    16  16  16  16  16   4  16
#     4  11  24  42  65  92 125 164 208 255 310 363
#     4  11  23  39  62  89 122 155 198 252 302 358
#     4   9  18  32  50  73 102 138 178 223 278 335
#     4   9  20  37  58  80 110 151 189 234 289 347
#     4   9  19  36  61  92 124 160 205 256 310 367
#     4  12  26  44  65  92 128 168 206 256 299 386
#     4   9  18  33  52  76 105 137 180 230 277 335
#
# _framework density 20.646170000000001
#
# number of rings (size 3 to 8) (size 9 to 14) (size 15 to 20)
#    0.000    2.240    0.800    1.200    2.240    4.160 
#    0.000    5.600    0.000    1.920    0.000    4.480 
#    0.000    0.000    0.000    0.000    0.000    0.000 
#
# Total GULP energy -278619.312660 kJ/mol
# GULP energy per Si atom -5572.386253 kJ/mol
# Density = 2.059918 g / cm^3
# Si number density = 20.646170 Si / 1000 Ang^3
#
#
#
# Elastic Constant Matrix: (Units=GPa)
#
#
# Indices 1 2 3 4 5 6 
#
# 1 139.3981 15.2882 75.8062 0.0000 0.0000 0.0000
# 2 15.2882 81.7884 3.7389 0.0000 0.0000 0.0000
# 3 75.8062 3.7389 80.3602 0.0000 0.0000 0.0000
# 4 0.0000 0.0000 0.0000 18.9359 0.0000 0.0000
# 5 0.0000 0.0000 0.0000 0.0000 11.4936 0.0000
# 6 0.0000 0.0000 0.0000 0.0000 0.0000 71.9260
#
#
#
# Elastic Compliance Matrix: (Units=1/GPa)
#
#
# Indices 1 2 3 4 5 6 
#
# 1 0.015107 -0.002177 -0.014150 0.000000 0.000000 0.000000
# 2 -0.002177 0.012566 0.001469 0.000000 0.000000 0.000000
# 3 -0.014150 0.001469 0.025724 0.000000 0.000000 0.000000
# 4 0.000000 0.000000 0.000000 0.052810 0.000000 0.000000
# 5 0.000000 0.000000 0.000000 0.000000 0.087005 0.000000
# 6 0.000000 0.000000 0.000000 0.000000 0.000000 0.013903
#
#
# Mechanical properties :
#
#
# Convention : Reuss Voigt Hill
#
# Bulk Modulus (GPa) = 42.22699 54.57925 48.40312
# Shear Modulus (GPa) = 20.43112 34.25200 27.34156
#
# Velocity S-wave (km/s) = 3.14918 4.07750 3.64303
# Velocity P-wave (km/s) = 5.80691 6.97574 6.41799
#
# Compressibility (1/GPa) = 0.02368154
#
# Stress axis : x y z
#
# Youngs Moduli (GPa) = 66.19289 79.57688 38.87468
#
# Poissons Ratio (x) = 0.17324 0.55007
# Poissons Ratio (y) = 0.14411 -0.05711
# Poissons Ratio (z) = 0.93663 -0.11690
#
# Static dielectric constant tensor:
#      x y z
#    x 1.717530 0.000000 0.000000 
#    y 0.000000 1.766460 0.000000 
#    z 0.000000 0.000000 1.745540 
# 
# From -- ./inp_files/75468.got.cif
#   From: 2010.05.17/outbox.cif.g08.bks.cpg/sg65_38_cif.got.tgz:75468.got - 2010.06.03 17:01:31.
