data_PCOD9493357
_publ_section_title
;
Structure prediction by ZEFSAII (Michael W. Deem and Ramdas Pophale) SiO2 
 PCOD9493357
Probable space group: C M M M
;
_chemical_formula_sum "Si O2"
_cell_formula_units_Z 88
_cell_length_a 17.406692
_cell_length_b 16.476489
_cell_length_c 14.908088
_cell_angle_alpha 90.000000
_cell_angle_beta 90.000000
_cell_angle_gamma 90.000000
_cell_volume 4275.657070
_symmetry_space_group_name_H-M "C M M M"
_symmetry_group_IT_number 65
_symmetry_cell_setting 'orthorhombic'
loop_
_space_group_symop_operation_xyz
x,y,z
-x,-y,z
x,-y,-z
-x,y,-z
-x,-y,-z
x,y,-z
-x,y,z
x,-y,z
1/2+x,1/2+y,z
1/2-x,1/2-y,z
1/2+x,1/2-y,-z
1/2-x,1/2+y,-z
1/2-x,1/2-y,-z
1/2+x,1/2+y,-z
1/2-x,1/2+y,z
1/2+x,1/2-y,z
loop_
_atom_site_type_symbol
_atom_site_label
_atom_site_fract_x
_atom_site_fract_y
_atom_site_fract_z
Si Si1 0.731277 0.906784 0.895107
Si Si2 0.000000 0.910403 0.894218
Si Si3 0.590926 0.862345 0.784051
Si Si4 0.157930 0.842757 0.597968
Si Si5 0.838287 0.354862 0.402010
Si Si6 0.866320 0.172452 0.207119
O O1 0.644483 0.903566 0.858353
O O2 0.782380 0.849646 0.830808
O O3 0.759537 0.000000 0.887615
O O4 0.735805 0.882989 0.000000
O O5 0.925018 0.865617 0.861539
O O6 0.000000 0.000000 0.855359
O O7 0.000000 0.914169 0.000000
O O8 0.500000 0.872710 0.796147
O O9 0.617295 0.888136 0.683878
O O10 0.614207 0.767307 0.789063
O O11 0.127646 0.869329 0.500000
O O12 0.155935 0.743938 0.597565
O O13 0.246918 0.869910 0.604131
O O14 0.121348 0.864320 0.693191
O O15 0.865518 0.383259 0.500000
#
# Coordination Sequence:
#
# PCOD9493357 Si02
#       6
#    16   8  16  16  16  16
#     4  11  25  43  62  82 110 157 206 245 294 356
#     4  11  24  40  59  85 120 158 195 244 303 357
#     4  11  22  37  59  93 124 150 191 243 297 347
#     4   8  14  27  54  86 115 148 188 235 285 340
#     4   8  14  28  52  84 118 150 186 231 283 340
#     4  11  20  39  63  90 118 151 197 247 293 344
#
# _framework density 20.581631999999999
#
# number of rings (size 3 to 8) (size 9 to 14) (size 15 to 20)
#    0.000    2.091    2.727    2.727    0.000    4.727 
#    0.000    1.364    0.000    4.364    0.000    1.273 
#    0.000    0.000    0.000    0.000    0.000    0.000 
#
# Total GULP energy -245436.428975 kJ/mol
# GULP energy per Si atom -5578.100659 kJ/mol
# Density = 2.053479 g / cm^3
# Si number density = 20.581632 Si / 1000 Ang^3
#
#
#
# Elastic Constant Matrix: (Units=GPa)
#
#
# Indices 1 2 3 4 5 6 
#
# 1 63.0193 -2.4747 10.5339 0.0000 0.0000 0.0000
# 2 -2.4747 24.0881 6.9091 0.0000 0.0000 0.0000
# 3 10.5339 6.9091 114.8516 0.0000 0.0000 0.0000
# 4 0.0000 0.0000 0.0000 64.1669 0.0000 0.0000
# 5 0.0000 0.0000 0.0000 0.0000 31.0405 0.0000
# 6 0.0000 0.0000 0.0000 0.0000 0.0000 11.4634
#
#
#
# Elastic Compliance Matrix: (Units=1/GPa)
#
#
# Indices 1 2 3 4 5 6 
#
# 1 0.016222 0.002130 -0.001616 0.000000 0.000000 0.000000
# 2 0.002130 0.042523 -0.002753 0.000000 0.000000 0.000000
# 3 -0.001616 -0.002753 0.009021 0.000000 0.000000 0.000000
# 4 0.000000 0.000000 0.000000 0.015584 0.000000 0.000000
# 5 0.000000 0.000000 0.000000 0.000000 0.032216 0.000000
# 6 0.000000 0.000000 0.000000 0.000000 0.000000 0.087234
#
#
# Mechanical properties :
#
#
# Convention : Reuss Voigt Hill
#
# Bulk Modulus (GPa) = 15.80105 25.76618 20.78362
# Shear Modulus (GPa) = 21.89388 33.80020 27.84704
#
# Velocity S-wave (km/s) = 3.26507 4.05687 3.68231
# Velocity P-wave (km/s) = 4.68062 5.87285 5.31030
#
# Compressibility (1/GPa) = 0.06328692
#
# Stress axis : x y z
#
# Youngs Moduli (GPa) = 61.64504 23.51676 110.85567
#
# Poissons Ratio (x) = -0.05009 0.17914
# Poissons Ratio (y) = -0.13131 0.30523
# Poissons Ratio (z) = 0.09962 0.06475
#
# Static dielectric constant tensor:
#      x y z
#    x 1.771380 0.000000 0.000000 
#    y 0.000000 1.748770 0.000000 
#    z 0.000000 0.000000 1.752910 
# 
# From -- ./inp_files/42532.got.cif
#   From: 2010.05.17/outbox.cif.g08.bks.cpg/sg65_22_cif.got.tgz:42532.got - 2010.06.03 17:01:31.
