data_PCOD9493248
_publ_section_title
;
Structure prediction by ZEFSAII (Michael W. Deem and Ramdas Pophale) SiO2 
 PCOD9493248
Probable space group: C M M M
;
_chemical_formula_sum "Si O2"
_cell_formula_units_Z 50
_cell_length_a 8.380978
_cell_length_b 16.330986
_cell_length_c 18.662194
_cell_angle_alpha 90.000000
_cell_angle_beta 90.000000
_cell_angle_gamma 90.000000
_cell_volume 2554.287670
_symmetry_space_group_name_H-M "C M M M"
_symmetry_group_IT_number 65
_symmetry_cell_setting 'orthorhombic'
loop_
_space_group_symop_operation_xyz
x,y,z
-x,-y,z
x,-y,-z
-x,y,-z
-x,-y,-z
x,y,-z
-x,y,z
x,-y,z
1/2+x,1/2+y,z
1/2-x,1/2-y,z
1/2+x,1/2-y,-z
1/2-x,1/2+y,-z
1/2-x,1/2-y,-z
1/2+x,1/2+y,-z
1/2-x,1/2+y,z
1/2+x,1/2-y,z
loop_
_atom_site_type_symbol
_atom_site_label
_atom_site_fract_x
_atom_site_fract_y
_atom_site_fract_z
Si Si1 0.689979 0.908644 0.150514
Si Si2 0.000000 0.500000 0.500000
Si Si3 0.195403 0.000000 0.386397
Si Si4 0.311149 0.657574 0.000000
Si Si5 0.187231 0.164611 0.706875
O O1 0.500000 0.909865 0.147006
O O2 0.752055 0.884295 0.072688
O O3 0.738963 0.849645 0.214799
O O4 0.749838 0.000000 0.168485
O O5 0.149234 0.500000 0.439003
O O6 0.214788 0.916580 0.340394
O O7 0.000000 0.000000 0.409648
O O8 0.250000 0.750000 0.000000
O O9 0.500000 0.656914 0.000000
O O10 0.250000 0.250000 0.674734
O O11 0.000000 0.173248 0.716226
#
# Coordination Sequence:
#
# PCOD9493248 Si02
#       5
#    16   2   8   8  16
#     4  11  23  39  62  91 126 172 226 280 338 404
#     4  12  26  44  88  98 148 180 226 268 356 402
#     4  10  25  47  73 107 142 182 226 278 334 414
#     4  12  25  40  57  81 125 171 225 283 346 397
#     4  11  23  41  69 100 138 176 229 280 334 400
#
# _framework density 19.574930999999999
#
# number of rings (size 3 to 8) (size 9 to 14) (size 15 to 20)
#    0.000    0.960    1.600    5.040    4.480    3.840 
#    0.000    0.800    0.000    0.000    0.000    0.000 
#    0.000    0.000    0.000    0.000    0.000    0.000 
#
# Total GULP energy -139279.128359 kJ/mol
# GULP energy per Si atom -5571.165134 kJ/mol
# Density = 1.953038 g / cm^3
# Si number density = 19.574931 Si / 1000 Ang^3
#
#
#
# Elastic Constant Matrix: (Units=GPa)
#
#
# Indices 1 2 3 4 5 6 
#
# 1 135.4576 47.4750 69.2932 0.0000 0.0000 0.0000
# 2 47.4750 140.1715 37.9359 0.0000 0.0000 0.0000
# 3 69.2932 37.9359 95.5324 0.0000 0.0000 0.0000
# 4 0.0000 0.0000 0.0000 -20.6055 0.0000 0.0000
# 5 0.0000 0.0000 0.0000 0.0000 45.9044 0.0000
# 6 0.0000 0.0000 0.0000 0.0000 0.0000 30.7268
#
#
#
# Elastic Compliance Matrix: (Units=1/GPa)
#
#
# Indices 1 2 3 4 5 6 
#
# 1 0.012193 -0.001945 -0.008072 0.000000 0.000000 0.000000
# 2 -0.001945 0.008303 -0.001886 0.000000 0.000000 0.000000
# 3 -0.008072 -0.001886 0.017071 0.000000 0.000000 0.000000
# 4 0.000000 0.000000 0.000000 -0.048531 0.000000 0.000000
# 5 0.000000 0.000000 0.000000 0.000000 0.021784 0.000000
# 6 0.000000 0.000000 0.000000 0.000000 0.000000 0.032545
#
#
# Mechanical properties :
#
#
# Convention : Reuss Voigt Hill
#
# Bulk Modulus (GPa) = 72.66655 75.61886 74.14270
# Shear Modulus (GPa) = 69.67617 25.63564 47.65591
#
# Velocity S-wave (km/s) = 5.97259 3.62279 4.93946
# Velocity P-wave (km/s) = 9.20681 7.49758 8.39581
#
# Compressibility (1/GPa) = 0.01376149
#
# Stress axis : x y z
#
# Youngs Moduli (GPa) = 82.01262 120.43153 58.57722
#
# Poissons Ratio (x) = 0.23427 0.47282
# Poissons Ratio (y) = 0.15953 0.11050
# Poissons Ratio (z) = 0.66199 0.22718
#
# Static dielectric constant tensor:
#      x y z
#    x 1.687620 0.000000 0.000000 
#    y 0.000000 1.767450 0.000000 
#    z 0.000000 0.000000 1.659120 
# 
# From -- ./inp_files/48551.got.cif
#   From: 2010.05.17/outbox.cif.g08.bks.cpg/sg65_25_cif.got.tgz:48551.got - 2010.06.03 17:01:31.
