data_PCOD9493630
_publ_section_title
;
Structure prediction by ZEFSAII (Michael W. Deem and Ramdas Pophale) SiO2 
 PCOD9493630
Probable space group: C M M M
;
_chemical_formula_sum "Si O2"
_cell_formula_units_Z 88
_cell_length_a 7.655969
_cell_length_b 18.684116
_cell_length_c 30.234028
_cell_angle_alpha 90.000000
_cell_angle_beta 90.000000
_cell_angle_gamma 90.000000
_cell_volume 4324.826925
_symmetry_space_group_name_H-M "C M M M"
_symmetry_group_IT_number 65
_symmetry_cell_setting 'orthorhombic'
loop_
_space_group_symop_operation_xyz
x,y,z
-x,-y,z
x,-y,-z
-x,y,-z
-x,-y,-z
x,y,-z
-x,y,z
x,-y,z
1/2+x,1/2+y,z
1/2-x,1/2-y,z
1/2+x,1/2-y,-z
1/2-x,1/2+y,-z
1/2-x,1/2-y,-z
1/2+x,1/2+y,-z
1/2-x,1/2+y,z
1/2+x,1/2-y,z
loop_
_atom_site_type_symbol
_atom_site_label
_atom_site_fract_x
_atom_site_fract_y
_atom_site_fract_z
Si Si1 0.793325 0.833313 0.816856
Si Si2 0.709059 0.081085 0.904536
Si Si3 0.285739 0.582658 0.730716
Si Si4 0.789832 0.834326 0.643807
Si Si5 0.289996 0.665021 0.452479
Si Si6 0.201806 0.412692 0.000000
O O1 0.750000 0.750000 0.814772
O O2 0.739932 0.868544 0.863085
O O3 0.722385 0.875764 0.774298
O O4 0.000000 0.840334 0.814582
O O5 0.500000 0.075917 0.910061
O O6 0.779595 0.107327 0.952287
O O7 0.774254 0.000000 0.895804
O O8 0.500000 0.584396 0.730537
O O9 0.233667 0.500000 0.731879
O O10 0.225850 0.621870 0.686014
O O11 0.750000 0.750000 0.648703
O O12 0.724523 0.860330 0.595481
O O13 0.000000 0.840997 0.643020
O O14 0.224158 0.636448 0.500000
O O15 0.500000 0.656264 0.452631
O O16 0.250000 0.750000 0.452535
O O17 0.200868 0.500000 0.000000
O O18 0.000000 0.387808 0.000000
#
# Coordination Sequence:
#
# PCOD9493630 Si02
#       6
#    16  16  16  16  16   8
#     4  11  22  35  51  71  97 127 161 201 243 286
#     4   9  17  32  55  80 104 130 161 195 233 279
#     4   9  18  32  49  68  90 119 154 190 232 284
#     4   9  16  27  45  66  89 118 150 186 227 271
#     4   8  13  21  35  58  86 113 143 180 220 262
#     4   7  12  26  50  77 102 129 159 191 228 273
#
# _framework density 20.347636999999999
#
# number of rings (size 3 to 8) (size 9 to 14) (size 15 to 20)
#    0.000    3.000    0.000    2.727    0.000    1.091 
#    0.000    1.818    0.000    4.909    0.000    3.818 
#    0.000    0.000    0.000   29.455    0.000   13.818 
#
# Total GULP energy -245173.258578 kJ/mol
# GULP energy per Si atom -5572.119513 kJ/mol
# Density = 2.030132 g / cm^3
# Si number density = 20.347637 Si / 1000 Ang^3
#
#
#
# Elastic Constant Matrix: (Units=GPa)
#
#
# Indices 1 2 3 4 5 6 
#
# 1 39.8599 -0.7262 10.2681 0.0000 0.0000 0.0000
# 2 -0.7262 100.3115 108.9192 0.0000 0.0000 0.0000
# 3 10.2681 108.9192 273.3191 0.0000 0.0000 0.0000
# 4 0.0000 0.0000 0.0000 56.3362 0.0000 0.0000
# 5 0.0000 0.0000 0.0000 0.0000 9.5266 0.0000
# 6 0.0000 0.0000 0.0000 0.0000 0.0000 -101.7449
#
#
#
# Elastic Compliance Matrix: (Units=1/GPa)
#
#
# Indices 1 2 3 4 5 6 
#
# 1 0.025598 0.002167 -0.001825 0.000000 0.000000 0.000000
# 2 0.002167 0.017756 -0.007157 0.000000 0.000000 0.000000
# 3 -0.001825 -0.007157 0.006580 0.000000 0.000000 0.000000
# 4 0.000000 0.000000 0.000000 0.017751 0.000000 0.000000
# 5 0.000000 0.000000 0.000000 0.000000 0.104970 0.000000
# 6 0.000000 0.000000 0.000000 0.000000 0.000000 -0.009829
#
#
# Mechanical properties :
#
#
# Convention : Reuss Voigt Hill
#
# Bulk Modulus (GPa) = 27.54635 72.26807 49.90721
# Shear Modulus (GPa) = 26.51726 12.49222 19.50474
#
# Velocity S-wave (km/s) = 3.61392 2.48047 3.09945
# Velocity P-wave (km/s) = 5.56607 6.61796 6.11468
#
# Compressibility (1/GPa) = 0.03630245
#
# Stress axis : x y z
#
# Youngs Moduli (GPa) = 39.06625 56.31852 151.98622
#
# Poissons Ratio (x) = -0.12206 0.27742
# Poissons Ratio (y) = -0.08467 1.08782
# Poissons Ratio (z) = 0.07131 0.40309
#
# Static dielectric constant tensor:
#      x y z
#    x 1.769880 0.000000 0.000000 
#    y 0.000000 1.692740 0.000000 
#    z 0.000000 0.000000 1.796380 
# 
# From -- ./inp_files/76509.got.cif
#   From: 2010.05.17/outbox.cif.g08.bks.cpg/sg65_39_cif.got.tgz:76509.got - 2010.06.03 17:01:31.
