data_PCOD9493441
_publ_section_title
;
Structure prediction by ZEFSAII (Michael W. Deem and Ramdas Pophale) SiO2 
 PCOD9493441
Probable space group: C M M M
;
_chemical_formula_sum "Si O2"
_cell_formula_units_Z 72
_cell_length_a 15.994711
_cell_length_b 8.725668
_cell_length_c 25.659334
_cell_angle_alpha 90.000000
_cell_angle_beta 90.000000
_cell_angle_gamma 90.000000
_cell_volume 3581.133094
_symmetry_space_group_name_H-M "C M M M"
_symmetry_group_IT_number 65
_symmetry_cell_setting 'orthorhombic'
loop_
_space_group_symop_operation_xyz
x,y,z
-x,-y,z
x,-y,-z
-x,y,-z
-x,-y,-z
x,y,-z
-x,y,z
x,-y,z
1/2+x,1/2+y,z
1/2-x,1/2-y,z
1/2+x,1/2-y,-z
1/2-x,1/2+y,-z
1/2-x,1/2-y,-z
1/2+x,1/2+y,-z
1/2-x,1/2+y,z
1/2+x,1/2-y,z
loop_
_atom_site_type_symbol
_atom_site_label
_atom_site_fract_x
_atom_site_fract_y
_atom_site_fract_z
Si Si1 0.902083 0.677665 0.229932
Si Si2 0.000000 0.186853 0.059865
Si Si3 0.844709 0.683815 0.443010
Si Si4 0.844051 0.182624 0.336822
Si Si5 0.662600 0.683497 0.124858
O O1 0.876267 0.500000 0.234352
O O2 0.889150 0.759208 0.285112
O O3 0.852316 0.758336 0.183625
O O4 0.000000 0.683657 0.216357
O O5 0.916536 0.234981 0.090363
O O6 0.000000 0.000000 0.060050
O O7 0.000000 0.237601 0.000000
O O8 0.882478 0.720025 0.500000
O O9 0.841218 0.500000 0.437944
O O10 0.750000 0.750000 0.444393
O O11 0.883092 0.754393 0.390752
O O12 0.750000 0.250000 0.333796
O O13 0.840788 0.000000 0.338516
O O14 0.665578 0.500000 0.124691
O O15 0.750000 0.750000 0.105178
#
# Coordination Sequence:
#
# PCOD9493441 Si02
#       5
#    16   8  16  16  16
#     4  11  23  39  59  82 113 150 193 245 302 361
#     4   9  20  40  65  93 129 171 210 251 300 355
#     4   9  16  27  45  70 102 139 181 231 288 348
#     4  11  21  33  52  78 110 144 186 236 290 354
#     4  11  22  39  64  93 126 164 208 253 303 360
#
# _framework density 20.105369
#
# number of rings (size 3 to 8) (size 9 to 14) (size 15 to 20)
#    0.000    1.667    1.111    6.000    0.000    3.111 
#    0.000    0.000    0.000    5.333    0.000    4.667 
#    0.000    0.000    0.000    0.000    0.000    0.000 
#
# Total GULP energy -201113.226361 kJ/mol
# GULP energy per Si atom -5586.478510 kJ/mol
# Density = 2.005961 g / cm^3
# Si number density = 20.105369 Si / 1000 Ang^3
#
#
#
# Elastic Constant Matrix: (Units=GPa)
#
#
# Indices 1 2 3 4 5 6 
#
# 1 93.5899 36.7339 56.7878 0.0000 0.0000 0.0000
# 2 36.7339 115.8211 47.1598 0.0000 0.0000 0.0000
# 3 56.7878 47.1598 155.6408 0.0000 0.0000 0.0000
# 4 0.0000 0.0000 0.0000 16.1036 0.0000 0.0000
# 5 0.0000 0.0000 0.0000 0.0000 15.5666 0.0000
# 6 0.0000 0.0000 0.0000 0.0000 0.0000 21.0869
#
#
#
# Elastic Compliance Matrix: (Units=1/GPa)
#
#
# Indices 1 2 3 4 5 6 
#
# 1 0.014469 -0.002783 -0.004436 0.000000 0.000000 0.000000
# 2 -0.002783 0.010384 -0.002131 0.000000 0.000000 0.000000
# 3 -0.004436 -0.002131 0.008689 0.000000 0.000000 0.000000
# 4 0.000000 0.000000 0.000000 0.062098 0.000000 0.000000
# 5 0.000000 0.000000 0.000000 0.000000 0.064240 0.000000
# 6 0.000000 0.000000 0.000000 0.000000 0.000000 0.047423
#
#
# Mechanical properties :
#
#
# Convention : Reuss Voigt Hill
#
# Bulk Modulus (GPa) = 67.37311 71.82390 69.59850
# Shear Modulus (GPa) = 21.64966 25.50944 23.57955
#
# Velocity S-wave (km/s) = 3.28504 3.56587 3.42833
# Velocity P-wave (km/s) = 6.92614 7.26328 7.09671
#
# Compressibility (1/GPa) = 0.01484272
#
# Stress axis : x y z
#
# Youngs Moduli (GPa) = 69.11457 96.29888 115.08360
#
# Poissons Ratio (x) = 0.26797 0.51051
# Poissons Ratio (y) = 0.19232 0.24527
# Poissons Ratio (z) = 0.30659 0.20523
#
# Static dielectric constant tensor:
#      x y z
#    x 1.739570 0.000000 0.000000 
#    y 0.000000 1.676880 0.000000 
#    z 0.000000 0.000000 1.724890 
# 
# From -- ./inp_files/74615.got.cif
#   From: 2010.05.17/outbox.cif.g08.bks.cpg/sg65_38_cif.got.tgz:74615.got - 2010.06.03 17:01:31.
