data_PCOD9493757
_publ_section_title
;
Structure prediction by ZEFSAII (Michael W. Deem and Ramdas Pophale) SiO2 
 PCOD9493757
Probable space group: C M M M
;
_chemical_formula_sum "Si O2"
_cell_formula_units_Z 72
_cell_length_a 7.647060
_cell_length_b 16.223807
_cell_length_c 26.334203
_cell_angle_alpha 90.000000
_cell_angle_beta 90.000000
_cell_angle_gamma 90.000000
_cell_volume 3267.137768
_symmetry_space_group_name_H-M "C M M M"
_symmetry_group_IT_number 65
_symmetry_cell_setting 'orthorhombic'
loop_
_space_group_symop_operation_xyz
x,y,z
-x,-y,z
x,-y,-z
-x,y,-z
-x,-y,-z
x,y,-z
-x,y,z
x,-y,z
1/2+x,1/2+y,z
1/2-x,1/2-y,z
1/2+x,1/2-y,-z
1/2-x,1/2+y,-z
1/2-x,1/2-y,-z
1/2+x,1/2+y,-z
1/2-x,1/2+y,z
1/2+x,1/2-y,z
loop_
_atom_site_type_symbol
_atom_site_label
_atom_site_fract_x
_atom_site_fract_y
_atom_site_fract_z
Si Si1 0.298353 0.098964 0.837319
Si Si2 0.789572 0.652994 0.054685
Si Si3 0.706134 0.341534 0.620178
Si Si4 0.785109 0.000000 0.558678
Si Si5 0.290311 0.094267 0.728759
O O1 0.500000 0.129448 0.839310
O O2 0.218136 0.120276 0.891804
O O3 0.220987 0.126641 0.783149
O O4 0.302471 0.000000 0.833593
O O5 0.750000 0.750000 0.054544
O O6 0.000000 0.639352 0.054747
O O7 0.725046 0.619579 0.000000
O O8 0.500000 0.349380 0.617508
O O9 0.750000 0.250000 0.601996
O O10 0.778443 0.418031 0.587762
O O11 0.755155 0.353093 0.679084
O O12 0.733005 0.000000 0.500000
O O13 0.000000 0.000000 0.559564
O O14 0.500000 0.089537 0.734510
O O15 0.226189 0.000000 0.719965
#
# Coordination Sequence:
#
# PCOD9493757 Si02
#       5
#    16  16  16   8  16
#     4   8  15  28  47  72  98 126 163 209 260 309
#     4   9  17  29  45  64  89 123 163 207 255 307
#     4  11  22  37  59  87 116 149 189 229 272 325
#     4   9  20  40  63  85 115 153 186 225 276 322
#     4   9  17  32  54  77 107 143 177 220 274 328
#
# _framework density 22.037638999999999
#
# number of rings (size 3 to 8) (size 9 to 14) (size 15 to 20)
#    0.000    2.778    1.111    2.000    0.000    1.778 
#    0.000    5.556    0.000    6.667    0.000    3.111 
#    0.000    0.000    0.000    0.000    0.000    0.000 
#
# Total GULP energy -200682.332551 kJ/mol
# GULP energy per Si atom -5574.509238 kJ/mol
# Density = 2.198748 g / cm^3
# Si number density = 22.037639 Si / 1000 Ang^3
#
#
#
# Elastic Constant Matrix: (Units=GPa)
#
#
# Indices 1 2 3 4 5 6 
#
# 1 46.2740 0.5674 9.5473 0.0000 0.0000 0.0000
# 2 0.5674 88.6310 79.7375 0.0000 0.0000 0.0000
# 3 9.5473 79.7375 203.1739 0.0000 0.0000 0.0000
# 4 0.0000 0.0000 0.0000 -0.6749 0.0000 0.0000
# 5 0.0000 0.0000 0.0000 0.0000 12.2956 0.0000
# 6 0.0000 0.0000 0.0000 0.0000 0.0000 8.2356
#
#
#
# Elastic Compliance Matrix: (Units=1/GPa)
#
#
# Indices 1 2 3 4 5 6 
#
# 1 0.021906 0.001215 -0.001506 0.000000 0.000000 0.000000
# 2 0.001215 0.017508 -0.006928 0.000000 0.000000 0.000000
# 3 -0.001506 -0.006928 0.007712 0.000000 0.000000 0.000000
# 4 0.000000 0.000000 0.000000 -1.481649 0.000000 0.000000
# 5 0.000000 0.000000 0.000000 0.000000 0.081330 0.000000
# 6 0.000000 0.000000 0.000000 0.000000 0.000000 0.121424
#
#
# Mechanical properties :
#
#
# Convention : Reuss Voigt Hill
#
# Bulk Modulus (GPa) = 30.59343 57.53148 44.06245
# Shear Modulus (GPa) = -4.14445 20.51969 8.18762
#
# Velocity S-wave (km/s) = -1.37285 3.05474 1.92960
# Velocity P-wave (km/s) = 3.37632 6.21326 5.00021
#
# Compressibility (1/GPa) = 0.03268676
#
# Stress axis : x y z
#
# Youngs Moduli (GPa) = 45.64905 57.11662 129.67250
#
# Poissons Ratio (x) = -0.06938 0.19531
# Poissons Ratio (y) = -0.05545 0.89841
# Poissons Ratio (z) = 0.06875 0.39572
#
# Static dielectric constant tensor:
#      x y z
#    x 1.858820 0.000000 0.000000 
#    y 0.000000 1.780560 0.000000 
#    z 0.000000 0.000000 1.873590 
# 
# From -- ./inp_files/72491.got.cif
#   From: 2010.05.17/outbox.cif.g08.bks.cpg/sg65_37_cif.got.tgz:72491.got - 2010.06.03 17:01:31.
