data_PCOD9493716
_publ_section_title
;
Structure prediction by ZEFSAII (Michael W. Deem and Ramdas Pophale) SiO2 
 PCOD9493716
Probable space group: C M M M
;
_chemical_formula_sum "Si O2"
_cell_formula_units_Z 68
_cell_length_a 21.357000
_cell_length_b 7.468358
_cell_length_c 20.107363
_cell_angle_alpha 90.000000
_cell_angle_beta 90.000000
_cell_angle_gamma 90.000000
_cell_volume 3207.159019
_symmetry_space_group_name_H-M "C M M M"
_symmetry_group_IT_number 65
_symmetry_cell_setting 'orthorhombic'
loop_
_space_group_symop_operation_xyz
x,y,z
-x,-y,z
x,-y,-z
-x,y,-z
-x,-y,-z
x,y,-z
-x,y,z
x,-y,z
1/2+x,1/2+y,z
1/2-x,1/2-y,z
1/2+x,1/2-y,-z
1/2-x,1/2+y,-z
1/2-x,1/2-y,-z
1/2+x,1/2+y,-z
1/2-x,1/2+y,z
1/2+x,1/2-y,z
loop_
_atom_site_type_symbol
_atom_site_label
_atom_site_fract_x
_atom_site_fract_y
_atom_site_fract_z
Si Si1 0.105321 0.293747 0.796695
Si Si2 0.000000 0.000000 0.234322
Si Si3 0.322598 0.214014 0.074660
Si Si4 0.179390 0.787081 0.326212
Si Si5 0.930305 0.218238 0.577105
O O1 0.083193 0.500000 0.802696
O O2 0.130468 0.225599 0.867998
O O3 0.163377 0.292256 0.745558
O O4 0.054369 0.157651 0.768481
O O5 0.250000 0.250000 0.091118
O O6 0.329390 0.000000 0.072453
O O7 0.334435 0.284441 0.000000
O O8 0.250000 0.750000 0.347782
O O9 0.126518 0.719841 0.377436
O O10 0.172676 0.000000 0.321449
O O11 0.923064 0.270527 0.500000
O O12 0.000000 0.273395 0.600030
O O13 0.930249 0.000000 0.578699
#
# Coordination Sequence:
#
# PCOD9493716 Si02
#       5
#    16   4  16  16  16
#     4  11  24  42  64  92 127 163 211 262 315 374
#     4  12  26  44  65  92 125 174 206 254 318 384
#     4   9  19  36  61  91 123 162 208 261 316 370
#     4  11  22  36  60  90 126 165 211 265 319 375
#     4   8  16  32  56  85 118 162 212 260 313 373
#
# _framework density 21.202565
#
# number of rings (size 3 to 8) (size 9 to 14) (size 15 to 20)
#    0.000    2.118    1.176    2.471    3.294    2.353 
#    0.000    1.176    0.000    4.941    0.000    6.588 
#    0.000    0.000    0.000    0.000    0.000    0.000 
#
# Total GULP energy -189395.798464 kJ/mol
# GULP energy per Si atom -5570.464661 kJ/mol
# Density = 2.115431 g / cm^3
# Si number density = 21.202565 Si / 1000 Ang^3
#
#
#
# Elastic Constant Matrix: (Units=GPa)
#
#
# Indices 1 2 3 4 5 6 
#
# 1 138.4665 17.4143 55.0981 0.0000 0.0000 0.0000
# 2 17.4143 100.8888 6.9263 0.0000 0.0000 0.0000
# 3 55.0981 6.9263 76.0745 0.0000 0.0000 0.0000
# 4 0.0000 0.0000 0.0000 16.9774 0.0000 0.0000
# 5 0.0000 0.0000 0.0000 0.0000 -27.4924 0.0000
# 6 0.0000 0.0000 0.0000 0.0000 0.0000 72.5440
#
#
#
# Elastic Compliance Matrix: (Units=1/GPa)
#
#
# Indices 1 2 3 4 5 6 
#
# 1 0.010306 -0.001274 -0.007348 0.000000 0.000000 0.000000
# 2 -0.001274 0.010132 0.000001 0.000000 0.000000 0.000000
# 3 -0.007348 0.000001 0.018467 0.000000 0.000000 0.000000
# 4 0.000000 0.000000 0.000000 0.058902 0.000000 0.000000
# 5 0.000000 0.000000 0.000000 0.000000 -0.036374 0.000000
# 6 0.000000 0.000000 0.000000 0.000000 0.000000 0.013785
#
#
# Mechanical properties :
#
#
# Convention : Reuss Voigt Hill
#
# Bulk Modulus (GPa) = 46.16665 52.70079 49.43372
# Shear Modulus (GPa) = 50.15885 28.13853 39.14869
#
# Velocity S-wave (km/s) = 4.86912 3.64693 4.30165
# Velocity P-wave (km/s) = 7.30975 6.53018 6.93094
#
# Compressibility (1/GPa) = 0.02166066
#
# Stress axis : x y z
#
# Youngs Moduli (GPa) = 97.02778 98.69866 54.15006
#
# Poissons Ratio (x) = 0.12579 0.39792
# Poissons Ratio (y) = 0.12366 -0.00003
# Poissons Ratio (z) = 0.71301 -0.00006
#
# Static dielectric constant tensor:
#      x y z
#    x 1.703090 0.000000 0.000000 
#    y 0.000000 1.799970 0.000000 
#    z 0.000000 0.000000 1.793090 
# 
# From -- ./inp_files/49226.got.cif
#   From: 2010.05.17/outbox.cif.g08.bks.cpg/sg65_25_cif.got.tgz:49226.got - 2010.06.03 17:01:31.
