data_PCOD9493948
_publ_section_title
;
Structure prediction by ZEFSAII (Michael W. Deem and Ramdas Pophale) SiO2 
 PCOD9493948
Probable space group: C M M M
;
_chemical_formula_sum "Si O2"
_cell_formula_units_Z 72
_cell_length_a 18.898780
_cell_length_b 8.368001
_cell_length_c 24.123082
_cell_angle_alpha 90.000000
_cell_angle_beta 90.000000
_cell_angle_gamma 90.000000
_cell_volume 3814.945043
_symmetry_space_group_name_H-M "C M M M"
_symmetry_group_IT_number 65
_symmetry_cell_setting 'orthorhombic'
loop_
_space_group_symop_operation_xyz
x,y,z
-x,-y,z
x,-y,-z
-x,y,-z
-x,-y,-z
x,y,-z
-x,y,z
x,-y,z
1/2+x,1/2+y,z
1/2-x,1/2-y,z
1/2+x,1/2-y,-z
1/2-x,1/2+y,-z
1/2-x,1/2-y,-z
1/2+x,1/2+y,-z
1/2-x,1/2+y,z
1/2+x,1/2-y,z
loop_
_atom_site_type_symbol
_atom_site_label
_atom_site_fract_x
_atom_site_fract_y
_atom_site_fract_z
Si Si1 0.330563 0.308224 0.893938
Si Si2 0.418317 0.192993 0.667025
Si Si3 0.081885 0.807350 0.212880
Si Si4 0.169488 0.306792 0.438779
Si Si5 0.081751 0.691671 0.000000
O O1 0.330292 0.500000 0.893920
O O2 0.250000 0.250000 0.897612
O O3 0.368872 0.251806 0.837418
O O4 0.376578 0.250610 0.945946
O O5 0.500000 0.244225 0.662030
O O6 0.392299 0.251812 0.726807
O O7 0.374908 0.250746 0.613857
O O8 0.416649 0.000000 0.667267
O O9 0.000000 0.752549 0.205733
O O10 0.081039 0.000000 0.212211
O O11 0.143002 0.256153 0.500000
O O12 0.168248 0.500000 0.437936
O O13 0.250000 0.250000 0.433855
O O14 0.081528 0.500000 0.000000
O O15 0.000000 0.747818 0.000000
#
# Coordination Sequence:
#
# PCOD9493948 Si02
#       5
#    16  16  16  16   8
#     4  11  23  39  59  83 113 146 181 221 265 314
#     4   9  18  32  51  75 101 131 169 214 261 307
#     4   9  19  36  56  77 103 138 177 215 259 312
#     4   9  18  32  49  70  98 132 169 209 255 309
#     4  11  24  41  62  87 113 143 180 221 266 315
#
# _framework density 18.873141
#
# number of rings (size 3 to 8) (size 9 to 14) (size 15 to 20)
#    0.000    2.333    0.000    2.000    0.000    5.778 
#    0.000    8.889    0.000    0.000    0.000    6.222 
#    0.000    0.000    0.000    0.000    0.000    0.000 
#
# Total GULP energy -200913.539013 kJ/mol
# GULP energy per Si atom -5580.931639 kJ/mol
# Density = 1.883019 g / cm^3
# Si number density = 18.873141 Si / 1000 Ang^3
#
#
#
# Elastic Constant Matrix: (Units=GPa)
#
#
# Indices 1 2 3 4 5 6 
#
# 1 118.7614 20.3149 116.4959 0.0000 0.0000 0.0000
# 2 20.3149 18.3515 26.8410 0.0000 0.0000 0.0000
# 3 116.4959 26.8410 232.3826 0.0000 0.0000 0.0000
# 4 0.0000 0.0000 0.0000 29.7699 0.0000 0.0000
# 5 0.0000 0.0000 0.0000 0.0000 236.5503 0.0000
# 6 0.0000 0.0000 0.0000 0.0000 0.0000 19.2134
#
#
#
# Elastic Compliance Matrix: (Units=1/GPa)
#
#
# Indices 1 2 3 4 5 6 
#
# 1 0.017459 -0.007852 -0.007846 0.000000 0.000000 0.000000
# 2 -0.007852 0.069100 -0.004045 0.000000 0.000000 0.000000
# 3 -0.007846 -0.004045 0.008704 0.000000 0.000000 0.000000
# 4 0.000000 0.000000 0.000000 0.033591 0.000000 0.000000
# 5 0.000000 0.000000 0.000000 0.000000 0.004227 0.000000
# 6 0.000000 0.000000 0.000000 0.000000 0.000000 0.052047
#
#
# Mechanical properties :
#
#
# Convention : Reuss Voigt Hill
#
# Bulk Modulus (GPa) = 17.92850 77.42214 47.67532
# Shear Modulus (GPa) = 20.55871 70.82963 45.69417
#
# Velocity S-wave (km/s) = 3.30405 6.13276 4.92583
# Velocity P-wave (km/s) = 4.90671 9.55297 7.59391
#
# Compressibility (1/GPa) = 0.05577712
#
# Stress axis : x y z
#
# Youngs Moduli (GPa) = 57.27578 14.47185 114.89591
#
# Poissons Ratio (x) = 0.11364 0.90143
# Poissons Ratio (y) = 0.44975 0.46473
# Poissons Ratio (z) = 0.44936 0.05854
#
# Static dielectric constant tensor:
#      x y z
#    x 1.630990 0.000000 0.000000 
#    y 0.000000 1.653780 0.000000 
#    z 0.000000 0.000000 1.654510 
# 
# From -- ./inp_files/64352.got.cif
#   From: 2010.05.17/outbox.cif.g08.bks.cpg/sg65_33_cif.got.tgz:64352.got - 2010.06.03 17:01:31.
