data_PCOD9493222
_publ_section_title
;
Structure prediction by ZEFSAII (Michael W. Deem and Ramdas Pophale) SiO2 
 PCOD9493222
Probable space group: C M M M
;
_chemical_formula_sum "Si O2"
_cell_formula_units_Z 88
_cell_length_a 8.620453
_cell_length_b 23.833154
_cell_length_c 23.329968
_cell_angle_alpha 90.000000
_cell_angle_beta 90.000000
_cell_angle_gamma 90.000000
_cell_volume 4793.202208
_symmetry_space_group_name_H-M "C M M M"
_symmetry_group_IT_number 65
_symmetry_cell_setting 'orthorhombic'
loop_
_space_group_symop_operation_xyz
x,y,z
-x,-y,z
x,-y,-z
-x,y,-z
-x,-y,-z
x,y,-z
-x,y,z
x,-y,z
1/2+x,1/2+y,z
1/2-x,1/2-y,z
1/2+x,1/2-y,-z
1/2-x,1/2+y,-z
1/2-x,1/2-y,-z
1/2+x,1/2+y,-z
1/2-x,1/2+y,z
1/2+x,1/2-y,z
loop_
_atom_site_type_symbol
_atom_site_label
_atom_site_fract_x
_atom_site_fract_y
_atom_site_fract_z
Si Si1 0.313530 0.883555 0.827314
Si Si2 0.314477 0.687461 0.722180
Si Si3 0.312836 0.188574 0.065545
Si Si4 0.686576 0.500000 0.354352
Si Si5 0.685975 0.500000 0.219224
Si Si6 0.186788 0.619242 0.613976
Si Si7 0.813120 0.686863 0.500000
O O1 0.500000 0.885462 0.825149
O O2 0.251991 0.841011 0.779229
O O3 0.265263 0.858537 0.888910
O O4 0.248436 0.944446 0.811579
O O5 0.500000 0.687783 0.724100
O O6 0.250000 0.750000 0.716509
O O7 0.257040 0.651084 0.668513
O O8 0.500000 0.191222 0.066138
O O9 0.250000 0.250000 0.082170
O O10 0.262570 0.177312 0.000000
O O11 0.500000 0.500000 0.356713
O O12 0.732574 0.500000 0.286658
O O13 0.752501 0.555807 0.383566
O O14 0.500000 0.500000 0.217907
O O15 0.233864 0.652550 0.556666
O O16 0.000000 0.619383 0.617723
O O17 0.750000 0.750000 0.500000
O O18 0.000000 0.689947 0.500000
#
# Coordination Sequence:
#
# PCOD9493222 Si02
#       7
#    16  16  16   8   8  16   8
#     4  11  22  37  60  87 115 154 198 242 297 352
#     4  12  24  38  57  86 120 153 194 244 295 350
#     4   9  19  36  58  86 119 154 194 240 290 348
#     4  11  23  40  62  90 120 157 198 244 296 349
#     4  11  23  39  59  85 120 156 196 245 296 351
#     4  11  23  41  64  89 119 156 197 243 293 351
#     4  10  24  43  64  91 121 156 196 240 295 350
#
# _framework density 18.359335000000002
#
# number of rings (size 3 to 8) (size 9 to 14) (size 15 to 20)
#    0.000    1.273    1.818    4.364    0.000    6.909 
#    0.000    2.273    0.000    2.727    0.000    0.000 
#    0.000    0.000    0.000    0.000    0.000    0.000 
#
# Total GULP energy -245989.457178 kJ/mol
# GULP energy per Si atom -5590.669481 kJ/mol
# Density = 1.831755 g / cm^3
# Si number density = 18.359335 Si / 1000 Ang^3
#
#
#
# Elastic Constant Matrix: (Units=GPa)
#
#
# Indices 1 2 3 4 5 6 
#
# 1 59.5508 37.4602 32.1502 0.0000 0.0000 0.0000
# 2 37.4602 173.3564 73.0965 0.0000 0.0000 0.0000
# 3 32.1502 73.0965 116.5755 0.0000 0.0000 0.0000
# 4 0.0000 0.0000 0.0000 36.9177 0.0000 0.0000
# 5 0.0000 0.0000 0.0000 0.0000 -3.7794 0.0000
# 6 0.0000 0.0000 0.0000 0.0000 0.0000 40.4338
#
#
#
# Elastic Compliance Matrix: (Units=1/GPa)
#
#
# Indices 1 2 3 4 5 6 
#
# 1 0.020688 -0.002807 -0.003946 0.000000 0.000000 0.000000
# 2 -0.002807 0.008223 -0.004382 0.000000 0.000000 0.000000
# 3 -0.003946 -0.004382 0.012414 0.000000 0.000000 0.000000
# 4 0.000000 0.000000 0.000000 0.027087 0.000000 0.000000
# 5 0.000000 0.000000 0.000000 0.000000 -0.264591 0.000000
# 6 0.000000 0.000000 0.000000 0.000000 0.000000 0.024732
#
#
# Mechanical properties :
#
#
# Convention : Reuss Voigt Hill
#
# Bulk Modulus (GPa) = 52.47632 70.54408 61.51020
# Shear Modulus (GPa) = -35.00740 28.49947 -3.25396
#
# Velocity S-wave (km/s) = -4.37142 3.94422 -1.33275
# Velocity P-wave (km/s) = 1.77930 7.69740 5.58641
#
# Compressibility (1/GPa) = 0.01905622
#
# Stress axis : x y z
#
# Youngs Moduli (GPa) = 48.33694 121.61693 80.55579
#
# Poissons Ratio (x) = 0.34135 0.31784
# Poissons Ratio (y) = 0.13567 0.35297
# Poissons Ratio (z) = 0.19072 0.53289
#
# Static dielectric constant tensor:
#      x y z
#    x 1.616570 0.000000 0.000000 
#    y 0.000000 1.644070 0.000000 
#    z 0.000000 0.000000 1.628160 
# 
# From -- ./inp_files/59861.got.cif
#   From: 2010.05.17/outbox.cif.g08.bks.cpg/sg65_30_cif.got.tgz:59861.got - 2010.06.03 17:01:31.
