data_PCOD9493926
_publ_section_title
;
Structure prediction by ZEFSAII (Michael W. Deem and Ramdas Pophale) SiO2 
 PCOD9493926
Probable space group: C M M M
;
_chemical_formula_sum "Si O2"
_cell_formula_units_Z 104
_cell_length_a 28.530373
_cell_length_b 22.778425
_cell_length_c 8.902859
_cell_angle_alpha 90.000000
_cell_angle_beta 90.000000
_cell_angle_gamma 90.000000
_cell_volume 5785.762956
_symmetry_space_group_name_H-M "C M M M"
_symmetry_group_IT_number 65
_symmetry_cell_setting 'orthorhombic'
loop_
_space_group_symop_operation_xyz
x,y,z
-x,-y,z
x,-y,-z
-x,y,-z
-x,-y,-z
x,y,-z
-x,y,z
x,-y,z
1/2+x,1/2+y,z
1/2-x,1/2-y,z
1/2+x,1/2-y,-z
1/2-x,1/2+y,-z
1/2-x,1/2-y,-z
1/2+x,1/2+y,-z
1/2-x,1/2+y,z
1/2+x,1/2-y,z
loop_
_atom_site_type_symbol
_atom_site_label
_atom_site_fract_x
_atom_site_fract_y
_atom_site_fract_z
Si Si1 0.556182 0.432546 0.332373
Si Si2 0.555205 0.774634 0.324815
Si Si3 0.103894 0.384008 0.820935
Si Si4 0.694639 0.824452 0.320182
Si Si5 0.606155 0.333766 0.172846
Si Si6 0.556093 0.000000 0.318705
Si Si7 0.301183 0.684578 0.320587
O O1 0.571082 0.411901 0.500000
O O2 0.500000 0.430987 0.330280
O O3 0.570787 0.500000 0.315494
O O4 0.575837 0.390899 0.205960
O O5 0.565557 0.786752 0.500000
O O6 0.500000 0.762702 0.310078
O O7 0.570161 0.830552 0.228080
O O8 0.584201 0.718697 0.270399
O O9 0.155132 0.362833 0.761383
O O10 0.082694 0.442651 0.745686
O O11 0.105144 0.390823 0.000000
O O12 0.688806 0.831532 0.500000
O O13 0.691586 0.754355 0.288569
O O14 0.748952 0.836857 0.281522
O O15 0.658290 0.346605 0.229719
O O16 0.605685 0.316382 0.000000
O O17 0.500000 0.000000 0.279185
O O18 0.558782 0.000000 0.500000
O O19 0.306614 0.677861 0.500000
#
# Coordination Sequence:
#
# PCOD9493926 Si02
#       7
#    16  16  16  16  16   8  16
#     4   9  19  37  59  79 103 144 194 234 271 328
#     4  11  23  38  56  79 112 154 196 235 277 336
#     4  12  24  38  60  90 121 151 186 241 305 353
#     4   9  18  35  60  86 112 149 192 232 275 337
#     4  12  23  33  52  85 119 149 181 230 291 342
#     4  11  25  45  67  87 113 159 211 249 288 353
#     4   9  18  34  58  85 114 150 192 232 273 331
#
# _framework density 17.975156999999999
#
# number of rings (size 3 to 8) (size 9 to 14) (size 15 to 20)
#    0.000    1.615    1.538    5.769    0.000    6.769 
#    0.000    2.308    1.692    0.000    0.000    0.000 
#    0.000    0.000    0.000    0.000    0.000    0.000 
#
# Total GULP energy -290296.449389 kJ/mol
# GULP energy per Si atom -5582.624027 kJ/mol
# Density = 1.793424 g / cm^3
# Si number density = 17.975157 Si / 1000 Ang^3
#
#
#
# Elastic Constant Matrix: (Units=GPa)
#
#
# Indices 1 2 3 4 5 6 
#
# 1 112.4037 40.3391 51.2265 0.0000 0.0000 0.0000
# 2 40.3391 40.4058 24.8224 0.0000 0.0000 0.0000
# 3 51.2265 24.8224 75.0197 0.0000 0.0000 0.0000
# 4 0.0000 0.0000 0.0000 13.1548 0.0000 0.0000
# 5 0.0000 0.0000 0.0000 0.0000 -29.8422 0.0000
# 6 0.0000 0.0000 0.0000 0.0000 0.0000 8.6233
#
#
#
# Elastic Compliance Matrix: (Units=1/GPa)
#
#
# Indices 1 2 3 4 5 6 
#
# 1 0.016548 -0.012023 -0.007321 0.000000 0.000000 0.000000
# 2 -0.012023 0.039798 -0.004959 0.000000 0.000000 0.000000
# 3 -0.007321 -0.004959 0.019970 0.000000 0.000000 0.000000
# 4 0.000000 0.000000 0.000000 0.076018 0.000000 0.000000
# 5 0.000000 0.000000 0.000000 0.000000 -0.033510 0.000000
# 6 0.000000 0.000000 0.000000 0.000000 0.000000 0.115965
#
#
# Mechanical properties :
#
#
# Convention : Reuss Voigt Hill
#
# Bulk Modulus (GPa) = 36.08799 51.17835 43.63317
# Shear Modulus (GPa) = 17.08631 5.81659 11.45145
#
# Velocity S-wave (km/s) = 3.08645 1.80081 2.52676
# Velocity P-wave (km/s) = 5.72902 5.73214 5.73058
#
# Compressibility (1/GPa) = 0.02771005
#
# Stress axis : x y z
#
# Youngs Moduli (GPa) = 60.43077 25.12684 50.07524
#
# Poissons Ratio (x) = 0.30209 0.36663
# Poissons Ratio (y) = 0.72654 0.24831
# Poissons Ratio (z) = 0.44244 0.12460
#
# Static dielectric constant tensor:
#      x y z
#    x 1.649860 0.000000 0.000000 
#    y 0.000000 1.604660 0.000000 
#    z 0.000000 0.000000 1.615790 
# 
# From -- ./inp_files/16523.got.cif
#   From: 2010.05.17/outbox.cif.g08.bks.cpg/sg65_9_cif.got.tgz:16523.got - 2010.06.03 17:01:31.
