data_PCOD9493774
_publ_section_title
;
Structure prediction by ZEFSAII (Michael W. Deem and Ramdas Pophale) SiO2 
 PCOD9493774
Probable space group: C M M M
;
_chemical_formula_sum "Si O2"
_cell_formula_units_Z 64
_cell_length_a 8.555329
_cell_length_b 15.026688
_cell_length_c 25.610756
_cell_angle_alpha 90.000000
_cell_angle_beta 90.000000
_cell_angle_gamma 90.000000
_cell_volume 3292.474219
_symmetry_space_group_name_H-M "C M M M"
_symmetry_group_IT_number 65
_symmetry_cell_setting 'orthorhombic'
loop_
_space_group_symop_operation_xyz
x,y,z
-x,-y,z
x,-y,-z
-x,y,-z
-x,-y,-z
x,y,-z
-x,y,z
x,-y,z
1/2+x,1/2+y,z
1/2-x,1/2-y,z
1/2+x,1/2-y,-z
1/2-x,1/2+y,-z
1/2-x,1/2-y,-z
1/2+x,1/2+y,-z
1/2-x,1/2+y,z
1/2+x,1/2-y,z
loop_
_atom_site_type_symbol
_atom_site_label
_atom_site_fract_x
_atom_site_fract_y
_atom_site_fract_z
Si Si1 0.687684 0.648649 0.745618
Si Si2 0.308791 0.500000 0.059804
Si Si3 0.311456 0.649870 0.860616
Si Si4 0.186015 0.649182 0.636157
Si Si5 0.812478 0.000000 0.439465
O O1 0.500000 0.647244 0.741029
O O2 0.750000 0.750000 0.747022
O O3 0.731492 0.612755 0.802902
O O4 0.758528 0.611239 0.692426
O O5 0.500000 0.500000 0.059405
O O6 0.258579 0.413999 0.092925
O O7 0.256138 0.500000 0.000000
O O8 0.500000 0.653127 0.861420
O O9 0.250000 0.750000 0.866068
O O10 0.250000 0.750000 0.631243
O O11 0.249324 0.586238 0.590777
O O12 0.000000 0.652052 0.635347
O O13 0.764584 0.000000 0.500000
O O14 0.000000 0.000000 0.436902
#
# Coordination Sequence:
#
# PCOD9493774 Si02
#       5
#    16   8  16  16   8
#     4   9  16  29  51  79 110 140 176 220 270 329
#     4   9  18  33  51  72 100 137 182 223 264 323
#     4   9  18  32  52  77 104 138 176 219 270 321
#     4  11  22  38  61  88 118 150 185 227 279 334
#     4  11  25  44  63  84 112 149 194 237 276 323
#
# _framework density 19.438268999999998
#
# number of rings (size 3 to 8) (size 9 to 14) (size 15 to 20)
#    0.000    2.250    0.000    4.875    0.000    4.000 
#    0.000    3.125    0.000    0.750    0.000    0.000 
#    0.000    0.000    0.000    0.000    0.000    0.000 
#
# Total GULP energy -178581.241341 kJ/mol
# GULP energy per Si atom -5580.663792 kJ/mol
# Density = 1.939403 g / cm^3
# Si number density = 19.438269 Si / 1000 Ang^3
#
#
#
# Elastic Constant Matrix: (Units=GPa)
#
#
# Indices 1 2 3 4 5 6 
#
# 1 69.7258 28.1134 58.7693 0.0000 0.0000 0.0000
# 2 28.1134 112.7275 94.9454 0.0000 0.0000 0.0000
# 3 58.7693 94.9454 233.3714 0.0000 0.0000 0.0000
# 4 0.0000 0.0000 0.0000 35.8138 0.0000 0.0000
# 5 0.0000 0.0000 0.0000 0.0000 21.4941 0.0000
# 6 0.0000 0.0000 0.0000 0.0000 0.0000 15.2637
#
#
#
# Elastic Compliance Matrix: (Units=1/GPa)
#
#
# Indices 1 2 3 4 5 6 
#
# 1 0.018286 -0.001037 -0.004183 0.000000 0.000000 0.000000
# 2 -0.001037 0.013554 -0.005253 0.000000 0.000000 0.000000
# 3 -0.004183 -0.005253 0.007476 0.000000 0.000000 0.000000
# 4 0.000000 0.000000 0.000000 0.027922 0.000000 0.000000
# 5 0.000000 0.000000 0.000000 0.000000 0.046524 0.000000
# 6 0.000000 0.000000 0.000000 0.000000 0.000000 0.065515
#
#
# Mechanical properties :
#
#
# Convention : Reuss Voigt Hill
#
# Bulk Modulus (GPa) = 54.44013 86.60898 70.52456
# Shear Modulus (GPa) = 24.23111 30.11411 27.17261
#
# Velocity S-wave (km/s) = 3.53451 3.94028 3.74290
# Velocity P-wave (km/s) = 6.68763 8.08416 7.41883
#
# Compressibility (1/GPa) = 0.01836880
#
# Stress axis : x y z
#
# Youngs Moduli (GPa) = 54.68765 73.77801 133.76891
#
# Poissons Ratio (x) = 0.07653 0.55953
# Poissons Ratio (y) = 0.05673 0.70271
# Poissons Ratio (z) = 0.22875 0.38757
#
# Static dielectric constant tensor:
#      x y z
#    x 1.650510 0.000000 0.000000 
#    y 0.000000 1.721230 0.000000 
#    z 0.000000 0.000000 1.701080 
# 
# From -- ./inp_files/66770.got.cif
#   From: 2010.05.17/outbox.cif.g08.bks.cpg/sg65_34_cif.got.tgz:66770.got - 2010.06.03 17:01:31.
