data_PCOD9493177
_publ_section_title
;
Structure prediction by ZEFSAII (Michael W. Deem and Ramdas Pophale) SiO2 
 PCOD9493177
Probable space group: C M M M
;
_chemical_formula_sum "Si O2"
_cell_formula_units_Z 36
_cell_length_a 18.660079
_cell_length_b 11.015201
_cell_length_c 7.360260
_cell_angle_alpha 90.000000
_cell_angle_beta 90.000000
_cell_angle_gamma 90.000000
_cell_volume 1512.861115
_symmetry_space_group_name_H-M "C M M M"
_symmetry_group_IT_number 65
_symmetry_cell_setting 'orthorhombic'
loop_
_space_group_symop_operation_xyz
x,y,z
-x,-y,z
x,-y,-z
-x,y,-z
-x,-y,-z
x,y,-z
-x,y,z
x,-y,z
1/2+x,1/2+y,z
1/2-x,1/2-y,z
1/2+x,1/2-y,-z
1/2-x,1/2+y,-z
1/2-x,1/2-y,-z
1/2+x,1/2+y,-z
1/2-x,1/2+y,z
1/2+x,1/2-y,z
loop_
_atom_site_type_symbol
_atom_site_label
_atom_site_fract_x
_atom_site_fract_y
_atom_site_fract_z
Si Si1 0.705483 0.134497 0.718016
Si Si2 0.415949 0.298556 0.788387
Si Si3 0.628672 0.500000 0.500000
O O1 0.717176 0.129374 0.500000
O O2 0.750000 0.250000 0.789315
O O3 0.623716 0.170905 0.757259
O O4 0.723127 0.000000 0.786439
O O5 0.500000 0.296635 0.741141
O O6 0.378068 0.394485 0.657553
O O7 0.409943 0.331729 0.000000
#
# Coordination Sequence:
#
# PCOD9493177 Si02
#       3
#    16  16   4
#     4  10  23  42  68 100 136 180 226 277 339 402
#     4  11  24  41  67 101 135 178 228 276 336 403
#     4  12  23  42  68 100 142 180 219 282 339 394
#
# _framework density 23.795973
#
# number of rings (size 3 to 8) (size 9 to 14) (size 15 to 20)
#    0.000    1.333    2.222    2.667    3.111    4.444 
#    0.000    4.444    0.000    0.000    0.000    0.000 
#    0.000    0.000    0.000    0.000    0.000    0.000 
#
# Total GULP energy -100236.210865 kJ/mol
# GULP energy per Si atom -5568.678381 kJ/mol
# Density = 2.374181 g / cm^3
# Si number density = 23.795973 Si / 1000 Ang^3
#
#
#
# Elastic Constant Matrix: (Units=GPa)
#
#
# Indices 1 2 3 4 5 6 
#
# 1 73.8327 51.4499 18.0180 0.0000 0.0000 0.0000
# 2 51.4499 203.5251 46.9532 0.0000 0.0000 0.0000
# 3 18.0180 46.9532 125.0053 0.0000 0.0000 0.0000
# 4 0.0000 0.0000 0.0000 -94.9170 0.0000 0.0000
# 5 0.0000 0.0000 0.0000 0.0000 24.3393 0.0000
# 6 0.0000 0.0000 0.0000 0.0000 0.0000 -3.3328
#
#
#
# Elastic Compliance Matrix: (Units=1/GPa)
#
#
# Indices 1 2 3 4 5 6 
#
# 1 0.016530 -0.003973 -0.000890 0.000000 0.000000 0.000000
# 2 -0.003973 0.006335 -0.001807 0.000000 0.000000 0.000000
# 3 -0.000890 -0.001807 0.008807 0.000000 0.000000 0.000000
# 4 0.000000 0.000000 0.000000 -0.010536 0.000000 0.000000
# 5 0.000000 0.000000 0.000000 0.000000 0.041086 0.000000
# 6 0.000000 0.000000 0.000000 0.000000 0.000000 -0.300048
#
#
# Mechanical properties :
#
#
# Convention : Reuss Voigt Hill
#
# Bulk Modulus (GPa) = 54.55241 70.57836 62.56538
# Shear Modulus (GPa) = -22.89633 4.28071 -9.30781
#
# Velocity S-wave (km/s) = -3.10529 1.34269 -1.97990
# Velocity P-wave (km/s) = 3.18084 5.66815 4.59596
#
# Compressibility (1/GPa) = 0.01833100
#
# Stress axis : x y z
#
# Youngs Moduli (GPa) = 60.49539 157.86249 113.55165
#
# Poissons Ratio (x) = 0.62724 0.10108
# Poissons Ratio (y) = 0.24037 0.20515
# Poissons Ratio (z) = 0.05385 0.28520
#
# Static dielectric constant tensor:
#      x y z
#    x 2.013650 0.000000 0.000000 
#    y 0.000000 1.878630 0.000000 
#    z 0.000000 0.000000 1.863110 
# 
# From -- ./inp_files/2436.got.cif
#   From: 2010.05.17/outbox.cif.g08.bks.cpg/sg65_2_cif.got.tgz:2436.got - 2010.06.03 17:01:31.
