data_PCOD9493040
_publ_section_title
;
Structure prediction by ZEFSAII (Michael W. Deem and Ramdas Pophale) SiO2 
 PCOD9493040
Probable space group: C M M M
;
_chemical_formula_sum "Si O2"
_cell_formula_units_Z 116
_cell_length_a 24.294539
_cell_length_b 27.349474
_cell_length_c 7.894198
_cell_angle_alpha 90.000000
_cell_angle_beta 90.000000
_cell_angle_gamma 90.000000
_cell_volume 5245.243518
_symmetry_space_group_name_H-M "C M M M"
_symmetry_group_IT_number 65
_symmetry_cell_setting 'orthorhombic'
loop_
_space_group_symop_operation_xyz
x,y,z
-x,-y,z
x,-y,-z
-x,y,-z
-x,-y,-z
x,y,-z
-x,y,z
x,-y,z
1/2+x,1/2+y,z
1/2-x,1/2-y,z
1/2+x,1/2-y,-z
1/2-x,1/2+y,-z
1/2-x,1/2-y,-z
1/2+x,1/2+y,-z
1/2-x,1/2+y,z
1/2+x,1/2-y,z
loop_
_atom_site_type_symbol
_atom_site_label
_atom_site_fract_x
_atom_site_fract_y
_atom_site_fract_z
Si Si1 0.225704 0.099256 0.296241
Si Si2 0.275286 0.198696 0.200423
Si Si3 0.838935 0.553844 0.701469
Si Si4 0.073034 0.000000 0.000000
Si Si5 0.396122 0.214829 0.306522
Si Si6 0.936067 0.819044 0.798760
Si Si7 0.102701 0.074602 0.699884
Si Si8 0.558984 0.882303 0.804513
O O1 0.227020 0.100032 0.500000
O O2 0.233543 0.154836 0.236835
O O3 0.280217 0.072097 0.229589
O O4 0.167879 0.074596 0.252470
O O5 0.250000 0.250000 0.253379
O O6 0.333865 0.194992 0.290800
O O7 0.286618 0.199862 0.000000
O O8 0.831371 0.550492 0.500000
O O9 0.852389 0.500000 0.768295
O O10 0.888532 0.590868 0.728986
O O11 0.074046 0.957632 0.153808
O O12 0.413885 0.213204 0.500000
O O13 0.401759 0.270387 0.244752
O O14 0.432607 0.175891 0.206795
O O15 0.915977 0.868859 0.712039
O O16 0.000000 0.809909 0.753437
O O17 0.932470 0.826776 0.000000
O O18 0.096187 0.059413 0.500000
O O19 0.500000 0.895454 0.725936
O O20 0.558170 0.896468 0.000000
#
# Coordination Sequence:
#
# PCOD9493040 Si02
#       8
#    16  16  16   4  16  16  16  16
#     4  10  22  40  64  96 133 172 219 277 333 396
#     4  11  23  37  59  91 131 175 217 264 326 399
#     4  10  22  41  64  92 126 167 215 270 332 394
#     4  12  26  48  73 108 142 178 235 282 346 412
#     4  12  24  39  63  96 132 174 224 273 332 403
#     4  11  24  45  71 101 139 179 226 284 342 409
#     4  11  25  46  73 105 142 183 229 285 345 411
#     4  11  24  42  62  89 126 167 218 277 330 387
#
# _framework density 22.115273999999999
#
# number of rings (size 3 to 8) (size 9 to 14) (size 15 to 20)
#    0.000    1.103    2.069    3.931    1.931    7.724 
#    0.000    2.069    0.000    0.828    0.000    0.000 
#    0.000    0.000    0.000    0.000    0.000    0.000 
#
# Total GULP energy -323684.707621 kJ/mol
# GULP energy per Si atom -5580.770821 kJ/mol
# Density = 2.206494 g / cm^3
# Si number density = 22.115274 Si / 1000 Ang^3
#
#
#
# Elastic Constant Matrix: (Units=GPa)
#
#
# Indices 1 2 3 4 5 6 
#
# 1 50.1376 -2.9077 13.2264 0.0000 0.0000 0.0000
# 2 -2.9077 104.6268 10.4704 0.0000 0.0000 0.0000
# 3 13.2264 10.4704 66.1318 0.0000 0.0000 0.0000
# 4 0.0000 0.0000 0.0000 32.0119 0.0000 0.0000
# 5 0.0000 0.0000 0.0000 0.0000 17.0972 0.0000
# 6 0.0000 0.0000 0.0000 0.0000 0.0000 -24.1993
#
#
#
# Elastic Compliance Matrix: (Units=1/GPa)
#
#
# Indices 1 2 3 4 5 6 
#
# 1 0.021164 0.001028 -0.004396 0.000000 0.000000 0.000000
# 2 0.001028 0.009762 -0.001751 0.000000 0.000000 0.000000
# 3 -0.004396 -0.001751 0.016278 0.000000 0.000000 0.000000
# 4 0.000000 0.000000 0.000000 0.031238 0.000000 0.000000
# 5 0.000000 0.000000 0.000000 0.000000 0.058489 0.000000
# 6 0.000000 0.000000 0.000000 0.000000 0.000000 -0.041324
#
#
# Mechanical properties :
#
#
# Convention : Reuss Voigt Hill
#
# Bulk Modulus (GPa) = 27.05174 29.16383 28.10779
# Shear Modulus (GPa) = 42.31303 18.32245 30.31774
#
# Velocity S-wave (km/s) = 4.37887 2.88149 3.70658
# Velocity P-wave (km/s) = 6.15018 4.92813 5.57275
#
# Compressibility (1/GPa) = 0.03696619
#
# Stress axis : x y z
#
# Youngs Moduli (GPa) = 47.24936 102.44225 61.43375
#
# Poissons Ratio (x) = -0.10532 0.27004
# Poissons Ratio (y) = -0.04858 0.10758
# Poissons Ratio (z) = 0.20769 0.17939
#
# Static dielectric constant tensor:
#      x y z
#    x 1.853890 0.000000 0.000000 
#    y 0.000000 1.804200 0.000000 
#    z 0.000000 0.000000 1.786640 
# 
# From -- ./inp_files/16907.got.cif
#   From: 2010.05.17/outbox.cif.g08.bks.cpg/sg65_9_cif.got.tgz:16907.got - 2010.06.03 17:01:31.
