data_PCOD9493710
_publ_section_title
;
Structure prediction by ZEFSAII (Michael W. Deem and Ramdas Pophale) SiO2 
 PCOD9493710
Probable space group: C M M M
;
_chemical_formula_sum "Si O2"
_cell_formula_units_Z 64
_cell_length_a 31.108351
_cell_length_b 9.887103
_cell_length_c 13.250334
_cell_angle_alpha 90.000000
_cell_angle_beta 90.000000
_cell_angle_gamma 90.000000
_cell_volume 4075.424713
_symmetry_space_group_name_H-M "C M M M"
_symmetry_group_IT_number 65
_symmetry_cell_setting 'orthorhombic'
loop_
_space_group_symop_operation_xyz
x,y,z
-x,-y,z
x,-y,-z
-x,y,-z
-x,-y,-z
x,y,-z
-x,y,z
x,-y,z
1/2+x,1/2+y,z
1/2-x,1/2-y,z
1/2+x,1/2-y,-z
1/2-x,1/2+y,-z
1/2-x,1/2-y,-z
1/2+x,1/2+y,-z
1/2-x,1/2+y,z
1/2+x,1/2-y,z
loop_
_atom_site_type_symbol
_atom_site_label
_atom_site_fract_x
_atom_site_fract_y
_atom_site_fract_z
Si Si1 0.783758 0.000000 0.117659
Si Si2 0.500000 0.335911 0.616691
Si Si3 0.831301 0.659718 0.380708
Si Si4 0.887294 0.000000 0.115933
Si Si5 0.591697 0.344802 0.698729
Si Si6 0.250000 0.750000 0.752085
O O1 0.835610 0.000000 0.121608
O O2 0.766205 0.129517 0.176705
O O3 0.770964 0.000000 0.000000
O O4 0.500000 0.500000 0.620391
O O5 0.500000 0.294110 0.500000
O O6 0.544485 0.294377 0.668857
O O7 0.824700 0.683330 0.500000
O O8 0.839460 0.500000 0.365941
O O9 0.871331 0.748826 0.342664
O O10 0.789230 0.701756 0.318134
O O11 0.903708 0.127725 0.181470
O O12 0.900623 0.000000 0.000000
O O13 0.597266 0.500000 0.656826
#
# Coordination Sequence:
#
# PCOD9493710 Si02
#       6
#     8   8  16   8  16   8
#     4  11  22  36  57  79 106 140 178 224 266 309
#     4   9  16  28  51  81 109 132 174 218 261 313
#     4  11  23  36  52  76 110 142 173 215 267 320
#     4   9  18  33  53  78 105 135 173 223 266 302
#     4   9  18  35  54  79 103 141 174 219 259 315
#     4  12  20  40  52  80 108 136 178 218 266 320
#
# _framework density 15.703885
#
# number of rings (size 3 to 8) (size 9 to 14) (size 15 to 20)
#    0.750    1.125    3.750    1.500    0.000    1.500 
#    0.000    1.875    0.000    2.250    0.000    0.000 
#    0.000    2.000    0.000    0.000    0.000    0.000 
#
# Total GULP energy -178270.707866 kJ/mol
# GULP energy per Si atom -5570.959621 kJ/mol
# Density = 1.566814 g / cm^3
# Si number density = 15.703885 Si / 1000 Ang^3
#
#
#
# Elastic Constant Matrix: (Units=GPa)
#
#
# Indices 1 2 3 4 5 6 
#
# 1 139.3540 44.7943 81.1979 0.0000 0.0000 0.0000
# 2 44.7943 71.8822 56.9793 0.0000 0.0000 0.0000
# 3 81.1979 56.9793 154.2175 0.0000 0.0000 0.0000
# 4 0.0000 0.0000 0.0000 21.5569 0.0000 0.0000
# 5 0.0000 0.0000 0.0000 0.0000 20.3228 0.0000
# 6 0.0000 0.0000 0.0000 0.0000 0.0000 1.0336
#
#
#
# Elastic Compliance Matrix: (Units=1/GPa)
#
#
# Indices 1 2 3 4 5 6 
#
# 1 0.010835 -0.003153 -0.004540 0.000000 0.000000 0.000000
# 2 -0.003153 0.020591 -0.005948 0.000000 0.000000 0.000000
# 3 -0.004540 -0.005948 0.011072 0.000000 0.000000 0.000000
# 4 0.000000 0.000000 0.000000 0.046389 0.000000 0.000000
# 5 0.000000 0.000000 0.000000 0.000000 0.049206 0.000000
# 6 0.000000 0.000000 0.000000 0.000000 0.000000 0.967517
#
#
# Mechanical properties :
#
#
# Convention : Reuss Voigt Hill
#
# Bulk Modulus (GPa) = 65.71671 81.26630 73.49150
# Shear Modulus (GPa) = 4.39382 20.74814 12.57098
#
# Velocity S-wave (km/s) = 1.67451 3.63879 2.83238
# Velocity P-wave (km/s) = 6.75847 8.33762 7.58923
#
# Compressibility (1/GPa) = 0.01521683
#
# Stress axis : x y z
#
# Youngs Moduli (GPa) = 92.29643 48.56431 90.31818
#
# Poissons Ratio (x) = 0.15314 0.41000
# Poissons Ratio (y) = 0.29104 0.53718
# Poissons Ratio (z) = 0.41898 0.28884
#
# Static dielectric constant tensor:
#      x y z
#    x 1.506520 0.000000 0.000000 
#    y 0.000000 1.516580 0.000000 
#    z 0.000000 0.000000 1.519640 
# 
# From -- ./inp_files/47417.got.cif
#   From: 2010.05.17/outbox.cif.g08.bks.cpg/sg65_24_cif.got.tgz:47417.got - 2010.06.03 17:01:31.
