data_PCOD9493132
_publ_section_title
;
Structure prediction by ZEFSAII (Michael W. Deem and Ramdas Pophale) SiO2 
 PCOD9493132
Probable space group: C M M M
;
_chemical_formula_sum "Si O2"
_cell_formula_units_Z 84
_cell_length_a 14.105234
_cell_length_b 22.204872
_cell_length_c 13.946950
_cell_angle_alpha 90.000000
_cell_angle_beta 90.000000
_cell_angle_gamma 90.000000
_cell_volume 4368.253296
_symmetry_space_group_name_H-M "C M M M"
_symmetry_group_IT_number 65
_symmetry_cell_setting 'orthorhombic'
loop_
_space_group_symop_operation_xyz
x,y,z
-x,-y,z
x,-y,-z
-x,y,-z
-x,-y,-z
x,y,-z
-x,y,z
x,-y,z
1/2+x,1/2+y,z
1/2-x,1/2-y,z
1/2+x,1/2-y,-z
1/2-x,1/2+y,-z
1/2-x,1/2-y,-z
1/2+x,1/2+y,-z
1/2-x,1/2+y,z
1/2+x,1/2-y,z
loop_
_atom_site_type_symbol
_atom_site_label
_atom_site_fract_x
_atom_site_fract_y
_atom_site_fract_z
Si Si1 0.723321 0.429181 0.889850
Si Si2 0.297487 0.928696 0.608299
Si Si3 0.608038 0.135402 0.212874
Si Si4 0.606964 0.607422 0.291124
Si Si5 0.000000 0.727669 0.500000
Si Si6 0.361521 0.747955 0.322481
O O1 0.746696 0.500000 0.877115
O O2 0.814954 0.389756 0.861293
O O3 0.641796 0.412965 0.813825
O O4 0.696259 0.419331 0.000000
O O5 0.316247 0.908017 0.500000
O O6 0.362147 0.895918 0.686428
O O7 0.188131 0.916582 0.637085
O O8 0.314411 0.000000 0.613478
O O9 0.500000 0.120963 0.187562
O O10 0.618099 0.206100 0.235526
O O11 0.500000 0.587228 0.312280
O O12 0.611179 0.679660 0.297793
O O13 0.918848 0.731420 0.584807
O O14 0.250000 0.750000 0.341851
#
# Coordination Sequence:
#
# PCOD9493132 Si02
#       6
#    16  16  16  16   4  16
#     4  10  23  43  67  93 118 153 204 258 317 376
#     4  10  23  37  53  82 119 161 204 245 298 358
#     4  11  22  39  62  88 122 157 200 253 304 363
#     4  11  22  39  62  88 122 157 200 253 304 363
#     4  12  26  36  60  98 124 168 218 252 280 360
#     4  12  23  39  61  91 126 163 209 247 298 355
#
# _framework density 19.229654
#
# number of rings (size 3 to 8) (size 9 to 14) (size 15 to 20)
#    0.000    1.143    5.714    2.571    2.667    4.571 
#    0.000    5.714    0.000    2.286    0.000    0.000 
#    0.000    0.000    0.000    0.000    0.000    0.000 
#
# Total GULP energy -234121.065807 kJ/mol
# GULP energy per Si atom -5574.311091 kJ/mol
# Density = 1.918589 g / cm^3
# Si number density = 19.229654 Si / 1000 Ang^3
#
#
#
# Elastic Constant Matrix: (Units=GPa)
#
#
# Indices 1 2 3 4 5 6 
#
# 1 80.7190 -19.8764 -31.9779 0.0000 0.0000 0.0000
# 2 -19.8764 51.0473 4.4854 0.0000 0.0000 0.0000
# 3 -31.9779 4.4854 45.3415 0.0000 0.0000 0.0000
# 4 0.0000 0.0000 0.0000 -25.6271 0.0000 0.0000
# 5 0.0000 0.0000 0.0000 0.0000 12.1952 0.0000
# 6 0.0000 0.0000 0.0000 0.0000 0.0000 139.4678
#
#
#
# Elastic Compliance Matrix: (Units=1/GPa)
#
#
# Indices 1 2 3 4 5 6 
#
# 1 0.018995 0.006273 0.012776 0.000000 0.000000 0.000000
# 2 0.006273 0.021833 0.002265 0.000000 0.000000 0.000000
# 3 0.012776 0.002265 0.030841 0.000000 0.000000 0.000000
# 4 0.000000 0.000000 0.000000 -0.039021 0.000000 0.000000
# 5 0.000000 0.000000 0.000000 0.000000 0.081999 0.000000
# 6 0.000000 0.000000 0.000000 0.000000 0.000000 0.007170
#
#
# Mechanical properties :
#
#
# Convention : Reuss Voigt Hill
#
# Bulk Modulus (GPa) = 8.74916 9.15224 8.95070
# Shear Modulus (GPa) = 42.62984 40.17231 41.40107
#
# Velocity S-wave (km/s) = 4.71348 4.57561 4.64506
# Velocity P-wave (km/s) = 5.84656 5.71705 5.78217
#
# Compressibility (1/GPa) = 0.11429673
#
# Stress axis : x y z
#
# Youngs Moduli (GPa) = 52.64621 45.80144 32.42420
#
# Poissons Ratio (x) = -0.28733 -0.41424
# Poissons Ratio (y) = -0.33027 -0.07343
# Poissons Ratio (z) = -0.67260 -0.10372
#
# Static dielectric constant tensor:
#      x y z
#    x 1.669860 0.000000 0.000000 
#    y 0.000000 1.694830 0.000000 
#    z 0.000000 0.000000 1.639240 
# 
# From -- ./inp_files/40147.got.cif
#   From: 2010.05.17/outbox.cif.g08.bks.cpg/sg65_21_cif.got.tgz:40147.got - 2010.06.03 17:01:31.
