data_PCOD9493670
_publ_section_title
;
Structure prediction by ZEFSAII (Michael W. Deem and Ramdas Pophale) SiO2 
 PCOD9493670
Probable space group: C M M M
;
_chemical_formula_sum "Si O2"
_cell_formula_units_Z 104
_cell_length_a 27.367980
_cell_length_b 7.718297
_cell_length_c 29.425697
_cell_angle_alpha 90.000000
_cell_angle_beta 90.000000
_cell_angle_gamma 90.000000
_cell_volume 6215.713504
_symmetry_space_group_name_H-M "C M M M"
_symmetry_group_IT_number 65
_symmetry_cell_setting 'orthorhombic'
loop_
_space_group_symop_operation_xyz
x,y,z
-x,-y,z
x,-y,-z
-x,y,-z
-x,-y,-z
x,y,-z
-x,y,z
x,-y,z
1/2+x,1/2+y,z
1/2-x,1/2-y,z
1/2+x,1/2-y,-z
1/2-x,1/2+y,-z
1/2-x,1/2-y,-z
1/2+x,1/2+y,-z
1/2-x,1/2+y,z
1/2+x,1/2-y,z
loop_
_atom_site_type_symbol
_atom_site_label
_atom_site_fract_x
_atom_site_fract_y
_atom_site_fract_z
Si Si1 0.440447 0.199770 0.880002
Si Si2 0.559559 0.500000 0.947853
Si Si3 0.304639 0.300875 0.646589
Si Si4 0.445819 0.211995 0.590045
Si Si5 0.405165 0.199384 0.685089
Si Si6 0.443259 0.788751 0.779725
Si Si7 0.843105 0.290139 0.549977
O O1 0.500000 0.198642 0.878793
O O2 0.425261 0.330291 0.919521
O O3 0.425270 0.264500 0.829719
O O4 0.425137 0.000000 0.887051
O O5 0.500000 0.500000 0.948384
O O6 0.575985 0.500000 0.000000
O O7 0.312794 0.500000 0.657295
O O8 0.250000 0.250000 0.659299
O O9 0.348414 0.201735 0.671369
O O10 0.312029 0.273931 0.592564
O O11 0.500000 0.267059 0.575880
O O12 0.433722 0.273571 0.641424
O O13 0.399484 0.262610 0.559569
O O14 0.445550 0.000000 0.590353
O O15 0.415477 0.273889 0.734780
O O16 0.421936 0.000000 0.687685
O O17 0.500000 0.739278 0.774696
O O18 0.441520 0.000000 0.781572
O O19 0.827412 0.231879 0.500000
O O20 0.841463 0.500000 0.551091
#
# Coordination Sequence:
#
# PCOD9493670 Si02
#       7
#    16   8  16  16  16  16  16
#     4   8  14  24  36  53  78 109 148 192 232 266
#     4   9  16  24  34  50  74 110 156 200 237 267
#     4  11  22  36  51  65  83 106 134 170 210 255
#     4   8  13  22  40  66  91 112 135 165 198 235
#     4   9  16  28  46  67  88 110 139 173 208 252
#     4   8  13  23  42  65  88 115 145 179 217 255
#     4   9  18  32  49  69  89 108 135 169 205 245
#
# _framework density 16.731787000000001
#
# number of rings (size 3 to 8) (size 9 to 14) (size 15 to 20)
#    0.000    3.154    0.000    3.692    0.000    3.077 
#    1.385    3.077    0.000   11.077    0.000    4.308 
#    0.000    0.000    0.000    0.000    0.000    0.769 
#
# Total GULP energy -289632.299434 kJ/mol
# GULP energy per Si atom -5569.851912 kJ/mol
# Density = 1.669370 g / cm^3
# Si number density = 16.731787 Si / 1000 Ang^3
#
#
#
# Elastic Constant Matrix: (Units=GPa)
#
#
# Indices 1 2 3 4 5 6 
#
# 1 30.9456 -10.8593 -4.5333 0.0000 0.0000 0.0000
# 2 -10.8593 40.9097 16.4021 0.0000 0.0000 0.0000
# 3 -4.5333 16.4021 104.8180 0.0000 0.0000 0.0000
# 4 0.0000 0.0000 0.0000 2.2682 0.0000 0.0000
# 5 0.0000 0.0000 0.0000 0.0000 4.4924 0.0000
# 6 0.0000 0.0000 0.0000 0.0000 0.0000 6.7676
#
#
#
# Elastic Compliance Matrix: (Units=1/GPa)
#
#
# Indices 1 2 3 4 5 6 
#
# 1 0.035634 0.009433 0.000065 0.000000 0.000000 0.000000
# 2 0.009433 0.028577 -0.004064 0.000000 0.000000 0.000000
# 3 0.000065 -0.004064 0.010179 0.000000 0.000000 0.000000
# 4 0.000000 0.000000 0.000000 0.440883 0.000000 0.000000
# 5 0.000000 0.000000 0.000000 0.000000 0.222597 0.000000
# 6 0.000000 0.000000 0.000000 0.000000 0.000000 0.147762
#
#
# Mechanical properties :
#
#
# Convention : Reuss Voigt Hill
#
# Bulk Modulus (GPa) = 11.72896 19.85471 15.79183
# Shear Modulus (GPa) = 5.53596 14.41657 9.97626
#
# Velocity S-wave (km/s) = 1.82094 2.93853 2.44446
# Velocity P-wave (km/s) = 3.38324 4.83793 4.17444
#
# Compressibility (1/GPa) = 0.08525907
#
# Stress axis : x y z
#
# Youngs Moduli (GPa) = 28.06277 34.99273 98.24074
#
# Poissons Ratio (x) = -0.33008 -0.00639
# Poissons Ratio (y) = -0.26471 0.39924
# Poissons Ratio (z) = -0.00183 0.14221
#
# Static dielectric constant tensor:
#      x y z
#    x 1.551380 0.000000 0.000000 
#    y 0.000000 1.628830 0.000000 
#    z 0.000000 0.000000 1.584700 
# 
# From -- ./inp_files/74043.got.cif
#   From: 2010.05.17/outbox.cif.g08.bks.cpg/sg65_38_cif.got.tgz:74043.got - 2010.06.03 17:01:31.
