data_PCOD9493414
_publ_section_title
;
Structure prediction by ZEFSAII (Michael W. Deem and Ramdas Pophale) SiO2 
 PCOD9493414
Probable space group: C M M M
;
_chemical_formula_sum "Si O2"
_cell_formula_units_Z 104
_cell_length_a 8.575682
_cell_length_b 26.198980
_cell_length_c 28.956944
_cell_angle_alpha 90.000000
_cell_angle_beta 90.000000
_cell_angle_gamma 90.000000
_cell_volume 6505.875946
_symmetry_space_group_name_H-M "C M M M"
_symmetry_group_IT_number 65
_symmetry_cell_setting 'orthorhombic'
loop_
_space_group_symop_operation_xyz
x,y,z
-x,-y,z
x,-y,-z
-x,y,-z
-x,-y,-z
x,y,-z
-x,y,z
x,-y,z
1/2+x,1/2+y,z
1/2-x,1/2-y,z
1/2+x,1/2-y,-z
1/2-x,1/2+y,-z
1/2-x,1/2-y,-z
1/2+x,1/2+y,-z
1/2-x,1/2+y,z
1/2+x,1/2-y,z
loop_
_atom_site_type_symbol
_atom_site_label
_atom_site_fract_x
_atom_site_fract_y
_atom_site_fract_z
Si Si1 0.820980 0.000000 0.733388
Si Si2 0.314162 0.691996 0.197314
Si Si3 0.812124 0.308061 0.000000
Si Si4 0.678699 0.500000 0.621204
Si Si5 0.690399 0.389679 0.626731
Si Si6 0.814140 0.610094 0.730614
Si Si7 0.312351 0.808143 0.099916
Si Si8 0.688104 0.306532 0.447754
O O1 0.740277 0.053355 0.746334
O O2 0.823273 0.000000 0.677224
O O3 0.000000 0.000000 0.749162
O O4 0.500000 0.694536 0.198182
O O5 0.250000 0.750000 0.202842
O O6 0.252789 0.654069 0.236525
O O7 0.258183 0.671113 0.147300
O O8 0.750000 0.250000 0.000000
O O9 0.766568 0.331211 0.049814
O O10 0.000000 0.305698 0.000000
O O11 0.500000 0.500000 0.604322
O O12 0.747527 0.445191 0.608937
O O13 0.500000 0.391347 0.629017
O O14 0.751677 0.381904 0.678480
O O15 0.738938 0.346056 0.591280
O O16 0.000000 0.612021 0.730574
O O17 0.500000 0.807944 0.103574
O O18 0.250000 0.750000 0.098493
O O19 0.736965 0.320888 0.500000
O O20 0.500000 0.305441 0.447142
O O21 0.750000 0.250000 0.438389
#
# Coordination Sequence:
#
# PCOD9493414 Si02
#       8
#     8  16   8   8  16  16  16  16
#     4   9  17  33  53  72  94 122 155 193 234 273
#     4  11  21  33  46  64  93 129 162 196 239 284
#     4   8  14  22  36  56  80 111 150 191 230 272
#     4   7  12  25  46  67  87 112 139 173 220 265
#     4   9  17  31  49  68  91 119 151 187 228 275
#     4  11  21  33  50  73  97 124 158 194 233 282
#     4   9  15  25  39  58  84 117 154 192 232 277
#     4   9  18  32  49  68  91 120 154 190 227 269
#
# _framework density 15.985549000000001
#
# number of rings (size 3 to 8) (size 9 to 14) (size 15 to 20)
#    0.000    2.615    0.000    5.308    0.000    1.846 
#    0.000    1.923    0.000    2.308    0.000    0.000 
#    0.000    6.769    0.000    6.615    0.000    3.385 
#
# Total GULP energy -289476.726973 kJ/mol
# GULP energy per Si atom -5566.860134 kJ/mol
# Density = 1.594917 g / cm^3
# Si number density = 15.985549 Si / 1000 Ang^3
#
#
#
# Elastic Constant Matrix: (Units=GPa)
#
#
# Indices 1 2 3 4 5 6 
#
# 1 74.0447 35.8332 37.6179 0.0000 0.0000 0.0000
# 2 35.8332 97.6765 83.3840 0.0000 0.0000 0.0000
# 3 37.6179 83.3840 121.7639 0.0000 0.0000 0.0000
# 4 0.0000 0.0000 0.0000 -2.0209 0.0000 0.0000
# 5 0.0000 0.0000 0.0000 0.0000 20.4682 0.0000
# 6 0.0000 0.0000 0.0000 0.0000 0.0000 20.1960
#
#
#
# Elastic Compliance Matrix: (Units=1/GPa)
#
#
# Indices 1 2 3 4 5 6 
#
# 1 0.016688 -0.004143 -0.002319 0.000000 0.000000 0.000000
# 2 -0.004143 0.025674 -0.016302 0.000000 0.000000 0.000000
# 3 -0.002319 -0.016302 0.020092 0.000000 0.000000 0.000000
# 4 0.000000 0.000000 0.000000 -0.494836 0.000000 0.000000
# 5 0.000000 0.000000 0.000000 0.000000 0.048856 0.000000
# 6 0.000000 0.000000 0.000000 0.000000 0.000000 0.049515
#
#
# Mechanical properties :
#
#
# Convention : Reuss Voigt Hill
#
# Bulk Modulus (GPa) = 59.07284 67.46171 63.26728
# Shear Modulus (GPa) = -17.67782 16.83865 -0.41958
#
# Velocity S-wave (km/s) = -3.32906 3.24908 -0.51288
# Velocity P-wave (km/s) = 4.71776 7.50791 6.27001
#
# Compressibility (1/GPa) = 0.01692825
#
# Stress axis : x y z
#
# Youngs Moduli (GPa) = 59.92263 38.94978 49.76994
#
# Poissons Ratio (x) = 0.16136 0.11540
# Poissons Ratio (y) = 0.24824 0.81134
# Poissons Ratio (z) = 0.13894 0.63495
#
# Static dielectric constant tensor:
#      x y z
#    x 1.551890 0.000000 0.000000 
#    y 0.000000 1.518640 0.000000 
#    z 0.000000 0.000000 1.560330 
# 
# From -- ./inp_files/77077.got.cif
#   From: 2010.05.17/outbox.cif.g08.bks.cpg/sg65_39_cif.got.tgz:77077.got - 2010.06.03 17:01:31.
