data_PCOD9493783
_publ_section_title
;
Structure prediction by ZEFSAII (Michael W. Deem and Ramdas Pophale) SiO2 
 PCOD9493783
Probable space group: C M M M
;
_chemical_formula_sum "Si O2"
_cell_formula_units_Z 88
_cell_length_a 14.874400
_cell_length_b 22.515995
_cell_length_c 12.666252
_cell_angle_alpha 90.000000
_cell_angle_beta 90.000000
_cell_angle_gamma 90.000000
_cell_volume 4242.078726
_symmetry_space_group_name_H-M "C M M M"
_symmetry_group_IT_number 65
_symmetry_cell_setting 'orthorhombic'
loop_
_space_group_symop_operation_xyz
x,y,z
-x,-y,z
x,-y,-z
-x,y,-z
-x,-y,-z
x,y,-z
-x,y,z
x,-y,z
1/2+x,1/2+y,z
1/2-x,1/2-y,z
1/2+x,1/2-y,-z
1/2-x,1/2+y,-z
1/2-x,1/2-y,-z
1/2+x,1/2+y,-z
1/2-x,1/2+y,z
1/2+x,1/2-y,z
loop_
_atom_site_type_symbol
_atom_site_label
_atom_site_fract_x
_atom_site_fract_y
_atom_site_fract_z
Si Si1 0.891287 0.933168 0.117791
Si Si2 0.393181 0.117138 0.229347
Si Si3 0.645784 0.769245 0.376865
Si Si4 0.899781 0.139630 0.319459
Si Si5 0.761368 0.565043 0.387629
Si Si6 0.609070 0.930182 0.000000
O O1 0.872914 0.882175 0.201926
O O2 0.000000 0.935503 0.111553
O O3 0.861841 0.000000 0.149530
O O4 0.856564 0.921375 0.000000
O O5 0.500000 0.106599 0.237285
O O6 0.372874 0.178983 0.291641
O O7 0.332285 0.072351 0.295617
O O8 0.366901 0.106008 0.106808
O O9 0.622510 0.784127 0.500000
O O10 0.750000 0.750000 0.375720
O O11 0.597542 0.709316 0.339162
O O12 0.818721 0.111922 0.384630
O O13 0.000000 0.115380 0.342288
O O14 0.809609 0.571493 0.500000
O O15 0.719444 0.500000 0.382631
O O16 0.500000 0.933357 0.000000
O O17 0.640265 0.000000 0.000000
#
# Coordination Sequence:
#
# PCOD9493783 Si02
#       6
#    16  16  16  16  16   8
#     4   8  15  31  55  83 118 161 208 257 307 363
#     4  11  23  43  70  98 126 165 214 266 325 391
#     4  11  23  42  65  91 129 172 216 269 322 377
#     4  11  22  38  61  90 125 170 217 263 319 385
#     4  11  24  40  60  92 131 167 211 267 321 379
#     4   9  20  42  71 100 131 165 205 262 331 401
#
# _framework density 20.744546
#
# number of rings (size 3 to 8) (size 9 to 14) (size 15 to 20)
#    0.000    1.727    1.818    3.273    0.000    5.818 
#    3.273    2.273    0.000    0.000    0.000    0.000 
#    0.000    0.000    0.000    0.000    0.000    0.000 
#
# Total GULP energy -245359.401985 kJ/mol
# GULP energy per Si atom -5576.350045 kJ/mol
# Density = 2.069733 g / cm^3
# Si number density = 20.744546 Si / 1000 Ang^3
#
#
#
# Elastic Constant Matrix: (Units=GPa)
#
#
# Indices 1 2 3 4 5 6 
#
# 1 71.1433 14.2711 36.5322 0.0000 0.0000 0.0000
# 2 14.2711 131.5389 65.7473 0.0000 0.0000 0.0000
# 3 36.5322 65.7473 204.4553 0.0000 0.0000 0.0000
# 4 0.0000 0.0000 0.0000 35.3153 0.0000 0.0000
# 5 0.0000 0.0000 0.0000 0.0000 32.6123 0.0000
# 6 0.0000 0.0000 0.0000 0.0000 0.0000 -93.9966
#
#
#
# Elastic Compliance Matrix: (Units=1/GPa)
#
#
# Indices 1 2 3 4 5 6 
#
# 1 0.015490 -0.000354 -0.002654 0.000000 0.000000 0.000000
# 2 -0.000354 0.009066 -0.002852 0.000000 0.000000 0.000000
# 3 -0.002654 -0.002852 0.006282 0.000000 0.000000 0.000000
# 4 0.000000 0.000000 0.000000 0.028316 0.000000 0.000000
# 5 0.000000 0.000000 0.000000 0.000000 0.030663 0.000000
# 6 0.000000 0.000000 0.000000 0.000000 0.000000 -0.010639
#
#
# Mechanical properties :
#
#
# Convention : Reuss Voigt Hill
#
# Bulk Modulus (GPa) = 52.30573 71.13765 61.72169
# Shear Modulus (GPa) = 51.40183 14.15867 32.78025
#
# Velocity S-wave (km/s) = 4.98320 2.61535 3.97947
# Velocity P-wave (km/s) = 7.64059 6.59445 7.13671
#
# Compressibility (1/GPa) = 0.01911837
#
# Stress axis : x y z
#
# Youngs Moduli (GPa) = 64.55807 110.29780 159.17365
#
# Poissons Ratio (x) = 0.03905 0.42243
# Poissons Ratio (y) = 0.02286 0.45400
# Poissons Ratio (z) = 0.17133 0.31460
#
# Static dielectric constant tensor:
#      x y z
#    x 1.771590 0.000000 0.000000 
#    y 0.000000 1.735580 0.000000 
#    z 0.000000 0.000000 1.785520 
# 
# From -- ./inp_files/24784.got.cif
#   From: 2010.05.17/outbox.cif.g08.bks.cpg/sg65_13_cif.got.tgz:24784.got - 2010.06.03 17:01:31.
