data_PCOD9493065
_publ_section_title
;
Structure prediction by ZEFSAII (Michael W. Deem and Ramdas Pophale) SiO2 
 PCOD9493065
Probable space group: C M M M
;
_chemical_formula_sum "Si O2"
_cell_formula_units_Z 80
_cell_length_a 19.027151
_cell_length_b 14.355457
_cell_length_c 13.563086
_cell_angle_alpha 90.000000
_cell_angle_beta 90.000000
_cell_angle_gamma 90.000000
_cell_volume 3704.668076
_symmetry_space_group_name_H-M "C M M M"
_symmetry_group_IT_number 65
_symmetry_cell_setting 'orthorhombic'
loop_
_space_group_symop_operation_xyz
x,y,z
-x,-y,z
x,-y,-z
-x,y,-z
-x,-y,-z
x,y,-z
-x,y,z
x,-y,z
1/2+x,1/2+y,z
1/2-x,1/2-y,z
1/2+x,1/2-y,-z
1/2-x,1/2+y,-z
1/2-x,1/2-y,-z
1/2+x,1/2+y,-z
1/2-x,1/2+y,z
1/2+x,1/2-y,z
loop_
_atom_site_type_symbol
_atom_site_label
_atom_site_fract_x
_atom_site_fract_y
_atom_site_fract_z
Si Si1 0.220101 0.353620 0.389968
Si Si2 0.580616 0.613073 0.396649
Si Si3 0.174251 0.892495 0.781848
Si Si4 0.918545 0.754443 0.886362
Si Si5 0.579622 0.889640 0.710089
O O1 0.234173 0.395143 0.500000
O O2 0.250000 0.250000 0.393549
O O3 0.256158 0.391171 0.287869
O O4 0.137721 0.359560 0.368693
O O5 0.611399 0.646499 0.500000
O O6 0.500000 0.639039 0.393219
O O7 0.584438 0.500000 0.397223
O O8 0.618818 0.642313 0.300174
O O9 0.147658 0.824784 0.868307
O O10 0.163259 0.000000 0.810536
O O11 0.910712 0.669527 0.810008
O O12 0.000000 0.792944 0.871342
O O13 0.916070 0.724032 0.000000
O O14 0.500000 0.872983 0.674955
O O15 0.587604 0.000000 0.728455
#
# Coordination Sequence:
#
# PCOD9493065 Si02
#       5
#    16  16  16  16  16
#     4  11  23  41  65  95 132 171 209 257 322 392
#     4   8  14  25  43  71 108 149 191 232 276 336
#     4  11  21  35  58  88 125 167 208 250 307 382
#     4  10  22  41  64  92 128 168 215 272 327 380
#     4  10  22  43  70  96 124 165 220 276 328 382
#
# _framework density 21.594377000000001
#
# number of rings (size 3 to 8) (size 9 to 14) (size 15 to 20)
#    0.000    2.000    2.000    2.400    0.000    4.800 
#    0.000    6.000    0.000    2.400    0.000    0.000 
#    0.000    0.000    0.000    0.000    0.000    0.000 
#
# Total GULP energy -222825.799265 kJ/mol
# GULP energy per Si atom -5570.644982 kJ/mol
# Density = 2.154523 g / cm^3
# Si number density = 21.594377 Si / 1000 Ang^3
#
#
#
# Elastic Constant Matrix: (Units=GPa)
#
#
# Indices 1 2 3 4 5 6 
#
# 1 121.4381 30.5796 45.6927 0.0000 0.0000 0.0000
# 2 30.5796 107.9164 18.5491 0.0000 0.0000 0.0000
# 3 45.6927 18.5491 73.6130 0.0000 0.0000 0.0000
# 4 0.0000 0.0000 0.0000 0.3175 0.0000 0.0000
# 5 0.0000 0.0000 0.0000 0.0000 -204.2741 0.0000
# 6 0.0000 0.0000 0.0000 0.0000 0.0000 25.0803
#
#
#
# Elastic Compliance Matrix: (Units=1/GPa)
#
#
# Indices 1 2 3 4 5 6 
#
# 1 0.011166 -0.002062 -0.006411 0.000000 0.000000 0.000000
# 2 -0.002062 0.010067 -0.001257 0.000000 0.000000 0.000000
# 3 -0.006411 -0.001257 0.017881 0.000000 0.000000 0.000000
# 4 0.000000 0.000000 0.000000 3.149633 0.000000 0.000000
# 5 0.000000 0.000000 0.000000 0.000000 -0.004895 0.000000
# 6 0.000000 0.000000 0.000000 0.000000 0.000000 0.039872
#
#
# Mechanical properties :
#
#
# Convention : Reuss Voigt Hill
#
# Bulk Modulus (GPa) = 50.88151 54.73446 52.80798
# Shear Modulus (GPa) = 1.53859 -21.89886 -10.18013
#
# Velocity S-wave (km/s) = 0.84501 -3.18795 -2.17359
# Velocity P-wave (km/s) = 4.95637 3.44252 4.26712
#
# Compressibility (1/GPa) = 0.01965351
#
# Stress axis : x y z
#
# Youngs Moduli (GPa) = 89.55499 99.33683 55.92553
#
# Poissons Ratio (x) = 0.20484 0.35857
# Poissons Ratio (y) = 0.18467 0.07028
# Poissons Ratio (z) = 0.57418 0.12483
#
# Static dielectric constant tensor:
#      x y z
#    x 1.878160 0.000000 0.000000 
#    y 0.000000 1.799650 0.000000 
#    z 0.000000 0.000000 1.749520 
# 
# From -- ./inp_files/43891.got.cif
#   From: 2010.05.17/outbox.cif.g08.bks.cpg/sg65_22_cif.got.tgz:43891.got - 2010.06.03 17:01:31.
