data_PCOD9493742
_publ_section_title
;
Structure prediction by ZEFSAII (Michael W. Deem and Ramdas Pophale) SiO2 
 PCOD9493742
Probable space group: C M M M
;
_chemical_formula_sum "Si O2"
_cell_formula_units_Z 88
_cell_length_a 18.458786
_cell_length_b 8.296334
_cell_length_c 29.795477
_cell_angle_alpha 90.000000
_cell_angle_beta 90.000000
_cell_angle_gamma 90.000000
_cell_volume 4562.886913
_symmetry_space_group_name_H-M "C M M M"
_symmetry_group_IT_number 65
_symmetry_cell_setting 'orthorhombic'
loop_
_space_group_symop_operation_xyz
x,y,z
-x,-y,z
x,-y,-z
-x,y,-z
-x,-y,-z
x,y,-z
-x,y,z
x,-y,z
1/2+x,1/2+y,z
1/2-x,1/2-y,z
1/2+x,1/2-y,-z
1/2-x,1/2+y,-z
1/2-x,1/2-y,-z
1/2+x,1/2+y,-z
1/2-x,1/2+y,z
1/2+x,1/2-y,z
loop_
_atom_site_type_symbol
_atom_site_label
_atom_site_fract_x
_atom_site_fract_y
_atom_site_fract_z
Si Si1 0.832668 0.191333 0.000000
Si Si2 0.167458 0.192966 0.176140
Si Si3 0.582978 0.807007 0.911892
Si Si4 0.416629 0.697118 0.734856
Si Si5 0.666132 0.305158 0.548216
Si Si6 0.666677 0.304885 0.353892
O O1 0.750000 0.250000 0.000000
O O2 0.873964 0.251212 0.955754
O O3 0.667355 0.500000 0.000000
O O4 0.250000 0.250000 0.174047
O O5 0.123359 0.250243 0.132840
O O6 0.128908 0.250708 0.221882
O O7 0.166801 0.000000 0.176557
O O8 0.500000 0.747174 0.912796
O O9 0.581595 0.000000 0.912001
O O10 0.500000 0.748075 0.738046
O O11 0.415984 0.500000 0.734712
O O12 0.379684 0.751259 0.688518
O O13 0.634541 0.250146 0.500000
O O14 0.663881 0.500000 0.548092
O O15 0.750000 0.250000 0.548170
O O16 0.637621 0.251501 0.596946
O O17 0.666143 0.500000 0.353555
O O18 0.750000 0.250000 0.349424
#
# Coordination Sequence:
#
# PCOD9493742 Si02
#       6
#     8  16  16  16  16  16
#     4  12  25  42  65  91 121 155 193 232 269 312
#     4  11  22  37  58  82 109 140 178 222 267 318
#     4  11  24  42  63  88 119 151 184 224 270 318
#     4   9  18  32  50  72  98 131 170 210 255 310
#     4   8  13  21  35  58  87 117 151 194 244 296
#     4   9  16  27  45  67  92 123 160 204 251 301
#
# _framework density 19.286034999999998
#
# number of rings (size 3 to 8) (size 9 to 14) (size 15 to 20)
#    0.000    2.182    0.000    3.818    0.000    3.273 
#    0.000    0.909    0.000    3.273    0.000    3.818 
#    0.000    0.000    0.000   29.455    0.000   13.818 
#
# Total GULP energy -245512.684865 kJ/mol
# GULP energy per Si atom -5579.833747 kJ/mol
# Density = 1.924214 g / cm^3
# Si number density = 19.286035 Si / 1000 Ang^3
#
#
#
# Elastic Constant Matrix: (Units=GPa)
#
#
# Indices 1 2 3 4 5 6 
#
# 1 151.2114 20.9928 114.0203 0.0000 0.0000 0.0000
# 2 20.9928 31.9457 29.1056 0.0000 0.0000 0.0000
# 3 114.0203 29.1056 244.8893 0.0000 0.0000 0.0000
# 4 0.0000 0.0000 0.0000 2.5333 0.0000 0.0000
# 5 0.0000 0.0000 0.0000 0.0000 -20.6880 0.0000
# 6 0.0000 0.0000 0.0000 0.0000 0.0000 16.3908
#
#
#
# Elastic Compliance Matrix: (Units=1/GPa)
#
#
# Indices 1 2 3 4 5 6 
#
# 1 0.010397 -0.002716 -0.004518 0.000000 0.000000 0.000000
# 2 -0.002716 0.035814 -0.002992 0.000000 0.000000 0.000000
# 3 -0.004518 -0.002992 0.006543 0.000000 0.000000 0.000000
# 4 0.000000 0.000000 0.000000 0.394734 0.000000 0.000000
# 5 0.000000 0.000000 0.000000 0.000000 -0.048337 0.000000
# 6 0.000000 0.000000 0.000000 0.000000 0.000000 0.061010
#
#
# Mechanical properties :
#
#
# Convention : Reuss Voigt Hill
#
# Bulk Modulus (GPa) = 30.95818 84.03155 57.49486
# Shear Modulus (GPa) = 10.17542 17.24241 13.70891
#
# Velocity S-wave (km/s) = 2.29946 2.99329 2.66901
# Velocity P-wave (km/s) = 4.81009 7.45735 6.27492
#
# Compressibility (1/GPa) = 0.03230164
#
# Stress axis : x y z
#
# Youngs Moduli (GPa) = 96.17981 27.92208 152.84153
#
# Poissons Ratio (x) = 0.07584 0.69056
# Poissons Ratio (y) = 0.26122 0.45730
# Poissons Ratio (z) = 0.43455 0.08354
#
# Static dielectric constant tensor:
#      x y z
#    x 1.641380 0.000000 0.000000 
#    y 0.000000 1.657930 0.000000 
#    z 0.000000 0.000000 1.748530 
# 
# From -- ./inp_files/76452.got.cif
#   From: 2010.05.17/outbox.cif.g08.bks.cpg/sg65_39_cif.got.tgz:76452.got - 2010.06.03 17:01:31.
