data_PCOD9493240
_publ_section_title
;
Structure prediction by ZEFSAII (Michael W. Deem and Ramdas Pophale) SiO2 
 PCOD9493240
Probable space group: C M M M
;
_chemical_formula_sum "Si O2"
_cell_formula_units_Z 58
_cell_length_a 28.091624
_cell_length_b 13.967681
_cell_length_c 7.998592
_cell_angle_alpha 90.000000
_cell_angle_beta 90.000000
_cell_angle_gamma 90.000000
_cell_volume 3138.446279
_symmetry_space_group_name_H-M "C M M M"
_symmetry_group_IT_number 65
_symmetry_cell_setting 'orthorhombic'
loop_
_space_group_symop_operation_xyz
x,y,z
-x,-y,z
x,-y,-z
-x,y,-z
-x,-y,-z
x,y,-z
-x,y,z
x,-y,z
1/2+x,1/2+y,z
1/2-x,1/2-y,z
1/2+x,1/2-y,-z
1/2-x,1/2+y,-z
1/2-x,1/2-y,-z
1/2+x,1/2+y,-z
1/2-x,1/2+y,z
1/2+x,1/2-y,z
loop_
_atom_site_type_symbol
_atom_site_label
_atom_site_fract_x
_atom_site_fract_y
_atom_site_fract_z
Si Si1 0.861314 0.000000 0.195459
Si Si2 0.753243 0.000000 0.307185
Si Si3 0.447508 0.202663 0.000000
Si Si4 0.500000 0.000000 0.000000
Si Si5 0.889918 0.789949 0.311384
Si Si6 0.797697 0.688065 0.808813
O O1 0.881656 0.902571 0.274849
O O2 0.803542 0.000000 0.210306
O O3 0.873373 0.000000 0.000000
O O4 0.720309 0.089476 0.265338
O O5 0.767208 0.000000 0.500000
O O6 0.420845 0.239652 0.833725
O O7 0.500000 0.248524 0.000000
O O8 0.458892 0.087928 0.000000
O O9 0.908481 0.776618 0.500000
O O10 0.838160 0.740738 0.294901
O O11 0.750000 0.750000 0.813549
O O12 0.814957 0.676339 0.000000
#
# Coordination Sequence:
#
# PCOD9493240 Si02
#       6
#     8   8   8   2  16  16
#     4  12  22  40  63  97 141 187 225 263 331 395
#     4  12  24  35  55  91 134 185 235 278 324 384
#     4  10  24  51  75 101 130 165 214 278 350 407
#     4   8  24  52  86  94 132 170 196 280 358 402
#     4  12  24  42  70 102 137 177 225 276 332 399
#     4  11  22  38  59  90 135 187 228 269 322 384
#
# _framework density 18.480481999999999
#
# number of rings (size 3 to 8) (size 9 to 14) (size 15 to 20)
#    0.414    0.276    5.517    3.310    0.000    2.759 
#    0.000    4.138    0.000    1.655    0.000    0.000 
#    0.000    0.000    0.000    0.000    0.000    0.000 
#
# Total GULP energy -161610.303506 kJ/mol
# GULP energy per Si atom -5572.769086 kJ/mol
# Density = 1.843842 g / cm^3
# Si number density = 18.480482 Si / 1000 Ang^3
#
#
#
# Elastic Constant Matrix: (Units=GPa)
#
#
# Indices 1 2 3 4 5 6 
#
# 1 83.9225 43.5334 40.8815 0.0000 0.0000 0.0000
# 2 43.5334 147.3532 46.3584 0.0000 0.0000 0.0000
# 3 40.8815 46.3584 148.6012 0.0000 0.0000 0.0000
# 4 0.0000 0.0000 0.0000 1.5164 0.0000 0.0000
# 5 0.0000 0.0000 0.0000 0.0000 6.9131 0.0000
# 6 0.0000 0.0000 0.0000 0.0000 0.0000 30.3893
#
#
#
# Elastic Compliance Matrix: (Units=1/GPa)
#
#
# Indices 1 2 3 4 5 6 
#
# 1 0.015256 -0.003534 -0.003095 0.000000 0.000000 0.000000
# 2 -0.003534 0.008343 -0.001631 0.000000 0.000000 0.000000
# 3 -0.003095 -0.001631 0.008090 0.000000 0.000000 0.000000
# 4 0.000000 0.000000 0.000000 0.659470 0.000000 0.000000
# 5 0.000000 0.000000 0.000000 0.000000 0.144653 0.000000
# 6 0.000000 0.000000 0.000000 0.000000 0.000000 0.032906
#
#
# Mechanical properties :
#
#
# Convention : Reuss Voigt Hill
#
# Bulk Modulus (GPa) = 65.91506 71.26927 68.59216
# Shear Modulus (GPa) = 5.61612 24.37066 14.99339
#
# Velocity S-wave (km/s) = 1.74515 3.63536 2.85144
# Velocity P-wave (km/s) = 6.30916 7.50130 6.93091
#
# Compressibility (1/GPa) = 0.01517104
#
# Stress axis : x y z
#
# Youngs Moduli (GPa) = 65.54651 119.85510 123.61619
#
# Poissons Ratio (x) = 0.42352 0.38257
# Poissons Ratio (y) = 0.23162 0.20158
# Poissons Ratio (z) = 0.20285 0.19545
#
# Static dielectric constant tensor:
#      x y z
#    x 1.668940 0.000000 0.000000 
#    y 0.000000 1.581760 0.000000 
#    z 0.000000 0.000000 1.663210 
# 
# From -- ./inp_files/15480.got.cif
#   From: 2010.05.17/outbox.cif.g08.bks.cpg/sg65_8_cif.got.tgz:15480.got - 2010.06.03 17:01:31.
