data_PCOD9493590
_publ_section_title
;
Structure prediction by ZEFSAII (Michael W. Deem and Ramdas Pophale) SiO2 
 PCOD9493590
Probable space group: C M M M
;
_chemical_formula_sum "Si O2"
_cell_formula_units_Z 72
_cell_length_a 29.748313
_cell_length_b 16.021987
_cell_length_c 8.292397
_cell_angle_alpha 90.000000
_cell_angle_beta 90.000000
_cell_angle_gamma 90.000000
_cell_volume 3952.381003
_symmetry_space_group_name_H-M "C M M M"
_symmetry_group_IT_number 65
_symmetry_cell_setting 'orthorhombic'
loop_
_space_group_symop_operation_xyz
x,y,z
-x,-y,z
x,-y,-z
-x,y,-z
-x,-y,-z
x,y,-z
-x,y,z
x,-y,z
1/2+x,1/2+y,z
1/2-x,1/2-y,z
1/2+x,1/2-y,-z
1/2-x,1/2+y,-z
1/2-x,1/2-y,-z
1/2+x,1/2+y,-z
1/2-x,1/2+y,z
1/2+x,1/2-y,z
loop_
_atom_site_type_symbol
_atom_site_label
_atom_site_fract_x
_atom_site_fract_y
_atom_site_fract_z
Si Si1 0.290371 0.092273 0.807296
Si Si2 0.947510 0.203346 0.687922
Si Si3 0.187098 0.094675 0.195159
Si Si4 0.644691 0.234777 0.687780
Si Si5 0.553771 0.591381 0.000000
O O1 0.239109 0.108413 0.752408
O O2 0.325001 0.165006 0.769462
O O3 0.304021 0.000000 0.746705
O O4 0.287311 0.087590 0.000000
O O5 0.942438 0.173252 0.500000
O O6 0.909049 0.272725 0.711958
O O7 0.000000 0.228237 0.705139
O O8 0.937209 0.138392 0.832004
O O9 0.158748 0.172117 0.258936
O O10 0.174187 0.000000 0.245070
O O11 0.185194 0.097052 0.000000
O O12 0.653886 0.227564 0.500000
O O13 0.575265 0.500000 0.000000
O O14 0.500000 0.583237 0.000000
#
# Coordination Sequence:
#
# PCOD9493590 Si02
#       5
#    16  16  16  16   8
#     4   9  19  36  56  77 103 137 176 217 265 320
#     4   9  20  37  52  73 108 143 178 223 270 319
#     4   9  19  35  53  75 106 143 177 212 258 314
#     4  11  22  33  52  80 105 138 179 217 268 322
#     4   9  18  32  52  76  98 133 183 223 266 318
#
# _framework density 18.216868000000002
#
# number of rings (size 3 to 8) (size 9 to 14) (size 15 to 20)
#    0.000    2.556    0.000    2.667    3.111    5.778 
#    0.000    6.667    0.000    0.667    0.000    4.667 
#    0.000    0.000    0.000    0.000    0.000    0.000 
#
# Total GULP energy -200480.174072 kJ/mol
# GULP energy per Si atom -5568.893724 kJ/mol
# Density = 1.817541 g / cm^3
# Si number density = 18.216868 Si / 1000 Ang^3
#
#
#
# Elastic Constant Matrix: (Units=GPa)
#
#
# Indices 1 2 3 4 5 6 
#
# 1 101.0575 52.3499 23.4639 0.0000 0.0000 0.0000
# 2 52.3499 58.2025 5.5142 0.0000 0.0000 0.0000
# 3 23.4639 5.5142 37.9414 0.0000 0.0000 0.0000
# 4 0.0000 0.0000 0.0000 -447.4243 0.0000 0.0000
# 5 0.0000 0.0000 0.0000 0.0000 22.3638 0.0000
# 6 0.0000 0.0000 0.0000 0.0000 0.0000 10.0632
#
#
#
# Elastic Compliance Matrix: (Units=1/GPa)
#
#
# Indices 1 2 3 4 5 6 
#
# 1 0.022311 -0.019022 -0.011033 0.000000 0.000000 0.000000
# 2 -0.019022 0.033639 0.006875 0.000000 0.000000 0.000000
# 3 -0.011033 0.006875 0.032180 0.000000 0.000000 0.000000
# 4 0.000000 0.000000 0.000000 -0.002235 0.000000 0.000000
# 5 0.000000 0.000000 0.000000 0.000000 0.044715 0.000000
# 6 0.000000 0.000000 0.000000 0.000000 0.000000 0.099371
#
#
# Mechanical properties :
#
#
# Convention : Reuss Voigt Hill
#
# Bulk Modulus (GPa) = 23.94070 39.98416 31.96243
# Shear Modulus (GPa) = 17.22555 -75.27457 -29.02451
#
# Velocity S-wave (km/s) = 3.07837 -6.43514 -3.99592
# Velocity P-wave (km/s) = 5.07993 5.76352 1.92515
#
# Compressibility (1/GPa) = 0.04176987
#
# Stress axis : x y z
#
# Youngs Moduli (GPa) = 44.82112 29.72704 31.07486
#
# Poissons Ratio (x) = 0.56547 0.34285
# Poissons Ratio (y) = 0.85259 -0.21363
# Poissons Ratio (z) = 0.49451 -0.20437
#
# Static dielectric constant tensor:
#      x y z
#    x 1.658410 0.000000 0.000000 
#    y 0.000000 1.626140 0.000000 
#    z 0.000000 0.000000 1.651270 
# 
# From -- ./inp_files/15763.got.cif
#   From: 2010.05.17/outbox.cif.g08.bks.cpg/sg65_8_cif.got.tgz:15763.got - 2010.06.03 17:01:31.
