data_PCOD9493856
_publ_section_title
;
Structure prediction by ZEFSAII (Michael W. Deem and Ramdas Pophale) SiO2 
 PCOD9493856
Probable space group: C M M M
;
_chemical_formula_sum "Si O2"
_cell_formula_units_Z 56
_cell_length_a 7.411698
_cell_length_b 18.358425
_cell_length_c 20.515586
_cell_angle_alpha 90.000000
_cell_angle_beta 90.000000
_cell_angle_gamma 90.000000
_cell_volume 2791.496330
_symmetry_space_group_name_H-M "C M M M"
_symmetry_group_IT_number 65
_symmetry_cell_setting 'orthorhombic'
loop_
_space_group_symop_operation_xyz
x,y,z
-x,-y,z
x,-y,-z
-x,y,-z
-x,-y,-z
x,y,-z
-x,y,z
x,-y,z
1/2+x,1/2+y,z
1/2-x,1/2-y,z
1/2+x,1/2-y,-z
1/2-x,1/2+y,-z
1/2-x,1/2-y,-z
1/2+x,1/2+y,-z
1/2-x,1/2+y,z
1/2+x,1/2-y,z
loop_
_atom_site_type_symbol
_atom_site_label
_atom_site_fract_x
_atom_site_fract_y
_atom_site_fract_z
Si Si1 0.219859 0.916488 0.298762
Si Si2 0.000000 0.586511 0.077365
Si Si3 0.715838 0.664287 0.572362
Si Si4 0.213408 0.163962 0.166306
O O1 0.284102 0.881764 0.366616
O O2 0.271222 0.868662 0.236340
O O3 0.000000 0.916068 0.300402
O O4 0.277400 0.000000 0.291473
O O5 0.172496 0.623450 0.111192
O O6 0.000000 0.500000 0.089722
O O7 0.000000 0.598557 0.000000
O O8 0.785452 0.645157 0.500000
O O9 0.500000 0.654269 0.570562
O O10 0.750000 0.750000 0.582940
O O11 0.250000 0.250000 0.164756
O O12 0.000000 0.151167 0.158348
#
# Coordination Sequence:
#
# PCOD9493856 Si02
#       4
#    16   8  16  16
#     4   9  18  32  53  81 114 151 195 248 303 363
#     4  11  26  46  68  98 132 164 204 253 310 378
#     4   9  17  30  49  73 104 145 191 242 297 354
#     4  11  22  41  66  95 126 166 210 258 309 365
#
# _framework density 20.060925999999998
#
# number of rings (size 3 to 8) (size 9 to 14) (size 15 to 20)
#    0.000    2.143    1.429    1.714    0.000    3.429 
#    2.571    4.286    0.000    0.000    0.000    4.000 
#    0.000    0.000    0.000    0.000    0.000    0.000 
#
# Total GULP energy -156457.363314 kJ/mol
# GULP energy per Si atom -5587.762976 kJ/mol
# Density = 2.001527 g / cm^3
# Si number density = 20.060926 Si / 1000 Ang^3
#
#
#
# Elastic Constant Matrix: (Units=GPa)
#
#
# Indices 1 2 3 4 5 6 
#
# 1 103.9041 35.3168 52.7570 0.0000 0.0000 0.0000
# 2 35.3168 161.5770 127.8044 0.0000 0.0000 0.0000
# 3 52.7570 127.8044 185.1416 0.0000 0.0000 0.0000
# 4 0.0000 0.0000 0.0000 39.3285 0.0000 0.0000
# 5 0.0000 0.0000 0.0000 0.0000 35.1810 0.0000
# 6 0.0000 0.0000 0.0000 0.0000 0.0000 4.7581
#
#
#
# Elastic Compliance Matrix: (Units=1/GPa)
#
#
# Indices 1 2 3 4 5 6 
#
# 1 0.011254 0.000169 -0.003324 0.000000 0.000000 0.000000
# 2 0.000169 0.013635 -0.009461 0.000000 0.000000 0.000000
# 3 -0.003324 -0.009461 0.012879 0.000000 0.000000 0.000000
# 4 0.000000 0.000000 0.000000 0.025427 0.000000 0.000000
# 5 0.000000 0.000000 0.000000 0.000000 0.028424 0.000000
# 6 0.000000 0.000000 0.000000 0.000000 0.000000 0.210168
#
#
# Mechanical properties :
#
#
# Convention : Reuss Voigt Hill
#
# Bulk Modulus (GPa) = 79.75661 98.04212 88.89937
# Shear Modulus (GPa) = 15.09670 31.50316 23.29993
#
# Velocity S-wave (km/s) = 2.74623 3.96709 3.41171
# Velocity P-wave (km/s) = 7.06394 8.36433 7.74149
#
# Compressibility (1/GPa) = 0.01253815
#
# Stress axis : x y z
#
# Youngs Moduli (GPa) = 88.85425 73.33913 77.64493
#
# Poissons Ratio (x) = -0.01240 0.25807
# Poissons Ratio (y) = -0.01502 0.73457
# Poissons Ratio (z) = 0.29532 0.69384
#
# Static dielectric constant tensor:
#      x y z
#    x 1.751310 0.000000 0.000000 
#    y 0.000000 1.657920 0.000000 
#    z 0.000000 0.000000 1.686750 
# 
# From -- ./inp_files/48800.got.cif
#   From: 2010.05.17/outbox.cif.g08.bks.cpg/sg65_25_cif.got.tgz:48800.got - 2010.06.03 17:01:31.
