data_PCOD9493584
_publ_section_title
;
Structure prediction by ZEFSAII (Michael W. Deem and Ramdas Pophale) SiO2 
 PCOD9493584
Probable space group: C M M M
;
_chemical_formula_sum "Si O2"
_cell_formula_units_Z 72
_cell_length_a 19.142242
_cell_length_b 7.856514
_cell_length_c 25.976284
_cell_angle_alpha 90.000000
_cell_angle_beta 90.000000
_cell_angle_gamma 90.000000
_cell_volume 3906.606919
_symmetry_space_group_name_H-M "C M M M"
_symmetry_group_IT_number 65
_symmetry_cell_setting 'orthorhombic'
loop_
_space_group_symop_operation_xyz
x,y,z
-x,-y,z
x,-y,-z
-x,y,-z
-x,-y,-z
x,y,-z
-x,y,z
x,-y,z
1/2+x,1/2+y,z
1/2-x,1/2-y,z
1/2+x,1/2-y,-z
1/2-x,1/2+y,-z
1/2-x,1/2-y,-z
1/2+x,1/2+y,-z
1/2-x,1/2+y,z
1/2+x,1/2-y,z
loop_
_atom_site_type_symbol
_atom_site_label
_atom_site_fract_x
_atom_site_fract_y
_atom_site_fract_z
Si Si1 0.079051 0.295885 0.247399
Si Si2 0.914900 0.304027 0.133078
Si Si3 0.669301 0.702061 0.345935
Si Si4 0.580729 0.292148 0.557834
Si Si5 0.585281 0.500000 0.059229
O O1 0.074474 0.500000 0.243928
O O2 0.104398 0.241987 0.190633
O O3 0.129137 0.253407 0.294232
O O4 0.000000 0.229859 0.256488
O O5 0.891893 0.500000 0.124691
O O6 0.000000 0.307571 0.133241
O O7 0.892566 0.168907 0.090255
O O8 0.664912 0.500000 0.349247
O O9 0.750000 0.750000 0.344614
O O10 0.629916 0.771840 0.396570
O O11 0.600892 0.237860 0.500000
O O12 0.500000 0.242924 0.566907
O O13 0.582109 0.500000 0.557861
O O14 0.500000 0.500000 0.059360
O O15 0.607953 0.500000 0.000000
#
# Coordination Sequence:
#
# PCOD9493584 Si02
#       5
#    16  16  16  16   8
#     4   9  18  33  52  72  96 129 167 211 258 305
#     4   8  15  27  42  63  93 130 168 207 254 304
#     4  11  22  33  48  72 101 134 167 208 257 308
#     4   8  15  30  51  73  96 124 165 212 253 301
#     4   9  16  24  38  64  98 134 169 207 250 301
#
# _framework density 18.430316000000001
#
# number of rings (size 3 to 8) (size 9 to 14) (size 15 to 20)
#    0.000    3.000    0.000    3.333    1.556    2.222 
#    0.000    2.222    0.000    2.000    0.000    7.778 
#    0.000    0.889    0.444    0.000    0.000    0.000 
#
# Total GULP energy -200647.681557 kJ/mol
# GULP energy per Si atom -5573.546710 kJ/mol
# Density = 1.838837 g / cm^3
# Si number density = 18.430316 Si / 1000 Ang^3
#
#
#
# Elastic Constant Matrix: (Units=GPa)
#
#
# Indices 1 2 3 4 5 6 
#
# 1 62.7174 18.9672 83.7692 0.0000 0.0000 0.0000
# 2 18.9672 52.9549 57.8105 0.0000 0.0000 0.0000
# 3 83.7692 57.8105 212.6330 0.0000 0.0000 0.0000
# 4 0.0000 0.0000 0.0000 -4.0630 0.0000 0.0000
# 5 0.0000 0.0000 0.0000 0.0000 -2.7982 0.0000
# 6 0.0000 0.0000 0.0000 0.0000 0.0000 3.5771
#
#
#
# Elastic Compliance Matrix: (Units=1/GPa)
#
#
# Indices 1 2 3 4 5 6 
#
# 1 0.034099 0.003487 -0.014382 0.000000 0.000000 0.000000
# 2 0.003487 0.027211 -0.008772 0.000000 0.000000 0.000000
# 3 -0.014382 -0.008772 0.012754 0.000000 0.000000 0.000000
# 4 0.000000 0.000000 0.000000 -0.246126 0.000000 0.000000
# 5 0.000000 0.000000 0.000000 0.000000 -0.357376 0.000000
# 6 0.000000 0.000000 0.000000 0.000000 0.000000 0.279555
#
#
# Mechanical properties :
#
#
# Convention : Reuss Voigt Hill
#
# Bulk Modulus (GPa) = 28.79301 72.15545 50.47423
# Shear Modulus (GPa) = -25.12915 10.52710 -7.30103
#
# Velocity S-wave (km/s) = -3.69652 2.39254 -1.99249
# Velocity P-wave (km/s) = 1.60078 6.84600 4.70666
#
# Compressibility (1/GPa) = 0.03473066
#
# Stress axis : x y z
#
# Youngs Moduli (GPa) = 29.32621 36.74954 78.40868
#
# Poissons Ratio (x) = -0.12814 1.12766
# Poissons Ratio (y) = -0.10226 0.68779
# Poissons Ratio (z) = 0.42176 0.32236
#
# Static dielectric constant tensor:
#      x y z
#    x 1.586070 0.000000 0.000000 
#    y 0.000000 1.663420 0.000000 
#    z 0.000000 0.000000 1.657220 
# 
# From -- ./inp_files/67083.got.cif
#   From: 2010.05.17/outbox.cif.g08.bks.cpg/sg65_34_cif.got.tgz:67083.got - 2010.06.03 17:01:31.
