data_PCOD9493242
_publ_section_title
;
Structure prediction by ZEFSAII (Michael W. Deem and Ramdas Pophale) SiO2 
 PCOD9493242
Probable space group: C M M M
;
_chemical_formula_sum "Si O2"
_cell_formula_units_Z 58
_cell_length_a 15.065965
_cell_length_b 9.210775
_cell_length_c 22.217205
_cell_angle_alpha 90.000000
_cell_angle_beta 90.000000
_cell_angle_gamma 90.000000
_cell_volume 3083.064070
_symmetry_space_group_name_H-M "C M M M"
_symmetry_group_IT_number 65
_symmetry_cell_setting 'orthorhombic'
loop_
_space_group_symop_operation_xyz
x,y,z
-x,-y,z
x,-y,-z
-x,y,-z
-x,-y,-z
x,y,-z
-x,y,z
x,-y,z
1/2+x,1/2+y,z
1/2-x,1/2-y,z
1/2+x,1/2-y,-z
1/2-x,1/2+y,-z
1/2-x,1/2-y,-z
1/2+x,1/2+y,-z
1/2-x,1/2+y,z
1/2+x,1/2-y,z
loop_
_atom_site_type_symbol
_atom_site_label
_atom_site_fract_x
_atom_site_fract_y
_atom_site_fract_z
Si Si1 0.156453 0.165734 0.365857
Si Si2 0.344296 0.825863 0.931595
Si Si3 0.857971 0.234105 0.500000
Si Si4 0.500000 0.000000 0.500000
Si Si5 0.000000 0.675223 0.704156
Si Si6 0.000000 0.323817 0.155383
O O1 0.250000 0.250000 0.363178
O O2 0.125192 0.161907 0.435468
O O3 0.085315 0.255726 0.327836
O O4 0.165507 0.000000 0.344435
O O5 0.250000 0.750000 0.924073
O O6 0.413891 0.775324 0.881711
O O7 0.333942 0.000000 0.926614
O O8 0.376397 0.796558 0.000000
O O9 0.750000 0.250000 0.500000
O O10 0.920763 0.374898 0.500000
O O11 0.000000 0.500000 0.697193
O O12 0.000000 0.714149 0.774723
O O13 0.000000 0.500000 0.152777
#
# Coordination Sequence:
#
# PCOD9493242 Si02
#       6
#    16  16   8   2   8   8
#     4  11  24  42  65  90 122 156 202 257 312 371
#     4   9  17  32  56  84 113 145 187 237 291 347
#     4  10  25  38  69  95 129 157 213 255 329 392
#     4  12  24  40  66  98 132 180 190 264 326 390
#     4  11  24  40  59  84 121 161 207 247 298 366
#     4   9  19  36  56  80 111 155 198 237 282 350
#
# _framework density 18.812453000000001
#
# number of rings (size 3 to 8) (size 9 to 14) (size 15 to 20)
#    0.000    1.931    0.000    2.897   11.586    2.759 
#    0.000    8.276    0.000    3.310    0.000    0.000 
#    0.000    0.000    0.000    0.000    0.000    0.000 
#
# Total GULP energy -161521.533015 kJ/mol
# GULP energy per Si atom -5569.708035 kJ/mol
# Density = 1.876964 g / cm^3
# Si number density = 18.812453 Si / 1000 Ang^3
#
#
#
# Elastic Constant Matrix: (Units=GPa)
#
#
# Indices 1 2 3 4 5 6 
#
# 1 135.6840 64.6679 88.1255 0.0000 0.0000 0.0000
# 2 64.6679 109.3652 50.9864 0.0000 0.0000 0.0000
# 3 88.1255 50.9864 165.1836 0.0000 0.0000 0.0000
# 4 0.0000 0.0000 0.0000 64.2930 0.0000 0.0000
# 5 0.0000 0.0000 0.0000 0.0000 -44.0162 0.0000
# 6 0.0000 0.0000 0.0000 0.0000 0.0000 31.0469
#
#
#
# Elastic Compliance Matrix: (Units=1/GPa)
#
#
# Indices 1 2 3 4 5 6 
#
# 1 0.013573 -0.005431 -0.005565 0.000000 0.000000 0.000000
# 2 -0.005431 0.012854 -0.001070 0.000000 0.000000 0.000000
# 3 -0.005565 -0.001070 0.009353 0.000000 0.000000 0.000000
# 4 0.000000 0.000000 0.000000 0.015554 0.000000 0.000000
# 5 0.000000 0.000000 0.000000 0.000000 -0.022719 0.000000
# 6 0.000000 0.000000 0.000000 0.000000 0.000000 0.032209
#
#
# Mechanical properties :
#
#
# Convention : Reuss Voigt Hill
#
# Bulk Modulus (GPa) = 85.85298 90.86583 88.35941
# Shear Modulus (GPa) = 56.28170 24.02828 40.15499
#
# Velocity S-wave (km/s) = 5.47560 3.57775 4.62507
# Velocity P-wave (km/s) = 9.25806 8.09152 8.69438
#
# Compressibility (1/GPa) = 0.01164782
#
# Stress axis : x y z
#
# Youngs Moduli (GPa) = 73.67611 77.79620 106.91893
#
# Poissons Ratio (x) = 0.42254 0.59497
# Poissons Ratio (y) = 0.40017 0.11440
# Poissons Ratio (z) = 0.40998 0.08324
#
# Static dielectric constant tensor:
#      x y z
#    x 1.632080 0.000000 0.000000 
#    y 0.000000 1.641410 0.000000 
#    z 0.000000 0.000000 1.657510 
# 
# From -- ./inp_files/62224.got.cif
#   From: 2010.05.17/outbox.cif.g08.bks.cpg/sg65_32_cif.got.tgz:62224.got - 2010.06.03 17:01:31.
