data_PCOD9493827
_publ_section_title
;
Structure prediction by ZEFSAII (Michael W. Deem and Ramdas Pophale) SiO2 
 PCOD9493827
Probable space group: C M M M
;
_chemical_formula_sum "Si O2"
_cell_formula_units_Z 72
_cell_length_a 13.780619
_cell_length_b 15.404431
_cell_length_c 18.104157
_cell_angle_alpha 90.000000
_cell_angle_beta 90.000000
_cell_angle_gamma 90.000000
_cell_volume 3843.197420
_symmetry_space_group_name_H-M "C M M M"
_symmetry_group_IT_number 65
_symmetry_cell_setting 'orthorhombic'
loop_
_space_group_symop_operation_xyz
x,y,z
-x,-y,z
x,-y,-z
-x,y,-z
-x,-y,-z
x,y,-z
-x,y,z
x,-y,z
1/2+x,1/2+y,z
1/2-x,1/2-y,z
1/2+x,1/2-y,-z
1/2-x,1/2+y,-z
1/2-x,1/2-y,-z
1/2+x,1/2+y,-z
1/2-x,1/2+y,z
1/2+x,1/2-y,z
loop_
_atom_site_type_symbol
_atom_site_label
_atom_site_fract_x
_atom_site_fract_y
_atom_site_fract_z
Si Si1 0.392761 0.102325 0.500000
Si Si2 0.759226 0.354213 0.913379
Si Si3 0.114603 0.000000 0.146083
Si Si4 0.265983 0.148811 0.641785
Si Si5 0.115010 0.000000 0.324815
Si Si6 0.608144 0.102870 0.218398
O O1 0.500000 0.143772 0.500000
O O2 0.334011 0.122609 0.573879
O O3 0.404309 0.000000 0.500000
O O4 0.750000 0.250000 0.904078
O O5 0.669702 0.414369 0.885162
O O6 0.848942 0.381293 0.862322
O O7 0.773124 0.371831 0.000000
O O8 0.123940 0.000000 0.235251
O O9 0.000000 0.000000 0.127533
O O10 0.250000 0.250000 0.631397
O O11 0.320918 0.139037 0.719639
O O12 0.172694 0.084988 0.645700
O O13 0.000000 0.000000 0.342785
O O14 0.500000 0.139155 0.225961
O O15 0.604846 0.000000 0.231002
#
# Coordination Sequence:
#
# PCOD9493827 Si02
#       6
#     8  16   8  16   8  16
#     4  11  23  42  70  97 126 164 206 260 310 364
#     4  11  23  40  61  90 126 164 210 265 319 377
#     4  11  23  42  66  91 123 169 218 260 314 382
#     4  12  23  43  67  95 130 168 210 257 313 377
#     4  11  24  42  65  96 131 168 212 263 318 374
#     4  11  22  39  64  91 122 163 208 259 318 380
#
# _framework density 18.734400000000001
#
# number of rings (size 3 to 8) (size 9 to 14) (size 15 to 20)
#    0.000    0.778    5.556    2.000    0.000    5.778 
#    0.000    4.444    0.000    0.000    0.000    0.000 
#    0.000    0.000    0.000    0.000    0.000    0.000 
#
# Total GULP energy -200993.141945 kJ/mol
# GULP energy per Si atom -5583.142832 kJ/mol
# Density = 1.869176 g / cm^3
# Si number density = 18.734400 Si / 1000 Ang^3
#
#
#
# Elastic Constant Matrix: (Units=GPa)
#
#
# Indices 1 2 3 4 5 6 
#
# 1 153.0249 60.1032 48.8650 0.0000 0.0000 0.0000
# 2 60.1032 126.0626 31.8830 0.0000 0.0000 0.0000
# 3 48.8650 31.8830 82.6769 0.0000 0.0000 0.0000
# 4 0.0000 0.0000 0.0000 -5.6098 0.0000 0.0000
# 5 0.0000 0.0000 0.0000 0.0000 16.0306 0.0000
# 6 0.0000 0.0000 0.0000 0.0000 0.0000 3.6228
#
#
#
# Elastic Compliance Matrix: (Units=1/GPa)
#
#
# Indices 1 2 3 4 5 6 
#
# 1 0.009159 -0.003322 -0.004132 0.000000 0.000000 0.000000
# 2 -0.003322 0.009995 -0.001891 0.000000 0.000000 0.000000
# 3 -0.004132 -0.001891 0.015267 0.000000 0.000000 0.000000
# 4 0.000000 0.000000 0.000000 -0.178258 0.000000 0.000000
# 5 0.000000 0.000000 0.000000 0.000000 0.062381 0.000000
# 6 0.000000 0.000000 0.000000 0.000000 0.000000 0.276032
#
#
# Mechanical properties :
#
#
# Convention : Reuss Voigt Hill
#
# Bulk Modulus (GPa) = 63.57127 71.49631 67.53379
# Shear Modulus (GPa) = 22.88237 17.53627 20.20932
#
# Velocity S-wave (km/s) = 3.49866 3.06281 3.28796
# Velocity P-wave (km/s) = 7.09418 7.12416 7.10919
#
# Compressibility (1/GPa) = 0.01573038
#
# Stress axis : x y z
#
# Youngs Moduli (GPa) = 109.18082 100.05501 65.50116
#
# Poissons Ratio (x) = 0.33235 0.27068
# Poissons Ratio (y) = 0.36266 0.12386
# Poissons Ratio (z) = 0.45118 0.18920
#
# Static dielectric constant tensor:
#      x y z
#    x 1.643170 0.000000 0.000000 
#    y 0.000000 1.994750 0.000000 
#    z 0.000000 0.000000 1.616570 
# 
# From -- ./inp_files/52764.got.cif
#   From: 2010.05.17/outbox.cif.g08.bks.cpg/sg65_27_cif.got.tgz:52764.got - 2010.06.03 17:01:31.
