data_PCOD9493520
_publ_section_title
;
Structure prediction by ZEFSAII (Michael W. Deem and Ramdas Pophale) SiO2 
 PCOD9493520
Probable space group: C M M M
;
_chemical_formula_sum "Si O2"
_cell_formula_units_Z 88
_cell_length_a 9.695924
_cell_length_b 23.308914
_cell_length_c 21.457815
_cell_angle_alpha 90.000000
_cell_angle_beta 90.000000
_cell_angle_gamma 90.000000
_cell_volume 4849.497490
_symmetry_space_group_name_H-M "C M M M"
_symmetry_group_IT_number 65
_symmetry_cell_setting 'orthorhombic'
loop_
_space_group_symop_operation_xyz
x,y,z
-x,-y,z
x,-y,-z
-x,y,-z
-x,-y,-z
x,y,-z
-x,y,z
x,-y,z
1/2+x,1/2+y,z
1/2-x,1/2-y,z
1/2+x,1/2-y,-z
1/2-x,1/2+y,-z
1/2-x,1/2-y,-z
1/2+x,1/2+y,-z
1/2-x,1/2+y,z
1/2+x,1/2-y,z
loop_
_atom_site_type_symbol
_atom_site_label
_atom_site_fract_x
_atom_site_fract_y
_atom_site_fract_z
Si Si1 0.836292 0.191377 0.728544
Si Si2 0.250652 0.127316 0.852941
Si Si3 0.000000 0.314472 0.925261
Si Si4 0.334609 0.599739 0.376677
Si Si5 0.842489 0.500000 0.835871
Si Si6 0.166797 0.429893 0.500000
Si Si7 0.839425 0.500000 0.686978
Si Si8 0.500000 0.322602 0.927181
O O1 0.750000 0.250000 0.728690
O O2 0.774853 0.150700 0.782997
O O3 0.825763 0.158676 0.662339
O O4 0.000000 0.200975 0.741129
O O5 0.374860 0.158536 0.887600
O O6 0.125988 0.148208 0.893982
O O7 0.270703 0.059171 0.854220
O O8 0.000000 0.245879 0.918401
O O9 0.000000 0.326981 0.000000
O O10 0.500000 0.586672 0.384392
O O11 0.248976 0.595961 0.440861
O O12 0.251228 0.553525 0.335525
O O13 0.848619 0.500000 0.760998
O O14 0.000000 0.500000 0.859761
O O15 0.182295 0.500000 0.500000
O O16 0.000000 0.418651 0.500000
O O17 0.000000 0.500000 0.662591
O O18 0.500000 0.333407 0.000000
#
# Coordination Sequence:
#
# PCOD9493520 Si02
#       8
#    16  16   8  16   8   8   8   8
#     4  11  25  42  65  98 130 165 214 269 323 383
#     4  12  23  42  65  97 128 169 217 265 327 386
#     4  11  24  43  69  93 127 171 217 270 320 390
#     4  11  23  40  62  95 129 167 213 262 319 372
#     4  11  24  42  62  92 131 173 212 264 325 390
#     4  11  23  39  62  95 131 170 217 261 312 382
#     4  11  21  36  58  90 128 168 208 257 316 381
#     4  11  24  43  65  95 129 165 215 270 328 382
#
# _framework density 18.146211000000001
#
# number of rings (size 3 to 8) (size 9 to 14) (size 15 to 20)
#    0.000    0.818    4.545    3.273    1.273    3.636 
#    1.636    3.182    0.000    0.000    0.000    0.000 
#    0.000    0.000    0.000    0.000    0.000    0.000 
#
# Total GULP energy -245524.087478 kJ/mol
# GULP energy per Si atom -5580.092897 kJ/mol
# Density = 1.810491 g / cm^3
# Si number density = 18.146211 Si / 1000 Ang^3
#
#
#
# Elastic Constant Matrix: (Units=GPa)
#
#
# Indices 1 2 3 4 5 6 
#
# 1 179.8519 69.3861 69.1013 0.0000 0.0000 0.0000
# 2 69.3861 128.3769 65.9790 0.0000 0.0000 0.0000
# 3 69.1013 65.9790 124.1481 0.0000 0.0000 0.0000
# 4 0.0000 0.0000 0.0000 21.0789 0.0000 0.0000
# 5 0.0000 0.0000 0.0000 0.0000 40.3739 0.0000
# 6 0.0000 0.0000 0.0000 0.0000 0.0000 31.5331
#
#
#
# Elastic Compliance Matrix: (Units=1/GPa)
#
#
# Indices 1 2 3 4 5 6 
#
# 1 0.007695 -0.002693 -0.002852 0.000000 0.000000 0.000000
# 2 -0.002693 0.011659 -0.004697 0.000000 0.000000 0.000000
# 3 -0.002852 -0.004697 0.012138 0.000000 0.000000 0.000000
# 4 0.000000 0.000000 0.000000 0.047441 0.000000 0.000000
# 5 0.000000 0.000000 0.000000 0.000000 0.024768 0.000000
# 6 0.000000 0.000000 0.000000 0.000000 0.000000 0.031713
#
#
# Mechanical properties :
#
#
# Convention : Reuss Voigt Hill
#
# Bulk Modulus (GPa) = 90.84094 93.47885 92.15990
# Shear Modulus (GPa) = 31.33445 33.79121 32.56283
#
# Velocity S-wave (km/s) = 4.15996 4.31996 4.24071
# Velocity P-wave (km/s) = 8.55821 8.74693 8.65308
#
# Compressibility (1/GPa) = 0.01100825
#
# Stress axis : x y z
#
# Youngs Moduli (GPa) = 129.95726 85.76699 82.38253
#
# Poissons Ratio (x) = 0.23101 0.23492
# Poissons Ratio (y) = 0.35003 0.38698
# Poissons Ratio (z) = 0.37058 0.40288
#
# Static dielectric constant tensor:
#      x y z
#    x 2.009320 0.000000 0.000000 
#    y 0.000000 1.595340 0.000000 
#    z 0.000000 0.000000 1.631610 
# 
# From -- ./inp_files/59969.got.cif
#   From: 2010.05.17/outbox.cif.g08.bks.cpg/sg65_30_cif.got.tgz:59969.got - 2010.06.03 17:01:31.
