data_PCOD9493341
_publ_section_title
;
Structure prediction by ZEFSAII (Michael W. Deem and Ramdas Pophale) SiO2 
 PCOD9493341
Probable space group: C M M M
;
_chemical_formula_sum "Si O2"
_cell_formula_units_Z 88
_cell_length_a 24.176782
_cell_length_b 7.885865
_cell_length_c 25.777436
_cell_angle_alpha 90.000000
_cell_angle_beta 90.000000
_cell_angle_gamma 90.000000
_cell_volume 4914.592910
_symmetry_space_group_name_H-M "C M M M"
_symmetry_group_IT_number 65
_symmetry_cell_setting 'orthorhombic'
loop_
_space_group_symop_operation_xyz
x,y,z
-x,-y,z
x,-y,-z
-x,y,-z
-x,-y,-z
x,y,-z
-x,y,z
x,-y,z
1/2+x,1/2+y,z
1/2-x,1/2-y,z
1/2+x,1/2-y,-z
1/2-x,1/2+y,-z
1/2-x,1/2-y,-z
1/2+x,1/2+y,-z
1/2-x,1/2+y,z
1/2+x,1/2-y,z
loop_
_atom_site_type_symbol
_atom_site_label
_atom_site_fract_x
_atom_site_fract_y
_atom_site_fract_z
Si Si1 0.388141 0.206924 0.752707
Si Si2 0.566730 0.500000 0.058728
Si Si3 0.000000 0.706359 0.302077
Si Si4 0.500000 0.796228 0.578477
Si Si5 0.433619 0.798436 0.137362
Si Si6 0.876275 0.199777 0.444323
Si Si7 0.686717 0.800176 0.660518
O O1 0.444820 0.263991 0.725664
O O2 0.396156 0.250588 0.812948
O O3 0.340065 0.270248 0.714069
O O4 0.387168 0.000000 0.752366
O O5 0.500000 0.500000 0.055603
O O6 0.580444 0.329828 0.090935
O O7 0.588614 0.500000 0.000000
O O8 0.000000 0.500000 0.300382
O O9 0.000000 0.755612 0.361514
O O10 0.557955 0.731953 0.556770
O O11 0.500000 0.000000 0.574129
O O12 0.500000 0.778772 0.149668
O O13 0.426100 0.000000 0.126127
O O14 0.855244 0.270607 0.500000
O O15 0.848954 0.263635 0.391157
O O16 0.866226 0.000000 0.444604
O O17 0.750000 0.750000 0.653183
O O18 0.685285 0.000000 0.666755
#
# Coordination Sequence:
#
# PCOD9493341 Si02
#       7
#    16   8   8   8  16  16  16
#     4   9  16  30  53  77 104 135 169 214 267 321
#     4   9  18  30  42  68 112 152 187 219 249 304
#     4   9  14  26  50  79 102 127 164 208 260 322
#     4  11  20  34  57  84 108 134 171 210 269 327
#     4   9  16  28  48  73 103 142 183 221 263 311
#     4  11  24  40  56  77 106 137 174 221 268 322
#     4  11  23  40  59  78 103 137 175 221 277 331
#
# _framework density 17.905857999999998
#
# number of rings (size 3 to 8) (size 9 to 14) (size 15 to 20)
#    0.000    2.091    2.727    1.636    0.000    3.273 
#    3.273    1.818    0.000    0.000    0.000    0.000 
#    0.000    0.727    0.364    0.000    0.000    0.000 
#
# Total GULP energy -245182.246955 kJ/mol
# GULP energy per Si atom -5572.323794 kJ/mol
# Density = 1.786510 g / cm^3
# Si number density = 17.905858 Si / 1000 Ang^3
#
#
#
# Elastic Constant Matrix: (Units=GPa)
#
#
# Indices 1 2 3 4 5 6 
#
# 1 78.4055 10.4556 49.7428 0.0000 0.0000 0.0000
# 2 10.4556 47.7568 44.4800 0.0000 0.0000 0.0000
# 3 49.7428 44.4800 164.9710 0.0000 0.0000 0.0000
# 4 0.0000 0.0000 0.0000 22.1307 0.0000 0.0000
# 5 0.0000 0.0000 0.0000 0.0000 -25.7682 0.0000
# 6 0.0000 0.0000 0.0000 0.0000 0.0000 10.9520
#
#
#
# Elastic Compliance Matrix: (Units=1/GPa)
#
#
# Indices 1 2 3 4 5 6 
#
# 1 0.015832 0.001309 -0.005127 0.000000 0.000000 0.000000
# 2 0.001309 0.028069 -0.007963 0.000000 0.000000 0.000000
# 3 -0.005127 -0.007963 0.009754 0.000000 0.000000 0.000000
# 4 0.000000 0.000000 0.000000 0.045186 0.000000 0.000000
# 5 0.000000 0.000000 0.000000 0.000000 -0.038807 0.000000
# 6 0.000000 0.000000 0.000000 0.000000 0.000000 0.091308
#
#
# Mechanical properties :
#
#
# Convention : Reuss Voigt Hill
#
# Bulk Modulus (GPa) = 33.22871 55.61000 44.41936
# Shear Modulus (GPa) = 27.03650 13.89321 20.46486
#
# Velocity S-wave (km/s) = 3.88999 2.78853 3.38437
# Velocity P-wave (km/s) = 6.22686 6.44144 6.33506
#
# Compressibility (1/GPa) = 0.03009446
#
# Stress axis : x y z
#
# Youngs Moduli (GPa) = 63.16250 35.62618 102.51780
#
# Poissons Ratio (x) = -0.04662 0.52557
# Poissons Ratio (y) = -0.08266 0.81632
# Poissons Ratio (z) = 0.32381 0.28368
#
# Static dielectric constant tensor:
#      x y z
#    x 1.516940 0.000000 0.000000 
#    y 0.000000 1.638530 0.000000 
#    z 0.000000 0.000000 1.657010 
# 
# From -- ./inp_files/71107.got.cif
#   From: 2010.05.17/outbox.cif.g08.bks.cpg/sg65_36_cif.got.tgz:71107.got - 2010.06.03 17:01:31.
