data_PCOD9493491
_publ_section_title
;
Structure prediction by ZEFSAII (Michael W. Deem and Ramdas Pophale) SiO2 
 PCOD9493491
Probable space group: C M M M
;
_chemical_formula_sum "Si O2"
_cell_formula_units_Z 96
_cell_length_a 27.212099
_cell_length_b 9.763907
_cell_length_c 23.035062
_cell_angle_alpha 90.000000
_cell_angle_beta 90.000000
_cell_angle_gamma 90.000000
_cell_volume 6120.333137
_symmetry_space_group_name_H-M "C M M M"
_symmetry_group_IT_number 65
_symmetry_cell_setting 'orthorhombic'
loop_
_space_group_symop_operation_xyz
x,y,z
-x,-y,z
x,-y,-z
-x,y,-z
-x,-y,-z
x,y,-z
-x,y,z
x,-y,z
1/2+x,1/2+y,z
1/2-x,1/2-y,z
1/2+x,1/2-y,-z
1/2-x,1/2+y,-z
1/2-x,1/2-y,-z
1/2+x,1/2+y,-z
1/2-x,1/2+y,z
1/2+x,1/2-y,z
loop_
_atom_site_type_symbol
_atom_site_label
_atom_site_fract_x
_atom_site_fract_y
_atom_site_fract_z
Si Si1 0.200029 0.666372 0.738559
Si Si2 0.296857 0.500000 0.070886
Si Si3 0.820102 0.500000 0.068041
Si Si4 0.443616 0.666154 0.434919
Si Si5 0.114461 0.835177 0.679781
Si Si6 0.347606 0.251434 0.860791
Si Si7 0.554978 0.663235 0.796038
O O1 0.203868 0.500000 0.732873
O O2 0.250000 0.750000 0.727780
O O3 0.159238 0.736956 0.697325
O O4 0.182891 0.704776 0.803943
O O5 0.238293 0.500000 0.081957
O O6 0.321266 0.626998 0.104331
O O7 0.304184 0.500000 0.000000
O O8 0.846507 0.371238 0.094900
O O9 0.823333 0.500000 0.000000
O O10 0.429023 0.710484 0.500000
O O11 0.500000 0.710716 0.424504
O O12 0.444509 0.500000 0.435242
O O13 0.408038 0.703123 0.382405
O O14 0.073563 0.815165 0.730056
O O15 0.127111 0.000000 0.680693
O O16 0.402031 0.284412 0.837900
O O17 0.500000 0.718871 0.805011
O O18 0.553132 0.500000 0.804239
#
# Coordination Sequence:
#
# PCOD9493491 Si02
#       7
#    16   8   8  16  16  16  16
#     4  11  22  34  52  74 102 134 167 209 257 306
#     4  11  22  36  55  79 103 133 167 204 248 304
#     4  11  22  36  53  75 105 133 161 202 256 308
#     4   8  13  23  44  76 110 140 171 210 254 300
#     4   9  17  29  49  77 105 133 170 210 254 299
#     4  11  21  35  54  78 102 131 166 206 253 305
#     4   9  17  31  52  74  98 130 169 211 248 289
#
# _framework density 15.685421
#
# number of rings (size 3 to 8) (size 9 to 14) (size 15 to 20)
#    0.000    2.167    1.667    3.500    2.333    3.333 
#    0.000    0.417    0.000    5.500    0.000    1.167 
#    0.000    0.000    0.000    0.000    0.000    0.000 
#
# Total GULP energy -267349.489319 kJ/mol
# GULP energy per Si atom -5569.781027 kJ/mol
# Density = 1.564972 g / cm^3
# Si number density = 15.685421 Si / 1000 Ang^3
#
#
#
# Elastic Constant Matrix: (Units=GPa)
#
#
# Indices 1 2 3 4 5 6 
#
# 1 116.4018 46.0185 72.4207 0.0000 0.0000 0.0000
# 2 46.0185 86.6136 46.5646 0.0000 0.0000 0.0000
# 3 72.4207 46.5646 110.7763 0.0000 0.0000 0.0000
# 4 0.0000 0.0000 0.0000 20.4656 0.0000 0.0000
# 5 0.0000 0.0000 0.0000 0.0000 19.1781 0.0000
# 6 0.0000 0.0000 0.0000 0.0000 0.0000 15.9694
#
#
#
# Elastic Compliance Matrix: (Units=1/GPa)
#
#
# Indices 1 2 3 4 5 6 
#
# 1 0.015282 -0.003551 -0.008498 0.000000 0.000000 0.000000
# 2 -0.003551 0.015741 -0.004296 0.000000 0.000000 0.000000
# 3 -0.008498 -0.004296 0.016389 0.000000 0.000000 0.000000
# 4 0.000000 0.000000 0.000000 0.048863 0.000000 0.000000
# 5 0.000000 0.000000 0.000000 0.000000 0.052143 0.000000
# 6 0.000000 0.000000 0.000000 0.000000 0.000000 0.062620
#
#
# Mechanical properties :
#
#
# Convention : Reuss Voigt Hill
#
# Bulk Modulus (GPa) = 67.92064 71.53324 69.72694
# Shear Modulus (GPa) = 20.10993 21.04180 20.57586
#
# Velocity S-wave (km/s) = 3.58450 3.66661 3.62578
# Velocity P-wave (km/s) = 7.77993 7.97679 7.87898
#
# Compressibility (1/GPa) = 0.01472306
#
# Stress axis : x y z
#
# Youngs Moduli (GPa) = 65.43717 63.52677 61.01838
#
# Poissons Ratio (x) = 0.22556 0.51854
# Poissons Ratio (y) = 0.23235 0.26211
# Poissons Ratio (z) = 0.55609 0.27288
#
# Static dielectric constant tensor:
#      x y z
#    x 1.522360 0.000000 0.000000 
#    y 0.000000 1.502550 0.000000 
#    z 0.000000 0.000000 1.519900 
# 
# From -- ./inp_files/71748.got.cif
#   From: 2010.05.17/outbox.cif.g08.bks.cpg/sg65_36_cif.got.tgz:71748.got - 2010.06.03 17:01:31.
