data_PCOD9493758
_publ_section_title
;
Structure prediction by ZEFSAII (Michael W. Deem and Ramdas Pophale) SiO2 
 PCOD9493758
Probable space group: C M M M
;
_chemical_formula_sum "Si O2"
_cell_formula_units_Z 64
_cell_length_a 9.340301
_cell_length_b 15.358336
_cell_length_c 23.131425
_cell_angle_alpha 90.000000
_cell_angle_beta 90.000000
_cell_angle_gamma 90.000000
_cell_volume 3318.237176
_symmetry_space_group_name_H-M "C M M M"
_symmetry_group_IT_number 65
_symmetry_cell_setting 'orthorhombic'
loop_
_space_group_symop_operation_xyz
x,y,z
-x,-y,z
x,-y,-z
-x,y,-z
-x,-y,-z
x,y,-z
-x,y,z
x,-y,z
1/2+x,1/2+y,z
1/2-x,1/2-y,z
1/2+x,1/2-y,-z
1/2-x,1/2+y,-z
1/2-x,1/2-y,-z
1/2+x,1/2+y,-z
1/2-x,1/2+y,z
1/2+x,1/2-y,z
loop_
_atom_site_type_symbol
_atom_site_label
_atom_site_fract_x
_atom_site_fract_y
_atom_site_fract_z
Si Si1 0.328143 0.336580 0.144584
Si Si2 0.826544 0.000000 0.065671
Si Si3 0.663564 0.606788 0.500000
Si Si4 0.834868 0.393772 0.387647
Si Si5 0.331955 0.105323 0.741952
O O1 0.500000 0.328138 0.145700
O O2 0.250000 0.250000 0.123897
O O3 0.286479 0.415507 0.102435
O O4 0.267596 0.356844 0.208396
O O5 0.000000 0.000000 0.063093
O O6 0.772486 0.000000 0.000000
O O7 0.667444 0.500000 0.500000
O O8 0.500000 0.634254 0.500000
O O9 0.741404 0.635941 0.558491
O O10 0.831886 0.500000 0.387699
O O11 0.789241 0.367250 0.323076
O O12 0.000000 0.368237 0.395841
O O13 0.500000 0.128562 0.750816
O O14 0.323752 0.000000 0.744591
#
# Coordination Sequence:
#
# PCOD9493758 Si02
#       5
#    16   8   8  16  16
#     4  11  22  37  59  87 117 153 193 235 284 336
#     4   9  20  40  63  87 119 156 191 230 279 335
#     4   9  15  21  31  55  92 131 174 228 279 326
#     4   8  14  24  39  60  90 133 178 222 277 336
#     4   9  17  31  52  77 107 143 186 237 288 339
#
# _framework density 19.287348999999999
#
# number of rings (size 3 to 8) (size 9 to 14) (size 15 to 20)
#    0.000    2.750    1.250    2.625    0.000    3.000 
#    0.000    2.500    0.000    5.250    0.000    0.875 
#    0.000    0.000    0.000    0.000    0.000    0.000 
#
# Total GULP energy -178568.634837 kJ/mol
# GULP energy per Si atom -5580.269839 kJ/mol
# Density = 1.924345 g / cm^3
# Si number density = 19.287349 Si / 1000 Ang^3
#
#
#
# Elastic Constant Matrix: (Units=GPa)
#
#
# Indices 1 2 3 4 5 6 
#
# 1 78.2265 45.9236 80.2615 0.0000 0.0000 0.0000
# 2 45.9236 86.3225 62.9743 0.0000 0.0000 0.0000
# 3 80.2615 62.9743 178.7423 0.0000 0.0000 0.0000
# 4 0.0000 0.0000 0.0000 -12.8490 0.0000 0.0000
# 5 0.0000 0.0000 0.0000 0.0000 19.2398 0.0000
# 6 0.0000 0.0000 0.0000 0.0000 0.0000 18.1558
#
#
#
# Elastic Compliance Matrix: (Units=1/GPa)
#
#
# Indices 1 2 3 4 5 6 
#
# 1 0.026787 -0.007370 -0.009432 0.000000 0.000000 0.000000
# 2 -0.007370 0.017620 -0.002898 0.000000 0.000000 0.000000
# 3 -0.009432 -0.002898 0.010851 0.000000 0.000000 0.000000
# 4 0.000000 0.000000 0.000000 -0.077827 0.000000 0.000000
# 5 0.000000 0.000000 0.000000 0.000000 0.051976 0.000000
# 6 0.000000 0.000000 0.000000 0.000000 0.000000 0.055079
#
#
# Mechanical properties :
#
#
# Convention : Reuss Voigt Hill
#
# Bulk Modulus (GPa) = 63.06150 80.17889 71.62020
# Shear Modulus (GPa) = 38.70825 15.18479 26.94652
#
# Velocity S-wave (km/s) = 4.48473 2.80892 3.74185
# Velocity P-wave (km/s) = 7.71906 7.22364 7.47545
#
# Compressibility (1/GPa) = 0.01585754
#
# Stress axis : x y z
#
# Youngs Moduli (GPa) = 37.33128 56.75441 92.15766
#
# Poissons Ratio (x) = 0.41829 0.86921
# Poissons Ratio (y) = 0.27514 0.26711
# Poissons Ratio (z) = 0.35210 0.16449
#
# Static dielectric constant tensor:
#      x y z
#    x 1.640230 0.000000 0.000000 
#    y 0.000000 1.717800 0.000000 
#    z 0.000000 0.000000 1.661740 
# 
# From -- ./inp_files/66794.got.cif
#   From: 2010.05.17/outbox.cif.g08.bks.cpg/sg65_34_cif.got.tgz:66794.got - 2010.06.03 17:01:31.
