data_PCOD9493194
_publ_section_title
;
Structure prediction by ZEFSAII (Michael W. Deem and Ramdas Pophale) SiO2 
 PCOD9493194
Probable space group: C M M M
;
_chemical_formula_sum "Si O2"
_cell_formula_units_Z 116
_cell_length_a 23.473263
_cell_length_b 16.944752
_cell_length_c 14.764960
_cell_angle_alpha 90.000000
_cell_angle_beta 90.000000
_cell_angle_gamma 90.000000
_cell_volume 5872.742467
_symmetry_space_group_name_H-M "C M M M"
_symmetry_group_IT_number 65
_symmetry_cell_setting 'orthorhombic'
loop_
_space_group_symop_operation_xyz
x,y,z
-x,-y,z
x,-y,-z
-x,y,-z
-x,-y,-z
x,y,-z
-x,y,z
x,-y,z
1/2+x,1/2+y,z
1/2-x,1/2-y,z
1/2+x,1/2-y,-z
1/2-x,1/2+y,-z
1/2-x,1/2-y,-z
1/2+x,1/2+y,-z
1/2-x,1/2+y,z
1/2+x,1/2-y,z
loop_
_atom_site_type_symbol
_atom_site_label
_atom_site_fract_x
_atom_site_fract_y
_atom_site_fract_z
Si Si1 0.735074 0.342461 0.893314
Si Si2 0.565516 0.294906 0.295843
Si Si3 0.243563 0.659429 0.396245
Si Si4 0.435451 0.772042 0.903331
Si Si5 0.356925 0.911982 0.849923
Si Si6 0.386717 0.127818 0.644671
Si Si7 0.576936 0.000000 0.500000
Si Si8 0.664899 0.408197 0.733514
O O1 0.750000 0.250000 0.880666
O O2 0.790468 0.391658 0.861870
O O3 0.683910 0.367915 0.828026
O O4 0.724415 0.355489 0.000000
O O5 0.500000 0.313847 0.318077
O O6 0.569342 0.277844 0.187761
O O7 0.584442 0.213600 0.344369
O O8 0.611744 0.362715 0.311043
O O9 0.263615 0.655798 0.500000
O O10 0.250000 0.750000 0.363701
O O11 0.177382 0.637458 0.392951
O O12 0.281328 0.604796 0.332799
O O13 0.500000 0.804279 0.901409
O O14 0.391330 0.843191 0.898954
O O15 0.427742 0.729473 0.000000
O O16 0.376999 0.905503 0.745714
O O17 0.368043 0.000000 0.883411
O O18 0.419970 0.068963 0.579378
O O19 0.653338 0.500000 0.746882
#
# Coordination Sequence:
#
# PCOD9493194 Si02
#       8
#    16  16  16  16  16  16   4  16
#     4  11  23  38  58  86 126 173 212 252 318 396
#     4  10  23  45  66  85 121 169 213 262 319 379
#     4  11  22  38  65  94 126 162 207 254 310 377
#     4   9  19  36  59  84 111 156 217 262 297 360
#     4  11  21  33  53  83 123 163 194 243 311 372
#     4  11  21  38  62  92 127 164 202 252 314 379
#     4  12  24  36  67 104 128 164 205 262 324 384
#     4  12  25  39  64  97 128 165 212 269 322 373
#
# _framework density 19.752269999999999
#
# number of rings (size 3 to 8) (size 9 to 14) (size 15 to 20)
#    0.000    1.241    4.138    2.897    0.966    4.414 
#    0.000    1.724    0.000    0.000    0.000    3.862 
#    0.000    0.000    0.000    0.000    0.000    0.000 
#
# Total GULP energy -323483.127574 kJ/mol
# GULP energy per Si atom -5577.295303 kJ/mol
# Density = 1.970731 g / cm^3
# Si number density = 19.752270 Si / 1000 Ang^3
#
#
#
# Elastic Constant Matrix: (Units=GPa)
#
#
# Indices 1 2 3 4 5 6 
#
# 1 93.4981 19.2674 5.4233 0.0000 0.0000 0.0000
# 2 19.2674 82.3344 18.0199 0.0000 0.0000 0.0000
# 3 5.4233 18.0199 97.9237 0.0000 0.0000 0.0000
# 4 0.0000 0.0000 0.0000 10.8729 0.0000 0.0000
# 5 0.0000 0.0000 0.0000 0.0000 3.9042 0.0000
# 6 0.0000 0.0000 0.0000 0.0000 0.0000 -4.3488
#
#
#
# Elastic Compliance Matrix: (Units=1/GPa)
#
#
# Indices 1 2 3 4 5 6 
#
# 1 0.011239 -0.002599 -0.000144 0.000000 0.000000 0.000000
# 2 -0.002599 0.013256 -0.002295 0.000000 0.000000 0.000000
# 3 -0.000144 -0.002295 0.010642 0.000000 0.000000 0.000000
# 4 0.000000 0.000000 0.000000 0.091972 0.000000 0.000000
# 5 0.000000 0.000000 0.000000 0.000000 0.256133 0.000000
# 6 0.000000 0.000000 0.000000 0.000000 0.000000 -0.229946
#
#
# Mechanical properties :
#
#
# Convention : Reuss Voigt Hill
#
# Bulk Modulus (GPa) = 39.90238 39.90861 39.90549
# Shear Modulus (GPa) = 29.11601 17.48871 23.30236
#
# Velocity S-wave (km/s) = 3.84351 2.97880 3.43845
# Velocity P-wave (km/s) = 6.31997 5.66387 6.00089
#
# Compressibility (1/GPa) = 0.02506116
#
# Stress axis : x y z
#
# Youngs Moduli (GPa) = 88.97383 75.43712 93.96350
#
# Poissons Ratio (x) = 0.19603 0.01356
# Poissons Ratio (y) = 0.23120 0.21569
# Poissons Ratio (z) = 0.01284 0.17316
#
# Static dielectric constant tensor:
#      x y z
#    x 1.705130 0.000000 0.000000 
#    y 0.000000 1.670180 0.000000 
#    z 0.000000 0.000000 1.715140 
# 
# From -- ./inp_files/46005.got.cif
#   From: 2010.05.17/outbox.cif.g08.bks.cpg/sg65_24_cif.got.tgz:46005.got - 2010.06.03 17:01:31.
