data_PCOD9493348
_publ_section_title
;
Structure prediction by ZEFSAII (Michael W. Deem and Ramdas Pophale) SiO2 
 PCOD9493348
Probable space group: C M M M
;
_chemical_formula_sum "Si O2"
_cell_formula_units_Z 56
_cell_length_a 25.413115
_cell_length_b 11.201285
_cell_length_c 10.371023
_cell_angle_alpha 90.000000
_cell_angle_beta 90.000000
_cell_angle_gamma 90.000000
_cell_volume 2952.210676
_symmetry_space_group_name_H-M "C M M M"
_symmetry_group_IT_number 65
_symmetry_cell_setting 'orthorhombic'
loop_
_space_group_symop_operation_xyz
x,y,z
-x,-y,z
x,-y,-z
-x,y,-z
-x,-y,-z
x,y,-z
-x,y,z
x,-y,z
1/2+x,1/2+y,z
1/2-x,1/2-y,z
1/2+x,1/2-y,-z
1/2-x,1/2+y,-z
1/2-x,1/2-y,-z
1/2+x,1/2+y,-z
1/2-x,1/2+y,z
1/2+x,1/2-y,z
loop_
_atom_site_type_symbol
_atom_site_label
_atom_site_fract_x
_atom_site_fract_y
_atom_site_fract_z
Si Si1 0.210348 0.138394 0.000000
Si Si2 0.559262 0.857473 0.851462
Si Si3 0.206120 0.142821 0.500000
Si Si4 0.362007 0.691298 0.753851
Si Si5 0.561976 0.500000 0.849273
O O1 0.250000 0.250000 0.000000
O O2 0.175696 0.157432 0.127636
O O3 0.230578 0.000000 0.000000
O O4 0.500000 0.819540 0.809173
O O5 0.610401 0.819100 0.770833
O O6 0.558103 0.000000 0.856163
O O7 0.565847 0.812778 0.000000
O O8 0.250000 0.250000 0.500000
O O9 0.169895 0.164855 0.374684
O O10 0.223099 0.000000 0.500000
O O11 0.413198 0.610474 0.775329
O O12 0.500000 0.500000 0.847028
O O13 0.578634 0.500000 0.000000
#
# Coordination Sequence:
#
# PCOD9493348 Si02
#       5
#     8  16   8  16   8
#     4  12  24  40  62  89 122 158 219 284 334 382
#     4   9  18  34  61  98 135 169 207 257 323 400
#     4  12  28  48  68  87 128 178 229 286 340 394
#     4  12  21  41  63  91 127 164 216 271 328 392
#     4  11  20  35  67 101 131 165 203 259 340 403
#
# _framework density 18.968834999999999
#
# number of rings (size 3 to 8) (size 9 to 14) (size 15 to 20)
#    0.000    1.000    5.714    2.571    0.000    4.571 
#    0.000    3.571    0.000    1.714    0.000    0.000 
#    0.000    0.000    0.000    0.000    0.000    0.000 
#
# Total GULP energy -156052.012813 kJ/mol
# GULP energy per Si atom -5573.286172 kJ/mol
# Density = 1.892566 g / cm^3
# Si number density = 18.968835 Si / 1000 Ang^3
#
#
#
# Elastic Constant Matrix: (Units=GPa)
#
#
# Indices 1 2 3 4 5 6 
#
# 1 101.2313 62.7278 59.8249 0.0000 0.0000 0.0000
# 2 62.7278 112.5070 31.9188 0.0000 0.0000 0.0000
# 3 59.8249 31.9188 130.4199 0.0000 0.0000 0.0000
# 4 0.0000 0.0000 0.0000 19.3830 0.0000 0.0000
# 5 0.0000 0.0000 0.0000 0.0000 22.5486 0.0000
# 6 0.0000 0.0000 0.0000 0.0000 0.0000 34.4619
#
#
#
# Elastic Compliance Matrix: (Units=1/GPa)
#
#
# Indices 1 2 3 4 5 6 
#
# 1 0.019341 -0.008883 -0.006698 0.000000 0.000000 0.000000
# 2 -0.008883 0.013632 0.000739 0.000000 0.000000 0.000000
# 3 -0.006698 0.000739 0.010559 0.000000 0.000000 0.000000
# 4 0.000000 0.000000 0.000000 0.051592 0.000000 0.000000
# 5 0.000000 0.000000 0.000000 0.000000 0.044349 0.000000
# 6 0.000000 0.000000 0.000000 0.000000 0.000000 0.029018
#
#
# Mechanical properties :
#
#
# Convention : Reuss Voigt Hill
#
# Bulk Modulus (GPa) = 72.21858 72.56681 72.39269
# Shear Modulus (GPa) = 24.65597 27.92448 26.29023
#
# Velocity S-wave (km/s) = 3.60921 3.84099 3.72690
# Velocity P-wave (km/s) = 7.45140 7.61642 7.53436
#
# Compressibility (1/GPa) = 0.01384685
#
# Stress axis : x y z
#
# Youngs Moduli (GPa) = 51.70305 73.35864 94.70463
#
# Poissons Ratio (x) = 0.65167 0.63432
# Poissons Ratio (y) = 0.45930 -0.06996
# Poissons Ratio (z) = 0.34630 -0.05419
#
# Static dielectric constant tensor:
#      x y z
#    x 1.658540 0.000000 0.000000 
#    y 0.000000 1.724610 0.000000 
#    z 0.000000 0.000000 1.631950 
# 
# From -- ./inp_files/4472.got.cif
#   From: 2010.05.17/outbox.cif.g08.bks.cpg/sg65_3_cif.got.tgz:4472.got - 2010.06.03 17:01:31.
