data_PCOD9493312
_publ_section_title
;
Structure prediction by ZEFSAII (Michael W. Deem and Ramdas Pophale) SiO2 
 PCOD9493312
Probable space group: C M M M
;
_chemical_formula_sum "Si O2"
_cell_formula_units_Z 64
_cell_length_a 25.972223
_cell_length_b 10.367254
_cell_length_c 15.834281
_cell_angle_alpha 90.000000
_cell_angle_beta 90.000000
_cell_angle_gamma 90.000000
_cell_volume 4263.548522
_symmetry_space_group_name_H-M "C M M M"
_symmetry_group_IT_number 65
_symmetry_cell_setting 'orthorhombic'
loop_
_space_group_symop_operation_xyz
x,y,z
-x,-y,z
x,-y,-z
-x,y,-z
-x,-y,-z
x,y,-z
-x,y,z
x,-y,z
1/2+x,1/2+y,z
1/2-x,1/2-y,z
1/2+x,1/2-y,-z
1/2-x,1/2+y,-z
1/2-x,1/2-y,-z
1/2+x,1/2+y,-z
1/2-x,1/2+y,z
1/2+x,1/2-y,z
loop_
_atom_site_type_symbol
_atom_site_label
_atom_site_fract_x
_atom_site_fract_y
_atom_site_fract_z
Si Si1 0.060650 0.657213 0.686575
Si Si2 0.937661 0.352265 0.500000
Si Si3 0.699016 0.000000 0.101474
Si Si4 0.178208 0.000000 0.898573
Si Si5 0.871180 0.266011 0.156436
Si Si6 0.559645 0.155491 0.000000
O O1 0.063840 0.500000 0.689027
O O2 0.075748 0.702679 0.591809
O O3 0.098411 0.713929 0.756502
O O4 0.000000 0.688200 0.701691
O O5 0.918770 0.500000 0.500000
O O6 0.000000 0.357561 0.500000
O O7 0.760194 0.000000 0.112777
O O8 0.672345 0.874898 0.141942
O O9 0.688887 0.000000 0.000000
O O10 0.153738 0.872946 0.857738
O O11 0.168426 0.000000 0.000000
O O12 0.912222 0.291630 0.082235
O O13 0.500000 0.190526 0.000000
O O14 0.563439 0.000000 0.000000
#
# Coordination Sequence:
#
# PCOD9493312 Si02
#       6
#    16   8   8   8  16   8
#     4   9  16  28  50  77 104 130 161 200 240 291
#     4   7  12  24  44  75 104 124 155 202 243 277
#     4  11  20  36  54  71  90 127 173 216 249 285
#     4  11  24  36  50  67 100 131 169 216 249 283
#     4  12  19  34  50  75  97 131 163 201 249 294
#     4  11  20  31  48  72  99 128 163 197 236 290
#
# _framework density 15.01097
#
# number of rings (size 3 to 8) (size 9 to 14) (size 15 to 20)
#    0.000    1.750    5.000    3.000    0.000    4.000 
#    0.000    3.125    0.000    0.750    0.000    7.875 
#    0.000    0.000    0.000    0.000    0.000    0.000 
#
# Total GULP energy -178381.306409 kJ/mol
# GULP energy per Si atom -5574.415825 kJ/mol
# Density = 1.497680 g / cm^3
# Si number density = 15.010970 Si / 1000 Ang^3
#
#
#
# Elastic Constant Matrix: (Units=GPa)
#
#
# Indices 1 2 3 4 5 6 
#
# 1 101.6117 53.5396 70.2087 0.0000 0.0000 0.0000
# 2 53.5396 101.2916 47.3236 0.0000 0.0000 0.0000
# 3 70.2087 47.3236 157.4493 0.0000 0.0000 0.0000
# 4 0.0000 0.0000 0.0000 11.2593 0.0000 0.0000
# 5 0.0000 0.0000 0.0000 0.0000 -7.7313 0.0000
# 6 0.0000 0.0000 0.0000 0.0000 0.0000 -2.5846
#
#
#
# Elastic Compliance Matrix: (Units=1/GPa)
#
#
# Indices 1 2 3 4 5 6 
#
# 1 0.017176 -0.006399 -0.005736 0.000000 0.000000 0.000000
# 2 -0.006399 0.013869 -0.001315 0.000000 0.000000 0.000000
# 3 -0.005736 -0.001315 0.009304 0.000000 0.000000 0.000000
# 4 0.000000 0.000000 0.000000 0.088816 0.000000 0.000000
# 5 0.000000 0.000000 0.000000 0.000000 -0.129344 0.000000
# 6 0.000000 0.000000 0.000000 0.000000 0.000000 -0.386910
#
#
# Mechanical properties :
#
#
# Convention : Reuss Voigt Hill
#
# Bulk Modulus (GPa) = 74.35120 78.05514 76.20317
# Shear Modulus (GPa) = -14.05658 12.80738 -0.62460
#
# Velocity S-wave (km/s) = -3.06342 2.92413 -0.64575
# Velocity P-wave (km/s) = 6.09312 7.96946 7.09360
#
# Compressibility (1/GPa) = 0.01344968
#
# Stress axis : x y z
#
# Youngs Moduli (GPa) = 58.22011 72.10178 107.47835
#
# Poissons Ratio (x) = 0.46138 0.61647
# Poissons Ratio (y) = 0.37255 0.14135
# Poissons Ratio (z) = 0.33394 0.09483
#
# Static dielectric constant tensor:
#      x y z
#    x 1.480910 0.000000 0.000000 
#    y 0.000000 1.496490 0.000000 
#    z 0.000000 0.000000 1.511900 
# 
# From -- ./inp_files/47412.got.cif
#   From: 2010.05.17/outbox.cif.g08.bks.cpg/sg65_24_cif.got.tgz:47412.got - 2010.06.03 17:01:31.
