data_PCOD9493418
_publ_section_title
;
Structure prediction by ZEFSAII (Michael W. Deem and Ramdas Pophale) SiO2 
 PCOD9493418
Probable space group: C M M M
;
_chemical_formula_sum "Si O2"
_cell_formula_units_Z 88
_cell_length_a 29.212641
_cell_length_b 8.733646
_cell_length_c 24.546874
_cell_angle_alpha 90.000000
_cell_angle_beta 90.000000
_cell_angle_gamma 90.000000
_cell_volume 6262.714296
_symmetry_space_group_name_H-M "C M M M"
_symmetry_group_IT_number 65
_symmetry_cell_setting 'orthorhombic'
loop_
_space_group_symop_operation_xyz
x,y,z
-x,-y,z
x,-y,-z
-x,y,-z
-x,-y,-z
x,y,-z
-x,y,z
x,-y,z
1/2+x,1/2+y,z
1/2-x,1/2-y,z
1/2+x,1/2-y,-z
1/2-x,1/2+y,-z
1/2-x,1/2-y,-z
1/2+x,1/2+y,-z
1/2-x,1/2+y,z
1/2+x,1/2-y,z
loop_
_atom_site_type_symbol
_atom_site_label
_atom_site_fract_x
_atom_site_fract_y
_atom_site_fract_z
Si Si1 0.198394 0.316640 0.669613
Si Si2 0.447957 0.683954 0.064348
Si Si3 0.198881 0.816853 0.000000
Si Si4 0.698813 0.184355 0.789714
Si Si5 0.801701 0.183198 0.559558
Si Si6 0.144367 0.683490 0.103031
O O1 0.200176 0.500000 0.664962
O O2 0.250000 0.250000 0.670864
O O3 0.179797 0.274604 0.729525
O O4 0.176328 0.249659 0.614630
O O5 0.500000 0.726214 0.079483
O O6 0.443629 0.500000 0.069448
O O7 0.408071 0.765130 0.097393
O O8 0.441961 0.720000 0.000000
O O9 0.250000 0.750000 0.000000
O O10 0.172141 0.758414 0.946735
O O11 0.200275 0.000000 0.000000
O O12 0.750000 0.250000 0.795945
O O13 0.667196 0.232078 0.839939
O O14 0.702504 0.000000 0.790885
O O15 0.822239 0.221657 0.500000
O O16 0.750000 0.250000 0.558341
O O17 0.799065 0.000000 0.563941
O O18 0.147658 0.500000 0.098394
#
# Coordination Sequence:
#
# PCOD9493418 Si02
#       6
#    16  16   8  16  16  16
#     4   9  15  24  36  49  68  95 127 162 197 231
#     4   9  18  33  51  69  88 107 128 160 203 248
#     4  12  24  36  47  62  85 110 138 171 207 243
#     4   9  19  31  42  58  80 106 137 171 202 237
#     4   9  15  21  30  46  67  90 120 160 200 233
#     4  11  21  33  48  67  86 106 135 168 206 249
#
# _framework density 14.051416
#
# number of rings (size 3 to 8) (size 9 to 14) (size 15 to 20)
#    0.000    2.364    0.909    4.636    0.000    5.091 
#    0.000    0.909    0.000    0.000    0.000    0.000 
#    0.000    0.000    0.000    0.000    0.000    0.909 
#
# Total GULP energy -245056.244297 kJ/mol
# GULP energy per Si atom -5569.460098 kJ/mol
# Density = 1.401943 g / cm^3
# Si number density = 14.051416 Si / 1000 Ang^3
#
#
#
# Elastic Constant Matrix: (Units=GPa)
#
#
# Indices 1 2 3 4 5 6 
#
# 1 62.7976 23.3524 49.0468 0.0000 0.0000 0.0000
# 2 23.3524 47.4755 44.9155 0.0000 0.0000 0.0000
# 3 49.0468 44.9155 155.8838 0.0000 0.0000 0.0000
# 4 0.0000 0.0000 0.0000 17.5865 0.0000 0.0000
# 5 0.0000 0.0000 0.0000 0.0000 1.4484 0.0000
# 6 0.0000 0.0000 0.0000 0.0000 0.0000 17.5989
#
#
#
# Elastic Compliance Matrix: (Units=1/GPa)
#
#
# Indices 1 2 3 4 5 6 
#
# 1 0.022270 -0.005946 -0.005294 0.000000 0.000000 0.000000
# 2 -0.005946 0.030545 -0.006930 0.000000 0.000000 0.000000
# 3 -0.005294 -0.006930 0.010077 0.000000 0.000000 0.000000
# 4 0.000000 0.000000 0.000000 0.056862 0.000000 0.000000
# 5 0.000000 0.000000 0.000000 0.000000 0.690394 0.000000
# 6 0.000000 0.000000 0.000000 0.000000 0.000000 0.056822
#
#
# Mechanical properties :
#
#
# Convention : Reuss Voigt Hill
#
# Bulk Modulus (GPa) = 37.66137 55.64293 46.65215
# Shear Modulus (GPa) = 5.48150 17.24957 11.36553
#
# Velocity S-wave (km/s) = 1.97724 3.50752 2.84712
# Velocity P-wave (km/s) = 5.66334 7.48926 6.63937
#
# Compressibility (1/GPa) = 0.02655241
#
# Stress axis : x y z
#
# Youngs Moduli (GPa) = 44.90385 32.73889 99.23147
#
# Poissons Ratio (x) = 0.19466 0.52530
# Poissons Ratio (y) = 0.26699 0.68769
# Poissons Ratio (z) = 0.23771 0.22689
#
# Static dielectric constant tensor:
#      x y z
#    x 1.423450 0.000000 0.000000 
#    y 0.000000 1.471700 0.000000 
#    z 0.000000 0.000000 1.520340 
# 
# From -- ./inp_files/68403.got.cif
#   From: 2010.05.17/outbox.cif.g08.bks.cpg/sg65_35_cif.got.tgz:68403.got - 2010.06.03 17:01:31.
