data_PCOD9493847
_publ_section_title
;
Structure prediction by ZEFSAII (Michael W. Deem and Ramdas Pophale) SiO2 
 PCOD9493847
Probable space group: C M M M
;
_chemical_formula_sum "Si O2"
_cell_formula_units_Z 88
_cell_length_a 15.571099
_cell_length_b 13.026612
_cell_length_c 21.710402
_cell_angle_alpha 90.000000
_cell_angle_beta 90.000000
_cell_angle_gamma 90.000000
_cell_volume 4403.708960
_symmetry_space_group_name_H-M "C M M M"
_symmetry_group_IT_number 65
_symmetry_cell_setting 'orthorhombic'
loop_
_space_group_symop_operation_xyz
x,y,z
-x,-y,z
x,-y,-z
-x,y,-z
-x,-y,-z
x,y,-z
-x,y,z
x,-y,z
1/2+x,1/2+y,z
1/2-x,1/2-y,z
1/2+x,1/2-y,-z
1/2-x,1/2+y,-z
1/2-x,1/2-y,-z
1/2+x,1/2+y,-z
1/2-x,1/2+y,z
1/2+x,1/2-y,z
loop_
_atom_site_type_symbol
_atom_site_label
_atom_site_fract_x
_atom_site_fract_y
_atom_site_fract_z
Si Si1 0.601000 0.886544 0.784444
Si Si2 0.655061 0.294491 0.869275
Si Si3 0.395082 0.500000 0.797184
Si Si4 0.604718 0.500000 0.654061
Si Si5 0.605318 0.689840 0.429801
Si Si6 0.102290 0.882142 0.000000
Si Si7 0.894930 0.382916 0.353540
O O1 0.500000 0.898839 0.774741
O O2 0.608164 0.798456 0.834686
O O3 0.634869 0.857504 0.716331
O O4 0.636027 0.000000 0.801973
O O5 0.750000 0.250000 0.870355
O O6 0.640228 0.398051 0.830128
O O7 0.628349 0.322791 0.938370
O O8 0.500000 0.500000 0.802581
O O9 0.370253 0.500000 0.725398
O O10 0.500000 0.500000 0.654258
O O11 0.632742 0.399857 0.616521
O O12 0.632981 0.673352 0.500000
O O13 0.500000 0.688789 0.430172
O O14 0.634015 0.798555 0.402160
O O15 0.000000 0.889659 0.000000
O O16 0.136654 0.000000 0.000000
O O17 0.869472 0.500000 0.366918
O O18 0.000000 0.380124 0.354637
#
# Coordination Sequence:
#
# PCOD9493847 Si02
#       7
#    16  16   8   8  16   8  16
#     4   9  18  34  57  81 112 156 200 240 294 366
#     4  12  25  39  62  93 126 155 191 254 305 346
#     4  11  22  40  66  90 118 165 215 249 291 367
#     4   9  17  28  46  72 103 143 195 243 287 348
#     4   9  15  22  35  61 103 146 181 232 301 354
#     4  11  23  44  69  91 120 161 211 244 278 354
#     4   8  14  25  41  64  95 139 191 234 278 346
#
# _framework density 19.983156000000001
#
# number of rings (size 3 to 8) (size 9 to 14) (size 15 to 20)
#    0.000    2.273    0.909    4.364    1.273    4.364 
#    0.000    2.273    0.000    1.636    0.000    0.000 
#    0.000   18.182    0.000    0.000    0.000    0.000 
#
# Total GULP energy -245466.991833 kJ/mol
# GULP energy per Si atom -5578.795269 kJ/mol
# Density = 1.993767 g / cm^3
# Si number density = 19.983156 Si / 1000 Ang^3
#
#
#
# Elastic Constant Matrix: (Units=GPa)
#
#
# Indices 1 2 3 4 5 6 
#
# 1 33.0025 19.7855 21.9758 0.0000 0.0000 0.0000
# 2 19.7855 148.6281 115.8882 0.0000 0.0000 0.0000
# 3 21.9758 115.8882 201.2358 0.0000 0.0000 0.0000
# 4 0.0000 0.0000 0.0000 39.0706 0.0000 0.0000
# 5 0.0000 0.0000 0.0000 0.0000 -33.7365 0.0000
# 6 0.0000 0.0000 0.0000 0.0000 0.0000 -27.7499
#
#
#
# Elastic Compliance Matrix: (Units=1/GPa)
#
#
# Indices 1 2 3 4 5 6 
#
# 1 0.033353 -0.002904 -0.001970 0.000000 0.000000 0.000000
# 2 -0.002904 0.012464 -0.006861 0.000000 0.000000 0.000000
# 3 -0.001970 -0.006861 0.009135 0.000000 0.000000 0.000000
# 4 0.000000 0.000000 0.000000 0.025595 0.000000 0.000000
# 5 0.000000 0.000000 0.000000 0.000000 -0.029641 0.000000
# 6 0.000000 0.000000 0.000000 0.000000 0.000000 -0.036036
#
#
# Mechanical properties :
#
#
# Convention : Reuss Voigt Hill
#
# Bulk Modulus (GPa) = 31.76258 77.57397 54.66828
# Shear Modulus (GPa) = 102.38638 10.53129 56.45884
#
# Velocity S-wave (km/s) = 7.16572 2.29816 5.32114
# Velocity P-wave (km/s) = 9.18655 6.77835 8.07275
#
# Compressibility (1/GPa) = 0.03148358
#
# Stress axis : x y z
#
# Youngs Moduli (GPa) = 29.98186 80.22888 109.46337
#
# Poissons Ratio (x) = 0.23299 0.21564
# Poissons Ratio (y) = 0.08707 0.75101
# Poissons Ratio (z) = 0.05906 0.55044
#
# Static dielectric constant tensor:
#      x y z
#    x 1.711300 0.000000 0.000000 
#    y 0.000000 1.634000 0.000000 
#    z 0.000000 0.000000 1.561480 
# 
# From -- ./inp_files/61511.got.cif
#   From: 2010.05.17/outbox.cif.g08.bks.cpg/sg65_31_cif.got.tgz:61511.got - 2010.06.03 17:01:31.
