data_PCOD9493729
_publ_section_title
;
Structure prediction by ZEFSAII (Michael W. Deem and Ramdas Pophale) SiO2 
 PCOD9493729
Probable space group: C M M M
;
_chemical_formula_sum "Si O2"
_cell_formula_units_Z 72
_cell_length_a 17.978985
_cell_length_b 9.026239
_cell_length_c 24.542818
_cell_angle_alpha 90.000000
_cell_angle_beta 90.000000
_cell_angle_gamma 90.000000
_cell_volume 3982.872699
_symmetry_space_group_name_H-M "C M M M"
_symmetry_group_IT_number 65
_symmetry_cell_setting 'orthorhombic'
loop_
_space_group_symop_operation_xyz
x,y,z
-x,-y,z
x,-y,-z
-x,y,-z
-x,-y,-z
x,y,-z
-x,y,z
x,-y,z
1/2+x,1/2+y,z
1/2-x,1/2-y,z
1/2+x,1/2-y,-z
1/2-x,1/2+y,-z
1/2-x,1/2-y,-z
1/2+x,1/2+y,-z
1/2-x,1/2+y,z
1/2+x,1/2-y,z
loop_
_atom_site_type_symbol
_atom_site_label
_atom_site_fract_x
_atom_site_fract_y
_atom_site_fract_z
Si Si1 0.585828 0.819673 0.788095
Si Si2 0.330835 0.178822 0.101485
Si Si3 0.411129 0.327414 0.000000
Si Si4 0.590745 0.827908 0.669075
Si Si5 0.909878 0.174719 0.440801
O O1 0.500000 0.772271 0.795751
O O2 0.634381 0.778450 0.839991
O O3 0.613605 0.768023 0.728571
O O4 0.584876 0.000000 0.785452
O O5 0.250000 0.250000 0.096164
O O6 0.380531 0.244371 0.053112
O O7 0.327926 0.000000 0.097972
O O8 0.386878 0.500000 0.000000
O O9 0.500000 0.323725 0.000000
O O10 0.500000 0.820700 0.669867
O O11 0.617948 0.748074 0.614643
O O12 0.611177 0.000000 0.665341
O O13 0.883868 0.233184 0.500000
O O14 0.000000 0.191705 0.440575
O O15 0.894731 0.000000 0.439043
#
# Coordination Sequence:
#
# PCOD9493729 Si02
#       5
#    16  16   8  16  16
#     4   8  15  29  49  71  94 124 163 204 245 292
#     4  11  22  37  57  79 106 138 171 205 246 296
#     4  11  24  41  60  83 109 133 164 207 248 289
#     4   8  13  22  37  57  80 108 148 195 236 277
#     4   8  13  20  29  45  75 114 150 183 226 282
#
# _framework density 18.077404000000001
#
# number of rings (size 3 to 8) (size 9 to 14) (size 15 to 20)
#    0.000    3.000    0.000    4.000    0.000    2.222 
#    0.000    4.444    0.000    5.333    0.000    0.000 
#    0.000    0.889    0.000    2.000    0.000    5.333 
#
# Total GULP energy -200494.390979 kJ/mol
# GULP energy per Si atom -5569.288638 kJ/mol
# Density = 1.803626 g / cm^3
# Si number density = 18.077404 Si / 1000 Ang^3
#
#
#
# Elastic Constant Matrix: (Units=GPa)
#
#
# Indices 1 2 3 4 5 6 
#
# 1 37.2276 20.3159 39.9637 0.0000 0.0000 0.0000
# 2 20.3159 51.1984 61.7288 0.0000 0.0000 0.0000
# 3 39.9637 61.7288 202.3478 0.0000 0.0000 0.0000
# 4 0.0000 0.0000 0.0000 56.7081 0.0000 0.0000
# 5 0.0000 0.0000 0.0000 0.0000 -10.3008 0.0000
# 6 0.0000 0.0000 0.0000 0.0000 0.0000 7.9238
#
#
#
# Elastic Compliance Matrix: (Units=1/GPa)
#
#
# Indices 1 2 3 4 5 6 
#
# 1 0.036636 -0.009196 -0.004430 0.000000 0.000000 0.000000
# 2 -0.009196 0.033204 -0.008313 0.000000 0.000000 0.000000
# 3 -0.004430 -0.008313 0.008353 0.000000 0.000000 0.000000
# 4 0.000000 0.000000 0.000000 0.017634 0.000000 0.000000
# 5 0.000000 0.000000 0.000000 0.000000 -0.097080 0.000000
# 6 0.000000 0.000000 0.000000 0.000000 0.000000 0.126203
#
#
# Mechanical properties :
#
#
# Convention : Reuss Voigt Hill
#
# Bulk Modulus (GPa) = 29.14246 59.42118 44.28182
# Shear Modulus (GPa) = 27.73674 22.11724 24.92699
#
# Velocity S-wave (km/s) = 3.92130 3.50161 3.71739
# Velocity P-wave (km/s) = 6.05459 7.02070 6.55547
#
# Compressibility (1/GPa) = 0.03431419
#
# Stress axis : x y z
#
# Youngs Moduli (GPa) = 27.29549 30.11704 119.71810
#
# Poissons Ratio (x) = 0.27696 0.53038
# Poissons Ratio (y) = 0.25101 0.99522
# Poissons Ratio (z) = 0.12093 0.25036
#
# Static dielectric constant tensor:
#      x y z
#    x 1.596090 0.000000 0.000000 
#    y 0.000000 1.609950 0.000000 
#    z 0.000000 0.000000 1.657950 
# 
# From -- ./inp_files/70320.got.cif
#   From: 2010.05.17/outbox.cif.g08.bks.cpg/sg65_36_cif.got.tgz:70320.got - 2010.06.03 17:01:31.
