data_PCOD9493870
_publ_section_title
;
Structure prediction by ZEFSAII (Michael W. Deem and Ramdas Pophale) SiO2 
 PCOD9493870
Probable space group: C M M M
;
_chemical_formula_sum "Si O2"
_cell_formula_units_Z 88
_cell_length_a 28.986390
_cell_length_b 19.834442
_cell_length_c 7.343679
_cell_angle_alpha 90.000000
_cell_angle_beta 90.000000
_cell_angle_gamma 90.000000
_cell_volume 4222.093078
_symmetry_space_group_name_H-M "C M M M"
_symmetry_group_IT_number 65
_symmetry_cell_setting 'orthorhombic'
loop_
_space_group_symop_operation_xyz
x,y,z
-x,-y,z
x,-y,-z
-x,y,-z
-x,-y,-z
x,y,-z
-x,y,z
x,-y,z
1/2+x,1/2+y,z
1/2-x,1/2-y,z
1/2+x,1/2-y,-z
1/2-x,1/2+y,-z
1/2-x,1/2-y,-z
1/2+x,1/2+y,-z
1/2-x,1/2+y,z
1/2+x,1/2-y,z
loop_
_atom_site_type_symbol
_atom_site_label
_atom_site_fract_x
_atom_site_fract_y
_atom_site_fract_z
Si Si1 0.906740 0.143198 0.287442
Si Si2 0.192971 0.182114 0.721862
Si Si3 0.948843 0.720010 0.721947
Si Si4 0.847300 0.324574 0.278966
Si Si5 0.448775 0.500000 0.216469
Si Si6 0.228623 0.577017 0.722152
O O1 0.901955 0.159135 0.500000
O O2 0.855216 0.149613 0.215758
O O3 0.940548 0.201933 0.220116
O O4 0.924471 0.068467 0.270188
O O5 0.196826 0.183475 0.500000
O O6 0.184910 0.260338 0.775294
O O7 0.233729 0.132674 0.781984
O O8 0.949873 0.716054 0.500000
O O9 0.900636 0.684577 0.779519
O O10 0.000000 0.697477 0.782786
O O11 0.848408 0.322651 0.500000
O O12 0.821002 0.392330 0.224795
O O13 0.500000 0.500000 0.292750
O O14 0.451035 0.500000 0.000000
O O15 0.230295 0.575803 0.500000
O O16 0.236523 0.500000 0.782123
#
# Coordination Sequence:
#
# PCOD9493870 Si02
#       6
#    16  16  16  16   8  16
#     4   9  17  28  44  61  76 100 140 180 206 235
#     4   8  14  23  36  54  73  96 127 166 206 240
#     4   8  13  22  37  55  71  91 128 174 208 232
#     4   8  13  21  31  46  71 101 129 160 203 249
#     4  11  23  33  39  53  83 117 139 163 208 253
#     4   9  15  20  29  47  75 107 129 152 201 260
#
# _framework density 20.842742999999999
#
# number of rings (size 3 to 8) (size 9 to 14) (size 15 to 20)
#    0.000    3.364    0.000    3.545    1.273    3.636 
#    0.000    0.000    0.000    0.545    0.000    3.818 
#    0.000   11.636    0.000    0.000    0.000    2.909 
#
# Total GULP energy -245118.104059 kJ/mol
# GULP energy per Si atom -5570.866001 kJ/mol
# Density = 2.079530 g / cm^3
# Si number density = 20.842743 Si / 1000 Ang^3
#
#
#
# Elastic Constant Matrix: (Units=GPa)
#
#
# Indices 1 2 3 4 5 6 
#
# 1 145.6954 69.6483 6.4325 0.0000 0.0000 0.0000
# 2 69.6483 79.1058 -0.6615 0.0000 0.0000 0.0000
# 3 6.4325 -0.6615 71.4774 0.0000 0.0000 0.0000
# 4 0.0000 0.0000 0.0000 -92.7466 0.0000 0.0000
# 5 0.0000 0.0000 0.0000 0.0000 -4.9818 0.0000
# 6 0.0000 0.0000 0.0000 0.0000 0.0000 14.4770
#
#
#
# Elastic Compliance Matrix: (Units=1/GPa)
#
#
# Indices 1 2 3 4 5 6 
#
# 1 0.011950 -0.010531 -0.001173 0.000000 0.000000 0.000000
# 2 -0.010531 0.021923 0.001151 0.000000 0.000000 0.000000
# 3 -0.001173 0.001151 0.014107 0.000000 0.000000 0.000000
# 4 0.000000 0.000000 0.000000 -0.010782 0.000000 0.000000
# 5 0.000000 0.000000 0.000000 0.000000 -0.200732 0.000000
# 6 0.000000 0.000000 0.000000 0.000000 0.000000 0.069075
#
#
# Mechanical properties :
#
#
# Convention : Reuss Voigt Hill
#
# Bulk Modulus (GPa) = 37.21226 49.67970 43.44598
# Shear Modulus (GPa) = -77.64359 -1.92632 -39.78496
#
# Velocity S-wave (km/s) = -6.11007 -0.96240 -4.37374
# Velocity P-wave (km/s) = 5.64665 4.75944 2.14854
#
# Compressibility (1/GPa) = 0.02687286
#
# Stress axis : x y z
#
# Youngs Moduli (GPa) = 83.68536 45.61492 70.88864
#
# Poissons Ratio (x) = 0.48036 0.08314
# Poissons Ratio (y) = 0.88127 -0.08156
# Poissons Ratio (z) = 0.09815 -0.05248
#
# Static dielectric constant tensor:
#      x y z
#    x 1.768900 0.000000 0.000000 
#    y 0.000000 1.699180 0.000000 
#    z 0.000000 0.000000 1.805560 
# 
# From -- ./inp_files/18265.got.cif
#   From: 2010.05.17/outbox.cif.g08.bks.cpg/sg65_10_cif.got.tgz:18265.got - 2010.06.03 17:01:31.
