data_PCOD9493539
_publ_section_title
;
Structure prediction by ZEFSAII (Michael W. Deem and Ramdas Pophale) SiO2 
 PCOD9493539
Probable space group: C M M M
;
_chemical_formula_sum "Si O2"
_cell_formula_units_Z 56
_cell_length_a 14.481866
_cell_length_b 25.950919
_cell_length_c 7.864630
_cell_angle_alpha 90.000000
_cell_angle_beta 90.000000
_cell_angle_gamma 90.000000
_cell_volume 2955.667406
_symmetry_space_group_name_H-M "C M M M"
_symmetry_group_IT_number 65
_symmetry_cell_setting 'orthorhombic'
loop_
_space_group_symop_operation_xyz
x,y,z
-x,-y,z
x,-y,-z
-x,y,-z
-x,-y,-z
x,y,-z
-x,y,z
x,-y,z
1/2+x,1/2+y,z
1/2-x,1/2-y,z
1/2+x,1/2-y,-z
1/2-x,1/2+y,-z
1/2-x,1/2-y,-z
1/2+x,1/2+y,-z
1/2-x,1/2+y,z
1/2+x,1/2-y,z
loop_
_atom_site_type_symbol
_atom_site_label
_atom_site_fract_x
_atom_site_fract_y
_atom_site_fract_z
Si Si1 0.644317 0.731011 0.807112
Si Si2 0.197608 0.121915 0.689281
Si Si3 0.391059 0.561466 0.000000
Si Si4 0.600375 0.842602 0.793085
O O1 0.750000 0.750000 0.819099
O O2 0.647405 0.677668 0.708002
O O3 0.598110 0.782574 0.737489
O O4 0.611490 0.720625 0.000000
O O5 0.183304 0.101744 0.500000
O O6 0.157225 0.085976 0.835243
O O7 0.307164 0.131842 0.720741
O O8 0.380988 0.500000 0.000000
O O9 0.500000 0.574000 0.000000
O O10 0.500000 0.865959 0.751442
O O11 0.609777 0.841924 0.000000
#
# Coordination Sequence:
#
# PCOD9493539 Si02
#       4
#    16  16   8  16
#     4   8  14  28  49  80 118 161 198 227 261 315
#     4  11  21  37  62  89 118 153 193 237 290 348
#     4  11  26  48  68  83 105 139 186 250 312 355
#     4   9  17  31  55  88 127 168 200 225 264 329
#
# _framework density 18.946650999999999
#
# number of rings (size 3 to 8) (size 9 to 14) (size 15 to 20)
#    0.000    2.429    2.857    1.714    0.000    8.000 
#    0.000    1.429    0.000    1.714    0.000    2.000 
#    0.000    0.000    0.000    0.000    0.000    0.000 
#
# Total GULP energy -156090.499111 kJ/mol
# GULP energy per Si atom -5574.660683 kJ/mol
# Density = 1.890353 g / cm^3
# Si number density = 18.946651 Si / 1000 Ang^3
#
#
#
# Elastic Constant Matrix: (Units=GPa)
#
#
# Indices 1 2 3 4 5 6 
#
# 1 125.6182 46.0426 49.9900 0.0000 0.0000 0.0000
# 2 46.0426 63.1645 46.9373 0.0000 0.0000 0.0000
# 3 49.9900 46.9373 129.5535 0.0000 0.0000 0.0000
# 4 0.0000 0.0000 0.0000 -5.9913 0.0000 0.0000
# 5 0.0000 0.0000 0.0000 0.0000 13.3009 0.0000
# 6 0.0000 0.0000 0.0000 0.0000 0.0000 19.8523
#
#
#
# Elastic Compliance Matrix: (Units=1/GPa)
#
#
# Indices 1 2 3 4 5 6 
#
# 1 0.011182 -0.006766 -0.001863 0.000000 0.000000 0.000000
# 2 -0.006766 0.025759 -0.006721 0.000000 0.000000 0.000000
# 3 -0.001863 -0.006721 0.010873 0.000000 0.000000 0.000000
# 4 0.000000 0.000000 0.000000 -0.166907 0.000000 0.000000
# 5 0.000000 0.000000 0.000000 0.000000 0.075183 0.000000
# 6 0.000000 0.000000 0.000000 0.000000 0.000000 0.050372
#
#
# Mechanical properties :
#
#
# Convention : Reuss Voigt Hill
#
# Bulk Modulus (GPa) = 58.44050 67.14176 62.79113
# Shear Modulus (GPa) = 116.63898 17.12347 66.88123
#
# Velocity S-wave (km/s) = 7.85464 3.00954 5.94781
# Velocity P-wave (km/s) = 10.63825 6.89860 8.96557
#
# Compressibility (1/GPa) = 0.01711142
#
# Stress axis : x y z
#
# Youngs Moduli (GPa) = 89.42748 38.82195 91.97102
#
# Poissons Ratio (x) = 0.26269 0.17137
# Poissons Ratio (y) = 0.60511 0.61818
# Poissons Ratio (z) = 0.16663 0.26094
#
# Static dielectric constant tensor:
#      x y z
#    x 1.721630 0.000000 0.000000 
#    y 0.000000 1.627580 0.000000 
#    z 0.000000 0.000000 1.674570 
# 
# From -- ./inp_files/6563.got.cif
#   From: 2010.05.17/outbox.cif.g08.bks.cpg/sg65_4_cif.got.tgz:6563.got - 2010.06.03 17:01:31.
