data_PCOD9493126
_publ_section_title
;
Structure prediction by ZEFSAII (Michael W. Deem and Ramdas Pophale) SiO2 
 PCOD9493126
Probable space group: C M M M
;
_chemical_formula_sum "Si O2"
_cell_formula_units_Z 64
_cell_length_a 14.923991
_cell_length_b 10.275406
_cell_length_c 23.498792
_cell_angle_alpha 90.000000
_cell_angle_beta 90.000000
_cell_angle_gamma 90.000000
_cell_volume 3603.541320
_symmetry_space_group_name_H-M "C M M M"
_symmetry_group_IT_number 65
_symmetry_cell_setting 'orthorhombic'
loop_
_space_group_symop_operation_xyz
x,y,z
-x,-y,z
x,-y,-z
-x,y,-z
-x,-y,-z
x,y,-z
-x,y,z
x,-y,z
1/2+x,1/2+y,z
1/2-x,1/2-y,z
1/2+x,1/2-y,-z
1/2-x,1/2+y,-z
1/2-x,1/2-y,-z
1/2+x,1/2+y,-z
1/2-x,1/2+y,z
1/2+x,1/2-y,z
loop_
_atom_site_type_symbol
_atom_site_label
_atom_site_fract_x
_atom_site_fract_y
_atom_site_fract_z
Si Si1 0.394799 0.000000 0.730117
Si Si2 0.604164 0.500000 0.271340
Si Si3 0.750000 0.250000 0.907610
Si Si4 0.746035 0.000000 0.827385
Si Si5 0.000000 0.343759 0.567541
Si Si6 0.607993 0.658776 0.000000
Si Si7 0.646908 0.752436 0.652401
O O1 0.340593 0.000000 0.787838
O O2 0.368427 0.126125 0.694123
O O3 0.500000 0.000000 0.739527
O O4 0.500000 0.500000 0.253792
O O5 0.669741 0.500000 0.216631
O O6 0.622761 0.375084 0.311165
O O7 0.756648 0.374594 0.867276
O O8 0.662587 0.278593 0.946952
O O9 0.915636 0.277759 0.598362
O O10 0.000000 0.500000 0.579588
O O11 0.000000 0.326746 0.500000
O O12 0.620004 0.500000 0.000000
O O13 0.500000 0.682913 0.000000
O O14 0.750000 0.750000 0.635314
#
# Coordination Sequence:
#
# PCOD9493126 Si02
#       7
#     8   8   8   8   8   8  16
#     4  12  22  40  63  89 124 178 210 248 316 390
#     4  12  24  38  63  95 126 172 208 254 320 384
#     4  11  24  42  66 100 134 164 213 278 316 368
#     4  12  24  39  62 100 137 162 216 268 318 376
#     4  11  24  43  67  93 123 165 219 276 321 376
#     4  10  22  45  74  93 126 179 219 256 332 376
#     4  12  21  40  65  89 123 165 214 257 318 389
#
# _framework density 17.760307999999998
#
# number of rings (size 3 to 8) (size 9 to 14) (size 15 to 20)
#    0.000    0.500    7.500    1.500    0.000    2.500 
#    0.000    1.875    0.000    0.000    0.000    0.000 
#    0.000    0.000    0.000    0.000    0.000    0.000 
#
# Total GULP energy -178774.966917 kJ/mol
# GULP energy per Si atom -5586.717716 kJ/mol
# Density = 1.771988 g / cm^3
# Si number density = 17.760308 Si / 1000 Ang^3
#
#
#
# Elastic Constant Matrix: (Units=GPa)
#
#
# Indices 1 2 3 4 5 6 
#
# 1 212.8376 61.1521 90.4564 0.0000 0.0000 0.0000
# 2 61.1521 169.0705 85.7666 0.0000 0.0000 0.0000
# 3 90.4564 85.7666 155.5286 0.0000 0.0000 0.0000
# 4 0.0000 0.0000 0.0000 44.1919 0.0000 0.0000
# 5 0.0000 0.0000 0.0000 0.0000 29.5366 0.0000
# 6 0.0000 0.0000 0.0000 0.0000 0.0000 28.2231
#
#
#
# Elastic Compliance Matrix: (Units=1/GPa)
#
#
# Indices 1 2 3 4 5 6 
#
# 1 0.006282 -0.000581 -0.003333 0.000000 0.000000 0.000000
# 2 -0.000581 0.008266 -0.004220 0.000000 0.000000 0.000000
# 3 -0.003333 -0.004220 0.010695 0.000000 0.000000 0.000000
# 4 0.000000 0.000000 0.000000 0.022629 0.000000 0.000000
# 5 0.000000 0.000000 0.000000 0.000000 0.033856 0.000000
# 6 0.000000 0.000000 0.000000 0.000000 0.000000 0.035432
#
#
# Mechanical properties :
#
#
# Convention : Reuss Voigt Hill
#
# Bulk Modulus (GPa) = 111.43080 112.46524 111.94802
# Shear Modulus (GPa) = 36.65147 40.39443 38.52295
#
# Velocity S-wave (km/s) = 4.54770 4.77426 4.66236
# Velocity P-wave (km/s) = 9.51068 9.68777 9.59963
#
# Compressibility (1/GPa) = 0.00897418
#
# Stress axis : x y z
#
# Youngs Moduli (GPa) = 159.18464 120.98169 93.49861
#
# Poissons Ratio (x) = 0.07034 0.31164
# Poissons Ratio (y) = 0.09255 0.39457
# Poissons Ratio (z) = 0.53057 0.51054
#
# Static dielectric constant tensor:
#      x y z
#    x 1.606760 0.000000 0.000000 
#    y 0.000000 1.627780 0.000000 
#    z 0.000000 0.000000 1.578780 
# 
# From -- ./inp_files/69630.got.cif
#   From: 2010.05.17/outbox.cif.g08.bks.cpg/sg65_35_cif.got.tgz:69630.got - 2010.06.03 17:01:31.
