data_PCOD9493666
_publ_section_title
;
Structure prediction by ZEFSAII (Michael W. Deem and Ramdas Pophale) SiO2 
 PCOD9493666
Probable space group: C M M M
;
_chemical_formula_sum "Si O2"
_cell_formula_units_Z 72
_cell_length_a 32.735535
_cell_length_b 13.703423
_cell_length_c 8.061807
_cell_angle_alpha 90.000000
_cell_angle_beta 90.000000
_cell_angle_gamma 90.000000
_cell_volume 3616.436999
_symmetry_space_group_name_H-M "C M M M"
_symmetry_group_IT_number 65
_symmetry_cell_setting 'orthorhombic'
loop_
_space_group_symop_operation_xyz
x,y,z
-x,-y,z
x,-y,-z
-x,y,-z
-x,-y,-z
x,y,-z
-x,y,z
x,-y,z
1/2+x,1/2+y,z
1/2-x,1/2-y,z
1/2+x,1/2-y,-z
1/2-x,1/2+y,-z
1/2-x,1/2-y,-z
1/2+x,1/2+y,-z
1/2-x,1/2+y,z
1/2+x,1/2-y,z
loop_
_atom_site_type_symbol
_atom_site_label
_atom_site_fract_x
_atom_site_fract_y
_atom_site_fract_z
Si Si1 0.592558 0.194910 0.303580
Si Si2 0.185294 0.701782 0.200356
Si Si3 0.452167 0.609773 0.702164
Si Si4 0.768454 0.106087 0.202385
Si Si5 0.454258 0.000000 0.197215
O O1 0.587824 0.199476 0.500000
O O2 0.640178 0.183234 0.262557
O O3 0.574182 0.297809 0.236943
O O4 0.568757 0.099073 0.245336
O O5 0.201898 0.807487 0.255996
O O6 0.221724 0.628987 0.251464
O O7 0.183991 0.700289 0.000000
O O8 0.450358 0.608946 0.500000
O O9 0.500000 0.623368 0.746388
O O10 0.439586 0.500000 0.756936
O O11 0.781332 0.000000 0.259936
O O12 0.768780 0.107626 0.000000
O O13 0.500000 0.000000 0.269212
O O14 0.456886 0.000000 0.000000
#
# Coordination Sequence:
#
# PCOD9493666 Si02
#       5
#    16  16  16  16   8
#     4  11  22  35  55  84 116 145 180 228 280 335
#     4   9  18  32  51  77 104 137 185 229 271 324
#     4   8  15  30  52  76 103 139 179 216 261 323
#     4   8  15  30  52  74 100 140 188 232 270 319
#     4  11  25  43  61  81 109 149 193 235 281 333
#
# _framework density 19.909096999999999
#
# number of rings (size 3 to 8) (size 9 to 14) (size 15 to 20)
#    0.000    2.778    0.000    3.667    1.556    2.667 
#    0.000    2.222    0.000    3.333    0.000    7.778 
#    0.000    0.000    0.000    0.000    0.000    0.000 
#
# Total GULP energy -200764.368658 kJ/mol
# GULP energy per Si atom -5576.788018 kJ/mol
# Density = 1.986378 g / cm^3
# Si number density = 19.909097 Si / 1000 Ang^3
#
#
#
# Elastic Constant Matrix: (Units=GPa)
#
#
# Indices 1 2 3 4 5 6 
#
# 1 124.9116 57.9581 9.2491 0.0000 0.0000 0.0000
# 2 57.9581 117.8718 12.8413 0.0000 0.0000 0.0000
# 3 9.2491 12.8413 19.3421 0.0000 0.0000 0.0000
# 4 0.0000 0.0000 0.0000 -1.0875 0.0000 0.0000
# 5 0.0000 0.0000 0.0000 0.0000 -40.2648 0.0000
# 6 0.0000 0.0000 0.0000 0.0000 0.0000 29.5787
#
#
#
# Elastic Compliance Matrix: (Units=1/GPa)
#
#
# Indices 1 2 3 4 5 6 
#
# 1 0.010424 -0.004940 -0.001705 0.000000 0.000000 0.000000
# 2 -0.004940 0.011486 -0.005264 0.000000 0.000000 0.000000
# 3 -0.001705 -0.005264 0.056010 0.000000 0.000000 0.000000
# 4 0.000000 0.000000 0.000000 -0.919579 0.000000 0.000000
# 5 0.000000 0.000000 0.000000 0.000000 -0.024836 0.000000
# 6 0.000000 0.000000 0.000000 0.000000 0.000000 0.033808
#
#
# Mechanical properties :
#
#
# Convention : Reuss Voigt Hill
#
# Bulk Modulus (GPa) = 18.48300 46.91362 32.69831
# Shear Modulus (GPa) = -6.32243 9.78375 1.73066
#
# Velocity S-wave (km/s) = -1.78397 2.21921 0.93336
# Velocity P-wave (km/s) = 2.24955 5.49378 4.19774
#
# Compressibility (1/GPa) = 0.05410377
#
# Stress axis : x y z
#
# Youngs Moduli (GPa) = 95.93334 87.06167 17.85380
#
# Poissons Ratio (x) = 0.43006 0.03044
# Poissons Ratio (y) = 0.47388 0.09398
# Poissons Ratio (z) = 0.16357 0.45826
#
# Static dielectric constant tensor:
#      x y z
#    x 1.677110 0.000000 0.000000 
#    y 0.000000 1.722380 0.000000 
#    z 0.000000 0.000000 1.711400 
# 
# From -- ./inp_files/15768.got.cif
#   From: 2010.05.17/outbox.cif.g08.bks.cpg/sg65_8_cif.got.tgz:15768.got - 2010.06.03 17:01:31.
