data_PCOD9493228
_publ_section_title
;
Structure prediction by ZEFSAII (Michael W. Deem and Ramdas Pophale) SiO2 
 PCOD9493228
Probable space group: C M M M
;
_chemical_formula_sum "Si O2"
_cell_formula_units_Z 66
_cell_length_a 9.171552
_cell_length_b 31.201381
_cell_length_c 12.046045
_cell_angle_alpha 90.000000
_cell_angle_beta 90.000000
_cell_angle_gamma 90.000000
_cell_volume 3447.157531
_symmetry_space_group_name_H-M "C M M M"
_symmetry_group_IT_number 65
_symmetry_cell_setting 'orthorhombic'
loop_
_space_group_symop_operation_xyz
x,y,z
-x,-y,z
x,-y,-z
-x,y,-z
-x,-y,-z
x,y,-z
-x,y,z
x,-y,z
1/2+x,1/2+y,z
1/2-x,1/2-y,z
1/2+x,1/2-y,-z
1/2-x,1/2+y,-z
1/2-x,1/2-y,-z
1/2+x,1/2+y,-z
1/2-x,1/2+y,z
1/2+x,1/2-y,z
loop_
_atom_site_type_symbol
_atom_site_label
_atom_site_fract_x
_atom_site_fract_y
_atom_site_fract_z
Si Si1 0.230494 0.066136 0.500000
Si Si2 0.500000 0.000000 0.500000
Si Si3 0.164816 0.047561 0.749475
Si Si4 0.175868 0.294608 0.280225
Si Si5 0.325940 0.123892 0.872748
Si Si6 0.321835 0.666586 0.500000
O O1 0.158568 0.054112 0.617011
O O2 0.237185 0.117753 0.500000
O O3 0.375423 0.037907 0.500000
O O4 0.256089 0.085128 0.804494
O O5 0.000000 0.049243 0.792738
O O6 0.226540 0.000000 0.771028
O O7 0.250000 0.250000 0.246894
O O8 0.202951 0.331425 0.189200
O O9 0.255983 0.310028 0.392462
O O10 0.000000 0.290439 0.296270
O O11 0.500000 0.118000 0.872677
O O12 0.274649 0.124257 0.000000
O O13 0.500000 0.666344 0.500000
#
# Coordination Sequence:
#
# PCOD9493228 Si02
#       6
#     8   2  16  16  16   8
#     4  12  24  38  62  96 133 168 211 255 312 376
#     4  12  28  36  62 104 138 176 222 252 312 386
#     4  11  23  40  63  93 130 167 208 261 318 376
#     4  11  24  42  66  95 129 165 209 261 323 388
#     4  10  24  44  65  90 122 165 217 267 317 377
#     4  12  24  40  66  97 133 169 209 257 321 381
#
# _framework density 19.146208999999999
#
# number of rings (size 3 to 8) (size 9 to 14) (size 15 to 20)
#    0.000    0.970    3.636    2.545    3.394    3.879 
#    0.000    2.424    0.000    0.000    0.000    0.000 
#    0.000    0.000    0.000    0.000    0.000    0.000 
#
# Total GULP energy -184040.843981 kJ/mol
# GULP energy per Si atom -5576.995272 kJ/mol
# Density = 1.910263 g / cm^3
# Si number density = 19.146209 Si / 1000 Ang^3
#
#
#
# Elastic Constant Matrix: (Units=GPa)
#
#
# Indices 1 2 3 4 5 6 
#
# 1 91.7057 75.9424 54.8981 0.0000 0.0000 0.0000
# 2 75.9424 201.1444 71.1460 0.0000 0.0000 0.0000
# 3 54.8981 71.1460 125.6841 0.0000 0.0000 0.0000
# 4 0.0000 0.0000 0.0000 -22.2186 0.0000 0.0000
# 5 0.0000 0.0000 0.0000 0.0000 44.2989 0.0000
# 6 0.0000 0.0000 0.0000 0.0000 0.0000 37.7451
#
#
#
# Elastic Compliance Matrix: (Units=1/GPa)
#
#
# Indices 1 2 3 4 5 6 
#
# 1 0.018112 -0.005051 -0.005052 0.000000 0.000000 0.000000
# 2 -0.005051 0.007625 -0.002110 0.000000 0.000000 0.000000
# 3 -0.005052 -0.002110 0.011357 0.000000 0.000000 0.000000
# 4 0.000000 0.000000 0.000000 -0.045007 0.000000 0.000000
# 5 0.000000 0.000000 0.000000 0.000000 0.022574 0.000000
# 6 0.000000 0.000000 0.000000 0.000000 0.000000 0.026494
#
#
# Mechanical properties :
#
#
# Convention : Reuss Voigt Hill
#
# Bulk Modulus (GPa) = 78.93769 91.38969 85.16369
# Shear Modulus (GPa) = 71.63105 26.40160 49.01633
#
# Velocity S-wave (km/s) = 6.12322 3.71745 5.06524
# Velocity P-wave (km/s) = 9.55564 8.14015 8.87615
#
# Compressibility (1/GPa) = 0.01266822
#
# Stress axis : x y z
#
# Youngs Moduli (GPa) = 55.21347 131.14865 88.04877
#
# Poissons Ratio (x) = 0.66246 0.44479
# Poissons Ratio (y) = 0.27890 0.18577
# Poissons Ratio (z) = 0.27892 0.27671
#
# Static dielectric constant tensor:
#      x y z
#    x 1.651610 0.000000 0.000000 
#    y 0.000000 1.654830 0.000000 
#    z 0.000000 0.000000 1.658510 
# 
# From -- ./inp_files/21116.got.cif
#   From: 2010.05.17/outbox.cif.g08.bks.cpg/sg65_11_cif.got.tgz:21116.got - 2010.06.03 17:01:31.
