data_PCOD9493723
_publ_section_title
;
Structure prediction by ZEFSAII (Michael W. Deem and Ramdas Pophale) SiO2 
 PCOD9493723
Probable space group: C M M M
;
_chemical_formula_sum "Si O2"
_cell_formula_units_Z 104
_cell_length_a 26.408984
_cell_length_b 7.544121
_cell_length_c 22.920834
_cell_angle_alpha 90.000000
_cell_angle_beta 90.000000
_cell_angle_gamma 90.000000
_cell_volume 4566.576682
_symmetry_space_group_name_H-M "C M M M"
_symmetry_group_IT_number 65
_symmetry_cell_setting 'orthorhombic'
loop_
_space_group_symop_operation_xyz
x,y,z
-x,-y,z
x,-y,-z
-x,y,-z
-x,-y,-z
x,y,-z
-x,y,z
x,-y,z
1/2+x,1/2+y,z
1/2-x,1/2-y,z
1/2+x,1/2-y,-z
1/2-x,1/2+y,-z
1/2-x,1/2-y,-z
1/2+x,1/2+y,-z
1/2-x,1/2+y,z
1/2+x,1/2-y,z
loop_
_atom_site_type_symbol
_atom_site_label
_atom_site_fract_x
_atom_site_fract_y
_atom_site_fract_z
Si Si1 0.912110 0.699122 0.230011
Si Si2 0.596862 0.782335 0.359133
Si Si3 0.500000 0.216018 0.433847
Si Si4 0.807939 0.712411 0.566735
Si Si5 0.444855 0.216588 0.105074
Si Si6 0.305675 0.699648 0.190646
Si Si7 0.335116 0.785228 0.063396
O O1 0.933344 0.500000 0.234734
O O2 0.914510 0.781843 0.293713
O O3 0.937356 0.778567 0.172130
O O4 0.852492 0.689282 0.214290
O O5 0.550627 0.730934 0.400438
O O6 0.649690 0.723187 0.388029
O O7 0.598724 0.000000 0.356052
O O8 0.500000 0.277946 0.500000
O O9 0.500000 0.000000 0.434573
O O10 0.815496 0.779171 0.500000
O O11 0.813479 0.500000 0.564109
O O12 0.750000 0.750000 0.583822
O O13 0.500000 0.271579 0.082905
O O14 0.394312 0.267428 0.070683
O O15 0.444173 0.000000 0.105655
O O16 0.316783 0.500000 0.207958
O O17 0.250000 0.750000 0.211236
O O18 0.307339 0.714214 0.120352
O O19 0.332582 0.000000 0.065985
O O20 0.316294 0.727453 0.000000
#
# Coordination Sequence:
#
# PCOD9493723 Si02
#       7
#    16  16   8  16  16  16  16
#     4   9  18  32  49  73 103 132 170 214 256 303
#     4   9  17  28  46  73 105 138 173 213 261 314
#     4   9  16  26  44  76 115 147 174 215 272 323
#     4   9  17  30  47  68  96 130 167 209 256 307
#     4   8  14  25  45  72 100 130 163 205 251 291
#     4  11  22  37  56  75 100 134 171 211 261 313
#     4   9  18  33  52  77 108 137 170 211 252 300
#
# _framework density 22.774170999999999
#
# number of rings (size 3 to 8) (size 9 to 14) (size 15 to 20)
#    0.000    2.846    0.000    2.769    1.077    3.385 
#    0.000    3.846    0.000    7.385    0.000    5.923 
#    0.000    4.923    0.000    0.000    0.000    0.000 
#
# Total GULP energy -290297.758441 kJ/mol
# GULP energy per Si atom -5582.649201 kJ/mol
# Density = 2.272234 g / cm^3
# Si number density = 22.774171 Si / 1000 Ang^3
#
#
#
# Elastic Constant Matrix: (Units=GPa)
#
#
# Indices 1 2 3 4 5 6 
#
# 1 81.2163 -5.4442 0.3994 0.0000 0.0000 0.0000
# 2 -5.4442 66.2665 -4.1512 0.0000 0.0000 0.0000
# 3 0.3994 -4.1512 95.4791 0.0000 0.0000 0.0000
# 4 0.0000 0.0000 0.0000 -15.4791 0.0000 0.0000
# 5 0.0000 0.0000 0.0000 0.0000 -36.4010 0.0000
# 6 0.0000 0.0000 0.0000 0.0000 0.0000 6.6618
#
#
#
# Elastic Compliance Matrix: (Units=1/GPa)
#
#
# Indices 1 2 3 4 5 6 
#
# 1 0.012381 0.001017 -0.000008 0.000000 0.000000 0.000000
# 2 0.001017 0.015215 0.000657 0.000000 0.000000 0.000000
# 3 -0.000008 0.000657 0.010502 0.000000 0.000000 0.000000
# 4 0.000000 0.000000 0.000000 -0.064603 0.000000 0.000000
# 5 0.000000 0.000000 0.000000 0.000000 -0.027472 0.000000
# 6 0.000000 0.000000 0.000000 0.000000 0.000000 0.150109
#
#
# Mechanical properties :
#
#
# Convention : Reuss Voigt Hill
#
# Bulk Modulus (GPa) = 24.13645 24.95222 24.54434
# Shear Modulus (GPa) = 46.89981 7.76687 27.33334
#
# Velocity S-wave (km/s) = 4.54292 1.84873 3.46813
# Velocity P-wave (km/s) = 6.17565 3.94173 5.18053
#
# Compressibility (1/GPa) = 0.04143111
#
# Stress axis : x y z
#
# Youngs Moduli (GPa) = 80.76901 65.72343 95.21897
#
# Poissons Ratio (x) = -0.06682 0.00072
# Poissons Ratio (y) = -0.08212 -0.06258
# Poissons Ratio (z) = 0.00061 -0.04320
#
# Static dielectric constant tensor:
#      x y z
#    x 1.808930 0.000000 0.000000 
#    y 0.000000 1.914980 0.000000 
#    z 0.000000 0.000000 1.831070 
# 
# From -- ./inp_files/71867.got.cif
#   From: 2010.05.17/outbox.cif.g08.bks.cpg/sg65_36_cif.got.tgz:71867.got - 2010.06.03 17:01:31.
