data_PCOD9493882
_publ_section_title
;
Structure prediction by ZEFSAII (Michael W. Deem and Ramdas Pophale) SiO2 
 PCOD9493882
Probable space group: C M M M
;
_chemical_formula_sum "Si O2"
_cell_formula_units_Z 72
_cell_length_a 14.516380
_cell_length_b 11.253832
_cell_length_c 19.137528
_cell_angle_alpha 90.000000
_cell_angle_beta 90.000000
_cell_angle_gamma 90.000000
_cell_volume 3126.400382
_symmetry_space_group_name_H-M "C M M M"
_symmetry_group_IT_number 65
_symmetry_cell_setting 'orthorhombic'
loop_
_space_group_symop_operation_xyz
x,y,z
-x,-y,z
x,-y,-z
-x,y,-z
-x,-y,-z
x,y,-z
-x,y,z
x,-y,z
1/2+x,1/2+y,z
1/2-x,1/2-y,z
1/2+x,1/2-y,-z
1/2-x,1/2+y,-z
1/2-x,1/2-y,-z
1/2+x,1/2+y,-z
1/2-x,1/2+y,z
1/2+x,1/2-y,z
loop_
_atom_site_type_symbol
_atom_site_label
_atom_site_fract_x
_atom_site_fract_y
_atom_site_fract_z
Si Si1 0.394859 0.500000 0.584624
Si Si2 0.844853 0.871571 0.082954
Si Si3 0.610946 0.763010 0.420658
Si Si4 0.691288 0.130606 0.712295
Si Si5 0.364983 0.128187 0.137587
O O1 0.500000 0.500000 0.612418
O O2 0.400354 0.500000 0.500000
O O3 0.354278 0.629892 0.600459
O O4 0.745275 0.873150 0.120889
O O5 0.896172 0.752090 0.105201
O O6 0.888848 0.000000 0.097983
O O7 0.828002 0.865142 0.000000
O O8 0.641369 0.790380 0.500000
O O9 0.500000 0.756594 0.422158
O O10 0.642133 0.853591 0.361978
O O11 0.750000 0.250000 0.722216
O O12 0.623691 0.131888 0.779068
O O13 0.737960 0.000000 0.715576
O O14 0.398706 0.000000 0.111066
#
# Coordination Sequence:
#
# PCOD9493882 Si02
#       5
#     8  16  16  16  16
#     4   7  12  28  54  78  94 116 156 208 260 300
#     4   9  15  24  41  63  89 126 167 199 235 290
#     4   9  19  37  58  77 100 132 175 222 260 302
#     4  11  23  35  51  76 105 140 173 208 263 317
#     4   9  16  27  40  60  94 129 160 195 242 299
#
# _framework density 23.029679000000002
#
# number of rings (size 3 to 8) (size 9 to 14) (size 15 to 20)
#    0.000    2.778    2.222    2.667    1.556    2.667 
#    0.000    1.111    0.000    0.000    0.000    0.000 
#    0.000    3.556    0.000   27.111    0.000    1.778 
#
# Total GULP energy -200675.610457 kJ/mol
# GULP energy per Si atom -5574.322513 kJ/mol
# Density = 2.297726 g / cm^3
# Si number density = 23.029679 Si / 1000 Ang^3
#
#
#
# Elastic Constant Matrix: (Units=GPa)
#
#
# Indices 1 2 3 4 5 6 
#
# 1 63.6481 12.9388 11.8848 0.0000 0.0000 0.0000
# 2 12.9388 237.7030 54.3284 0.0000 0.0000 0.0000
# 3 11.8848 54.3284 115.2132 0.0000 0.0000 0.0000
# 4 0.0000 0.0000 0.0000 31.3180 0.0000 0.0000
# 5 0.0000 0.0000 0.0000 0.0000 -725.0329 0.0000
# 6 0.0000 0.0000 0.0000 0.0000 0.0000 -0.4516
#
#
#
# Elastic Compliance Matrix: (Units=1/GPa)
#
#
# Indices 1 2 3 4 5 6 
#
# 1 0.016085 -0.000556 -0.001397 0.000000 0.000000 0.000000
# 2 -0.000556 0.004734 -0.002175 0.000000 0.000000 0.000000
# 3 -0.001397 -0.002175 0.009849 0.000000 0.000000 0.000000
# 4 0.000000 0.000000 0.000000 0.031931 0.000000 0.000000
# 5 0.000000 0.000000 0.000000 0.000000 -0.001379 0.000000
# 6 0.000000 0.000000 0.000000 0.000000 0.000000 -2.214307
#
#
# Mechanical properties :
#
#
# Convention : Reuss Voigt Hill
#
# Bulk Modulus (GPa) = 44.61830 63.87426 54.24628
# Shear Modulus (GPa) = -2.33933 -116.33915 -59.33924
#
# Velocity S-wave (km/s) = -1.00896 -7.11525 -5.08157
# Velocity P-wave (km/s) = 4.24959 6.30131 3.28994
#
# Compressibility (1/GPa) = 0.02241233
#
# Stress axis : x y z
#
# Youngs Moduli (GPa) = 62.16847 211.22277 101.52994
#
# Poissons Ratio (x) = 0.11750 0.14183
# Poissons Ratio (y) = 0.03458 0.22084
# Poissons Ratio (z) = 0.08685 0.45943
#
# Static dielectric constant tensor:
#      x y z
#    x 1.869760 0.000000 0.000000 
#    y 0.000000 1.934580 0.000000 
#    z 0.000000 0.000000 1.828590 
# 
# From -- ./inp_files/54106.got.cif
#   From: 2010.05.17/outbox.cif.g08.bks.cpg/sg65_28_cif.got.tgz:54106.got - 2010.06.03 17:01:31.
