data_PCOD9493020
_publ_section_title
;
Structure prediction by ZEFSAII (Michael W. Deem and Ramdas Pophale) SiO2 
 PCOD9493020
Probable space group: C M M M
;
_chemical_formula_sum "Si O2"
_cell_formula_units_Z 56
_cell_length_a 14.254447
_cell_length_b 18.624630
_cell_length_c 10.549336
_cell_angle_alpha 90.000000
_cell_angle_beta 90.000000
_cell_angle_gamma 90.000000
_cell_volume 2800.677822
_symmetry_space_group_name_H-M "C M M M"
_symmetry_group_IT_number 65
_symmetry_cell_setting 'orthorhombic'
loop_
_space_group_symop_operation_xyz
x,y,z
-x,-y,z
x,-y,-z
-x,y,-z
-x,-y,-z
x,y,-z
-x,y,z
x,-y,z
1/2+x,1/2+y,z
1/2-x,1/2-y,z
1/2+x,1/2-y,-z
1/2-x,1/2+y,-z
1/2-x,1/2-y,-z
1/2+x,1/2+y,-z
1/2-x,1/2+y,z
1/2+x,1/2-y,z
loop_
_atom_site_type_symbol
_atom_site_label
_atom_site_fract_x
_atom_site_fract_y
_atom_site_fract_z
Si Si1 0.888551 0.315607 0.147201
Si Si2 0.269335 0.414937 0.241674
Si Si3 0.390385 0.303285 0.640154
Si Si4 0.603003 0.586076 0.000000
O O1 0.829955 0.383049 0.198646
O O2 0.868787 0.251509 0.246022
O O3 0.000000 0.328736 0.150743
O O4 0.863248 0.299564 0.000000
O O5 0.266335 0.500000 0.263580
O O6 0.318777 0.369343 0.351160
O O7 0.338563 0.397879 0.124106
O O8 0.382215 0.269306 0.500000
O O9 0.500000 0.326189 0.654321
O O10 0.592904 0.500000 0.000000
O O11 0.500000 0.620374 0.000000
#
# Coordination Sequence:
#
# PCOD9493020 Si02
#       4
#    16  16  16   8
#     4  10  22  40  62  88 120 160 206 252 297 352
#     4  11  22  36  59  90 121 157 197 243 301 362
#     4  10  23  42  63  88 120 159 202 250 304 361
#     4   9  18  32  50  79 117 151 183 228 288 350
#
# _framework density 19.995159999999998
#
# number of rings (size 3 to 8) (size 9 to 14) (size 15 to 20)
#    0.000    1.857    1.429    1.714    2.000    6.286 
#    0.000    2.857    0.000    0.000    0.000    6.000 
#    0.000    0.000    0.000    0.000    0.000    0.000 
#
# Total GULP energy -156324.346058 kJ/mol
# GULP energy per Si atom -5583.012359 kJ/mol
# Density = 1.994965 g / cm^3
# Si number density = 19.995160 Si / 1000 Ang^3
#
#
#
# Elastic Constant Matrix: (Units=GPa)
#
#
# Indices 1 2 3 4 5 6 
#
# 1 87.2641 53.7726 33.2975 0.0000 0.0000 0.0000
# 2 53.7726 101.1816 37.9522 0.0000 0.0000 0.0000
# 3 33.2975 37.9522 100.2278 0.0000 0.0000 0.0000
# 4 0.0000 0.0000 0.0000 13.9138 0.0000 0.0000
# 5 0.0000 0.0000 0.0000 0.0000 38.8155 0.0000
# 6 0.0000 0.0000 0.0000 0.0000 0.0000 30.8266
#
#
#
# Elastic Compliance Matrix: (Units=1/GPa)
#
#
# Indices 1 2 3 4 5 6 
#
# 1 0.017642 -0.008366 -0.002693 0.000000 0.000000 0.000000
# 2 -0.008366 0.015486 -0.003085 0.000000 0.000000 0.000000
# 3 -0.002693 -0.003085 0.012040 0.000000 0.000000 0.000000
# 4 0.000000 0.000000 0.000000 0.071871 0.000000 0.000000
# 5 0.000000 0.000000 0.000000 0.000000 0.025763 0.000000
# 6 0.000000 0.000000 0.000000 0.000000 0.000000 0.032439
#
#
# Mechanical properties :
#
#
# Convention : Reuss Voigt Hill
#
# Bulk Modulus (GPa) = 59.23822 59.85758 59.54790
# Shear Modulus (GPa) = 23.90559 27.62128 25.76343
#
# Velocity S-wave (km/s) = 3.46145 3.72075 3.59344
# Velocity P-wave (km/s) = 6.75767 6.96130 6.86024
#
# Compressibility (1/GPa) = 0.01688099
#
# Stress axis : x y z
#
# Youngs Moduli (GPa) = 56.68265 64.57385 83.05572
#
# Poissons Ratio (x) = 0.54020 0.22369
# Poissons Ratio (y) = 0.47418 0.25621
# Poissons Ratio (z) = 0.15266 0.19920
#
# Static dielectric constant tensor:
#      x y z
#    x 1.721390 0.000000 0.000000 
#    y 0.000000 1.684750 0.000000 
#    z 0.000000 0.000000 1.732880 
# 
# From -- ./inp_files/8507.got.cif
#   From: 2010.05.17/outbox.cif.g08.bks.cpg/sg65_5_cif.got.tgz:8507.got - 2010.06.03 17:01:31.
