data_PCOD9493934
_publ_section_title
;
Structure prediction by ZEFSAII (Michael W. Deem and Ramdas Pophale) SiO2 
 PCOD9493934
Probable space group: C M M M
;
_chemical_formula_sum "Si O2"
_cell_formula_units_Z 72
_cell_length_a 15.599144
_cell_length_b 7.932946
_cell_length_c 29.470702
_cell_angle_alpha 90.000000
_cell_angle_beta 90.000000
_cell_angle_gamma 90.000000
_cell_volume 3646.915882
_symmetry_space_group_name_H-M "C M M M"
_symmetry_group_IT_number 65
_symmetry_cell_setting 'orthorhombic'
loop_
_space_group_symop_operation_xyz
x,y,z
-x,-y,z
x,-y,-z
-x,y,-z
-x,-y,-z
x,y,-z
-x,y,z
x,-y,z
1/2+x,1/2+y,z
1/2-x,1/2-y,z
1/2+x,1/2-y,-z
1/2-x,1/2+y,-z
1/2-x,1/2-y,-z
1/2+x,1/2+y,-z
1/2-x,1/2+y,z
1/2+x,1/2-y,z
loop_
_atom_site_type_symbol
_atom_site_label
_atom_site_fract_x
_atom_site_fract_y
_atom_site_fract_z
Si Si1 0.845048 0.300360 0.217046
Si Si2 0.000000 0.792606 0.615937
Si Si3 0.104775 0.000000 0.947946
Si Si4 0.152830 0.202914 0.448545
Si Si5 0.603993 0.803952 0.116731
Si Si6 0.000000 0.198909 0.718581
O O1 0.850811 0.500000 0.213962
O O2 0.750000 0.250000 0.231232
O O3 0.863755 0.239888 0.165762
O O4 0.916801 0.244765 0.252272
O O5 0.083500 0.737772 0.587756
O O6 0.000000 0.730044 0.667596
O O7 0.000000 0.000000 0.616320
O O8 0.131235 0.830763 0.921132
O O9 0.000000 0.000000 0.947979
O O10 0.133447 0.000000 0.000000
O O11 0.135261 0.264598 0.500000
O O12 0.250000 0.250000 0.436781
O O13 0.147297 0.000000 0.449879
O O14 0.500000 0.804797 0.118543
O O15 0.630612 0.000000 0.109011
O O16 0.000000 0.000000 0.713486
#
# Coordination Sequence:
#
# PCOD9493934 Si02
#       6
#    16   8   8  16  16   8
#     4  11  23  39  60  87 113 148 198 246 291 353
#     4   9  19  35  54  80 110 148 189 227 288 356
#     4   9  18  30  52  86 118 151 191 235 291 360
#     4   9  17  32  55  80 109 146 191 238 279 334
#     4   9  18  33  55  81 113 150 190 242 293 348
#     4  11  23  38  59  84 118 153 189 244 303 353
#
# _framework density 19.742708
#
# number of rings (size 3 to 8) (size 9 to 14) (size 15 to 20)
#    0.000    2.333    1.111    1.333    3.111    2.667 
#    0.000    7.222    0.000    3.333    0.000    0.000 
#    0.000    0.000    0.000    0.000    0.000    0.000 
#
# Total GULP energy -200965.059481 kJ/mol
# GULP energy per Si atom -5582.362763 kJ/mol
# Density = 1.969777 g / cm^3
# Si number density = 19.742708 Si / 1000 Ang^3
#
#
#
# Elastic Constant Matrix: (Units=GPa)
#
#
# Indices 1 2 3 4 5 6 
#
# 1 111.2639 27.7120 104.9336 0.0000 0.0000 0.0000
# 2 27.7120 48.8635 49.2851 0.0000 0.0000 0.0000
# 3 104.9336 49.2851 196.2413 0.0000 0.0000 0.0000
# 4 0.0000 0.0000 0.0000 11.8390 0.0000 0.0000
# 5 0.0000 0.0000 0.0000 0.0000 -11.1361 0.0000
# 6 0.0000 0.0000 0.0000 0.0000 0.0000 21.2089
#
#
#
# Elastic Compliance Matrix: (Units=1/GPa)
#
#
# Indices 1 2 3 4 5 6 
#
# 1 0.018148 -0.000676 -0.009534 0.000000 0.000000 0.000000
# 2 -0.000676 0.027433 -0.006528 0.000000 0.000000 0.000000
# 3 -0.009534 -0.006528 0.011833 0.000000 0.000000 0.000000
# 4 0.000000 0.000000 0.000000 0.084466 0.000000 0.000000
# 5 0.000000 0.000000 0.000000 0.000000 -0.089798 0.000000
# 6 0.000000 0.000000 0.000000 0.000000 0.000000 0.047150
#
#
# Mechanical properties :
#
#
# Convention : Reuss Voigt Hill
#
# Bulk Modulus (GPa) = 41.77516 80.02556 60.90036
# Shear Modulus (GPa) = 35.53971 16.01158 25.77565
#
# Velocity S-wave (km/s) = 4.24741 2.85092 3.61720
# Velocity P-wave (km/s) = 6.72754 7.17351 6.95410
#
# Compressibility (1/GPa) = 0.02393767
#
# Stress axis : x y z
#
# Youngs Moduli (GPa) = 55.10357 36.45235 84.50642
#
# Poissons Ratio (x) = 0.02463 0.80570
# Poissons Ratio (y) = 0.03723 0.55169
# Poissons Ratio (z) = 0.52537 0.23798
#
# Static dielectric constant tensor:
#      x y z
#    x 1.674290 0.000000 0.000000 
#    y 0.000000 1.714960 0.000000 
#    z 0.000000 0.000000 1.700700 
# 
# From -- ./inp_files/74684.got.cif
#   From: 2010.05.17/outbox.cif.g08.bks.cpg/sg65_38_cif.got.tgz:74684.got - 2010.06.03 17:01:31.
