data_PCOD9493505
_publ_section_title
;
Structure prediction by ZEFSAII (Michael W. Deem and Ramdas Pophale) SiO2 
 PCOD9493505
Probable space group: C M M M
;
_chemical_formula_sum "Si O2"
_cell_formula_units_Z 88
_cell_length_a 18.209920
_cell_length_b 31.573830
_cell_length_c 7.990593
_cell_angle_alpha 90.000000
_cell_angle_beta 90.000000
_cell_angle_gamma 90.000000
_cell_volume 4594.246727
_symmetry_space_group_name_H-M "C M M M"
_symmetry_group_IT_number 65
_symmetry_cell_setting 'orthorhombic'
loop_
_space_group_symop_operation_xyz
x,y,z
-x,-y,z
x,-y,-z
-x,y,-z
-x,-y,-z
x,y,-z
-x,y,z
x,-y,z
1/2+x,1/2+y,z
1/2-x,1/2-y,z
1/2+x,1/2-y,-z
1/2-x,1/2+y,-z
1/2-x,1/2-y,-z
1/2+x,1/2+y,-z
1/2-x,1/2+y,z
1/2+x,1/2-y,z
loop_
_atom_site_type_symbol
_atom_site_label
_atom_site_fract_x
_atom_site_fract_y
_atom_site_fract_z
Si Si1 0.087599 0.088738 0.000000
Si Si2 0.676874 0.082136 0.801536
Si Si3 0.914199 0.500000 0.298748
Si Si4 0.085311 0.664277 0.797473
Si Si5 0.169325 0.949624 0.686543
Si Si6 0.410552 0.257911 0.685955
Si Si7 0.410295 0.313578 0.000000
O O1 0.117676 0.066129 0.834630
O O2 0.112800 0.137726 0.000000
O O3 0.000000 0.087954 0.000000
O O4 0.635267 0.124755 0.747815
O O5 0.752717 0.073368 0.708296
O O6 0.624741 0.041857 0.770655
O O7 0.692437 0.085030 0.000000
O O8 0.906787 0.500000 0.500000
O O9 0.000000 0.500000 0.255344
O O10 0.109557 0.709271 0.723557
O O11 0.000000 0.656830 0.749443
O O12 0.086908 0.667798 0.000000
O O13 0.139596 0.941712 0.500000
O O14 0.182027 0.000000 0.704097
O O15 0.386622 0.270556 0.500000
O O16 0.500000 0.258751 0.689084
O O17 0.385473 0.288584 0.834427
O O18 0.500000 0.312882 0.000000
#
# Coordination Sequence:
#
# PCOD9493505 Si02
#       7
#     8  16   8  16  16  16   8
#     4  11  25  44  70  98 119 145 183 238 310 376
#     4  11  21  35  58  83 115 163 214 254 292 347
#     4  11  23  35  49  79 123 166 211 265 307 333
#     4   9  17  30  50  81 120 160 208 259 293 324
#     4  11  24  43  66  91 122 159 199 239 292 365
#     4   9  16  28  51  81 116 159 197 235 290 347
#     4   9  18  35  57  85 119 144 178 236 295 363
#
# _framework density 19.154392000000001
#
# number of rings (size 3 to 8) (size 9 to 14) (size 15 to 20)
#    0.000    1.909    2.727    1.636    0.000    4.727 
#    0.000    4.545    0.000    2.182    0.000    2.545 
#    0.000    0.000    0.000    0.000    0.000    0.000 
#
# Total GULP energy -245767.672812 kJ/mol
# GULP energy per Si atom -5585.628928 kJ/mol
# Density = 1.911080 g / cm^3
# Si number density = 19.154392 Si / 1000 Ang^3
#
#
#
# Elastic Constant Matrix: (Units=GPa)
#
#
# Indices 1 2 3 4 5 6 
#
# 1 46.9764 23.5065 34.9667 0.0000 0.0000 0.0000
# 2 23.5065 76.8129 65.9263 0.0000 0.0000 0.0000
# 3 34.9667 65.9263 132.7478 0.0000 0.0000 0.0000
# 4 0.0000 0.0000 0.0000 -3.5388 0.0000 0.0000
# 5 0.0000 0.0000 0.0000 0.0000 3.7055 0.0000
# 6 0.0000 0.0000 0.0000 0.0000 0.0000 -107.7607
#
#
#
# Elastic Compliance Matrix: (Units=1/GPa)
#
#
# Indices 1 2 3 4 5 6 
#
# 1 0.027093 -0.003775 -0.005262 0.000000 0.000000 0.000000
# 2 -0.003775 0.023216 -0.010535 0.000000 0.000000 0.000000
# 3 -0.005262 -0.010535 0.014151 0.000000 0.000000 0.000000
# 4 0.000000 0.000000 0.000000 -0.282578 0.000000 0.000000
# 5 0.000000 0.000000 0.000000 0.000000 0.269869 0.000000
# 6 0.000000 0.000000 0.000000 0.000000 0.000000 -0.009280
#
#
# Mechanical properties :
#
#
# Convention : Reuss Voigt Hill
#
# Bulk Modulus (GPa) = 39.50089 56.14845 47.82467
# Shear Modulus (GPa) = 55.52239 -12.70964 21.40638
#
# Velocity S-wave (km/s) = 5.38978 -2.57871 3.34663
# Velocity P-wave (km/s) = 7.70714 4.52890 6.32103
#
# Compressibility (1/GPa) = 0.02531588
#
# Stress axis : x y z
#
# Youngs Moduli (GPa) = 36.91021 43.07347 70.66543
#
# Poissons Ratio (x) = 0.16261 0.37181
# Poissons Ratio (y) = 0.13934 0.74449
# Poissons Ratio (z) = 0.19421 0.45380
#
# Static dielectric constant tensor:
#      x y z
#    x 1.641570 0.000000 0.000000 
#    y 0.000000 1.636280 0.000000 
#    z 0.000000 0.000000 1.684260 
# 
# From -- ./inp_files/10210.got.cif
#   From: 2010.05.17/outbox.cif.g08.bks.cpg/sg65_6_cif.got.tgz:10210.got - 2010.06.03 17:01:31.
