data_PCOD9493518
_publ_section_title
;
Structure prediction by ZEFSAII (Michael W. Deem and Ramdas Pophale) SiO2 
 PCOD9493518
Probable space group: C M M M
;
_chemical_formula_sum "Si O2"
_cell_formula_units_Z 88
_cell_length_a 25.065453
_cell_length_b 14.527414
_cell_length_c 14.447372
_cell_angle_alpha 90.000000
_cell_angle_beta 90.000000
_cell_angle_gamma 90.000000
_cell_volume 5260.811325
_symmetry_space_group_name_H-M "C M M M"
_symmetry_group_IT_number 65
_symmetry_cell_setting 'orthorhombic'
loop_
_space_group_symop_operation_xyz
x,y,z
-x,-y,z
x,-y,-z
-x,y,-z
-x,-y,-z
x,y,-z
-x,y,z
x,-y,z
1/2+x,1/2+y,z
1/2-x,1/2-y,z
1/2+x,1/2-y,-z
1/2-x,1/2+y,-z
1/2-x,1/2-y,-z
1/2+x,1/2+y,-z
1/2-x,1/2+y,z
1/2+x,1/2-y,z
loop_
_atom_site_type_symbol
_atom_site_label
_atom_site_fract_x
_atom_site_fract_y
_atom_site_fract_z
Si Si1 0.936394 0.732766 0.606295
Si Si2 0.646769 0.392219 0.393029
Si Si3 0.697640 0.314567 0.782731
Si Si4 0.393655 0.170424 0.794205
Si Si5 0.341391 0.000000 0.106202
Si Si6 0.000000 0.390370 0.889492
Si Si7 0.785647 0.000000 0.104022
O O1 0.927471 0.701615 0.500000
O O2 0.907357 0.832007 0.615503
O O3 0.909643 0.670203 0.685623
O O4 0.000000 0.738695 0.621188
O O5 0.663898 0.385503 0.500000
O O6 0.638575 0.500000 0.371149
O O7 0.689071 0.347526 0.323056
O O8 0.750000 0.250000 0.793295
O O9 0.644459 0.257837 0.808613
O O10 0.699906 0.406651 0.843121
O O11 0.448654 0.161750 0.849714
O O12 0.360184 0.086398 0.834683
O O13 0.278295 0.000000 0.098782
O O14 0.363652 0.000000 0.000000
O O15 0.000000 0.500000 0.861248
O O16 0.000000 0.388989 0.000000
O O17 0.807633 0.000000 0.000000
#
# Coordination Sequence:
#
# PCOD9493518 Si02
#       7
#    16  16  16  16   8   8   8
#     4   9  18  33  53  80 113 150 189 227 273 335
#     4   9  18  33  56  82 109 142 184 231 281 336
#     4  11  22  38  59  83 115 150 185 233 290 340
#     4  11  21  36  58  84 115 150 186 234 287 337
#     4  11  22  37  59  83 109 144 197 244 278 335
#     4  11  22  36  57  84 114 149 193 240 284 332
#     4  11  24  40  58  84 113 148 196 241 285 334
#
# _framework density 16.727459
#
# number of rings (size 3 to 8) (size 9 to 14) (size 15 to 20)
#    0.000    1.727    4.545    0.545    0.000    2.545 
#    0.000    2.273    0.000    3.273    0.000    1.273 
#    0.000    0.000    0.000    0.000    0.000    0.000 
#
# Total GULP energy -245121.678229 kJ/mol
# GULP energy per Si atom -5570.947232 kJ/mol
# Density = 1.668939 g / cm^3
# Si number density = 16.727459 Si / 1000 Ang^3
#
#
#
# Elastic Constant Matrix: (Units=GPa)
#
#
# Indices 1 2 3 4 5 6 
#
# 1 89.7598 46.5586 51.8825 0.0000 0.0000 0.0000
# 2 46.5586 111.7803 80.8124 0.0000 0.0000 0.0000
# 3 51.8825 80.8124 121.3269 0.0000 0.0000 0.0000
# 4 0.0000 0.0000 0.0000 19.6168 0.0000 0.0000
# 5 0.0000 0.0000 0.0000 0.0000 26.4698 0.0000
# 6 0.0000 0.0000 0.0000 0.0000 0.0000 24.1192
#
#
#
# Elastic Compliance Matrix: (Units=1/GPa)
#
#
# Indices 1 2 3 4 5 6 
#
# 1 0.015364 -0.003182 -0.004451 0.000000 0.000000 0.000000
# 2 -0.003182 0.017914 -0.010572 0.000000 0.000000 0.000000
# 3 -0.004451 -0.010572 0.017187 0.000000 0.000000 0.000000
# 4 0.000000 0.000000 0.000000 0.050977 0.000000 0.000000
# 5 0.000000 0.000000 0.000000 0.000000 0.037779 0.000000
# 6 0.000000 0.000000 0.000000 0.000000 0.000000 0.041461
#
#
# Mechanical properties :
#
#
# Convention : Reuss Voigt Hill
#
# Bulk Modulus (GPa) = 71.13937 75.70823 73.42380
# Shear Modulus (GPa) = 22.54542 23.61539 23.08040
#
# Velocity S-wave (km/s) = 3.67523 3.76143 3.71858
# Velocity P-wave (km/s) = 7.78657 8.01390 7.90105
#
# Compressibility (1/GPa) = 0.01405691
#
# Stress axis : x y z
#
# Youngs Moduli (GPa) = 65.08830 55.82208 58.18397
#
# Poissons Ratio (x) = 0.17760 0.25896
# Poissons Ratio (y) = 0.20708 0.61509
# Poissons Ratio (z) = 0.28969 0.59012
#
# Static dielectric constant tensor:
#      x y z
#    x 1.564810 0.000000 0.000000 
#    y 0.000000 1.553340 0.000000 
#    z 0.000000 0.000000 1.578940 
# 
# From -- ./inp_files/32248.got.cif
#   From: 2010.05.17/outbox.cif.g08.bks.cpg/sg65_17_cif.got.tgz:32248.got - 2010.06.03 17:01:31.
