data_PCOD9493523
_publ_section_title
;
Structure prediction by ZEFSAII (Michael W. Deem and Ramdas Pophale) SiO2 
 PCOD9493523
Probable space group: C M M M
;
_chemical_formula_sum "Si O2"
_cell_formula_units_Z 64
_cell_length_a 18.222441
_cell_length_b 14.421361
_cell_length_c 12.086109
_cell_angle_alpha 90.000000
_cell_angle_beta 90.000000
_cell_angle_gamma 90.000000
_cell_volume 3176.137590
_symmetry_space_group_name_H-M "C M M M"
_symmetry_group_IT_number 65
_symmetry_cell_setting 'orthorhombic'
loop_
_space_group_symop_operation_xyz
x,y,z
-x,-y,z
x,-y,-z
-x,y,-z
-x,-y,-z
x,y,-z
-x,y,z
x,-y,z
1/2+x,1/2+y,z
1/2-x,1/2-y,z
1/2+x,1/2-y,-z
1/2-x,1/2+y,-z
1/2-x,1/2-y,-z
1/2+x,1/2+y,-z
1/2-x,1/2+y,z
1/2+x,1/2-y,z
loop_
_atom_site_type_symbol
_atom_site_label
_atom_site_fract_x
_atom_site_fract_y
_atom_site_fract_z
Si Si1 0.726047 0.857462 0.500000
Si Si2 0.141752 0.601091 0.274134
Si Si3 0.607536 0.395113 0.500000
Si Si4 0.777305 0.143711 0.874811
Si Si5 0.081714 0.194291 0.738298
O O1 0.750000 0.750000 0.500000
O O2 0.679426 0.882641 0.607036
O O3 0.804789 0.904048 0.500000
O O4 0.104229 0.500000 0.271670
O O5 0.209790 0.598003 0.188973
O O6 0.095383 0.694545 0.253286
O O7 0.578202 0.500000 0.500000
O O8 0.586690 0.339198 0.389197
O O9 0.750000 0.250000 0.879927
O O10 0.852499 0.144586 0.804932
O O11 0.788028 0.110580 0.000000
O O12 0.000000 0.172468 0.779680
#
# Coordination Sequence:
#
# PCOD9493523 Si02
#       5
#     8  16   8  16  16
#     4  12  18  35  60  86 115 144 192 245 285 331
#     4  11  21  36  60  87 116 151 191 237 286 340
#     4  12  23  38  59  84 114 149 192 241 288 337
#     4   9  19  37  58  81 110 147 193 239 278 322
#     4  11  23  38  57  86 121 154 189 231 286 351
#
# _framework density 20.150261
#
# number of rings (size 3 to 8) (size 9 to 14) (size 15 to 20)
#    0.000    1.250    5.000    2.250    0.000    2.500 
#    0.000    0.000    0.000    3.000    0.000   10.500 
#    0.000    0.000    0.000    0.000    0.000    0.000 
#
# Total GULP energy -178626.521202 kJ/mol
# GULP energy per Si atom -5582.078788 kJ/mol
# Density = 2.010440 g / cm^3
# Si number density = 20.150261 Si / 1000 Ang^3
#
#
#
# Elastic Constant Matrix: (Units=GPa)
#
#
# Indices 1 2 3 4 5 6 
#
# 1 93.1684 -5.6876 23.1596 0.0000 0.0000 0.0000
# 2 -5.6876 126.5859 12.8182 0.0000 0.0000 0.0000
# 3 23.1596 12.8182 128.4360 0.0000 0.0000 0.0000
# 4 0.0000 0.0000 0.0000 21.7456 0.0000 0.0000
# 5 0.0000 0.0000 0.0000 0.0000 -2.7290 0.0000
# 6 0.0000 0.0000 0.0000 0.0000 0.0000 -4.9078
#
#
#
# Elastic Compliance Matrix: (Units=1/GPa)
#
#
# Indices 1 2 3 4 5 6 
#
# 1 0.011302 0.000721 -0.002110 0.000000 0.000000 0.000000
# 2 0.000721 0.008026 -0.000931 0.000000 0.000000 0.000000
# 3 -0.002110 -0.000931 0.008259 0.000000 0.000000 0.000000
# 4 0.000000 0.000000 0.000000 0.045986 0.000000 0.000000
# 5 0.000000 0.000000 0.000000 0.000000 -0.366431 0.000000
# 6 0.000000 0.000000 0.000000 0.000000 0.000000 -0.203759
#
#
# Mechanical properties :
#
#
# Convention : Reuss Voigt Hill
#
# Bulk Modulus (GPa) = 43.57612 45.41897 44.49754
# Shear Modulus (GPa) = -10.32359 24.01511 6.84576
#
# Velocity S-wave (km/s) = -2.26593 3.45599 1.84519
# Velocity P-wave (km/s) = 3.85054 6.20599 5.16434
#
# Compressibility (1/GPa) = 0.02294835
#
# Stress axis : x y z
#
# Youngs Moduli (GPa) = 88.48160 124.58767 121.07453
#
# Poissons Ratio (x) = -0.08988 0.25546
# Poissons Ratio (y) = -0.06384 0.11274
# Poissons Ratio (z) = 0.18669 0.11601
#
# Static dielectric constant tensor:
#      x y z
#    x 1.683140 0.000000 0.000000 
#    y 0.000000 1.814340 0.000000 
#    z 0.000000 0.000000 1.693080 
# 
# From -- ./inp_files/23928.got.cif
#   From: 2010.05.17/outbox.cif.g08.bks.cpg/sg65_12_cif.got.tgz:23928.got - 2010.06.03 17:01:31.
