data_PCOD9493390
_publ_section_title
;
Structure prediction by ZEFSAII (Michael W. Deem and Ramdas Pophale) SiO2 
 PCOD9493390
Probable space group: C M M M
;
_chemical_formula_sum "Si O2"
_cell_formula_units_Z 80
_cell_length_a 7.843559
_cell_length_b 28.193330
_cell_length_c 19.613356
_cell_angle_alpha 90.000000
_cell_angle_beta 90.000000
_cell_angle_gamma 90.000000
_cell_volume 4337.220019
_symmetry_space_group_name_H-M "C M M M"
_symmetry_group_IT_number 65
_symmetry_cell_setting 'orthorhombic'
loop_
_space_group_symop_operation_xyz
x,y,z
-x,-y,z
x,-y,-z
-x,y,-z
-x,-y,-z
x,y,-z
-x,y,z
x,-y,z
1/2+x,1/2+y,z
1/2-x,1/2-y,z
1/2+x,1/2-y,-z
1/2-x,1/2+y,-z
1/2-x,1/2-y,-z
1/2+x,1/2+y,-z
1/2-x,1/2+y,z
1/2+x,1/2-y,z
loop_
_atom_site_type_symbol
_atom_site_label
_atom_site_fract_x
_atom_site_fract_y
_atom_site_fract_z
Si Si1 0.794376 0.694857 0.924244
Si Si2 0.293872 0.853123 0.787199
Si Si3 0.299888 0.303980 0.647808
Si Si4 0.200500 0.398034 0.575290
Si Si5 0.291034 0.053339 0.287715
O O1 0.750000 0.750000 0.913760
O O2 0.730037 0.664711 0.860192
O O3 0.000000 0.691062 0.924945
O O4 0.732045 0.681123 0.000000
O O5 0.500000 0.853584 0.789304
O O6 0.244647 0.817900 0.725734
O O7 0.236757 0.905576 0.764516
O O8 0.500000 0.309245 0.638457
O O9 0.250000 0.250000 0.633653
O O10 0.214866 0.343593 0.600004
O O11 0.275479 0.404560 0.500000
O O12 0.269074 0.429838 0.637320
O O13 0.000000 0.409345 0.571146
O O14 0.500000 0.053860 0.288347
O O15 0.236640 0.000000 0.272114
#
# Coordination Sequence:
#
# PCOD9493390 Si02
#       5
#    16  16  16  16  16
#     4   9  17  28  43  65  93 123 152 183 221 264
#     4   9  17  30  47  67  92 120 152 189 225 264
#     4  11  21  32  47  66  90 120 153 186 223 268
#     4   9  18  32  48  67  91 117 148 186 226 269
#     4   8  14  26  46  70  91 114 148 187 225 265
#
# _framework density 18.444994000000001
#
# number of rings (size 3 to 8) (size 9 to 14) (size 15 to 20)
#    0.000    2.800    0.000    3.600    0.000    3.600 
#    0.000    2.000    0.000   10.200    0.000    9.800 
#    0.000    0.000    0.000   12.200    0.000   13.200 
#
# Total GULP energy -223008.331522 kJ/mol
# GULP energy per Si atom -5575.208288 kJ/mol
# Density = 1.840301 g / cm^3
# Si number density = 18.444994 Si / 1000 Ang^3
#
#
#
# Elastic Constant Matrix: (Units=GPa)
#
#
# Indices 1 2 3 4 5 6 
#
# 1 23.9570 -7.6254 2.5149 0.0000 0.0000 0.0000
# 2 -7.6254 66.8906 24.4939 0.0000 0.0000 0.0000
# 3 2.5149 24.4939 118.8469 0.0000 0.0000 0.0000
# 4 0.0000 0.0000 0.0000 15.2802 0.0000 0.0000
# 5 0.0000 0.0000 0.0000 0.0000 8.1343 0.0000
# 6 0.0000 0.0000 0.0000 0.0000 0.0000 11.9367
#
#
#
# Elastic Compliance Matrix: (Units=1/GPa)
#
#
# Indices 1 2 3 4 5 6 
#
# 1 0.043799 0.005768 -0.002116 0.000000 0.000000 0.000000
# 2 0.005768 0.016930 -0.003611 0.000000 0.000000 0.000000
# 3 -0.002116 -0.003611 0.009203 0.000000 0.000000 0.000000
# 4 0.000000 0.000000 0.000000 0.065444 0.000000 0.000000
# 5 0.000000 0.000000 0.000000 0.000000 0.122936 0.000000
# 6 0.000000 0.000000 0.000000 0.000000 0.000000 0.083775
#
#
# Mechanical properties :
#
#
# Convention : Reuss Voigt Hill
#
# Bulk Modulus (GPa) = 14.28286 27.60683 20.94485
# Shear Modulus (GPa) = 13.68575 19.75766 16.72170
#
# Velocity S-wave (km/s) = 2.72688 3.27642 3.01420
# Velocity P-wave (km/s) = 4.20414 5.41413 4.84704
#
# Compressibility (1/GPa) = 0.07001398
#
# Stress axis : x y z
#
# Youngs Moduli (GPa) = 22.83144 59.06810 108.65785
#
# Poissons Ratio (x) = -0.34068 0.22987
# Poissons Ratio (y) = -0.13168 0.39238
# Poissons Ratio (z) = 0.04830 0.21331
#
# Static dielectric constant tensor:
#      x y z
#    x 1.682610 0.000000 0.000000 
#    y 0.000000 1.637490 0.000000 
#    z 0.000000 0.000000 1.653980 
# 
# From -- ./inp_files/49871.got.cif
#   From: 2010.05.17/outbox.cif.g08.bks.cpg/sg65_25_cif.got.tgz:49871.got - 2010.06.03 17:01:31.
