data_PCOD9493352
_publ_section_title
;
Structure prediction by ZEFSAII (Michael W. Deem and Ramdas Pophale) SiO2 
 PCOD9493352
Probable space group: C M M M
;
_chemical_formula_sum "Si O2"
_cell_formula_units_Z 88
_cell_length_a 8.092117
_cell_length_b 18.177106
_cell_length_c 31.650209
_cell_angle_alpha 90.000000
_cell_angle_beta 90.000000
_cell_angle_gamma 90.000000
_cell_volume 4655.469389
_symmetry_space_group_name_H-M "C M M M"
_symmetry_group_IT_number 65
_symmetry_cell_setting 'orthorhombic'
loop_
_space_group_symop_operation_xyz
x,y,z
-x,-y,z
x,-y,-z
-x,y,-z
-x,-y,-z
x,y,-z
-x,y,z
x,-y,z
1/2+x,1/2+y,z
1/2-x,1/2-y,z
1/2+x,1/2-y,-z
1/2-x,1/2+y,-z
1/2-x,1/2-y,-z
1/2+x,1/2+y,-z
1/2-x,1/2+y,z
1/2+x,1/2-y,z
loop_
_atom_site_type_symbol
_atom_site_label
_atom_site_fract_x
_atom_site_fract_y
_atom_site_fract_z
Si Si1 0.305848 0.665451 0.369424
Si Si2 0.805390 0.836141 0.902600
Si Si3 0.803992 0.335651 0.720170
Si Si4 0.698982 0.084931 0.454042
Si Si5 0.800384 0.663969 0.188682
Si Si6 0.000000 0.587371 0.050179
O O1 0.500000 0.664670 0.367026
O O2 0.250000 0.750000 0.371541
O O3 0.244492 0.631384 0.325017
O O4 0.252071 0.626447 0.412242
O O5 0.750000 0.750000 0.903313
O O6 0.782718 0.863834 0.854176
O O7 0.667451 0.877926 0.930203
O O8 0.000000 0.842248 0.914636
O O9 0.750000 0.250000 0.718668
O O10 0.746584 0.367302 0.765492
O O11 0.000000 0.336227 0.722237
O O12 0.755761 0.114687 0.500000
O O13 0.500000 0.085542 0.454686
O O14 0.753087 0.000000 0.451508
O O15 0.750000 0.750000 0.190746
O O16 0.000000 0.658378 0.184119
O O17 0.000000 0.500000 0.058047
O O18 0.000000 0.600476 0.000000
#
# Coordination Sequence:
#
# PCOD9493352 Si02
#       6
#    16  16  16  16  16   8
#     4  11  21  32  49  74 108 140 173 216 262 316
#     4  11  20  37  64  95 125 159 206 258 307 357
#     4   9  16  26  44  72 108 145 177 217 270 322
#     4   9  19  37  58  75  93 124 167 214 267 327
#     4   9  15  26  48  80 116 147 184 235 284 332
#     4  11  26  46  64  88 127 167 205 255 313 375
#
# _framework density 18.902498000000001
#
# number of rings (size 3 to 8) (size 9 to 14) (size 15 to 20)
#    0.000    2.091    1.818    5.455    0.000    4.364 
#    0.000    1.818    0.000    1.091    0.000    2.545 
#    0.000    0.000    0.000    0.000    0.000    0.000 
#
# Total GULP energy -245082.543144 kJ/mol
# GULP energy per Si atom -5570.057799 kJ/mol
# Density = 1.885947 g / cm^3
# Si number density = 18.902498 Si / 1000 Ang^3
#
#
#
# Elastic Constant Matrix: (Units=GPa)
#
#
# Indices 1 2 3 4 5 6 
#
# 1 114.0089 27.1012 64.9484 0.0000 0.0000 0.0000
# 2 27.1012 32.2828 57.1942 0.0000 0.0000 0.0000
# 3 64.9484 57.1942 182.5048 0.0000 0.0000 0.0000
# 4 0.0000 0.0000 0.0000 -84.5644 0.0000 0.0000
# 5 0.0000 0.0000 0.0000 0.0000 25.7134 0.0000
# 6 0.0000 0.0000 0.0000 0.0000 0.0000 12.7021
#
#
#
# Elastic Compliance Matrix: (Units=1/GPa)
#
#
# Indices 1 2 3 4 5 6 
#
# 1 0.011399 -0.005357 -0.002378 0.000000 0.000000 0.000000
# 2 -0.005357 0.072160 -0.020708 0.000000 0.000000 0.000000
# 3 -0.002378 -0.020708 0.012815 0.000000 0.000000 0.000000
# 4 0.000000 0.000000 0.000000 -0.011825 0.000000 0.000000
# 5 0.000000 0.000000 0.000000 0.000000 0.038890 0.000000
# 6 0.000000 0.000000 0.000000 0.000000 0.000000 0.078727
#
#
# Mechanical properties :
#
#
# Convention : Reuss Voigt Hill
#
# Bulk Modulus (GPa) = 25.32294 69.69823 47.51059
# Shear Modulus (GPa) = 18.36790 2.74040 10.55415
#
# Velocity S-wave (km/s) = 3.12062 1.20537 2.36550
# Velocity P-wave (km/s) = 5.13907 6.23616 5.71401
#
# Compressibility (1/GPa) = 0.03948989
#
# Stress axis : x y z
#
# Youngs Moduli (GPa) = 87.72492 13.85811 78.03347
#
# Poissons Ratio (x) = 0.07423 0.18556
# Poissons Ratio (y) = 0.46991 1.61588
# Poissons Ratio (z) = 0.20861 0.28697
#
# Static dielectric constant tensor:
#      x y z
#    x 1.650040 0.000000 0.000000 
#    y 0.000000 1.622940 0.000000 
#    z 0.000000 0.000000 1.610070 
# 
# From -- ./inp_files/76812.got.cif
#   From: 2010.05.17/outbox.cif.g08.bks.cpg/sg65_39_cif.got.tgz:76812.got - 2010.06.03 17:01:31.
