data_PCOD9493212
_publ_section_title
;
Structure prediction by ZEFSAII (Michael W. Deem and Ramdas Pophale) SiO2 
 PCOD9493212
Probable space group: C M M M
;
_chemical_formula_sum "Si O2"
_cell_formula_units_Z 88
_cell_length_a 8.224771
_cell_length_b 29.581574
_cell_length_c 18.597555
_cell_angle_alpha 90.000000
_cell_angle_beta 90.000000
_cell_angle_gamma 90.000000
_cell_volume 4524.816226
_symmetry_space_group_name_H-M "C M M M"
_symmetry_group_IT_number 65
_symmetry_cell_setting 'orthorhombic'
loop_
_space_group_symop_operation_xyz
x,y,z
-x,-y,z
x,-y,-z
-x,y,-z
-x,-y,-z
x,y,-z
-x,y,z
x,-y,z
1/2+x,1/2+y,z
1/2-x,1/2-y,z
1/2+x,1/2-y,-z
1/2-x,1/2+y,-z
1/2-x,1/2-y,-z
1/2+x,1/2+y,-z
1/2-x,1/2+y,z
1/2+x,1/2-y,z
loop_
_atom_site_type_symbol
_atom_site_label
_atom_site_fract_x
_atom_site_fract_y
_atom_site_fract_z
Si Si1 0.802995 0.198077 0.500000
Si Si2 0.693543 0.354882 0.358890
Si Si3 0.696105 0.949611 0.687106
Si Si4 0.806205 0.698769 0.781374
Si Si5 0.801986 0.449915 0.145124
Si Si6 0.199037 0.355708 0.080097
O O1 0.750000 0.250000 0.500000
O O2 0.744721 0.172094 0.428592
O O3 0.000000 0.196990 0.500000
O O4 0.500000 0.351500 0.358634
O O5 0.740846 0.407450 0.357689
O O6 0.756132 0.331616 0.286195
O O7 0.500000 0.948612 0.685740
O O8 0.744581 0.943778 0.771104
O O9 0.748654 0.000000 0.664302
O O10 0.750000 0.750000 0.772110
O O11 0.744384 0.676870 0.855869
O O12 0.000000 0.698341 0.784667
O O13 0.748227 0.500000 0.121497
O O14 0.749278 0.406907 0.099319
O O15 0.000000 0.450136 0.143595
O O16 0.000000 0.355385 0.080727
O O17 0.251660 0.342830 0.000000
#
# Coordination Sequence:
#
# PCOD9493212 Si02
#       6
#     8  16  16  16  16  16
#     4  10  24  42  59  84 113 143 180 229 279 332
#     4  11  22  38  60  85 113 144 182 224 276 333
#     4   9  17  32  56  85 115 148 186 226 268 318
#     4  11  22  37  56  79 107 141 185 232 278 330
#     4   8  13  24  45  74 106 138 174 217 264 314
#     4   9  17  29  47  74 108 143 180 225 274 323
#
# _framework density 19.448304
#
# number of rings (size 3 to 8) (size 9 to 14) (size 15 to 20)
#    0.000    2.364    1.818    2.727    0.000    4.000 
#    0.000    2.273    0.000    4.364    0.000    0.000 
#    0.000    2.909    0.000    0.000    0.000    0.000 
#
# Total GULP energy -245537.074151 kJ/mol
# GULP energy per Si atom -5580.388049 kJ/mol
# Density = 1.940404 g / cm^3
# Si number density = 19.448304 Si / 1000 Ang^3
#
#
#
# Elastic Constant Matrix: (Units=GPa)
#
#
# Indices 1 2 3 4 5 6 
#
# 1 16.1028 15.1467 16.6151 0.0000 0.0000 0.0000
# 2 15.1467 151.5235 77.0026 0.0000 0.0000 0.0000
# 3 16.6151 77.0026 123.2684 0.0000 0.0000 0.0000
# 4 0.0000 0.0000 0.0000 21.2950 0.0000 0.0000
# 5 0.0000 0.0000 0.0000 0.0000 -62.3528 0.0000
# 6 0.0000 0.0000 0.0000 0.0000 0.0000 21.6936
#
#
#
# Elastic Compliance Matrix: (Units=1/GPa)
#
#
# Indices 1 2 3 4 5 6 
#
# 1 0.073295 -0.003379 -0.007769 0.000000 0.000000 0.000000
# 2 -0.003379 0.009825 -0.005682 0.000000 0.000000 0.000000
# 3 -0.007769 -0.005682 0.012709 0.000000 0.000000 0.000000
# 4 0.000000 0.000000 0.000000 0.046959 0.000000 0.000000
# 5 0.000000 0.000000 0.000000 0.000000 -0.016038 0.000000
# 6 0.000000 0.000000 0.000000 0.000000 0.000000 0.046097
#
#
# Mechanical properties :
#
#
# Convention : Reuss Voigt Hill
#
# Bulk Modulus (GPa) = 16.08497 56.49150 36.28824
# Shear Modulus (GPa) = 22.00425 8.26916 15.13671
#
# Velocity S-wave (km/s) = 3.36731 2.06424 2.79284
# Velocity P-wave (km/s) = 4.83807 5.89843 5.39437
#
# Compressibility (1/GPa) = 0.06216985
#
# Stress axis : x y z
#
# Youngs Moduli (GPa) = 13.64353 101.78225 78.68526
#
# Poissons Ratio (x) = 0.34390 0.61127
# Poissons Ratio (y) = 0.04610 0.44708
# Poissons Ratio (z) = 0.10599 0.57832
#
# Static dielectric constant tensor:
#      x y z
#    x 1.689340 0.000000 0.000000 
#    y 0.000000 1.667470 0.000000 
#    z 0.000000 0.000000 1.676210 
# 
# From -- ./inp_files/50419.got.cif
#   From: 2010.05.17/outbox.cif.g08.bks.cpg/sg65_26_cif.got.tgz:50419.got - 2010.06.03 17:01:31.
