data_PCOD9493961
_publ_section_title
;
Structure prediction by ZEFSAII (Michael W. Deem and Ramdas Pophale) SiO2 
 PCOD9493961
Probable space group: C M M M
;
_chemical_formula_sum "Si O2"
_cell_formula_units_Z 104
_cell_length_a 30.200563
_cell_length_b 20.917229
_cell_length_c 8.825919
_cell_angle_alpha 90.000000
_cell_angle_beta 90.000000
_cell_angle_gamma 90.000000
_cell_volume 5575.439757
_symmetry_space_group_name_H-M "C M M M"
_symmetry_group_IT_number 65
_symmetry_cell_setting 'orthorhombic'
loop_
_space_group_symop_operation_xyz
x,y,z
-x,-y,z
x,-y,-z
-x,y,-z
-x,-y,-z
x,y,-z
-x,y,z
x,-y,z
1/2+x,1/2+y,z
1/2-x,1/2-y,z
1/2+x,1/2-y,-z
1/2-x,1/2+y,-z
1/2-x,1/2-y,-z
1/2+x,1/2+y,-z
1/2-x,1/2+y,z
1/2+x,1/2-y,z
loop_
_atom_site_type_symbol
_atom_site_label
_atom_site_fract_x
_atom_site_fract_y
_atom_site_fract_z
Si Si1 0.948899 0.134857 0.317547
Si Si2 0.449146 0.923123 0.326343
Si Si3 0.866558 0.634233 0.822655
Si Si4 0.053676 0.000000 0.173069
Si Si5 0.368261 0.274841 0.318065
Si Si6 0.722508 0.685165 0.818736
Si Si7 0.281652 0.073664 0.681015
O O1 0.949268 0.131675 0.500000
O O2 0.933953 0.065838 0.255022
O O3 0.913433 0.188622 0.273136
O O4 0.000000 0.147145 0.268246
O O5 0.437635 0.904259 0.500000
O O6 0.500000 0.904311 0.299043
O O7 0.415013 0.892991 0.211196
O O8 0.446924 0.000000 0.319182
O O9 0.864963 0.705530 0.757303
O O10 0.831047 0.590858 0.735318
O O11 0.855977 0.634564 0.000000
O O12 0.000000 0.000000 0.172984
O O13 0.069215 0.000000 0.000000
O O14 0.367621 0.268868 0.500000
O O15 0.324956 0.312288 0.261753
O O16 0.750000 0.750000 0.780686
O O17 0.749923 0.624291 0.762282
O O18 0.717138 0.683843 0.000000
O O19 0.278668 0.081606 0.500000
O O20 0.271434 0.000000 0.718319
#
# Coordination Sequence:
#
# PCOD9493961 Si02
#       7
#    16  16  16   8  16  16  16
#     4   9  19  37  60  86 116 152 196 243 289 342
#     4   9  19  37  59  82 112 153 200 247 293 345
#     4  12  24  37  57  87 121 157 196 242 299 358
#     4   9  17  31  55  85 115 151 191 233 289 349
#     4  11  23  39  62  88 116 157 201 243 289 348
#     4  11  23  41  65  92 122 158 196 245 305 363
#     4  11  24  42  66  93 119 154 202 250 294 352
#
# _framework density 18.653238000000002
#
# number of rings (size 3 to 8) (size 9 to 14) (size 15 to 20)
#    0.000    1.615    1.538    3.923    0.000    7.077 
#    1.385    2.308    0.000    0.000    0.000    0.000 
#    0.000    0.000    0.000    0.000    0.000    0.000 
#
# Total GULP energy -290502.888396 kJ/mol
# GULP energy per Si atom -5586.594008 kJ/mol
# Density = 1.861078 g / cm^3
# Si number density = 18.653238 Si / 1000 Ang^3
#
#
#
# Elastic Constant Matrix: (Units=GPa)
#
#
# Indices 1 2 3 4 5 6 
#
# 1 72.8508 25.0329 16.8365 0.0000 0.0000 0.0000
# 2 25.0329 82.0651 22.6520 0.0000 0.0000 0.0000
# 3 16.8365 22.6520 36.0908 0.0000 0.0000 0.0000
# 4 0.0000 0.0000 0.0000 -89.4714 0.0000 0.0000
# 5 0.0000 0.0000 0.0000 0.0000 16.3431 0.0000
# 6 0.0000 0.0000 0.0000 0.0000 0.0000 35.4354
#
#
#
# Elastic Compliance Matrix: (Units=1/GPa)
#
#
# Indices 1 2 3 4 5 6 
#
# 1 0.016152 -0.003444 -0.005373 0.000000 0.000000 0.000000
# 2 -0.003444 0.015473 -0.008105 0.000000 0.000000 0.000000
# 3 -0.005373 -0.008105 0.035302 0.000000 0.000000 0.000000
# 4 0.000000 0.000000 0.000000 -0.011177 0.000000 0.000000
# 5 0.000000 0.000000 0.000000 0.000000 0.061188 0.000000
# 6 0.000000 0.000000 0.000000 0.000000 0.000000 0.028220
#
#
# Mechanical properties :
#
#
# Convention : Reuss Voigt Hill
#
# Bulk Modulus (GPa) = 30.22772 35.56104 32.89438
# Shear Modulus (GPa) = 26.31164 0.89378 13.60271
#
# Velocity S-wave (km/s) = 3.75983 0.69296 2.70338
# Velocity P-wave (km/s) = 5.92357 4.44364 5.23615
#
# Compressibility (1/GPa) = 0.03308221
#
# Stress axis : x y z
#
# Youngs Moduli (GPa) = 61.91237 64.62832 28.32726
#
# Poissons Ratio (x) = 0.22256 0.15222
# Poissons Ratio (y) = 0.21321 0.22959
# Poissons Ratio (z) = 0.33269 0.52381
#
# Static dielectric constant tensor:
#      x y z
#    x 1.645600 0.000000 0.000000 
#    y 0.000000 1.627030 0.000000 
#    z 0.000000 0.000000 1.629050 
# 
# From -- ./inp_files/18637.got.cif
#   From: 2010.05.17/outbox.cif.g08.bks.cpg/sg65_10_cif.got.tgz:18637.got - 2010.06.03 17:01:31.
