data_PCOD9493940
_publ_section_title
;
Structure prediction by ZEFSAII (Michael W. Deem and Ramdas Pophale) SiO2 
 PCOD9493940
Probable space group: C M M M
;
_chemical_formula_sum "Si O2"
_cell_formula_units_Z 64
_cell_length_a 24.446242
_cell_length_b 15.831000
_cell_length_c 8.693689
_cell_angle_alpha 90.000000
_cell_angle_beta 90.000000
_cell_angle_gamma 90.000000
_cell_volume 3364.531166
_symmetry_space_group_name_H-M "C M M M"
_symmetry_group_IT_number 65
_symmetry_cell_setting 'orthorhombic'
loop_
_space_group_symop_operation_xyz
x,y,z
-x,-y,z
x,-y,-z
-x,y,-z
-x,-y,-z
x,y,-z
-x,y,z
x,-y,z
1/2+x,1/2+y,z
1/2-x,1/2-y,z
1/2+x,1/2-y,-z
1/2-x,1/2+y,-z
1/2-x,1/2-y,-z
1/2+x,1/2+y,-z
1/2-x,1/2+y,z
1/2+x,1/2-y,z
loop_
_atom_site_type_symbol
_atom_site_label
_atom_site_fract_x
_atom_site_fract_y
_atom_site_fract_z
Si Si1 0.590451 0.500000 0.313433
Si Si2 0.000000 0.134398 0.313570
Si Si3 0.787780 0.000000 0.183408
Si Si4 0.500000 0.171078 0.314718
Si Si5 0.223234 0.339301 0.684533
Si Si6 0.612149 0.901282 0.816048
O O1 0.596056 0.500000 0.500000
O O2 0.553671 0.581138 0.268444
O O3 0.649558 0.500000 0.238524
O O4 0.000000 0.134295 0.500000
O O5 0.000000 0.230871 0.263091
O O6 0.757618 0.082951 0.247671
O O7 0.784165 0.000000 0.000000
O O8 0.500000 0.168345 0.500000
O O9 0.554225 0.126714 0.251718
O O10 0.223339 0.345353 0.500000
O O11 0.250000 0.250000 0.728659
O O12 0.161552 0.347848 0.745158
O O13 0.622062 0.000000 0.779657
O O14 0.611665 0.892282 0.000000
#
# Coordination Sequence:
#
# PCOD9493940 Si02
#       6
#     8   8   8   8  16  16
#     4   9  18  38  64  86 119 165 209 254 301 359
#     4   8  18  37  61  89 119 158 208 258 302 351
#     4  12  25  41  63  97 133 168 205 256 321 386
#     4  11  23  38  62  94 123 160 213 260 305 369
#     4  11  25  44  68  95 124 166 218 266 311 373
#     4  11  24  43  64  90 125 164 205 257 319 377
#
# _framework density 19.021967
#
# number of rings (size 3 to 8) (size 9 to 14) (size 15 to 20)
#    0.000    1.500    1.250    4.125    3.500    5.000 
#    0.000    2.500    0.000    0.000    0.000    0.000 
#    0.000    0.000    0.000    0.000    0.000    0.000 
#
# Total GULP energy -178920.963722 kJ/mol
# GULP energy per Si atom -5591.280116 kJ/mol
# Density = 1.897867 g / cm^3
# Si number density = 19.021967 Si / 1000 Ang^3
#
#
#
# Elastic Constant Matrix: (Units=GPa)
#
#
# Indices 1 2 3 4 5 6 
#
# 1 185.6604 76.0688 53.5149 0.0000 0.0000 0.0000
# 2 76.0688 134.3991 61.0591 0.0000 0.0000 0.0000
# 3 53.5149 61.0591 64.9328 0.0000 0.0000 0.0000
# 4 0.0000 0.0000 0.0000 -31.0632 0.0000 0.0000
# 5 0.0000 0.0000 0.0000 0.0000 88.0828 0.0000
# 6 0.0000 0.0000 0.0000 0.0000 0.0000 -68.4715
#
#
#
# Elastic Compliance Matrix: (Units=1/GPa)
#
#
# Indices 1 2 3 4 5 6 
#
# 1 0.007522 -0.002516 -0.003834 0.000000 0.000000 0.000000
# 2 -0.002516 0.013831 -0.010933 0.000000 0.000000 0.000000
# 3 -0.003834 -0.010933 0.028841 0.000000 0.000000 0.000000
# 4 0.000000 0.000000 0.000000 -0.032192 0.000000 0.000000
# 5 0.000000 0.000000 0.000000 0.000000 0.011353 0.000000
# 6 0.000000 0.000000 0.000000 0.000000 0.000000 -0.014605
#
#
# Mechanical properties :
#
#
# Convention : Reuss Voigt Hill
#
# Bulk Modulus (GPa) = 63.98135 85.14200 74.56168
# Shear Modulus (GPa) = 91.70270 10.66624 51.18447
#
# Velocity S-wave (km/s) = 6.95079 2.37055 5.19293
# Velocity P-wave (km/s) = 9.90588 7.23531 8.67399
#
# Compressibility (1/GPa) = 0.01562955
#
# Stress axis : x y z
#
# Youngs Moduli (GPa) = 132.94493 72.29983 34.67324
#
# Poissons Ratio (x) = 0.18188 0.13293
# Poissons Ratio (y) = 0.33444 0.37908
# Poissons Ratio (z) = 0.50966 0.79044
#
# Static dielectric constant tensor:
#      x y z
#    x 1.625790 0.000000 0.000000 
#    y 0.000000 1.650060 0.000000 
#    z 0.000000 0.000000 1.638060 
# 
# From -- ./inp_files/13408.got.cif
#   From: 2010.05.17/outbox.cif.g08.bks.cpg/sg65_7_cif.got.tgz:13408.got - 2010.06.03 17:01:31.
