data_PCOD9493081
_publ_section_title
;
Structure prediction by ZEFSAII (Michael W. Deem and Ramdas Pophale) SiO2 
 PCOD9493081
Probable space group: C M M M
;
_chemical_formula_sum "Si O2"
_cell_formula_units_Z 104
_cell_length_a 21.983594
_cell_length_b 8.638847
_cell_length_c 26.361448
_cell_angle_alpha 90.000000
_cell_angle_beta 90.000000
_cell_angle_gamma 90.000000
_cell_volume 5006.379172
_symmetry_space_group_name_H-M "C M M M"
_symmetry_group_IT_number 65
_symmetry_cell_setting 'orthorhombic'
loop_
_space_group_symop_operation_xyz
x,y,z
-x,-y,z
x,-y,-z
-x,y,-z
-x,-y,-z
x,y,-z
-x,y,z
x,-y,z
1/2+x,1/2+y,z
1/2-x,1/2-y,z
1/2+x,1/2-y,-z
1/2-x,1/2+y,-z
1/2-x,1/2-y,-z
1/2+x,1/2+y,-z
1/2-x,1/2+y,z
1/2+x,1/2-y,z
loop_
_atom_site_type_symbol
_atom_site_label
_atom_site_fract_x
_atom_site_fract_y
_atom_site_fract_z
Si Si1 0.374480 0.183607 0.289750
Si Si2 0.186204 0.816316 0.386007
Si Si3 0.500000 0.187699 0.839169
Si Si4 0.123800 0.315737 0.101661
Si Si5 0.319132 0.683828 0.000000
Si Si6 0.931708 0.319252 0.561178
Si Si7 0.000000 0.185471 0.276743
Si Si8 0.812613 0.182912 0.804346
O O1 0.326646 0.238344 0.331485
O O2 0.441255 0.242430 0.303778
O O3 0.361842 0.267544 0.236680
O O4 0.372854 0.000000 0.283152
O O5 0.250000 0.750000 0.406751
O O6 0.126219 0.772174 0.417958
O O7 0.190878 0.000000 0.380747
O O8 0.559459 0.230098 0.872477
O O9 0.500000 0.261427 0.782939
O O10 0.500000 0.000000 0.832268
O O11 0.122840 0.500000 0.094869
O O12 0.143302 0.238764 0.049211
O O13 0.173429 0.266842 0.143106
O O14 0.250000 0.750000 0.000000
O O15 0.314053 0.500000 0.000000
O O16 0.929715 0.316051 0.500000
O O17 0.925843 0.500000 0.577222
O O18 0.000000 0.265008 0.575799
O O19 0.000000 0.000000 0.279080
O O20 0.750000 0.250000 0.783688
O O21 0.810720 0.000000 0.810995
#
# Coordination Sequence:
#
# PCOD9493081 Si02
#       8
#    16  16   8  16   8  16   8  16
#     4  12  25  43  65  92 130 174 217 267 327 389
#     4  12  26  44  66  97 137 179 228 283 340 401
#     4  10  22  41  67  94 127 163 203 249 308 372
#     4  11  23  42  66  93 124 161 204 253 310 375
#     4  12  26  45  66  91 123 160 204 256 311 369
#     4   9  20  42  71 101 135 177 226 279 339 405
#     4  12  24  40  65  97 131 169 219 269 318 382
#     4  12  24  40  62  91 124 164 210 260 316 380
#
# _framework density 20.773496999999999
#
# number of rings (size 3 to 8) (size 9 to 14) (size 15 to 20)
#    0.000    0.769    1.538    7.385    1.077    1.846 
#    0.000    2.308    0.000    0.000    0.000    0.000 
#    0.000    0.000    0.000    0.000    0.000    0.000 
#
# Total GULP energy -290904.445676 kJ/mol
# GULP energy per Si atom -5594.316263 kJ/mol
# Density = 2.072622 g / cm^3
# Si number density = 20.773497 Si / 1000 Ang^3
#
#
#
# Elastic Constant Matrix: (Units=GPa)
#
#
# Indices 1 2 3 4 5 6 
#
# 1 127.6072 19.8344 9.4018 0.0000 0.0000 0.0000
# 2 19.8344 65.1206 -4.9242 0.0000 0.0000 0.0000
# 3 9.4018 -4.9242 50.7928 0.0000 0.0000 0.0000
# 4 0.0000 0.0000 0.0000 32.8165 0.0000 0.0000
# 5 0.0000 0.0000 0.0000 0.0000 33.7472 0.0000
# 6 0.0000 0.0000 0.0000 0.0000 0.0000 33.1114
#
#
#
# Elastic Compliance Matrix: (Units=1/GPa)
#
#
# Indices 1 2 3 4 5 6 
#
# 1 0.008389 -0.002692 -0.001814 0.000000 0.000000 0.000000
# 2 -0.002692 0.016334 0.002082 0.000000 0.000000 0.000000
# 3 -0.001814 0.002082 0.020225 0.000000 0.000000 0.000000
# 4 0.000000 0.000000 0.000000 0.030472 0.000000 0.000000
# 5 0.000000 0.000000 0.000000 0.000000 0.029632 0.000000
# 6 0.000000 0.000000 0.000000 0.000000 0.000000 0.030201
#
#
# Mechanical properties :
#
#
# Convention : Reuss Voigt Hill
#
# Bulk Modulus (GPa) = 24.93806 32.46051 28.69928
# Shear Modulus (GPa) = 32.58013 34.54894 33.56454
#
# Velocity S-wave (km/s) = 3.96454 4.08257 4.02399
# Velocity P-wave (km/s) = 5.74348 6.15492 5.95275
#
# Compressibility (1/GPa) = 0.04009936
#
# Stress axis : x y z
#
# Youngs Moduli (GPa) = 119.20895 61.22381 49.44281
#
# Poissons Ratio (x) = 0.16482 0.08968
# Poissons Ratio (y) = 0.32093 -0.10293
# Poissons Ratio (z) = 0.21622 -0.12746
#
# Static dielectric constant tensor:
#      x y z
#    x 1.727200 0.000000 0.000000 
#    y 0.000000 1.690530 0.000000 
#    z 0.000000 0.000000 1.732510 
# 
# From -- ./inp_files/75565.got.cif
#   From: 2010.05.17/outbox.cif.g08.bks.cpg/sg65_38_cif.got.tgz:75565.got - 2010.06.03 17:01:31.
