data_PCOD9493574
_publ_section_title
;
Structure prediction by ZEFSAII (Michael W. Deem and Ramdas Pophale) SiO2 
 PCOD9493574
Probable space group: C M M M
;
_chemical_formula_sum "Si O2"
_cell_formula_units_Z 104
_cell_length_a 15.928768
_cell_length_b 14.282374
_cell_length_c 24.829238
_cell_angle_alpha 90.000000
_cell_angle_beta 90.000000
_cell_angle_gamma 90.000000
_cell_volume 5648.667087
_symmetry_space_group_name_H-M "C M M M"
_symmetry_group_IT_number 65
_symmetry_cell_setting 'orthorhombic'
loop_
_space_group_symop_operation_xyz
x,y,z
-x,-y,z
x,-y,-z
-x,y,-z
-x,-y,-z
x,y,-z
-x,y,z
x,-y,z
1/2+x,1/2+y,z
1/2-x,1/2-y,z
1/2+x,1/2-y,-z
1/2-x,1/2+y,-z
1/2-x,1/2-y,-z
1/2+x,1/2+y,-z
1/2-x,1/2+y,z
1/2+x,1/2-y,z
loop_
_atom_site_type_symbol
_atom_site_label
_atom_site_fract_x
_atom_site_fract_y
_atom_site_fract_z
Si Si1 0.401084 0.398209 0.765795
Si Si2 0.602231 0.392231 0.438749
Si Si3 0.898235 0.394444 0.267453
Si Si4 0.897089 0.782755 0.335337
Si Si5 0.398406 0.706777 0.061426
Si Si6 0.346532 0.224979 0.831949
Si Si7 0.904840 0.000000 0.934698
O O1 0.500000 0.408474 0.757297
O O2 0.365821 0.500000 0.780455
O O3 0.367160 0.357117 0.709701
O O4 0.392420 0.317279 0.809335
O O5 0.629176 0.371717 0.500000
O O6 0.500000 0.390758 0.438642
O O7 0.625889 0.500000 0.425500
O O8 0.630574 0.318809 0.393603
O O9 0.869808 0.500000 0.277864
O O10 0.870953 0.318370 0.312262
O O11 0.869428 0.357724 0.208875
O O12 0.000000 0.393309 0.267006
O O13 0.000000 0.782566 0.335555
O O14 0.500000 0.701553 0.061400
O O15 0.370343 0.781611 0.105569
O O16 0.366787 0.601748 0.077710
O O17 0.371896 0.726285 0.000000
O O18 0.250000 0.250000 0.827161
O O19 0.000000 0.000000 0.911654
O O20 0.911622 0.000000 0.000000
#
# Coordination Sequence:
#
# PCOD9493574 Si02
#       7
#    16  16  16  16  16  16   8
#     4   9  17  29  47  69  91 117 151 192 233 274
#     4   8  12  17  29  55  93 130 153 176 225 290
#     4   9  18  34  52  64  81 119 170 210 232 261
#     4   8  13  23  40  62  86 115 157 197 229 269
#     4   9  17  31  51  72  94 121 152 182 216 269
#     4  11  22  32  45  70  99 124 146 183 236 289
#     4   7  12  24  44  70  92 110 135 167 204 252
#
# _framework density 18.411422999999999
#
# number of rings (size 3 to 8) (size 9 to 14) (size 15 to 20)
#    0.000    3.154    0.000    4.154    1.077    2.769 
#    0.000    0.000    0.000    0.923    0.000    5.385 
#    0.000    9.846    0.000   12.308    0.000   12.308 
#
# Total GULP energy -289486.042453 kJ/mol
# GULP energy per Si atom -5567.039278 kJ/mol
# Density = 1.836952 g / cm^3
# Si number density = 18.411423 Si / 1000 Ang^3
#
#
#
# Elastic Constant Matrix: (Units=GPa)
#
#
# Indices 1 2 3 4 5 6 
#
# 1 9.7289 10.1163 1.7993 0.0000 0.0000 0.0000
# 2 10.1163 90.1653 52.0060 0.0000 0.0000 0.0000
# 3 1.7993 52.0060 121.7819 0.0000 0.0000 0.0000
# 4 0.0000 0.0000 0.0000 18.3011 0.0000 0.0000
# 5 0.0000 0.0000 0.0000 0.0000 -7.7277 0.0000
# 6 0.0000 0.0000 0.0000 0.0000 0.0000 40.3762
#
#
#
# Elastic Compliance Matrix: (Units=1/GPa)
#
#
# Indices 1 2 3 4 5 6 
#
# 1 0.118815 -0.016344 0.005224 0.000000 0.000000 0.000000
# 2 -0.016344 0.016964 -0.007003 0.000000 0.000000 0.000000
# 3 0.005224 -0.007003 0.011125 0.000000 0.000000 0.000000
# 4 0.000000 0.000000 0.000000 0.054641 0.000000 0.000000
# 5 0.000000 0.000000 0.000000 0.000000 -0.129404 0.000000
# 6 0.000000 0.000000 0.000000 0.000000 0.000000 0.024767
#
#
# Mechanical properties :
#
#
# Convention : Reuss Voigt Hill
#
# Bulk Modulus (GPa) = 9.03685 38.83547 23.93616
# Shear Modulus (GPa) = 29.40519 20.70689 25.05604
#
# Velocity S-wave (km/s) = 4.00073 3.35726 3.69304
# Velocity P-wave (km/s) = 5.12446 6.01391 5.58691
#
# Compressibility (1/GPa) = 0.11065802
#
# Stress axis : x y z
#
# Youngs Moduli (GPa) = 8.41647 58.95010 89.89044
#
# Poissons Ratio (x) = 0.96347 -0.46959
# Poissons Ratio (y) = 0.13756 0.62947
# Poissons Ratio (z) = -0.04397 0.41281
#
# Static dielectric constant tensor:
#      x y z
#    x 1.609220 0.000000 0.000000 
#    y 0.000000 1.655440 0.000000 
#    z 0.000000 0.000000 1.665430 
# 
# From -- ./inp_files/70560.got.cif
#   From: 2010.05.17/outbox.cif.g08.bks.cpg/sg65_36_cif.got.tgz:70560.got - 2010.06.03 17:01:31.
