data_PCOD9493361
_publ_section_title
;
Structure prediction by ZEFSAII (Michael W. Deem and Ramdas Pophale) SiO2 
 PCOD9493361
Probable space group: C M M M
;
_chemical_formula_sum "Si O2"
_cell_formula_units_Z 96
_cell_length_a 21.817903
_cell_length_b 16.824832
_cell_length_c 14.150530
_cell_angle_alpha 90.000000
_cell_angle_beta 90.000000
_cell_angle_gamma 90.000000
_cell_volume 5194.412673
_symmetry_space_group_name_H-M "C M M M"
_symmetry_group_IT_number 65
_symmetry_cell_setting 'orthorhombic'
loop_
_space_group_symop_operation_xyz
x,y,z
-x,-y,z
x,-y,-z
-x,y,-z
-x,-y,-z
x,y,-z
-x,y,z
x,-y,z
1/2+x,1/2+y,z
1/2-x,1/2-y,z
1/2+x,1/2-y,-z
1/2-x,1/2+y,-z
1/2-x,1/2-y,-z
1/2+x,1/2+y,-z
1/2-x,1/2+y,z
1/2+x,1/2-y,z
loop_
_atom_site_type_symbol
_atom_site_label
_atom_site_fract_x
_atom_site_fract_y
_atom_site_fract_z
Si Si1 0.802093 0.097223 0.392025
Si Si2 0.000000 0.309445 0.112490
Si Si3 0.366931 0.811084 0.111959
Si Si4 0.865311 0.120231 0.112244
Si Si5 0.935025 0.906204 0.384834
Si Si6 0.262444 0.090613 0.211799
Si Si7 0.500000 0.617790 0.887443
O O1 0.791890 0.121605 0.500000
O O2 0.868974 0.126882 0.356970
O O3 0.750603 0.119809 0.318030
O O4 0.805140 0.000000 0.391362
O O5 0.934104 0.337527 0.149465
O O6 0.000000 0.213526 0.119966
O O7 0.000000 0.326188 0.000000
O O8 0.363407 0.715881 0.121566
O O9 0.310235 0.853426 0.160332
O O10 0.364391 0.828125 0.000000
O O11 0.804429 0.089520 0.162282
O O12 0.932684 0.092000 0.148468
O O13 0.862501 0.101923 0.000000
O O14 0.934721 0.902119 0.500000
O O15 0.000000 0.871034 0.351113
O O16 0.935839 0.000000 0.362259
O O17 0.285362 0.000000 0.212797
O O18 0.500000 0.599322 0.000000
#
# Coordination Sequence:
#
# PCOD9493361 Si02
#       7
#    16   8  16  16  16  16   8
#     4   8  15  28  41  54  80 118 154 185 220 264
#     4   7  12  26  49  71  84 105 148 192 225 261
#     4   9  17  31  51  70  89 117 152 186 222 269
#     4   9  17  31  49  66  88 122 158 186 215 258
#     4   7   9  16  33  52  67  92 136 183 217 244
#     4  11  21  29  41  68  98 121 147 185 228 269
#     4   7  12  26  47  65  82 113 160 196 207 237
#
# _framework density 18.481396
#
# number of rings (size 3 to 8) (size 9 to 14) (size 15 to 20)
#    0.000    3.500    0.000    4.500    0.000    2.667 
#    1.500    0.833    0.000    5.000    0.000    0.583 
#    0.000    6.667    0.000    0.000    0.000    0.000 
#
# Total GULP energy -267347.297649 kJ/mol
# GULP energy per Si atom -5569.735368 kJ/mol
# Density = 1.843933 g / cm^3
# Si number density = 18.481396 Si / 1000 Ang^3
#
#
#
# Elastic Constant Matrix: (Units=GPa)
#
#
# Indices 1 2 3 4 5 6 
#
# 1 130.8081 41.0961 42.9100 0.0000 0.0000 0.0000
# 2 41.0961 28.7116 24.8449 0.0000 0.0000 0.0000
# 3 42.9100 24.8449 55.1581 0.0000 0.0000 0.0000
# 4 0.0000 0.0000 0.0000 12.0460 0.0000 0.0000
# 5 0.0000 0.0000 0.0000 0.0000 22.4878 0.0000
# 6 0.0000 0.0000 0.0000 0.0000 0.0000 -4.0046
#
#
#
# Elastic Compliance Matrix: (Units=1/GPa)
#
#
# Indices 1 2 3 4 5 6 
#
# 1 0.014208 -0.017653 -0.003102 0.000000 0.000000 0.000000
# 2 -0.017653 0.079007 -0.021854 0.000000 0.000000 0.000000
# 3 -0.003102 -0.021854 0.030387 0.000000 0.000000 0.000000
# 4 0.000000 0.000000 0.000000 0.083015 0.000000 0.000000
# 5 0.000000 0.000000 0.000000 0.000000 0.044469 0.000000
# 6 0.000000 0.000000 0.000000 0.000000 0.000000 -0.249713
#
#
# Mechanical properties :
#
#
# Convention : Reuss Voigt Hill
#
# Bulk Modulus (GPa) = 26.05243 48.04222 37.04733
# Shear Modulus (GPa) = 50.30901 13.16097 31.73499
#
# Velocity S-wave (km/s) = 5.22308 2.67145 4.14832
# Velocity P-wave (km/s) = 7.10642 5.96380 6.56003
#
# Compressibility (1/GPa) = 0.03838413
#
# Stress axis : x y z
#
# Youngs Moduli (GPa) = 70.38121 12.65706 32.90907
#
# Poissons Ratio (x) = 0.22343 0.10208
# Poissons Ratio (y) = 1.24242 0.71921
# Poissons Ratio (z) = 0.21832 0.27661
#
# Static dielectric constant tensor:
#      x y z
#    x 1.689330 0.000000 0.000000 
#    y 0.000000 1.602570 0.000000 
#    z 0.000000 0.000000 1.680390 
# 
# From -- ./inp_files/29087.got.cif
#   From: 2010.05.17/outbox.cif.g08.bks.cpg/sg65_15_cif.got.tgz:29087.got - 2010.06.03 17:01:31.
