data_PCOD9493386
_publ_section_title
;
Structure prediction by ZEFSAII (Michael W. Deem and Ramdas Pophale) SiO2 
 PCOD9493386
Probable space group: C M M M
;
_chemical_formula_sum "Si O2"
_cell_formula_units_Z 80
_cell_length_a 8.106054
_cell_length_b 29.812673
_cell_length_c 22.984124
_cell_angle_alpha 90.000000
_cell_angle_beta 90.000000
_cell_angle_gamma 90.000000
_cell_volume 5554.415512
_symmetry_space_group_name_H-M "C M M M"
_symmetry_group_IT_number 65
_symmetry_cell_setting 'orthorhombic'
loop_
_space_group_symop_operation_xyz
x,y,z
-x,-y,z
x,-y,-z
-x,y,-z
-x,-y,-z
x,y,-z
-x,y,z
x,-y,z
1/2+x,1/2+y,z
1/2-x,1/2-y,z
1/2+x,1/2-y,-z
1/2-x,1/2+y,-z
1/2-x,1/2-y,-z
1/2+x,1/2+y,-z
1/2-x,1/2+y,z
1/2+x,1/2-y,z
loop_
_atom_site_type_symbol
_atom_site_label
_atom_site_fract_x
_atom_site_fract_y
_atom_site_fract_z
Si Si1 0.000000 0.554684 0.432730
Si Si2 0.309619 0.445478 0.354964
Si Si3 0.301185 0.201003 0.067284
Si Si4 0.801943 0.050880 0.776359
Si Si5 0.196703 0.607129 0.113057
Si Si6 0.302570 0.551251 0.000000
O O1 0.167501 0.569085 0.399597
O O2 0.000000 0.500000 0.431477
O O3 0.000000 0.568538 0.500000
O O4 0.500000 0.430637 0.366032
O O5 0.314590 0.500000 0.356324
O O6 0.257033 0.433940 0.288864
O O7 0.500000 0.199696 0.066235
O O8 0.250000 0.250000 0.089075
O O9 0.240390 0.157847 0.102722
O O10 0.243496 0.196810 0.000000
O O11 0.752240 0.083668 0.827804
O O12 0.000000 0.048057 0.776055
O O13 0.737763 0.000000 0.786330
O O14 0.247551 0.577423 0.057568
O O15 0.000000 0.609060 0.113688
O O16 0.239943 0.500000 0.000000
O O17 0.500000 0.549761 0.000000
#
# Coordination Sequence:
#
# PCOD9493386 Si02
#       6
#     8  16  16  16  16   8
#     4   9  16  24  38  60  82 107 145 185 219 256
#     4   8  15  27  40  55  80 111 144 183 217 250
#     4   9  18  33  48  63  81 100 128 169 215 263
#     4   9  18  31  44  60  83 113 148 180 210 254
#     4  11  21  32  46  65  84 103 135 178 219 263
#     4  11  23  35  44  57  82 111 138 173 216 261
#
# _framework density 14.402956
#
# number of rings (size 3 to 8) (size 9 to 14) (size 15 to 20)
#    0.000    2.600    1.000    2.700    1.400    5.600 
#    0.000    2.000    0.000    0.000    0.000    0.000 
#    0.000    0.000    0.000    0.000    0.000    1.000 
#
# Total GULP energy -222839.310275 kJ/mol
# GULP energy per Si atom -5570.982757 kJ/mol
# Density = 1.437017 g / cm^3
# Si number density = 14.402956 Si / 1000 Ang^3
#
#
#
# Elastic Constant Matrix: (Units=GPa)
#
#
# Indices 1 2 3 4 5 6 
#
# 1 41.5669 19.3702 51.4995 0.0000 0.0000 0.0000
# 2 19.3702 84.1634 54.0711 0.0000 0.0000 0.0000
# 3 51.4995 54.0711 125.4654 0.0000 0.0000 0.0000
# 4 0.0000 0.0000 0.0000 1.2265 0.0000 0.0000
# 5 0.0000 0.0000 0.0000 0.0000 33.8677 0.0000
# 6 0.0000 0.0000 0.0000 0.0000 0.0000 16.1008
#
#
#
# Elastic Compliance Matrix: (Units=1/GPa)
#
#
# Indices 1 2 3 4 5 6 
#
# 1 0.049268 0.002286 -0.021208 0.000000 0.000000 0.000000
# 2 0.002286 0.016537 -0.008065 0.000000 0.000000 0.000000
# 3 -0.021208 -0.008065 0.020152 0.000000 0.000000 0.000000
# 4 0.000000 0.000000 0.000000 0.815298 0.000000 0.000000
# 5 0.000000 0.000000 0.000000 0.000000 0.029527 0.000000
# 6 0.000000 0.000000 0.000000 0.000000 0.000000 0.062109
#
#
# Mechanical properties :
#
#
# Convention : Reuss Voigt Hill
#
# Bulk Modulus (GPa) = 31.26743 55.67525 43.47134
# Shear Modulus (GPa) = 4.72802 18.65601 11.69202
#
# Velocity S-wave (km/s) = 1.81378 3.60292 2.85226
# Velocity P-wave (km/s) = 5.11298 7.48648 6.41054
#
# Compressibility (1/GPa) = 0.03198216
#
# Stress axis : x y z
#
# Youngs Moduli (GPa) = 20.29700 60.47024 49.62397
#
# Poissons Ratio (x) = -0.13825 1.05244
# Poissons Ratio (y) = -0.04641 0.40023
# Poissons Ratio (z) = 0.43047 0.48771
#
# Static dielectric constant tensor:
#      x y z
#    x 1.507240 0.000000 0.000000 
#    y 0.000000 1.475320 0.000000 
#    z 0.000000 0.000000 1.452100 
# 
# From -- ./inp_files/57879.got.cif
#   From: 2010.05.17/outbox.cif.g08.bks.cpg/sg65_29_cif.got.tgz:57879.got - 2010.06.03 17:01:31.
