data_PCOD9493526
_publ_section_title
;
Structure prediction by ZEFSAII (Michael W. Deem and Ramdas Pophale) SiO2 
 PCOD9493526
Probable space group: C M M M
;
_chemical_formula_sum "Si O2"
_cell_formula_units_Z 72
_cell_length_a 14.568235
_cell_length_b 14.109279
_cell_length_c 18.143962
_cell_angle_alpha 90.000000
_cell_angle_beta 90.000000
_cell_angle_gamma 90.000000
_cell_volume 3729.442258
_symmetry_space_group_name_H-M "C M M M"
_symmetry_group_IT_number 65
_symmetry_cell_setting 'orthorhombic'
loop_
_space_group_symop_operation_xyz
x,y,z
-x,-y,z
x,-y,-z
-x,y,-z
-x,-y,-z
x,y,-z
-x,y,z
x,-y,z
1/2+x,1/2+y,z
1/2-x,1/2-y,z
1/2+x,1/2-y,-z
1/2-x,1/2+y,-z
1/2-x,1/2-y,-z
1/2+x,1/2+y,-z
1/2-x,1/2+y,z
1/2+x,1/2-y,z
loop_
_atom_site_type_symbol
_atom_site_label
_atom_site_fract_x
_atom_site_fract_y
_atom_site_fract_z
Si Si1 0.611541 0.715243 0.917531
Si Si2 0.000000 0.610892 0.588138
Si Si3 0.109172 0.895632 0.223895
Si Si4 0.345756 0.218966 0.676412
Si Si5 0.889434 0.390183 0.181235
O O1 0.500000 0.707243 0.919933
O O2 0.646056 0.644321 0.853985
O O3 0.630724 0.820385 0.886537
O O4 0.645807 0.698749 0.000000
O O5 0.086711 0.666533 0.621274
O O6 0.000000 0.500000 0.611986
O O7 0.000000 0.613090 0.500000
O O8 0.119330 0.815988 0.286091
O O9 0.000000 0.903841 0.213377
O O10 0.145755 0.000000 0.241865
O O11 0.250000 0.250000 0.641830
O O12 0.336683 0.148794 0.747017
O O13 0.871987 0.500000 0.167058
O O14 0.000000 0.379309 0.197531
#
# Coordination Sequence:
#
# PCOD9493526 Si02
#       5
#    16   8  16  16  16
#     4   8  14  24  40  70 109 145 190 247 299 345
#     4  11  24  44  69  95 124 155 187 229 285 349
#     4   9  17  31  51  75 107 151 197 239 289 345
#     4  11  21  36  61  89 119 152 193 239 285 340
#     4   9  16  29  51  77 109 151 198 246 296 348
#
# _framework density 19.305835999999999
#
# number of rings (size 3 to 8) (size 9 to 14) (size 15 to 20)
#    0.000    2.556    2.222    2.000    0.000    3.111 
#    0.000    4.444    0.000   12.000    0.000   12.444 
#    0.000    0.000    0.000    0.000    0.000    0.000 
#
# Total GULP energy -200834.337172 kJ/mol
# GULP energy per Si atom -5578.731588 kJ/mol
# Density = 1.926189 g / cm^3
# Si number density = 19.305836 Si / 1000 Ang^3
#
#
#
# Elastic Constant Matrix: (Units=GPa)
#
#
# Indices 1 2 3 4 5 6 
#
# 1 76.0686 29.9540 28.9758 0.0000 0.0000 0.0000
# 2 29.9540 172.6707 55.9342 0.0000 0.0000 0.0000
# 3 28.9758 55.9342 91.5231 0.0000 0.0000 0.0000
# 4 0.0000 0.0000 0.0000 11.6119 0.0000 0.0000
# 5 0.0000 0.0000 0.0000 0.0000 1.3925 0.0000
# 6 0.0000 0.0000 0.0000 0.0000 0.0000 10.8008
#
#
#
# Elastic Compliance Matrix: (Units=1/GPa)
#
#
# Indices 1 2 3 4 5 6 
#
# 1 0.015195 -0.001344 -0.003989 0.000000 0.000000 0.000000
# 2 -0.001344 0.007340 -0.004060 0.000000 0.000000 0.000000
# 3 -0.003989 -0.004060 0.014671 0.000000 0.000000 0.000000
# 4 0.000000 0.000000 0.000000 0.086118 0.000000 0.000000
# 5 0.000000 0.000000 0.000000 0.000000 0.718116 0.000000
# 6 0.000000 0.000000 0.000000 0.000000 0.000000 0.092586
#
#
# Mechanical properties :
#
#
# Convention : Reuss Voigt Hill
#
# Bulk Modulus (GPa) = 54.29326 63.33230 58.81278
# Shear Modulus (GPa) = 5.21403 19.78761 12.50082
#
# Velocity S-wave (km/s) = 1.64518 3.20496 2.54739
# Velocity P-wave (km/s) = 5.63849 6.82435 6.25956
#
# Compressibility (1/GPa) = 0.01841849
#
# Stress axis : x y z
#
# Youngs Moduli (GPa) = 65.81219 136.24496 68.16311
#
# Poissons Ratio (x) = 0.18306 0.27193
# Poissons Ratio (y) = 0.08842 0.27676
# Poissons Ratio (z) = 0.26256 0.55319
#
# Static dielectric constant tensor:
#      x y z
#    x 1.772500 0.000000 0.000000 
#    y 0.000000 1.668660 0.000000 
#    z 0.000000 0.000000 1.633370 
# 
# From -- ./inp_files/52751.got.cif
#   From: 2010.05.17/outbox.cif.g08.bks.cpg/sg65_27_cif.got.tgz:52751.got - 2010.06.03 17:01:31.
