data_PCOD9493494
_publ_section_title
;
Structure prediction by ZEFSAII (Michael W. Deem and Ramdas Pophale) SiO2 
 PCOD9493494
Probable space group: C M M M
;
_chemical_formula_sum "Si O2"
_cell_formula_units_Z 88
_cell_length_a 16.620194
_cell_length_b 23.905351
_cell_length_c 12.208974
_cell_angle_alpha 90.000000
_cell_angle_beta 90.000000
_cell_angle_gamma 90.000000
_cell_volume 4850.766643
_symmetry_space_group_name_H-M "C M M M"
_symmetry_group_IT_number 65
_symmetry_cell_setting 'orthorhombic'
loop_
_space_group_symop_operation_xyz
x,y,z
-x,-y,z
x,-y,-z
-x,y,-z
-x,-y,-z
x,y,-z
-x,y,z
x,-y,z
1/2+x,1/2+y,z
1/2-x,1/2-y,z
1/2+x,1/2-y,-z
1/2-x,1/2+y,-z
1/2-x,1/2-y,-z
1/2+x,1/2+y,-z
1/2-x,1/2+y,z
1/2+x,1/2-y,z
loop_
_atom_site_type_symbol
_atom_site_label
_atom_site_fract_x
_atom_site_fract_y
_atom_site_fract_z
Si Si1 0.903456 0.840674 0.123096
Si Si2 0.500000 0.065645 0.877877
Si Si3 0.326323 0.566222 0.270363
Si Si4 0.902311 0.713819 0.868811
Si Si5 0.853060 0.609491 0.264239
Si Si6 0.903432 0.565867 0.500000
Si Si7 0.907632 0.067254 0.500000
O O1 0.875003 0.892757 0.192350
O O2 0.880658 0.777970 0.159477
O O3 0.000000 0.840400 0.120272
O O4 0.872233 0.847234 0.000000
O O5 0.578546 0.081069 0.809762
O O6 0.500000 0.000000 0.889479
O O7 0.500000 0.091303 0.000000
O O8 0.340175 0.500000 0.252698
O O9 0.233306 0.580971 0.252389
O O10 0.357142 0.581253 0.392157
O O11 0.856826 0.671906 0.786709
O O12 0.000000 0.706707 0.855384
O O13 0.885630 0.705284 0.000000
O O14 0.876256 0.598510 0.390844
O O15 0.874557 0.500000 0.500000
O O16 0.000000 0.563479 0.500000
O O17 0.000000 0.089237 0.500000
O O18 0.914299 0.000000 0.500000
#
# Coordination Sequence:
#
# PCOD9493494 Si02
#       7
#    16   8  16  16  16   8   8
#     4   9  20  39  62  86 113 150 195 245 305 363
#     4  11  22  35  53  79 113 158 206 240 275 334
#     4  11  23  37  57  88 123 152 190 246 303 360
#     4   9  18  37  62  84 111 153 206 252 288 341
#     4  12  22  36  57  84 118 157 199 242 291 346
#     4  11  21  35  56  79 112 157 200 237 284 345
#     4   9  19  39  64  84 108 151 201 243 292 359
#
# _framework density 18.141463000000002
#
# number of rings (size 3 to 8) (size 9 to 14) (size 15 to 20)
#    0.000    1.727    1.818    4.364    0.000    4.364 
#    0.000    3.636    0.000    5.455    0.000    0.000 
#    0.000    0.000    0.000    0.000    0.000    0.000 
#
# Total GULP energy -245370.683722 kJ/mol
# GULP energy per Si atom -5576.606448 kJ/mol
# Density = 1.810017 g / cm^3
# Si number density = 18.141463 Si / 1000 Ang^3
#
#
#
# Elastic Constant Matrix: (Units=GPa)
#
#
# Indices 1 2 3 4 5 6 
#
# 1 56.4366 35.5047 29.1996 0.0000 0.0000 0.0000
# 2 35.5047 151.6405 84.3076 0.0000 0.0000 0.0000
# 3 29.1996 84.3076 123.2604 0.0000 0.0000 0.0000
# 4 0.0000 0.0000 0.0000 27.4603 0.0000 0.0000
# 5 0.0000 0.0000 0.0000 0.0000 -66.3675 0.0000
# 6 0.0000 0.0000 0.0000 0.0000 0.0000 55.3045
#
#
#
# Elastic Compliance Matrix: (Units=1/GPa)
#
#
# Indices 1 2 3 4 5 6 
#
# 1 0.021298 -0.003520 -0.002638 0.000000 0.000000 0.000000
# 2 -0.003520 0.011223 -0.006842 0.000000 0.000000 0.000000
# 3 -0.002638 -0.006842 0.013418 0.000000 0.000000 0.000000
# 4 0.000000 0.000000 0.000000 0.036416 0.000000 0.000000
# 5 0.000000 0.000000 0.000000 0.000000 -0.015068 0.000000
# 6 0.000000 0.000000 0.000000 0.000000 0.000000 0.018082
#
#
# Mechanical properties :
#
#
# Convention : Reuss Voigt Hill
#
# Bulk Modulus (GPa) = 50.15417 69.92904 60.04161
# Shear Modulus (GPa) = 42.36716 15.43448 28.90082
#
# Velocity S-wave (km/s) = 4.83782 2.91999 3.99567
# Velocity P-wave (km/s) = 7.67542 7.07097 7.37939
#
# Compressibility (1/GPa) = 0.01993852
#
# Stress axis : x y z
#
# Youngs Moduli (GPa) = 46.95204 89.10357 74.52823
#
# Poissons Ratio (x) = 0.31367 0.19658
# Poissons Ratio (y) = 0.16529 0.50994
# Poissons Ratio (z) = 0.12384 0.60967
#
# Static dielectric constant tensor:
#      x y z
#    x 1.622610 0.000000 0.000000 
#    y 0.000000 1.639700 0.000000 
#    z 0.000000 0.000000 1.623970 
# 
# From -- ./inp_files/24849.got.cif
#   From: 2010.05.17/outbox.cif.g08.bks.cpg/sg65_13_cif.got.tgz:24849.got - 2010.06.03 17:01:31.
