data_PCOD9493109
_publ_section_title
;
Structure prediction by ZEFSAII (Michael W. Deem and Ramdas Pophale) SiO2 
 PCOD9493109
Probable space group: C M M M
;
_chemical_formula_sum "Si O2"
_cell_formula_units_Z 58
_cell_length_a 13.096183
_cell_length_b 24.926421
_cell_length_c 9.749954
_cell_angle_alpha 90.000000
_cell_angle_beta 90.000000
_cell_angle_gamma 90.000000
_cell_volume 3182.784450
_symmetry_space_group_name_H-M "C M M M"
_symmetry_group_IT_number 65
_symmetry_cell_setting 'orthorhombic'
loop_
_space_group_symop_operation_xyz
x,y,z
-x,-y,z
x,-y,-z
-x,y,-z
-x,-y,-z
x,y,-z
-x,y,z
x,-y,z
1/2+x,1/2+y,z
1/2-x,1/2-y,z
1/2+x,1/2-y,-z
1/2-x,1/2+y,-z
1/2-x,1/2-y,-z
1/2+x,1/2+y,-z
1/2-x,1/2+y,z
1/2+x,1/2-y,z
loop_
_atom_site_type_symbol
_atom_site_label
_atom_site_fract_x
_atom_site_fract_y
_atom_site_fract_z
Si Si1 0.179095 0.633215 0.232826
Si Si2 0.000000 0.436803 0.163511
Si Si3 0.335912 0.600752 0.000000
Si Si4 0.278383 0.313270 0.500000
Si Si5 0.000000 0.000000 0.000000
Si Si6 0.500000 0.307754 0.000000
Si Si7 0.500000 0.785397 0.788082
Si Si8 0.000000 0.772180 0.500000
O O1 0.097190 0.585710 0.244624
O O2 0.262742 0.608821 0.130806
O O3 0.232811 0.657094 0.367126
O O4 0.102557 0.680692 0.180015
O O5 0.000000 0.500000 0.159764
O O6 0.000000 0.419021 0.000000
O O7 0.404767 0.653479 0.000000
O O8 0.408787 0.548183 0.000000
O O9 0.250000 0.250000 0.500000
O O10 0.400715 0.309871 0.500000
O O11 0.500000 0.269033 0.128983
O O12 0.500000 0.767603 0.630012
#
# Coordination Sequence:
#
# PCOD9493109 Si02
#       8
#    16   8   8   8   2   4   8   4
#     4  11  23  39  66  96 129 170 214 263 333 393
#     4  10  22  42  70 101 124 162 213 284 349 394
#     4  11  24  42  64  90 121 176 221 278 321 382
#     4  12  24  42  62  92 138 187 204 256 324 397
#     4  10  28  48  68  88 128 172 242 278 334 386
#     4  11  24  33  54  90 129 160 211 266 310 372
#     4  11  21  36  57  97 132 157 208 258 315 399
#     4  12  22  38  62  82 130 192 214 234 304 406
#
# _framework density 18.223037000000001
#
# number of rings (size 3 to 8) (size 9 to 14) (size 15 to 20)
#    0.000    0.966    4.138    2.483    3.862    3.862 
#    0.000    1.379    0.000    0.828    0.000    0.000 
#    0.000    0.000    0.000    0.000    0.000    0.000 
#
# Total GULP energy -161441.603447 kJ/mol
# GULP energy per Si atom -5566.951843 kJ/mol
# Density = 1.818156 g / cm^3
# Si number density = 18.223037 Si / 1000 Ang^3
#
#
#
# Elastic Constant Matrix: (Units=GPa)
#
#
# Indices 1 2 3 4 5 6 
#
# 1 186.0046 76.6533 57.0034 0.0000 0.0000 0.0000
# 2 76.6533 145.2310 61.9328 0.0000 0.0000 0.0000
# 3 57.0034 61.9328 102.0494 0.0000 0.0000 0.0000
# 4 0.0000 0.0000 0.0000 0.2966 0.0000 0.0000
# 5 0.0000 0.0000 0.0000 0.0000 -4.1579 0.0000
# 6 0.0000 0.0000 0.0000 0.0000 0.0000 26.4188
#
#
#
# Elastic Compliance Matrix: (Units=1/GPa)
#
#
# Indices 1 2 3 4 5 6 
#
# 1 0.007261 -0.002837 -0.002334 0.000000 0.000000 0.000000
# 2 -0.002837 0.010398 -0.004726 0.000000 0.000000 0.000000
# 3 -0.002334 -0.004726 0.013971 0.000000 0.000000 0.000000
# 4 0.000000 0.000000 0.000000 3.371535 0.000000 0.000000
# 5 0.000000 0.000000 0.000000 0.000000 -0.240504 0.000000
# 6 0.000000 0.000000 0.000000 0.000000 0.000000 0.037852
#
#
# Mechanical properties :
#
#
# Convention : Reuss Voigt Hill
#
# Bulk Modulus (GPa) = 84.48626 91.60711 88.04669
# Shear Modulus (GPa) = 1.55075 20.35786 10.95430
#
# Velocity S-wave (km/s) = 0.92349 3.34601 2.45444
# Velocity P-wave (km/s) = 6.89928 8.08126 7.51355
#
# Compressibility (1/GPa) = 0.01183624
#
# Stress axis : x y z
#
# Youngs Moduli (GPa) = 137.73041 96.17031 71.57651
#
# Poissons Ratio (x) = 0.27282 0.16706
# Poissons Ratio (y) = 0.39072 0.33827
# Poissons Ratio (z) = 0.32146 0.45450
#
# Static dielectric constant tensor:
#      x y z
#    x 1.608830 0.000000 0.000000 
#    y 0.000000 1.599010 0.000000 
#    z 0.000000 0.000000 1.575280 
# 
# From -- ./inp_files/4584.got.cif
#   From: 2010.05.17/outbox.cif.g08.bks.cpg/sg65_3_cif.got.tgz:4584.got - 2010.06.03 17:01:31.
