data_PCOD9493768
_publ_section_title
;
Structure prediction by ZEFSAII (Michael W. Deem and Ramdas Pophale) SiO2 
 PCOD9493768
Probable space group: C M M M
;
_chemical_formula_sum "Si O2"
_cell_formula_units_Z 100
_cell_length_a 19.061904
_cell_length_b 28.645710
_cell_length_c 7.781890
_cell_angle_alpha 90.000000
_cell_angle_beta 90.000000
_cell_angle_gamma 90.000000
_cell_volume 4249.237021
_symmetry_space_group_name_H-M "C M M M"
_symmetry_group_IT_number 65
_symmetry_cell_setting 'orthorhombic'
loop_
_space_group_symop_operation_xyz
x,y,z
-x,-y,z
x,-y,-z
-x,y,-z
-x,-y,-z
x,y,-z
-x,y,z
x,-y,z
1/2+x,1/2+y,z
1/2-x,1/2-y,z
1/2+x,1/2-y,-z
1/2-x,1/2+y,-z
1/2-x,1/2-y,-z
1/2+x,1/2+y,-z
1/2-x,1/2+y,z
1/2+x,1/2-y,z
loop_
_atom_site_type_symbol
_atom_site_label
_atom_site_fract_x
_atom_site_fract_y
_atom_site_fract_z
Si Si1 0.629998 0.065910 0.686712
Si Si2 0.420009 0.732579 0.790990
Si Si3 0.415971 0.836778 0.803974
Si Si4 0.274471 0.404685 0.798765
Si Si5 0.921857 0.055019 0.790972
Si Si6 0.723977 0.300379 0.698861
Si Si7 0.593818 0.000000 0.000000
O O1 0.608854 0.048873 0.500000
O O2 0.610027 0.120006 0.698292
O O3 0.714232 0.065026 0.708977
O O4 0.596292 0.039960 0.847821
O O5 0.500000 0.722502 0.740344
O O6 0.399993 0.785252 0.736510
O O7 0.360231 0.700391 0.716867
O O8 0.417731 0.731227 0.000000
O O9 0.500000 0.838449 0.810950
O O10 0.389759 0.840503 0.000000
O O11 0.352846 0.416774 0.734417
O O12 0.256007 0.349773 0.781150
O O13 0.271489 0.417026 0.000000
O O14 0.000000 0.070203 0.731958
O O15 0.913771 0.000000 0.748392
O O16 0.923050 0.058218 0.000000
O O17 0.745178 0.301806 0.500000
O O18 0.750000 0.250000 0.772221
#
# Coordination Sequence:
#
# PCOD9493768 Si02
#       7
#    16  16  16  16  16  16   4
#     4  12  25  42  66  96 127 163 211 259 312 384
#     4   9  19  36  61  90 119 160 211 257 308 372
#     4   9  18  38  66  93 126 166 208 257 311 374
#     4  11  22  37  63  90 125 166 206 259 319 374
#     4   8  16  32  57  88 119 156 202 248 301 368
#     4  11  24  39  55  83 122 162 208 262 316 376
#     4  12  26  48  65  92 127 164 206 260 328 366
#
# _framework density 23.533638
#
# number of rings (size 3 to 8) (size 9 to 14) (size 15 to 20)
#    0.000    1.920    1.600    3.600    1.120    5.760 
#    0.000    4.000    0.000    2.400    0.000    4.480 
#    0.000    0.000    0.000    0.000    0.000    0.000 
#
# Total GULP energy -278945.702368 kJ/mol
# GULP energy per Si atom -5578.914047 kJ/mol
# Density = 2.348007 g / cm^3
# Si number density = 23.533638 Si / 1000 Ang^3
#
#
#
# Elastic Constant Matrix: (Units=GPa)
#
#
# Indices 1 2 3 4 5 6 
#
# 1 45.0749 21.8559 5.8013 0.0000 0.0000 0.0000
# 2 21.8559 48.2477 11.3796 0.0000 0.0000 0.0000
# 3 5.8013 11.3796 105.6696 0.0000 0.0000 0.0000
# 4 0.0000 0.0000 0.0000 179.9983 0.0000 0.0000
# 5 0.0000 0.0000 0.0000 0.0000 237.4413 0.0000
# 6 0.0000 0.0000 0.0000 0.0000 0.0000 -406.8512
#
#
#
# Elastic Compliance Matrix: (Units=1/GPa)
#
#
# Indices 1 2 3 4 5 6 
#
# 1 0.028433 -0.012838 -0.000178 0.000000 0.000000 0.000000
# 2 -0.012838 0.027063 -0.002210 0.000000 0.000000 0.000000
# 3 -0.000178 -0.002210 0.009711 0.000000 0.000000 0.000000
# 4 0.000000 0.000000 0.000000 0.005556 0.000000 0.000000
# 5 0.000000 0.000000 0.000000 0.000000 0.004212 0.000000
# 6 0.000000 0.000000 0.000000 0.000000 0.000000 -0.002458
#
#
# Mechanical properties :
#
#
# Convention : Reuss Voigt Hill
#
# Bulk Modulus (GPa) = 28.77258 30.78509 29.77883
# Shear Modulus (GPa) = 43.64767 12.78138 28.21453
#
# Velocity S-wave (km/s) = 4.31129 2.33300 3.46627
# Velocity P-wave (km/s) = 6.08569 4.51297 5.35736
#
# Compressibility (1/GPa) = 0.03475532
#
# Stress axis : x y z
#
# Youngs Moduli (GPa) = 35.17031 36.95081 102.97371
#
# Poissons Ratio (x) = 0.47437 0.01838
# Poissons Ratio (y) = 0.45151 0.22753
# Poissons Ratio (z) = 0.00628 0.08165
#
# Static dielectric constant tensor:
#      x y z
#    x 1.929100 0.000000 0.000000 
#    y 0.000000 1.864100 0.000000 
#    z 0.000000 0.000000 1.883810 
# 
# From -- ./inp_files/12452.got.cif
#   From: 2010.05.17/outbox.cif.g08.bks.cpg/sg65_7_cif.got.tgz:12452.got - 2010.06.03 17:01:31.
