data_PCOD9493204
_publ_section_title
;
Structure prediction by ZEFSAII (Michael W. Deem and Ramdas Pophale) SiO2 
 PCOD9493204
Probable space group: C M M M
;
_chemical_formula_sum "Si O2"
_cell_formula_units_Z 46
_cell_length_a 12.423342
_cell_length_b 15.838513
_cell_length_c 11.083354
_cell_angle_alpha 90.000000
_cell_angle_beta 90.000000
_cell_angle_gamma 90.000000
_cell_volume 2180.841240
_symmetry_space_group_name_H-M "C M M M"
_symmetry_group_IT_number 65
_symmetry_cell_setting 'orthorhombic'
loop_
_space_group_symop_operation_xyz
x,y,z
-x,-y,z
x,-y,-z
-x,y,-z
-x,-y,-z
x,y,-z
-x,y,z
x,-y,z
1/2+x,1/2+y,z
1/2-x,1/2-y,z
1/2+x,1/2-y,-z
1/2-x,1/2+y,-z
1/2-x,1/2-y,-z
1/2+x,1/2+y,-z
1/2-x,1/2+y,z
1/2+x,1/2-y,z
loop_
_atom_site_type_symbol
_atom_site_label
_atom_site_fract_x
_atom_site_fract_y
_atom_site_fract_z
Si Si1 0.500000 0.900437 0.759715
Si Si2 0.500000 0.210186 0.000000
Si Si3 0.620652 0.500000 0.356473
Si Si4 0.319906 0.352794 0.000000
Si Si5 0.500000 0.500000 0.000000
Si Si6 0.767900 0.651878 0.266292
O O1 0.388025 0.875503 0.697103
O O2 0.500000 0.000000 0.782811
O O3 0.500000 0.847100 0.882352
O O4 0.604872 0.269925 0.000000
O O5 0.500000 0.500000 0.300448
O O6 0.612047 0.500000 0.500000
O O7 0.683590 0.584522 0.319056
O O8 0.405366 0.427682 0.000000
O O9 0.250577 0.356318 0.878089
O O10 0.750000 0.750000 0.298769
#
# Coordination Sequence:
#
# PCOD9493204 Si02
#       6
#     8   4   8   8   2  16
#     4  12  24  41  61 105 140 186 222 269 342 401
#     4  11  21  37  61  98 150 184 227 265 321 427
#     4  11  29  53  75  99 129 179 245 298 339 410
#     4  11  23  38  62 108 144 186 222 270 338 415
#     4  10  24  32  58  90 140 196 226 268 322 376
#     4  12  25  44  73 102 145 184 225 279 348 419
#
# _framework density 21.092777999999999
#
# number of rings (size 3 to 8) (size 9 to 14) (size 15 to 20)
#    0.000    0.522    5.217    2.870    9.739    0.696 
#    0.000    1.739    0.000    0.000    0.000    0.000 
#    0.000    0.000    0.000    0.000    0.000    0.000 
#
# Total GULP energy -128438.258616 kJ/mol
# GULP energy per Si atom -5584.272114 kJ/mol
# Density = 2.104477 g / cm^3
# Si number density = 21.092778 Si / 1000 Ang^3
#
#
#
# Elastic Constant Matrix: (Units=GPa)
#
#
# Indices 1 2 3 4 5 6 
#
# 1 204.1275 90.0230 17.7163 0.0000 0.0000 0.0000
# 2 90.0230 221.0391 24.9431 0.0000 0.0000 0.0000
# 3 17.7163 24.9431 38.1927 0.0000 0.0000 0.0000
# 4 0.0000 0.0000 0.0000 14.5554 0.0000 0.0000
# 5 0.0000 0.0000 0.0000 0.0000 14.7843 0.0000
# 6 0.0000 0.0000 0.0000 0.0000 0.0000 48.1650
#
#
#
# Elastic Compliance Matrix: (Units=1/GPa)
#
#
# Indices 1 2 3 4 5 6 
#
# 1 0.006030 -0.002310 -0.001288 0.000000 0.000000 0.000000
# 2 -0.002310 0.005769 -0.002696 0.000000 0.000000 0.000000
# 3 -0.001288 -0.002696 0.028541 0.000000 0.000000 0.000000
# 4 0.000000 0.000000 0.000000 0.068703 0.000000 0.000000
# 5 0.000000 0.000000 0.000000 0.000000 0.067639 0.000000
# 6 0.000000 0.000000 0.000000 0.000000 0.000000 0.020762
#
#
# Mechanical properties :
#
#
# Convention : Reuss Voigt Hill
#
# Bulk Modulus (GPa) = 36.03468 80.96935 58.50201
# Shear Modulus (GPa) = 22.80150 37.54607 30.17379
#
# Velocity S-wave (km/s) = 3.29144 4.22363 3.78633
# Velocity P-wave (km/s) = 5.61834 7.89025 6.84915
#
# Compressibility (1/GPa) = 0.02775105
#
# Stress axis : x y z
#
# Youngs Moduli (GPa) = 165.84919 173.33243 35.03696
#
# Poissons Ratio (x) = 0.40045 0.04513
# Poissons Ratio (y) = 0.38316 0.09446
# Poissons Ratio (z) = 0.21363 0.46733
#
# Static dielectric constant tensor:
#      x y z
#    x 1.815440 0.000000 0.000000 
#    y 0.000000 1.721200 0.000000 
#    z 0.000000 0.000000 1.800350 
# 
# From -- ./inp_files/21650.got.cif
#   From: 2010.05.17/outbox.cif.g08.bks.cpg/sg65_11_cif.got.tgz:21650.got - 2010.06.03 17:01:31.
