data_PCOD9493621
_publ_section_title
;
Structure prediction by ZEFSAII (Michael W. Deem and Ramdas Pophale) SiO2 
 PCOD9493621
Probable space group: C M M M
;
_chemical_formula_sum "Si O2"
_cell_formula_units_Z 112
_cell_length_a 14.964840
_cell_length_b 26.399691
_cell_length_c 14.290137
_cell_angle_alpha 90.000000
_cell_angle_beta 90.000000
_cell_angle_gamma 90.000000
_cell_volume 5645.563724
_symmetry_space_group_name_H-M "C M M M"
_symmetry_group_IT_number 65
_symmetry_cell_setting 'orthorhombic'
loop_
_space_group_symop_operation_xyz
x,y,z
-x,-y,z
x,-y,-z
-x,y,-z
-x,-y,-z
x,y,-z
-x,y,z
x,-y,z
1/2+x,1/2+y,z
1/2-x,1/2-y,z
1/2+x,1/2-y,-z
1/2-x,1/2+y,-z
1/2-x,1/2-y,-z
1/2+x,1/2+y,-z
1/2-x,1/2+y,z
1/2+x,1/2-y,z
loop_
_atom_site_type_symbol
_atom_site_label
_atom_site_fract_x
_atom_site_fract_y
_atom_site_fract_z
Si Si1 0.710701 0.637509 0.609792
Si Si2 0.098254 0.348494 0.687445
Si Si3 0.365138 0.147457 0.104511
Si Si4 0.351003 0.367769 0.106528
Si Si5 0.103071 0.762631 0.610431
Si Si6 0.347519 0.738769 0.889399
Si Si7 0.894975 0.058187 0.732063
O O1 0.697452 0.634379 0.500000
O O2 0.814390 0.632265 0.635306
O O3 0.671044 0.692818 0.637202
O O4 0.657096 0.593435 0.660203
O O5 0.101676 0.369535 0.793875
O O6 0.108193 0.287106 0.675469
O O7 0.000000 0.360140 0.647768
O O8 0.257170 0.140243 0.107860
O O9 0.392532 0.206889 0.108771
O O10 0.392190 0.128793 0.000000
O O11 0.387815 0.313758 0.145757
O O12 0.378263 0.414581 0.169014
O O13 0.379861 0.375873 0.000000
O O14 0.119891 0.748337 0.500000
O O15 0.000000 0.781052 0.614796
O O16 0.250000 0.750000 0.846840
O O17 0.332957 0.726573 0.000000
O O18 0.000000 0.059174 0.711361
O O19 0.864697 0.000000 0.732045
#
# Coordination Sequence:
#
# PCOD9493621 Si02
#       7
#    16  16  16  16  16  16  16
#     4  11  23  41  63  83 112 156 198 242 299 354
#     4  11  22  34  56  91 125 157 193 235 282 342
#     4   9  17  31  52  82 121 161 197 230 271 330
#     4   9  17  33  57  83 115 157 196 233 282 341
#     4   9  19  35  56  86 120 154 196 241 284 341
#     4   7  12  23  44  75 109 148 192 230 262 310
#     4  11  25  42  61  88 117 146 191 248 300 354
#
# _framework density 19.838585999999999
#
# number of rings (size 3 to 8) (size 9 to 14) (size 15 to 20)
#    0.000    2.429    1.429    3.000    2.000    5.143 
#    0.000    1.429    0.000    3.000    0.000    1.000 
#    0.000    2.286    0.000    0.000    0.000    0.000 
#
# Total GULP energy -312134.938346 kJ/mol
# GULP energy per Si atom -5573.838185 kJ/mol
# Density = 1.979343 g / cm^3
# Si number density = 19.838586 Si / 1000 Ang^3
#
#
#
# Elastic Constant Matrix: (Units=GPa)
#
#
# Indices 1 2 3 4 5 6 
#
# 1 86.2612 24.8927 13.6745 0.0000 0.0000 0.0000
# 2 24.8927 66.2740 24.9336 0.0000 0.0000 0.0000
# 3 13.6745 24.9336 84.8734 0.0000 0.0000 0.0000
# 4 0.0000 0.0000 0.0000 -50.5490 0.0000 0.0000
# 5 0.0000 0.0000 0.0000 0.0000 5.2618 0.0000
# 6 0.0000 0.0000 0.0000 0.0000 0.0000 20.2134
#
#
#
# Elastic Compliance Matrix: (Units=1/GPa)
#
#
# Indices 1 2 3 4 5 6 
#
# 1 0.013044 -0.004619 -0.000745 0.000000 0.000000 0.000000
# 2 -0.004619 0.018600 -0.004720 0.000000 0.000000 0.000000
# 3 -0.000745 -0.004720 0.013289 0.000000 0.000000 0.000000
# 4 0.000000 0.000000 0.000000 -0.019783 0.000000 0.000000
# 5 0.000000 0.000000 0.000000 0.000000 0.190049 0.000000
# 6 0.000000 0.000000 0.000000 0.000000 0.000000 0.049472
#
#
# Mechanical properties :
#
#
# Convention : Reuss Voigt Hill
#
# Bulk Modulus (GPa) = 40.37968 40.49001 40.43485
# Shear Modulus (GPa) = 17.05946 6.57908 11.81927
#
# Velocity S-wave (km/s) = 2.93561 1.82305 2.44349
# Velocity P-wave (km/s) = 5.64701 4.98852 5.32795
#
# Compressibility (1/GPa) = 0.02476493
#
# Stress axis : x y z
#
# Youngs Moduli (GPa) = 76.66545 53.76484 75.25149
#
# Poissons Ratio (x) = 0.24835 0.05603
# Poissons Ratio (y) = 0.35413 0.35517
# Poissons Ratio (z) = 0.05708 0.25376
#
# Static dielectric constant tensor:
#      x y z
#    x 1.758550 0.000000 0.000000 
#    y 0.000000 1.688840 0.000000 
#    z 0.000000 0.000000 1.751090 
# 
# From -- ./inp_files/40841.got.cif
#   From: 2010.05.17/outbox.cif.g08.bks.cpg/sg65_21_cif.got.tgz:40841.got - 2010.06.03 17:01:31.
