data_PCOD9493401
_publ_section_title
;
Structure prediction by ZEFSAII (Michael W. Deem and Ramdas Pophale) SiO2 
 PCOD9493401
Probable space group: C M M M
;
_chemical_formula_sum "Si O2"
_cell_formula_units_Z 80
_cell_length_a 8.878954
_cell_length_b 15.036201
_cell_length_c 27.805534
_cell_angle_alpha 90.000000
_cell_angle_beta 90.000000
_cell_angle_gamma 90.000000
_cell_volume 3712.198310
_symmetry_space_group_name_H-M "C M M M"
_symmetry_group_IT_number 65
_symmetry_cell_setting 'orthorhombic'
loop_
_space_group_symop_operation_xyz
x,y,z
-x,-y,z
x,-y,-z
-x,y,-z
-x,-y,-z
x,y,-z
-x,y,z
x,-y,z
1/2+x,1/2+y,z
1/2-x,1/2-y,z
1/2+x,1/2-y,-z
1/2-x,1/2+y,-z
1/2-x,1/2-y,-z
1/2+x,1/2+y,-z
1/2-x,1/2+y,z
1/2+x,1/2-y,z
loop_
_atom_site_type_symbol
_atom_site_label
_atom_site_fract_x
_atom_site_fract_y
_atom_site_fract_z
Si Si1 0.678462 0.152086 0.148126
Si Si2 0.322075 0.891974 0.447755
Si Si3 0.180470 0.150214 0.052763
Si Si4 0.830020 0.105461 0.246146
Si Si5 0.180723 0.894860 0.349840
O O1 0.500000 0.154211 0.143190
O O2 0.750000 0.250000 0.148458
O O3 0.749613 0.107259 0.100541
O O4 0.727274 0.115850 0.199755
O O5 0.263506 0.860796 0.500000
O O6 0.500000 0.873877 0.445430
O O7 0.245530 0.857103 0.399313
O O8 0.304829 0.000000 0.448190
O O9 0.250000 0.250000 0.050892
O O10 0.000000 0.155592 0.058078
O O11 0.212564 0.109954 0.000000
O O12 0.770208 0.141014 0.297451
O O13 0.000000 0.141321 0.236679
O O14 0.845803 0.000000 0.253435
O O15 0.000000 0.888490 0.350402
O O16 0.221387 0.000000 0.350771
#
# Coordination Sequence:
#
# PCOD9493401 Si02
#       5
#    16  16  16  16  16
#     4  11  21  32  49  72  98 125 155 192 231 272
#     4   8  13  20  30  47  74 107 140 176 219 263
#     4   9  16  27  45  68  93 120 150 185 227 273
#     4   9  18  33  50  67  92 125 158 193 234 279
#     4   8  14  24  38  56  78 108 145 182 221 266
#
# _framework density 21.550573
#
# number of rings (size 3 to 8) (size 9 to 14) (size 15 to 20)
#    0.000    3.000    0.000    5.400    0.000    2.800 
#    0.000    4.000    0.000    0.600    0.000    4.200 
#    0.000    0.800    0.000    2.600    0.000    5.800 
#
# Total GULP energy -222845.621156 kJ/mol
# GULP energy per Si atom -5571.140529 kJ/mol
# Density = 2.150152 g / cm^3
# Si number density = 21.550573 Si / 1000 Ang^3
#
#
#
# Elastic Constant Matrix: (Units=GPa)
#
#
# Indices 1 2 3 4 5 6 
#
# 1 80.9642 6.6473 86.1903 0.0000 0.0000 0.0000
# 2 6.6473 40.4483 16.7982 0.0000 0.0000 0.0000
# 3 86.1903 16.7982 272.7649 0.0000 0.0000 0.0000
# 4 0.0000 0.0000 0.0000 9.2184 0.0000 0.0000
# 5 0.0000 0.0000 0.0000 0.0000 -118.5562 0.0000
# 6 0.0000 0.0000 0.0000 0.0000 0.0000 5.7935
#
#
#
# Elastic Compliance Matrix: (Units=1/GPa)
#
#
# Indices 1 2 3 4 5 6 
#
# 1 0.018628 -0.000633 -0.005847 0.000000 0.000000 0.000000
# 2 -0.000633 0.025393 -0.001364 0.000000 0.000000 0.000000
# 3 -0.005847 -0.001364 0.005598 0.000000 0.000000 0.000000
# 4 0.000000 0.000000 0.000000 0.108478 0.000000 0.000000
# 5 0.000000 0.000000 0.000000 0.000000 -0.008435 0.000000
# 6 0.000000 0.000000 0.000000 0.000000 0.000000 0.172606
#
#
# Mechanical properties :
#
#
# Convention : Reuss Voigt Hill
#
# Bulk Modulus (GPa) = 29.47164 68.16099 48.81631
# Shear Modulus (GPa) = 14.31572 -1.73941 6.28815
#
# Velocity S-wave (km/s) = 2.58017 -0.89938 1.71003
# Velocity P-wave (km/s) = 4.75201 5.53340 5.15753
#
# Compressibility (1/GPa) = 0.03393092
#
# Stress axis : x y z
#
# Youngs Moduli (GPa) = 53.68368 39.38041 178.64259
#
# Poissons Ratio (x) = 0.02493 1.04454
# Poissons Ratio (y) = 0.03398 0.24364
# Poissons Ratio (z) = 0.31389 0.05371
#
# Static dielectric constant tensor:
#      x y z
#    x 1.729310 0.000000 0.000000 
#    y 0.000000 1.922200 0.000000 
#    z 0.000000 0.000000 1.896320 
# 
# From -- ./inp_files/72779.got.cif
#   From: 2010.05.17/outbox.cif.g08.bks.cpg/sg65_37_cif.got.tgz:72779.got - 2010.06.03 17:01:31.
