data_PCOD9493142
_publ_section_title
;
Structure prediction by ZEFSAII (Michael W. Deem and Ramdas Pophale) SiO2 
 PCOD9493142
Probable space group: C M M M
;
_chemical_formula_sum "Si O2"
_cell_formula_units_Z 72
_cell_length_a 10.826157
_cell_length_b 14.206528
_cell_length_c 24.189239
_cell_angle_alpha 90.000000
_cell_angle_beta 90.000000
_cell_angle_gamma 90.000000
_cell_volume 3720.355817
_symmetry_space_group_name_H-M "C M M M"
_symmetry_group_IT_number 65
_symmetry_cell_setting 'orthorhombic'
loop_
_space_group_symop_operation_xyz
x,y,z
-x,-y,z
x,-y,-z
-x,y,-z
-x,-y,-z
x,y,-z
-x,y,z
x,-y,z
1/2+x,1/2+y,z
1/2-x,1/2-y,z
1/2+x,1/2-y,-z
1/2-x,1/2+y,-z
1/2-x,1/2-y,-z
1/2+x,1/2+y,-z
1/2-x,1/2+y,z
1/2+x,1/2-y,z
loop_
_atom_site_type_symbol
_atom_site_label
_atom_site_fract_x
_atom_site_fract_y
_atom_site_fract_z
Si Si1 0.139698 0.675353 0.439754
Si Si2 0.352286 0.106265 0.938060
Si Si3 0.134920 0.609606 0.317325
Si Si4 0.250000 0.250000 0.850018
Si Si5 0.358848 0.612336 0.760968
O O1 0.148400 0.626075 0.500000
O O2 0.250000 0.750000 0.438418
O O3 0.150639 0.618121 0.383250
O O4 0.000000 0.717120 0.438107
O O5 0.500000 0.102076 0.940783
O O6 0.319221 0.178604 0.890617
O O7 0.307123 0.000000 0.925921
O O8 0.307415 0.132304 0.000000
O O9 0.125877 0.500000 0.303668
O O10 0.256172 0.640752 0.284533
O O11 0.000000 0.653035 0.302607
O O12 0.334288 0.316989 0.811655
O O13 0.500000 0.621528 0.741295
O O14 0.342127 0.500000 0.774912
#
# Coordination Sequence:
#
# PCOD9493142 Si02
#       5
#    16  16  16   8  16
#     4   9  18  32  51  77 106 136 173 221 275 332
#     4   9  19  36  57  83 115 147 181 226 277 327
#     4   9  19  36  56  77 103 139 183 229 278 333
#     4  12  21  34  58  86 109 146 194 234 270 330
#     4  10  23  40  55  78 115 153 189 235 287 336
#
# _framework density 19.352986999999999
#
# number of rings (size 3 to 8) (size 9 to 14) (size 15 to 20)
#    0.000    2.444    0.000    2.333    1.556    3.111 
#    0.000    4.444    0.000    0.000    0.000   15.556 
#    0.000    0.000    0.000    0.000    0.000    0.000 
#
# Total GULP energy -200407.173605 kJ/mol
# GULP energy per Si atom -5566.865933 kJ/mol
# Density = 1.930894 g / cm^3
# Si number density = 19.352987 Si / 1000 Ang^3
#
#
#
# Elastic Constant Matrix: (Units=GPa)
#
#
# Indices 1 2 3 4 5 6 
#
# 1 126.7916 44.5223 73.1825 0.0000 0.0000 0.0000
# 2 44.5223 83.9298 46.4016 0.0000 0.0000 0.0000
# 3 73.1825 46.4016 124.1813 0.0000 0.0000 0.0000
# 4 0.0000 0.0000 0.0000 31.3408 0.0000 0.0000
# 5 0.0000 0.0000 0.0000 0.0000 48.9028 0.0000
# 6 0.0000 0.0000 0.0000 0.0000 0.0000 7.9943
#
#
#
# Elastic Compliance Matrix: (Units=1/GPa)
#
#
# Indices 1 2 3 4 5 6 
#
# 1 0.012621 -0.003256 -0.006221 0.000000 0.000000 0.000000
# 2 -0.003256 0.015857 -0.004006 0.000000 0.000000 0.000000
# 3 -0.006221 -0.004006 0.013216 0.000000 0.000000 0.000000
# 4 0.000000 0.000000 0.000000 0.031907 0.000000 0.000000
# 5 0.000000 0.000000 0.000000 0.000000 0.020449 0.000000
# 6 0.000000 0.000000 0.000000 0.000000 0.000000 0.125090
#
#
# Mechanical properties :
#
#
# Convention : Reuss Voigt Hill
#
# Bulk Modulus (GPa) = 67.90166 73.67952 70.79059
# Shear Modulus (GPa) = 19.91910 29.03399 24.47654
#
# Velocity S-wave (km/s) = 3.21168 3.87749 3.56018
# Velocity P-wave (km/s) = 6.99394 7.62893 7.31833
#
# Compressibility (1/GPa) = 0.01472718
#
# Stress axis : x y z
#
# Youngs Moduli (GPa) = 79.23296 63.06480 75.66490
#
# Poissons Ratio (x) = 0.20531 0.47074
# Poissons Ratio (y) = 0.25794 0.30315
# Poissons Ratio (z) = 0.49294 0.25267
#
# Static dielectric constant tensor:
#      x y z
#    x 1.693030 0.000000 0.000000 
#    y 0.000000 1.693810 0.000000 
#    z 0.000000 0.000000 1.689230 
# 
# From -- ./inp_files/72497.got.cif
#   From: 2010.05.17/outbox.cif.g08.bks.cpg/sg65_37_cif.got.tgz:72497.got - 2010.06.03 17:01:31.
