data_PCOD9493253
_publ_section_title
;
Structure prediction by ZEFSAII (Michael W. Deem and Ramdas Pophale) SiO2 
 PCOD9493253
Probable space group: C M M M
;
_chemical_formula_sum "Si O2"
_cell_formula_units_Z 84
_cell_length_a 25.272541
_cell_length_b 14.062759
_cell_length_c 12.279669
_cell_angle_alpha 90.000000
_cell_angle_beta 90.000000
_cell_angle_gamma 90.000000
_cell_volume 4364.214666
_symmetry_space_group_name_H-M "C M M M"
_symmetry_group_IT_number 65
_symmetry_cell_setting 'orthorhombic'
loop_
_space_group_symop_operation_xyz
x,y,z
-x,-y,z
x,-y,-z
-x,y,-z
-x,-y,-z
x,y,-z
-x,y,z
x,-y,z
1/2+x,1/2+y,z
1/2-x,1/2-y,z
1/2+x,1/2-y,-z
1/2-x,1/2+y,-z
1/2-x,1/2-y,-z
1/2+x,1/2+y,-z
1/2-x,1/2+y,z
1/2+x,1/2-y,z
loop_
_atom_site_type_symbol
_atom_site_label
_atom_site_fract_x
_atom_site_fract_y
_atom_site_fract_z
Si Si1 0.263015 0.138729 0.500000
Si Si2 0.500000 0.777050 0.500000
Si Si3 0.642260 0.605347 0.500000
Si Si4 0.177545 0.609641 0.275987
Si Si5 0.409696 0.736744 0.320252
Si Si6 0.772988 0.884852 0.875303
Si Si7 0.604114 0.613638 0.871473
O O1 0.250000 0.250000 0.500000
O O2 0.204954 0.095642 0.500000
O O3 0.296395 0.111629 0.604975
O O4 0.454175 0.772058 0.403530
O O5 0.617564 0.500000 0.500000
O O6 0.624834 0.663850 0.605968
O O7 0.164994 0.500000 0.246710
O O8 0.126606 0.676365 0.279988
O O9 0.224448 0.648092 0.198332
O O10 0.427858 0.676355 0.214870
O O11 0.833833 0.860797 0.849255
O O12 0.772106 0.000000 0.867756
O O13 0.763224 0.858609 0.000000
O O14 0.597540 0.500000 0.853999
O O15 0.593919 0.631515 0.000000
#
# Coordination Sequence:
#
# PCOD9493253 Si02
#       7
#     8   4   8  16  16  16  16
#     4  12  20  33  47  77 115 149 185 219 274 338
#     4  10  26  46  60  76 102 140 188 268 312 350
#     4  11  21  33  53  78 108 145 179 222 275 341
#     4  11  22  35  55  82 116 150 188 236 277 332
#     4  11  22  40  58  77 106 141 194 239 299 346
#     4   8  16  31  52  85 126 158 181 208 252 321
#     4   9  18  34  58  89 124 158 186 216 264 338
#
# _framework density 19.247451000000002
#
# number of rings (size 3 to 8) (size 9 to 14) (size 15 to 20)
#    0.000    1.905    1.905    4.286    0.000    2.286 
#    0.000   11.905    0.000    1.143    0.000    0.000 
#    0.000    4.571    0.000    0.000    0.000    0.000 
#
# Total GULP energy -233907.216214 kJ/mol
# GULP energy per Si atom -5569.219434 kJ/mol
# Density = 1.920364 g / cm^3
# Si number density = 19.247451 Si / 1000 Ang^3
#
#
#
# Elastic Constant Matrix: (Units=GPa)
#
#
# Indices 1 2 3 4 5 6 
#
# 1 37.7047 3.8605 15.8854 0.0000 0.0000 0.0000
# 2 3.8605 89.8390 5.7518 0.0000 0.0000 0.0000
# 3 15.8854 5.7518 96.8679 0.0000 0.0000 0.0000
# 4 0.0000 0.0000 0.0000 -92.4653 0.0000 0.0000
# 5 0.0000 0.0000 0.0000 0.0000 60.4674 0.0000
# 6 0.0000 0.0000 0.0000 0.0000 0.0000 -4.9660
#
#
#
# Elastic Compliance Matrix: (Units=1/GPa)
#
#
# Indices 1 2 3 4 5 6 
#
# 1 0.028568 -0.000931 -0.004630 0.000000 0.000000 0.000000
# 2 -0.000931 0.011204 -0.000513 0.000000 0.000000 0.000000
# 3 -0.004630 -0.000513 0.011113 0.000000 0.000000 0.000000
# 4 0.000000 0.000000 0.000000 -0.010815 0.000000 0.000000
# 5 0.000000 0.000000 0.000000 0.000000 0.016538 0.000000
# 6 0.000000 0.000000 0.000000 0.000000 0.000000 -0.201369
#
#
# Mechanical properties :
#
#
# Convention : Reuss Voigt Hill
#
# Bulk Modulus (GPa) = 25.81449 30.60080 28.20764
# Shear Modulus (GPa) = -41.77045 5.86813 -17.95116
#
# Velocity S-wave (km/s) = -4.66357 1.74797 -3.05725
# Velocity P-wave (km/s) = 3.94431 4.47292 1.49155
#
# Compressibility (1/GPa) = 0.03873794
#
# Stress axis : x y z
#
# Youngs Moduli (GPa) = 35.00454 89.25503 89.98488
#
# Poissons Ratio (x) = 0.08311 0.41659
# Poissons Ratio (y) = 0.03260 0.04612
# Poissons Ratio (z) = 0.16206 0.04575
#
# Static dielectric constant tensor:
#      x y z
#    x 1.645860 0.000000 0.000000 
#    y 0.000000 1.732190 0.000000 
#    z 0.000000 0.000000 1.676420 
# 
# From -- ./inp_files/30590.got.cif
#   From: 2010.05.17/outbox.cif.g08.bks.cpg/sg65_16_cif.got.tgz:30590.got - 2010.06.03 17:01:31.
