data_PCOD9493223
_publ_section_title
;
Structure prediction by ZEFSAII (Michael W. Deem and Ramdas Pophale) SiO2 
 PCOD9493223
Probable space group: C M M M
;
_chemical_formula_sum "Si O2"
_cell_formula_units_Z 72
_cell_length_a 8.891770
_cell_length_b 15.784368
_cell_length_c 26.960622
_cell_angle_alpha 90.000000
_cell_angle_beta 90.000000
_cell_angle_gamma 90.000000
_cell_volume 3783.949445
_symmetry_space_group_name_H-M "C M M M"
_symmetry_group_IT_number 65
_symmetry_cell_setting 'orthorhombic'
loop_
_space_group_symop_operation_xyz
x,y,z
-x,-y,z
x,-y,-z
-x,y,-z
-x,-y,-z
x,y,-z
-x,y,z
x,-y,z
1/2+x,1/2+y,z
1/2-x,1/2-y,z
1/2+x,1/2-y,-z
1/2-x,1/2+y,-z
1/2-x,1/2-y,-z
1/2+x,1/2+y,-z
1/2-x,1/2+y,z
1/2+x,1/2-y,z
loop_
_atom_site_type_symbol
_atom_site_label
_atom_site_fract_x
_atom_site_fract_y
_atom_site_fract_z
Si Si1 0.179450 0.837617 0.656113
Si Si2 0.319291 0.000000 0.170878
Si Si3 0.680703 0.839093 0.103268
Si Si4 0.678557 0.898160 0.555710
Si Si5 0.181528 0.000000 0.279651
Si Si6 0.321759 0.398175 0.000000
O O1 0.250000 0.750000 0.673917
O O2 0.233174 0.854835 0.600023
O O3 0.228885 0.916808 0.689749
O O4 0.000000 0.832526 0.657296
O O5 0.277497 0.916412 0.139592
O O6 0.500000 0.000000 0.175895
O O7 0.246022 0.000000 0.224666
O O8 0.500000 0.833652 0.100853
O O9 0.750000 0.750000 0.120000
O O10 0.745837 0.860580 0.049049
O O11 0.724621 0.872309 0.500000
O O12 0.500000 0.881690 0.560962
O O13 0.699225 0.000000 0.559245
O O14 0.000000 0.000000 0.277628
O O15 0.301899 0.500000 0.000000
O O16 0.500000 0.379729 0.000000
#
# Coordination Sequence:
#
# PCOD9493223 Si02
#       6
#    16   8  16  16   8   8
#     4  11  23  40  61  89 119 155 199 244 297 356
#     4  10  24  43  65  89 118 158 202 248 304 359
#     4  11  23  41  63  92 127 163 203 248 298 354
#     4   9  18  34  58  88 120 155 194 238 292 353
#     4  10  24  44  64  86 118 153 197 253 304 353
#     4  11  22  37  62  94 126 166 208 245 295 355
#
# _framework density 19.027739
#
# number of rings (size 3 to 8) (size 9 to 14) (size 15 to 20)
#    0.000    1.667    2.222    2.667    0.000    5.778 
#    0.000    5.556    0.000    0.000    0.000    0.000 
#    0.000    0.000    0.000    0.000    0.000    0.000 
#
# Total GULP energy -201244.517435 kJ/mol
# GULP energy per Si atom -5590.125484 kJ/mol
# Density = 1.898443 g / cm^3
# Si number density = 19.027739 Si / 1000 Ang^3
#
#
#
# Elastic Constant Matrix: (Units=GPa)
#
#
# Indices 1 2 3 4 5 6 
#
# 1 52.3850 61.1756 44.3397 0.0000 0.0000 0.0000
# 2 61.1756 171.5638 88.9148 0.0000 0.0000 0.0000
# 3 44.3397 88.9148 142.2550 0.0000 0.0000 0.0000
# 4 0.0000 0.0000 0.0000 -4.1955 0.0000 0.0000
# 5 0.0000 0.0000 0.0000 0.0000 37.6416 0.0000
# 6 0.0000 0.0000 0.0000 0.0000 0.0000 31.6237
#
#
#
# Elastic Compliance Matrix: (Units=1/GPa)
#
#
# Indices 1 2 3 4 5 6 
#
# 1 0.034589 -0.009978 -0.004544 0.000000 0.000000 0.000000
# 2 -0.009978 0.011500 -0.004078 0.000000 0.000000 0.000000
# 3 -0.004544 -0.004078 0.010995 0.000000 0.000000 0.000000
# 4 0.000000 0.000000 0.000000 -0.238349 0.000000 0.000000
# 5 0.000000 0.000000 0.000000 0.000000 0.026566 0.000000
# 6 0.000000 0.000000 0.000000 0.000000 0.000000 0.031622
#
#
# Mechanical properties :
#
#
# Convention : Reuss Voigt Hill
#
# Bulk Modulus (GPa) = 50.29472 83.89599 67.09536
# Shear Modulus (GPa) = -63.09224 24.46553 -19.31336
#
# Velocity S-wave (km/s) = -5.76455 3.58967 -3.18938
# Velocity P-wave (km/s) = 4.22102 7.83378 4.66643
#
# Compressibility (1/GPa) = 0.01988280
#
# Stress axis : x y z
#
# Youngs Moduli (GPa) = 28.91131 86.95496 90.95208
#
# Poissons Ratio (x) = 0.86767 0.41329
# Poissons Ratio (y) = 0.28849 0.37089
# Poissons Ratio (z) = 0.13137 0.35459
#
# Static dielectric constant tensor:
#      x y z
#    x 1.633520 0.000000 0.000000 
#    y 0.000000 1.675210 0.000000 
#    z 0.000000 0.000000 1.621030 
# 
# From -- ./inp_files/72569.got.cif
#   From: 2010.05.17/outbox.cif.g08.bks.cpg/sg65_37_cif.got.tgz:72569.got - 2010.06.03 17:01:31.
