data_PCOD9493087
_publ_section_title
;
Structure prediction by ZEFSAII (Michael W. Deem and Ramdas Pophale) SiO2 
 PCOD9493087
Probable space group: C M M M
;
_chemical_formula_sum "Si O2"
_cell_formula_units_Z 88
_cell_length_a 22.327166
_cell_length_b 22.873937
_cell_length_c 8.512589
_cell_angle_alpha 90.000000
_cell_angle_beta 90.000000
_cell_angle_gamma 90.000000
_cell_volume 4347.465933
_symmetry_space_group_name_H-M "C M M M"
_symmetry_group_IT_number 65
_symmetry_cell_setting 'orthorhombic'
loop_
_space_group_symop_operation_xyz
x,y,z
-x,-y,z
x,-y,-z
-x,y,-z
-x,-y,-z
x,y,-z
-x,y,z
x,-y,z
1/2+x,1/2+y,z
1/2-x,1/2-y,z
1/2+x,1/2-y,-z
1/2-x,1/2+y,-z
1/2-x,1/2-y,-z
1/2+x,1/2+y,-z
1/2-x,1/2+y,z
1/2+x,1/2-y,z
loop_
_atom_site_type_symbol
_atom_site_label
_atom_site_fract_x
_atom_site_fract_y
_atom_site_fract_z
Si Si1 0.500000 0.569131 0.678767
Si Si2 0.567784 0.069616 0.174601
Si Si3 0.238265 0.932109 0.689277
Si Si4 0.117448 0.124688 0.813337
Si Si5 0.070124 0.251631 0.189103
Si Si6 0.654240 0.146785 0.677641
O O1 0.500000 0.500000 0.667955
O O2 0.500000 0.593196 0.500000
O O3 0.558246 0.589173 0.771045
O O4 0.500000 0.091728 0.188213
O O5 0.608055 0.093121 0.312180
O O6 0.566369 0.000000 0.176140
O O7 0.590092 0.087637 0.000000
O O8 0.244626 0.933885 0.500000
O O9 0.173513 0.906795 0.732830
O O10 0.286320 0.883611 0.748179
O O11 0.246492 0.000000 0.744778
O O12 0.100814 0.190590 0.760619
O O13 0.127918 0.125668 0.000000
O O14 0.115903 0.302471 0.239888
O O15 0.000000 0.256691 0.244497
O O16 0.066866 0.251329 0.000000
O O17 0.667100 0.165476 0.500000
#
# Coordination Sequence:
#
# PCOD9493087 Si02
#       6
#     8  16  16  16  16  16
#     4  11  23  39  63  95 129 163 196 241 310 375
#     4   9  18  33  53  78 110 150 197 250 309 367
#     4  10  23  43  62  85 124 166 201 247 311 372
#     4  11  23  41  65  93 122 157 206 257 302 357
#     4  10  22  42  63  86 123 163 200 250 311 365
#     4  11  23  37  57  86 119 159 206 252 299 357
#
# _framework density 20.241676999999999
#
# number of rings (size 3 to 8) (size 9 to 14) (size 15 to 20)
#    0.000    1.727    0.909    3.545    0.000   10.909 
#    0.000    4.545    0.000    0.000    0.000    0.000 
#    0.000    0.000    0.000    0.000    0.000    0.000 
#
# Total GULP energy -245341.099573 kJ/mol
# GULP energy per Si atom -5575.934081 kJ/mol
# Density = 2.019561 g / cm^3
# Si number density = 20.241677 Si / 1000 Ang^3
#
#
#
# Elastic Constant Matrix: (Units=GPa)
#
#
# Indices 1 2 3 4 5 6 
#
# 1 114.6234 54.4374 3.1215 0.0000 0.0000 0.0000
# 2 54.4374 113.2303 8.2814 0.0000 0.0000 0.0000
# 3 3.1215 8.2814 5.4372 0.0000 0.0000 0.0000
# 4 0.0000 0.0000 0.0000 -12.9326 0.0000 0.0000
# 5 0.0000 0.0000 0.0000 0.0000 51.9008 0.0000
# 6 0.0000 0.0000 0.0000 0.0000 0.0000 29.7151
#
#
#
# Elastic Compliance Matrix: (Units=1/GPa)
#
#
# Indices 1 2 3 4 5 6 
#
# 1 0.011325 -0.005592 0.002016 0.000000 0.000000 0.000000
# 2 -0.005592 0.012700 -0.016133 0.000000 0.000000 0.000000
# 3 0.002016 -0.016133 0.207332 0.000000 0.000000 0.000000
# 4 0.000000 0.000000 0.000000 -0.077324 0.000000 0.000000
# 5 0.000000 0.000000 0.000000 0.000000 0.019268 0.000000
# 6 0.000000 0.000000 0.000000 0.000000 0.000000 0.033653
#
#
# Mechanical properties :
#
#
# Convention : Reuss Voigt Hill
#
# Bulk Modulus (GPa) = 5.21001 40.55237 22.88119
# Shear Modulus (GPa) = 16.11075 24.90002 20.50538
#
# Velocity S-wave (km/s) = 2.82427 3.51113 3.18626
# Velocity P-wave (km/s) = 3.63522 6.04277 4.98647
#
# Compressibility (1/GPa) = 0.19193828
#
# Stress axis : x y z
#
# Youngs Moduli (GPa) = 88.29861 78.74004 4.82319
#
# Poissons Ratio (x) = 0.44033 -0.00972
# Poissons Ratio (y) = 0.49378 0.07781
# Poissons Ratio (z) = -0.17798 1.27029
#
# Static dielectric constant tensor:
#      x y z
#    x 1.702320 0.000000 0.000000 
#    y 0.000000 1.755720 0.000000 
#    z 0.000000 0.000000 1.752320 
# 
# From -- ./inp_files/11831.got.cif
#   From: 2010.05.17/outbox.cif.g08.bks.cpg/sg65_6_cif.got.tgz:11831.got - 2010.06.03 17:01:31.
