data_PCOD9493426
_publ_section_title
;
Structure prediction by ZEFSAII (Michael W. Deem and Ramdas Pophale) SiO2 
 PCOD9493426
Probable space group: C M M M
;
_chemical_formula_sum "Si O2"
_cell_formula_units_Z 104
_cell_length_a 9.279474
_cell_length_b 29.228927
_cell_length_c 24.839667
_cell_angle_alpha 90.000000
_cell_angle_beta 90.000000
_cell_angle_gamma 90.000000
_cell_volume 6737.239733
_symmetry_space_group_name_H-M "C M M M"
_symmetry_group_IT_number 65
_symmetry_cell_setting 'orthorhombic'
loop_
_space_group_symop_operation_xyz
x,y,z
-x,-y,z
x,-y,-z
-x,y,-z
-x,-y,-z
x,y,-z
-x,y,z
x,-y,z
1/2+x,1/2+y,z
1/2-x,1/2-y,z
1/2+x,1/2-y,-z
1/2-x,1/2+y,-z
1/2-x,1/2-y,-z
1/2+x,1/2+y,-z
1/2-x,1/2+y,z
1/2+x,1/2-y,z
loop_
_atom_site_type_symbol
_atom_site_label
_atom_site_fract_x
_atom_site_fract_y
_atom_site_fract_z
Si Si1 0.329244 0.053650 0.436546
Si Si2 0.000000 0.054485 0.936611
Si Si3 0.828285 0.203939 0.699005
Si Si4 0.335991 0.396288 0.150410
Si Si5 0.171374 0.204062 0.174094
Si Si6 0.170419 0.554498 0.755285
Si Si7 0.327157 0.604824 0.657093
O O1 0.303387 0.061313 0.500000
O O2 0.500000 0.060734 0.426453
O O3 0.235588 0.085344 0.398260
O O4 0.298962 0.000000 0.425185
O O5 0.135040 0.077577 0.905513
O O6 0.000000 0.000000 0.927471
O O7 0.000000 0.063256 0.000000
O O8 0.750000 0.250000 0.680700
O O9 0.792939 0.197016 0.762464
O O10 0.789696 0.158015 0.667255
O O11 0.000000 0.210269 0.695569
O O12 0.500000 0.395014 0.175275
O O13 0.291093 0.343480 0.144927
O O14 0.232981 0.422977 0.190562
O O15 0.250000 0.250000 0.155550
O O16 0.000000 0.211040 0.169735
O O17 0.192377 0.500000 0.756591
O O18 0.254982 0.576181 0.705245
O O19 0.000000 0.563482 0.749976
O O20 0.500000 0.600451 0.659221
#
# Coordination Sequence:
#
# PCOD9493426 Si02
#       7
#    16   8  16  16  16  16  16
#     4   9  19  36  54  72  98 133 172 212 253 301
#     4   9  18  32  56  82 100 132 179 219 256 300
#     4   9  18  31  46  68  99 128 162 201 247 302
#     4   9  18  32  51  73 101 131 167 212 253 298
#     4   9  16  29  46  70  99 131 168 202 249 304
#     4  11  22  32  45  71 106 138 166 200 253 315
#     4  11  21  33  50  74 103 131 168 210 253 305
#
# _framework density 15.436588
#
# number of rings (size 3 to 8) (size 9 to 14) (size 15 to 20)
#    0.462    1.923    1.538    2.308    0.000    5.231 
#    0.000    0.769    0.000    1.385    0.000    2.154 
#    0.000    0.000    0.000    0.000    0.000    0.000 
#
# Total GULP energy -289724.697127 kJ/mol
# GULP energy per Si atom -5571.628791 kJ/mol
# Density = 1.540145 g / cm^3
# Si number density = 15.436588 Si / 1000 Ang^3
#
#
#
# Elastic Constant Matrix: (Units=GPa)
#
#
# Indices 1 2 3 4 5 6 
#
# 1 48.3378 63.7268 37.6357 0.0000 0.0000 0.0000
# 2 63.7268 147.4504 69.2640 0.0000 0.0000 0.0000
# 3 37.6357 69.2640 73.4988 0.0000 0.0000 0.0000
# 4 0.0000 0.0000 0.0000 13.4795 0.0000 0.0000
# 5 0.0000 0.0000 0.0000 0.0000 12.9562 0.0000
# 6 0.0000 0.0000 0.0000 0.0000 0.0000 30.7170
#
#
#
# Elastic Compliance Matrix: (Units=1/GPa)
#
#
# Indices 1 2 3 4 5 6 
#
# 1 0.051685 -0.017774 -0.009716 0.000000 0.000000 0.000000
# 2 -0.017774 0.018281 -0.008127 0.000000 0.000000 0.000000
# 3 -0.009716 -0.008127 0.026239 0.000000 0.000000 0.000000
# 4 0.000000 0.000000 0.000000 0.074187 0.000000 0.000000
# 5 0.000000 0.000000 0.000000 0.000000 0.077183 0.000000
# 6 0.000000 0.000000 0.000000 0.000000 0.000000 0.032555
#
#
# Mechanical properties :
#
#
# Convention : Reuss Voigt Hill
#
# Bulk Modulus (GPa) = 40.04409 67.83778 53.94093
# Shear Modulus (GPa) = 13.90101 18.00792 15.95446
#
# Velocity S-wave (km/s) = 3.00413 3.41922 3.21837
# Velocity P-wave (km/s) = 6.16688 7.72202 6.98785
#
# Compressibility (1/GPa) = 0.02497247
#
# Stress axis : x y z
#
# Youngs Moduli (GPa) = 19.34806 54.70175 38.11102
#
# Poissons Ratio (x) = 0.97225 0.37029
# Poissons Ratio (y) = 0.34389 0.30971
# Poissons Ratio (z) = 0.18799 0.44453
#
# Static dielectric constant tensor:
#      x y z
#    x 1.512200 0.000000 0.000000 
#    y 0.000000 1.516890 0.000000 
#    z 0.000000 0.000000 1.494270 
# 
# From -- ./inp_files/68155.got.cif
#   From: 2010.05.17/outbox.cif.g08.bks.cpg/sg65_35_cif.got.tgz:68155.got - 2010.06.03 17:01:31.
