data_PCOD9493995
_publ_section_title
;
Structure prediction by ZEFSAII (Michael W. Deem and Ramdas Pophale) SiO2 
 PCOD9493995
Probable space group: C M M M
;
_chemical_formula_sum "Si O2"
_cell_formula_units_Z 64
_cell_length_a 8.625372
_cell_length_b 21.984026
_cell_length_c 17.141275
_cell_angle_alpha 90.000000
_cell_angle_beta 90.000000
_cell_angle_gamma 90.000000
_cell_volume 3250.335462
_symmetry_space_group_name_H-M "C M M M"
_symmetry_group_IT_number 65
_symmetry_cell_setting 'orthorhombic'
loop_
_space_group_symop_operation_xyz
x,y,z
-x,-y,z
x,-y,-z
-x,y,-z
-x,-y,-z
x,y,-z
-x,y,z
x,-y,z
1/2+x,1/2+y,z
1/2-x,1/2-y,z
1/2+x,1/2-y,-z
1/2-x,1/2+y,-z
1/2-x,1/2-y,-z
1/2+x,1/2+y,-z
1/2-x,1/2+y,z
1/2+x,1/2-y,z
loop_
_atom_site_type_symbol
_atom_site_label
_atom_site_fract_x
_atom_site_fract_y
_atom_site_fract_z
Si Si1 0.813625 0.500000 0.906230
Si Si2 0.685046 0.375933 0.844419
Si Si3 0.315791 0.431662 0.406414
Si Si4 0.815320 0.317417 0.687488
Si Si5 0.185772 0.316750 0.000000
O O1 0.750831 0.443203 0.857247
O O2 0.000000 0.500000 0.907541
O O3 0.765580 0.500000 0.000000
O O4 0.500000 0.376842 0.838699
O O5 0.752581 0.339004 0.771610
O O6 0.743606 0.345725 0.923341
O O7 0.297855 0.429514 0.500000
O O8 0.500000 0.428001 0.388970
O O9 0.263004 0.500000 0.380759
O O10 0.235438 0.373021 0.368853
O O11 0.750000 0.250000 0.667768
O O12 0.000000 0.313165 0.688955
O O13 0.250000 0.250000 0.000000
O O14 0.000000 0.321617 0.000000
#
# Coordination Sequence:
#
# PCOD9493995 Si02
#       5
#     8  16  16  16   8
#     4  11  23  41  65  93 125 162 211 268 320 380
#     4  12  25  42  64  91 125 166 212 264 322 383
#     4   9  20  42  71 101 134 171 213 262 320 387
#     4  12  26  44  66  95 133 173 219 271 324 386
#     4  12  24  41  62  87 120 162 210 262 318 382
#
# _framework density 19.690276000000001
#
# number of rings (size 3 to 8) (size 9 to 14) (size 15 to 20)
#    0.000    0.875    1.250    7.500    1.750    2.000 
#    0.000    1.250    0.000    0.000    0.000    0.000 
#    0.000    0.000    0.000    0.000    0.000    0.000 
#
# Total GULP energy -178785.785802 kJ/mol
# GULP energy per Si atom -5587.055806 kJ/mol
# Density = 1.964546 g / cm^3
# Si number density = 19.690276 Si / 1000 Ang^3
#
#
#
# Elastic Constant Matrix: (Units=GPa)
#
#
# Indices 1 2 3 4 5 6 
#
# 1 160.4955 81.0398 46.0415 0.0000 0.0000 0.0000
# 2 81.0398 209.6502 54.9201 0.0000 0.0000 0.0000
# 3 46.0415 54.9201 62.3654 0.0000 0.0000 0.0000
# 4 0.0000 0.0000 0.0000 51.0073 0.0000 0.0000
# 5 0.0000 0.0000 0.0000 0.0000 35.2247 0.0000
# 6 0.0000 0.0000 0.0000 0.0000 0.0000 36.6851
#
#
#
# Elastic Compliance Matrix: (Units=1/GPa)
#
#
# Indices 1 2 3 4 5 6 
#
# 1 0.008596 -0.002158 -0.004445 0.000000 0.000000 0.000000
# 2 -0.002158 0.006742 -0.004344 0.000000 0.000000 0.000000
# 3 -0.004445 -0.004344 0.023142 0.000000 0.000000 0.000000
# 4 0.000000 0.000000 0.000000 0.019605 0.000000 0.000000
# 5 0.000000 0.000000 0.000000 0.000000 0.028389 0.000000
# 6 0.000000 0.000000 0.000000 0.000000 0.000000 0.027259
#
#
# Mechanical properties :
#
#
# Convention : Reuss Voigt Hill
#
# Bulk Modulus (GPa) = 60.29676 88.50154 74.39915
# Shear Modulus (GPa) = 35.42203 41.28409 38.35306
#
# Velocity S-wave (km/s) = 4.24602 4.58391 4.41820
# Velocity P-wave (km/s) = 7.39779 8.54756 7.99337
#
# Compressibility (1/GPa) = 0.01658464
#
# Stress axis : x y z
#
# Youngs Moduli (GPa) = 116.33798 148.32409 43.21235
#
# Poissons Ratio (x) = 0.32010 0.19209
# Poissons Ratio (y) = 0.25107 0.18771
# Poissons Ratio (z) = 0.51715 0.64430
#
# Static dielectric constant tensor:
#      x y z
#    x 1.657670 0.000000 0.000000 
#    y 0.000000 1.756050 0.000000 
#    z 0.000000 0.000000 1.659330 
# 
# From -- ./inp_files/49089.got.cif
#   From: 2010.05.17/outbox.cif.g08.bks.cpg/sg65_25_cif.got.tgz:49089.got - 2010.06.03 17:01:31.
