data_PCOD9493068
_publ_section_title
;
Structure prediction by ZEFSAII (Michael W. Deem and Ramdas Pophale) SiO2 
 PCOD9493068
Probable space group: C M M M
;
_chemical_formula_sum "Si O2"
_cell_formula_units_Z 72
_cell_length_a 22.728497
_cell_length_b 17.163334
_cell_length_c 8.111799
_cell_angle_alpha 90.000000
_cell_angle_beta 90.000000
_cell_angle_gamma 90.000000
_cell_volume 3164.386713
_symmetry_space_group_name_H-M "C M M M"
_symmetry_group_IT_number 65
_symmetry_cell_setting 'orthorhombic'
loop_
_space_group_symop_operation_xyz
x,y,z
-x,-y,z
x,-y,-z
-x,y,-z
-x,-y,-z
x,y,-z
-x,y,z
x,-y,z
1/2+x,1/2+y,z
1/2-x,1/2-y,z
1/2+x,1/2-y,-z
1/2-x,1/2+y,-z
1/2-x,1/2-y,-z
1/2+x,1/2+y,-z
1/2-x,1/2+y,z
1/2+x,1/2-y,z
loop_
_atom_site_type_symbol
_atom_site_label
_atom_site_fract_x
_atom_site_fract_y
_atom_site_fract_z
Si Si1 0.635844 0.905354 0.000000
Si Si2 0.729304 0.592740 0.000000
Si Si3 0.566246 0.672926 0.699492
Si Si4 0.068070 0.594864 0.677278
Si Si5 0.805733 0.191881 0.692721
Si Si6 0.929683 0.000000 0.684292
O O1 0.602483 0.880423 0.163216
O O2 0.702677 0.881266 0.000000
O O3 0.635327 0.000000 0.000000
O O4 0.704397 0.626872 0.830828
O O5 0.724846 0.500000 0.000000
O O6 0.561008 0.668115 0.500000
O O7 0.500000 0.695695 0.758472
O O8 0.626807 0.719956 0.727139
O O9 0.580594 0.584695 0.761612
O O10 0.092329 0.621018 0.500000
O O11 0.068452 0.500000 0.676105
O O12 0.000000 0.618648 0.686154
O O13 0.805007 0.165800 0.500000
O O14 0.750000 0.250000 0.709172
O O15 0.902337 0.000000 0.500000
O O16 0.000000 0.000000 0.665401
#
# Coordination Sequence:
#
# PCOD9493068 Si02
#       6
#     8   8  16  16  16   8
#     4   9  17  29  44  66 101 142 180 225 292 366
#     4  11  25  40  58  88 124 167 216 266 318 374
#     4   8  14  27  53  88 122 158 201 251 316 390
#     4   8  13  22  40  66  93 126 174 233 296 359
#     4  10  22  41  65  90 123 170 216 262 319 384
#     4   7  10  18  38  75 117 151 183 228 297 374
#
# _framework density 22.753223999999999
#
# number of rings (size 3 to 8) (size 9 to 14) (size 15 to 20)
#    0.000    3.222    0.000    2.667    1.556    2.667 
#    0.000    2.778    0.000    3.333    0.000    3.111 
#    0.000    0.000    0.000    0.000    0.000    0.000 
#
# Total GULP energy -200585.179889 kJ/mol
# GULP energy per Si atom -5571.810552 kJ/mol
# Density = 2.270144 g / cm^3
# Si number density = 22.753224 Si / 1000 Ang^3
#
#
#
# Elastic Constant Matrix: (Units=GPa)
#
#
# Indices 1 2 3 4 5 6 
#
# 1 200.3810 37.4785 78.2714 0.0000 0.0000 0.0000
# 2 37.4785 78.7673 42.4702 0.0000 0.0000 0.0000
# 3 78.2714 42.4702 146.8159 0.0000 0.0000 0.0000
# 4 0.0000 0.0000 0.0000 -8.1278 0.0000 0.0000
# 5 0.0000 0.0000 0.0000 0.0000 9.5036 0.0000
# 6 0.0000 0.0000 0.0000 0.0000 0.0000 19.2287
#
#
#
# Elastic Compliance Matrix: (Units=1/GPa)
#
#
# Indices 1 2 3 4 5 6 
#
# 1 0.006437 -0.001437 -0.003016 0.000000 0.000000 0.000000
# 2 -0.001437 0.015362 -0.003678 0.000000 0.000000 0.000000
# 3 -0.003016 -0.003678 0.009483 0.000000 0.000000 0.000000
# 4 0.000000 0.000000 0.000000 -0.123035 0.000000 0.000000
# 5 0.000000 0.000000 0.000000 0.000000 0.105223 0.000000
# 6 0.000000 0.000000 0.000000 0.000000 0.000000 0.052006
#
#
# Mechanical properties :
#
#
# Convention : Reuss Voigt Hill
#
# Bulk Modulus (GPa) = 66.57347 82.48940 74.53144
# Shear Modulus (GPa) = 57.63938 21.97051 39.80495
#
# Velocity S-wave (km/s) = 5.03859 3.11078 4.18714
# Velocity P-wave (km/s) = 7.94810 7.01678 7.49692
#
# Compressibility (1/GPa) = 0.01502100
#
# Stress axis : x y z
#
# Youngs Moduli (GPa) = 155.34145 65.09424 105.44819
#
# Poissons Ratio (x) = 0.09352 0.31807
# Poissons Ratio (y) = 0.22317 0.38784
# Poissons Ratio (z) = 0.46857 0.23942
#
# Static dielectric constant tensor:
#      x y z
#    x 1.860300 0.000000 0.000000 
#    y 0.000000 1.961880 0.000000 
#    z 0.000000 0.000000 1.815790 
# 
# From -- ./inp_files/13659.got.cif
#   From: 2010.05.17/outbox.cif.g08.bks.cpg/sg65_7_cif.got.tgz:13659.got - 2010.06.03 17:01:31.
