data_PCOD9493557
_publ_section_title
;
Structure prediction by ZEFSAII (Michael W. Deem and Ramdas Pophale) SiO2 
 PCOD9493557
Probable space group: C M M M
;
_chemical_formula_sum "Si O2"
_cell_formula_units_Z 56
_cell_length_a 12.632064
_cell_length_b 21.326893
_cell_length_c 10.282190
_cell_angle_alpha 90.000000
_cell_angle_beta 90.000000
_cell_angle_gamma 90.000000
_cell_volume 2770.049514
_symmetry_space_group_name_H-M "C M M M"
_symmetry_group_IT_number 65
_symmetry_cell_setting 'orthorhombic'
loop_
_space_group_symop_operation_xyz
x,y,z
-x,-y,z
x,-y,-z
-x,y,-z
-x,-y,-z
x,y,-z
-x,y,z
x,-y,z
1/2+x,1/2+y,z
1/2-x,1/2-y,z
1/2+x,1/2-y,-z
1/2-x,1/2+y,-z
1/2-x,1/2-y,-z
1/2+x,1/2+y,-z
1/2-x,1/2+y,z
1/2+x,1/2-y,z
loop_
_atom_site_type_symbol
_atom_site_label
_atom_site_fract_x
_atom_site_fract_y
_atom_site_fract_z
Si Si1 0.000000 0.385555 0.344331
Si Si2 0.329701 0.691944 0.858056
Si Si3 0.229813 0.573066 0.251611
Si Si4 0.000000 0.235750 0.343263
Si Si5 0.621615 0.574442 0.500000
O O1 0.892543 0.415243 0.288282
O O2 0.000000 0.394550 0.500000
O O3 0.000000 0.310767 0.317396
O O4 0.250000 0.750000 0.856297
O O5 0.268259 0.626189 0.847047
O O6 0.402666 0.704387 0.732939
O O7 0.383518 0.693296 0.000000
O O8 0.244512 0.500000 0.214311
O O9 0.305078 0.587180 0.375792
O O10 0.000000 0.230052 0.500000
O O11 0.609107 0.500000 0.500000
O O12 0.500000 0.599349 0.500000
#
# Coordination Sequence:
#
# PCOD9493557 Si02
#       5
#     8  16  16   8   8
#     4  11  21  39  64 102 142 176 220 284 348 404
#     4  11  25  45  66  92 134 182 225 273 338 409
#     4  11  23  39  65  98 134 177 224 278 344 406
#     4  11  25  42  70 102 132 174 230 292 336 401
#     4   9  20  37  58  91 135 175 215 269 334 401
#
# _framework density 20.216246000000002
#
# number of rings (size 3 to 8) (size 9 to 14) (size 15 to 20)
#    0.000    1.286    4.286    0.857    4.000    1.714 
#    0.000    0.714    0.000    3.429    0.000    0.000 
#    0.000    0.000    0.000    0.000    0.000    0.000 
#
# Total GULP energy -156166.679864 kJ/mol
# GULP energy per Si atom -5577.381424 kJ/mol
# Density = 2.017023 g / cm^3
# Si number density = 20.216246 Si / 1000 Ang^3
#
#
#
# Elastic Constant Matrix: (Units=GPa)
#
#
# Indices 1 2 3 4 5 6 
#
# 1 151.1359 47.9379 55.7716 0.0000 0.0000 0.0000
# 2 47.9379 172.4099 45.2458 0.0000 0.0000 0.0000
# 3 55.7716 45.2458 117.8060 0.0000 0.0000 0.0000
# 4 0.0000 0.0000 0.0000 -122.7174 0.0000 0.0000
# 5 0.0000 0.0000 0.0000 0.0000 -37.6231 0.0000
# 6 0.0000 0.0000 0.0000 0.0000 0.0000 35.2705
#
#
#
# Elastic Compliance Matrix: (Units=1/GPa)
#
#
# Indices 1 2 3 4 5 6 
#
# 1 0.008320 -0.001423 -0.003392 0.000000 0.000000 0.000000
# 2 -0.001423 0.006694 -0.001897 0.000000 0.000000 0.000000
# 3 -0.003392 -0.001897 0.010823 0.000000 0.000000 0.000000
# 4 0.000000 0.000000 0.000000 -0.008149 0.000000 0.000000
# 5 0.000000 0.000000 0.000000 0.000000 -0.026579 0.000000
# 6 0.000000 0.000000 0.000000 0.000000 0.000000 0.028352
#
#
# Mechanical properties :
#
#
# Convention : Reuss Voigt Hill
#
# Bulk Modulus (GPa) = 80.56874 82.14023 81.35449
# Shear Modulus (GPa) = 135.05304 -5.52091 64.76607
#
# Velocity S-wave (km/s) = 8.18225 -1.65434 5.66623
# Velocity P-wave (km/s) = 11.36687 6.08850 9.11799
#
# Compressibility (1/GPa) = 0.01241176
#
# Stress axis : x y z
#
# Youngs Moduli (GPa) = 120.19683 149.39476 92.39520
#
# Poissons Ratio (x) = 0.21260 0.31342
# Poissons Ratio (y) = 0.17105 0.17529
# Poissons Ratio (z) = 0.40773 0.28342
#
# Static dielectric constant tensor:
#      x y z
#    x 1.686900 0.000000 0.000000 
#    y 0.000000 1.710600 0.000000 
#    z 0.000000 0.000000 1.714560 
# 
# From -- ./inp_files/6288.got.cif
#   From: 2010.05.17/outbox.cif.g08.bks.cpg/sg65_4_cif.got.tgz:6288.got - 2010.06.03 17:01:31.
