data_PCOD9493714
_publ_section_title
;
Structure prediction by ZEFSAII (Michael W. Deem and Ramdas Pophale) SiO2 
 PCOD9493714
Probable space group: C M M M
;
_chemical_formula_sum "Si O2"
_cell_formula_units_Z 112
_cell_length_a 15.669853
_cell_length_b 27.581711
_cell_length_c 14.189245
_cell_angle_alpha 90.000000
_cell_angle_beta 90.000000
_cell_angle_gamma 90.000000
_cell_volume 6132.610942
_symmetry_space_group_name_H-M "C M M M"
_symmetry_group_IT_number 65
_symmetry_cell_setting 'orthorhombic'
loop_
_space_group_symop_operation_xyz
x,y,z
-x,-y,z
x,-y,-z
-x,y,-z
-x,-y,-z
x,y,-z
-x,y,z
x,-y,z
1/2+x,1/2+y,z
1/2-x,1/2-y,z
1/2+x,1/2-y,-z
1/2-x,1/2+y,-z
1/2-x,1/2-y,-z
1/2+x,1/2+y,-z
1/2-x,1/2+y,z
1/2+x,1/2-y,z
loop_
_atom_site_type_symbol
_atom_site_label
_atom_site_fract_x
_atom_site_fract_y
_atom_site_fract_z
Si Si1 0.901502 0.154244 0.770722
Si Si2 0.592889 0.857743 0.785739
Si Si3 0.309481 0.555310 0.262643
Si Si4 0.308074 0.704157 0.393099
Si Si5 0.685863 0.110080 0.605972
Si Si6 0.253163 0.192114 0.891470
Si Si7 0.837775 0.445619 0.110352
O O1 0.877838 0.098672 0.742636
O O2 0.879247 0.189385 0.682320
O O3 0.834450 0.170165 0.850946
O O4 0.000000 0.158154 0.797396
O O5 0.500000 0.834631 0.792166
O O6 0.613013 0.876061 0.680399
O O7 0.670210 0.825237 0.824141
O O8 0.599244 0.905189 0.851133
O O9 0.341150 0.500000 0.269787
O O10 0.244565 0.568343 0.347780
O O11 0.249722 0.559423 0.169714
O O12 0.160127 0.786753 0.500000
O O13 0.250000 0.750000 0.364529
O O14 0.246183 0.657570 0.396527
O O15 0.657982 0.098977 0.500000
O O16 0.250000 0.250000 0.889300
O O17 0.267697 0.176816 0.000000
O O18 0.870207 0.500000 0.127434
O O19 0.821965 0.439907 0.000000
#
# Coordination Sequence:
#
# PCOD9493714 Si02
#       7
#    16  16  16  16  16  16  16
#     4  11  22  36  58  87 118 153 193 240 291 342
#     4  11  22  36  58  86 115 148 189 236 290 349
#     4   9  18  34  55  82 114 155 199 237 283 340
#     4   9  17  34  59  81 108 146 186 231 286 338
#     4   9  18  34  55  81 114 150 188 232 282 339
#     4  11  24  43  61  80 114 154 194 239 288 345
#     4   9  17  32  56  81 107 141 182 232 287 339
#
# _framework density 18.263020999999998
#
# number of rings (size 3 to 8) (size 9 to 14) (size 15 to 20)
#    0.000    2.143    4.286    0.857    0.000    3.429 
#    0.000    2.143    0.000    2.571    0.000   11.000 
#    0.000    0.000    0.000    0.000    0.000    0.000 
#
# Total GULP energy -312239.151380 kJ/mol
# GULP energy per Si atom -5575.699132 kJ/mol
# Density = 1.822145 g / cm^3
# Si number density = 18.263021 Si / 1000 Ang^3
#
#
#
# Elastic Constant Matrix: (Units=GPa)
#
#
# Indices 1 2 3 4 5 6 
#
# 1 105.7764 24.6387 33.5018 0.0000 0.0000 0.0000
# 2 24.6387 79.3050 16.4076 0.0000 0.0000 0.0000
# 3 33.5018 16.4076 119.9690 0.0000 0.0000 0.0000
# 4 0.0000 0.0000 0.0000 20.5701 0.0000 0.0000
# 5 0.0000 0.0000 0.0000 0.0000 3.3351 0.0000
# 6 0.0000 0.0000 0.0000 0.0000 0.0000 9.9016
#
#
#
# Elastic Compliance Matrix: (Units=1/GPa)
#
#
# Indices 1 2 3 4 5 6 
#
# 1 0.010965 -0.002854 -0.002672 0.000000 0.000000 0.000000
# 2 -0.002854 0.013720 -0.001079 0.000000 0.000000 0.000000
# 3 -0.002672 -0.001079 0.009229 0.000000 0.000000 0.000000
# 4 0.000000 0.000000 0.000000 0.048614 0.000000 0.000000
# 5 0.000000 0.000000 0.000000 0.000000 0.299837 0.000000
# 6 0.000000 0.000000 0.000000 0.000000 0.000000 0.100994
#
#
# Mechanical properties :
#
#
# Convention : Reuss Voigt Hill
#
# Bulk Modulus (GPa) = 48.30054 50.46073 49.38063
# Shear Modulus (GPa) = 9.93108 22.12819 16.02964
#
# Velocity S-wave (km/s) = 2.33444 3.48464 2.96583
# Velocity P-wave (km/s) = 5.81126 6.62422 6.23101
#
# Compressibility (1/GPa) = 0.02070370
#
# Stress axis : x y z
#
# Youngs Moduli (GPa) = 91.20071 72.88895 108.35198
#
# Poissons Ratio (x) = 0.20801 0.28948
# Poissons Ratio (y) = 0.26027 0.11696
# Poissons Ratio (z) = 0.24366 0.07868
#
# Static dielectric constant tensor:
#      x y z
#    x 1.612780 0.000000 0.000000 
#    y 0.000000 1.651250 0.000000 
#    z 0.000000 0.000000 1.653820 
# 
# From -- ./inp_files/41115.got.cif
#   From: 2010.05.17/outbox.cif.g08.bks.cpg/sg65_21_cif.got.tgz:41115.got - 2010.06.03 17:01:31.
