data_PCOD9493506
_publ_section_title
;
Structure prediction by ZEFSAII (Michael W. Deem and Ramdas Pophale) SiO2 
 PCOD9493506
Probable space group: C M M M
;
_chemical_formula_sum "Si O2"
_cell_formula_units_Z 104
_cell_length_a 28.518306
_cell_length_b 22.983176
_cell_length_c 9.096308
_cell_angle_alpha 90.000000
_cell_angle_beta 90.000000
_cell_angle_gamma 90.000000
_cell_volume 5962.095450
_symmetry_space_group_name_H-M "C M M M"
_symmetry_group_IT_number 65
_symmetry_cell_setting 'orthorhombic'
loop_
_space_group_symop_operation_xyz
x,y,z
-x,-y,z
x,-y,-z
-x,y,-z
-x,-y,-z
x,y,-z
-x,y,z
x,-y,z
1/2+x,1/2+y,z
1/2-x,1/2-y,z
1/2+x,1/2-y,-z
1/2-x,1/2+y,-z
1/2-x,1/2-y,-z
1/2+x,1/2+y,-z
1/2-x,1/2+y,z
1/2+x,1/2-y,z
loop_
_atom_site_type_symbol
_atom_site_label
_atom_site_fract_x
_atom_site_fract_y
_atom_site_fract_z
Si Si1 0.556230 0.432799 0.336328
Si Si2 0.555720 0.772198 0.327873
Si Si3 0.105551 0.379291 0.823013
Si Si4 0.695493 0.824517 0.324799
Si Si5 0.605520 0.335742 0.171114
Si Si6 0.445056 0.000000 0.178514
Si Si7 0.302698 0.685584 0.325005
O O1 0.571041 0.411735 0.500000
O O2 0.500000 0.430425 0.333248
O O3 0.570150 0.500000 0.322315
O O4 0.576557 0.392828 0.210867
O O5 0.567993 0.778266 0.500000
O O6 0.500000 0.763764 0.315845
O O7 0.571848 0.829305 0.241164
O O8 0.582233 0.717178 0.260355
O O9 0.156914 0.362384 0.759885
O O10 0.083646 0.441815 0.778491
O O11 0.106815 0.376867 0.000000
O O12 0.689257 0.832993 0.500000
O O13 0.690802 0.755005 0.296732
O O14 0.750139 0.835114 0.288504
O O15 0.657749 0.344903 0.230881
O O16 0.605147 0.321994 0.000000
O O17 0.500000 0.000000 0.228135
O O18 0.446715 0.000000 0.000000
O O19 0.309266 0.677527 0.500000
#
# Coordination Sequence:
#
# PCOD9493506 Si02
#       7
#    16  16  16  16  16   8  16
#     4   9  19  37  59  79 103 143 189 224 261 318
#     4  11  23  37  53  76 110 148 184 225 273 325
#     4  11  21  35  58  84 110 144 185 231 283 337
#     4   9  18  34  57  82 108 142 180 221 270 327
#     4  12  23  33  52  84 115 143 177 223 276 327
#     4   9  20  38  57  79 113 155 191 225 278 349
#     4   9  18  34  56  80 110 146 181 217 267 329
#
# _framework density 17.443531
#
# number of rings (size 3 to 8) (size 9 to 14) (size 15 to 20)
#    0.000    1.923    1.538    4.615    0.000    4.923 
#    0.000    3.846    1.692    2.769    0.000    0.000 
#    0.000    0.000    0.000    0.000    0.000    0.000 
#
# Total GULP energy -290161.887734 kJ/mol
# GULP energy per Si atom -5580.036303 kJ/mol
# Density = 1.740383 g / cm^3
# Si number density = 17.443531 Si / 1000 Ang^3
#
#
#
# Elastic Constant Matrix: (Units=GPa)
#
#
# Indices 1 2 3 4 5 6 
#
# 1 110.8708 48.6692 50.3020 0.0000 0.0000 0.0000
# 2 48.6692 49.5837 26.2400 0.0000 0.0000 0.0000
# 3 50.3020 26.2400 61.1030 0.0000 0.0000 0.0000
# 4 0.0000 0.0000 0.0000 24.9532 0.0000 0.0000
# 5 0.0000 0.0000 0.0000 0.0000 0.1388 0.0000
# 6 0.0000 0.0000 0.0000 0.0000 0.0000 11.7097
#
#
#
# Elastic Compliance Matrix: (Units=1/GPa)
#
#
# Indices 1 2 3 4 5 6 
#
# 1 0.019865 -0.014034 -0.010327 0.000000 0.000000 0.000000
# 2 -0.014034 0.036013 -0.003912 0.000000 0.000000 0.000000
# 3 -0.010327 -0.003912 0.026548 0.000000 0.000000 0.000000
# 4 0.000000 0.000000 0.000000 0.040075 0.000000 0.000000
# 5 0.000000 0.000000 0.000000 0.000000 7.203054 0.000000
# 6 0.000000 0.000000 0.000000 0.000000 0.000000 0.085399
#
#
# Mechanical properties :
#
#
# Convention : Reuss Voigt Hill
#
# Bulk Modulus (GPa) = 38.64053 52.44221 45.54137
# Shear Modulus (GPa) = 0.66880 13.78342 7.22611
#
# Velocity S-wave (km/s) = 0.61987 2.81405 2.03754
# Velocity P-wave (km/s) = 4.76573 6.37870 5.63027
#
# Compressibility (1/GPa) = 0.02587956
#
# Stress axis : x y z
#
# Youngs Moduli (GPa) = 50.33874 27.76746 37.66813
#
# Poissons Ratio (x) = 0.38968 0.38901
# Poissons Ratio (y) = 0.70644 0.14737
# Poissons Ratio (z) = 0.51986 0.10864
#
# Static dielectric constant tensor:
#      x y z
#    x 1.621390 0.000000 0.000000 
#    y 0.000000 1.583480 0.000000 
#    z 0.000000 0.000000 1.588490 
# 
# From -- ./inp_files/16522.got.cif
#   From: 2010.05.17/outbox.cif.g08.bks.cpg/sg65_9_cif.got.tgz:16522.got - 2010.06.03 17:01:31.
