data_PCOD9493275
_publ_section_title
;
Structure prediction by ZEFSAII (Michael W. Deem and Ramdas Pophale) SiO2 
 PCOD9493275
Probable space group: C M M M
;
_chemical_formula_sum "Si O2"
_cell_formula_units_Z 96
_cell_length_a 14.578071
_cell_length_b 31.370438
_cell_length_c 13.981997
_cell_angle_alpha 90.000000
_cell_angle_beta 90.000000
_cell_angle_gamma 90.000000
_cell_volume 6394.253474
_symmetry_space_group_name_H-M "C M M M"
_symmetry_group_IT_number 65
_symmetry_cell_setting 'orthorhombic'
loop_
_space_group_symop_operation_xyz
x,y,z
-x,-y,z
x,-y,-z
-x,y,-z
-x,-y,-z
x,y,-z
-x,y,z
x,-y,z
1/2+x,1/2+y,z
1/2-x,1/2-y,z
1/2+x,1/2-y,-z
1/2-x,1/2+y,-z
1/2-x,1/2-y,-z
1/2+x,1/2+y,-z
1/2-x,1/2+y,z
1/2+x,1/2-y,z
loop_
_atom_site_type_symbol
_atom_site_label
_atom_site_fract_x
_atom_site_fract_y
_atom_site_fract_z
Si Si1 0.396995 0.000000 0.615266
Si Si2 0.896541 0.000000 0.615382
Si Si3 0.605084 0.283103 0.776763
Si Si4 0.104457 0.718380 0.388700
Si Si5 0.109942 0.696311 0.889082
Si Si6 0.749801 0.071710 0.615888
Si Si7 0.229679 0.657585 0.265477
O O1 0.338063 0.041921 0.638371
O O2 0.500000 0.000000 0.654025
O O3 0.402142 0.000000 0.500000
O O4 0.837570 0.041997 0.638878
O O5 0.900955 0.000000 0.500000
O O6 0.000000 0.000000 0.653196
O O7 0.500000 0.295442 0.798646
O O8 0.607443 0.261587 0.671862
O O9 0.631540 0.243465 0.846047
O O10 0.677293 0.320889 0.773367
O O11 0.119247 0.725379 0.500000
O O12 0.179838 0.687496 0.344191
O O13 0.000000 0.700991 0.375281
O O14 0.160122 0.661272 0.824083
O O15 0.000000 0.691860 0.880317
O O16 0.135467 0.693961 0.000000
O O17 0.749887 0.080621 0.500000
O O18 0.746717 0.113209 0.681665
#
# Coordination Sequence:
#
# PCOD9493275 Si02
#       7
#     8   8  16  16  16  16  16
#     4   8  15  29  46  61  83 115 142 169 212 263
#     4   8  15  31  50  63  85 124 160 186 216 258
#     4   9  19  31  41  59  86 117 154 188 216 255
#     4   9  17  28  40  56  83 119 152 178 210 258
#     4   9  18  33  50  66  87 117 152 188 225 265
#     4   9  18  29  42  67  95 116 147 184 217 262
#     4  11  19  27  44  67  90 113 144 186 229 266
#
# _framework density 15.013479999999999
#
# number of rings (size 3 to 8) (size 9 to 14) (size 15 to 20)
#    0.000    2.833    0.000    5.000    0.000    5.333 
#    0.000    1.667    0.000    0.000    0.000    2.333 
#    0.000    6.667    0.000    0.000    0.000    0.000 
#
# Total GULP energy -267221.532436 kJ/mol
# GULP energy per Si atom -5567.115259 kJ/mol
# Density = 1.497931 g / cm^3
# Si number density = 15.013480 Si / 1000 Ang^3
#
#
#
# Elastic Constant Matrix: (Units=GPa)
#
#
# Indices 1 2 3 4 5 6 
#
# 1 96.4813 48.2361 25.7173 0.0000 0.0000 0.0000
# 2 48.2361 84.6138 31.6080 0.0000 0.0000 0.0000
# 3 25.7173 31.6080 87.1934 0.0000 0.0000 0.0000
# 4 0.0000 0.0000 0.0000 14.8210 0.0000 0.0000
# 5 0.0000 0.0000 0.0000 0.0000 10.8059 0.0000
# 6 0.0000 0.0000 0.0000 0.0000 0.0000 3.6036
#
#
#
# Elastic Compliance Matrix: (Units=1/GPa)
#
#
# Indices 1 2 3 4 5 6 
#
# 1 0.014663 -0.007800 -0.001497 0.000000 0.000000 0.000000
# 2 -0.007800 0.017818 -0.004159 0.000000 0.000000 0.000000
# 3 -0.001497 -0.004159 0.013418 0.000000 0.000000 0.000000
# 4 0.000000 0.000000 0.000000 0.067472 0.000000 0.000000
# 5 0.000000 0.000000 0.000000 0.000000 0.092542 0.000000
# 6 0.000000 0.000000 0.000000 0.000000 0.000000 0.277502
#
#
# Mechanical properties :
#
#
# Convention : Reuss Voigt Hill
#
# Bulk Modulus (GPa) = 52.66542 53.26793 52.96668
# Shear Modulus (GPa) = 9.67762 16.69458 13.18610
#
# Velocity S-wave (km/s) = 2.54164 3.33824 2.96680
# Velocity P-wave (km/s) = 6.61575 7.10039 6.86235
#
# Compressibility (1/GPa) = 0.01898779
#
# Stress axis : x y z
#
# Youngs Moduli (GPa) = 68.19700 56.12176 74.52687
#
# Poissons Ratio (x) = 0.43774 0.11160
# Poissons Ratio (y) = 0.53193 0.30994
# Poissons Ratio (z) = 0.10212 0.23339
#
# Static dielectric constant tensor:
#      x y z
#    x 1.548870 0.000000 0.000000 
#    y 0.000000 1.475600 0.000000 
#    z 0.000000 0.000000 1.487010 
# 
# From -- ./inp_files/41006.got.cif
#   From: 2010.05.17/outbox.cif.g08.bks.cpg/sg65_21_cif.got.tgz:41006.got - 2010.06.03 17:01:31.
