data_PCOD9493914
_publ_section_title
;
Structure prediction by ZEFSAII (Michael W. Deem and Ramdas Pophale) SiO2 
 PCOD9493914
Probable space group: C M M M
;
_chemical_formula_sum "Si O2"
_cell_formula_units_Z 80
_cell_length_a 8.262167
_cell_length_b 29.995034
_cell_length_c 16.800171
_cell_angle_alpha 90.000000
_cell_angle_beta 90.000000
_cell_angle_gamma 90.000000
_cell_volume 4163.485243
_symmetry_space_group_name_H-M "C M M M"
_symmetry_group_IT_number 65
_symmetry_cell_setting 'orthorhombic'
loop_
_space_group_symop_operation_xyz
x,y,z
-x,-y,z
x,-y,-z
-x,y,-z
-x,-y,-z
x,y,-z
-x,y,z
x,-y,z
1/2+x,1/2+y,z
1/2-x,1/2-y,z
1/2+x,1/2-y,-z
1/2-x,1/2+y,-z
1/2-x,1/2-y,-z
1/2+x,1/2+y,-z
1/2-x,1/2+y,z
1/2+x,1/2-y,z
loop_
_atom_site_type_symbol
_atom_site_label
_atom_site_fract_x
_atom_site_fract_y
_atom_site_fract_z
Si Si1 0.195560 0.299537 0.328732
Si Si2 0.688781 0.933256 0.500000
Si Si3 0.694515 0.449642 0.908544
Si Si4 0.684913 0.549960 0.670433
Si Si5 0.308063 0.665772 0.500000
Si Si6 0.683150 0.120115 0.219649
O O1 0.250000 0.250000 0.306535
O O2 0.264401 0.309834 0.417210
O O3 0.252940 0.335563 0.262272
O O4 0.000000 0.302608 0.333367
O O5 0.500000 0.945523 0.500000
O O6 0.778777 0.950330 0.577696
O O7 0.708578 0.880009 0.500000
O O8 0.500000 0.451782 0.907302
O O9 0.752776 0.500000 0.885508
O O10 0.741159 0.408335 0.852413
O O11 0.746517 0.442282 0.000000
O O12 0.500000 0.564748 0.685785
O O13 0.701657 0.500000 0.702067
O O14 0.807163 0.584010 0.709648
O O15 0.500000 0.656255 0.500000
O O16 0.500000 0.130618 0.196770
#
# Coordination Sequence:
#
# PCOD9493914 Si02
#       6
#    16   8  16  16   8  16
#     4  11  24  41  60  84 114 149 192 244 296 347
#     4  12  23  36  53  76 108 147 190 238 286 334
#     4   9  19  37  61  89 121 156 192 229 274 336
#     4  11  23  37  54  77 108 150 195 232 276 339
#     4  12  23  38  61  83 109 150 195 242 296 348
#     4  11  23  37  57  85 117 148 185 236 289 338
#
# _framework density 19.214670999999999
#
# number of rings (size 3 to 8) (size 9 to 14) (size 15 to 20)
#    0.000    1.200    2.000    5.400    0.000    8.400 
#    0.000    1.000    0.000    0.600    0.000    0.000 
#    0.000    0.000    0.000    0.000    0.000    0.000 
#
# Total GULP energy -223258.722871 kJ/mol
# GULP energy per Si atom -5581.468072 kJ/mol
# Density = 1.917094 g / cm^3
# Si number density = 19.214671 Si / 1000 Ang^3
#
#
#
# Elastic Constant Matrix: (Units=GPa)
#
#
# Indices 1 2 3 4 5 6 
#
# 1 45.3929 18.9433 9.1051 0.0000 0.0000 0.0000
# 2 18.9433 140.5854 62.1580 0.0000 0.0000 0.0000
# 3 9.1051 62.1580 131.5753 0.0000 0.0000 0.0000
# 4 0.0000 0.0000 0.0000 -9.8390 0.0000 0.0000
# 5 0.0000 0.0000 0.0000 0.0000 29.4707 0.0000
# 6 0.0000 0.0000 0.0000 0.0000 0.0000 20.6537
#
#
#
# Elastic Compliance Matrix: (Units=1/GPa)
#
#
# Indices 1 2 3 4 5 6 
#
# 1 0.023345 -0.003073 -0.000164 0.000000 0.000000 0.000000
# 2 -0.003073 0.009396 -0.004226 0.000000 0.000000 0.000000
# 3 -0.000164 -0.004226 0.009608 0.000000 0.000000 0.000000
# 4 0.000000 0.000000 0.000000 -0.101637 0.000000 0.000000
# 5 0.000000 0.000000 0.000000 0.000000 0.033932 0.000000
# 6 0.000000 0.000000 0.000000 0.000000 0.000000 0.048417
#
#
# Mechanical properties :
#
#
# Convention : Reuss Voigt Hill
#
# Bulk Modulus (GPa) = 36.46571 55.32962 45.89766
# Shear Modulus (GPa) = 106.09317 23.21357 64.65337
#
# Velocity S-wave (km/s) = 7.43872 3.47957 5.80698
# Velocity P-wave (km/s) = 9.63320 6.70829 8.30060
#
# Compressibility (1/GPa) = 0.02742302
#
# Stress axis : x y z
#
# Youngs Moduli (GPa) = 42.83524 106.43169 104.08053
#
# Poissons Ratio (x) = 0.32710 0.01703
# Poissons Ratio (y) = 0.13165 0.43984
# Poissons Ratio (z) = 0.00701 0.44978
#
# Static dielectric constant tensor:
#      x y z
#    x 1.673790 0.000000 0.000000 
#    y 0.000000 1.681460 0.000000 
#    z 0.000000 0.000000 1.689020 
# 
# From -- ./inp_files/49977.got.cif
#   From: 2010.05.17/outbox.cif.g08.bks.cpg/sg65_25_cif.got.tgz:49977.got - 2010.06.03 17:01:31.
