data_PCOD9493989
_publ_section_title
;
Structure prediction by ZEFSAII (Michael W. Deem and Ramdas Pophale) SiO2 
 PCOD9493989
Probable space group: C M M M
;
_chemical_formula_sum "Si O2"
_cell_formula_units_Z 64
_cell_length_a 17.519675
_cell_length_b 10.427935
_cell_length_c 20.133877
_cell_angle_alpha 90.000000
_cell_angle_beta 90.000000
_cell_angle_gamma 90.000000
_cell_volume 3678.339171
_symmetry_space_group_name_H-M "C M M M"
_symmetry_group_IT_number 65
_symmetry_cell_setting 'orthorhombic'
loop_
_space_group_symop_operation_xyz
x,y,z
-x,-y,z
x,-y,-z
-x,y,-z
-x,-y,-z
x,y,-z
-x,y,z
x,-y,z
1/2+x,1/2+y,z
1/2-x,1/2-y,z
1/2+x,1/2-y,-z
1/2-x,1/2+y,-z
1/2-x,1/2-y,-z
1/2+x,1/2+y,-z
1/2-x,1/2+y,z
1/2+x,1/2-y,z
loop_
_atom_site_type_symbol
_atom_site_label
_atom_site_fract_x
_atom_site_fract_y
_atom_site_fract_z
Si Si1 0.590937 0.345130 0.928680
Si Si2 0.411218 0.500000 0.579452
Si Si3 0.591742 0.000000 0.578415
Si Si4 0.407729 0.347339 0.782730
Si Si5 0.158990 0.248623 0.351905
O O1 0.500000 0.318494 0.929192
O O2 0.597996 0.500000 0.928420
O O3 0.619191 0.303199 0.856230
O O4 0.622415 0.298311 0.000000
O O5 0.500000 0.500000 0.600374
O O6 0.407922 0.500000 0.500000
O O7 0.371695 0.625782 0.608148
O O8 0.625437 0.874950 0.613871
O O9 0.500000 0.000000 0.584026
O O10 0.611078 0.000000 0.500000
O O11 0.500000 0.335987 0.779921
O O12 0.390756 0.500000 0.774846
O O13 0.370655 0.269350 0.723171
O O14 0.250000 0.250000 0.353161
#
# Coordination Sequence:
#
# PCOD9493989 Si02
#       5
#    16   8   8  16  16
#     4   7  10  18  37  70 105 131 164 217 270 305
#     4  11  23  41  65  85 102 135 184 229 271 326
#     4  11  25  43  59  77 106 143 180 221 271 326
#     4   9  16  29  52  77 104 140 181 223 263 312
#     4  12  24  37  56  83 114 143 177 222 272 324
#
# _framework density 17.399156000000001
#
# number of rings (size 3 to 8) (size 9 to 14) (size 15 to 20)
#    0.000    2.250    1.250    6.000    0.000    5.000 
#    0.000    0.000    0.000    0.750    0.000    0.875 
#    0.000    5.000    0.000    0.000    0.000    0.000 
#
# Total GULP energy -178381.653469 kJ/mol
# GULP energy per Si atom -5574.426671 kJ/mol
# Density = 1.735956 g / cm^3
# Si number density = 17.399156 Si / 1000 Ang^3
#
#
#
# Elastic Constant Matrix: (Units=GPa)
#
#
# Indices 1 2 3 4 5 6 
#
# 1 75.5327 42.7617 66.4552 0.0000 0.0000 0.0000
# 2 42.7617 106.6187 77.2256 0.0000 0.0000 0.0000
# 3 66.4552 77.2256 195.4193 0.0000 0.0000 0.0000
# 4 0.0000 0.0000 0.0000 3.1686 0.0000 0.0000
# 5 0.0000 0.0000 0.0000 0.0000 -16.9463 0.0000
# 6 0.0000 0.0000 0.0000 0.0000 0.0000 21.7727
#
#
#
# Elastic Compliance Matrix: (Units=1/GPa)
#
#
# Indices 1 2 3 4 5 6 
#
# 1 0.020261 -0.004393 -0.005154 0.000000 0.000000 0.000000
# 2 -0.004393 0.014093 -0.004075 0.000000 0.000000 0.000000
# 3 -0.005154 -0.004075 0.008480 0.000000 0.000000 0.000000
# 4 0.000000 0.000000 0.000000 0.315592 0.000000 0.000000
# 5 0.000000 0.000000 0.000000 0.000000 -0.059010 0.000000
# 6 0.000000 0.000000 0.000000 0.000000 0.000000 0.045929
#
#
# Mechanical properties :
#
#
# Convention : Reuss Voigt Hill
#
# Bulk Modulus (GPa) = 64.14520 83.38396 73.76458
# Shear Modulus (GPa) = 13.23499 14.34089 13.78794
#
# Velocity S-wave (km/s) = 2.76101 2.87405 2.81810
# Velocity P-wave (km/s) = 6.86376 7.68386 7.28536
#
# Compressibility (1/GPa) = 0.01558963
#
# Stress axis : x y z
#
# Youngs Moduli (GPa) = 49.35612 70.95756 117.91905
#
# Poissons Ratio (x) = 0.31171 0.60776
# Poissons Ratio (y) = 0.21682 0.48056
# Poissons Ratio (z) = 0.25438 0.28918
#
# Static dielectric constant tensor:
#      x y z
#    x 1.565050 0.000000 0.000000 
#    y 0.000000 1.555690 0.000000 
#    z 0.000000 0.000000 1.649940 
# 
# From -- ./inp_files/63272.got.cif
#   From: 2010.05.17/outbox.cif.g08.bks.cpg/sg65_32_cif.got.tgz:63272.got - 2010.06.03 17:01:31.
