data_PCOD9493990
_publ_section_title
;
Structure prediction by ZEFSAII (Michael W. Deem and Ramdas Pophale) SiO2 
 PCOD9493990
Probable space group: C M M M
;
_chemical_formula_sum "Si O2"
_cell_formula_units_Z 80
_cell_length_a 14.729110
_cell_length_b 13.071812
_cell_length_c 18.691162
_cell_angle_alpha 90.000000
_cell_angle_beta 90.000000
_cell_angle_gamma 90.000000
_cell_volume 3598.724498
_symmetry_space_group_name_H-M "C M M M"
_symmetry_group_IT_number 65
_symmetry_cell_setting 'orthorhombic'
loop_
_space_group_symop_operation_xyz
x,y,z
-x,-y,z
x,-y,-z
-x,y,-z
-x,-y,-z
x,y,-z
-x,y,z
x,-y,z
1/2+x,1/2+y,z
1/2-x,1/2-y,z
1/2+x,1/2-y,-z
1/2-x,1/2+y,-z
1/2-x,1/2-y,-z
1/2+x,1/2+y,-z
1/2-x,1/2+y,z
1/2+x,1/2-y,z
loop_
_atom_site_type_symbol
_atom_site_label
_atom_site_fract_x
_atom_site_fract_y
_atom_site_fract_z
Si Si1 0.888786 0.325707 0.420873
Si Si2 0.388780 0.385248 0.357744
Si Si3 0.388859 0.000000 0.312182
Si Si4 0.893006 0.111908 0.804339
Si Si5 0.890592 0.500000 0.147698
Si Si6 0.146428 0.718301 0.079307
O O1 0.860800 0.359773 0.500000
O O2 0.859376 0.209647 0.405583
O O3 0.859817 0.400982 0.357438
O O4 0.000000 0.327319 0.420005
O O5 0.500000 0.384280 0.359207
O O6 0.361055 0.500000 0.379033
O O7 0.357444 0.366994 0.275610
O O8 0.500000 0.000000 0.310527
O O9 0.358343 0.000000 0.230145
O O10 0.885810 0.202524 0.860649
O O11 0.000000 0.100781 0.793496
O O12 0.857735 0.000000 0.829379
O O13 0.861712 0.396915 0.107651
O O14 0.000000 0.500000 0.148908
O O15 0.250000 0.750000 0.072157
O O16 0.104374 0.727656 0.000000
#
# Coordination Sequence:
#
# PCOD9493990 Si02
#       6
#    16  16   8  16   8  16
#     4   9  15  22  36  63 103 144 174 211 273 334
#     4   8  14  25  41  64  96 135 178 221 264 314
#     4   9  17  29  47  71 101 138 183 231 272 316
#     4   9  18  34  57  81 106 144 191 233 274 332
#     4  11  23  41  65  87 112 155 203 239 279 343
#     4  11  25  40  57  82 116 149 179 230 296 345
#
# _framework density 22.230097000000001
#
# number of rings (size 3 to 8) (size 9 to 14) (size 15 to 20)
#    0.000    2.600    0.000    3.600    1.400    7.200 
#    0.000    3.000    0.000    0.000    0.000    0.000 
#    0.000   20.000    0.000    0.000    0.000    0.000 
#
# Total GULP energy -223316.680507 kJ/mol
# GULP energy per Si atom -5582.917013 kJ/mol
# Density = 2.217950 g / cm^3
# Si number density = 22.230097 Si / 1000 Ang^3
#
#
#
# Elastic Constant Matrix: (Units=GPa)
#
#
# Indices 1 2 3 4 5 6 
#
# 1 43.1740 17.3392 19.8128 0.0000 0.0000 0.0000
# 2 17.3392 137.3121 48.0473 0.0000 0.0000 0.0000
# 3 19.8128 48.0473 86.0963 0.0000 0.0000 0.0000
# 4 0.0000 0.0000 0.0000 69.2367 0.0000 0.0000
# 5 0.0000 0.0000 0.0000 0.0000 41.0540 0.0000
# 6 0.0000 0.0000 0.0000 0.0000 0.0000 18.5291
#
#
#
# Elastic Compliance Matrix: (Units=1/GPa)
#
#
# Indices 1 2 3 4 5 6 
#
# 1 0.026139 -0.001486 -0.005186 0.000000 0.000000 0.000000
# 2 -0.001486 0.009134 -0.004756 0.000000 0.000000 0.000000
# 3 -0.005186 -0.004756 0.015462 0.000000 0.000000 0.000000
# 4 0.000000 0.000000 0.000000 0.014443 0.000000 0.000000
# 5 0.000000 0.000000 0.000000 0.000000 0.024358 0.000000
# 6 0.000000 0.000000 0.000000 0.000000 0.000000 0.053969
#
#
# Mechanical properties :
#
#
# Convention : Reuss Voigt Hill
#
# Bulk Modulus (GPa) = 35.86759 48.55347 42.21053
# Shear Modulus (GPa) = 28.46501 37.85617 33.16059
#
# Velocity S-wave (km/s) = 3.58225 4.13113 3.86644
# Velocity P-wave (km/s) = 5.76886 6.68159 6.24193
#
# Compressibility (1/GPa) = 0.02788032
#
# Stress axis : x y z
#
# Youngs Moduli (GPa) = 38.25736 109.47650 64.67386
#
# Poissons Ratio (x) = 0.16270 0.33539
# Poissons Ratio (y) = 0.05685 0.30756
# Poissons Ratio (z) = 0.19840 0.52062
#
# Static dielectric constant tensor:
#      x y z
#    x 1.871920 0.000000 0.000000 
#    y 0.000000 1.789740 0.000000 
#    z 0.000000 0.000000 1.816610 
# 
# From -- ./inp_files/55611.got.cif
#   From: 2010.05.17/outbox.cif.g08.bks.cpg/sg65_28_cif.got.tgz:55611.got - 2010.06.03 17:01:31.
