data_PCOD9493445
_publ_section_title
;
Structure prediction by ZEFSAII (Michael W. Deem and Ramdas Pophale) SiO2 
 PCOD9493445
Probable space group: C M M M
;
_chemical_formula_sum "Si O2"
_cell_formula_units_Z 96
_cell_length_a 20.506405
_cell_length_b 30.902436
_cell_length_c 7.955277
_cell_angle_alpha 90.000000
_cell_angle_beta 90.000000
_cell_angle_gamma 90.000000
_cell_volume 5041.242075
_symmetry_space_group_name_H-M "C M M M"
_symmetry_group_IT_number 65
_symmetry_cell_setting 'orthorhombic'
loop_
_space_group_symop_operation_xyz
x,y,z
-x,-y,z
x,-y,-z
-x,y,-z
-x,-y,-z
x,y,-z
-x,y,z
x,-y,z
1/2+x,1/2+y,z
1/2-x,1/2-y,z
1/2+x,1/2-y,-z
1/2-x,1/2+y,-z
1/2-x,1/2-y,-z
1/2+x,1/2+y,-z
1/2-x,1/2+y,z
1/2+x,1/2-y,z
loop_
_atom_site_type_symbol
_atom_site_label
_atom_site_fract_x
_atom_site_fract_y
_atom_site_fract_z
Si Si1 0.709838 0.451208 0.299194
Si Si2 0.569708 0.552638 0.698284
Si Si3 0.072920 0.229863 0.796847
Si Si4 0.799358 0.375199 0.804047
Si Si5 0.427899 0.169247 0.794713
Si Si6 0.714998 0.294512 0.699224
O O1 0.701210 0.454420 0.500000
O O2 0.721644 0.500000 0.235261
O O3 0.639881 0.433940 0.230692
O O4 0.767183 0.417958 0.268610
O O5 0.568070 0.564214 0.500000
O O6 0.500000 0.566945 0.772712
O O7 0.570868 0.500000 0.705843
O O8 0.079767 0.280419 0.746006
O O9 0.137600 0.206590 0.732051
O O10 0.000000 0.215206 0.742961
O O11 0.074053 0.228173 0.000000
O O12 0.868303 0.359298 0.730841
O O13 0.749793 0.335306 0.781917
O O14 0.809272 0.383300 0.000000
O O15 0.500000 0.154707 0.743102
O O16 0.426131 0.169156 0.000000
O O17 0.726088 0.297562 0.500000
O O18 0.750000 0.250000 0.759268
#
# Coordination Sequence:
#
# PCOD9493445 Si02
#       6
#    16  16  16  16  16  16
#     4   9  18  33  52  74 103 135 167 212 267 316
#     4   7  10  20  42  69  91 116 156 200 240 286
#     4   9  17  32  54  76 101 136 176 216 258 305
#     4  11  21  33  54  78 102 134 173 216 259 310
#     4   8  15  29  50  75  99 126 165 212 259 306
#     4  11  22  34  50  75 108 140 170 209 253 307
#
# _framework density 19.042928
#
# number of rings (size 3 to 8) (size 9 to 14) (size 15 to 20)
#    0.000    2.833    1.667    3.500    0.000    1.333 
#    0.000    0.833    0.000    6.000    0.000    5.833 
#    0.000    0.000    0.000    0.000    0.000    0.000 
#
# Total GULP energy -267460.082540 kJ/mol
# GULP energy per Si atom -5572.085053 kJ/mol
# Density = 1.899958 g / cm^3
# Si number density = 19.042928 Si / 1000 Ang^3
#
#
#
# Elastic Constant Matrix: (Units=GPa)
#
#
# Indices 1 2 3 4 5 6 
#
# 1 155.6422 41.0879 -5.6813 0.0000 0.0000 0.0000
# 2 41.0879 48.2399 -3.2300 0.0000 0.0000 0.0000
# 3 -5.6813 -3.2300 13.9840 0.0000 0.0000 0.0000
# 4 0.0000 0.0000 0.0000 20.3416 0.0000 0.0000
# 5 0.0000 0.0000 0.0000 0.0000 14.7311 0.0000
# 6 0.0000 0.0000 0.0000 0.0000 0.0000 22.6279
#
#
#
# Elastic Compliance Matrix: (Units=1/GPa)
#
#
# Indices 1 2 3 4 5 6 
#
# 1 0.008332 -0.006978 0.001773 0.000000 0.000000 0.000000
# 2 -0.006978 0.026899 0.003378 0.000000 0.000000 0.000000
# 3 0.001773 0.003378 0.073011 0.000000 0.000000 0.000000
# 4 0.000000 0.000000 0.000000 0.049160 0.000000 0.000000
# 5 0.000000 0.000000 0.000000 0.000000 0.067884 0.000000
# 6 0.000000 0.000000 0.000000 0.000000 0.000000 0.044193
#
#
# Mechanical properties :
#
#
# Convention : Reuss Voigt Hill
#
# Bulk Modulus (GPa) = 9.56124 31.35774 20.45949
# Shear Modulus (GPa) = 16.23404 23.91940 20.07672
#
# Velocity S-wave (km/s) = 2.92292 3.54796 3.25050
# Velocity P-wave (km/s) = 4.05254 5.76946 4.98547
#
# Compressibility (1/GPa) = 0.10458897
#
# Stress axis : x y z
#
# Youngs Moduli (GPa) = 120.02227 37.17584 13.69661
#
# Poissons Ratio (x) = 0.25941 -0.02429
# Poissons Ratio (y) = 0.83749 -0.04627
# Poissons Ratio (z) = -0.21283 -0.12559
#
# Static dielectric constant tensor:
#      x y z
#    x 1.722190 0.000000 0.000000 
#    y 0.000000 1.641210 0.000000 
#    z 0.000000 0.000000 1.697670 
# 
# From -- ./inp_files/12286.got.cif
#   From: 2010.05.17/outbox.cif.g08.bks.cpg/sg65_7_cif.got.tgz:12286.got - 2010.06.03 17:01:31.
