data_PCOD9493256
_publ_section_title
;
Structure prediction by ZEFSAII (Michael W. Deem and Ramdas Pophale) SiO2 
 PCOD9493256
Probable space group: C M M M
;
_chemical_formula_sum "Si O2"
_cell_formula_units_Z 58
_cell_length_a 25.477446
_cell_length_b 13.704986
_cell_length_c 8.316427
_cell_angle_alpha 90.000000
_cell_angle_beta 90.000000
_cell_angle_gamma 90.000000
_cell_volume 2903.830522
_symmetry_space_group_name_H-M "C M M M"
_symmetry_group_IT_number 65
_symmetry_cell_setting 'orthorhombic'
loop_
_space_group_symop_operation_xyz
x,y,z
-x,-y,z
x,-y,-z
-x,y,-z
-x,-y,-z
x,y,-z
-x,y,z
x,-y,z
1/2+x,1/2+y,z
1/2-x,1/2-y,z
1/2+x,1/2-y,-z
1/2-x,1/2+y,-z
1/2-x,1/2-y,-z
1/2+x,1/2+y,-z
1/2-x,1/2+y,z
1/2+x,1/2-y,z
loop_
_atom_site_type_symbol
_atom_site_label
_atom_site_fract_x
_atom_site_fract_y
_atom_site_fract_z
Si Si1 0.000000 0.659687 0.305516
Si Si2 0.626541 0.500000 0.186906
Si Si3 0.259443 0.500000 0.676429
Si Si4 0.395060 0.287097 0.312748
Si Si5 0.297104 0.826676 0.823486
Si Si6 0.000000 0.500000 0.000000
O O1 0.948931 0.728510 0.290417
O O2 0.000000 0.584749 0.151379
O O3 0.000000 0.624204 0.500000
O O4 0.690158 0.500000 0.207815
O O5 0.604508 0.599926 0.261448
O O6 0.614168 0.500000 0.000000
O O7 0.283339 0.500000 0.500000
O O8 0.222042 0.591949 0.701463
O O9 0.380837 0.283756 0.500000
O O10 0.349567 0.230305 0.218647
O O11 0.250000 0.750000 0.828202
O O12 0.302453 0.872612 0.000000
#
# Coordination Sequence:
#
# PCOD9493256 Si02
#       6
#     8   8   8  16  16   2
#     4  10  27  50  76 109 140 177 233 291 342 408
#     4  12  24  39  66 101 141 178 225 276 335 412
#     4  12  24  39  62  93 130 182 229 272 345 410
#     4  11  24  45  70  99 138 179 225 283 342 406
#     4  11  23  39  63  94 134 175 225 281 335 402
#     4  12  26  48  88  96 140 184 234 284 356 402
#
# _framework density 19.973617000000001
#
# number of rings (size 3 to 8) (size 9 to 14) (size 15 to 20)
#    0.000    0.828    2.759    4.345    3.862    2.759 
#    0.000    4.138    0.000    0.000    0.000    0.000 
#    0.000    0.000    0.000    0.000    0.000    0.000 
#
# Total GULP energy -161624.634596 kJ/mol
# GULP energy per Si atom -5573.263262 kJ/mol
# Density = 1.992816 g / cm^3
# Si number density = 19.973617 Si / 1000 Ang^3
#
#
#
# Elastic Constant Matrix: (Units=GPa)
#
#
# Indices 1 2 3 4 5 6 
#
# 1 105.2711 34.7551 27.1315 0.0000 0.0000 0.0000
# 2 34.7551 124.2702 35.2609 0.0000 0.0000 0.0000
# 3 27.1315 35.2609 106.8552 0.0000 0.0000 0.0000
# 4 0.0000 0.0000 0.0000 33.0405 0.0000 0.0000
# 5 0.0000 0.0000 0.0000 0.0000 53.6563 0.0000
# 6 0.0000 0.0000 0.0000 0.0000 0.0000 4.8325
#
#
#
# Elastic Compliance Matrix: (Units=1/GPa)
#
#
# Indices 1 2 3 4 5 6 
#
# 1 0.010814 -0.002477 -0.001928 0.000000 0.000000 0.000000
# 2 -0.002477 0.009446 -0.002488 0.000000 0.000000 0.000000
# 3 -0.001928 -0.002488 0.010669 0.000000 0.000000 0.000000
# 4 0.000000 0.000000 0.000000 0.030266 0.000000 0.000000
# 5 0.000000 0.000000 0.000000 0.000000 0.018637 0.000000
# 6 0.000000 0.000000 0.000000 0.000000 0.000000 0.206932
#
#
# Mechanical properties :
#
#
# Convention : Reuss Voigt Hill
#
# Bulk Modulus (GPa) = 58.33695 58.96572 58.65133
# Shear Modulus (GPa) = 16.32571 34.25578 25.29075
#
# Velocity S-wave (km/s) = 2.86206 4.14581 3.56224
# Velocity P-wave (km/s) = 6.33974 7.24589 6.80791
#
# Compressibility (1/GPa) = 0.01714179
#
# Stress axis : x y z
#
# Youngs Moduli (GPa) = 92.47155 105.86761 93.72876
#
# Poissons Ratio (x) = 0.26226 0.18074
# Poissons Ratio (y) = 0.22908 0.23320
# Poissons Ratio (z) = 0.17832 0.26340
#
# Static dielectric constant tensor:
#      x y z
#    x 1.766330 0.000000 0.000000 
#    y 0.000000 1.737050 0.000000 
#    z 0.000000 0.000000 1.730410 
# 
# From -- ./inp_files/15475.got.cif
#   From: 2010.05.17/outbox.cif.g08.bks.cpg/sg65_8_cif.got.tgz:15475.got - 2010.06.03 17:01:31.
