data_PCOD9493868
_publ_section_title
;
Structure prediction by ZEFSAII (Michael W. Deem and Ramdas Pophale) SiO2 
 PCOD9493868
Probable space group: C M M M
;
_chemical_formula_sum "Si O2"
_cell_formula_units_Z 52
_cell_length_a 10.518657
_cell_length_b 15.032328
_cell_length_c 14.848592
_cell_angle_alpha 90.000000
_cell_angle_beta 90.000000
_cell_angle_gamma 90.000000
_cell_volume 2347.857914
_symmetry_space_group_name_H-M "C M M M"
_symmetry_group_IT_number 65
_symmetry_cell_setting 'orthorhombic'
loop_
_space_group_symop_operation_xyz
x,y,z
-x,-y,z
x,-y,-z
-x,y,-z
-x,-y,-z
x,y,-z
-x,y,z
x,-y,z
1/2+x,1/2+y,z
1/2-x,1/2-y,z
1/2+x,1/2-y,-z
1/2-x,1/2+y,-z
1/2-x,1/2-y,-z
1/2+x,1/2+y,-z
1/2-x,1/2+y,z
1/2+x,1/2-y,z
loop_
_atom_site_type_symbol
_atom_site_label
_atom_site_fract_x
_atom_site_fract_y
_atom_site_fract_z
Si Si1 0.647263 0.000000 0.170464
Si Si2 0.000000 0.654254 0.397876
Si Si3 0.209611 0.500000 0.629019
Si Si4 0.500000 0.500000 0.373753
Si Si5 0.000000 0.177974 0.742253
Si Si6 0.302991 0.346857 0.902824
O O1 0.723496 0.000000 0.263419
O O2 0.689469 0.085444 0.115701
O O3 0.500000 0.000000 0.193056
O O4 0.877535 0.587457 0.391605
O O5 0.000000 0.693407 0.500000
O O6 0.000000 0.730389 0.318495
O O7 0.352372 0.500000 0.590329
O O8 0.500000 0.405690 0.323283
O O9 0.114496 0.163135 0.812667
O O10 0.250000 0.250000 0.913571
O O11 0.362325 0.372974 0.000000
#
# Coordination Sequence:
#
# PCOD9493868 Si02
#       6
#     8   8   8   4   8  16
#     4  12  23  43  73 101 140 202 245 292 356 439
#     4  11  26  49  80 106 140 191 247 300 371 452
#     4  11  22  46  73 109 142 190 240 304 367 441
#     4  12  26  42  76 104 144 190 238 296 376 424
#     4  12  24  46  72 100 144 190 240 293 369 435
#     4  11  25  41  65 104 144 189 240 297 357 425
#
# _framework density 22.147846999999999
#
# number of rings (size 3 to 8) (size 9 to 14) (size 15 to 20)
#    0.000    0.615    4.615    3.692    2.154    1.231 
#    0.000    8.846    0.000    0.000    0.000    0.000 
#    0.000    0.000    0.000    0.000    0.000    0.000 
#
# Total GULP energy -144832.787685 kJ/mol
# GULP energy per Si atom -5570.491834 kJ/mol
# Density = 2.209744 g / cm^3
# Si number density = 22.147847 Si / 1000 Ang^3
#
#
#
# Elastic Constant Matrix: (Units=GPa)
#
#
# Indices 1 2 3 4 5 6 
#
# 1 147.8965 43.1234 44.6926 0.0000 0.0000 0.0000
# 2 43.1234 133.3129 54.0620 0.0000 0.0000 0.0000
# 3 44.6926 54.0620 160.0984 0.0000 0.0000 0.0000
# 4 0.0000 0.0000 0.0000 16.2307 0.0000 0.0000
# 5 0.0000 0.0000 0.0000 0.0000 215.6894 0.0000
# 6 0.0000 0.0000 0.0000 0.0000 0.0000 13.8419
#
#
#
# Elastic Compliance Matrix: (Units=1/GPa)
#
#
# Indices 1 2 3 4 5 6 
#
# 1 0.007777 -0.001895 -0.001531 0.000000 0.000000 0.000000
# 2 -0.001895 0.009153 -0.002562 0.000000 0.000000 0.000000
# 3 -0.001531 -0.002562 0.007539 0.000000 0.000000 0.000000
# 4 0.000000 0.000000 0.000000 0.061611 0.000000 0.000000
# 5 0.000000 0.000000 0.000000 0.000000 0.004636 0.000000
# 6 0.000000 0.000000 0.000000 0.000000 0.000000 0.072244
#
#
# Mechanical properties :
#
#
# Convention : Reuss Voigt Hill
#
# Bulk Modulus (GPa) = 80.04492 80.56265 80.30378
# Shear Modulus (GPa) = 27.91739 69.11440 48.51590
#
# Velocity S-wave (km/s) = 3.55421 5.59229 4.68541
# Velocity P-wave (km/s) = 7.28442 8.84037 8.09984
#
# Compressibility (1/GPa) = 0.01249299
#
# Stress axis : x y z
#
# Youngs Moduli (GPa) = 128.59090 109.25486 132.64947
#
# Poissons Ratio (x) = 0.20700 0.20310
# Poissons Ratio (y) = 0.24363 0.33983
# Poissons Ratio (z) = 0.19689 0.27989
#
# Static dielectric constant tensor:
#      x y z
#    x 1.844490 0.000000 0.000000 
#    y 0.000000 1.753630 0.000000 
#    z 0.000000 0.000000 1.896620 
# 
# From -- ./inp_files/37506.got.cif
#   From: 2010.05.17/outbox.cif.g08.bks.cpg/sg65_19_cif.got.tgz:37506.got - 2010.06.03 17:01:31.
