data_PCOD9493835
_publ_section_title
;
Structure prediction by ZEFSAII (Michael W. Deem and Ramdas Pophale) SiO2 
 PCOD9493835
Probable space group: C M M M
;
_chemical_formula_sum "Si O2"
_cell_formula_units_Z 56
_cell_length_a 11.216279
_cell_length_b 25.545592
_cell_length_c 10.344434
_cell_angle_alpha 90.000000
_cell_angle_beta 90.000000
_cell_angle_gamma 90.000000
_cell_volume 2963.954335
_symmetry_space_group_name_H-M "C M M M"
_symmetry_group_IT_number 65
_symmetry_cell_setting 'orthorhombic'
loop_
_space_group_symop_operation_xyz
x,y,z
-x,-y,z
x,-y,-z
-x,y,-z
-x,-y,-z
x,y,-z
-x,y,z
x,-y,z
1/2+x,1/2+y,z
1/2-x,1/2-y,z
1/2+x,1/2-y,-z
1/2-x,1/2+y,-z
1/2-x,1/2-y,-z
1/2+x,1/2+y,-z
1/2-x,1/2+y,z
1/2+x,1/2-y,z
loop_
_atom_site_type_symbol
_atom_site_label
_atom_site_fract_x
_atom_site_fract_y
_atom_site_fract_z
Si Si1 0.856839 0.292280 0.500000
Si Si2 0.357593 0.441656 0.850587
Si Si3 0.638026 0.790879 0.000000
Si Si4 0.000000 0.561745 0.347276
Si Si5 0.809822 0.637982 0.248308
O O1 0.750000 0.250000 0.500000
O O2 0.831327 0.326443 0.627216
O O3 0.000000 0.276921 0.500000
O O4 0.500000 0.442353 0.852351
O O5 0.319864 0.500000 0.802901
O O6 0.316020 0.390028 0.775328
O O7 0.315420 0.436865 0.000000
O O8 0.750000 0.750000 0.000000
O O9 0.653325 0.827486 0.874373
O O10 0.500000 0.769539 0.000000
O O11 0.890285 0.587320 0.273642
O O12 0.000000 0.500000 0.341298
O O13 0.000000 0.576955 0.500000
#
# Coordination Sequence:
#
# PCOD9493835 Si02
#       5
#     8  16   8   8  16
#     4  12  26  46  68  89 128 174 225 280 334 388
#     4   9  19  36  60  93 132 170 207 255 321 396
#     4  12  26  42  64  91 128 166 219 280 328 382
#     4  11  22  39  67  97 131 171 207 259 340 403
#     4  12  21  42  64  92 128 163 214 269 327 388
#
# _framework density 18.893678999999999
#
# number of rings (size 3 to 8) (size 9 to 14) (size 15 to 20)
#    0.000    1.000    5.714    2.571    0.000    2.286 
#    0.000    0.714    0.000    1.714    0.000    0.000 
#    0.000    0.000    0.000    0.000    0.000    0.000 
#
# Total GULP energy -155984.006079 kJ/mol
# GULP energy per Si atom -5570.857360 kJ/mol
# Density = 1.885068 g / cm^3
# Si number density = 18.893679 Si / 1000 Ang^3
#
#
#
# Elastic Constant Matrix: (Units=GPa)
#
#
# Indices 1 2 3 4 5 6 
#
# 1 105.7552 64.6623 30.7369 0.0000 0.0000 0.0000
# 2 64.6623 101.5968 54.1466 0.0000 0.0000 0.0000
# 3 30.7369 54.1466 123.9226 0.0000 0.0000 0.0000
# 4 0.0000 0.0000 0.0000 13.6841 0.0000 0.0000
# 5 0.0000 0.0000 0.0000 0.0000 23.2875 0.0000
# 6 0.0000 0.0000 0.0000 0.0000 0.0000 32.3734
#
#
#
# Elastic Compliance Matrix: (Units=1/GPa)
#
#
# Indices 1 2 3 4 5 6 
#
# 1 0.015515 -0.010199 0.000608 0.000000 0.000000 0.000000
# 2 -0.010199 0.019535 -0.006006 0.000000 0.000000 0.000000
# 3 0.000608 -0.006006 0.010543 0.000000 0.000000 0.000000
# 4 0.000000 0.000000 0.000000 0.073077 0.000000 0.000000
# 5 0.000000 0.000000 0.000000 0.000000 0.042942 0.000000
# 6 0.000000 0.000000 0.000000 0.000000 0.000000 0.030890
#
#
# Mechanical properties :
#
#
# Convention : Reuss Voigt Hill
#
# Bulk Modulus (GPa) = 69.44691 70.04069 69.74380
# Shear Modulus (GPa) = 21.88240 25.98424 23.93332
#
# Velocity S-wave (km/s) = 3.40691 3.71251 3.56299
# Velocity P-wave (km/s) = 7.23274 7.45174 7.34306
#
# Compressibility (1/GPa) = 0.01439949
#
# Stress axis : x y z
#
# Youngs Moduli (GPa) = 64.45416 51.19081 94.85000
#
# Poissons Ratio (x) = 0.52208 -0.05767
# Poissons Ratio (y) = 0.65735 0.56966
# Poissons Ratio (z) = -0.03919 0.30745
#
# Static dielectric constant tensor:
#      x y z
#    x 1.545010 0.000000 0.000000 
#    y 0.000000 1.666510 0.000000 
#    z 0.000000 0.000000 1.626330 
# 
# From -- ./inp_files/4473.got.cif
#   From: 2010.05.17/outbox.cif.g08.bks.cpg/sg65_3_cif.got.tgz:4473.got - 2010.06.03 17:01:31.
