data_PCOD9493433
_publ_section_title
;
Structure prediction by ZEFSAII (Michael W. Deem and Ramdas Pophale) SiO2 
 PCOD9493433
Probable space group: C M M M
;
_chemical_formula_sum "Si O2"
_cell_formula_units_Z 80
_cell_length_a 19.742298
_cell_length_b 8.618962
_cell_length_c 26.906146
_cell_angle_alpha 90.000000
_cell_angle_beta 90.000000
_cell_angle_gamma 90.000000
_cell_volume 4578.299119
_symmetry_space_group_name_H-M "C M M M"
_symmetry_group_IT_number 65
_symmetry_cell_setting 'orthorhombic'
loop_
_space_group_symop_operation_xyz
x,y,z
-x,-y,z
x,-y,-z
-x,y,-z
-x,-y,-z
x,y,-z
-x,y,z
x,-y,z
1/2+x,1/2+y,z
1/2-x,1/2-y,z
1/2+x,1/2-y,-z
1/2-x,1/2+y,-z
1/2-x,1/2-y,-z
1/2+x,1/2+y,-z
1/2-x,1/2+y,z
1/2+x,1/2-y,z
loop_
_atom_site_type_symbol
_atom_site_label
_atom_site_fract_x
_atom_site_fract_y
_atom_site_fract_z
Si Si1 0.673709 0.312457 0.644875
Si Si2 0.921165 0.187013 0.056974
Si Si3 0.326325 0.815954 0.142678
Si Si4 0.673276 0.685882 0.754331
Si Si5 0.078166 0.189132 0.555848
O O1 0.676734 0.500000 0.643265
O O2 0.750000 0.250000 0.640235
O O3 0.645340 0.271043 0.699835
O O4 0.627021 0.256897 0.599711
O O5 0.872094 0.262127 0.096974
O O6 0.000000 0.228010 0.065775
O O7 0.915960 0.000000 0.060390
O O8 0.904400 0.230767 0.000000
O O9 0.250000 0.750000 0.137422
O O10 0.356553 0.754277 0.195046
O O11 0.321891 0.000000 0.144874
O O12 0.674220 0.500000 0.758348
O O13 0.750000 0.750000 0.753367
O O14 0.098723 0.237291 0.500000
O O15 0.000000 0.235415 0.563723
O O16 0.079187 0.000000 0.556438
#
# Coordination Sequence:
#
# PCOD9493433 Si02
#       5
#    16  16  16  16  16
#     4   9  17  28  45  69  93 119 154 194 236 281
#     4   9  19  37  58  77 100 131 164 199 242 290
#     4  11  21  33  52  76 102 131 165 204 243 287
#     4   9  16  28  45  66  94 125 157 194 238 286
#     4   8  14  26  44  65  90 120 154 192 232 276
#
# _framework density 17.473738000000001
#
# number of rings (size 3 to 8) (size 9 to 14) (size 15 to 20)
#    0.000    2.800    0.000    4.800    0.000    2.400 
#    0.000    2.000    0.000    4.200    0.000    1.400 
#    0.000    0.000    0.000    0.000    0.000    0.000 
#
# Total GULP energy -222833.970541 kJ/mol
# GULP energy per Si atom -5570.849264 kJ/mol
# Density = 1.743397 g / cm^3
# Si number density = 17.473738 Si / 1000 Ang^3
#
#
#
# Elastic Constant Matrix: (Units=GPa)
#
#
# Indices 1 2 3 4 5 6 
#
# 1 63.0323 27.4093 92.7608 0.0000 0.0000 0.0000
# 2 27.4093 47.8867 54.3498 0.0000 0.0000 0.0000
# 3 92.7608 54.3498 208.2481 0.0000 0.0000 0.0000
# 4 0.0000 0.0000 0.0000 17.9127 0.0000 0.0000
# 5 0.0000 0.0000 0.0000 0.0000 -17.8133 0.0000
# 6 0.0000 0.0000 0.0000 0.0000 0.0000 19.1051
#
#
#
# Elastic Compliance Matrix: (Units=1/GPa)
#
#
# Indices 1 2 3 4 5 6 
#
# 1 0.046708 -0.004435 -0.019648 0.000000 0.000000 0.000000
# 2 -0.004435 0.030093 -0.005878 0.000000 0.000000 0.000000
# 3 -0.019648 -0.005878 0.015088 0.000000 0.000000 0.000000
# 4 0.000000 0.000000 0.000000 0.055826 0.000000 0.000000
# 5 0.000000 0.000000 0.000000 0.000000 -0.056138 0.000000
# 6 0.000000 0.000000 0.000000 0.000000 0.000000 0.052342
#
#
# Mechanical properties :
#
#
# Convention : Reuss Voigt Hill
#
# Bulk Modulus (GPa) = 31.28279 74.24521 52.76400
# Shear Modulus (GPa) = 23.31037 13.48405 18.39721
#
# Velocity S-wave (km/s) = 3.65639 2.78092 3.24828
# Velocity P-wave (km/s) = 5.98057 7.27277 6.65809
#
# Compressibility (1/GPa) = 0.03196646
#
# Stress axis : x y z
#
# Youngs Moduli (GPa) = 21.40964 33.23055 66.27809
#
# Poissons Ratio (x) = 0.14738 1.30222
# Poissons Ratio (y) = 0.09495 0.38960
# Poissons Ratio (z) = 0.42065 0.19534
#
# Static dielectric constant tensor:
#      x y z
#    x 1.555020 0.000000 0.000000 
#    y 0.000000 1.592590 0.000000 
#    z 0.000000 0.000000 1.634170 
# 
# From -- ./inp_files/75013.got.cif
#   From: 2010.05.17/outbox.cif.g08.bks.cpg/sg65_38_cif.got.tgz:75013.got - 2010.06.03 17:01:31.
