data_PCOD9493804
_publ_section_title
;
Structure prediction by ZEFSAII (Michael W. Deem and Ramdas Pophale) SiO2 
 PCOD9493804
Probable space group: C M M M
;
_chemical_formula_sum "Si O2"
_cell_formula_units_Z 88
_cell_length_a 21.862175
_cell_length_b 8.791538
_cell_length_c 25.857713
_cell_angle_alpha 90.000000
_cell_angle_beta 90.000000
_cell_angle_gamma 90.000000
_cell_volume 4969.907833
_symmetry_space_group_name_H-M "C M M M"
_symmetry_group_IT_number 65
_symmetry_cell_setting 'orthorhombic'
loop_
_space_group_symop_operation_xyz
x,y,z
-x,-y,z
x,-y,-z
-x,y,-z
-x,-y,-z
x,y,-z
-x,y,z
x,-y,z
1/2+x,1/2+y,z
1/2-x,1/2-y,z
1/2+x,1/2-y,-z
1/2-x,1/2+y,-z
1/2-x,1/2-y,-z
1/2+x,1/2+y,-z
1/2-x,1/2+y,z
1/2+x,1/2-y,z
loop_
_atom_site_type_symbol
_atom_site_label
_atom_site_fract_x
_atom_site_fract_y
_atom_site_fract_z
Si Si1 0.570501 0.817300 0.216704
Si Si2 0.074644 0.675751 0.000000
Si Si3 0.816418 0.682031 0.500000
Si Si4 0.425999 0.672587 0.106605
Si Si5 0.000000 0.816397 0.560998
Si Si6 0.682746 0.816545 0.291273
Si Si7 0.628988 0.682934 0.396021
O O1 0.500000 0.763259 0.228445
O O2 0.586609 0.765623 0.158563
O O3 0.625893 0.768152 0.254199
O O4 0.568390 0.000000 0.218745
O O5 0.095769 0.754870 0.947130
O O6 0.092180 0.500000 0.000000
O O7 0.000000 0.681680 0.000000
O O8 0.818810 0.500000 0.500000
O O9 0.750000 0.750000 0.500000
O O10 0.845255 0.751557 0.448959
O O11 0.500000 0.668704 0.102990
O O12 0.404021 0.500000 0.111845
O O13 0.941966 0.775728 0.595974
O O14 0.000000 0.760593 0.500000
O O15 0.000000 0.000000 0.555965
O O16 0.750000 0.750000 0.277974
O O17 0.662915 0.757911 0.347820
O O18 0.686549 0.000000 0.290710
O O19 0.635431 0.500000 0.393259
#
# Coordination Sequence:
#
# PCOD9493804 Si02
#       7
#    16   8   8  16   8  16  16
#     4   9  19  36  56  78 108 145 184 228 278 330
#     4   9  15  23  39  65 102 147 186 221 270 327
#     4  12  24  39  58  81 107 140 178 220 271 324
#     4   9  16  26  43  71 106 141 181 228 275 324
#     4   9  18  36  60  86 114 142 172 211 266 327
#     4  11  24  41  60  83 112 146 187 233 279 329
#     4  11  22  39  61  84 112 143 178 220 269 327
#
# _framework density 17.706565000000001
#
# number of rings (size 3 to 8) (size 9 to 14) (size 15 to 20)
#    0.000    2.000    0.909    3.273    1.273    4.727 
#    0.000    1.818    0.000    0.000    0.000    0.636 
#    0.000    0.000    0.000    0.000    0.000    0.000 
#
# Total GULP energy -245176.819802 kJ/mol
# GULP energy per Si atom -5572.200450 kJ/mol
# Density = 1.766626 g / cm^3
# Si number density = 17.706565 Si / 1000 Ang^3
#
#
#
# Elastic Constant Matrix: (Units=GPa)
#
#
# Indices 1 2 3 4 5 6 
#
# 1 117.0726 32.9890 58.0814 0.0000 0.0000 0.0000
# 2 32.9890 41.3668 26.0176 0.0000 0.0000 0.0000
# 3 58.0814 26.0176 125.9419 0.0000 0.0000 0.0000
# 4 0.0000 0.0000 0.0000 64.1207 0.0000 0.0000
# 5 0.0000 0.0000 0.0000 0.0000 -10.1538 0.0000
# 6 0.0000 0.0000 0.0000 0.0000 0.0000 12.3985
#
#
#
# Elastic Compliance Matrix: (Units=1/GPa)
#
#
# Indices 1 2 3 4 5 6 
#
# 1 0.012813 -0.007473 -0.004365 0.000000 0.000000 0.000000
# 2 -0.007473 0.032142 -0.003194 0.000000 0.000000 0.000000
# 3 -0.004365 -0.003194 0.010613 0.000000 0.000000 0.000000
# 4 0.000000 0.000000 0.000000 0.015596 0.000000 0.000000
# 5 0.000000 0.000000 0.000000 0.000000 -0.098485 0.000000
# 6 0.000000 0.000000 0.000000 0.000000 0.000000 0.080655
#
#
# Mechanical properties :
#
#
# Convention : Reuss Voigt Hill
#
# Bulk Modulus (GPa) = 39.20857 57.61748 48.41303
# Shear Modulus (GPa) = 54.40774 24.42596 39.41685
#
# Velocity S-wave (km/s) = 5.54925 3.71817 4.72329
# Velocity P-wave (km/s) = 7.95302 7.14450 7.55958
#
# Compressibility (1/GPa) = 0.02550463
#
# Stress axis : x y z
#
# Youngs Moduli (GPa) = 78.04532 31.11208 94.22251
#
# Poissons Ratio (x) = 0.23249 0.41132
# Poissons Ratio (y) = 0.58319 0.30093
# Poissons Ratio (z) = 0.34070 0.09937
#
# Static dielectric constant tensor:
#      x y z
#    x 2.090370 0.000000 0.000000 
#    y 0.000000 1.599330 0.000000 
#    z 0.000000 0.000000 1.566310 
# 
# From -- ./inp_files/71060.got.cif
#   From: 2010.05.17/outbox.cif.g08.bks.cpg/sg65_36_cif.got.tgz:71060.got - 2010.06.03 17:01:31.
