data_PCOD9493174
_publ_section_title
;
Structure prediction by ZEFSAII (Michael W. Deem and Ramdas Pophale) SiO2 
 PCOD9493174
Probable space group: C M M M
;
_chemical_formula_sum "Si O2"
_cell_formula_units_Z 84
_cell_length_a 14.845445
_cell_length_b 14.254044
_cell_length_c 20.996465
_cell_angle_alpha 90.000000
_cell_angle_beta 90.000000
_cell_angle_gamma 90.000000
_cell_volume 4443.012118
_symmetry_space_group_name_H-M "C M M M"
_symmetry_group_IT_number 65
_symmetry_cell_setting 'orthorhombic'
loop_
_space_group_symop_operation_xyz
x,y,z
-x,-y,z
x,-y,-z
-x,y,-z
-x,-y,-z
x,y,-z
-x,y,z
x,-y,z
1/2+x,1/2+y,z
1/2-x,1/2-y,z
1/2+x,1/2-y,-z
1/2-x,1/2+y,-z
1/2-x,1/2-y,-z
1/2+x,1/2+y,-z
1/2-x,1/2+y,z
1/2+x,1/2-y,z
loop_
_atom_site_type_symbol
_atom_site_label
_atom_site_fract_x
_atom_site_fract_y
_atom_site_fract_z
Si Si1 0.000000 0.106455 0.923739
Si Si2 0.232559 0.500000 0.575538
Si Si3 0.500000 0.240492 0.500000
Si Si4 0.892637 0.000000 0.674958
Si Si5 0.500000 0.889175 0.923741
Si Si6 0.352714 0.251487 0.125835
Si Si7 0.107542 0.796106 0.731500
Si Si8 0.657742 0.201661 0.399745
O O1 0.911961 0.161820 0.900269
O O2 0.000000 0.000000 0.899741
O O3 0.000000 0.106489 0.000000
O O4 0.249474 0.500000 0.500000
O O5 0.326608 0.500000 0.614113
O O6 0.174760 0.408708 0.593442
O O7 0.578018 0.235713 0.444467
O O8 0.873272 0.904910 0.714081
O O9 0.000000 0.000000 0.658315
O O10 0.411829 0.838546 0.894752
O O11 0.500000 0.000000 0.911623
O O12 0.500000 0.873171 0.000000
O O13 0.250000 0.250000 0.102152
O O14 0.352095 0.263325 0.201967
O O15 0.139380 0.733565 0.672374
O O16 0.000000 0.787904 0.737614
O O17 0.750000 0.250000 0.420655
#
# Coordination Sequence:
#
# PCOD9493174 Si02
#       8
#     8   8   4   8   8  16  16  16
#     4  10  23  42  66 101 141 177 220 272 324 390
#     4  12  26  43  66  92 128 170 216 270 330 408
#     4  12  26  41  68  87 120 170 208 263 328 397
#     4  10  24  41  64  96 126 168 212 266 344 380
#     4  10  23  46  68  95 143 186 227 279 326 387
#     4  11  23  40  68 101 133 178 225 274 333 398
#     4  11  22  44  68  93 131 172 211 272 333 396
#     4  12  25  45  64  93 127 164 214 269 331 395
#
# _framework density 18.906092000000001
#
# number of rings (size 3 to 8) (size 9 to 14) (size 15 to 20)
#    0.000    0.952    5.714    2.000    1.333    3.238 
#    1.714    1.905    0.000    0.000    0.000    0.000 
#    0.000    0.000    0.000    0.000    0.000    0.000 
#
# Total GULP energy -234215.843419 kJ/mol
# GULP energy per Si atom -5576.567700 kJ/mol
# Density = 1.886306 g / cm^3
# Si number density = 18.906092 Si / 1000 Ang^3
#
#
#
# Elastic Constant Matrix: (Units=GPa)
#
#
# Indices 1 2 3 4 5 6 
#
# 1 160.1247 47.8838 46.2286 0.0000 0.0000 0.0000
# 2 47.8838 119.7585 47.8554 0.0000 0.0000 0.0000
# 3 46.2286 47.8554 121.2792 0.0000 0.0000 0.0000
# 4 0.0000 0.0000 0.0000 0.8521 0.0000 0.0000
# 5 0.0000 0.0000 0.0000 0.0000 115.3890 0.0000
# 6 0.0000 0.0000 0.0000 0.0000 0.0000 -4.5266
#
#
#
# Elastic Compliance Matrix: (Units=1/GPa)
#
#
# Indices 1 2 3 4 5 6 
#
# 1 0.007474 -0.002196 -0.001982 0.000000 0.000000 0.000000
# 2 -0.002196 0.010559 -0.003329 0.000000 0.000000 0.000000
# 3 -0.001982 -0.003329 0.010315 0.000000 0.000000 0.000000
# 4 0.000000 0.000000 0.000000 1.173553 0.000000 0.000000
# 5 0.000000 0.000000 0.000000 0.000000 0.008666 0.000000
# 6 0.000000 0.000000 0.000000 0.000000 0.000000 -0.220917
#
#
# Mechanical properties :
#
#
# Convention : Reuss Voigt Hill
#
# Bulk Modulus (GPa) = 75.00777 76.12200 75.56488
# Shear Modulus (GPa) = 4.95486 39.62255 22.28871
#
# Velocity S-wave (km/s) = 1.62064 4.58291 3.43726
# Velocity P-wave (km/s) = 6.57738 8.26769 7.47050
#
# Compressibility (1/GPa) = 0.01333195
#
# Stress axis : x y z
#
# Youngs Moduli (GPa) = 133.79296 94.70935 96.94912
#
# Poissons Ratio (x) = 0.20801 0.19219
# Poissons Ratio (y) = 0.29385 0.32276
# Poissons Ratio (z) = 0.26522 0.31530
#
# Static dielectric constant tensor:
#      x y z
#    x 1.640100 0.000000 0.000000 
#    y 0.000000 1.226350 0.000000 
#    z 0.000000 0.000000 1.519160 
# 
# From -- ./inp_files/62538.got.cif
#   From: 2010.05.17/outbox.cif.g08.bks.cpg/sg65_32_cif.got.tgz:62538.got - 2010.06.03 17:01:31.
