data_PCOD9493609
_publ_section_title
;
Structure prediction by ZEFSAII (Michael W. Deem and Ramdas Pophale) SiO2 
 PCOD9493609
Probable space group: C M M M
;
_chemical_formula_sum "Si O2"
_cell_formula_units_Z 88
_cell_length_a 8.305549
_cell_length_b 19.191911
_cell_length_c 29.662920
_cell_angle_alpha 90.000000
_cell_angle_beta 90.000000
_cell_angle_gamma 90.000000
_cell_volume 4728.250381
_symmetry_space_group_name_H-M "C M M M"
_symmetry_group_IT_number 65
_symmetry_cell_setting 'orthorhombic'
loop_
_space_group_symop_operation_xyz
x,y,z
-x,-y,z
x,-y,-z
-x,y,-z
-x,-y,-z
x,y,-z
-x,y,z
x,-y,z
1/2+x,1/2+y,z
1/2-x,1/2-y,z
1/2+x,1/2-y,-z
1/2-x,1/2+y,-z
1/2-x,1/2-y,-z
1/2+x,1/2+y,-z
1/2-x,1/2+y,z
1/2+x,1/2-y,z
loop_
_atom_site_type_symbol
_atom_site_label
_atom_site_fract_x
_atom_site_fract_y
_atom_site_fract_z
Si Si1 0.186311 0.415254 0.182575
Si Si2 0.697401 0.080836 0.719110
Si Si3 0.805658 0.920086 0.448899
Si Si4 0.195212 0.419450 0.915769
Si Si5 0.308952 0.329275 0.000000
Si Si6 0.192086 0.671003 0.634286
O O1 0.184241 0.500000 0.182751
O O2 0.256059 0.395308 0.231243
O O3 0.256462 0.395969 0.133849
O O4 0.000000 0.391792 0.182514
O O5 0.500000 0.081759 0.720478
O O6 0.752629 0.128657 0.678098
O O7 0.743441 0.000000 0.711941
O O8 0.754083 0.902088 0.500000
O O9 0.744180 0.868645 0.410894
O O10 0.000000 0.919191 0.448389
O O11 0.754237 0.000000 0.439691
O O12 0.245546 0.500000 0.923612
O O13 0.000000 0.419896 0.913874
O O14 0.248287 0.370187 0.955924
O O15 0.250000 0.250000 0.000000
O O16 0.500000 0.329879 0.000000
O O17 0.250000 0.750000 0.634511
O O18 0.000000 0.670415 0.636285
#
# Coordination Sequence:
#
# PCOD9493609 Si02
#       6
#    16  16  16  16   8  16
#     4   7  11  23  47  77 103 127 159 201 247 295
#     4   8  14  27  49  76 102 129 166 209 250 294
#     4   9  19  37  59  80 102 129 163 207 259 311
#     4   9  17  32  56  82 105 131 165 204 248 302
#     4  12  25  38  51  69  99 137 173 212 257 302
#     4  11  22  34  50  74 106 142 176 211 250 295
#
# _framework density 18.611536000000001
#
# number of rings (size 3 to 8) (size 9 to 14) (size 15 to 20)
#    0.000    2.909    0.000    4.909    0.000    3.273 
#    0.000    1.818    0.000    4.364    0.000    5.091 
#    0.000    0.000    0.000    0.000    0.000    0.000 
#
# Total GULP energy -245212.709740 kJ/mol
# GULP energy per Si atom -5573.016130 kJ/mol
# Density = 1.856918 g / cm^3
# Si number density = 18.611536 Si / 1000 Ang^3
#
#
#
# Elastic Constant Matrix: (Units=GPa)
#
#
# Indices 1 2 3 4 5 6 
#
# 1 18.5509 19.0607 25.3581 0.0000 0.0000 0.0000
# 2 19.0607 115.3149 120.7048 0.0000 0.0000 0.0000
# 3 25.3581 120.7048 221.2889 0.0000 0.0000 0.0000
# 4 0.0000 0.0000 0.0000 -7.4365 0.0000 0.0000
# 5 0.0000 0.0000 0.0000 0.0000 1.8772 0.0000
# 6 0.0000 0.0000 0.0000 0.0000 0.0000 3.1611
#
#
#
# Elastic Compliance Matrix: (Units=1/GPa)
#
#
# Indices 1 2 3 4 5 6 
#
# 1 0.066258 -0.007003 -0.003773 0.000000 0.000000 0.000000
# 2 -0.007003 0.020952 -0.010626 0.000000 0.000000 0.000000
# 3 -0.003773 -0.010626 0.010748 0.000000 0.000000 0.000000
# 4 0.000000 0.000000 0.000000 -0.134473 0.000000 0.000000
# 5 0.000000 0.000000 0.000000 0.000000 0.532719 0.000000
# 6 0.000000 0.000000 0.000000 0.000000 0.000000 0.316345
#
#
# Mechanical properties :
#
#
# Convention : Reuss Voigt Hill
#
# Bulk Modulus (GPa) = 18.13091 76.15576 47.14334
# Shear Modulus (GPa) = 5.72254 12.18910 8.95582
#
# Velocity S-wave (km/s) = 1.75539 2.56192 2.19600
# Velocity P-wave (km/s) = 3.72444 7.05398 5.64048
#
# Compressibility (1/GPa) = 0.05515442
#
# Stress axis : x y z
#
# Youngs Moduli (GPa) = 15.09244 47.72744 93.04426
#
# Poissons Ratio (x) = 0.33421 0.35107
# Poissons Ratio (y) = 0.10569 0.98871
# Poissons Ratio (z) = 0.05695 0.50716
#
# Static dielectric constant tensor:
#      x y z
#    x 1.653570 0.000000 0.000000 
#    y 0.000000 1.639850 0.000000 
#    z 0.000000 0.000000 1.682470 
# 
# From -- ./inp_files/76437.got.cif
#   From: 2010.05.17/outbox.cif.g08.bks.cpg/sg65_39_cif.got.tgz:76437.got - 2010.06.03 17:01:31.
