data_PCOD9493547
_publ_section_title
;
Structure prediction by ZEFSAII (Michael W. Deem and Ramdas Pophale) SiO2 
 PCOD9493547
Probable space group: C M M M
;
_chemical_formula_sum "Si O2"
_cell_formula_units_Z 72
_cell_length_a 17.464280
_cell_length_b 15.077035
_cell_length_c 13.876756
_cell_angle_alpha 90.000000
_cell_angle_beta 90.000000
_cell_angle_gamma 90.000000
_cell_volume 3653.882528
_symmetry_space_group_name_H-M "C M M M"
_symmetry_group_IT_number 65
_symmetry_cell_setting 'orthorhombic'
loop_
_space_group_symop_operation_xyz
x,y,z
-x,-y,z
x,-y,-z
-x,y,-z
-x,-y,-z
x,y,-z
-x,y,z
x,-y,z
1/2+x,1/2+y,z
1/2-x,1/2-y,z
1/2+x,1/2-y,-z
1/2-x,1/2+y,-z
1/2-x,1/2-y,-z
1/2+x,1/2+y,-z
1/2-x,1/2+y,z
1/2+x,1/2-y,z
loop_
_atom_site_type_symbol
_atom_site_label
_atom_site_fract_x
_atom_site_fract_y
_atom_site_fract_z
Si Si1 0.636319 0.899021 0.744663
Si Si2 0.000000 0.608013 0.392218
Si Si3 0.590073 0.394418 0.739687
Si Si4 0.657634 0.745040 0.888728
Si Si5 0.726977 0.646534 0.609624
O O1 0.574780 0.866316 0.666512
O O2 0.632333 0.834240 0.834692
O O3 0.717072 0.896424 0.688770
O O4 0.618809 0.000000 0.771733
O O5 0.000000 0.500000 0.397295
O O6 0.000000 0.643106 0.500000
O O7 0.500000 0.374626 0.728052
O O8 0.598147 0.500000 0.756360
O O9 0.625000 0.337016 0.827369
O O10 0.641153 0.368533 0.647052
O O11 0.750000 0.750000 0.884485
O O12 0.634197 0.740290 0.000000
O O13 0.738099 0.613952 0.500000
O O14 0.750000 0.750000 0.611124
#
# Coordination Sequence:
#
# PCOD9493547 Si02
#       5
#    16   8  16  16  16
#     4  11  21  38  63  91 126 163 205 256 313 383
#     4   9  20  36  57  91 126 157 197 243 299 371
#     4  11  24  43  66  93 128 169 215 265 316 375
#     4  11  24  43  65  90 121 159 208 266 324 375
#     4  11  22  39  64  94 128 169 214 257 314 382
#
# _framework density 19.705067
#
# number of rings (size 3 to 8) (size 9 to 14) (size 15 to 20)
#    0.000    1.222    4.444    1.333    1.556    4.444 
#    0.000    4.444    0.000    2.000    0.000    0.000 
#    0.000    0.000    0.000    0.000    0.000    0.000 
#
# Total GULP energy -201174.995563 kJ/mol
# GULP energy per Si atom -5588.194321 kJ/mol
# Density = 1.966022 g / cm^3
# Si number density = 19.705067 Si / 1000 Ang^3
#
#
#
# Elastic Constant Matrix: (Units=GPa)
#
#
# Indices 1 2 3 4 5 6 
#
# 1 105.1322 23.1421 22.0151 0.0000 0.0000 0.0000
# 2 23.1421 99.4163 35.7122 0.0000 0.0000 0.0000
# 3 22.0151 35.7122 93.9328 0.0000 0.0000 0.0000
# 4 0.0000 0.0000 0.0000 1.1362 0.0000 0.0000
# 5 0.0000 0.0000 0.0000 0.0000 23.6963 0.0000
# 6 0.0000 0.0000 0.0000 0.0000 0.0000 27.0368
#
#
#
# Elastic Compliance Matrix: (Units=1/GPa)
#
#
# Indices 1 2 3 4 5 6 
#
# 1 0.010264 -0.001766 -0.001734 0.000000 0.000000 0.000000
# 2 -0.001766 0.011954 -0.004131 0.000000 0.000000 0.000000
# 3 -0.001734 -0.004131 0.012623 0.000000 0.000000 0.000000
# 4 0.000000 0.000000 0.000000 0.880124 0.000000 0.000000
# 5 0.000000 0.000000 0.000000 0.000000 0.042201 0.000000
# 6 0.000000 0.000000 0.000000 0.000000 0.000000 0.036987
#
#
# Mechanical properties :
#
#
# Convention : Reuss Voigt Hill
#
# Bulk Modulus (GPa) = 51.07719 51.13555 51.10637
# Shear Modulus (GPa) = 4.92155 24.88133 14.90144
#
# Velocity S-wave (km/s) = 1.58210 3.55729 2.75294
# Velocity P-wave (km/s) = 5.41429 6.54822 6.00806
#
# Compressibility (1/GPa) = 0.01957821
#
# Stress axis : x y z
#
# Youngs Moduli (GPa) = 97.43033 83.65609 79.22202
#
# Poissons Ratio (x) = 0.14776 0.13737
# Poissons Ratio (y) = 0.17209 0.32724
# Poissons Ratio (z) = 0.16894 0.34556
#
# Static dielectric constant tensor:
#      x y z
#    x 1.713370 0.000000 0.000000 
#    y 0.000000 1.708710 0.000000 
#    z 0.000000 0.000000 1.659370 
# 
# From -- ./inp_files/42132.got.cif
#   From: 2010.05.17/outbox.cif.g08.bks.cpg/sg65_22_cif.got.tgz:42132.got - 2010.06.03 17:01:31.
