data_PCOD9493378
_publ_section_title
;
Structure prediction by ZEFSAII (Michael W. Deem and Ramdas Pophale) SiO2 
 PCOD9493378
Probable space group: C M M M
;
_chemical_formula_sum "Si O2"
_cell_formula_units_Z 64
_cell_length_a 28.765880
_cell_length_b 8.786106
_cell_length_c 14.379451
_cell_angle_alpha 90.000000
_cell_angle_beta 90.000000
_cell_angle_gamma 90.000000
_cell_volume 3634.263465
_symmetry_space_group_name_H-M "C M M M"
_symmetry_group_IT_number 65
_symmetry_cell_setting 'orthorhombic'
loop_
_space_group_symop_operation_xyz
x,y,z
-x,-y,z
x,-y,-z
-x,y,-z
-x,-y,-z
x,y,-z
-x,y,z
x,-y,z
1/2+x,1/2+y,z
1/2-x,1/2-y,z
1/2+x,1/2-y,-z
1/2-x,1/2+y,-z
1/2-x,1/2-y,-z
1/2+x,1/2+y,-z
1/2-x,1/2+y,z
1/2+x,1/2-y,z
loop_
_atom_site_type_symbol
_atom_site_label
_atom_site_fract_x
_atom_site_fract_y
_atom_site_fract_z
Si Si1 0.698363 0.184373 0.894644
Si Si2 0.380928 0.824307 0.757352
Si Si3 0.447573 0.316979 0.608358
Si Si4 0.945077 0.169008 0.109677
O O1 0.750000 0.250000 0.884255
O O2 0.665126 0.236346 0.810220
O O3 0.699474 0.000000 0.892262
O O4 0.681946 0.227545 0.000000
O O5 0.405262 0.743983 0.669996
O O6 0.419269 0.801302 0.837488
O O7 0.373269 0.000000 0.734404
O O8 0.442645 0.273652 0.500000
O O9 0.500000 0.267214 0.639110
O O10 0.447458 0.500000 0.613335
O O11 0.000000 0.175934 0.125446
O O12 0.929227 0.000000 0.142516
O O13 0.937152 0.176998 0.000000
#
# Coordination Sequence:
#
# PCOD9493378 Si02
#       4
#    16  16  16  16
#     4   9  19  35  52  72 100 132 166 204 246 294
#     4  11  21  31  48  75 103 128 158 203 256 303
#     4   9  19  36  55  74  99 133 172 210 245 288
#     4   9  18  31  45  64  94 132 170 201 230 278
#
# _framework density 17.610171000000001
#
# number of rings (size 3 to 8) (size 9 to 14) (size 15 to 20)
#    0.000    2.500    0.000    3.750    0.000    8.000 
#    0.000    5.000    0.000    0.750    0.000    0.000 
#    0.000    0.000    0.000    0.000    0.000    0.000 
#
# Total GULP energy -178262.452994 kJ/mol
# GULP energy per Si atom -5570.701656 kJ/mol
# Density = 1.757009 g / cm^3
# Si number density = 17.610171 Si / 1000 Ang^3
#
#
#
# Elastic Constant Matrix: (Units=GPa)
#
#
# Indices 1 2 3 4 5 6 
#
# 1 89.4746 20.3373 63.4094 0.0000 0.0000 0.0000
# 2 20.3373 9.9604 17.5516 0.0000 0.0000 0.0000
# 3 63.4094 17.5516 100.2743 0.0000 0.0000 0.0000
# 4 0.0000 0.0000 0.0000 23.0455 0.0000 0.0000
# 5 0.0000 0.0000 0.0000 0.0000 35.8016 0.0000
# 6 0.0000 0.0000 0.0000 0.0000 0.0000 25.7700
#
#
#
# Elastic Compliance Matrix: (Units=1/GPa)
#
#
# Indices 1 2 3 4 5 6 
#
# 1 0.027037 -0.036261 -0.010750 0.000000 0.000000 0.000000
# 2 -0.036261 0.193809 -0.010994 0.000000 0.000000 0.000000
# 3 -0.010750 -0.010994 0.018695 0.000000 0.000000 0.000000
# 4 0.000000 0.000000 0.000000 0.043392 0.000000 0.000000
# 5 0.000000 0.000000 0.000000 0.000000 0.027932 0.000000
# 6 0.000000 0.000000 0.000000 0.000000 0.000000 0.038805
#
#
# Mechanical properties :
#
#
# Convention : Reuss Voigt Hill
#
# Bulk Modulus (GPa) = 8.09512 44.70064 26.39788
# Shear Modulus (GPa) = 9.86475 23.48414 16.67445
#
# Velocity S-wave (km/s) = 2.36937 3.65575 3.08045
# Velocity P-wave (km/s) = 3.47736 6.57707 5.26070
#
# Compressibility (1/GPa) = 0.12353115
#
# Stress axis : x y z
#
# Youngs Moduli (GPa) = 36.98683 5.15972 53.49113
#
# Poissons Ratio (x) = 0.18710 0.57502
# Poissons Ratio (y) = 1.34118 0.58805
# Poissons Ratio (z) = 0.39760 0.05672
#
# Static dielectric constant tensor:
#      x y z
#    x 1.600560 0.000000 0.000000 
#    y 0.000000 1.629140 0.000000 
#    z 0.000000 0.000000 1.622200 
# 
# From -- ./inp_files/36804.got.cif
#   From: 2010.05.17/outbox.cif.g08.bks.cpg/sg65_19_cif.got.tgz:36804.got - 2010.06.03 17:01:31.
