data_PCOD9493653
_publ_section_title
;
Structure prediction by ZEFSAII (Michael W. Deem and Ramdas Pophale) SiO2 
 PCOD9493653
Probable space group: C M M M
;
_chemical_formula_sum "Si O2"
_cell_formula_units_Z 72
_cell_length_a 28.289675
_cell_length_b 16.706281
_cell_length_c 8.385114
_cell_angle_alpha 90.000000
_cell_angle_beta 90.000000
_cell_angle_gamma 90.000000
_cell_volume 3962.932833
_symmetry_space_group_name_H-M "C M M M"
_symmetry_group_IT_number 65
_symmetry_cell_setting 'orthorhombic'
loop_
_space_group_symop_operation_xyz
x,y,z
-x,-y,z
x,-y,-z
-x,y,-z
-x,-y,-z
x,y,-z
-x,y,z
x,-y,z
1/2+x,1/2+y,z
1/2-x,1/2-y,z
1/2+x,1/2-y,-z
1/2-x,1/2+y,-z
1/2-x,1/2-y,-z
1/2+x,1/2+y,-z
1/2-x,1/2+y,z
1/2+x,1/2-y,z
loop_
_atom_site_type_symbol
_atom_site_label
_atom_site_fract_x
_atom_site_fract_y
_atom_site_fract_z
Si Si1 0.857583 0.411999 0.805864
Si Si2 0.444829 0.500000 0.190976
Si Si3 0.892880 0.159774 0.689447
Si Si4 0.804414 0.252079 0.193141
Si Si5 0.946763 0.682772 0.807032
O O1 0.844290 0.500000 0.747975
O O2 0.825806 0.337462 0.753741
O O3 0.910937 0.387776 0.761410
O O4 0.855267 0.413279 0.000000
O O5 0.500000 0.500000 0.248403
O O6 0.416213 0.421383 0.245576
O O7 0.446546 0.500000 0.000000
O O8 0.892406 0.155970 0.500000
O O9 0.839988 0.182825 0.748161
O O10 0.925171 0.234104 0.746055
O O11 0.750000 0.250000 0.244324
O O12 0.805632 0.249422 0.000000
O O13 0.000000 0.671232 0.751144
O O14 0.946795 0.686754 0.000000
#
# Coordination Sequence:
#
# PCOD9493653 Si02
#       5
#    16   8  16  16  16
#     4   8  14  26  46  73 102 128 165 216 260 301
#     4  11  23  39  59  81 109 145 185 231 278 325
#     4  11  22  35  53  78 109 141 177 219 270 330
#     4   9  18  35  56  77 103 138 181 225 270 318
#     4   9  17  30  49  72 100 136 175 213 258 312
#
# _framework density 18.168362999999999
#
# number of rings (size 3 to 8) (size 9 to 14) (size 15 to 20)
#    0.000    2.556    0.000    4.333    0.000    4.889 
#    2.000    2.222    0.000   10.667    0.000    6.222 
#    0.000    0.000    0.000    0.000    0.000    0.000 
#
# Total GULP energy -200683.772566 kJ/mol
# GULP energy per Si atom -5574.549238 kJ/mol
# Density = 1.812701 g / cm^3
# Si number density = 18.168363 Si / 1000 Ang^3
#
#
#
# Elastic Constant Matrix: (Units=GPa)
#
#
# Indices 1 2 3 4 5 6 
#
# 1 171.1504 65.0356 24.2159 0.0000 0.0000 0.0000
# 2 65.0356 122.4732 12.7426 0.0000 0.0000 0.0000
# 3 24.2159 12.7426 23.2489 0.0000 0.0000 0.0000
# 4 0.0000 0.0000 0.0000 -11.7845 0.0000 0.0000
# 5 0.0000 0.0000 0.0000 0.0000 3.7981 0.0000
# 6 0.0000 0.0000 0.0000 0.0000 0.0000 11.4587
#
#
#
# Elastic Compliance Matrix: (Units=1/GPa)
#
#
# Indices 1 2 3 4 5 6 
#
# 1 0.008148 -0.003652 -0.006485 0.000000 0.000000 0.000000
# 2 -0.003652 0.010296 -0.001839 0.000000 0.000000 0.000000
# 3 -0.006485 -0.001839 0.050776 0.000000 0.000000 0.000000
# 4 0.000000 0.000000 0.000000 -0.084858 0.000000 0.000000
# 5 0.000000 0.000000 0.000000 0.000000 0.263292 0.000000
# 6 0.000000 0.000000 0.000000 0.000000 0.000000 0.087270
#
#
# Mechanical properties :
#
#
# Convention : Reuss Voigt Hill
#
# Bulk Modulus (GPa) = 22.09131 57.87344 39.98237
# Shear Modulus (GPa) = 13.37018 15.01969 14.19493
#
# Velocity S-wave (km/s) = 2.71570 2.87835 2.79821
# Velocity P-wave (km/s) = 4.69244 6.55512 5.70038
#
# Compressibility (1/GPa) = 0.04526668
#
# Stress axis : x y z
#
# Youngs Moduli (GPa) = 122.72680 97.12783 19.69440
#
# Poissons Ratio (x) = 0.35472 0.12773
# Poissons Ratio (y) = 0.44821 0.03622
# Poissons Ratio (z) = 0.79593 0.17862
#
# Static dielectric constant tensor:
#      x y z
#    x 1.632930 0.000000 0.000000 
#    y 0.000000 1.606870 0.000000 
#    z 0.000000 0.000000 1.620880 
# 
# From -- ./inp_files/18036.got.cif
#   From: 2010.05.17/outbox.cif.g08.bks.cpg/sg65_10_cif.got.tgz:18036.got - 2010.06.03 17:01:31.
