data_PCOD9493470
_publ_section_title
;
Structure prediction by ZEFSAII (Michael W. Deem and Ramdas Pophale) SiO2 
 PCOD9493470
Probable space group: C M M M
;
_chemical_formula_sum "Si O2"
_cell_formula_units_Z 56
_cell_length_a 8.945069
_cell_length_b 19.258784
_cell_length_c 19.911781
_cell_angle_alpha 90.000000
_cell_angle_beta 90.000000
_cell_angle_gamma 90.000000
_cell_volume 3430.225446
_symmetry_space_group_name_H-M "C M M M"
_symmetry_group_IT_number 65
_symmetry_cell_setting 'orthorhombic'
loop_
_space_group_symop_operation_xyz
x,y,z
-x,-y,z
x,-y,-z
-x,y,-z
-x,-y,-z
x,y,-z
-x,y,z
x,-y,z
1/2+x,1/2+y,z
1/2-x,1/2-y,z
1/2+x,1/2-y,-z
1/2-x,1/2+y,-z
1/2-x,1/2-y,-z
1/2+x,1/2+y,-z
1/2-x,1/2+y,z
1/2+x,1/2-y,z
loop_
_atom_site_type_symbol
_atom_site_label
_atom_site_fract_x
_atom_site_fract_y
_atom_site_fract_z
Si Si1 0.170222 0.320893 0.328736
Si Si2 0.822028 0.174204 0.809004
Si Si3 0.177898 0.582656 0.923665
Si Si4 0.000000 0.418159 0.579867
O O1 0.250000 0.250000 0.352031
O O2 0.259770 0.347876 0.264226
O O3 0.140329 0.378361 0.385685
O O4 0.000000 0.302550 0.306364
O O5 0.750000 0.250000 0.820434
O O6 0.765927 0.123661 0.867207
O O7 0.000000 0.177946 0.808555
O O8 0.201541 0.500000 0.917474
O O9 0.000000 0.595149 0.915919
O O10 0.219611 0.602989 0.000000
O O11 0.000000 0.500000 0.595406
O O12 0.000000 0.409315 0.500000
#
# Coordination Sequence:
#
# PCOD9493470 Si02
#       4
#    16  16  16   8
#     4   9  18  33  56  80 108 141 181 225 268 324
#     4  11  21  34  54  78 108 141 178 224 272 317
#     4   9  19  36  55  75 103 140 182 226 272 325
#     4   9  20  36  56  84 114 144 180 221 270 330
#
# _framework density 16.325457
#
# number of rings (size 3 to 8) (size 9 to 14) (size 15 to 20)
#    0.857    1.571    0.000    6.000    0.000    3.429 
#    0.000    1.429    0.000    2.571    0.000    8.000 
#    0.000    0.000    0.000    0.000    0.000    0.000 
#
# Total GULP energy -155909.569366 kJ/mol
# GULP energy per Si atom -5568.198906 kJ/mol
# Density = 1.628830 g / cm^3
# Si number density = 16.325457 Si / 1000 Ang^3
#
#
#
# Elastic Constant Matrix: (Units=GPa)
#
#
# Indices 1 2 3 4 5 6 
#
# 1 105.3790 54.2355 66.3007 0.0000 0.0000 0.0000
# 2 54.2355 82.6402 90.3288 0.0000 0.0000 0.0000
# 3 66.3007 90.3288 130.9968 0.0000 0.0000 0.0000
# 4 0.0000 0.0000 0.0000 37.8909 0.0000 0.0000
# 5 0.0000 0.0000 0.0000 0.0000 13.7040 0.0000
# 6 0.0000 0.0000 0.0000 0.0000 0.0000 28.9961
#
#
#
# Elastic Compliance Matrix: (Units=1/GPa)
#
#
# Indices 1 2 3 4 5 6 
#
# 1 0.014650 -0.006131 -0.003187 0.000000 0.000000 0.000000
# 2 -0.006131 0.051696 -0.032544 0.000000 0.000000 0.000000
# 3 -0.003187 -0.032544 0.031688 0.000000 0.000000 0.000000
# 4 0.000000 0.000000 0.000000 0.026392 0.000000 0.000000
# 5 0.000000 0.000000 0.000000 0.000000 0.072971 0.000000
# 6 0.000000 0.000000 0.000000 0.000000 0.000000 0.034487
#
#
# Mechanical properties :
#
#
# Convention : Reuss Voigt Hill
#
# Bulk Modulus (GPa) = 69.88332 82.30510 76.09421
# Shear Modulus (GPa) = 15.60656 23.32828 19.46742
#
# Velocity S-wave (km/s) = 3.09522 3.78425 3.45694
# Velocity P-wave (km/s) = 7.46144 8.34378 7.91492
#
# Compressibility (1/GPa) = 0.01430957
#
# Stress axis : x y z
#
# Youngs Moduli (GPa) = 68.25796 19.34387 31.55808
#
# Poissons Ratio (x) = 0.11860 0.10059
# Poissons Ratio (y) = 0.41848 1.02702
# Poissons Ratio (z) = 0.21756 0.62953
#
# Static dielectric constant tensor:
#      x y z
#    x 1.544150 0.000000 0.000000 
#    y 0.000000 1.539810 0.000000 
#    z 0.000000 0.000000 1.545230 
# 
# From -- ./inp_files/59092.got.cif
#   From: 2010.05.17/outbox.cif.g08.bks.cpg/sg65_30_cif.got.tgz:59092.got - 2010.06.03 17:01:31.
