data_PCOD9493072
_publ_section_title
;
Structure prediction by ZEFSAII (Michael W. Deem and Ramdas Pophale) SiO2 
 PCOD9493072
Probable space group: C M M M
;
_chemical_formula_sum "Si O2"
_cell_formula_units_Z 74
_cell_length_a 15.654701
_cell_length_b 27.829364
_cell_length_c 8.195792
_cell_angle_alpha 90.000000
_cell_angle_beta 90.000000
_cell_angle_gamma 90.000000
_cell_volume 3570.581795
_symmetry_space_group_name_H-M "C M M M"
_symmetry_group_IT_number 65
_symmetry_cell_setting 'orthorhombic'
loop_
_space_group_symop_operation_xyz
x,y,z
-x,-y,z
x,-y,-z
-x,y,-z
-x,-y,-z
x,y,-z
-x,y,z
x,-y,z
1/2+x,1/2+y,z
1/2-x,1/2-y,z
1/2+x,1/2-y,-z
1/2-x,1/2+y,-z
1/2-x,1/2-y,-z
1/2+x,1/2+y,-z
1/2-x,1/2+y,z
1/2+x,1/2-y,z
loop_
_atom_site_type_symbol
_atom_site_label
_atom_site_fract_x
_atom_site_fract_y
_atom_site_fract_z
Si Si1 0.000000 0.929986 0.814796
Si Si2 0.500000 0.500000 0.500000
Si Si3 0.000000 0.296729 0.812331
Si Si4 0.325368 0.371065 0.810760
Si Si5 0.819086 0.445128 0.804201
Si Si6 0.157715 0.765294 0.308497
Si Si7 0.500000 0.904258 0.309585
O O1 0.000000 0.959862 0.648379
O O2 0.913413 0.899706 0.810704
O O3 0.000000 0.951542 0.000000
O O4 0.082039 0.263774 0.776063
O O5 0.000000 0.346594 0.713826
O O6 0.000000 0.311526 0.000000
O O7 0.250337 0.405949 0.744799
O O8 0.342982 0.322252 0.715433
O O9 0.303973 0.358692 0.000000
O O10 0.805722 0.500000 0.742792
O O11 0.914130 0.426835 0.765729
O O12 0.808514 0.446992 0.000000
O O13 0.152410 0.753386 0.500000
O O14 0.250000 0.750000 0.243688
O O15 0.500000 0.915663 0.500000
#
# Coordination Sequence:
#
# PCOD9493072 Si02
#       7
#     8   2   8  16  16  16   8
#     4  10  24  44  65  96 134 167 219 270 315 389
#     4  12  26  40  68  98 120 182 214 264 340 374
#     4  12  25  42  68  93 121 167 214 258 313 378
#     4  10  22  41  66  94 127 168 211 262 315 374
#     4  10  22  41  66  93 124 168 216 259 312 373
#     4  11  24  41  64  96 131 164 204 260 319 380
#     4  12  25  42  61  92 129 164 206 266 323 374
#
# _framework density 20.724913000000001
#
# number of rings (size 3 to 8) (size 9 to 14) (size 15 to 20)
#    0.000    1.297    0.000    5.027    3.027    8.649 
#    0.000    0.000    0.000    0.000    0.000    0.000 
#    0.000    0.000    0.000    0.000    0.000    0.000 
#
# Total GULP energy -206425.948838 kJ/mol
# GULP energy per Si atom -5579.079698 kJ/mol
# Density = 2.067774 g / cm^3
# Si number density = 20.724913 Si / 1000 Ang^3
#
#
#
# Elastic Constant Matrix: (Units=GPa)
#
#
# Indices 1 2 3 4 5 6 
#
# 1 78.8949 -1.0206 -7.4530 0.0000 0.0000 0.0000
# 2 -1.0206 77.3436 -2.7012 0.0000 0.0000 0.0000
# 3 -7.4530 -2.7012 57.9993 0.0000 0.0000 0.0000
# 4 0.0000 0.0000 0.0000 30.0839 0.0000 0.0000
# 5 0.0000 0.0000 0.0000 0.0000 -72.9942 0.0000
# 6 0.0000 0.0000 0.0000 0.0000 0.0000 63.9995
#
#
#
# Elastic Compliance Matrix: (Units=1/GPa)
#
#
# Indices 1 2 3 4 5 6 
#
# 1 0.012835 0.000227 0.001660 0.000000 0.000000 0.000000
# 2 0.000227 0.012954 0.000633 0.000000 0.000000 0.000000
# 3 0.001660 0.000633 0.017484 0.000000 0.000000 0.000000
# 4 0.000000 0.000000 0.000000 0.033240 0.000000 0.000000
# 5 0.000000 0.000000 0.000000 0.000000 -0.013700 0.000000
# 6 0.000000 0.000000 0.000000 0.000000 0.000000 0.015625
#
#
# Mechanical properties :
#
#
# Convention : Reuss Voigt Hill
#
# Bulk Modulus (GPa) = 20.69832 21.32091 21.00961
# Shear Modulus (GPa) = 55.86330 19.24536 37.55433
#
# Velocity S-wave (km/s) = 5.19742 3.05062 4.26142
# Velocity P-wave (km/s) = 6.78428 4.76637 5.86279
#
# Compressibility (1/GPa) = 0.04831311
#
# Stress axis : x y z
#
# Youngs Moduli (GPa) = 77.91292 77.19380 57.19406
#
# Poissons Ratio (x) = -0.01755 -0.09494
# Poissons Ratio (y) = -0.01771 -0.03618
# Poissons Ratio (z) = -0.12933 -0.04883
#
# Static dielectric constant tensor:
#      x y z
#    x 1.712470 0.000000 0.000000 
#    y 0.000000 1.689000 0.000000 
#    z 0.000000 0.000000 1.739670 
# 
# From -- ./inp_files/7459.got.cif
#   From: 2010.05.17/outbox.cif.g08.bks.cpg/sg65_4_cif.got.tgz:7459.got - 2010.06.03 17:01:31.
