data_PCOD9493112
_publ_section_title
;
Structure prediction by ZEFSAII (Michael W. Deem and Ramdas Pophale) SiO2 
 PCOD9493112
Probable space group: C M M M
;
_chemical_formula_sum "Si O2"
_cell_formula_units_Z 42
_cell_length_a 15.817755
_cell_length_b 11.853146
_cell_length_c 11.423390
_cell_angle_alpha 90.000000
_cell_angle_beta 90.000000
_cell_angle_gamma 90.000000
_cell_volume 2141.773212
_symmetry_space_group_name_H-M "C M M M"
_symmetry_group_IT_number 65
_symmetry_cell_setting 'orthorhombic'
loop_
_space_group_symop_operation_xyz
x,y,z
-x,-y,z
x,-y,-z
-x,y,-z
-x,-y,-z
x,y,-z
-x,y,z
x,-y,z
1/2+x,1/2+y,z
1/2-x,1/2-y,z
1/2+x,1/2-y,-z
1/2-x,1/2+y,-z
1/2-x,1/2-y,-z
1/2+x,1/2+y,-z
1/2-x,1/2+y,z
1/2+x,1/2-y,z
loop_
_atom_site_type_symbol
_atom_site_label
_atom_site_fract_x
_atom_site_fract_y
_atom_site_fract_z
Si Si1 0.000000 0.630592 0.139650
Si Si2 0.101529 0.364979 0.500000
Si Si3 0.000000 0.000000 0.000000
Si Si4 0.655018 0.253663 0.736227
Si Si5 0.091893 0.000000 0.754290
O O1 0.082603 0.697477 0.183273
O O2 0.000000 0.500000 0.183093
O O3 0.000000 0.628932 0.000000
O O4 0.109905 0.500000 0.500000
O O5 0.144537 0.311933 0.385826
O O6 0.000000 0.339337 0.500000
O O7 0.071968 0.000000 0.105820
O O8 0.750000 0.250000 0.783741
O O9 0.636159 0.385166 0.720457
O O10 0.000000 0.000000 0.695517
#
# Coordination Sequence:
#
# PCOD9493112 Si02
#       5
#     8   8   2  16   8
#     4  11  25  47  69  99 139 182 230 282 332 402
#     4  11  23  45  73  96 135 181 220 282 344 404
#     4   8  20  44  68  90 130 186 208 264 358 378
#     4  12  26  43  70 104 134 178 227 281 334 405
#     4  10  22  43  68  93 136 179 217 277 331 405
#
# _framework density 19.609919999999999
#
# number of rings (size 3 to 8) (size 9 to 14) (size 15 to 20)
#    0.571    0.381    3.810    1.714   10.667    1.524 
#    0.000    1.905    0.000    0.000    0.000    0.000 
#    0.000    0.000    0.000    0.000    0.000    0.000 
#
# Total GULP energy -117009.521121 kJ/mol
# GULP energy per Si atom -5571.881958 kJ/mol
# Density = 1.956529 g / cm^3
# Si number density = 19.609920 Si / 1000 Ang^3
#
#
#
# Elastic Constant Matrix: (Units=GPa)
#
#
# Indices 1 2 3 4 5 6 
#
# 1 161.7413 65.9013 8.6801 0.0000 0.0000 0.0000
# 2 65.9013 170.0233 13.5799 0.0000 0.0000 0.0000
# 3 8.6801 13.5799 70.0181 0.0000 0.0000 0.0000
# 4 0.0000 0.0000 0.0000 15.5557 0.0000 0.0000
# 5 0.0000 0.0000 0.0000 0.0000 -4.2772 0.0000
# 6 0.0000 0.0000 0.0000 0.0000 0.0000 8.3017
#
#
#
# Elastic Compliance Matrix: (Units=1/GPa)
#
#
# Indices 1 2 3 4 5 6 
#
# 1 0.007351 -0.002820 -0.000364 0.000000 0.000000 0.000000
# 2 -0.002820 0.007056 -0.001019 0.000000 0.000000 0.000000
# 3 -0.000364 -0.001019 0.014525 0.000000 0.000000 0.000000
# 4 0.000000 0.000000 0.000000 0.064285 0.000000 0.000000
# 5 0.000000 0.000000 0.000000 0.000000 -0.233798 0.000000
# 6 0.000000 0.000000 0.000000 0.000000 0.000000 0.120457
#
#
# Mechanical properties :
#
#
# Convention : Reuss Voigt Hill
#
# Bulk Modulus (GPa) = 48.72065 64.23393 56.47729
# Shear Modulus (GPa) = -1025.80122 24.82413 -500.48855
#
# Velocity S-wave (km/s) = -22.89626 3.56180 -15.99300
# Velocity P-wave (km/s) = 25.96317 7.05282 17.66839
#
# Compressibility (1/GPa) = 0.02052518
#
# Stress axis : x y z
#
# Youngs Moduli (GPa) = 136.02851 141.72171 68.84776
#
# Poissons Ratio (x) = 0.39970 0.02509
# Poissons Ratio (y) = 0.38364 0.07015
# Poissons Ratio (z) = 0.04956 0.14440
#
# Static dielectric constant tensor:
#      x y z
#    x 1.588520 0.000000 0.000000 
#    y 0.000000 1.758730 0.000000 
#    z 0.000000 0.000000 1.673050 
# 
# From -- ./inp_files/25776.got.cif
#   From: 2010.05.17/outbox.cif.g08.bks.cpg/sg65_13_cif.got.tgz:25776.got - 2010.06.03 17:01:31.
