data_PCOD9493588
_publ_section_title
;
Structure prediction by ZEFSAII (Michael W. Deem and Ramdas Pophale) SiO2 
 PCOD9493588
Probable space group: C M M M
;
_chemical_formula_sum "Si O2"
_cell_formula_units_Z 72
_cell_length_a 8.448702
_cell_length_b 32.265196
_cell_length_c 14.679145
_cell_angle_alpha 90.000000
_cell_angle_beta 90.000000
_cell_angle_gamma 90.000000
_cell_volume 4001.520629
_symmetry_space_group_name_H-M "C M M M"
_symmetry_group_IT_number 65
_symmetry_cell_setting 'orthorhombic'
loop_
_space_group_symop_operation_xyz
x,y,z
-x,-y,z
x,-y,-z
-x,y,-z
-x,-y,-z
x,y,-z
-x,y,z
x,-y,z
1/2+x,1/2+y,z
1/2-x,1/2-y,z
1/2+x,1/2-y,-z
1/2-x,1/2+y,-z
1/2-x,1/2-y,-z
1/2+x,1/2+y,-z
1/2-x,1/2+y,z
1/2+x,1/2-y,z
loop_
_atom_site_type_symbol
_atom_site_label
_atom_site_fract_x
_atom_site_fract_y
_atom_site_fract_z
Si Si1 0.308389 0.590545 0.104061
Si Si2 0.309293 0.453605 0.392688
Si Si3 0.191104 0.294946 0.605167
Si Si4 0.319975 0.500000 0.110734
Si Si5 0.189002 0.625546 0.717890
O O1 0.500000 0.588179 0.104029
O O2 0.247567 0.544495 0.132763
O O3 0.253039 0.622247 0.179779
O O4 0.258828 0.599001 0.000000
O O5 0.268874 0.449399 0.500000
O O6 0.500000 0.452308 0.385548
O O7 0.258695 0.500000 0.362638
O O8 0.241275 0.415620 0.336176
O O9 0.243070 0.300504 0.500000
O O10 0.250000 0.250000 0.636498
O O11 0.246853 0.333481 0.665471
O O12 0.000000 0.294789 0.605812
O O13 0.500000 0.500000 0.147868
O O14 0.330955 0.500000 0.000000
O O15 0.000000 0.626710 0.719958
#
# Coordination Sequence:
#
# PCOD9493588 Si02
#       5
#    16  16  16   8  16
#     4   9  18  33  52  73  99 136 181 223 258 297
#     4   9  19  35  52  71  99 138 182 218 245 289
#     4   9  19  36  56  78 104 133 166 207 256 310
#     4   7  12  26  47  67  88 121 168 217 255 282
#     4  11  22  33  50  78 110 138 165 207 266 322
#
# _framework density 17.993158999999999
#
# number of rings (size 3 to 8) (size 9 to 14) (size 15 to 20)
#    0.000    2.778    0.000    3.333    1.556    4.000 
#    0.000    3.333    0.000    2.667    0.000    0.000 
#    0.000    0.000    0.000    0.000    0.000    0.000 
#
# Total GULP energy -200761.590240 kJ/mol
# GULP energy per Si atom -5576.710840 kJ/mol
# Density = 1.795221 g / cm^3
# Si number density = 17.993159 Si / 1000 Ang^3
#
#
#
# Elastic Constant Matrix: (Units=GPa)
#
#
# Indices 1 2 3 4 5 6 
#
# 1 10.1582 20.0353 21.5932 0.0000 0.0000 0.0000
# 2 20.0353 147.4953 91.8696 0.0000 0.0000 0.0000
# 3 21.5932 91.8696 105.1991 0.0000 0.0000 0.0000
# 4 0.0000 0.0000 0.0000 26.4636 0.0000 0.0000
# 5 0.0000 0.0000 0.0000 0.0000 20.9179 0.0000
# 6 0.0000 0.0000 0.0000 0.0000 0.0000 25.5970
#
#
#
# Elastic Compliance Matrix: (Units=1/GPa)
#
#
# Indices 1 2 3 4 5 6 
#
# 1 0.175273 -0.003070 -0.033296 0.000000 0.000000 0.000000
# 2 -0.003070 0.014920 -0.012399 0.000000 0.000000 0.000000
# 3 -0.033296 -0.012399 0.027169 0.000000 0.000000 0.000000
# 4 0.000000 0.000000 0.000000 0.037788 0.000000 0.000000
# 5 0.000000 0.000000 0.000000 0.000000 0.047806 0.000000
# 6 0.000000 0.000000 0.000000 0.000000 0.000000 0.039067
#
#
# Mechanical properties :
#
#
# Convention : Reuss Voigt Hill
#
# Bulk Modulus (GPa) = 8.34504 58.87209 33.60856
# Shear Modulus (GPa) = 10.42759 23.21933 16.82346
#
# Velocity S-wave (km/s) = 2.40996 3.59618 3.06108
# Velocity P-wave (km/s) = 3.52020 7.07344 5.58683
#
# Compressibility (1/GPa) = 0.11983167
#
# Stress axis : x y z
#
# Youngs Moduli (GPa) = 5.70537 67.02391 36.80733
#
# Poissons Ratio (x) = 0.20574 1.22554
# Poissons Ratio (y) = 0.01751 0.45639
# Poissons Ratio (z) = 0.18997 0.83106
#
# Static dielectric constant tensor:
#      x y z
#    x 1.627870 0.000000 0.000000 
#    y 0.000000 1.616720 0.000000 
#    z 0.000000 0.000000 1.633150 
# 
# From -- ./inp_files/36515.got.cif
#   From: 2010.05.17/outbox.cif.g08.bks.cpg/sg65_19_cif.got.tgz:36515.got - 2010.06.03 17:01:31.
