data_PCOD9493105
_publ_section_title
;
Structure prediction by ZEFSAII (Michael W. Deem and Ramdas Pophale) SiO2 
 PCOD9493105
Probable space group: C M M M
;
_chemical_formula_sum "Si O2"
_cell_formula_units_Z 56
_cell_length_a 8.700874
_cell_length_b 28.529788
_cell_length_c 11.258070
_cell_angle_alpha 90.000000
_cell_angle_beta 90.000000
_cell_angle_gamma 90.000000
_cell_volume 2794.636769
_symmetry_space_group_name_H-M "C M M M"
_symmetry_group_IT_number 65
_symmetry_cell_setting 'orthorhombic'
loop_
_space_group_symop_operation_xyz
x,y,z
-x,-y,z
x,-y,-z
-x,y,-z
-x,-y,-z
x,y,-z
-x,y,z
x,-y,z
1/2+x,1/2+y,z
1/2-x,1/2-y,z
1/2+x,1/2-y,-z
1/2-x,1/2+y,-z
1/2-x,1/2-y,-z
1/2+x,1/2+y,-z
1/2-x,1/2+y,z
1/2+x,1/2-y,z
loop_
_atom_site_type_symbol
_atom_site_label
_atom_site_fract_x
_atom_site_fract_y
_atom_site_fract_z
Si Si1 0.317576 0.150998 0.629556
Si Si2 0.823855 0.500000 0.861106
Si Si3 0.184429 0.802663 0.867392
Si Si4 0.819117 0.052933 0.673945
O O1 0.265739 0.170729 0.500000
O O2 0.500000 0.157558 0.637548
O O3 0.242913 0.171085 0.749517
O O4 0.276175 0.095958 0.626705
O O5 0.732436 0.455442 0.809939
O O6 0.000000 0.500000 0.815577
O O7 0.827086 0.500000 0.000000
O O8 0.250000 0.750000 0.861628
O O9 0.000000 0.801614 0.863279
O O10 0.229009 0.821486 0.000000
O O11 0.000000 0.062119 0.661052
O O12 0.788785 0.000000 0.626615
#
# Coordination Sequence:
#
# PCOD9493105 Si02
#       4
#    16   8  16  16
#     4  11  24  40  61  91 125 163 207 253 304 362
#     4   9  17  31  52  77 108 149 196 246 298 351
#     4  10  22  42  68  95 123 158 200 248 305 367
#     4   9  20  36  55  81 114 156 202 250 300 354
#
# _framework density 20.038384000000001
#
# number of rings (size 3 to 8) (size 9 to 14) (size 15 to 20)
#    0.857    1.286    0.000    2.571    0.000    7.429 
#    0.000    2.857    0.000    0.000    0.000    0.000 
#    0.000    0.000    0.000    0.000    0.000    0.000 
#
# Total GULP energy -155881.627926 kJ/mol
# GULP energy per Si atom -5567.200997 kJ/mol
# Density = 1.999278 g / cm^3
# Si number density = 20.038384 Si / 1000 Ang^3
#
#
#
# Elastic Constant Matrix: (Units=GPa)
#
#
# Indices 1 2 3 4 5 6 
#
# 1 56.5942 14.3321 56.0217 0.0000 0.0000 0.0000
# 2 14.3321 50.2031 54.4812 0.0000 0.0000 0.0000
# 3 56.0217 54.4812 194.0267 0.0000 0.0000 0.0000
# 4 0.0000 0.0000 0.0000 -36.2343 0.0000 0.0000
# 5 0.0000 0.0000 0.0000 0.0000 -20.0330 0.0000
# 6 0.0000 0.0000 0.0000 0.0000 0.0000 36.3559
#
#
#
# Elastic Compliance Matrix: (Units=1/GPa)
#
#
# Indices 1 2 3 4 5 6 
#
# 1 0.024775 0.000993 -0.007432 0.000000 0.000000 0.000000
# 2 0.000993 0.028689 -0.008342 0.000000 0.000000 0.000000
# 3 -0.007432 -0.008342 0.009642 0.000000 0.000000 0.000000
# 4 0.000000 0.000000 0.000000 -0.027598 0.000000 0.000000
# 5 0.000000 0.000000 0.000000 0.000000 -0.049918 0.000000
# 6 0.000000 0.000000 0.000000 0.000000 0.000000 0.027506
#
#
# Mechanical properties :
#
#
# Convention : Reuss Voigt Hill
#
# Bulk Modulus (GPa) = 29.81266 61.16600 45.48933
# Shear Modulus (GPa) = 92.86689 7.75034 50.30862
#
# Velocity S-wave (km/s) = 6.81507 1.96879 5.01604
# Velocity P-wave (km/s) = 8.76567 5.97987 7.50319
#
# Compressibility (1/GPa) = 0.03354280
#
# Stress axis : x y z
#
# Youngs Moduli (GPa) = 40.36288 34.85686 103.71047
#
# Poissons Ratio (x) = -0.03460 0.77079
# Poissons Ratio (y) = -0.04006 0.86517
# Poissons Ratio (z) = 0.29998 0.29078
#
# Static dielectric constant tensor:
#      x y z
#    x 1.681770 0.000000 0.000000 
#    y 0.000000 1.702480 0.000000 
#    z 0.000000 0.000000 1.806640 
# 
# From -- ./inp_files/20443.got.cif
#   From: 2010.05.17/outbox.cif.g08.bks.cpg/sg65_11_cif.got.tgz:20443.got - 2010.06.03 17:01:31.
