data_PCOD9493383
_publ_section_title
;
Structure prediction by ZEFSAII (Michael W. Deem and Ramdas Pophale) SiO2 
 PCOD9493383
Probable space group: C M M M
;
_chemical_formula_sum "Si O2"
_cell_formula_units_Z 88
_cell_length_a 7.762162
_cell_length_b 28.002585
_cell_length_c 22.490134
_cell_angle_alpha 90.000000
_cell_angle_beta 90.000000
_cell_angle_gamma 90.000000
_cell_volume 4888.469047
_symmetry_space_group_name_H-M "C M M M"
_symmetry_group_IT_number 65
_symmetry_cell_setting 'orthorhombic'
loop_
_space_group_symop_operation_xyz
x,y,z
-x,-y,z
x,-y,-z
-x,y,-z
-x,-y,-z
x,y,-z
-x,y,z
x,-y,z
1/2+x,1/2+y,z
1/2-x,1/2-y,z
1/2+x,1/2-y,-z
1/2-x,1/2+y,-z
1/2-x,1/2-y,-z
1/2+x,1/2+y,-z
1/2-x,1/2+y,z
1/2+x,1/2-y,z
loop_
_atom_site_type_symbol
_atom_site_label
_atom_site_fract_x
_atom_site_fract_y
_atom_site_fract_z
Si Si1 0.207804 0.306107 0.129166
Si Si2 0.298943 0.695686 0.374594
Si Si3 0.708457 0.148970 0.748801
Si Si4 0.792852 0.693652 0.000000
Si Si5 0.201248 0.400313 0.434517
Si Si6 0.788889 0.553489 0.313734
O O1 0.250000 0.250000 0.134486
O O2 0.272937 0.333156 0.187532
O O3 0.271165 0.324026 0.064349
O O4 0.000000 0.310222 0.128799
O O5 0.500000 0.689613 0.384703
O O6 0.250000 0.750000 0.387875
O O7 0.259578 0.683408 0.305659
O O8 0.209762 0.654915 0.413983
O O9 0.500000 0.149100 0.750283
O O10 0.765300 0.095747 0.730503
O O11 0.750000 0.750000 0.000000
O O12 0.000000 0.688305 0.000000
O O13 0.278234 0.406751 0.500000
O O14 0.272506 0.430909 0.379546
O O15 0.000000 0.413285 0.438245
O O16 0.734286 0.500000 0.298806
O O17 0.000000 0.554117 0.314401
#
# Coordination Sequence:
#
# PCOD9493383 Si02
#       6
#    16  16  16   8  16  16
#     4   9  16  25  39  59  85 115 144 174 207 245
#     4  11  21  32  46  63  86 115 144 174 208 248
#     4   9  17  29  44  64  87 111 143 179 213 251
#     4   8  14  24  36  54  81 113 145 173 204 242
#     4   9  18  32  48  66  87 109 137 173 210 252
#     4   8  14  26  45  67  87 106 134 175 216 251
#
# _framework density 18.001545
#
# number of rings (size 3 to 8) (size 9 to 14) (size 15 to 20)
#    0.000    2.909    0.000    3.273    0.000    3.273 
#    0.000    1.818    0.000    8.727    0.000    5.727 
#    0.000    5.091    0.000    0.000    0.000   40.909 
#
# Total GULP energy -245160.709574 kJ/mol
# GULP energy per Si atom -5571.834308 kJ/mol
# Density = 1.796057 g / cm^3
# Si number density = 18.001545 Si / 1000 Ang^3
#
#
#
# Elastic Constant Matrix: (Units=GPa)
#
#
# Indices 1 2 3 4 5 6 
#
# 1 30.0876 -6.5536 0.9874 0.0000 0.0000 0.0000
# 2 -6.5536 68.7051 20.2477 0.0000 0.0000 0.0000
# 3 0.9874 20.2477 119.9619 0.0000 0.0000 0.0000
# 4 0.0000 0.0000 0.0000 15.4059 0.0000 0.0000
# 5 0.0000 0.0000 0.0000 0.0000 6.1071 0.0000
# 6 0.0000 0.0000 0.0000 0.0000 0.0000 8.9406
#
#
#
# Elastic Compliance Matrix: (Units=1/GPa)
#
#
# Indices 1 2 3 4 5 6 
#
# 1 0.034028 0.003503 -0.000871 0.000000 0.000000 0.000000
# 2 0.003503 0.015677 -0.002675 0.000000 0.000000 0.000000
# 3 -0.000871 -0.002675 0.008795 0.000000 0.000000 0.000000
# 4 0.000000 0.000000 0.000000 0.064910 0.000000 0.000000
# 5 0.000000 0.000000 0.000000 0.000000 0.163745 0.000000
# 6 0.000000 0.000000 0.000000 0.000000 0.000000 0.111849
#
#
# Mechanical properties :
#
#
# Convention : Reuss Voigt Hill
#
# Bulk Modulus (GPa) = 17.11962 27.56863 22.34413
# Shear Modulus (GPa) = 11.94565 19.69558 15.82062
#
# Velocity S-wave (km/s) = 2.57882 3.31131 2.96775
# Velocity P-wave (km/s) = 4.28927 5.47426 4.91759
#
# Compressibility (1/GPa) = 0.05841252
#
# Stress axis : x y z
#
# Youngs Moduli (GPa) = 29.38778 63.78621 113.70564
#
# Poissons Ratio (x) = -0.22342 0.09907
# Poissons Ratio (y) = -0.10293 0.30415
# Poissons Ratio (z) = 0.02560 0.17062
#
# Static dielectric constant tensor:
#      x y z
#    x 1.670750 0.000000 0.000000 
#    y 0.000000 1.609200 0.000000 
#    z 0.000000 0.000000 1.657550 
# 
# From -- ./inp_files/60246.got.cif
#   From: 2010.05.17/outbox.cif.g08.bks.cpg/sg65_31_cif.got.tgz:60246.got - 2010.06.03 17:01:31.
