data_PCOD9493145
_publ_section_title
;
Structure prediction by ZEFSAII (Michael W. Deem and Ramdas Pophale) SiO2 
 PCOD9493145
Probable space group: C M M M
;
_chemical_formula_sum "Si O2"
_cell_formula_units_Z 80
_cell_length_a 9.224481
_cell_length_b 27.160944
_cell_length_c 16.434573
_cell_angle_alpha 90.000000
_cell_angle_beta 90.000000
_cell_angle_gamma 90.000000
_cell_volume 4117.610148
_symmetry_space_group_name_H-M "C M M M"
_symmetry_group_IT_number 65
_symmetry_cell_setting 'orthorhombic'
loop_
_space_group_symop_operation_xyz
x,y,z
-x,-y,z
x,-y,-z
-x,y,-z
-x,-y,-z
x,y,-z
-x,y,z
x,-y,z
1/2+x,1/2+y,z
1/2-x,1/2-y,z
1/2+x,1/2-y,-z
1/2-x,1/2+y,-z
1/2-x,1/2-y,-z
1/2+x,1/2+y,-z
1/2-x,1/2+y,z
1/2+x,1/2-y,z
loop_
_atom_site_type_symbol
_atom_site_label
_atom_site_fract_x
_atom_site_fract_y
_atom_site_fract_z
Si Si1 0.329240 0.801776 0.821948
Si Si2 0.669247 0.852713 0.647827
Si Si3 0.332684 0.098180 0.902149
Si Si4 0.327865 0.302053 0.500000
Si Si5 0.333722 0.500000 0.099603
Si Si6 0.329678 0.557790 0.596999
O O1 0.500000 0.794896 0.839996
O O2 0.250000 0.750000 0.834208
O O3 0.315575 0.821067 0.729446
O O4 0.275277 0.848675 0.873959
O O5 0.500000 0.852078 0.624169
O O6 0.770576 0.829706 0.579168
O O7 0.727570 0.908406 0.652016
O O8 0.500000 0.094564 0.873495
O O9 0.245258 0.050195 0.874038
O O10 0.333555 0.097245 0.000000
O O11 0.500000 0.297804 0.500000
O O12 0.250000 0.250000 0.500000
O O13 0.500000 0.500000 0.126026
O O14 0.331224 0.500000 0.000000
O O15 0.298340 0.565293 0.500000
O O16 0.500000 0.570031 0.608773
O O17 0.311102 0.500000 0.613339
#
# Coordination Sequence:
#
# PCOD9493145 Si02
#       6
#    16  16  16   8   8  16
#     4  10  23  40  57  82 115 149 188 235 283 334
#     4  11  22  37  56  81 111 144 185 230 279 331
#     4   9  18  36  61  85 113 152 191 227 277 338
#     4  12  24  38  57  80 105 138 184 231 275 329
#     4   9  17  31  55  89 121 146 183 234 279 325
#     4   9  18  34  56  81 110 143 181 227 277 332
#
# _framework density 19.428746
#
# number of rings (size 3 to 8) (size 9 to 14) (size 15 to 20)
#    0.000    2.100    1.000    3.000    0.000    6.000 
#    1.800    1.000    0.000    0.000    0.000    0.000 
#    0.000    0.000    0.000    0.000    0.000    0.000 
#
# Total GULP energy -223283.742609 kJ/mol
# GULP energy per Si atom -5582.093565 kJ/mol
# Density = 1.938452 g / cm^3
# Si number density = 19.428746 Si / 1000 Ang^3
#
#
#
# Elastic Constant Matrix: (Units=GPa)
#
#
# Indices 1 2 3 4 5 6 
#
# 1 111.1401 87.0072 22.7868 0.0000 0.0000 0.0000
# 2 87.0072 183.4875 24.7804 0.0000 0.0000 0.0000
# 3 22.7868 24.7804 11.5380 0.0000 0.0000 0.0000
# 4 0.0000 0.0000 0.0000 19.1353 0.0000 0.0000
# 5 0.0000 0.0000 0.0000 0.0000 11.2355 0.0000
# 6 0.0000 0.0000 0.0000 0.0000 0.0000 38.4596
#
#
#
# Elastic Compliance Matrix: (Units=1/GPa)
#
#
# Indices 1 2 3 4 5 6 
#
# 1 0.018177 -0.005312 -0.024491 0.000000 0.000000 0.000000
# 2 -0.005312 0.009229 -0.009330 0.000000 0.000000 0.000000
# 3 -0.024491 -0.009330 0.155077 0.000000 0.000000 0.000000
# 4 0.000000 0.000000 0.000000 0.052259 0.000000 0.000000
# 5 0.000000 0.000000 0.000000 0.000000 0.089004 0.000000
# 6 0.000000 0.000000 0.000000 0.000000 0.000000 0.026001
#
#
# Mechanical properties :
#
#
# Convention : Reuss Voigt Hill
#
# Bulk Modulus (GPa) = 9.59532 63.92380 36.75956
# Shear Modulus (GPa) = 10.80490 25.20550 18.00520
#
# Velocity S-wave (km/s) = 2.36080 3.60575 3.04753
# Velocity P-wave (km/s) = 3.51861 7.09284 5.59861
#
# Compressibility (1/GPa) = 0.10421750
#
# Stress axis : x y z
#
# Youngs Moduli (GPa) = 55.01331 108.35512 6.44840
#
# Poissons Ratio (x) = 0.57558 0.15793
# Poissons Ratio (y) = 0.29223 0.06017
# Poissons Ratio (z) = 1.34731 1.01100
#
# Static dielectric constant tensor:
#      x y z
#    x 1.657760 0.000000 0.000000 
#    y 0.000000 1.751650 0.000000 
#    z 0.000000 0.000000 1.781590 
# 
# From -- ./inp_files/49891.got.cif
#   From: 2010.05.17/outbox.cif.g08.bks.cpg/sg65_25_cif.got.tgz:49891.got - 2010.06.03 17:01:31.
