data_PCOD9493900
_publ_section_title
;
Structure prediction by ZEFSAII (Michael W. Deem and Ramdas Pophale) SiO2 
 PCOD9493900
Probable space group: C M M M
;
_chemical_formula_sum "Si O2"
_cell_formula_units_Z 88
_cell_length_a 17.480258
_cell_length_b 9.660848
_cell_length_c 29.245787
_cell_angle_alpha 90.000000
_cell_angle_beta 90.000000
_cell_angle_gamma 90.000000
_cell_volume 4938.856413
_symmetry_space_group_name_H-M "C M M M"
_symmetry_group_IT_number 65
_symmetry_cell_setting 'orthorhombic'
loop_
_space_group_symop_operation_xyz
x,y,z
-x,-y,z
x,-y,-z
-x,y,-z
-x,-y,-z
x,y,-z
-x,y,z
x,-y,z
1/2+x,1/2+y,z
1/2-x,1/2-y,z
1/2+x,1/2-y,-z
1/2-x,1/2+y,-z
1/2-x,1/2-y,-z
1/2+x,1/2+y,-z
1/2-x,1/2+y,z
1/2+x,1/2-y,z
loop_
_atom_site_type_symbol
_atom_site_label
_atom_site_fract_x
_atom_site_fract_y
_atom_site_fract_z
Si Si1 0.906885 0.161573 0.050616
Si Si2 0.590814 0.162173 0.136519
Si Si3 0.171656 0.334378 0.233317
Si Si4 0.593664 0.158793 0.500000
Si Si5 0.593147 0.658578 0.585211
Si Si6 0.592143 0.659877 0.689167
O O1 0.879596 0.248509 0.093907
O O2 0.000000 0.169759 0.050676
O O3 0.887080 0.000000 0.055490
O O4 0.881717 0.209382 0.000000
O O5 0.500000 0.188631 0.141754
O O6 0.630452 0.190736 0.184737
O O7 0.600494 0.000000 0.125959
O O8 0.181391 0.500000 0.238777
O O9 0.250000 0.250000 0.232920
O O10 0.123407 0.268238 0.274540
O O11 0.500000 0.160942 0.500000
O O12 0.619125 0.238878 0.454426
O O13 0.617877 0.000000 0.500000
O O14 0.500000 0.661432 0.585234
O O15 0.615300 0.500000 0.575120
O O16 0.617071 0.692329 0.637071
O O17 0.500000 0.662563 0.690042
O O18 0.615333 0.500000 0.699417
#
# Coordination Sequence:
#
# PCOD9493900 Si02
#       6
#    16  16  16   8  16  16
#     4   8  14  25  43  70 101 128 155 190 233 281
#     4   9  18  32  50  73  99 127 160 198 242 290
#     4  11  23  37  52  71  98 131 167 208 252 298
#     4   9  15  21  33  59  94 127 158 193 234 279
#     4   8  14  25  41  62  91 126 159 192 234 285
#     4   9  18  33  53  76 100 128 165 206 248 296
#
# _framework density 17.817889999999998
#
# number of rings (size 3 to 8) (size 9 to 14) (size 15 to 20)
#    0.000    3.000    0.000    3.000    0.000    4.727 
#    0.000    5.455    0.000    0.545    0.000    0.636 
#    0.000    0.000    0.000    0.000    0.000    0.000 
#
# Total GULP energy -245161.080374 kJ/mol
# GULP energy per Si atom -5571.842736 kJ/mol
# Density = 1.777734 g / cm^3
# Si number density = 17.817890 Si / 1000 Ang^3
#
#
#
# Elastic Constant Matrix: (Units=GPa)
#
#
# Indices 1 2 3 4 5 6 
#
# 1 14.5826 30.0917 32.4004 0.0000 0.0000 0.0000
# 2 30.0917 115.3146 120.1147 0.0000 0.0000 0.0000
# 3 32.4004 120.1147 177.3053 0.0000 0.0000 0.0000
# 4 0.0000 0.0000 0.0000 30.3031 0.0000 0.0000
# 5 0.0000 0.0000 0.0000 0.0000 -8.9624 0.0000
# 6 0.0000 0.0000 0.0000 0.0000 0.0000 15.2756
#
#
#
# Elastic Compliance Matrix: (Units=1/GPa)
#
#
# Indices 1 2 3 4 5 6 
#
# 1 0.149060 -0.035756 -0.003016 0.000000 0.000000 0.000000
# 2 -0.035756 0.038038 -0.019235 0.000000 0.000000 0.000000
# 3 -0.003016 -0.019235 0.019222 0.000000 0.000000 0.000000
# 4 0.000000 0.000000 0.000000 0.033000 0.000000 0.000000
# 5 0.000000 0.000000 0.000000 0.000000 -0.111578 0.000000
# 6 0.000000 0.000000 0.000000 0.000000 0.000000 0.065464
#
#
# Mechanical properties :
#
#
# Convention : Reuss Voigt Hill
#
# Bulk Modulus (GPa) = 11.07347 74.71290 42.89319
# Shear Modulus (GPa) = 14.73534 15.62966 15.18250
#
# Velocity S-wave (km/s) = 2.87888 2.96495 2.92223
# Velocity P-wave (km/s) = 4.15679 7.33101 5.95913
#
# Compressibility (1/GPa) = 0.09030591
#
# Stress axis : x y z
#
# Youngs Moduli (GPa) = 6.70871 26.28973 52.02501
#
# Poissons Ratio (x) = 0.94001 0.15693
# Poissons Ratio (y) = 0.23987 1.00068
# Poissons Ratio (z) = 0.02024 0.50567
#
# Static dielectric constant tensor:
#      x y z
#    x 1.605600 0.000000 0.000000 
#    y 0.000000 1.592920 0.000000 
#    z 0.000000 0.000000 1.610770 
# 
# From -- ./inp_files/77919.got.cif
#   From: 2010.05.17/outbox.cif.g08.bks.cpg/sg65_39_cif.got.tgz:77919.got - 2010.06.03 17:01:31.
