data_PCOD9493680
_publ_section_title
;
Structure prediction by ZEFSAII (Michael W. Deem and Ramdas Pophale) SiO2 
 PCOD9493680
Probable space group: C M M M
;
_chemical_formula_sum "Si O2"
_cell_formula_units_Z 56
_cell_length_a 18.612068
_cell_length_b 7.911931
_cell_length_c 19.190776
_cell_angle_alpha 90.000000
_cell_angle_beta 90.000000
_cell_angle_gamma 90.000000
_cell_volume 2825.983735
_symmetry_space_group_name_H-M "C M M M"
_symmetry_group_IT_number 65
_symmetry_cell_setting 'orthorhombic'
loop_
_space_group_symop_operation_xyz
x,y,z
-x,-y,z
x,-y,-z
-x,y,-z
-x,-y,-z
x,y,-z
-x,y,z
x,-y,z
1/2+x,1/2+y,z
1/2-x,1/2-y,z
1/2+x,1/2-y,-z
1/2-x,1/2+y,-z
1/2-x,1/2-y,-z
1/2+x,1/2+y,-z
1/2-x,1/2+y,z
1/2+x,1/2-y,z
loop_
_atom_site_type_symbol
_atom_site_label
_atom_site_fract_x
_atom_site_fract_y
_atom_site_fract_z
Si Si1 0.832952 0.200974 0.863413
Si Si2 0.912872 0.299291 0.425126
Si Si3 0.582234 0.796577 0.725707
Si Si4 0.417035 0.707276 0.000000
O O1 0.750000 0.250000 0.867063
O O2 0.868993 0.255724 0.791250
O O3 0.876472 0.266962 0.930498
O O4 0.837522 0.000000 0.866061
O O5 0.888407 0.227084 0.500000
O O6 0.896211 0.500000 0.426615
O O7 0.889752 0.231450 0.349607
O O8 0.000000 0.286399 0.423910
O O9 0.500000 0.735811 0.736821
O O10 0.578750 0.000000 0.719762
O O11 0.415900 0.500000 0.000000
O O12 0.500000 0.759011 0.000000
#
# Coordination Sequence:
#
# PCOD9493680 Si02
#       4
#    16  16  16   8
#     4  11  22  36  54  74 101 135 169 205 246 295
#     4   7  10  19  39  68  99 129 161 199 244 292
#     4   9  17  30  50  77 106 133 166 208 250 296
#     4   9  19  36  57  79 100 125 160 201 246 298
#
# _framework density 19.816109000000001
#
# number of rings (size 3 to 8) (size 9 to 14) (size 15 to 20)
#    0.000    3.000    0.000    4.714    0.000    1.714 
#    0.000    2.143    0.000    6.857    0.000    4.000 
#    0.000    0.000    0.000    0.000    0.000    0.000 
#
# Total GULP energy -156009.578347 kJ/mol
# GULP energy per Si atom -5571.770655 kJ/mol
# Density = 1.977101 g / cm^3
# Si number density = 19.816109 Si / 1000 Ang^3
#
#
#
# Elastic Constant Matrix: (Units=GPa)
#
#
# Indices 1 2 3 4 5 6 
#
# 1 108.8419 4.3162 106.0103 0.0000 0.0000 0.0000
# 2 4.3162 21.3404 13.6002 0.0000 0.0000 0.0000
# 3 106.0103 13.6002 260.8596 0.0000 0.0000 0.0000
# 4 0.0000 0.0000 0.0000 23.6399 0.0000 0.0000
# 5 0.0000 0.0000 0.0000 0.0000 -7.6057 0.0000
# 6 0.0000 0.0000 0.0000 0.0000 0.0000 1432.0790
#
#
#
# Elastic Compliance Matrix: (Units=1/GPa)
#
#
# Indices 1 2 3 4 5 6 
#
# 1 0.015223 0.000893 -0.006233 0.000000 0.000000 0.000000
# 2 0.000893 0.048522 -0.002893 0.000000 0.000000 0.000000
# 3 -0.006233 -0.002893 0.006517 0.000000 0.000000 0.000000
# 4 0.000000 0.000000 0.000000 0.042301 0.000000 0.000000
# 5 0.000000 0.000000 0.000000 0.000000 -0.131480 0.000000
# 6 0.000000 0.000000 0.000000 0.000000 0.000000 0.000698
#
#
# Mechanical properties :
#
#
# Convention : Reuss Voigt Hill
#
# Bulk Modulus (GPa) = 18.58812 70.98837 44.78824
# Shear Modulus (GPa) = 309.02816 307.43033 308.22925
#
# Velocity S-wave (km/s) = 12.50146 12.46910 12.48529
# Velocity P-wave (km/s) = 14.75746 15.59506 15.18204
#
# Compressibility (1/GPa) = 0.05379781
#
# Stress axis : x y z
#
# Youngs Moduli (GPa) = 65.68952 20.60905 153.43652
#
# Poissons Ratio (x) = -0.01841 0.95638
# Poissons Ratio (y) = -0.05869 0.44387
# Poissons Ratio (z) = 0.40945 0.05962
#
# Static dielectric constant tensor:
#      x y z
#    x 1.630300 0.000000 0.000000 
#    y 0.000000 1.721900 0.000000 
#    z 0.000000 0.000000 1.762640 
# 
# From -- ./inp_files/48762.got.cif
#   From: 2010.05.17/outbox.cif.g08.bks.cpg/sg65_25_cif.got.tgz:48762.got - 2010.06.03 17:01:31.
