data_PCOD9493403
_publ_section_title
;
Structure prediction by ZEFSAII (Michael W. Deem and Ramdas Pophale) SiO2 
 PCOD9493403
Probable space group: C M M M
;
_chemical_formula_sum "Si O2"
_cell_formula_units_Z 80
_cell_length_a 19.972421
_cell_length_b 8.586019
_cell_length_c 26.801069
_cell_angle_alpha 90.000000
_cell_angle_beta 90.000000
_cell_angle_gamma 90.000000
_cell_volume 4595.943426
_symmetry_space_group_name_H-M "C M M M"
_symmetry_group_IT_number 65
_symmetry_cell_setting 'orthorhombic'
loop_
_space_group_symop_operation_xyz
x,y,z
-x,-y,z
x,-y,-z
-x,y,-z
-x,-y,-z
x,y,-z
-x,y,z
x,-y,z
1/2+x,1/2+y,z
1/2-x,1/2-y,z
1/2+x,1/2-y,-z
1/2-x,1/2+y,-z
1/2-x,1/2-y,-z
1/2+x,1/2+y,-z
1/2-x,1/2+y,z
1/2+x,1/2-y,z
loop_
_atom_site_type_symbol
_atom_site_label
_atom_site_fract_x
_atom_site_fract_y
_atom_site_fract_z
Si Si1 0.174322 0.684834 0.158408
Si Si2 0.175222 0.811707 0.443765
Si Si3 0.421729 0.312070 0.756345
Si Si4 0.826134 0.813264 0.945731
Si Si5 0.923381 0.810136 0.643032
O O1 0.178668 0.500000 0.156497
O O2 0.250000 0.750000 0.164273
O O3 0.127393 0.739134 0.203368
O O4 0.145245 0.745913 0.105479
O O5 0.153962 0.765812 0.500000
O O6 0.250000 0.750000 0.435847
O O7 0.125985 0.756004 0.400280
O O8 0.176570 0.000000 0.442346
O O9 0.500000 0.271842 0.764889
O O10 0.416665 0.500000 0.759165
O O11 0.404489 0.264245 0.699460
O O12 0.750000 0.750000 0.946640
O O13 0.824681 0.000000 0.942366
O O14 0.856295 0.770686 0.000000
O O15 0.000000 0.761578 0.633907
O O16 0.922988 0.000000 0.642522
#
# Coordination Sequence:
#
# PCOD9493403 Si02
#       5
#    16  16  16  16  16
#     4  11  21  32  49  73 101 129 162 203 242 286
#     4   9  17  29  46  69  97 126 155 190 233 281
#     4   9  18  34  53  70  94 128 162 199 246 297
#     4   9  16  27  45  69  97 127 159 196 239 286
#     4   8  15  29  49  71  92 118 156 198 237 279
#
# _framework density 17.406654
#
# number of rings (size 3 to 8) (size 9 to 14) (size 15 to 20)
#    0.000    2.800    0.000    4.800    0.000    2.800 
#    0.000    5.000    0.000    2.400    0.000    7.000 
#    0.000    0.000    0.000    0.000    0.000    0.000 
#
# Total GULP energy -222843.852500 kJ/mol
# GULP energy per Si atom -5571.096313 kJ/mol
# Density = 1.736704 g / cm^3
# Si number density = 17.406654 Si / 1000 Ang^3
#
#
#
# Elastic Constant Matrix: (Units=GPa)
#
#
# Indices 1 2 3 4 5 6 
#
# 1 67.3528 29.4971 101.8154 0.0000 0.0000 0.0000
# 2 29.4971 47.7275 49.0875 0.0000 0.0000 0.0000
# 3 101.8154 49.0875 210.2367 0.0000 0.0000 0.0000
# 4 0.0000 0.0000 0.0000 17.6405 0.0000 0.0000
# 5 0.0000 0.0000 0.0000 0.0000 -18.9376 0.0000
# 6 0.0000 0.0000 0.0000 0.0000 0.0000 19.9949
#
#
#
# Elastic Compliance Matrix: (Units=1/GPa)
#
#
# Indices 1 2 3 4 5 6 
#
# 1 0.058340 -0.009209 -0.026103 0.000000 0.000000 0.000000
# 2 -0.009209 0.029027 -0.002318 0.000000 0.000000 0.000000
# 3 -0.026103 -0.002318 0.017939 0.000000 0.000000 0.000000
# 4 0.000000 0.000000 0.000000 0.056688 0.000000 0.000000
# 5 0.000000 0.000000 0.000000 0.000000 -0.052805 0.000000
# 6 0.000000 0.000000 0.000000 0.000000 0.000000 0.050013
#
#
# Mechanical properties :
#
#
# Convention : Reuss Voigt Hill
#
# Bulk Modulus (GPa) = 33.28143 76.23523 54.75833
# Shear Modulus (GPa) = 20.45184 13.40068 16.92626
#
# Velocity S-wave (km/s) = 3.43146 2.77764 3.12172
# Velocity P-wave (km/s) = 5.90435 7.36062 6.67234
#
# Compressibility (1/GPa) = 0.03004678
#
# Stress axis : x y z
#
# Youngs Moduli (GPa) = 17.14104 34.45010 55.74395
#
# Poissons Ratio (x) = 0.31724 1.45509
# Poissons Ratio (y) = 0.15785 0.12920
# Poissons Ratio (z) = 0.44743 0.07985
#
# Static dielectric constant tensor:
#      x y z
#    x 1.564440 0.000000 0.000000 
#    y 0.000000 1.593520 0.000000 
#    z 0.000000 0.000000 1.626810 
# 
# From -- ./inp_files/72804.got.cif
#   From: 2010.05.17/outbox.cif.g08.bks.cpg/sg65_37_cif.got.tgz:72804.got - 2010.06.03 17:01:31.
