data_PCOD9493175
_publ_section_title
;
Structure prediction by ZEFSAII (Michael W. Deem and Ramdas Pophale) SiO2 
 PCOD9493175
Probable space group: C M M M
;
_chemical_formula_sum "Si O2"
_cell_formula_units_Z 72
_cell_length_a 11.114415
_cell_length_b 20.793458
_cell_length_c 14.107993
_cell_angle_alpha 90.000000
_cell_angle_beta 90.000000
_cell_angle_gamma 90.000000
_cell_volume 3260.457652
_symmetry_space_group_name_H-M "C M M M"
_symmetry_group_IT_number 65
_symmetry_cell_setting 'orthorhombic'
loop_
_space_group_symop_operation_xyz
x,y,z
-x,-y,z
x,-y,-z
-x,y,-z
-x,-y,-z
x,y,-z
-x,y,z
x,-y,z
1/2+x,1/2+y,z
1/2-x,1/2-y,z
1/2+x,1/2-y,-z
1/2-x,1/2+y,-z
1/2-x,1/2-y,-z
1/2+x,1/2+y,-z
1/2-x,1/2+y,z
1/2+x,1/2-y,z
loop_
_atom_site_type_symbol
_atom_site_label
_atom_site_fract_x
_atom_site_fract_y
_atom_site_fract_z
Si Si1 0.135993 0.087983 0.894041
Si Si2 0.625288 0.259016 0.108889
Si Si3 0.743716 0.426137 0.696460
Si Si4 0.362559 0.297941 0.386510
Si Si5 0.000000 0.422394 0.607918
O O1 0.122777 0.164620 0.897813
O O2 0.225256 0.071753 0.809594
O O3 0.000000 0.065194 0.873629
O O4 0.171782 0.068148 0.000000
O O5 0.500000 0.234731 0.149763
O O6 0.750000 0.250000 0.160734
O O7 0.632354 0.233224 0.000000
O O8 0.719277 0.500000 0.661839
O O9 0.659640 0.368377 0.659347
O O10 0.877430 0.406833 0.662694
O O11 0.360103 0.306011 0.500000
O O12 0.500000 0.276146 0.361462
O O13 0.250000 0.250000 0.365157
O O14 0.000000 0.500000 0.600769
O O15 0.000000 0.395901 0.500000
#
# Coordination Sequence:
#
# PCOD9493175 Si02
#       5
#    16  16  16  16   8
#     4   9  19  36  56  82 123 172 217 267 329 390
#     4   8  14  27  47  72 105 150 205 260 313 371
#     4  11  23  40  65  97 130 170 225 281 333 396
#     4  10  23  42  66  99 136 173 214 270 342 413
#     4   9  20  40  65  93 125 165 211 265 338 413
#
# _framework density 22.082788999999998
#
# number of rings (size 3 to 8) (size 9 to 14) (size 15 to 20)
#    0.000    2.556    0.000    2.667    1.556    4.444 
#    2.000    2.778    0.000    2.000    0.000    0.000 
#    0.000    0.000    0.000    0.000    0.000    0.000 
#
# Total GULP energy -200586.264594 kJ/mol
# GULP energy per Si atom -5571.840683 kJ/mol
# Density = 2.203253 g / cm^3
# Si number density = 22.082789 Si / 1000 Ang^3
#
#
#
# Elastic Constant Matrix: (Units=GPa)
#
#
# Indices 1 2 3 4 5 6 
#
# 1 194.6903 36.8527 71.5573 0.0000 0.0000 0.0000
# 2 36.8527 81.8687 7.9856 0.0000 0.0000 0.0000
# 3 71.5573 7.9856 161.4446 0.0000 0.0000 0.0000
# 4 0.0000 0.0000 0.0000 5.1488 0.0000 0.0000
# 5 0.0000 0.0000 0.0000 0.0000 5.4071 0.0000
# 6 0.0000 0.0000 0.0000 0.0000 0.0000 50.3661
#
#
#
# Elastic Compliance Matrix: (Units=1/GPa)
#
#
# Indices 1 2 3 4 5 6 
#
# 1 0.006696 -0.002738 -0.002832 0.000000 0.000000 0.000000
# 2 -0.002738 0.013393 0.000551 0.000000 0.000000 0.000000
# 3 -0.002832 0.000551 0.007422 0.000000 0.000000 0.000000
# 4 0.000000 0.000000 0.000000 0.194221 0.000000 0.000000
# 5 0.000000 0.000000 0.000000 0.000000 0.184944 0.000000
# 6 0.000000 0.000000 0.000000 0.000000 0.000000 0.019855
#
#
# Mechanical properties :
#
#
# Convention : Reuss Voigt Hill
#
# Bulk Modulus (GPa) = 57.23114 74.53277 65.88195
# Shear Modulus (GPa) = 11.30219 33.62492 22.46356
#
# Velocity S-wave (km/s) = 2.26478 3.90638 3.19288
# Velocity P-wave (km/s) = 5.72816 7.36011 6.59481
#
# Compressibility (1/GPa) = 0.01747301
#
# Stress axis : x y z
#
# Youngs Moduli (GPa) = 149.35262 74.66418 134.73146
#
# Poissons Ratio (x) = 0.20441 0.38160
# Poissons Ratio (y) = 0.40888 -0.07423
# Poissons Ratio (z) = 0.42301 -0.04114
#
# Static dielectric constant tensor:
#      x y z
#    x 1.904370 0.000000 0.000000 
#    y 0.000000 1.843630 0.000000 
#    z 0.000000 0.000000 1.816830 
# 
# From -- ./inp_files/36614.got.cif
#   From: 2010.05.17/outbox.cif.g08.bks.cpg/sg65_19_cif.got.tgz:36614.got - 2010.06.03 17:01:31.
