data_PCOD9493051
_publ_section_title
;
Structure prediction by ZEFSAII (Michael W. Deem and Ramdas Pophale) SiO2 
 PCOD9493051
Probable space group: C M M M
;
_chemical_formula_sum "Si O2"
_cell_formula_units_Z 56
_cell_length_a 11.714004
_cell_length_b 27.855905
_cell_length_c 7.457117
_cell_angle_alpha 90.000000
_cell_angle_beta 90.000000
_cell_angle_gamma 90.000000
_cell_volume 2433.288467
_symmetry_space_group_name_H-M "C M M M"
_symmetry_group_IT_number 65
_symmetry_cell_setting 'orthorhombic'
loop_
_space_group_symop_operation_xyz
x,y,z
-x,-y,z
x,-y,-z
-x,y,-z
-x,-y,-z
x,y,-z
-x,y,z
x,-y,z
1/2+x,1/2+y,z
1/2-x,1/2-y,z
1/2+x,1/2-y,-z
1/2-x,1/2+y,-z
1/2-x,1/2-y,-z
1/2+x,1/2+y,-z
1/2-x,1/2+y,z
1/2+x,1/2-y,z
loop_
_atom_site_type_symbol
_atom_site_label
_atom_site_fract_x
_atom_site_fract_y
_atom_site_fract_z
Si Si1 0.302899 0.372882 0.794447
Si Si2 0.500000 0.445015 0.283559
Si Si3 0.628472 0.731263 0.294630
Si Si4 0.132846 0.552348 0.218412
O O1 0.392451 0.416075 0.787890
O O2 0.355028 0.326206 0.703958
O O3 0.192477 0.399274 0.715696
O O4 0.281268 0.358525 0.000000
O O5 0.500000 0.500000 0.227886
O O6 0.500000 0.442754 0.500000
O O7 0.625893 0.749268 0.500000
O O8 0.500000 0.741500 0.218629
O O9 0.750000 0.750000 0.215552
O O10 0.180187 0.500000 0.277447
O O11 0.000000 0.552931 0.263338
O O12 0.142260 0.553039 0.000000
#
# Coordination Sequence:
#
# PCOD9493051 Si02
#       4
#    16   8  16  16
#     4  11  21  34  57  87 115 145 188 243 295 344
#     4  11  23  37  55  81 117 159 195 231 284 351
#     4  10  22  41  62  82 111 154 199 243 298 362
#     4   8  15  29  49  76 113 152 185 222 277 343
#
# _framework density 23.014123999999999
#
# number of rings (size 3 to 8) (size 9 to 14) (size 15 to 20)
#    0.000    2.143    1.429    3.000    0.000    4.000 
#    0.000    0.000    0.000    2.571    0.000   10.000 
#    0.000    0.000    0.000    0.000    0.000    0.000 
#
# Total GULP energy -156150.037294 kJ/mol
# GULP energy per Si atom -5576.787046 kJ/mol
# Density = 2.296174 g / cm^3
# Si number density = 23.014124 Si / 1000 Ang^3
#
#
#
# Elastic Constant Matrix: (Units=GPa)
#
#
# Indices 1 2 3 4 5 6 
#
# 1 152.1925 49.8818 1.3170 0.0000 0.0000 0.0000
# 2 49.8818 85.4002 -3.6616 0.0000 0.0000 0.0000
# 3 1.3170 -3.6616 75.6224 0.0000 0.0000 0.0000
# 4 0.0000 0.0000 0.0000 13.8820 0.0000 0.0000
# 5 0.0000 0.0000 0.0000 0.0000 -10.1476 0.0000
# 6 0.0000 0.0000 0.0000 0.0000 0.0000 -2.6969
#
#
#
# Elastic Compliance Matrix: (Units=1/GPa)
#
#
# Indices 1 2 3 4 5 6 
#
# 1 0.008137 -0.004769 -0.000373 0.000000 0.000000 0.000000
# 2 -0.004769 0.014529 0.000787 0.000000 0.000000 0.000000
# 3 -0.000373 0.000787 0.013268 0.000000 0.000000 0.000000
# 4 0.000000 0.000000 0.000000 0.072036 0.000000 0.000000
# 5 0.000000 0.000000 0.000000 0.000000 -0.098545 0.000000
# 6 0.000000 0.000000 0.000000 0.000000 0.000000 -0.370794
#
#
# Mechanical properties :
#
#
# Convention : Reuss Voigt Hill
#
# Bulk Modulus (GPa) = 36.73207 45.36550 41.04879
# Shear Modulus (GPa) = -14.55241 17.91935 1.68347
#
# Velocity S-wave (km/s) = -2.51734 2.79341 0.85620
# Velocity P-wave (km/s) = 2.74700 5.49172 4.34195
#
# Compressibility (1/GPa) = 0.02722416
#
# Stress axis : x y z
#
# Youngs Moduli (GPa) = 122.89862 68.82967 75.36835
#
# Poissons Ratio (x) = 0.32822 0.02808
# Poissons Ratio (y) = 0.58606 -0.05928
# Poissons Ratio (z) = 0.04579 -0.05414
#
# Static dielectric constant tensor:
#      x y z
#    x 1.443800 0.000000 0.000000 
#    y 0.000000 1.829870 0.000000 
#    z 0.000000 0.000000 1.912870 
# 
# From -- ./inp_files/4410.got.cif
#   From: 2010.05.17/outbox.cif.g08.bks.cpg/sg65_3_cif.got.tgz:4410.got - 2010.06.03 17:01:31.
