data_PCOD9493273
_publ_section_title
;
Structure prediction by ZEFSAII (Michael W. Deem and Ramdas Pophale) SiO2 
 PCOD9493273
Probable space group: C M M M
;
_chemical_formula_sum "Si O2"
_cell_formula_units_Z 80
_cell_length_a 34.527005
_cell_length_b 20.102333
_cell_length_c 7.665420
_cell_angle_alpha 90.000000
_cell_angle_beta 90.000000
_cell_angle_gamma 90.000000
_cell_volume 5320.363754
_symmetry_space_group_name_H-M "C M M M"
_symmetry_group_IT_number 65
_symmetry_cell_setting 'orthorhombic'
loop_
_space_group_symop_operation_xyz
x,y,z
-x,-y,z
x,-y,-z
-x,y,-z
-x,-y,-z
x,y,-z
-x,y,z
x,-y,z
1/2+x,1/2+y,z
1/2-x,1/2-y,z
1/2+x,1/2-y,-z
1/2-x,1/2+y,-z
1/2-x,1/2-y,-z
1/2+x,1/2+y,-z
1/2-x,1/2+y,z
1/2+x,1/2-y,z
loop_
_atom_site_type_symbol
_atom_site_label
_atom_site_fract_x
_atom_site_fract_y
_atom_site_fract_z
Si Si1 0.956460 0.077170 0.286656
Si Si2 0.621538 0.635672 0.703229
Si Si3 0.744164 0.000000 0.213034
Si Si4 0.334351 0.500000 0.790181
Si Si5 0.691992 0.276357 0.793701
Si Si6 0.232004 0.645595 0.786344
O O1 0.955843 0.077676 0.500000
O O2 0.921327 0.122778 0.221814
O O3 0.000000 0.095845 0.232700
O O4 0.949683 0.000000 0.235688
O O5 0.616565 0.648478 0.500000
O O6 0.644171 0.566072 0.727339
O O7 0.649765 0.693382 0.768430
O O8 0.726314 0.930032 0.272681
O O9 0.789499 0.000000 0.263095
O O10 0.743133 0.000000 0.000000
O O11 0.335271 0.500000 0.000000
O O12 0.725620 0.326849 0.729984
O O13 0.701777 0.202290 0.727934
O O14 0.698387 0.273171 0.000000
O O15 0.231808 0.643403 0.000000
#
# Coordination Sequence:
#
# PCOD9493273 Si02
#       6
#    16  16   8   8  16  16
#     4   8  14  25  39  53  71  97 126 154 185 222
#     4  11  19  27  40  58  77  96 126 165 195 224
#     4   9  14  23  41  58  68  93 135 169 182 203
#     4  11  19  27  40  56  75 100 130 161 193 226
#     4   9  16  27  40  55  75 101 127 155 190 227
#     4   8  14  24  39  56  74  97 132 162 182 216
#
# _framework density 15.036565
#
# number of rings (size 3 to 8) (size 9 to 14) (size 15 to 20)
#    0.000    2.800    3.000    2.700    0.000    0.000 
#    0.000    2.000    0.000    3.000    0.000    0.000 
#    0.000    0.000    0.000    0.900    0.000   20.200 
#
# Total GULP energy -222782.391677 kJ/mol
# GULP energy per Si atom -5569.559792 kJ/mol
# Density = 1.500234 g / cm^3
# Si number density = 15.036565 Si / 1000 Ang^3
#
#
#
# Elastic Constant Matrix: (Units=GPa)
#
#
# Indices 1 2 3 4 5 6 
#
# 1 104.8560 64.0043 -1.4542 0.0000 0.0000 0.0000
# 2 64.0043 126.8663 2.9939 0.0000 0.0000 0.0000
# 3 -1.4542 2.9939 19.8229 0.0000 0.0000 0.0000
# 4 0.0000 0.0000 0.0000 -24.9837 0.0000 0.0000
# 5 0.0000 0.0000 0.0000 0.0000 13.0788 0.0000
# 6 0.0000 0.0000 0.0000 0.0000 0.0000 26.0632
#
#
#
# Elastic Compliance Matrix: (Units=1/GPa)
#
#
# Indices 1 2 3 4 5 6 
#
# 1 0.013866 -0.007044 0.002081 0.000000 0.000000 0.000000
# 2 -0.007044 0.011489 -0.002252 0.000000 0.000000 0.000000
# 3 0.002081 -0.002252 0.050939 0.000000 0.000000 0.000000
# 4 0.000000 0.000000 0.000000 -0.040026 0.000000 0.000000
# 5 0.000000 0.000000 0.000000 0.000000 0.076460 0.000000
# 6 0.000000 0.000000 0.000000 0.000000 0.000000 0.038368
#
#
# Mechanical properties :
#
#
# Convention : Reuss Voigt Hill
#
# Bulk Modulus (GPa) = 16.16453 42.51478 29.33965
# Shear Modulus (GPa) = 26.86037 15.23176 21.04607
#
# Velocity S-wave (km/s) = 4.23109 3.18619 3.74526
# Velocity P-wave (km/s) = 5.88583 6.47081 6.18524
#
# Compressibility (1/GPa) = 0.06186385
#
# Stress axis : x y z
#
# Youngs Moduli (GPa) = 72.12077 87.03715 19.63117
#
# Poissons Ratio (x) = 0.61312 -0.04085
# Poissons Ratio (y) = 0.50804 0.04421
# Poissons Ratio (z) = -0.15009 0.19601
#
# Static dielectric constant tensor:
#      x y z
#    x 1.516450 0.000000 0.000000 
#    y 0.000000 1.503890 0.000000 
#    z 0.000000 0.000000 1.559220 
# 
# From -- ./inp_files/18447.got.cif
#   From: 2010.05.17/outbox.cif.g08.bks.cpg/sg65_10_cif.got.tgz:18447.got - 2010.06.03 17:01:31.
