data_PCOD9493833
_publ_section_title
;
Structure prediction by ZEFSAII (Michael W. Deem and Ramdas Pophale) SiO2 
 PCOD9493833
Probable space group: C M M M
;
_chemical_formula_sum "Si O2"
_cell_formula_units_Z 64
_cell_length_a 8.594420
_cell_length_b 15.524954
_cell_length_c 25.053064
_cell_angle_alpha 90.000000
_cell_angle_beta 90.000000
_cell_angle_gamma 90.000000
_cell_volume 3342.779601
_symmetry_space_group_name_H-M "C M M M"
_symmetry_group_IT_number 65
_symmetry_cell_setting 'orthorhombic'
loop_
_space_group_symop_operation_xyz
x,y,z
-x,-y,z
x,-y,-z
-x,y,-z
-x,-y,-z
x,y,-z
-x,y,z
x,-y,z
1/2+x,1/2+y,z
1/2-x,1/2-y,z
1/2+x,1/2-y,-z
1/2-x,1/2+y,-z
1/2-x,1/2-y,-z
1/2+x,1/2+y,-z
1/2-x,1/2+y,z
1/2+x,1/2-y,z
loop_
_atom_site_type_symbol
_atom_site_label
_atom_site_fract_x
_atom_site_fract_y
_atom_site_fract_z
Si Si1 0.313012 0.000000 0.317386
Si Si2 0.316868 0.103607 0.500000
Si Si3 0.310094 0.000000 0.194332
Si Si4 0.314936 0.342359 0.386008
Si Si5 0.812533 0.347431 0.000000
Si Si6 0.688436 0.152554 0.117315
O O1 0.261369 0.000000 0.255795
O O2 0.251847 0.916846 0.348548
O O3 0.500000 0.000000 0.319167
O O4 0.500000 0.124895 0.500000
O O5 0.240326 0.139542 0.446477
O O6 0.301247 0.000000 0.500000
O O7 0.259823 0.914647 0.162286
O O8 0.500000 0.000000 0.193639
O O9 0.500000 0.342973 0.384196
O O10 0.250000 0.250000 0.369155
O O11 0.750000 0.250000 0.000000
O O12 0.764536 0.381960 0.941907
O O13 0.000000 0.348118 0.000000
O O14 0.500000 0.156444 0.118439
O O15 0.750000 0.250000 0.124139
#
# Coordination Sequence:
#
# PCOD9493833 Si02
#       6
#     8   8   8  16   8  16
#     4  11  23  42  61  83 116 154 198 249 296 343
#     4  11  22  39  66  96 129 161 189 231 288 344
#     4   9  20  36  56  79 108 144 187 235 284 335
#     4  12  25  42  65  92 122 157 197 240 289 346
#     4   8  14  25  47  75 106 138 176 221 273 335
#     4   9  17  32  52  78 108 143 181 226 280 336
#
# _framework density 19.145744000000001
#
# number of rings (size 3 to 8) (size 9 to 14) (size 15 to 20)
#    0.000    1.875    1.250    3.375    0.000    2.000 
#    0.000    8.125    0.000    0.000    0.000    8.750 
#    0.000    0.000    0.000    0.000    0.000    0.000 
#
# Total GULP energy -178677.082570 kJ/mol
# GULP energy per Si atom -5583.658830 kJ/mol
# Density = 1.910217 g / cm^3
# Si number density = 19.145744 Si / 1000 Ang^3
#
#
#
# Elastic Constant Matrix: (Units=GPa)
#
#
# Indices 1 2 3 4 5 6 
#
# 1 76.5753 47.2557 43.4934 0.0000 0.0000 0.0000
# 2 47.2557 151.4817 104.1338 0.0000 0.0000 0.0000
# 3 43.4934 104.1338 192.5391 0.0000 0.0000 0.0000
# 4 0.0000 0.0000 0.0000 91.8369 0.0000 0.0000
# 5 0.0000 0.0000 0.0000 0.0000 11.3870 0.0000
# 6 0.0000 0.0000 0.0000 0.0000 0.0000 28.4894
#
#
#
# Elastic Compliance Matrix: (Units=1/GPa)
#
#
# Indices 1 2 3 4 5 6 
#
# 1 0.016439 -0.004100 -0.001496 0.000000 0.000000 0.000000
# 2 -0.004100 0.011531 -0.005310 0.000000 0.000000 0.000000
# 3 -0.001496 -0.005310 0.008404 0.000000 0.000000 0.000000
# 4 0.000000 0.000000 0.000000 0.010889 0.000000 0.000000
# 5 0.000000 0.000000 0.000000 0.000000 0.087820 0.000000
# 6 0.000000 0.000000 0.000000 0.000000 0.000000 0.035101
#
#
# Mechanical properties :
#
#
# Convention : Reuss Voigt Hill
#
# Bulk Modulus (GPa) = 68.67583 90.04022 79.35802
# Shear Modulus (GPa) = 25.40019 41.39019 33.39519
#
# Velocity S-wave (km/s) = 3.64631 4.65461 4.18097
# Velocity P-wave (km/s) = 7.32634 8.71884 8.05275
#
# Compressibility (1/GPa) = 0.01456116
#
# Stress axis : x y z
#
# Youngs Moduli (GPa) = 60.83167 86.72358 118.99413
#
# Poissons Ratio (x) = 0.35554 0.17803
# Poissons Ratio (y) = 0.24939 0.63190
# Poissons Ratio (z) = 0.09101 0.46053
#
# Static dielectric constant tensor:
#      x y z
#    x 1.645250 0.000000 0.000000 
#    y 0.000000 1.642960 0.000000 
#    z 0.000000 0.000000 1.673430 
# 
# From -- ./inp_files/66863.got.cif
#   From: 2010.05.17/outbox.cif.g08.bks.cpg/sg65_34_cif.got.tgz:66863.got - 2010.06.03 17:01:31.
