data_PCOD9493198
_publ_section_title
;
Structure prediction by ZEFSAII (Michael W. Deem and Ramdas Pophale) SiO2 
 PCOD9493198
Probable space group: C M M M
;
_chemical_formula_sum "Si O2"
_cell_formula_units_Z 112
_cell_length_a 14.566532
_cell_length_b 15.230425
_cell_length_c 24.078481
_cell_angle_alpha 90.000000
_cell_angle_beta 90.000000
_cell_angle_gamma 90.000000
_cell_volume 5341.918716
_symmetry_space_group_name_H-M "C M M M"
_symmetry_group_IT_number 65
_symmetry_cell_setting 'orthorhombic'
loop_
_space_group_symop_operation_xyz
x,y,z
-x,-y,z
x,-y,-z
-x,y,-z
-x,-y,-z
x,y,-z
-x,y,z
x,-y,z
1/2+x,1/2+y,z
1/2-x,1/2-y,z
1/2+x,1/2-y,-z
1/2-x,1/2+y,-z
1/2-x,1/2-y,-z
1/2+x,1/2+y,-z
1/2-x,1/2+y,z
1/2+x,1/2-y,z
loop_
_atom_site_type_symbol
_atom_site_label
_atom_site_fract_x
_atom_site_fract_y
_atom_site_fract_z
Si Si1 0.776699 0.153355 0.221191
Si Si2 0.776176 0.103033 0.100689
Si Si3 0.392045 0.773588 0.933817
Si Si4 0.097715 0.602636 0.409954
Si Si5 0.608265 0.604394 0.674029
Si Si6 0.290191 0.652847 0.439996
Si Si7 0.902043 0.395318 0.285788
O O1 0.750000 0.250000 0.201715
O O2 0.800784 0.100953 0.166182
O O3 0.848080 0.151589 0.272259
O O4 0.683054 0.120440 0.247760
O O5 0.676369 0.151495 0.091833
O O6 0.847359 0.176232 0.076164
O O7 0.777232 0.000000 0.080779
O O8 0.500000 0.777288 0.915400
O O9 0.390660 0.788394 0.000000
O O10 0.084338 0.500000 0.402973
O O11 0.192791 0.605082 0.441040
O O12 0.111528 0.641586 0.348073
O O13 0.000000 0.638753 0.432432
O O14 0.500000 0.620209 0.671520
O O15 0.625402 0.500000 0.682014
O O16 0.653332 0.629378 0.614855
O O17 0.338175 0.641414 0.500000
O O18 0.250000 0.750000 0.435229
O O19 0.907801 0.500000 0.290670
O O20 0.000000 0.361893 0.264533
#
# Coordination Sequence:
#
# PCOD9493198 Si02
#       7
#    16  16  16  16  16  16  16
#     4  12  23  40  62  91 131 170 208 264 331 388
#     4  11  23  42  69 101 139 186 239 289 339 404
#     4  10  23  45  70 102 146 188 230 287 350 404
#     4   9  18  34  58  85 110 139 179 233 299 366
#     4  11  25  43  62  86 118 161 213 261 312 383
#     4  11  24  41  60  84 114 151 196 252 318 385
#     4   9  18  33  56  85 115 150 193 242 302 376
#
# _framework density 20.966249999999999
#
# number of rings (size 3 to 8) (size 9 to 14) (size 15 to 20)
#    0.000    1.571    2.857    3.857    0.000    5.714 
#    0.000    4.286    0.000    0.000    0.000    0.000 
#    0.000    0.000    0.000    0.000    0.000    0.000 
#
# Total GULP energy -311916.698294 kJ/mol
# GULP energy per Si atom -5569.941041 kJ/mol
# Density = 2.091853 g / cm^3
# Si number density = 20.966250 Si / 1000 Ang^3
#
#
#
# Elastic Constant Matrix: (Units=GPa)
#
#
# Indices 1 2 3 4 5 6 
#
# 1 87.8258 19.9620 26.9786 0.0000 0.0000 0.0000
# 2 19.9620 90.2265 5.4770 0.0000 0.0000 0.0000
# 3 26.9786 5.4770 95.8696 0.0000 0.0000 0.0000
# 4 0.0000 0.0000 0.0000 24.8200 0.0000 0.0000
# 5 0.0000 0.0000 0.0000 0.0000 3.8302 0.0000
# 6 0.0000 0.0000 0.0000 0.0000 0.0000 43.3418
#
#
#
# Elastic Compliance Matrix: (Units=1/GPa)
#
#
# Indices 1 2 3 4 5 6 
#
# 1 0.013079 -0.002679 -0.003527 0.000000 0.000000 0.000000
# 2 -0.002679 0.011671 0.000087 0.000000 0.000000 0.000000
# 3 -0.003527 0.000087 0.011418 0.000000 0.000000 0.000000
# 4 0.000000 0.000000 0.000000 0.040290 0.000000 0.000000
# 5 0.000000 0.000000 0.000000 0.000000 0.261082 0.000000
# 6 0.000000 0.000000 0.000000 0.000000 0.000000 0.023072
#
#
# Mechanical properties :
#
#
# Convention : Reuss Voigt Hill
#
# Bulk Modulus (GPa) = 41.79064 42.08413 41.93739
# Shear Modulus (GPa) = 13.12927 29.16534 21.14731
#
# Velocity S-wave (km/s) = 2.50513 3.73374 3.17935
# Velocity P-wave (km/s) = 5.32383 6.22123 5.78994
#
# Compressibility (1/GPa) = 0.02392880
#
# Stress axis : x y z
#
# Youngs Moduli (GPa) = 76.45987 85.68437 87.57724
#
# Poissons Ratio (x) = 0.22959 0.30892
# Poissons Ratio (y) = 0.20487 -0.00764
# Poissons Ratio (z) = 0.26971 -0.00748
#
# Static dielectric constant tensor:
#      x y z
#    x 1.594710 0.000000 0.000000 
#    y 0.000000 1.778490 0.000000 
#    z 0.000000 0.000000 1.799660 
# 
# From -- ./inp_files/70063.got.cif
#   From: 2010.05.17/outbox.cif.g08.bks.cpg/sg65_36_cif.got.tgz:70063.got - 2010.06.03 17:01:31.
