data_PCOD9493152
_publ_section_title
;
Structure prediction by ZEFSAII (Michael W. Deem and Ramdas Pophale) SiO2 
 PCOD9493152
Probable space group: C M M M
;
_chemical_formula_sum "Si O2"
_cell_formula_units_Z 72
_cell_length_a 25.019469
_cell_length_b 10.837293
_cell_length_c 17.168812
_cell_angle_alpha 90.000000
_cell_angle_beta 90.000000
_cell_angle_gamma 90.000000
_cell_volume 4655.208622
_symmetry_space_group_name_H-M "C M M M"
_symmetry_group_IT_number 65
_symmetry_cell_setting 'orthorhombic'
loop_
_space_group_symop_operation_xyz
x,y,z
-x,-y,z
x,-y,-z
-x,y,-z
-x,-y,-z
x,y,-z
-x,y,z
x,-y,z
1/2+x,1/2+y,z
1/2-x,1/2-y,z
1/2+x,1/2-y,-z
1/2-x,1/2+y,-z
1/2-x,1/2-y,-z
1/2+x,1/2+y,-z
1/2-x,1/2+y,z
1/2+x,1/2-y,z
loop_
_atom_site_type_symbol
_atom_site_label
_atom_site_fract_x
_atom_site_fract_y
_atom_site_fract_z
Si Si1 0.936703 0.000000 0.092902
Si Si2 0.897831 0.752197 0.831102
Si Si3 0.794316 0.356702 0.908116
Si Si4 0.000000 0.644219 0.913005
Si Si5 0.564138 0.649015 0.328232
Si Si6 0.064701 0.143847 0.500000
O O1 0.905368 0.117396 0.125245
O O2 0.000000 0.000000 0.119074
O O3 0.936948 0.000000 0.000000
O O4 0.844675 0.681588 0.855890
O O5 0.905248 0.781542 0.740201
O O6 0.948280 0.679137 0.864495
O O7 0.777628 0.500000 0.893140
O O8 0.750000 0.250000 0.896362
O O9 0.809656 0.351301 0.000000
O O10 0.000000 0.500000 0.923436
O O11 0.000000 0.704252 0.000000
O O12 0.500000 0.667767 0.318778
O O13 0.572231 0.500000 0.322550
O O14 0.580614 0.692710 0.415109
O O15 0.000000 0.146402 0.500000
O O16 0.080330 0.000000 0.500000
#
# Coordination Sequence:
#
# PCOD9493152 Si02
#       6
#     8  16  16   8  16   8
#     4  11  20  28  42  71 105 137 167 197 247 299
#     4  12  20  31  49  73 102 132 167 212 252 299
#     4  10  23  41  57  73  96 132 178 221 261 305
#     4  11  22  33  45  64  95 135 170 203 250 304
#     4   9  15  26  42  71 104 135 168 204 244 300
#     4   7  12  22  40  62  99 138 165 198 244 290
#
# _framework density 15.466545999999999
#
# number of rings (size 3 to 8) (size 9 to 14) (size 15 to 20)
#    0.000    1.889    3.333    4.000    1.556    1.778 
#    0.000    0.000    0.000    0.000    0.000    4.667 
#    0.000    0.000    0.000    0.000    0.000    0.000 
#
# Total GULP energy -200552.029484 kJ/mol
# GULP energy per Si atom -5570.889708 kJ/mol
# Density = 1.543134 g / cm^3
# Si number density = 15.466546 Si / 1000 Ang^3
#
#
#
# Elastic Constant Matrix: (Units=GPa)
#
#
# Indices 1 2 3 4 5 6 
#
# 1 58.5949 29.8989 46.6547 0.0000 0.0000 0.0000
# 2 29.8989 87.7121 39.1744 0.0000 0.0000 0.0000
# 3 46.6547 39.1744 136.9733 0.0000 0.0000 0.0000
# 4 0.0000 0.0000 0.0000 22.4688 0.0000 0.0000
# 5 0.0000 0.0000 0.0000 0.0000 17.4124 0.0000
# 6 0.0000 0.0000 0.0000 0.0000 0.0000 22.8865
#
#
#
# Elastic Compliance Matrix: (Units=1/GPa)
#
#
# Indices 1 2 3 4 5 6 
#
# 1 0.025562 -0.005531 -0.007125 0.000000 0.000000 0.000000
# 2 -0.005531 0.014267 -0.002196 0.000000 0.000000 0.000000
# 3 -0.007125 -0.002196 0.010356 0.000000 0.000000 0.000000
# 4 0.000000 0.000000 0.000000 0.044506 0.000000 0.000000
# 5 0.000000 0.000000 0.000000 0.000000 0.057430 0.000000
# 6 0.000000 0.000000 0.000000 0.000000 0.000000 0.043694
#
#
# Mechanical properties :
#
#
# Convention : Reuss Voigt Hill
#
# Bulk Modulus (GPa) = 48.82849 57.19294 53.01071
# Shear Modulus (GPa) = 21.51960 23.72369 22.62164
#
# Velocity S-wave (km/s) = 3.73415 3.92072 3.82857
# Velocity P-wave (km/s) = 7.08736 7.58649 7.34117
#
# Compressibility (1/GPa) = 0.02047985
#
# Stress axis : x y z
#
# Youngs Moduli (GPa) = 39.12125 70.08980 96.56605
#
# Poissons Ratio (x) = 0.38769 0.68800
# Poissons Ratio (y) = 0.21639 0.21210
# Poissons Ratio (z) = 0.27872 0.15395
#
# Static dielectric constant tensor:
#      x y z
#    x 1.489650 0.000000 0.000000 
#    y 0.000000 1.598010 0.000000 
#    z 0.000000 0.000000 1.540100 
# 
# From -- ./inp_files/56581.got.cif
#   From: 2010.05.17/outbox.cif.g08.bks.cpg/sg65_29_cif.got.tgz:56581.got - 2010.06.03 17:01:31.
