data_PCOD9493123
_publ_section_title
;
Structure prediction by ZEFSAII (Michael W. Deem and Ramdas Pophale) SiO2 
 PCOD9493123
Probable space group: C M M M
;
_chemical_formula_sum "Si O2"
_cell_formula_units_Z 72
_cell_length_a 10.427754
_cell_length_b 15.314025
_cell_length_c 23.810907
_cell_angle_alpha 90.000000
_cell_angle_beta 90.000000
_cell_angle_gamma 90.000000
_cell_volume 3802.384822
_symmetry_space_group_name_H-M "C M M M"
_symmetry_group_IT_number 65
_symmetry_cell_setting 'orthorhombic'
loop_
_space_group_symop_operation_xyz
x,y,z
-x,-y,z
x,-y,-z
-x,y,-z
-x,-y,-z
x,y,-z
-x,y,z
x,-y,z
1/2+x,1/2+y,z
1/2-x,1/2-y,z
1/2+x,1/2-y,-z
1/2-x,1/2+y,-z
1/2-x,1/2-y,-z
1/2+x,1/2+y,-z
1/2-x,1/2+y,z
1/2+x,1/2-y,z
loop_
_atom_site_type_symbol
_atom_site_label
_atom_site_fract_x
_atom_site_fract_y
_atom_site_fract_z
Si Si1 0.150290 0.605502 0.437742
Si Si2 0.500000 0.594703 0.740561
Si Si3 0.500000 0.259844 0.835841
Si Si4 0.755556 0.351321 0.317780
Si Si5 0.656201 0.894171 0.000000
Si Si6 0.500000 0.096609 0.245520
Si Si7 0.750000 0.250000 0.088474
O O1 0.194814 0.632825 0.500000
O O2 0.155920 0.500000 0.435678
O O3 0.225078 0.640613 0.384355
O O4 0.000000 0.629736 0.432265
O O5 0.500000 0.500000 0.767918
O O6 0.500000 0.668328 0.787368
O O7 0.625340 0.605179 0.702508
O O8 0.500000 0.167614 0.803406
O O9 0.373561 0.268672 0.873436
O O10 0.750000 0.250000 0.301905
O O11 0.876600 0.391489 0.285404
O O12 0.713069 0.836209 0.051683
O O13 0.500000 0.887045 0.000000
O O14 0.685516 0.000000 0.000000
O O15 0.500000 0.000000 0.221055
#
# Coordination Sequence:
#
# PCOD9493123 Si02
#       7
#    16   8   8  16   8   8   8
#     4   9  18  34  59  88 113 148 207 270 321 383
#     4  12  26  42  60  89 132 172 205 261 328 380
#     4  12  24  43  64 100 137 170 220 266 320 362
#     4  12  22  40  62  88 123 162 212 265 323 395
#     4  10  22  45  74 105 136 181 225 256 312 376
#     4  12  24  42  68  91 120 174 229 261 306 386
#     4  11  24  42  72 102 140 172 213 274 314 360
#
# _framework density 18.935486000000001
#
# number of rings (size 3 to 8) (size 9 to 14) (size 15 to 20)
#    0.000    1.000    4.444    4.000    0.000    2.222 
#    0.000    1.111    0.000    2.000    0.000    0.000 
#    0.000    0.000    0.000    0.000    0.000    0.000 
#
# Total GULP energy -201089.885468 kJ/mol
# GULP energy per Si atom -5585.830152 kJ/mol
# Density = 1.889239 g / cm^3
# Si number density = 18.935486 Si / 1000 Ang^3
#
#
#
# Elastic Constant Matrix: (Units=GPa)
#
#
# Indices 1 2 3 4 5 6 
#
# 1 153.9311 42.3547 73.5426 0.0000 0.0000 0.0000
# 2 42.3547 148.5398 49.7113 0.0000 0.0000 0.0000
# 3 73.5426 49.7113 126.6772 0.0000 0.0000 0.0000
# 4 0.0000 0.0000 0.0000 -14.7616 0.0000 0.0000
# 5 0.0000 0.0000 0.0000 0.0000 13.8672 0.0000
# 6 0.0000 0.0000 0.0000 0.0000 0.0000 31.2300
#
#
#
# Elastic Compliance Matrix: (Units=1/GPa)
#
#
# Indices 1 2 3 4 5 6 
#
# 1 0.009105 -0.000952 -0.004912 0.000000 0.000000 0.000000
# 2 -0.000952 0.007850 -0.002528 0.000000 0.000000 0.000000
# 3 -0.004912 -0.002528 0.011738 0.000000 0.000000 0.000000
# 4 0.000000 0.000000 0.000000 -0.067743 0.000000 0.000000
# 5 0.000000 0.000000 0.000000 0.000000 0.072113 0.000000
# 6 0.000000 0.000000 0.000000 0.000000 0.000000 0.032020
#
#
# Mechanical properties :
#
#
# Convention : Reuss Voigt Hill
#
# Bulk Modulus (GPa) = 83.97463 84.48503 84.22983
# Shear Modulus (GPa) = 58.24997 23.63642 40.94319
#
# Velocity S-wave (km/s) = 5.55240 3.53691 4.65504
# Velocity P-wave (km/s) = 9.24930 7.83542 8.57156
#
# Compressibility (1/GPa) = 0.01190836
#
# Stress axis : x y z
#
# Youngs Moduli (GPa) = 109.82447 127.39474 85.19420
#
# Poissons Ratio (x) = 0.12132 0.41851
# Poissons Ratio (y) = 0.10458 0.21533
# Poissons Ratio (z) = 0.53951 0.32199
#
# Static dielectric constant tensor:
#      x y z
#    x 1.635110 0.000000 0.000000 
#    y 0.000000 1.684200 0.000000 
#    z 0.000000 0.000000 1.649020 
# 
# From -- ./inp_files/72667.got.cif
#   From: 2010.05.17/outbox.cif.g08.bks.cpg/sg65_37_cif.got.tgz:72667.got - 2010.06.03 17:01:31.
