data_PCOD9493290
_publ_section_title
;
Structure prediction by ZEFSAII (Michael W. Deem and Ramdas Pophale) SiO2 
 PCOD9493290
Probable space group: C M M M
;
_chemical_formula_sum "Si O2"
_cell_formula_units_Z 72
_cell_length_a 24.389434
_cell_length_b 8.195780
_cell_length_c 18.459286
_cell_angle_alpha 90.000000
_cell_angle_beta 90.000000
_cell_angle_gamma 90.000000
_cell_volume 3689.834716
_symmetry_space_group_name_H-M "C M M M"
_symmetry_group_IT_number 65
_symmetry_cell_setting 'orthorhombic'
loop_
_space_group_symop_operation_xyz
x,y,z
-x,-y,z
x,-y,-z
-x,y,-z
-x,-y,-z
x,y,-z
-x,y,z
x,-y,z
1/2+x,1/2+y,z
1/2-x,1/2-y,z
1/2+x,1/2-y,-z
1/2-x,1/2+y,-z
1/2-x,1/2-y,-z
1/2+x,1/2+y,-z
1/2-x,1/2+y,z
1/2+x,1/2-y,z
loop_
_atom_site_type_symbol
_atom_site_label
_atom_site_fract_x
_atom_site_fract_y
_atom_site_fract_z
Si Si1 0.000000 0.810528 0.722042
Si Si2 0.121762 0.199905 0.920669
Si Si3 0.064777 0.700191 0.500000
Si Si4 0.500000 0.689435 0.105200
Si Si5 0.889437 0.691112 0.652427
Si Si6 0.812448 0.193586 0.778997
O O1 0.946348 0.721914 0.693744
O O2 0.000000 0.810427 0.808203
O O3 0.000000 0.000000 0.697862
O O4 0.154713 0.258328 0.849922
O O5 0.058604 0.258926 0.917885
O O6 0.120110 0.000000 0.916761
O O7 0.145156 0.242668 0.000000
O O8 0.063582 0.500000 0.500000
O O9 0.097261 0.755088 0.428271
O O10 0.000000 0.749825 0.500000
O O11 0.500000 0.500000 0.081187
O O12 0.878088 0.500000 0.645770
O O13 0.842863 0.763477 0.704045
O O14 0.750000 0.250000 0.779258
O O15 0.813348 0.000000 0.785336
#
# Coordination Sequence:
#
# PCOD9493290 Si02
#       6
#     8  16   8   8  16  16
#     4  11  19  31  54  87 120 153 188 231 278 334
#     4   9  17  30  52  82 114 148 186 230 281 337
#     4   9  18  34  57  88 121 150 183 221 272 340
#     4   9  15  27  49  81 115 145 178 221 276 336
#     4  11  21  37  60  86 116 152 189 231 282 336
#     4  11  23  40  59  82 111 148 197 244 286 336
#
# _framework density 19.513069999999999
#
# number of rings (size 3 to 8) (size 9 to 14) (size 15 to 20)
#    0.000    1.889    3.333    2.000    0.000    1.778 
#    0.000    3.333    0.000    2.000    0.000    1.556 
#    0.000    0.000    0.000    0.000    0.000    0.000 
#
# Total GULP energy -200793.238574 kJ/mol
# GULP energy per Si atom -5577.589960 kJ/mol
# Density = 1.946866 g / cm^3
# Si number density = 19.513070 Si / 1000 Ang^3
#
#
#
# Elastic Constant Matrix: (Units=GPa)
#
#
# Indices 1 2 3 4 5 6 
#
# 1 146.2082 11.7002 88.1816 0.0000 0.0000 0.0000
# 2 11.7002 15.9878 16.5675 0.0000 0.0000 0.0000
# 3 88.1816 16.5675 189.7302 0.0000 0.0000 0.0000
# 4 0.0000 0.0000 0.0000 38.1802 0.0000 0.0000
# 5 0.0000 0.0000 0.0000 0.0000 2.6413 0.0000
# 6 0.0000 0.0000 0.0000 0.0000 0.0000 9.0009
#
#
#
# Elastic Compliance Matrix: (Units=1/GPa)
#
#
# Indices 1 2 3 4 5 6 
#
# 1 0.009604 -0.002642 -0.004233 0.000000 0.000000 0.000000
# 2 -0.002642 0.069497 -0.004841 0.000000 0.000000 0.000000
# 3 -0.004233 -0.004841 0.007661 0.000000 0.000000 0.000000
# 4 0.000000 0.000000 0.000000 0.026192 0.000000 0.000000
# 5 0.000000 0.000000 0.000000 0.000000 0.378597 0.000000
# 6 0.000000 0.000000 0.000000 0.000000 0.000000 0.111100
#
#
# Mechanical properties :
#
#
# Convention : Reuss Voigt Hill
#
# Bulk Modulus (GPa) = 15.79008 64.98053 40.38531
# Shear Modulus (GPa) = 7.72568 25.66296 16.69432
#
# Velocity S-wave (km/s) = 1.99194 3.63046 2.92814
# Velocity P-wave (km/s) = 3.66061 7.13771 5.67217
#
# Compressibility (1/GPa) = 0.06333091
#
# Stress axis : x y z
#
# Youngs Moduli (GPa) = 104.12331 14.38902 130.53602
#
# Poissons Ratio (x) = 0.03801 0.55256
# Poissons Ratio (y) = 0.27509 0.63189
# Poissons Ratio (z) = 0.44075 0.06965
#
# Static dielectric constant tensor:
#      x y z
#    x 1.658200 0.000000 0.000000 
#    y 0.000000 1.694510 0.000000 
#    z 0.000000 0.000000 1.718440 
# 
# From -- ./inp_files/56483.got.cif
#   From: 2010.05.17/outbox.cif.g08.bks.cpg/sg65_29_cif.got.tgz:56483.got - 2010.06.03 17:01:31.
