data_PCOD9493866
_publ_section_title
;
Structure prediction by ZEFSAII (Michael W. Deem and Ramdas Pophale) SiO2 
 PCOD9493866
Probable space group: C M M M
;
_chemical_formula_sum "Si O2"
_cell_formula_units_Z 64
_cell_length_a 11.519887
_cell_length_b 15.857175
_cell_length_c 16.829953
_cell_angle_alpha 90.000000
_cell_angle_beta 90.000000
_cell_angle_gamma 90.000000
_cell_volume 3074.375718
_symmetry_space_group_name_H-M "C M M M"
_symmetry_group_IT_number 65
_symmetry_cell_setting 'orthorhombic'
loop_
_space_group_symop_operation_xyz
x,y,z
-x,-y,z
x,-y,-z
-x,y,-z
-x,-y,-z
x,y,-z
-x,y,z
x,-y,z
1/2+x,1/2+y,z
1/2-x,1/2-y,z
1/2+x,1/2-y,-z
1/2-x,1/2+y,-z
1/2-x,1/2-y,-z
1/2+x,1/2+y,-z
1/2-x,1/2+y,z
1/2+x,1/2-y,z
loop_
_atom_site_type_symbol
_atom_site_label
_atom_site_fract_x
_atom_site_fract_y
_atom_site_fract_z
Si Si1 0.252304 0.102364 0.853758
Si Si2 0.137596 0.500000 0.588013
Si Si3 0.635714 0.189203 0.000000
Si Si4 0.000000 0.899361 0.407598
Si Si5 0.000000 0.903758 0.094686
Si Si6 0.760758 0.847869 0.672912
O O1 0.122416 0.132774 0.878638
O O2 0.266453 0.138117 0.765803
O O3 0.254926 0.000000 0.852664
O O4 0.341770 0.134815 0.920005
O O5 0.190059 0.500000 0.500000
O O6 0.178511 0.414689 0.629527
O O7 0.000000 0.500000 0.584542
O O8 0.750000 0.250000 0.000000
O O9 0.500000 0.219748 0.000000
O O10 0.111299 0.872954 0.356476
O O11 0.000000 0.867566 0.500000
O O12 0.000000 0.000000 0.412441
O O13 0.000000 0.000000 0.126242
O O14 0.000000 0.908477 0.000000
O O15 0.750000 0.750000 0.652476
#
# Coordination Sequence:
#
# PCOD9493866 Si02
#       6
#    16   8   8   8   8  16
#     4  11  22  44  72 102 141 191 239 302 356 438
#     4  11  26  49  73 100 141 189 238 299 381 461
#     4  12  29  47  68 106 144 195 248 306 368 430
#     4  11  23  45  77 107 143 188 245 308 369 446
#     4   9  17  33  67 101 131 173 238 283 352 419
#     4  12  26  46  72 110 146 189 244 303 370 434
#
# _framework density 20.817235
#
# number of rings (size 3 to 8) (size 9 to 14) (size 15 to 20)
#    0.000    0.875    3.750    2.625    3.500    5.000 
#    4.500    0.000    0.000    0.000    0.000    0.000 
#    0.000    0.000    0.000    0.000    0.000    0.000 
#
# Total GULP energy -178751.209577 kJ/mol
# GULP energy per Si atom -5585.975299 kJ/mol
# Density = 2.076985 g / cm^3
# Si number density = 20.817235 Si / 1000 Ang^3
#
#
#
# Elastic Constant Matrix: (Units=GPa)
#
#
# Indices 1 2 3 4 5 6 
#
# 1 113.5862 48.0945 33.2046 0.0000 0.0000 0.0000
# 2 48.0945 139.3796 45.3647 0.0000 0.0000 0.0000
# 3 33.2046 45.3647 139.6331 0.0000 0.0000 0.0000
# 4 0.0000 0.0000 0.0000 98.8420 0.0000 0.0000
# 5 0.0000 0.0000 0.0000 0.0000 38.0086 0.0000
# 6 0.0000 0.0000 0.0000 0.0000 0.0000 49.3495
#
#
#
# Elastic Compliance Matrix: (Units=1/GPa)
#
#
# Indices 1 2 3 4 5 6 
#
# 1 0.010579 -0.003167 -0.001487 0.000000 0.000000 0.000000
# 2 -0.003167 0.008971 -0.002161 0.000000 0.000000 0.000000
# 3 -0.001487 -0.002161 0.008217 0.000000 0.000000 0.000000
# 4 0.000000 0.000000 0.000000 0.010117 0.000000 0.000000
# 5 0.000000 0.000000 0.000000 0.000000 0.026310 0.000000
# 6 0.000000 0.000000 0.000000 0.000000 0.000000 0.020264
#
#
# Mechanical properties :
#
#
# Convention : Reuss Voigt Hill
#
# Bulk Modulus (GPa) = 70.73343 71.76961 71.25152
# Shear Modulus (GPa) = 48.63776 54.96905 51.80341
#
# Velocity S-wave (km/s) = 4.83889 5.14421 4.99389
# Velocity P-wave (km/s) = 8.07910 8.35672 8.21908
#
# Compressibility (1/GPa) = 0.01413759
#
# Stress axis : x y z
#
# Youngs Moduli (GPa) = 94.52377 111.47259 121.69210
#
# Poissons Ratio (x) = 0.35298 0.18096
# Poissons Ratio (y) = 0.29931 0.26304
# Poissons Ratio (z) = 0.14056 0.24095
#
# Static dielectric constant tensor:
#      x y z
#    x 43.135100 0.000000 0.000000 
#    y 0.000000 1.737440 0.000000 
#    z 0.000000 0.000000 1.713270 
# 
# From -- ./inp_files/37856.got.cif
#   From: 2010.05.17/outbox.cif.g08.bks.cpg/sg65_19_cif.got.tgz:37856.got - 2010.06.03 17:01:31.
