data_PCOD9493555
_publ_section_title
;
Structure prediction by ZEFSAII (Michael W. Deem and Ramdas Pophale) SiO2 
 PCOD9493555
Probable space group: C M M M
;
_chemical_formula_sum "Si O2"
_cell_formula_units_Z 72
_cell_length_a 14.896845
_cell_length_b 10.075810
_cell_length_c 28.075254
_cell_angle_alpha 90.000000
_cell_angle_beta 90.000000
_cell_angle_gamma 90.000000
_cell_volume 4214.033293
_symmetry_space_group_name_H-M "C M M M"
_symmetry_group_IT_number 65
_symmetry_cell_setting 'orthorhombic'
loop_
_space_group_symop_operation_xyz
x,y,z
-x,-y,z
x,-y,-z
-x,y,-z
-x,-y,-z
x,y,-z
-x,y,z
x,-y,z
1/2+x,1/2+y,z
1/2-x,1/2-y,z
1/2+x,1/2-y,-z
1/2-x,1/2+y,-z
1/2-x,1/2-y,-z
1/2+x,1/2+y,-z
1/2-x,1/2+y,z
1/2+x,1/2-y,z
loop_
_atom_site_type_symbol
_atom_site_label
_atom_site_fract_x
_atom_site_fract_y
_atom_site_fract_z
Si Si1 0.392601 0.500000 0.054788
Si Si2 0.848506 0.252893 0.118942
Si Si3 0.000000 0.659874 0.300552
Si Si4 0.658309 0.162410 0.372773
Si Si5 0.000000 0.661589 0.809745
Si Si6 0.000000 0.660281 0.554059
Si Si7 0.891796 0.500000 0.054706
O O1 0.500000 0.500000 0.051216
O O2 0.365932 0.625665 0.086322
O O3 0.357967 0.500000 0.000000
O O4 0.750000 0.250000 0.139779
O O5 0.857052 0.373386 0.082221
O O6 0.916861 0.279248 0.161304
O O7 0.091687 0.697033 0.328383
O O8 0.000000 0.500000 0.302020
O O9 0.000000 0.699868 0.245532
O O10 0.750000 0.250000 0.373041
O O11 0.591395 0.194228 0.417280
O O12 0.675074 0.000000 0.372431
O O13 0.000000 0.500000 0.813618
O O14 0.000000 0.500000 0.552969
O O15 0.000000 0.710679 0.500000
O O16 0.000000 0.500000 0.057044
O O17 0.865123 0.500000 0.000000
#
# Coordination Sequence:
#
# PCOD9493555 Si02
#       7
#     8  16   8  16   8   8   8
#     4  11  23  39  57  78 111 143 162 199 259 314
#     4  12  23  37  58  81 105 135 168 209 257 310
#     4   8  18  35  58  74  99 139 180 220 271 328
#     4   9  17  32  55  81 107 143 188 233 272 318
#     4  11  21  41  59  78 103 135 177 221 260 315
#     4   8  15  29  49  77 115 160 197 223 264 323
#     4  11  21  39  61  80 103 135 176 209 241 300
#
# _framework density 17.085768999999999
#
# number of rings (size 3 to 8) (size 9 to 14) (size 15 to 20)
#    0.000    1.889    3.333    2.667    0.000    5.778 
#    0.000    2.222    4.889    0.667    0.000    0.000 
#    0.000    0.000    0.000    0.000    0.000    0.000 
#
# Total GULP energy -200615.360886 kJ/mol
# GULP energy per Si atom -5572.648914 kJ/mol
# Density = 1.704688 g / cm^3
# Si number density = 17.085769 Si / 1000 Ang^3
#
#
#
# Elastic Constant Matrix: (Units=GPa)
#
#
# Indices 1 2 3 4 5 6 
#
# 1 180.7069 47.3517 85.7981 0.0000 0.0000 0.0000
# 2 47.3517 100.2933 49.3076 0.0000 0.0000 0.0000
# 3 85.7981 49.3076 169.0806 0.0000 0.0000 0.0000
# 4 0.0000 0.0000 0.0000 -468.7777 0.0000 0.0000
# 5 0.0000 0.0000 0.0000 0.0000 34.8931 0.0000
# 6 0.0000 0.0000 0.0000 0.0000 0.0000 39.3762
#
#
#
# Elastic Compliance Matrix: (Units=1/GPa)
#
#
# Indices 1 2 3 4 5 6 
#
# 1 0.007612 -0.001979 -0.003286 0.000000 0.000000 0.000000
# 2 -0.001979 0.012154 -0.002540 0.000000 0.000000 0.000000
# 3 -0.003286 -0.002540 0.008322 0.000000 0.000000 0.000000
# 4 0.000000 0.000000 0.000000 -0.002133 0.000000 0.000000
# 5 0.000000 0.000000 0.000000 0.000000 0.028659 0.000000
# 6 0.000000 0.000000 0.000000 0.000000 0.000000 0.025396
#
#
# Mechanical properties :
#
#
# Convention : Reuss Voigt Hill
#
# Bulk Modulus (GPa) = 80.13310 90.55508 85.34409
# Shear Modulus (GPa) = 50.11040 -61.06013 -5.47486
#
# Velocity S-wave (km/s) = 5.42148 -5.98456 -1.79201
# Velocity P-wave (km/s) = 9.28397 2.31560 6.76588
#
# Compressibility (1/GPa) = 0.01247924
#
# Stress axis : x y z
#
# Youngs Moduli (GPa) = 131.36522 82.27866 120.15639
#
# Poissons Ratio (x) = 0.16280 0.39481
# Poissons Ratio (y) = 0.25992 0.30523
# Poissons Ratio (z) = 0.43164 0.20901
#
# Static dielectric constant tensor:
#      x y z
#    x 1.573360 0.000000 0.000000 
#    y 0.000000 1.525490 0.000000 
#    z 0.000000 0.000000 1.577950 
# 
# From -- ./inp_files/74710.got.cif
#   From: 2010.05.17/outbox.cif.g08.bks.cpg/sg65_38_cif.got.tgz:74710.got - 2010.06.03 17:01:31.
