data_PCOD9493083
_publ_section_title
;
Structure prediction by ZEFSAII (Michael W. Deem and Ramdas Pophale) SiO2 
 PCOD9493083
Probable space group: C M M M
;
_chemical_formula_sum "Si O2"
_cell_formula_units_Z 56
_cell_length_a 11.828474
_cell_length_b 14.755135
_cell_length_c 14.095773
_cell_angle_alpha 90.000000
_cell_angle_beta 90.000000
_cell_angle_gamma 90.000000
_cell_volume 2460.145562
_symmetry_space_group_name_H-M "C M M M"
_symmetry_group_IT_number 65
_symmetry_cell_setting 'orthorhombic'
loop_
_space_group_symop_operation_xyz
x,y,z
-x,-y,z
x,-y,-z
-x,y,-z
-x,-y,-z
x,y,-z
-x,y,z
x,-y,z
1/2+x,1/2+y,z
1/2-x,1/2-y,z
1/2+x,1/2-y,-z
1/2-x,1/2+y,-z
1/2-x,1/2-y,-z
1/2+x,1/2+y,-z
1/2-x,1/2+y,z
1/2+x,1/2-y,z
loop_
_atom_site_type_symbol
_atom_site_label
_atom_site_fract_x
_atom_site_fract_y
_atom_site_fract_z
Si Si1 0.194163 0.000000 0.890189
Si Si2 0.500000 0.393457 0.393351
Si Si3 0.869696 0.500000 0.273836
Si Si4 0.872543 0.205925 0.113992
Si Si5 0.240100 0.856538 0.609675
O O1 0.132962 0.096483 0.873857
O O2 0.300898 0.000000 0.822312
O O3 0.227668 0.000000 0.000000
O O4 0.500000 0.500000 0.405194
O O5 0.500000 0.349733 0.500000
O O6 0.382853 0.371868 0.345218
O O7 0.832056 0.587477 0.334379
O O8 0.000000 0.500000 0.256282
O O9 0.750000 0.250000 0.148602
O O10 0.000000 0.236730 0.148506
O O11 0.872727 0.223323 0.000000
O O12 0.238032 0.889455 0.500000
O O13 0.250000 0.750000 0.607678
#
# Coordination Sequence:
#
# PCOD9493083 Si02
#       5
#     8   8   8  16  16
#     4  10  23  44  65  87 125 180 230 276 328 388
#     4   9  16  34  62  91 127 169 214 248 292 381
#     4  12  27  43  61  96 135 166 218 280 335 392
#     4   9  18  36  64  96 125 158 209 270 331 396
#     4  10  22  41  67  98 132 171 209 256 322 395
#
# _framework density 22.762881
#
# number of rings (size 3 to 8) (size 9 to 14) (size 15 to 20)
#    0.000    2.143    1.429    0.857    2.000    5.429 
#    5.143    2.857    0.000    0.000    0.000    0.000 
#    0.000    0.000    0.000    0.000    0.000    0.000 
#
# Total GULP energy -156273.320965 kJ/mol
# GULP energy per Si atom -5581.190034 kJ/mol
# Density = 2.271107 g / cm^3
# Si number density = 22.762881 Si / 1000 Ang^3
#
#
#
# Elastic Constant Matrix: (Units=GPa)
#
#
# Indices 1 2 3 4 5 6 
#
# 1 183.0194 33.6307 30.2549 0.0000 0.0000 0.0000
# 2 33.6307 101.1180 5.0752 0.0000 0.0000 0.0000
# 3 30.2549 5.0752 98.3342 0.0000 0.0000 0.0000
# 4 0.0000 0.0000 0.0000 -2.8604 0.0000 0.0000
# 5 0.0000 0.0000 0.0000 0.0000 24.0998 0.0000
# 6 0.0000 0.0000 0.0000 0.0000 0.0000 -22.8479
#
#
#
# Elastic Compliance Matrix: (Units=1/GPa)
#
#
# Indices 1 2 3 4 5 6 
#
# 1 0.006116 -0.001945 -0.001781 0.000000 0.000000 0.000000
# 2 -0.001945 0.010533 0.000055 0.000000 0.000000 0.000000
# 3 -0.001781 0.000055 0.010715 0.000000 0.000000 0.000000
# 4 0.000000 0.000000 0.000000 -0.349607 0.000000 0.000000
# 5 0.000000 0.000000 0.000000 0.000000 0.041494 0.000000
# 6 0.000000 0.000000 0.000000 0.000000 0.000000 -0.043768
#
#
# Mechanical properties :
#
#
# Convention : Reuss Voigt Hill
#
# Bulk Modulus (GPa) = 49.94674 57.82147 53.88410
# Shear Modulus (GPa) = -16.10303 20.57905 2.23801
#
# Velocity S-wave (km/s) = -2.66263 3.01002 0.99263
# Velocity P-wave (km/s) = 3.54076 6.12675 5.00371
#
# Compressibility (1/GPa) = 0.02002133
#
# Stress axis : x y z
#
# Youngs Moduli (GPa) = 163.51373 94.93563 93.33034
#
# Poissons Ratio (x) = 0.18461 0.16625
# Poissons Ratio (y) = 0.31797 -0.00510
# Poissons Ratio (z) = 0.29126 -0.00519
#
# Static dielectric constant tensor:
#      x y z
#    x 1.855930 0.000000 0.000000 
#    y 0.000000 1.812260 0.000000 
#    z 0.000000 0.000000 1.888780 
# 
# From -- ./inp_files/37488.got.cif
#   From: 2010.05.17/outbox.cif.g08.bks.cpg/sg65_19_cif.got.tgz:37488.got - 2010.06.03 17:01:31.
