data_PCOD9493740
_publ_section_title
;
Structure prediction by ZEFSAII (Michael W. Deem and Ramdas Pophale) SiO2 
 PCOD9493740
Probable space group: C M M M
;
_chemical_formula_sum "Si O2"
_cell_formula_units_Z 80
_cell_length_a 7.848252
_cell_length_b 18.848020
_cell_length_c 26.718179
_cell_angle_alpha 90.000000
_cell_angle_beta 90.000000
_cell_angle_gamma 90.000000
_cell_volume 3952.260195
_symmetry_space_group_name_H-M "C M M M"
_symmetry_group_IT_number 65
_symmetry_cell_setting 'orthorhombic'
loop_
_space_group_symop_operation_xyz
x,y,z
-x,-y,z
x,-y,-z
-x,y,-z
-x,-y,-z
x,y,-z
-x,y,z
x,-y,z
1/2+x,1/2+y,z
1/2-x,1/2-y,z
1/2+x,1/2-y,-z
1/2-x,1/2+y,-z
1/2-x,1/2-y,-z
1/2+x,1/2+y,-z
1/2-x,1/2+y,z
1/2+x,1/2-y,z
loop_
_atom_site_type_symbol
_atom_site_label
_atom_site_fract_x
_atom_site_fract_y
_atom_site_fract_z
Si Si1 0.208947 0.581521 0.500000
Si Si2 0.794712 0.332174 0.708010
Si Si3 0.297528 0.419599 0.000000
Si Si4 0.790916 0.418105 0.195435
Si Si5 0.701890 0.832410 0.098819
Si Si6 0.205227 0.668010 0.596236
O O1 0.260174 0.500000 0.500000
O O2 0.267832 0.620953 0.550255
O O3 0.000000 0.583814 0.500000
O O4 0.750000 0.250000 0.717716
O O5 0.733759 0.382013 0.752802
O O6 0.731776 0.350922 0.652104
O O7 0.000000 0.337161 0.707095
O O8 0.248657 0.375879 0.950719
O O9 0.225620 0.500000 0.000000
O O10 0.500000 0.425148 0.000000
O O11 0.738823 0.500000 0.191216
O O12 0.729365 0.371772 0.148305
O O13 0.000000 0.417333 0.195411
O O14 0.500000 0.834571 0.103062
O O15 0.750000 0.750000 0.095659
O O16 0.250000 0.750000 0.587388
O O17 0.000000 0.661933 0.597194
#
# Coordination Sequence:
#
# PCOD9493740 Si02
#       6
#     8  16   8  16  16  16
#     4   9  17  28  43  67  96 123 158 204 248 289
#     4   9  17  30  49  72  97 126 162 203 246 294
#     4  11  24  41  60  83 111 139 170 211 256 303
#     4   9  18  32  51  76 103 131 166 208 252 298
#     4  11  22  37  58  81 107 139 175 213 253 300
#     4   9  17  29  47  69  93 125 162 201 245 292
#
# _framework density 20.241582999999999
#
# number of rings (size 3 to 8) (size 9 to 14) (size 15 to 20)
#    0.000    2.400    0.000    2.700    0.000    2.400 
#    0.000    5.000    0.000    4.200    0.000    5.600 
#    0.000    0.000    0.000    0.000    0.000    0.000 
#
# Total GULP energy -223328.517428 kJ/mol
# GULP energy per Si atom -5583.212936 kJ/mol
# Density = 2.019551 g / cm^3
# Si number density = 20.241583 Si / 1000 Ang^3
#
#
#
# Elastic Constant Matrix: (Units=GPa)
#
#
# Indices 1 2 3 4 5 6 
#
# 1 25.9247 8.1850 11.9167 0.0000 0.0000 0.0000
# 2 8.1850 189.3625 155.2022 0.0000 0.0000 0.0000
# 3 11.9167 155.2022 224.1901 0.0000 0.0000 0.0000
# 4 0.0000 0.0000 0.0000 -14.2725 0.0000 0.0000
# 5 0.0000 0.0000 0.0000 0.0000 -9.3390 0.0000
# 6 0.0000 0.0000 0.0000 0.0000 0.0000 11.7932
#
#
#
# Elastic Compliance Matrix: (Units=1/GPa)
#
#
# Indices 1 2 3 4 5 6 
#
# 1 0.039539 0.000031 -0.002123 0.000000 0.000000 0.000000
# 2 0.000031 0.012207 -0.008452 0.000000 0.000000 0.000000
# 3 -0.002123 -0.008452 0.010425 0.000000 0.000000 0.000000
# 4 0.000000 0.000000 0.000000 -0.070065 0.000000 0.000000
# 5 0.000000 0.000000 0.000000 0.000000 -0.107078 0.000000
# 6 0.000000 0.000000 0.000000 0.000000 0.000000 0.084795
#
#
# Mechanical properties :
#
#
# Convention : Reuss Voigt Hill
#
# Bulk Modulus (GPa) = 24.34134 87.78725 56.06430
# Shear Modulus (GPa) = 1085.52935 15.24791 550.38863
#
# Velocity S-wave (km/s) = 23.18299 2.74760 16.50758
# Velocity P-wave (km/s) = 26.99357 7.31640 19.77603
#
# Compressibility (1/GPa) = 0.04108237
#
# Stress axis : x y z
#
# Youngs Moduli (GPa) = 25.29120 81.91907 95.92503
#
# Poissons Ratio (x) = -0.00256 0.20368
# Poissons Ratio (y) = -0.00079 0.81080
# Poissons Ratio (z) = 0.05370 0.69242
#
# Static dielectric constant tensor:
#      x y z
#    x 1.730820 0.000000 0.000000 
#    y 0.000000 1.747840 0.000000 
#    z 0.000000 0.000000 1.767690 
# 
# From -- ./inp_files/72904.got.cif
#   From: 2010.05.17/outbox.cif.g08.bks.cpg/sg65_37_cif.got.tgz:72904.got - 2010.06.03 17:01:31.
