data_PCOD9493799
_publ_section_title
;
Structure prediction by ZEFSAII (Michael W. Deem and Ramdas Pophale) SiO2 
 PCOD9493799
Probable space group: C M M M
;
_chemical_formula_sum "Si O2"
_cell_formula_units_Z 64
_cell_length_a 17.325670
_cell_length_b 10.128664
_cell_length_c 19.874128
_cell_angle_alpha 90.000000
_cell_angle_beta 90.000000
_cell_angle_gamma 90.000000
_cell_volume 3487.629040
_symmetry_space_group_name_H-M "C M M M"
_symmetry_group_IT_number 65
_symmetry_cell_setting 'orthorhombic'
loop_
_space_group_symop_operation_xyz
x,y,z
-x,-y,z
x,-y,-z
-x,y,-z
-x,-y,-z
x,y,-z
-x,y,z
x,-y,z
1/2+x,1/2+y,z
1/2-x,1/2-y,z
1/2+x,1/2-y,-z
1/2-x,1/2+y,-z
1/2-x,1/2-y,-z
1/2+x,1/2+y,-z
1/2-x,1/2+y,z
1/2+x,1/2-y,z
loop_
_atom_site_type_symbol
_atom_site_label
_atom_site_fract_x
_atom_site_fract_y
_atom_site_fract_z
Si Si1 0.685925 0.500000 0.080106
Si Si2 0.323818 0.155689 0.574518
Si Si3 0.370281 0.000000 0.079967
Si Si4 0.407414 0.848938 0.712254
Si Si5 0.410234 0.728229 0.150110
O O1 0.777755 0.500000 0.091358
O O2 0.645035 0.373504 0.112786
O O3 0.673029 0.500000 0.000000
O O4 0.359910 0.174126 0.500000
O O5 0.250000 0.250000 0.577834
O O6 0.376610 0.185704 0.638608
O O7 0.302505 0.000000 0.578910
O O8 0.404865 0.130686 0.113336
O O9 0.384106 0.000000 0.000000
O O10 0.500000 0.848949 0.711477
O O11 0.384012 0.753545 0.772969
O O12 0.382301 0.000000 0.727480
O O13 0.500000 0.684358 0.149370
#
# Coordination Sequence:
#
# PCOD9493799 Si02
#       5
#     8  16   8  16  16
#     4  11  25  41  57  83 118 147 182 237 291 340
#     4   9  18  33  54  81 112 145 181 221 266 319
#     4  11  23  39  59  83 110 145 188 231 281 342
#     4   9  18  35  56  80 109 140 182 231 271 318
#     4  11  22  39  60  83 112 148 189 234 282 336
#
# _framework density 18.350576
#
# number of rings (size 3 to 8) (size 9 to 14) (size 15 to 20)
#    0.000    2.000    1.250    2.250    0.000    7.500 
#    2.250    2.500    0.000    0.000    0.000    3.500 
#    0.000    0.000    0.000    0.000    0.000    0.000 
#
# Total GULP energy -178581.400743 kJ/mol
# GULP energy per Si atom -5580.668773 kJ/mol
# Density = 1.830881 g / cm^3
# Si number density = 18.350576 Si / 1000 Ang^3
#
#
#
# Elastic Constant Matrix: (Units=GPa)
#
#
# Indices 1 2 3 4 5 6 
#
# 1 34.1393 10.4809 39.3826 0.0000 0.0000 0.0000
# 2 10.4809 54.2167 32.4025 0.0000 0.0000 0.0000
# 3 39.3826 32.4025 136.2798 0.0000 0.0000 0.0000
# 4 0.0000 0.0000 0.0000 30.2478 0.0000 0.0000
# 5 0.0000 0.0000 0.0000 0.0000 34.2596 0.0000
# 6 0.0000 0.0000 0.0000 0.0000 0.0000 24.1203
#
#
#
# Elastic Compliance Matrix: (Units=1/GPa)
#
#
# Indices 1 2 3 4 5 6 
#
# 1 0.043992 -0.001057 -0.012462 0.000000 0.000000 0.000000
# 2 -0.001057 0.021525 -0.004813 0.000000 0.000000 0.000000
# 3 -0.012462 -0.004813 0.012083 0.000000 0.000000 0.000000
# 4 0.000000 0.000000 0.000000 0.033060 0.000000 0.000000
# 5 0.000000 0.000000 0.000000 0.000000 0.029189 0.000000
# 6 0.000000 0.000000 0.000000 0.000000 0.000000 0.041459
#
#
# Mechanical properties :
#
#
# Convention : Reuss Voigt Hill
#
# Bulk Modulus (GPa) = 24.42690 43.24088 33.83389
# Shear Modulus (GPa) = 21.58748 27.21686 24.40217
#
# Velocity S-wave (km/s) = 3.43358 3.85536 3.65057
# Velocity P-wave (km/s) = 5.39068 6.59040 6.02050
#
# Compressibility (1/GPa) = 0.04093847
#
# Stress axis : x y z
#
# Youngs Moduli (GPa) = 22.73156 46.45772 82.75870
#
# Poissons Ratio (x) = 0.04908 1.03131
# Poissons Ratio (y) = 0.02402 0.39828
# Poissons Ratio (z) = 0.28327 0.22358
#
# Static dielectric constant tensor:
#      x y z
#    x 1.600080 0.000000 0.000000 
#    y 0.000000 1.670370 0.000000 
#    z 0.000000 0.000000 1.645850 
# 
# From -- ./inp_files/41915.got.cif
#   From: 2010.05.17/outbox.cif.g08.bks.cpg/sg65_21_cif.got.tgz:41915.got - 2010.06.03 17:01:31.
