data_PCOD9493832
_publ_section_title
;
Structure prediction by ZEFSAII (Michael W. Deem and Ramdas Pophale) SiO2 
 PCOD9493832
Probable space group: C M M M
;
_chemical_formula_sum "Si O2"
_cell_formula_units_Z 50
_cell_length_a 7.709847
_cell_length_b 15.276737
_cell_length_c 21.432126
_cell_angle_alpha 90.000000
_cell_angle_beta 90.000000
_cell_angle_gamma 90.000000
_cell_volume 2524.303768
_symmetry_space_group_name_H-M "C M M M"
_symmetry_group_IT_number 65
_symmetry_cell_setting 'orthorhombic'
loop_
_space_group_symop_operation_xyz
x,y,z
-x,-y,z
x,-y,-z
-x,y,-z
-x,-y,-z
x,y,-z
-x,y,z
x,-y,z
1/2+x,1/2+y,z
1/2-x,1/2-y,z
1/2+x,1/2-y,-z
1/2-x,1/2+y,-z
1/2-x,1/2-y,-z
1/2+x,1/2+y,-z
1/2-x,1/2+y,z
1/2+x,1/2-y,z
loop_
_atom_site_type_symbol
_atom_site_label
_atom_site_fract_x
_atom_site_fract_y
_atom_site_fract_z
Si Si1 0.699342 0.893890 0.164131
Si Si2 0.000000 0.500000 0.500000
Si Si3 0.191956 0.000000 0.396442
Si Si4 0.500000 0.607153 0.071401
Si Si5 0.206700 0.348478 0.696157
O O1 0.500000 0.865217 0.154448
O O2 0.762243 0.862928 0.232113
O O3 0.830277 0.865530 0.110198
O O4 0.699018 0.000000 0.165817
O O5 0.153037 0.500000 0.445698
O O6 0.210486 0.083397 0.351024
O O7 0.000000 0.000000 0.424750
O O8 0.500000 0.500000 0.070614
O O9 0.500000 0.636958 0.000000
O O10 0.250000 0.250000 0.677556
O O11 0.000000 0.363261 0.695276
#
# Coordination Sequence:
#
# PCOD9493832 Si02
#       5
#    16   2   8   8  16
#     4   9  18  32  54  84 119 157 203 260 320 373
#     4  12  26  52  68  98 140 174 212 252 308 386
#     4  12  25  45  75  98 133 174 209 257 320 376
#     4   9  18  30  49  80 117 159 205 258 316 382
#     4  11  22  39  65 102 132 164 215 274 320 373
#
# _framework density 19.807442000000002
#
# number of rings (size 3 to 8) (size 9 to 14) (size 15 to 20)
#    0.000    1.760    3.200    1.200    4.480    0.640 
#    0.000    4.000    0.000    0.960    0.000    0.000 
#    0.000    0.000    0.000    0.000    0.000    0.000 
#
# Total GULP energy -139452.573533 kJ/mol
# GULP energy per Si atom -5578.102941 kJ/mol
# Density = 1.976236 g / cm^3
# Si number density = 19.807442 Si / 1000 Ang^3
#
#
#
# Elastic Constant Matrix: (Units=GPa)
#
#
# Indices 1 2 3 4 5 6 
#
# 1 142.3921 27.3101 88.3959 0.0000 0.0000 0.0000
# 2 27.3101 78.4509 49.2107 0.0000 0.0000 0.0000
# 3 88.3959 49.2107 168.3868 0.0000 0.0000 0.0000
# 4 0.0000 0.0000 0.0000 -1.4592 0.0000 0.0000
# 5 0.0000 0.0000 0.0000 0.0000 -21.9152 0.0000
# 6 0.0000 0.0000 0.0000 0.0000 0.0000 11.0430
#
#
#
# Elastic Compliance Matrix: (Units=1/GPa)
#
#
# Indices 1 2 3 4 5 6 
#
# 1 0.010422 -0.000240 -0.005401 0.000000 0.000000 0.000000
# 2 -0.000240 0.015614 -0.004437 0.000000 0.000000 0.000000
# 3 -0.005401 -0.004437 0.010071 0.000000 0.000000 0.000000
# 4 0.000000 0.000000 0.000000 -0.685296 0.000000 0.000000
# 5 0.000000 0.000000 0.000000 0.000000 -0.045630 0.000000
# 6 0.000000 0.000000 0.000000 0.000000 0.000000 0.090555
#
#
# Mechanical properties :
#
#
# Convention : Reuss Voigt Hill
#
# Bulk Modulus (GPa) = 62.69555 79.89590 71.29572
# Shear Modulus (GPa) = -8.63866 12.48793 1.92463
#
# Velocity S-wave (km/s) = -2.09064 2.51363 0.98680
# Velocity P-wave (km/s) = 5.08857 6.98916 6.11318
#
# Compressibility (1/GPa) = 0.01595010
#
# Stress axis : x y z
#
# Youngs Moduli (GPa) = 95.95406 64.04647 99.29946
#
# Poissons Ratio (x) = 0.01538 0.53629
# Poissons Ratio (y) = 0.02305 0.44059
# Poissons Ratio (z) = 0.51822 0.28417
#
# Static dielectric constant tensor:
#      x y z
#    x 1.708660 0.000000 0.000000 
#    y 0.000000 1.690660 0.000000 
#    z 0.000000 0.000000 1.652520 
# 
# From -- ./inp_files/48531.got.cif
#   From: 2010.05.17/outbox.cif.g08.bks.cpg/sg65_25_cif.got.tgz:48531.got - 2010.06.03 17:01:31.
