data_PCOD9493657
_publ_section_title
;
Structure prediction by ZEFSAII (Michael W. Deem and Ramdas Pophale) SiO2 
 PCOD9493657
Probable space group: C M M M
;
_chemical_formula_sum "Si O2"
_cell_formula_units_Z 72
_cell_length_a 16.382212
_cell_length_b 8.703812
_cell_length_c 24.837123
_cell_angle_alpha 90.000000
_cell_angle_beta 90.000000
_cell_angle_gamma 90.000000
_cell_volume 3541.468079
_symmetry_space_group_name_H-M "C M M M"
_symmetry_group_IT_number 65
_symmetry_cell_setting 'orthorhombic'
loop_
_space_group_symop_operation_xyz
x,y,z
-x,-y,z
x,-y,-z
-x,y,-z
-x,-y,-z
x,y,-z
-x,y,z
x,-y,z
1/2+x,1/2+y,z
1/2-x,1/2-y,z
1/2+x,1/2-y,-z
1/2-x,1/2+y,-z
1/2-x,1/2-y,-z
1/2+x,1/2+y,-z
1/2-x,1/2+y,z
1/2+x,1/2-y,z
loop_
_atom_site_type_symbol
_atom_site_label
_atom_site_fract_x
_atom_site_fract_y
_atom_site_fract_z
Si Si1 0.163262 0.817729 0.883148
Si Si2 0.595999 0.686398 0.558567
Si Si3 0.000000 0.678863 0.064485
Si Si4 0.661731 0.315221 0.673147
Si Si5 0.905845 0.679840 0.221946
O O1 0.250000 0.750000 0.902166
O O2 0.149349 0.767086 0.821192
O O3 0.083443 0.754448 0.913893
O O4 0.165568 0.000000 0.887348
O O5 0.627158 0.740750 0.500000
O O6 0.500000 0.724785 0.561890
O O7 0.601014 0.500000 0.558328
O O8 0.639199 0.739404 0.612854
O O9 0.000000 0.500000 0.081223
O O10 0.000000 0.687527 0.000000
O O11 0.660539 0.500000 0.674045
O O12 0.750000 0.250000 0.686984
O O13 0.602722 0.250616 0.718878
O O14 0.884056 0.500000 0.223075
O O15 0.000000 0.693739 0.204442
#
# Coordination Sequence:
#
# PCOD9493657 Si02
#       5
#    16  16   8  16  16
#     4  12  25  43  70 101 137 178 224 274 327 387
#     4   8  15  30  52  76 102 138 187 243 301 364
#     4  11  25  47  73 103 141 181 224 273 324 381
#     4  11  22  35  53  80 115 152 197 247 303 371
#     4  11  23  40  63  89 123 161 204 259 320 383
#
# _framework density 20.330552000000001
#
# number of rings (size 3 to 8) (size 9 to 14) (size 15 to 20)
#    0.000    1.444    1.111    5.667    0.000    4.000 
#    0.000    0.000    0.000    2.000    0.000    7.778 
#    0.000    0.000    0.000    0.000    0.000    0.000 
#
# Total GULP energy -201176.841108 kJ/mol
# GULP energy per Si atom -5588.245586 kJ/mol
# Density = 2.028428 g / cm^3
# Si number density = 20.330552 Si / 1000 Ang^3
#
#
#
# Elastic Constant Matrix: (Units=GPa)
#
#
# Indices 1 2 3 4 5 6 
#
# 1 118.0281 62.3820 44.4162 0.0000 0.0000 0.0000
# 2 62.3820 129.9410 38.4737 0.0000 0.0000 0.0000
# 3 44.4162 38.4737 91.9912 0.0000 0.0000 0.0000
# 4 0.0000 0.0000 0.0000 26.6680 0.0000 0.0000
# 5 0.0000 0.0000 0.0000 0.0000 33.6163 0.0000
# 6 0.0000 0.0000 0.0000 0.0000 0.0000 25.9453
#
#
#
# Elastic Compliance Matrix: (Units=1/GPa)
#
#
# Indices 1 2 3 4 5 6 
#
# 1 0.012543 -0.004826 -0.004038 0.000000 0.000000 0.000000
# 2 -0.004826 0.010640 -0.002120 0.000000 0.000000 0.000000
# 3 -0.004038 -0.002120 0.013707 0.000000 0.000000 0.000000
# 4 0.000000 0.000000 0.000000 0.037498 0.000000 0.000000
# 5 0.000000 0.000000 0.000000 0.000000 0.029748 0.000000
# 6 0.000000 0.000000 0.000000 0.000000 0.000000 0.038543
#
#
# Mechanical properties :
#
#
# Convention : Reuss Voigt Hill
#
# Bulk Modulus (GPa) = 67.01260 70.05602 68.53431
# Shear Modulus (GPa) = 29.47775 30.22515 29.85145
#
# Velocity S-wave (km/s) = 3.81192 3.85994 3.83600
# Velocity P-wave (km/s) = 7.23929 7.37556 7.30774
#
# Compressibility (1/GPa) = 0.01492257
#
# Stress axis : x y z
#
# Youngs Moduli (GPa) = 79.72768 93.98172 72.95684
#
# Poissons Ratio (x) = 0.45356 0.29457
# Poissons Ratio (y) = 0.38477 0.15467
# Poissons Ratio (z) = 0.32191 0.19924
#
# Static dielectric constant tensor:
#      x y z
#    x 1.696380 0.000000 0.000000 
#    y 0.000000 1.680670 0.000000 
#    z 0.000000 0.000000 1.733330 
# 
# From -- ./inp_files/72534.got.cif
#   From: 2010.05.17/outbox.cif.g08.bks.cpg/sg65_37_cif.got.tgz:72534.got - 2010.06.03 17:01:31.
