data_PCOD9493407
_publ_section_title
;
Structure prediction by ZEFSAII (Michael W. Deem and Ramdas Pophale) SiO2 
 PCOD9493407
Probable space group: C M M M
;
_chemical_formula_sum "Si O2"
_cell_formula_units_Z 96
_cell_length_a 16.705862
_cell_length_b 28.218838
_cell_length_c 11.929455
_cell_angle_alpha 90.000000
_cell_angle_beta 90.000000
_cell_angle_gamma 90.000000
_cell_volume 5623.783836
_symmetry_space_group_name_H-M "C M M M"
_symmetry_group_IT_number 65
_symmetry_cell_setting 'orthorhombic'
loop_
_space_group_symop_operation_xyz
x,y,z
-x,-y,z
x,-y,-z
-x,y,-z
-x,-y,-z
x,y,-z
-x,y,z
x,-y,z
1/2+x,1/2+y,z
1/2-x,1/2-y,z
1/2+x,1/2-y,-z
1/2-x,1/2+y,-z
1/2-x,1/2-y,-z
1/2+x,1/2+y,-z
1/2-x,1/2+y,z
1/2+x,1/2-y,z
loop_
_atom_site_type_symbol
_atom_site_label
_atom_site_fract_x
_atom_site_fract_y
_atom_site_fract_z
Si Si1 0.755877 0.445283 0.367136
Si Si2 0.092957 0.277000 0.632465
Si Si3 0.341702 0.309025 0.233774
Si Si4 0.095790 0.769410 0.000000
Si Si5 0.329874 0.140545 0.235619
Si Si6 0.410248 0.395183 0.369016
Si Si7 0.904061 0.343189 0.000000
O O1 0.771881 0.438683 0.500000
O O2 0.769688 0.500000 0.338579
O O3 0.807887 0.408525 0.295785
O O4 0.662239 0.431646 0.350026
O O5 0.106450 0.279737 0.500000
O O6 0.147445 0.236721 0.687870
O O7 0.111525 0.326990 0.690316
O O8 0.000000 0.264165 0.653297
O O9 0.369789 0.293572 0.111023
O O10 0.252553 0.329577 0.229121
O O11 0.394986 0.350464 0.289175
O O12 0.114968 0.713320 0.000000
O O13 0.000000 0.773591 0.000000
O O14 0.366577 0.135383 0.112487
O O15 0.404147 0.379794 0.500000
O O16 0.500000 0.414208 0.352486
O O17 0.000000 0.347942 0.000000
#
# Coordination Sequence:
#
# PCOD9493407 Si02
#       7
#    16  16  16   8  16  16   8
#     4   9  19  36  57  81 107 136 174 222 273 319
#     4  11  22  34  50  74 107 144 177 212 257 310
#     4  11  21  32  50  77 110 144 180 215 252 302
#     4  11  21  33  51  73 105 147 182 212 253 300
#     4  11  22  36  56  79 104 137 177 219 265 315
#     4   9  17  30  50  78 113 149 181 213 252 304
#     4  11  23  39  58  78 105 140 179 222 265 312
#
# _framework density 17.070357000000001
#
# number of rings (size 3 to 8) (size 9 to 14) (size 15 to 20)
#    0.000    1.667    1.667    4.000    0.000    5.000 
#    0.000    2.083    0.000    2.500    0.000    5.833 
#    0.000    8.000    0.000    0.000    0.000    0.000 
#
# Total GULP energy -268060.289202 kJ/mol
# GULP energy per Si atom -5584.589358 kJ/mol
# Density = 1.703150 g / cm^3
# Si number density = 17.070357 Si / 1000 Ang^3
#
#
#
# Elastic Constant Matrix: (Units=GPa)
#
#
# Indices 1 2 3 4 5 6 
#
# 1 58.4228 37.2072 50.0368 0.0000 0.0000 0.0000
# 2 37.2072 116.2367 67.4646 0.0000 0.0000 0.0000
# 3 50.0368 67.4646 110.2900 0.0000 0.0000 0.0000
# 4 0.0000 0.0000 0.0000 -5.1623 0.0000 0.0000
# 5 0.0000 0.0000 0.0000 0.0000 24.7467 0.0000
# 6 0.0000 0.0000 0.0000 0.0000 0.0000 11.3022
#
#
#
# Elastic Compliance Matrix: (Units=1/GPa)
#
#
# Indices 1 2 3 4 5 6 
#
# 1 0.028457 -0.002505 -0.011378 0.000000 0.000000 0.000000
# 2 -0.002505 0.013559 -0.007158 0.000000 0.000000 0.000000
# 3 -0.011378 -0.007158 0.018608 0.000000 0.000000 0.000000
# 4 0.000000 0.000000 0.000000 -0.193713 0.000000 0.000000
# 5 0.000000 0.000000 0.000000 0.000000 0.040409 0.000000
# 6 0.000000 0.000000 0.000000 0.000000 0.000000 0.088479
#
#
# Mechanical properties :
#
#
# Convention : Reuss Voigt Hill
#
# Bulk Modulus (GPa) = 53.93200 66.04077 59.98638
# Shear Modulus (GPa) = 113.47686 14.86004 64.16845
#
# Velocity S-wave (km/s) = 8.16213 2.95365 6.13777
# Velocity P-wave (km/s) = 10.97677 7.09954 9.24373
#
# Compressibility (1/GPa) = 0.01854187
#
# Stress axis : x y z
#
# Youngs Moduli (GPa) = 35.14093 73.74917 53.74177
#
# Poissons Ratio (x) = 0.18475 0.61148
# Poissons Ratio (y) = 0.08803 0.38467
# Poissons Ratio (z) = 0.39983 0.52788
#
# Static dielectric constant tensor:
#      x y z
#    x 1.589260 0.000000 0.000000 
#    y 0.000000 1.548600 0.000000 
#    z 0.000000 0.000000 1.560140 
# 
# From -- ./inp_files/25481.got.cif
#   From: 2010.05.17/outbox.cif.g08.bks.cpg/sg65_13_cif.got.tgz:25481.got - 2010.06.03 17:01:31.
