data_PCOD9493830
_publ_section_title
;
Structure prediction by ZEFSAII (Michael W. Deem and Ramdas Pophale) SiO2 
 PCOD9493830
Probable space group: C M M M
;
_chemical_formula_sum "Si O2"
_cell_formula_units_Z 64
_cell_length_a 15.527601
_cell_length_b 8.371051
_cell_length_c 24.054285
_cell_angle_alpha 90.000000
_cell_angle_beta 90.000000
_cell_angle_gamma 90.000000
_cell_volume 3126.632248
_symmetry_space_group_name_H-M "C M M M"
_symmetry_group_IT_number 65
_symmetry_cell_setting 'orthorhombic'
loop_
_space_group_symop_operation_xyz
x,y,z
-x,-y,z
x,-y,-z
-x,y,-z
-x,-y,-z
x,y,-z
-x,y,z
x,-y,z
1/2+x,1/2+y,z
1/2-x,1/2-y,z
1/2+x,1/2-y,-z
1/2-x,1/2+y,-z
1/2-x,1/2-y,-z
1/2+x,1/2+y,-z
1/2-x,1/2+y,z
1/2+x,1/2-y,z
loop_
_atom_site_type_symbol
_atom_site_label
_atom_site_fract_x
_atom_site_fract_y
_atom_site_fract_z
Si Si1 0.152098 0.693721 0.119531
Si Si2 0.151190 0.810544 0.642088
Si Si3 0.101196 0.320141 0.000000
Si Si4 0.349425 0.808023 0.239167
Si Si5 0.500000 0.808661 0.563761
O O1 0.144334 0.500000 0.117862
O O2 0.250000 0.750000 0.122894
O O3 0.111922 0.742448 0.179182
O O4 0.122249 0.756549 0.059475
O O5 0.250000 0.750000 0.635536
O O6 0.116080 0.757439 0.702836
O O7 0.085350 0.748344 0.595941
O O8 0.154148 0.000000 0.640611
O O9 0.141704 0.500000 0.000000
O O10 0.000000 0.338607 0.000000
O O11 0.250000 0.750000 0.238774
O O12 0.351261 0.000000 0.241481
O O13 0.500000 0.751807 0.500000
O O14 0.500000 0.000000 0.563940
#
# Coordination Sequence:
#
# PCOD9493830 Si02
#       5
#    16  16   8  16   8
#     4   9  17  29  49  74  97 132 177 226 278 332
#     4  11  22  39  64  92 125 163 202 246 298 351
#     4   9  17  30  45  65  98 133 176 224 272 333
#     4   9  16  29  50  79 109 140 184 234 287 342
#     4  11  25  45  67  93 125 160 201 246 291 347
#
# _framework density 20.469308000000002
#
# number of rings (size 3 to 8) (size 9 to 14) (size 15 to 20)
#    0.000    2.250    0.000    5.250    0.000    2.500 
#    2.250    0.000    0.000    1.500    0.000    0.000 
#    0.000    0.000    0.000    0.000    0.000    0.000 
#
# Total GULP energy -178282.003938 kJ/mol
# GULP energy per Si atom -5571.312623 kJ/mol
# Density = 2.042272 g / cm^3
# Si number density = 20.469308 Si / 1000 Ang^3
#
#
#
# Elastic Constant Matrix: (Units=GPa)
#
#
# Indices 1 2 3 4 5 6 
#
# 1 69.5612 15.7462 73.7403 0.0000 0.0000 0.0000
# 2 15.7462 67.4806 46.0204 0.0000 0.0000 0.0000
# 3 73.7403 46.0204 260.8319 0.0000 0.0000 0.0000
# 4 0.0000 0.0000 0.0000 35.3585 0.0000 0.0000
# 5 0.0000 0.0000 0.0000 0.0000 -25.1367 0.0000
# 6 0.0000 0.0000 0.0000 0.0000 0.0000 19.6327
#
#
#
# Elastic Compliance Matrix: (Units=1/GPa)
#
#
# Indices 1 2 3 4 5 6 
#
# 1 0.020581 -0.000949 -0.005651 0.000000 0.000000 0.000000
# 2 -0.000949 0.016890 -0.002712 0.000000 0.000000 0.000000
# 3 -0.005651 -0.002712 0.005910 0.000000 0.000000 0.000000
# 4 0.000000 0.000000 0.000000 0.028282 0.000000 0.000000
# 5 0.000000 0.000000 0.000000 0.000000 -0.039783 0.000000
# 6 0.000000 0.000000 0.000000 0.000000 0.000000 0.050935
#
#
# Mechanical properties :
#
#
# Convention : Reuss Voigt Hill
#
# Bulk Modulus (GPa) = 40.39100 74.32085 57.35593
# Shear Modulus (GPa) = 45.58237 23.46202 34.52219
#
# Velocity S-wave (km/s) = 4.72409 3.38924 4.11120
# Velocity P-wave (km/s) = 7.03785 7.19049 7.11458
#
# Compressibility (1/GPa) = 0.02475799
#
# Stress axis : x y z
#
# Youngs Moduli (GPa) = 48.58783 59.20725 169.20404
#
# Poissons Ratio (x) = 0.05616 0.95621
# Poissons Ratio (y) = 0.04609 0.45885
# Poissons Ratio (z) = 0.27458 0.16056
#
# Static dielectric constant tensor:
#      x y z
#    x 1.821460 0.000000 0.000000 
#    y 0.000000 1.724690 0.000000 
#    z 0.000000 0.000000 1.823980 
# 
# From -- ./inp_files/69513.got.cif
#   From: 2010.05.17/outbox.cif.g08.bks.cpg/sg65_35_cif.got.tgz:69513.got - 2010.06.03 17:01:31.
