data_PCOD9493251
_publ_section_title
;
Structure prediction by ZEFSAII (Michael W. Deem and Ramdas Pophale) SiO2 
 PCOD9493251
Probable space group: C M M M
;
_chemical_formula_sum "Si O2"
_cell_formula_units_Z 90
_cell_length_a 17.625119
_cell_length_b 23.408985
_cell_length_c 11.823363
_cell_angle_alpha 90.000000
_cell_angle_beta 90.000000
_cell_angle_gamma 90.000000
_cell_volume 4878.155776
_symmetry_space_group_name_H-M "C M M M"
_symmetry_group_IT_number 65
_symmetry_cell_setting 'orthorhombic'
loop_
_space_group_symop_operation_xyz
x,y,z
-x,-y,z
x,-y,-z
-x,y,-z
-x,-y,-z
x,y,-z
-x,y,z
x,-y,z
1/2+x,1/2+y,z
1/2-x,1/2-y,z
1/2+x,1/2-y,-z
1/2-x,1/2+y,-z
1/2-x,1/2-y,-z
1/2+x,1/2+y,-z
1/2-x,1/2+y,z
1/2+x,1/2-y,z
loop_
_atom_site_type_symbol
_atom_site_label
_atom_site_fract_x
_atom_site_fract_y
_atom_site_fract_z
Si Si1 0.682053 0.431998 0.000000
Si Si2 0.659265 0.753394 0.870626
Si Si3 0.860917 0.431573 0.000000
Si Si4 0.910685 0.369213 0.225903
Si Si5 0.353214 0.371460 0.228869
Si Si6 0.784796 0.431544 0.364256
Si Si7 0.500000 0.384535 0.377727
Si Si8 0.000000 0.000000 0.500000
O O1 0.644877 0.407411 0.112999
O O2 0.679632 0.500000 0.000000
O O3 0.771497 0.414300 0.000000
O O4 0.750000 0.750000 0.878651
O O5 0.627502 0.807795 0.802445
O O6 0.644321 0.694006 0.809646
O O7 0.629182 0.756032 0.000000
O O8 0.898929 0.405826 0.888666
O O9 0.864939 0.500000 0.000000
O O10 0.863047 0.403110 0.321224
O O11 0.000000 0.363386 0.250990
O O12 0.280876 0.396728 0.297666
O O13 0.424813 0.375176 0.308769
O O14 0.775655 0.426416 0.500000
O O15 0.781594 0.500000 0.336505
O O16 0.500000 0.353715 0.500000
O O17 0.500000 0.450791 0.405380
#
# Coordination Sequence:
#
# PCOD9493251 Si02
#       8
#     8  16   8  16  16  16   8   2
#     4  11  22  35  64  99 134 166 210 280 339 404
#     4  11  22  42  67  94 132 177 216 266 332 396
#     4  11  21  39  62  99 134 170 215 271 336 402
#     4  12  25  42  66  99 136 176 222 272 329 398
#     4  12  23  43  66  98 133 171 226 275 334 403
#     4  11  25  44  71  98 130 178 225 276 336 401
#     4  10  26  43  66  94 129 174 221 279 330 393
#     4   8  24  48  68  94 124 184 218 280 344 388
#
# _framework density 18.449596
#
# number of rings (size 3 to 8) (size 9 to 14) (size 15 to 20)
#    0.267    0.533    5.333    1.867    3.733    2.489 
#    0.000    4.000    0.000    0.000    0.000    0.000 
#    0.000    0.000    0.000    0.000    0.000    0.000 
#
# Total GULP energy -250854.673113 kJ/mol
# GULP energy per Si atom -5574.548291 kJ/mol
# Density = 1.840760 g / cm^3
# Si number density = 18.449596 Si / 1000 Ang^3
#
#
#
# Elastic Constant Matrix: (Units=GPa)
#
#
# Indices 1 2 3 4 5 6 
#
# 1 110.3945 29.7329 48.1627 0.0000 0.0000 0.0000
# 2 29.7329 116.4144 43.6761 0.0000 0.0000 0.0000
# 3 48.1627 43.6761 116.6805 0.0000 0.0000 0.0000
# 4 0.0000 0.0000 0.0000 -5.7723 0.0000 0.0000
# 5 0.0000 0.0000 0.0000 0.0000 20.7309 0.0000
# 6 0.0000 0.0000 0.0000 0.0000 0.0000 -298.0537
#
#
#
# Elastic Compliance Matrix: (Units=1/GPa)
#
#
# Indices 1 2 3 4 5 6 
#
# 1 0.011218 -0.001312 -0.004139 0.000000 0.000000 0.000000
# 2 -0.001312 0.010147 -0.003257 0.000000 0.000000 0.000000
# 3 -0.004139 -0.003257 0.011498 0.000000 0.000000 0.000000
# 4 0.000000 0.000000 0.000000 -0.173242 0.000000 0.000000
# 5 0.000000 0.000000 0.000000 0.000000 0.048237 0.000000
# 6 0.000000 0.000000 0.000000 0.000000 0.000000 -0.003355
#
#
# Mechanical properties :
#
#
# Convention : Reuss Voigt Hill
#
# Bulk Modulus (GPa) = 64.73871 65.18144 64.96008
# Shear Modulus (GPa) = -68.55639 -41.82450 -55.19045
#
# Velocity S-wave (km/s) = -6.10241 -4.76643 -5.47532
# Velocity P-wave (km/s) = 3.80616 2.26151 2.16477
#
# Compressibility (1/GPa) = 0.01544671
#
# Stress axis : x y z
#
# Youngs Moduli (GPa) = 89.14514 98.55185 86.97163
#
# Poissons Ratio (x) = 0.12931 0.35999
# Poissons Ratio (y) = 0.11697 0.28323
# Poissons Ratio (z) = 0.36899 0.32095
#
# Static dielectric constant tensor:
#      x y z
#    x 1.649640 0.000000 0.000000 
#    y 0.000000 1.612880 0.000000 
#    z 0.000000 0.000000 0.364920 
# 
# From -- ./inp_files/26919.got.cif
#   From: 2010.05.17/outbox.cif.g08.bks.cpg/sg65_14_cif.got.tgz:26919.got - 2010.06.03 17:01:31.
