data_PCOD9493347
_publ_section_title
;
Structure prediction by ZEFSAII (Michael W. Deem and Ramdas Pophale) SiO2 
 PCOD9493347
Probable space group: C M M M
;
_chemical_formula_sum "Si O2"
_cell_formula_units_Z 96
_cell_length_a 16.875780
_cell_length_b 20.292975
_cell_length_c 15.952142
_cell_angle_alpha 90.000000
_cell_angle_beta 90.000000
_cell_angle_gamma 90.000000
_cell_volume 5462.967066
_symmetry_space_group_name_H-M "C M M M"
_symmetry_group_IT_number 65
_symmetry_cell_setting 'orthorhombic'
loop_
_space_group_symop_operation_xyz
x,y,z
-x,-y,z
x,-y,-z
-x,y,-z
-x,-y,-z
x,y,-z
-x,y,z
x,-y,z
1/2+x,1/2+y,z
1/2-x,1/2-y,z
1/2+x,1/2-y,-z
1/2-x,1/2+y,-z
1/2-x,1/2-y,-z
1/2+x,1/2+y,-z
1/2-x,1/2+y,z
1/2+x,1/2-y,z
loop_
_atom_site_type_symbol
_atom_site_label
_atom_site_fract_x
_atom_site_fract_y
_atom_site_fract_z
Si Si1 0.229124 0.924450 0.123700
Si Si2 0.093292 0.246024 0.261610
Si Si3 0.405660 0.500000 0.403247
Si Si4 0.814722 0.111688 0.306910
Si Si5 0.827859 0.703655 0.093155
Si Si6 0.811358 0.311697 0.404892
Si Si7 0.409772 0.420428 0.000000
O O1 0.216607 0.921417 0.222624
O O2 0.295199 0.871007 0.100016
O O3 0.246197 0.000000 0.098493
O O4 0.146121 0.903503 0.079011
O O5 0.140984 0.178245 0.277396
O O6 0.119082 0.277069 0.172569
O O7 0.121548 0.292886 0.337935
O O8 0.000000 0.234529 0.263788
O O9 0.500000 0.500000 0.400936
O O10 0.379739 0.500000 0.500000
O O11 0.373054 0.563904 0.356073
O O12 0.741828 0.130206 0.367019
O O13 0.750000 0.750000 0.099019
O O14 0.862964 0.713943 0.000000
O O15 0.838850 0.323147 0.500000
O O16 0.750000 0.250000 0.407365
O O17 0.416588 0.500000 0.000000
O O18 0.500000 0.394169 0.000000
#
# Coordination Sequence:
#
# PCOD9493347 Si02
#       7
#    16  16   8  16  16  16   8
#     4  11  20  35  58  83 111 151 192 238 283 345
#     4  11  22  36  56  83 117 151 193 246 295 343
#     4  11  24  38  54  85 126 160 191 229 280 346
#     4  11  20  37  56  81 114 155 194 226 280 342
#     4  11  21  38  59  81 114 154 196 243 288 345
#     4   9  18  34  57  79 104 141 189 238 283 341
#     4   9  20  34  49  80 121 151 185 228 277 339
#
# _framework density 17.572868
#
# number of rings (size 3 to 8) (size 9 to 14) (size 15 to 20)
#    0.000    1.500    5.000    1.500    0.000    2.667 
#    0.000    0.000    0.000    0.500    0.000    1.167 
#    0.000    3.333    0.000    0.000    0.000    0.000 
#
# Total GULP energy -267816.712276 kJ/mol
# GULP energy per Si atom -5579.514839 kJ/mol
# Density = 1.753287 g / cm^3
# Si number density = 17.572868 Si / 1000 Ang^3
#
#
#
# Elastic Constant Matrix: (Units=GPa)
#
#
# Indices 1 2 3 4 5 6 
#
# 1 31.9736 20.4563 22.4944 0.0000 0.0000 0.0000
# 2 20.4563 81.4719 30.8490 0.0000 0.0000 0.0000
# 3 22.4944 30.8490 157.5751 0.0000 0.0000 0.0000
# 4 0.0000 0.0000 0.0000 14.4120 0.0000 0.0000
# 5 0.0000 0.0000 0.0000 0.0000 19.8440 0.0000
# 6 0.0000 0.0000 0.0000 0.0000 0.0000 6.2354
#
#
#
# Elastic Compliance Matrix: (Units=1/GPa)
#
#
# Indices 1 2 3 4 5 6 
#
# 1 0.039453 -0.008396 -0.003988 0.000000 0.000000 0.000000
# 2 -0.008396 0.015044 -0.001747 0.000000 0.000000 0.000000
# 3 -0.003988 -0.001747 0.007257 0.000000 0.000000 0.000000
# 4 0.000000 0.000000 0.000000 0.069387 0.000000 0.000000
# 5 0.000000 0.000000 0.000000 0.000000 0.050393 0.000000
# 6 0.000000 0.000000 0.000000 0.000000 0.000000 0.160375
#
#
# Mechanical properties :
#
#
# Convention : Reuss Voigt Hill
#
# Bulk Modulus (GPa) = 29.85733 46.51331 38.18532
# Shear Modulus (GPa) = 13.11182 21.24634 17.17908
#
# Velocity S-wave (km/s) = 2.73452 3.48090 3.13004
# Velocity P-wave (km/s) = 5.19592 6.53313 5.90252
#
# Compressibility (1/GPa) = 0.03349261
#
# Stress axis : x y z
#
# Youngs Moduli (GPa) = 25.34638 66.47349 137.78897
#
# Poissons Ratio (x) = 0.55811 0.54956
# Poissons Ratio (y) = 0.21281 0.24066
# Poissons Ratio (z) = 0.10109 0.11610
#
# Static dielectric constant tensor:
#      x y z
#    x 1.558000 0.000000 0.000000 
#    y 0.000000 1.620010 0.000000 
#    z 0.000000 0.000000 1.620570 
# 
# From -- ./inp_files/40419.got.cif
#   From: 2010.05.17/outbox.cif.g08.bks.cpg/sg65_21_cif.got.tgz:40419.got - 2010.06.03 17:01:31.
