data_PCOD9493364
_publ_section_title
;
Structure prediction by ZEFSAII (Michael W. Deem and Ramdas Pophale) SiO2 
 PCOD9493364
Probable space group: C M M M
;
_chemical_formula_sum "Si O2"
_cell_formula_units_Z 120
_cell_length_a 15.494524
_cell_length_b 16.990417
_cell_length_c 24.873027
_cell_angle_alpha 90.000000
_cell_angle_beta 90.000000
_cell_angle_gamma 90.000000
_cell_volume 6548.033888
_symmetry_space_group_name_H-M "C M M M"
_symmetry_group_IT_number 65
_symmetry_cell_setting 'orthorhombic'
loop_
_space_group_symop_operation_xyz
x,y,z
-x,-y,z
x,-y,-z
-x,y,-z
-x,-y,-z
x,y,-z
-x,y,z
x,-y,z
1/2+x,1/2+y,z
1/2-x,1/2-y,z
1/2+x,1/2-y,-z
1/2-x,1/2+y,-z
1/2-x,1/2-y,-z
1/2+x,1/2+y,-z
1/2-x,1/2+y,z
1/2+x,1/2-y,z
loop_
_atom_site_type_symbol
_atom_site_label
_atom_site_fract_x
_atom_site_fract_y
_atom_site_fract_z
Si Si1 0.310808 0.404021 0.439402
Si Si2 0.401156 0.869236 0.131478
Si Si3 0.000000 0.911350 0.565049
Si Si4 0.258649 0.409158 0.673283
Si Si5 0.598690 0.679319 0.133563
Si Si6 0.261953 0.408686 0.937969
Si Si7 0.598674 0.129831 0.255399
Si Si8 0.901182 0.180191 0.741768
O O1 0.289388 0.376868 0.500000
O O2 0.315540 0.500000 0.442754
O O3 0.407147 0.375112 0.422847
O O4 0.250744 0.384195 0.389199
O O5 0.500000 0.892175 0.119148
O O6 0.396796 0.774036 0.130168
O O7 0.330373 0.901029 0.090973
O O8 0.382556 0.892316 0.193372
O O9 0.000000 0.917635 0.500000
O O10 0.000000 0.000000 0.587927
O O11 0.287982 0.500000 0.673890
O O12 0.169043 0.403313 0.704513
O O13 0.329804 0.357537 0.703891
O O14 0.500000 0.656365 0.120197
O O15 0.668750 0.641484 0.095008
O O16 0.614810 0.657160 0.195920
O O17 0.288110 0.500000 0.936647
O O18 0.256602 0.383089 0.000000
O O19 0.500000 0.106548 0.267090
O O20 0.603375 0.224947 0.259296
O O21 0.000000 0.157642 0.727648
#
# Coordination Sequence:
#
# PCOD9493364 Si02
#       8
#    16  16   8  16  16  16  16  16
#     4   8  15  27  42  64  98 137 171 204 248 299
#     4   9  19  37  60  79  95 126 175 222 255 290
#     4   7  10  20  38  56  82 126 166 192 228 284
#     4  11  21  29  48  81 108 130 163 214 261 299
#     4   9  19  37  58  77  98 131 176 214 243 289
#     4  11  24  37  50  75 110 141 166 199 253 314
#     4   9  19  37  56  73  99 137 175 206 247 306
#     4   9  19  35  54  76 104 136 165 201 255 312
#
# _framework density 18.326111000000001
#
# number of rings (size 3 to 8) (size 9 to 14) (size 15 to 20)
#    0.000    2.733    0.000    4.000    0.933    6.933 
#    0.000    5.333    0.000    2.000    0.000    3.733 
#    0.000    0.000    0.000    0.000    0.000    0.000 
#
# Total GULP energy -334557.286317 kJ/mol
# GULP energy per Si atom -5575.954772 kJ/mol
# Density = 1.828440 g / cm^3
# Si number density = 18.326111 Si / 1000 Ang^3
#
#
#
# Elastic Constant Matrix: (Units=GPa)
#
#
# Indices 1 2 3 4 5 6 
#
# 1 72.5844 13.2098 70.9550 0.0000 0.0000 0.0000
# 2 13.2098 21.4950 19.4826 0.0000 0.0000 0.0000
# 3 70.9550 19.4826 115.4461 0.0000 0.0000 0.0000
# 4 0.0000 0.0000 0.0000 27.6750 0.0000 0.0000
# 5 0.0000 0.0000 0.0000 0.0000 6.6175 0.0000
# 6 0.0000 0.0000 0.0000 0.0000 0.0000 -86.1452
#
#
#
# Elastic Compliance Matrix: (Units=1/GPa)
#
#
# Indices 1 2 3 4 5 6 
#
# 1 0.034613 -0.002349 -0.020878 0.000000 0.000000 0.000000
# 2 -0.002349 0.055083 -0.007852 0.000000 0.000000 0.000000
# 3 -0.020878 -0.007852 0.022819 0.000000 0.000000 0.000000
# 4 0.000000 0.000000 0.000000 0.036134 0.000000 0.000000
# 5 0.000000 0.000000 0.000000 0.000000 0.151115 0.000000
# 6 0.000000 0.000000 0.000000 0.000000 0.000000 -0.011608
#
#
# Mechanical properties :
#
#
# Convention : Reuss Voigt Hill
#
# Bulk Modulus (GPa) = 19.85776 46.31335 33.08555
# Shear Modulus (GPa) = 13.62033 -3.31199 5.15417
#
# Velocity S-wave (km/s) = 2.72916 -1.34580 1.67886
# Velocity P-wave (km/s) = 4.55965 4.78662 4.67451
#
# Compressibility (1/GPa) = 0.05035814
#
# Stress axis : x y z
#
# Youngs Moduli (GPa) = 28.89055 18.15450 43.82343
#
# Poissons Ratio (x) = 0.04264 0.91493
# Poissons Ratio (y) = 0.06786 0.34411
# Poissons Ratio (z) = 0.60316 0.14255
#
# Static dielectric constant tensor:
#      x y z
#    x 1.632890 0.000000 0.000000 
#    y 0.000000 1.646320 0.000000 
#    z 0.000000 0.000000 1.628190 
# 
# From -- ./inp_files/63075.got.cif
#   From: 2010.05.17/outbox.cif.g08.bks.cpg/sg65_32_cif.got.tgz:63075.got - 2010.06.03 17:01:31.
