data_PCOD9493556
_publ_section_title
;
Structure prediction by ZEFSAII (Michael W. Deem and Ramdas Pophale) SiO2 
 PCOD9493556
Probable space group: C M M M
;
_chemical_formula_sum "Si O2"
_cell_formula_units_Z 66
_cell_length_a 14.484579
_cell_length_b 29.990342
_cell_length_c 7.579176
_cell_angle_alpha 90.000000
_cell_angle_beta 90.000000
_cell_angle_gamma 90.000000
_cell_volume 3292.374939
_symmetry_space_group_name_H-M "C M M M"
_symmetry_group_IT_number 65
_symmetry_cell_setting 'orthorhombic'
loop_
_space_group_symop_operation_xyz
x,y,z
-x,-y,z
x,-y,-z
-x,y,-z
-x,-y,-z
x,y,-z
-x,y,z
x,-y,z
1/2+x,1/2+y,z
1/2-x,1/2-y,z
1/2+x,1/2-y,-z
1/2-x,1/2+y,-z
1/2-x,1/2-y,-z
1/2+x,1/2+y,-z
1/2-x,1/2+y,z
1/2+x,1/2-y,z
loop_
_atom_site_type_symbol
_atom_site_label
_atom_site_fract_x
_atom_site_fract_y
_atom_site_fract_z
Si Si1 0.895479 0.246481 0.215257
Si Si2 0.701861 0.923695 0.705129
Si Si3 0.500000 0.947227 0.287511
Si Si4 0.756785 0.676895 0.213518
Si Si5 0.157814 0.000000 0.193922
Si Si6 0.500000 0.500000 0.500000
O O1 0.841685 0.291284 0.268498
O O2 0.834685 0.203878 0.268825
O O3 0.000000 0.245077 0.277229
O O4 0.895927 0.246487 0.000000
O O5 0.697667 0.937194 0.500000
O O6 0.597355 0.927831 0.778478
O O7 0.734308 0.872855 0.718802
O O8 0.774645 0.957218 0.790197
O O9 0.500000 0.940258 0.500000
O O10 0.500000 0.000000 0.253559
O O11 0.756911 0.674961 0.000000
O O12 0.081564 0.000000 0.345805
O O13 0.115127 0.000000 0.000000
#
# Coordination Sequence:
#
# PCOD9493556 Si02
#       6
#    16  16   8  16   8   2
#     4   8  15  31  52  75 110 153 199 260 320 376
#     4  11  21  39  61  90 128 167 206 262 325 385
#     4   9  18  34  60  84 119 170 206 244 322 390
#     4   9  18  32  53  82 112 150 204 258 318 385
#     4  12  25  46  72  97 130 169 215 265 318 378
#     4  12  26  52  72  96 124 172 218 268 324 364
#
# _framework density 20.046320999999999
#
# number of rings (size 3 to 8) (size 9 to 14) (size 15 to 20)
#    0.000    2.303    2.424    2.364    1.697    0.000 
#    2.182    4.848    0.000    1.455    0.000    0.000 
#    0.000    0.000    0.000    0.000    0.000    0.000 
#
# Total GULP energy -183981.348554 kJ/mol
# GULP energy per Si atom -5575.192380 kJ/mol
# Density = 2.000069 g / cm^3
# Si number density = 20.046321 Si / 1000 Ang^3
#
#
#
# Elastic Constant Matrix: (Units=GPa)
#
#
# Indices 1 2 3 4 5 6 
#
# 1 186.0187 79.2277 33.6703 0.0000 0.0000 0.0000
# 2 79.2277 131.2422 7.9890 0.0000 0.0000 0.0000
# 3 33.6703 7.9890 92.3538 0.0000 0.0000 0.0000
# 4 0.0000 0.0000 0.0000 35.5282 0.0000 0.0000
# 5 0.0000 0.0000 0.0000 0.0000 -4.7173 0.0000
# 6 0.0000 0.0000 0.0000 0.0000 0.0000 10.1930
#
#
#
# Elastic Compliance Matrix: (Units=1/GPa)
#
#
# Indices 1 2 3 4 5 6 
#
# 1 0.007744 -0.004527 -0.002432 0.000000 0.000000 0.000000
# 2 -0.004527 0.010306 0.000759 0.000000 0.000000 0.000000
# 3 -0.002432 0.000759 0.011649 0.000000 0.000000 0.000000
# 4 0.000000 0.000000 0.000000 0.028147 0.000000 0.000000
# 5 0.000000 0.000000 0.000000 0.000000 -0.211988 0.000000
# 6 0.000000 0.000000 0.000000 0.000000 0.000000 0.098106
#
#
# Mechanical properties :
#
#
# Convention : Reuss Voigt Hill
#
# Bulk Modulus (GPa) = 57.80505 72.37654 65.09079
# Shear Modulus (GPa) = -132.03030 27.44930 -52.29050
#
# Velocity S-wave (km/s) = -8.12438 3.70441 -5.11287
# Velocity P-wave (km/s) = 7.68825 7.38105 1.52138
#
# Compressibility (1/GPa) = 0.01729953
#
# Stress axis : x y z
#
# Youngs Moduli (GPa) = 129.13236 97.03042 85.84554
#
# Poissons Ratio (x) = 0.43924 0.20875
# Poissons Ratio (y) = 0.58456 -0.06515
# Poissons Ratio (z) = 0.31401 -0.07363
#
# Static dielectric constant tensor:
#      x y z
#    x 1.696490 0.000000 0.000000 
#    y 0.000000 1.650840 0.000000 
#    z 0.000000 0.000000 1.753520 
# 
# From -- ./inp_files/7127.got.cif
#   From: 2010.05.17/outbox.cif.g08.bks.cpg/sg65_4_cif.got.tgz:7127.got - 2010.06.03 17:01:31.
