data_PCOD9493676
_publ_section_title
;
Structure prediction by ZEFSAII (Michael W. Deem and Ramdas Pophale) SiO2 
 PCOD9493676
Probable space group: C M M M
;
_chemical_formula_sum "Si O2"
_cell_formula_units_Z 92
_cell_length_a 18.676839
_cell_length_b 15.571356
_cell_length_c 16.985503
_cell_angle_alpha 90.000000
_cell_angle_beta 90.000000
_cell_angle_gamma 90.000000
_cell_volume 4939.786982
_symmetry_space_group_name_H-M "C M M M"
_symmetry_group_IT_number 65
_symmetry_cell_setting 'orthorhombic'
loop_
_space_group_symop_operation_xyz
x,y,z
-x,-y,z
x,-y,-z
-x,y,-z
-x,-y,-z
x,y,-z
-x,y,z
x,-y,z
1/2+x,1/2+y,z
1/2-x,1/2-y,z
1/2+x,1/2-y,-z
1/2-x,1/2+y,-z
1/2-x,1/2-y,-z
1/2+x,1/2+y,-z
1/2-x,1/2+y,z
1/2+x,1/2-y,z
loop_
_atom_site_type_symbol
_atom_site_label
_atom_site_fract_x
_atom_site_fract_y
_atom_site_fract_z
Si Si1 0.413636 0.596200 0.241539
Si Si2 0.837467 0.674878 0.629228
Si Si3 0.085968 0.849596 0.414127
Si Si4 0.415007 0.902558 0.906161
Si Si5 0.082971 0.500000 0.405029
Si Si6 0.829565 0.736780 0.807428
Si Si7 0.750000 0.750000 0.500000
O O1 0.500000 0.609039 0.236219
O O2 0.397351 0.500000 0.212936
O O3 0.393212 0.602440 0.334357
O O4 0.372261 0.673391 0.199534
O O5 0.887578 0.751598 0.594799
O O6 0.877710 0.585177 0.624326
O O7 0.821796 0.699128 0.718912
O O8 0.770656 0.680302 0.570291
O O9 0.111708 0.880528 0.500000
O O10 0.000000 0.851687 0.415735
O O11 0.500000 0.894234 0.891414
O O12 0.373031 0.831187 0.858520
O O13 0.393844 0.000000 0.883843
O O14 0.404171 0.893504 0.000000
O O15 0.084709 0.500000 0.500000
O O16 0.000000 0.500000 0.379943
O O17 0.750000 0.750000 0.839526
#
# Coordination Sequence:
#
# PCOD9493676 Si02
#       7
#    16  16  16  16   8  16   4
#     4   9  19  35  53  75 107 148 195 244 293 344
#     4  11  22  36  53  75 113 158 198 243 298 360
#     4   9  16  29  50  71  96 134 185 245 297 338
#     4   9  20  41  68  96 125 157 194 241 306 387
#     4  11  22  36  56  84 109 141 203 272 324 360
#     4  11  23  37  58  89 120 157 200 247 299 363
#     4  12  20  38  52  60 114 172 204 228 274 358
#
# _framework density 18.624285
#
# number of rings (size 3 to 8) (size 9 to 14) (size 15 to 20)
#    0.000    2.000    2.609    1.565    1.217    4.870 
#    0.000    1.739    7.652    0.522    0.000    2.435 
#    0.000    0.000    0.000    0.000    0.000    0.000 
#
# Total GULP energy -256199.857448 kJ/mol
# GULP energy per Si atom -5569.562118 kJ/mol
# Density = 1.858190 g / cm^3
# Si number density = 18.624285 Si / 1000 Ang^3
#
#
#
# Elastic Constant Matrix: (Units=GPa)
#
#
# Indices 1 2 3 4 5 6 
#
# 1 69.5866 72.5685 37.4387 0.0000 0.0000 0.0000
# 2 72.5685 157.0955 52.4094 0.0000 0.0000 0.0000
# 3 37.4387 52.4094 54.0514 0.0000 0.0000 0.0000
# 4 0.0000 0.0000 0.0000 24.2159 0.0000 0.0000
# 5 0.0000 0.0000 0.0000 0.0000 4.5850 0.0000
# 6 0.0000 0.0000 0.0000 0.0000 0.0000 17.4610
#
#
#
# Elastic Compliance Matrix: (Units=1/GPa)
#
#
# Indices 1 2 3 4 5 6 
#
# 1 0.031971 -0.010910 -0.011566 0.000000 0.000000 0.000000
# 2 -0.010910 0.013132 -0.005177 0.000000 0.000000 0.000000
# 3 -0.011566 -0.005177 0.031531 0.000000 0.000000 0.000000
# 4 0.000000 0.000000 0.000000 0.041295 0.000000 0.000000
# 5 0.000000 0.000000 0.000000 0.000000 0.218102 0.000000
# 6 0.000000 0.000000 0.000000 0.000000 0.000000 0.057271
#
#
# Mechanical properties :
#
#
# Convention : Reuss Voigt Hill
#
# Bulk Modulus (GPa) = 46.88364 67.28517 57.08440
# Shear Modulus (GPa) = 10.97172 17.14017 14.05594
#
# Velocity S-wave (km/s) = 2.42979 3.03696 2.75018
# Velocity P-wave (km/s) = 5.75325 6.96445 6.38762
#
# Compressibility (1/GPa) = 0.02132940
#
# Stress axis : x y z
#
# Youngs Moduli (GPa) = 31.27860 76.14844 31.71441
#
# Poissons Ratio (x) = 0.83077 0.36681
# Poissons Ratio (y) = 0.34125 0.16417
# Poissons Ratio (z) = 0.36177 0.39419
#
# Static dielectric constant tensor:
#      x y z
#    x 4.181330 0.000000 0.000000 
#    y 0.000000 1.656310 0.000000 
#    z 0.000000 0.000000 1.628880 
# 
# From -- ./inp_files/44182.got.cif
#   From: 2010.05.17/outbox.cif.g08.bks.cpg/sg65_23_cif.got.tgz:44182.got - 2010.06.03 17:01:31.
