data_PCOD9493778
_publ_section_title
;
Structure prediction by ZEFSAII (Michael W. Deem and Ramdas Pophale) SiO2 
 PCOD9493778
Probable space group: C M M M
;
_chemical_formula_sum "Si O2"
_cell_formula_units_Z 84
_cell_length_a 14.466442
_cell_length_b 19.271683
_cell_length_c 15.914030
_cell_angle_alpha 90.000000
_cell_angle_beta 90.000000
_cell_angle_gamma 90.000000
_cell_volume 4436.715143
_symmetry_space_group_name_H-M "C M M M"
_symmetry_group_IT_number 65
_symmetry_cell_setting 'orthorhombic'
loop_
_space_group_symop_operation_xyz
x,y,z
-x,-y,z
x,-y,-z
-x,y,-z
-x,-y,-z
x,y,-z
-x,y,z
x,-y,z
1/2+x,1/2+y,z
1/2-x,1/2-y,z
1/2+x,1/2-y,-z
1/2-x,1/2+y,-z
1/2-x,1/2-y,-z
1/2+x,1/2+y,-z
1/2-x,1/2+y,z
1/2+x,1/2-y,z
loop_
_atom_site_type_symbol
_atom_site_label
_atom_site_fract_x
_atom_site_fract_y
_atom_site_fract_z
Si Si1 0.887576 0.576259 0.599124
Si Si2 0.612645 0.360954 0.592423
Si Si3 0.612139 0.578597 0.229987
Si Si4 0.611100 0.781116 0.325529
Si Si5 0.655124 0.718184 0.144172
Si Si6 0.000000 0.228448 0.000000
O O1 0.868685 0.583919 0.500000
O O2 0.854647 0.500000 0.627177
O O3 0.852283 0.643689 0.647940
O O4 0.000000 0.575580 0.606965
O O5 0.645496 0.382371 0.500000
O O6 0.500000 0.361275 0.589946
O O7 0.636910 0.407735 0.672457
O O8 0.641789 0.282283 0.614903
O O9 0.500000 0.588086 0.223287
O O10 0.634031 0.500000 0.205773
O O11 0.657756 0.637742 0.173191
O O12 0.500000 0.783472 0.333571
O O13 0.632868 0.759398 0.230698
O O14 0.750000 0.750000 0.112958
O O15 0.579115 0.726895 0.073888
#
# Coordination Sequence:
#
# PCOD9493778 Si02
#       6
#    16  16  16  16  16   4
#     4   8  13  21  39  72 107 144 197 244 271 305
#     4   8  13  21  40  73 109 149 193 230 272 324
#     4   9  17  33  55  82 120 155 189 237 283 328
#     4   9  15  28  47  71 108 148 186 232 282 332
#     4  11  22  38  61  89 114 145 181 229 290 349
#     4  12  22  44  65  90 115 130 182 234 286 354
#
# _framework density 18.932925999999998
#
# number of rings (size 3 to 8) (size 9 to 14) (size 15 to 20)
#    0.000    2.857    1.905    2.571    0.000    2.667 
#    0.000    3.810    0.000   14.286    0.000    4.667 
#    0.000    0.000    0.000    0.000    0.000    0.000 
#
# Total GULP energy -233816.563241 kJ/mol
# GULP energy per Si atom -5567.061030 kJ/mol
# Density = 1.888983 g / cm^3
# Si number density = 18.932926 Si / 1000 Ang^3
#
#
#
# Elastic Constant Matrix: (Units=GPa)
#
#
# Indices 1 2 3 4 5 6 
#
# 1 78.7311 42.7321 33.5307 0.0000 0.0000 0.0000
# 2 42.7321 143.7326 40.4532 0.0000 0.0000 0.0000
# 3 33.5307 40.4532 91.2975 0.0000 0.0000 0.0000
# 4 0.0000 0.0000 0.0000 -3.1254 0.0000 0.0000
# 5 0.0000 0.0000 0.0000 0.0000 -334.6174 0.0000
# 6 0.0000 0.0000 0.0000 0.0000 0.0000 14.0195
#
#
#
# Elastic Compliance Matrix: (Units=1/GPa)
#
#
# Indices 1 2 3 4 5 6 
#
# 1 0.016600 -0.003678 -0.004467 0.000000 0.000000 0.000000
# 2 -0.003678 0.008764 -0.002532 0.000000 0.000000 0.000000
# 3 -0.004467 -0.002532 0.013716 0.000000 0.000000 0.000000
# 4 0.000000 0.000000 0.000000 -0.319956 0.000000 0.000000
# 5 0.000000 0.000000 0.000000 0.000000 -0.002988 0.000000
# 6 0.000000 0.000000 0.000000 0.000000 0.000000 0.071329
#
#
# Mechanical properties :
#
#
# Convention : Reuss Voigt Hill
#
# Bulk Modulus (GPa) = 56.41760 60.79926 58.60843
# Shear Modulus (GPa) = -26.98728 -51.60833 -39.29780
#
# Velocity S-wave (km/s) = -3.77956 -5.22663 -4.56085
# Velocity P-wave (km/s) = 3.28885 2.05934 1.81324
#
# Compressibility (1/GPa) = 0.01772496
#
# Stress axis : x y z
#
# Youngs Moduli (GPa) = 60.24021 114.10900 72.90862
#
# Poissons Ratio (x) = 0.41970 0.32568
# Poissons Ratio (y) = 0.22157 0.18462
# Poissons Ratio (z) = 0.26909 0.28895
#
# Static dielectric constant tensor:
#      x y z
#    x 1.709010 0.000000 0.000000 
#    y 0.000000 1.666970 0.000000 
#    z 0.000000 0.000000 1.613490 
# 
# From -- ./inp_files/40162.got.cif
#   From: 2010.05.17/outbox.cif.g08.bks.cpg/sg65_21_cif.got.tgz:40162.got - 2010.06.03 17:01:31.
