data_PCOD9493377
_publ_section_title
;
Structure prediction by ZEFSAII (Michael W. Deem and Ramdas Pophale) SiO2 
 PCOD9493377
Probable space group: C M M M
;
_chemical_formula_sum "Si O2"
_cell_formula_units_Z 80
_cell_length_a 17.171247
_cell_length_b 14.261082
_cell_length_c 19.218752
_cell_angle_alpha 90.000000
_cell_angle_beta 90.000000
_cell_angle_gamma 90.000000
_cell_volume 4706.298781
_symmetry_space_group_name_H-M "C M M M"
_symmetry_group_IT_number 65
_symmetry_cell_setting 'orthorhombic'
loop_
_space_group_symop_operation_xyz
x,y,z
-x,-y,z
x,-y,-z
-x,y,-z
-x,-y,-z
x,y,-z
-x,y,z
x,-y,z
1/2+x,1/2+y,z
1/2-x,1/2-y,z
1/2+x,1/2-y,-z
1/2-x,1/2+y,-z
1/2-x,1/2-y,-z
1/2+x,1/2+y,-z
1/2-x,1/2+y,z
1/2+x,1/2-y,z
loop_
_atom_site_type_symbol
_atom_site_label
_atom_site_fract_x
_atom_site_fract_y
_atom_site_fract_z
Si Si1 0.593706 0.105353 0.713158
Si Si2 0.093501 0.108095 0.918604
Si Si3 0.659794 0.724941 0.794682
Si Si4 0.093623 0.108311 0.331734
Si Si5 0.094484 0.716562 0.577766
O O1 0.500000 0.102750 0.709946
O O2 0.616455 0.179851 0.771761
O O3 0.621646 0.146602 0.638700
O O4 0.622630 0.000000 0.724983
O O5 0.133427 0.181128 0.867431
O O6 0.000000 0.114959 0.910405
O O7 0.115013 0.000000 0.901433
O O8 0.111386 0.123717 0.000000
O O9 0.750000 0.750000 0.794041
O O10 0.637004 0.649131 0.735533
O O11 0.112031 0.178636 0.395061
O O12 0.000000 0.115824 0.319015
O O13 0.111813 0.000000 0.344809
O O14 0.123766 0.698482 0.500000
O O15 0.000000 0.709045 0.575648
#
# Coordination Sequence:
#
# PCOD9493377 Si02
#       5
#    16  16  16  16  16
#     4   9  18  32  48  66  91 127 169 204 234 276
#     4   9  18  34  57  81 101 123 153 190 234 284
#     4  11  21  31  48  72 100 129 158 195 236 279
#     4   9  17  30  49  71  95 125 160 199 245 295
#     4   8  14  25  43  70  98 119 149 200 255 296
#
# _framework density 16.998495999999999
#
# number of rings (size 3 to 8) (size 9 to 14) (size 15 to 20)
#    0.000    2.800    0.000    4.200    0.000    4.400 
#    0.000    4.000    0.000   10.200    0.000   14.000 
#    0.000    0.000    0.000    0.000    0.000    0.000 
#
# Total GULP energy -222913.769123 kJ/mol
# GULP energy per Si atom -5572.844228 kJ/mol
# Density = 1.695981 g / cm^3
# Si number density = 16.998496 Si / 1000 Ang^3
#
#
#
# Elastic Constant Matrix: (Units=GPa)
#
#
# Indices 1 2 3 4 5 6 
#
# 1 22.4713 25.2064 26.5668 0.0000 0.0000 0.0000
# 2 25.2064 132.0011 60.9959 0.0000 0.0000 0.0000
# 3 26.5668 60.9959 93.7439 0.0000 0.0000 0.0000
# 4 0.0000 0.0000 0.0000 11.2420 0.0000 0.0000
# 5 0.0000 0.0000 0.0000 0.0000 -18.4777 0.0000
# 6 0.0000 0.0000 0.0000 0.0000 0.0000 6.3242
#
#
#
# Elastic Compliance Matrix: (Units=1/GPa)
#
#
# Indices 1 2 3 4 5 6 
#
# 1 0.070113 -0.006016 -0.015956 0.000000 0.000000 0.000000
# 2 -0.006016 0.011349 -0.005679 0.000000 0.000000 0.000000
# 3 -0.015956 -0.005679 0.018885 0.000000 0.000000 0.000000
# 4 0.000000 0.000000 0.000000 0.088952 0.000000 0.000000
# 5 0.000000 0.000000 0.000000 0.000000 -0.054119 0.000000
# 6 0.000000 0.000000 0.000000 0.000000 0.000000 0.158124
#
#
# Mechanical properties :
#
#
# Convention : Reuss Voigt Hill
#
# Bulk Modulus (GPa) = 22.20019 52.63940 37.41980
# Shear Modulus (GPa) = 13.75065 8.84750 11.29907
#
# Velocity S-wave (km/s) = 2.84726 2.28389 2.58099
# Velocity P-wave (km/s) = 4.88852 6.16354 5.56268
#
# Compressibility (1/GPa) = 0.04504465
#
# Stress axis : x y z
#
# Youngs Moduli (GPa) = 14.26278 88.11491 52.95323
#
# Poissons Ratio (x) = 0.53006 0.84490
# Poissons Ratio (y) = 0.08580 0.30075
# Poissons Ratio (z) = 0.22757 0.50045
#
# Static dielectric constant tensor:
#      x y z
#    x 1.599880 0.000000 0.000000 
#    y 0.000000 1.578290 0.000000 
#    z 0.000000 0.000000 1.568880 
# 
# From -- ./inp_files/52872.got.cif
#   From: 2010.05.17/outbox.cif.g08.bks.cpg/sg65_27_cif.got.tgz:52872.got - 2010.06.03 17:01:31.
