data_PCOD9493032
_publ_section_title
;
Structure prediction by ZEFSAII (Michael W. Deem and Ramdas Pophale) SiO2 
 PCOD9493032
Probable space group: C M M M
;
_chemical_formula_sum "Si O2"
_cell_formula_units_Z 56
_cell_length_a 26.151534
_cell_length_b 10.014791
_cell_length_c 12.387376
_cell_angle_alpha 90.000000
_cell_angle_beta 90.000000
_cell_angle_gamma 90.000000
_cell_volume 3244.280374
_symmetry_space_group_name_H-M "C M M M"
_symmetry_group_IT_number 65
_symmetry_cell_setting 'orthorhombic'
loop_
_space_group_symop_operation_xyz
x,y,z
-x,-y,z
x,-y,-z
-x,y,-z
-x,-y,-z
x,y,-z
-x,y,z
x,-y,z
1/2+x,1/2+y,z
1/2-x,1/2-y,z
1/2+x,1/2-y,-z
1/2-x,1/2+y,-z
1/2-x,1/2-y,-z
1/2+x,1/2+y,-z
1/2-x,1/2+y,z
1/2+x,1/2-y,z
loop_
_atom_site_type_symbol
_atom_site_label
_atom_site_fract_x
_atom_site_fract_y
_atom_site_fract_z
Si Si1 0.301602 0.162272 0.000000
Si Si2 0.298854 0.157392 0.629248
Si Si3 0.876343 0.260253 0.803080
Si Si4 0.561005 0.500000 0.130832
Si Si5 0.439833 0.000000 0.124084
O O1 0.250000 0.250000 0.000000
O O2 0.334423 0.206175 0.104455
O O3 0.293315 0.000000 0.000000
O O4 0.305296 0.160466 0.500000
O O5 0.250000 0.250000 0.656159
O O6 0.346615 0.221440 0.691340
O O7 0.292550 0.000000 0.660932
O O8 0.918729 0.373031 0.815690
O O9 0.906776 0.125318 0.825817
O O10 0.500000 0.500000 0.159461
O O11 0.562916 0.500000 0.000000
O O12 0.500000 0.000000 0.119420
O O13 0.420352 0.000000 0.000000
#
# Coordination Sequence:
#
# PCOD9493032 Si02
#       5
#     8  16  16   8   8
#     4  12  24  36  55  86 120 154 189 238 301 364
#     4  10  22  40  63  90 119 157 202 243 291 355
#     4  12  21  39  58  87 121 152 195 245 299 352
#     4  11  24  40  61  90 121 157 202 246 296 356
#     4  11  20  36  61  84 113 153 198 246 294 358
#
# _framework density 17.261144999999999
#
# number of rings (size 3 to 8) (size 9 to 14) (size 15 to 20)
#    0.000    0.857    5.714    1.714    4.000    2.286 
#    0.000    0.000    0.000    5.143    0.000    0.000 
#    0.000    0.000    0.000    0.000    0.000    0.000 
#
# Total GULP energy -156266.640015 kJ/mol
# GULP energy per Si atom -5580.951429 kJ/mol
# Density = 1.722186 g / cm^3
# Si number density = 17.261145 Si / 1000 Ang^3
#
#
#
# Elastic Constant Matrix: (Units=GPa)
#
#
# Indices 1 2 3 4 5 6 
#
# 1 134.4870 91.6119 42.4709 0.0000 0.0000 0.0000
# 2 91.6119 195.6793 38.2539 0.0000 0.0000 0.0000
# 3 42.4709 38.2539 42.0125 0.0000 0.0000 0.0000
# 4 0.0000 0.0000 0.0000 24.6624 0.0000 0.0000
# 5 0.0000 0.0000 0.0000 0.0000 33.3328 0.0000
# 6 0.0000 0.0000 0.0000 0.0000 0.0000 38.3686
#
#
#
# Elastic Compliance Matrix: (Units=1/GPa)
#
#
# Indices 1 2 3 4 5 6 
#
# 1 0.013490 -0.004440 -0.009594 0.000000 0.000000 0.000000
# 2 -0.004440 0.007678 -0.002503 0.000000 0.000000 0.000000
# 3 -0.009594 -0.002503 0.035781 0.000000 0.000000 0.000000
# 4 0.000000 0.000000 0.000000 0.040548 0.000000 0.000000
# 5 0.000000 0.000000 0.000000 0.000000 0.030000 0.000000
# 6 0.000000 0.000000 0.000000 0.000000 0.000000 0.026063
#
#
# Mechanical properties :
#
#
# Convention : Reuss Voigt Hill
#
# Bulk Modulus (GPa) = 41.88632 79.65026 60.76829
# Shear Modulus (GPa) = 25.69460 32.59556 29.14508
#
# Velocity S-wave (km/s) = 3.86240 4.35026 4.11357
# Velocity P-wave (km/s) = 6.64904 8.45443 7.60550
#
# Compressibility (1/GPa) = 0.02387415
#
# Stress axis : x y z
#
# Youngs Moduli (GPa) = 74.12809 130.23464 27.94809
#
# Poissons Ratio (x) = 0.57825 0.26815
# Poissons Ratio (y) = 0.32914 0.06995
# Poissons Ratio (z) = 0.71122 0.32597
#
# Static dielectric constant tensor:
#      x y z
#    x 1.568030 0.000000 0.000000 
#    y 0.000000 1.669160 0.000000 
#    z 0.000000 0.000000 1.596980 
# 
# From -- ./inp_files/20513.got.cif
#   From: 2010.05.17/outbox.cif.g08.bks.cpg/sg65_11_cif.got.tgz:20513.got - 2010.06.03 17:01:31.
