data_PCOD9493564
_publ_section_title
;
Structure prediction by ZEFSAII (Michael W. Deem and Ramdas Pophale) SiO2 
 PCOD9493564
Probable space group: C M M M
;
_chemical_formula_sum "Si O2"
_cell_formula_units_Z 44
_cell_length_a 17.492107
_cell_length_b 16.118119
_cell_length_c 7.729742
_cell_angle_alpha 90.000000
_cell_angle_beta 90.000000
_cell_angle_gamma 90.000000
_cell_volume 2179.322394
_symmetry_space_group_name_H-M "C M M M"
_symmetry_group_IT_number 65
_symmetry_cell_setting 'orthorhombic'
loop_
_space_group_symop_operation_xyz
x,y,z
-x,-y,z
x,-y,-z
-x,y,-z
-x,-y,-z
x,y,-z
-x,y,z
x,-y,z
1/2+x,1/2+y,z
1/2-x,1/2-y,z
1/2+x,1/2-y,-z
1/2-x,1/2+y,-z
1/2-x,1/2-y,-z
1/2+x,1/2+y,-z
1/2-x,1/2+y,z
1/2+x,1/2-y,z
loop_
_atom_site_type_symbol
_atom_site_label
_atom_site_fract_x
_atom_site_fract_y
_atom_site_fract_z
Si Si1 0.842887 0.183338 0.203184
Si Si2 0.500000 0.404817 0.707908
Si Si3 0.144966 0.500000 0.000000
Si Si4 0.318640 0.871790 0.694273
O O1 0.923849 0.140441 0.229333
O O2 0.773766 0.130967 0.286039
O O3 0.842754 0.275836 0.279823
O O4 0.825456 0.189413 0.000000
O O5 0.500000 0.500000 0.766955
O O6 0.500000 0.403436 0.500000
O O7 0.148568 0.428045 0.153376
O O8 0.339067 0.898174 0.500000
#
# Coordination Sequence:
#
# PCOD9493564 Si02
#       4
#    16   8   4  16
#     4  11  21  41  60  87 126 169 208 249 306 375
#     4  11  25  39  59  93 128 163 206 251 310 373
#     4  12  22  38  60  96 120 148 218 268 306 344
#     4  11  22  39  64  89 125 167 207 254 306 362
#
# _framework density 20.189762999999999
#
# number of rings (size 3 to 8) (size 9 to 14) (size 15 to 20)
#    0.000    0.909    3.636    6.545    2.545    1.455 
#    0.000    0.000    0.000    2.182    0.000    3.818 
#    0.000    0.000    0.000    0.000    0.000    0.000 
#
# Total GULP energy -122499.503994 kJ/mol
# GULP energy per Si atom -5568.159272 kJ/mol
# Density = 2.014381 g / cm^3
# Si number density = 20.189763 Si / 1000 Ang^3
#
#
#
# Elastic Constant Matrix: (Units=GPa)
#
#
# Indices 1 2 3 4 5 6 
#
# 1 76.7619 21.0380 -7.8121 0.0000 0.0000 0.0000
# 2 21.0380 61.6494 23.8612 0.0000 0.0000 0.0000
# 3 -7.8121 23.8612 197.7475 0.0000 0.0000 0.0000
# 4 0.0000 0.0000 0.0000 21.8086 0.0000 0.0000
# 5 0.0000 0.0000 0.0000 0.0000 30.2455 0.0000
# 6 0.0000 0.0000 0.0000 0.0000 0.0000 152.8294
#
#
#
# Elastic Compliance Matrix: (Units=1/GPa)
#
#
# Indices 1 2 3 4 5 6 
#
# 1 0.014656 -0.005481 0.001240 0.000000 0.000000 0.000000
# 2 -0.005481 0.019066 -0.002517 0.000000 0.000000 0.000000
# 3 0.001240 -0.002517 0.005410 0.000000 0.000000 0.000000
# 4 0.000000 0.000000 0.000000 0.045853 0.000000 0.000000
# 5 0.000000 0.000000 0.000000 0.000000 0.033063 0.000000
# 6 0.000000 0.000000 0.000000 0.000000 0.000000 0.006543
#
#
# Mechanical properties :
#
#
# Convention : Reuss Voigt Hill
#
# Bulk Modulus (GPa) = 39.03992 45.59256 42.31624
# Shear Modulus (GPa) = 34.09596 60.91482 47.50539
#
# Velocity S-wave (km/s) = 4.11393 5.49879 4.85598
# Velocity P-wave (km/s) = 6.47645 7.93389 7.24192
#
# Compressibility (1/GPa) = 0.02561481
#
# Stress axis : x y z
#
# Youngs Moduli (GPa) = 68.23238 52.45072 184.85378
#
# Poissons Ratio (x) = 0.28750 -0.22929
# Poissons Ratio (y) = 0.37401 0.46529
# Poissons Ratio (z) = -0.08464 0.13202
#
# Static dielectric constant tensor:
#      x y z
#    x 1.694090 0.000000 0.000000 
#    y 0.000000 1.693710 0.000000 
#    z 0.000000 0.000000 1.728000 
# 
# From -- ./inp_files/8114.got.cif
#   From: 2010.05.17/outbox.cif.g08.bks.cpg/sg65_5_cif.got.tgz:8114.got - 2010.06.03 17:01:31.
