data_PCOD9493831
_publ_section_title
;
Structure prediction by ZEFSAII (Michael W. Deem and Ramdas Pophale) SiO2 
 PCOD9493831
Probable space group: C M M M
;
_chemical_formula_sum "Si O2"
_cell_formula_units_Z 72
_cell_length_a 8.867990
_cell_length_b 16.346941
_cell_length_c 24.908128
_cell_angle_alpha 90.000000
_cell_angle_beta 90.000000
_cell_angle_gamma 90.000000
_cell_volume 3610.794554
_symmetry_space_group_name_H-M "C M M M"
_symmetry_group_IT_number 65
_symmetry_cell_setting 'orthorhombic'
loop_
_space_group_symop_operation_xyz
x,y,z
-x,-y,z
x,-y,-z
-x,y,-z
-x,-y,-z
x,y,-z
-x,y,z
x,-y,z
1/2+x,1/2+y,z
1/2-x,1/2-y,z
1/2+x,1/2-y,-z
1/2-x,1/2+y,-z
1/2-x,1/2-y,-z
1/2+x,1/2+y,-z
1/2-x,1/2+y,z
1/2+x,1/2-y,z
loop_
_atom_site_type_symbol
_atom_site_label
_atom_site_fract_x
_atom_site_fract_y
_atom_site_fract_z
Si Si1 0.324081 0.905190 0.729080
Si Si2 0.319289 0.664339 0.624880
Si Si3 0.316452 0.500000 0.438130
Si Si4 0.176038 0.598681 0.939503
Si Si5 0.321337 0.661596 0.832550
O O1 0.500000 0.881849 0.730520
O O2 0.236364 0.851649 0.685561
O O3 0.252850 0.895881 0.787755
O O4 0.313100 0.000000 0.712627
O O5 0.500000 0.669187 0.623370
O O6 0.250000 0.750000 0.605420
O O7 0.269721 0.583989 0.591294
O O8 0.500000 0.500000 0.436914
O O9 0.268095 0.500000 0.500000
O O10 0.184073 0.500000 0.937668
O O11 0.275724 0.634527 0.892286
O O12 0.000000 0.621219 0.930890
O O13 0.219080 0.624335 0.000000
O O14 0.500000 0.663008 0.826457
O O15 0.250000 0.750000 0.822719
#
# Coordination Sequence:
#
# PCOD9493831 Si02
#       5
#    16  16   8  16  16
#     4  11  23  40  63  89 121 158 200 251 309 370
#     4  11  22  39  64  94 129 168 213 261 313 371
#     4   9  20  40  65  93 129 173 216 259 310 369
#     4   9  19  38  62  85 112 148 190 238 296 361
#     4  12  25  39  57  83 117 154 197 246 300 361
#
# _framework density 19.94021
#
# number of rings (size 3 to 8) (size 9 to 14) (size 15 to 20)
#    0.000    1.444    1.111    5.333    0.000    5.778 
#    0.000    1.111    0.000    4.667    0.000    0.000 
#    0.000    0.000    0.000    0.000    0.000    0.000 
#
# Total GULP energy -201240.668470 kJ/mol
# GULP energy per Si atom -5590.018569 kJ/mol
# Density = 1.989483 g / cm^3
# Si number density = 19.940210 Si / 1000 Ang^3
#
#
#
# Elastic Constant Matrix: (Units=GPa)
#
#
# Indices 1 2 3 4 5 6 
#
# 1 92.7287 48.2789 36.1035 0.0000 0.0000 0.0000
# 2 48.2789 105.4442 42.4839 0.0000 0.0000 0.0000
# 3 36.1035 42.4839 98.8553 0.0000 0.0000 0.0000
# 4 0.0000 0.0000 0.0000 15.6386 0.0000 0.0000
# 5 0.0000 0.0000 0.0000 0.0000 19.4131 0.0000
# 6 0.0000 0.0000 0.0000 0.0000 0.0000 19.8808
#
#
#
# Elastic Compliance Matrix: (Units=1/GPa)
#
#
# Indices 1 2 3 4 5 6 
#
# 1 0.014874 -0.005589 -0.003030 0.000000 0.000000 0.000000
# 2 -0.005589 0.013570 -0.003791 0.000000 0.000000 0.000000
# 3 -0.003030 -0.003791 0.012851 0.000000 0.000000 0.000000
# 4 0.000000 0.000000 0.000000 0.063944 0.000000 0.000000
# 5 0.000000 0.000000 0.000000 0.000000 0.051512 0.000000
# 6 0.000000 0.000000 0.000000 0.000000 0.000000 0.050300
#
#
# Mechanical properties :
#
#
# Convention : Reuss Voigt Hill
#
# Bulk Modulus (GPa) = 60.69637 61.19565 60.94601
# Shear Modulus (GPa) = 21.06478 22.33064 21.69771
#
# Velocity S-wave (km/s) = 3.25375 3.35009 3.30227
# Velocity P-wave (km/s) = 6.67991 6.76168 6.72092
#
# Compressibility (1/GPa) = 0.01647545
#
# Stress axis : x y z
#
# Youngs Moduli (GPa) = 67.23136 73.69157 77.81218
#
# Poissons Ratio (x) = 0.41189 0.23578
# Poissons Ratio (y) = 0.37578 0.29495
# Poissons Ratio (z) = 0.20372 0.27933
#
# Static dielectric constant tensor:
#      x y z
#    x 1.666530 0.000000 0.000000 
#    y 0.000000 1.702110 0.000000 
#    z 0.000000 0.000000 1.686790 
# 
# From -- ./inp_files/72504.got.cif
#   From: 2010.05.17/outbox.cif.g08.bks.cpg/sg65_37_cif.got.tgz:72504.got - 2010.06.03 17:01:31.
