data_PCOD9493002
_publ_section_title
;
Structure prediction by ZEFSAII (Michael W. Deem and Ramdas Pophale) SiO2 
 PCOD9493002
Probable space group: C M M M
;
_chemical_formula_sum "Si O2"
_cell_formula_units_Z 112
_cell_length_a 15.780229
_cell_length_b 22.637821
_cell_length_c 15.345209
_cell_angle_alpha 90.000000
_cell_angle_beta 90.000000
_cell_angle_gamma 90.000000
_cell_volume 5481.769002
_symmetry_space_group_name_H-M "C M M M"
_symmetry_group_IT_number 65
_symmetry_cell_setting 'orthorhombic'
loop_
_space_group_symop_operation_xyz
x,y,z
-x,-y,z
x,-y,-z
-x,y,-z
-x,-y,-z
x,y,-z
-x,y,z
x,-y,z
1/2+x,1/2+y,z
1/2-x,1/2-y,z
1/2+x,1/2-y,-z
1/2-x,1/2+y,-z
1/2-x,1/2-y,-z
1/2+x,1/2+y,-z
1/2-x,1/2+y,z
1/2+x,1/2-y,z
loop_
_atom_site_type_symbol
_atom_site_label
_atom_site_fract_x
_atom_site_fract_y
_atom_site_fract_z
Si Si1 0.219785 0.932651 0.898621
Si Si2 0.759303 0.066264 0.396331
Si Si3 0.406322 0.882572 0.316313
Si Si4 0.148325 0.746607 0.257861
Si Si5 0.097278 0.843204 0.396789
Si Si6 0.408846 0.068259 0.869218
Si Si7 0.599476 0.328251 0.897216
O O1 0.316522 0.908872 0.895537
O O2 0.156258 0.883223 0.863327
O O3 0.216900 0.000000 0.861855
O O4 0.196704 0.938069 0.000000
O O5 0.768339 0.062059 0.500000
O O6 0.670557 0.097457 0.376081
O O7 0.836746 0.106987 0.366483
O O8 0.760959 0.000000 0.359629
O O9 0.500000 0.881191 0.357127
O O10 0.384695 0.819166 0.274601
O O11 0.408608 0.927118 0.234947
O O12 0.250000 0.750000 0.261108
O O13 0.112371 0.786926 0.335998
O O14 0.118370 0.773341 0.165810
O O15 0.112314 0.830119 0.500000
O O16 0.000000 0.862870 0.388553
O O17 0.500000 0.094726 0.897634
O O18 0.408980 0.000000 0.897285
O O19 0.500000 0.342851 0.891514
O O20 0.618975 0.316913 0.000000
#
# Coordination Sequence:
#
# PCOD9493002 Si02
#       7
#    16  16  16  16  16  16  16
#     4   9  18  33  55  83 113 150 198 250 309 371
#     4  10  22  40  62  90 122 158 202 251 308 370
#     4  11  22  37  57  84 118 158 202 249 303 363
#     4  12  23  40  65  89 122 165 208 260 312 366
#     4  10  22  41  64  92 127 164 203 250 304 366
#     4   9  18  33  53  78 111 150 192 244 304 361
#     4  10  22  40  60  86 124 164 205 257 312 368
#
# _framework density 20.431362
#
# number of rings (size 3 to 8) (size 9 to 14) (size 15 to 20)
#    0.000    1.857    1.429    2.571    0.000    3.143 
#    0.000    5.714    0.000    2.571    0.000    0.000 
#    0.000    0.000    0.000    0.000    0.000    0.000 
#
# Total GULP energy -312448.495574 kJ/mol
# GULP energy per Si atom -5579.437421 kJ/mol
# Density = 2.038486 g / cm^3
# Si number density = 20.431362 Si / 1000 Ang^3
#
#
#
# Elastic Constant Matrix: (Units=GPa)
#
#
# Indices 1 2 3 4 5 6 
#
# 1 125.6199 30.6112 17.0862 0.0000 0.0000 0.0000
# 2 30.6112 88.1665 22.5372 0.0000 0.0000 0.0000
# 3 17.0862 22.5372 49.2482 0.0000 0.0000 0.0000
# 4 0.0000 0.0000 0.0000 19.6496 0.0000 0.0000
# 5 0.0000 0.0000 0.0000 0.0000 8.9907 0.0000
# 6 0.0000 0.0000 0.0000 0.0000 0.0000 -27.6824
#
#
#
# Elastic Compliance Matrix: (Units=1/GPa)
#
#
# Indices 1 2 3 4 5 6 
#
# 1 0.008848 -0.002590 -0.001884 0.000000 0.000000 0.000000
# 2 -0.002590 0.013603 -0.005326 0.000000 0.000000 0.000000
# 3 -0.001884 -0.005326 0.023397 0.000000 0.000000 0.000000
# 4 0.000000 0.000000 0.000000 0.050892 0.000000 0.000000
# 5 0.000000 0.000000 0.000000 0.000000 0.111226 0.000000
# 6 0.000000 0.000000 0.000000 0.000000 0.000000 -0.036124
#
#
# Mechanical properties :
#
#
# Convention : Reuss Voigt Hill
#
# Bulk Modulus (GPa) = 38.10180 44.83377 41.46779
# Shear Modulus (GPa) = 24.97607 13.04491 19.01049
#
# Velocity S-wave (km/s) = 3.50013 2.52955 3.05365
# Velocity P-wave (km/s) = 5.91808 5.52474 5.72479
#
# Compressibility (1/GPa) = 0.02624548
#
# Stress axis : x y z
#
# Youngs Moduli (GPa) = 113.01933 73.51278 42.74135
#
# Poissons Ratio (x) = 0.19042 0.08054
# Poissons Ratio (y) = 0.29276 0.22766
# Poissons Ratio (z) = 0.21297 0.39156
#
# Static dielectric constant tensor:
#      x y z
#    x 1.739740 0.000000 0.000000 
#    y 0.000000 1.740910 0.000000 
#    z 0.000000 0.000000 1.734650 
# 
# From -- ./inp_files/40791.got.cif
#   From: 2010.05.17/outbox.cif.g08.bks.cpg/sg65_21_cif.got.tgz:40791.got - 2010.06.03 17:01:31.
