data_PCOD9493807
_publ_section_title
;
Structure prediction by ZEFSAII (Michael W. Deem and Ramdas Pophale) SiO2 
 PCOD9493807
Probable space group: C M M M
;
_chemical_formula_sum "Si O2"
_cell_formula_units_Z 72
_cell_length_a 16.116742
_cell_length_b 8.695958
_cell_length_c 26.812969
_cell_angle_alpha 90.000000
_cell_angle_beta 90.000000
_cell_angle_gamma 90.000000
_cell_volume 3757.851321
_symmetry_space_group_name_H-M "C M M M"
_symmetry_group_IT_number 65
_symmetry_cell_setting 'orthorhombic'
loop_
_space_group_symop_operation_xyz
x,y,z
-x,-y,z
x,-y,-z
-x,y,-z
-x,-y,-z
x,y,-z
-x,y,z
x,-y,z
1/2+x,1/2+y,z
1/2-x,1/2-y,z
1/2+x,1/2-y,-z
1/2-x,1/2+y,-z
1/2-x,1/2-y,-z
1/2+x,1/2+y,-z
1/2-x,1/2+y,z
1/2+x,1/2-y,z
loop_
_atom_site_type_symbol
_atom_site_label
_atom_site_fract_x
_atom_site_fract_y
_atom_site_fract_z
Si Si1 0.342560 0.316639 0.000000
Si Si2 0.500000 0.687521 0.265048
Si Si3 0.839112 0.814489 0.441959
Si Si4 0.162673 0.184001 0.795957
Si Si5 0.000000 0.187883 0.379931
Si Si6 0.597566 0.179956 0.896689
O O1 0.250000 0.250000 0.000000
O O2 0.385867 0.255830 0.049986
O O3 0.341205 0.500000 0.000000
O O4 0.500000 0.500000 0.264316
O O5 0.416612 0.736711 0.236413
O O6 0.500000 0.736954 0.322476
O O7 0.851778 0.769876 0.500000
O O8 0.750000 0.750000 0.425623
O O9 0.916845 0.762900 0.408807
O O10 0.835875 0.000000 0.440136
O O11 0.250000 0.250000 0.777560
O O12 0.147543 0.239839 0.852437
O O13 0.165582 0.000000 0.794948
O O14 0.000000 0.000000 0.380586
O O15 0.500000 0.193078 0.885019
O O16 0.619870 0.000000 0.899139
#
# Coordination Sequence:
#
# PCOD9493807 Si02
#       6
#     8   8  16  16   8  16
#     4  12  25  40  59  85 119 153 189 229 278 337
#     4   9  20  37  57  81 111 146 188 239 287 340
#     4   9  17  30  51  79 111 147 188 232 279 335
#     4  11  22  39  61  85 112 147 191 235 287 343
#     4   9  17  32  54  78 107 147 192 233 280 336
#     4  11  23  40  62  87 116 148 186 232 283 338
#
# _framework density 19.159886
#
# number of rings (size 3 to 8) (size 9 to 14) (size 15 to 20)
#    0.000    1.778    1.111    3.667    0.000    4.889 
#    0.000    0.556    0.000    6.667    0.000    0.000 
#    0.000    0.000    0.000    0.000    0.000    0.000 
#
# Total GULP energy -201144.256076 kJ/mol
# GULP energy per Si atom -5587.340447 kJ/mol
# Density = 1.911628 g / cm^3
# Si number density = 19.159886 Si / 1000 Ang^3
#
#
#
# Elastic Constant Matrix: (Units=GPa)
#
#
# Indices 1 2 3 4 5 6 
#
# 1 169.8139 44.2150 91.8243 0.0000 0.0000 0.0000
# 2 44.2150 58.0499 21.6966 0.0000 0.0000 0.0000
# 3 91.8243 21.6966 123.9055 0.0000 0.0000 0.0000
# 4 0.0000 0.0000 0.0000 12.3486 0.0000 0.0000
# 5 0.0000 0.0000 0.0000 0.0000 -15.1544 0.0000
# 6 0.0000 0.0000 0.0000 0.0000 0.0000 32.2371
#
#
#
# Elastic Compliance Matrix: (Units=1/GPa)
#
#
# Indices 1 2 3 4 5 6 
#
# 1 0.011472 -0.005949 -0.007460 0.000000 0.000000 0.000000
# 2 -0.005949 0.021519 0.000641 0.000000 0.000000 0.000000
# 3 -0.007460 0.000641 0.013487 0.000000 0.000000 0.000000
# 4 0.000000 0.000000 0.000000 0.080981 0.000000 0.000000
# 5 0.000000 0.000000 0.000000 0.000000 -0.065988 0.000000
# 6 0.000000 0.000000 0.000000 0.000000 0.000000 0.031020
#
#
# Mechanical properties :
#
#
# Convention : Reuss Voigt Hill
#
# Bulk Modulus (GPa) = 47.75411 74.13790 60.94601
# Shear Modulus (GPa) = 39.99807 18.82183 29.40995
#
# Velocity S-wave (km/s) = 4.57398 3.13766 3.92213
# Velocity P-wave (km/s) = 7.27139 7.20450 7.23802
#
# Compressibility (1/GPa) = 0.02094060
#
# Stress axis : x y z
#
# Youngs Moduli (GPa) = 87.17231 46.47157 74.14780
#
# Poissons Ratio (x) = 0.27648 0.55311
# Poissons Ratio (y) = 0.51863 -0.04753
# Poissons Ratio (z) = 0.65027 -0.02979
#
# Static dielectric constant tensor:
#      x y z
#    x 1.665840 0.000000 0.000000 
#    y 0.000000 1.654690 0.000000 
#    z 0.000000 0.000000 1.648770 
# 
# From -- ./inp_files/74700.got.cif
#   From: 2010.05.17/outbox.cif.g08.bks.cpg/sg65_38_cif.got.tgz:74700.got - 2010.06.03 17:01:31.
