data_PCOD9493679
_publ_section_title
;
Structure prediction by ZEFSAII (Michael W. Deem and Ramdas Pophale) SiO2 
 PCOD9493679
Probable space group: C M M M
;
_chemical_formula_sum "Si O2"
_cell_formula_units_Z 96
_cell_length_a 7.993847
_cell_length_b 26.185229
_cell_length_c 19.451496
_cell_angle_alpha 90.000000
_cell_angle_beta 90.000000
_cell_angle_gamma 90.000000
_cell_volume 4071.601037
_symmetry_space_group_name_H-M "C M M M"
_symmetry_group_IT_number 65
_symmetry_cell_setting 'orthorhombic'
loop_
_space_group_symop_operation_xyz
x,y,z
-x,-y,z
x,-y,-z
-x,y,-z
-x,-y,-z
x,y,-z
-x,y,z
x,-y,z
1/2+x,1/2+y,z
1/2-x,1/2-y,z
1/2+x,1/2-y,-z
1/2-x,1/2+y,-z
1/2-x,1/2-y,-z
1/2+x,1/2+y,-z
1/2-x,1/2+y,z
1/2+x,1/2-y,z
loop_
_atom_site_type_symbol
_atom_site_label
_atom_site_fract_x
_atom_site_fract_y
_atom_site_fract_z
Si Si1 0.695368 0.305901 0.275736
Si Si2 0.204300 0.555013 0.374468
Si Si3 0.702451 0.835784 0.425791
Si Si4 0.198227 0.414398 0.775887
Si Si5 0.185639 0.804281 0.081641
Si Si6 0.806272 0.584046 0.923406
O O1 0.500000 0.312314 0.266710
O O2 0.750000 0.250000 0.253169
O O3 0.734986 0.309595 0.356901
O O4 0.780925 0.353516 0.237364
O O5 0.257121 0.500000 0.401525
O O6 0.253557 0.604845 0.416616
O O7 0.262272 0.561426 0.295190
O O8 0.000000 0.555839 0.373195
O O9 0.760647 0.816349 0.500000
O O10 0.500000 0.833355 0.424480
O O11 0.268301 0.432862 0.849719
O O12 0.000000 0.425154 0.778708
O O13 0.250000 0.750000 0.107920
O O14 0.298889 0.854396 0.086073
O O15 0.000000 0.815818 0.109286
O O16 0.168529 0.797187 0.000000
O O17 0.000000 0.567782 0.926106
O O18 0.733157 0.572625 0.000000
#
# Coordination Sequence:
#
# PCOD9493679 Si02
#       6
#    16  16  16  16  16  16
#     4  11  22  36  54  74 100 136 176 213 250 293
#     4   8  14  27  50  78 104 132 167 205 246 293
#     4   9  18  33  53  79 110 139 169 206 245 289
#     4   9  18  33  51  72  99 130 169 214 255 301
#     4   9  16  25  37  54  78 108 143 184 230 282
#     4   9  17  29  45  64  88 121 159 201 252 303
#
# _framework density 23.577947999999999
#
# number of rings (size 3 to 8) (size 9 to 14) (size 15 to 20)
#    0.000    2.833    0.000    3.000    0.000    4.333 
#    0.000    1.667    0.000    8.500    0.000    8.167 
#    0.000    0.000    0.000   10.167    0.000   11.000 
#
# Total GULP energy -267718.389655 kJ/mol
# GULP energy per Si atom -5577.466451 kJ/mol
# Density = 2.352428 g / cm^3
# Si number density = 23.577948 Si / 1000 Ang^3
#
#
#
# Elastic Constant Matrix: (Units=GPa)
#
#
# Indices 1 2 3 4 5 6 
#
# 1 33.1976 -9.1900 6.5903 0.0000 0.0000 0.0000
# 2 -9.1900 65.7839 -6.4309 0.0000 0.0000 0.0000
# 3 6.5903 -6.4309 187.5242 0.0000 0.0000 0.0000
# 4 0.0000 0.0000 0.0000 -11.2835 0.0000 0.0000
# 5 0.0000 0.0000 0.0000 0.0000 -9.5569 0.0000
# 6 0.0000 0.0000 0.0000 0.0000 0.0000 1.3741
#
#
#
# Elastic Compliance Matrix: (Units=1/GPa)
#
#
# Indices 1 2 3 4 5 6 
#
# 1 0.031506 0.004308 -0.000959 0.000000 0.000000 0.000000
# 2 0.004308 0.015841 0.000392 0.000000 0.000000 0.000000
# 3 -0.000959 0.000392 0.005380 0.000000 0.000000 0.000000
# 4 0.000000 0.000000 0.000000 -0.088625 0.000000 0.000000
# 5 0.000000 0.000000 0.000000 0.000000 -0.104636 0.000000
# 6 0.000000 0.000000 0.000000 0.000000 0.000000 0.727766
#
#
# Mechanical properties :
#
#
# Convention : Reuss Voigt Hill
#
# Bulk Modulus (GPa) = 16.60949 29.82715 23.21832
# Shear Modulus (GPa) = 8.33583 15.80916 12.07249
#
# Velocity S-wave (km/s) = 1.88231 2.59222 2.26525
# Velocity P-wave (km/s) = 3.43277 4.65160 4.08787
#
# Compressibility (1/GPa) = 0.06020656
#
# Stress axis : x y z
#
# Youngs Moduli (GPa) = 31.74042 63.12592 185.88035
#
# Poissons Ratio (x) = -0.27192 0.17835
# Poissons Ratio (y) = -0.13672 -0.07284
# Poissons Ratio (z) = 0.03045 -0.02474
#
# Static dielectric constant tensor:
#      x y z
#    x 1.866550 0.000000 0.000000 
#    y 0.000000 1.886120 0.000000 
#    z 0.000000 0.000000 1.953690 
# 
# From -- ./inp_files/60251.got.cif
#   From: 2010.05.17/outbox.cif.g08.bks.cpg/sg65_31_cif.got.tgz:60251.got - 2010.06.03 17:01:31.
