data_PCOD9493155
_publ_section_title
;
Structure prediction by ZEFSAII (Michael W. Deem and Ramdas Pophale) SiO2 
 PCOD9493155
Probable space group: C M M M
;
_chemical_formula_sum "Si O2"
_cell_formula_units_Z 72
_cell_length_a 23.101535
_cell_length_b 19.686579
_cell_length_c 7.819282
_cell_angle_alpha 90.000000
_cell_angle_beta 90.000000
_cell_angle_gamma 90.000000
_cell_volume 3556.132776
_symmetry_space_group_name_H-M "C M M M"
_symmetry_group_IT_number 65
_symmetry_cell_setting 'orthorhombic'
loop_
_space_group_symop_operation_xyz
x,y,z
-x,-y,z
x,-y,-z
-x,y,-z
-x,-y,-z
x,y,-z
-x,y,z
x,-y,z
1/2+x,1/2+y,z
1/2-x,1/2-y,z
1/2+x,1/2-y,-z
1/2-x,1/2+y,-z
1/2-x,1/2-y,-z
1/2+x,1/2+y,-z
1/2-x,1/2+y,z
1/2+x,1/2-y,z
loop_
_atom_site_type_symbol
_atom_site_label
_atom_site_fract_x
_atom_site_fract_y
_atom_site_fract_z
Si Si1 0.368704 0.845113 0.800906
Si Si2 0.125360 0.924729 0.705708
Si Si3 0.758360 0.577992 0.292869
Si Si4 0.564578 0.712896 0.795928
Si Si5 0.066046 0.580772 0.500000
O O1 0.301946 0.866515 0.780810
O O2 0.387949 0.769293 0.745474
O O3 0.402402 0.893145 0.669641
O O4 0.385034 0.854685 0.000000
O O5 0.126859 0.927340 0.500000
O O6 0.191792 0.912271 0.761597
O O7 0.084859 0.862740 0.754160
O O8 0.107564 0.000000 0.767082
O O9 0.760915 0.581803 0.500000
O O10 0.775096 0.500000 0.246186
O O11 0.500000 0.727188 0.726247
O O12 0.561139 0.717445 0.000000
O O13 0.067269 0.500000 0.500000
O O14 0.000000 0.604826 0.500000
#
# Coordination Sequence:
#
# PCOD9493155 Si02
#       5
#    16  16  16  16   8
#     4  11  23  39  61  90 123 160 204 250 300 361
#     4   9  20  38  61  90 120 153 197 250 305 363
#     4   9  18  36  60  87 123 159 194 245 307 364
#     4  10  23  41  58  81 118 162 204 250 304 358
#     4  11  24  40  60  87 119 161 208 253 305 357
#
# _framework density 20.246711999999999
#
# number of rings (size 3 to 8) (size 9 to 14) (size 15 to 20)
#    0.000    2.111    1.111    2.667    1.556    6.222 
#    0.000   10.000    0.000    0.000    0.000    0.000 
#    0.000    0.000    0.000    0.000    0.000    0.000 
#
# Total GULP energy -200922.982108 kJ/mol
# GULP energy per Si atom -5581.193947 kJ/mol
# Density = 2.020063 g / cm^3
# Si number density = 20.246712 Si / 1000 Ang^3
#
#
#
# Elastic Constant Matrix: (Units=GPa)
#
#
# Indices 1 2 3 4 5 6 
#
# 1 45.7604 42.3658 2.3727 0.0000 0.0000 0.0000
# 2 42.3658 112.6157 8.6372 0.0000 0.0000 0.0000
# 3 2.3727 8.6372 54.6220 0.0000 0.0000 0.0000
# 4 0.0000 0.0000 0.0000 34.1076 0.0000 0.0000
# 5 0.0000 0.0000 0.0000 0.0000 16.5776 0.0000
# 6 0.0000 0.0000 0.0000 0.0000 0.0000 60.4596
#
#
#
# Elastic Compliance Matrix: (Units=1/GPa)
#
#
# Indices 1 2 3 4 5 6 
#
# 1 0.033548 -0.012662 0.000545 0.000000 0.000000 0.000000
# 2 -0.012662 0.013768 -0.001627 0.000000 0.000000 0.000000
# 3 0.000545 -0.001627 0.018541 0.000000 0.000000 0.000000
# 4 0.000000 0.000000 0.000000 0.029319 0.000000 0.000000
# 5 0.000000 0.000000 0.000000 0.000000 0.060323 0.000000
# 6 0.000000 0.000000 0.000000 0.000000 0.000000 0.016540
#
#
# Mechanical properties :
#
#
# Convention : Reuss Voigt Hill
#
# Bulk Modulus (GPa) = 26.06326 35.52773 30.79550
# Shear Modulus (GPa) = 23.54968 32.87042 28.21005
#
# Velocity S-wave (km/s) = 3.41418 4.03363 3.73676
# Velocity P-wave (km/s) = 5.33319 6.26730 5.81902
#
# Compressibility (1/GPa) = 0.03836819
#
# Stress axis : x y z
#
# Youngs Moduli (GPa) = 29.80821 72.63149 53.93378
#
# Poissons Ratio (x) = 0.91969 -0.02939
# Poissons Ratio (y) = 0.37744 0.08775
# Poissons Ratio (z) = -0.01625 0.11818
#
# Static dielectric constant tensor:
#      x y z
#    x 1.730700 0.000000 0.000000 
#    y 0.000000 1.716560 0.000000 
#    z 0.000000 0.000000 1.728000 
# 
# From -- ./inp_files/15973.got.cif
#   From: 2010.05.17/outbox.cif.g08.bks.cpg/sg65_8_cif.got.tgz:15973.got - 2010.06.03 17:01:31.
