data_PCOD9493350
_publ_section_title
;
Structure prediction by ZEFSAII (Michael W. Deem and Ramdas Pophale) SiO2 
 PCOD9493350
Probable space group: C M M M
;
_chemical_formula_sum "Si O2"
_cell_formula_units_Z 88
_cell_length_a 16.896546
_cell_length_b 18.785145
_cell_length_c 14.667482
_cell_angle_alpha 90.000000
_cell_angle_beta 90.000000
_cell_angle_gamma 90.000000
_cell_volume 4655.518434
_symmetry_space_group_name_H-M "C M M M"
_symmetry_group_IT_number 65
_symmetry_cell_setting 'orthorhombic'
loop_
_space_group_symop_operation_xyz
x,y,z
-x,-y,z
x,-y,-z
-x,y,-z
-x,-y,-z
x,y,-z
-x,y,z
x,-y,z
1/2+x,1/2+y,z
1/2-x,1/2-y,z
1/2+x,1/2-y,-z
1/2-x,1/2+y,-z
1/2-x,1/2-y,-z
1/2+x,1/2+y,-z
1/2-x,1/2+y,z
1/2+x,1/2-y,z
loop_
_atom_site_type_symbol
_atom_site_label
_atom_site_fract_x
_atom_site_fract_y
_atom_site_fract_z
Si Si1 0.859436 0.641952 0.217552
Si Si2 0.095508 0.872216 0.393980
Si Si3 0.904932 0.704728 0.400336
Si Si4 0.841655 0.222240 0.896994
Si Si5 0.181637 0.917466 0.210607
Si Si6 0.500000 0.917242 0.101119
O O1 0.874529 0.652833 0.323529
O O2 0.872653 0.720912 0.175248
O O3 0.773652 0.606440 0.209280
O O4 0.923351 0.599411 0.160595
O O5 0.113052 0.893314 0.500000
O O6 0.115154 0.787892 0.385925
O O7 0.142633 0.908843 0.311255
O O8 0.000000 0.880920 0.382194
O O9 0.875195 0.684191 0.500000
O O10 0.000000 0.702045 0.399861
O O11 0.750000 0.250000 0.902141
O O12 0.853162 0.143079 0.857246
O O13 0.873050 0.227649 0.000000
O O14 0.173359 0.000000 0.182353
O O15 0.500000 0.000000 0.087276
O O16 0.500000 0.882288 0.000000
#
# Coordination Sequence:
#
# PCOD9493350 Si02
#       6
#    16  16  16  16  16   8
#     4  11  20  37  60  87 117 152 196 242 286 344
#     4   9  19  37  60  86 115 149 194 245 295 350
#     4   9  17  32  58  88 112 144 193 241 287 343
#     4   9  19  36  57  80 107 145 194 241 286 342
#     4  11  23  36  55  85 119 154 192 240 297 351
#     4  11  24  40  61  91 124 158 196 239 291 345
#
# _framework density 18.902298999999999
#
# number of rings (size 3 to 8) (size 9 to 14) (size 15 to 20)
#    0.000    2.091    2.727    2.182    0.000    2.545 
#    0.000    2.727    0.000    2.182    0.000    1.273 
#    0.000    0.000    0.000    0.000    0.000    0.000 
#
# Total GULP energy -245048.160991 kJ/mol
# GULP energy per Si atom -5569.276386 kJ/mol
# Density = 1.885928 g / cm^3
# Si number density = 18.902299 Si / 1000 Ang^3
#
#
#
# Elastic Constant Matrix: (Units=GPa)
#
#
# Indices 1 2 3 4 5 6 
#
# 1 40.2180 11.5324 24.4122 0.0000 0.0000 0.0000
# 2 11.5324 102.8539 45.1415 0.0000 0.0000 0.0000
# 3 24.4122 45.1415 120.7302 0.0000 0.0000 0.0000
# 4 0.0000 0.0000 0.0000 23.6346 0.0000 0.0000
# 5 0.0000 0.0000 0.0000 0.0000 -7.7003 0.0000
# 6 0.0000 0.0000 0.0000 0.0000 0.0000 22.3475
#
#
#
# Elastic Compliance Matrix: (Units=1/GPa)
#
#
# Indices 1 2 3 4 5 6 
#
# 1 0.028397 -0.000794 -0.005445 0.000000 0.000000 0.000000
# 2 -0.000794 0.011653 -0.004197 0.000000 0.000000 0.000000
# 3 -0.005445 -0.004197 0.010953 0.000000 0.000000 0.000000
# 4 0.000000 0.000000 0.000000 0.042311 0.000000 0.000000
# 5 0.000000 0.000000 0.000000 0.000000 -0.129865 0.000000
# 6 0.000000 0.000000 0.000000 0.000000 0.000000 0.044748
#
#
# Mechanical properties :
#
#
# Convention : Reuss Voigt Hill
#
# Bulk Modulus (GPa) = 33.18742 47.33049 40.25895
# Shear Modulus (GPa) = 127.83154 19.83742 73.83448
#
# Velocity S-wave (km/s) = 8.23252 3.24307 6.25667
# Velocity P-wave (km/s) = 10.39044 6.25438 8.57550
#
# Compressibility (1/GPa) = 0.03013190
#
# Stress axis : x y z
#
# Youngs Moduli (GPa) = 35.21452 85.81147 91.29823
#
# Poissons Ratio (x) = 0.06815 0.49713
# Poissons Ratio (y) = 0.02797 0.38315
# Poissons Ratio (z) = 0.19175 0.36012
#
# Static dielectric constant tensor:
#      x y z
#    x 1.654570 0.000000 0.000000 
#    y 0.000000 1.657390 0.000000 
#    z 0.000000 0.000000 1.847870 
# 
# From -- ./inp_files/42523.got.cif
#   From: 2010.05.17/outbox.cif.g08.bks.cpg/sg65_22_cif.got.tgz:42523.got - 2010.06.03 17:01:31.
