data_PCOD9493952
_publ_section_title
;
Structure prediction by ZEFSAII (Michael W. Deem and Ramdas Pophale) SiO2 
 PCOD9493952
Probable space group: C M M M
;
_chemical_formula_sum "Si O2"
_cell_formula_units_Z 68
_cell_length_a 21.535326
_cell_length_b 7.651433
_cell_length_c 20.143989
_cell_angle_alpha 90.000000
_cell_angle_beta 90.000000
_cell_angle_gamma 90.000000
_cell_volume 3319.248027
_symmetry_space_group_name_H-M "C M M M"
_symmetry_group_IT_number 65
_symmetry_cell_setting 'orthorhombic'
loop_
_space_group_symop_operation_xyz
x,y,z
-x,-y,z
x,-y,-z
-x,y,-z
-x,-y,-z
x,y,-z
-x,y,z
x,-y,z
1/2+x,1/2+y,z
1/2-x,1/2-y,z
1/2+x,1/2-y,-z
1/2-x,1/2+y,-z
1/2-x,1/2-y,-z
1/2+x,1/2+y,-z
1/2-x,1/2+y,z
1/2+x,1/2-y,z
loop_
_atom_site_type_symbol
_atom_site_label
_atom_site_fract_x
_atom_site_fract_y
_atom_site_fract_z
Si Si1 0.573206 0.788505 0.426123
Si Si2 0.100494 0.193928 0.283523
Si Si3 0.319501 0.208046 0.829769
Si Si4 0.431057 0.213235 0.922767
Si Si5 0.500000 0.000000 0.743325
O O1 0.592906 0.733758 0.500000
O O2 0.500000 0.742517 0.418373
O O3 0.608032 0.715877 0.362614
O O4 0.575513 0.000000 0.423241
O O5 0.163364 0.216686 0.242016
O O6 0.053998 0.346485 0.260357
O O7 0.075804 0.000000 0.270738
O O8 0.250000 0.250000 0.851434
O O9 0.373500 0.274470 0.879213
O O10 0.324803 0.000000 0.827011
O O11 0.500000 0.267817 0.899402
O O12 0.431330 0.000000 0.920184
O O13 0.424662 0.262197 0.000000
#
# Coordination Sequence:
#
# PCOD9493952 Si02
#       5
#    16  16  16  16   4
#     4   9  16  30  52  81 120 158 194 245 306 364
#     4  12  23  37  60  89 123 161 206 249 309 369
#     4  11  23  39  60  85 123 164 210 260 305 363
#     4   8  16  32  58  90 121 159 204 251 308 364
#     4  12  22  40  57  92 125 160 196 258 314 360
#
# _framework density 20.486567999999998
#
# number of rings (size 3 to 8) (size 9 to 14) (size 15 to 20)
#    0.000    1.882    3.529    2.471    1.647    0.941 
#    0.000    1.176    0.000    2.824    0.000    6.588 
#    0.000    0.000    0.000    0.000    0.000    0.000 
#
# Total GULP energy -189345.235884 kJ/mol
# GULP energy per Si atom -5568.977526 kJ/mol
# Density = 2.043994 g / cm^3
# Si number density = 20.486568 Si / 1000 Ang^3
#
#
#
# Elastic Constant Matrix: (Units=GPa)
#
#
# Indices 1 2 3 4 5 6 
#
# 1 131.5065 19.8752 79.8981 0.0000 0.0000 0.0000
# 2 19.8752 111.9013 10.5023 0.0000 0.0000 0.0000
# 3 79.8981 10.5023 122.1387 0.0000 0.0000 0.0000
# 4 0.0000 0.0000 0.0000 -4.0911 0.0000 0.0000
# 5 0.0000 0.0000 0.0000 0.0000 7.7078 0.0000
# 6 0.0000 0.0000 0.0000 0.0000 0.0000 11.6169
#
#
#
# Elastic Compliance Matrix: (Units=1/GPa)
#
#
# Indices 1 2 3 4 5 6 
#
# 1 0.012867 -0.001508 -0.008288 0.000000 0.000000 0.000000
# 2 -0.001508 0.009186 0.000196 0.000000 0.000000 0.000000
# 3 -0.008288 0.000196 0.013592 0.000000 0.000000 0.000000
# 4 0.000000 0.000000 0.000000 -0.244436 0.000000 0.000000
# 5 0.000000 0.000000 0.000000 0.000000 0.129739 0.000000
# 6 0.000000 0.000000 0.000000 0.000000 0.000000 0.086081
#
#
# Mechanical properties :
#
#
# Convention : Reuss Voigt Hill
#
# Bulk Modulus (GPa) = 60.80025 65.12198 62.96111
# Shear Modulus (GPa) = 157.68051 20.06478 88.87264
#
# Velocity S-wave (km/s) = 8.78264 3.13295 6.59357
# Velocity P-wave (km/s) = 11.51473 6.70402 9.42159
#
# Compressibility (1/GPa) = 0.01644730
#
# Stress axis : x y z
#
# Youngs Moduli (GPa) = 77.71674 108.86386 73.57306
#
# Poissons Ratio (x) = 0.16412 0.60974
# Poissons Ratio (y) = 0.11716 -0.01445
# Poissons Ratio (z) = 0.64408 -0.02137
#
# Static dielectric constant tensor:
#      x y z
#    x 1.705230 0.000000 0.000000 
#    y 0.000000 1.759050 0.000000 
#    z 0.000000 0.000000 1.791440 
# 
# From -- ./inp_files/63352.got.cif
#   From: 2010.05.17/outbox.cif.g08.bks.cpg/sg65_32_cif.got.tgz:63352.got - 2010.06.03 17:01:31.
