data_PCOD9493747
_publ_section_title
;
Structure prediction by ZEFSAII (Michael W. Deem and Ramdas Pophale) SiO2 
 PCOD9493747
Probable space group: C M M M
;
_chemical_formula_sum "Si O2"
_cell_formula_units_Z 64
_cell_length_a 18.838822
_cell_length_b 8.657173
_cell_length_c 21.105277
_cell_angle_alpha 90.000000
_cell_angle_beta 90.000000
_cell_angle_gamma 90.000000
_cell_volume 3442.079490
_symmetry_space_group_name_H-M "C M M M"
_symmetry_group_IT_number 65
_symmetry_cell_setting 'orthorhombic'
loop_
_space_group_symop_operation_xyz
x,y,z
-x,-y,z
x,-y,-z
-x,y,-z
-x,-y,-z
x,y,-z
-x,y,z
x,-y,z
1/2+x,1/2+y,z
1/2-x,1/2-y,z
1/2+x,1/2-y,-z
1/2-x,1/2+y,-z
1/2-x,1/2-y,-z
1/2+x,1/2+y,-z
1/2-x,1/2+y,z
1/2+x,1/2-y,z
loop_
_atom_site_type_symbol
_atom_site_label
_atom_site_fract_x
_atom_site_fract_y
_atom_site_fract_z
Si Si1 0.170578 0.313862 0.381220
Si Si2 0.918443 0.312063 0.259646
Si Si3 0.083276 0.185614 0.500000
Si Si4 0.171296 0.182830 0.000000
Si Si5 0.583487 0.814327 0.116613
O O1 0.172153 0.500000 0.383212
O O2 0.250000 0.250000 0.386749
O O3 0.134227 0.263193 0.315084
O O4 0.122526 0.252432 0.438491
O O5 0.919203 0.500000 0.259360
O O6 0.897988 0.264140 0.188378
O O7 0.000000 0.262885 0.271962
O O8 0.000000 0.227606 0.500000
O O9 0.088900 0.000000 0.500000
O O10 0.250000 0.250000 0.000000
O O11 0.129804 0.239456 0.937788
O O12 0.174631 0.000000 0.000000
O O13 0.500000 0.780219 0.107047
O O14 0.591439 0.000000 0.113115
#
# Coordination Sequence:
#
# PCOD9493747 Si02
#       5
#    16  16   8   8  16
#     4  11  22  37  58  84 116 150 185 225 272 326
#     4   8  16  33  58  85 110 141 183 226 269 324
#     4  11  24  41  60  83 111 143 184 233 280 327
#     4  12  25  38  53  77 111 147 187 232 277 328
#     4   9  18  36  61  85 111 144 181 223 274 330
#
# _framework density 18.593411
#
# number of rings (size 3 to 8) (size 9 to 14) (size 15 to 20)
#    0.000    2.125    0.000    5.250    0.000    5.000 
#    0.000    5.000    0.000    3.000    0.000    0.000 
#    0.000    0.000    0.000    0.000    0.000    0.000 
#
# Total GULP energy -178718.474216 kJ/mol
# GULP energy per Si atom -5584.952319 kJ/mol
# Density = 1.855109 g / cm^3
# Si number density = 18.593411 Si / 1000 Ang^3
#
#
#
# Elastic Constant Matrix: (Units=GPa)
#
#
# Indices 1 2 3 4 5 6 
#
# 1 161.6981 63.8722 137.0517 0.0000 0.0000 0.0000
# 2 63.8722 51.7050 60.5347 0.0000 0.0000 0.0000
# 3 137.0517 60.5347 197.2696 0.0000 0.0000 0.0000
# 4 0.0000 0.0000 0.0000 -2.7520 0.0000 0.0000
# 5 0.0000 0.0000 0.0000 0.0000 -53.8441 0.0000
# 6 0.0000 0.0000 0.0000 0.0000 0.0000 19.5936
#
#
#
# Elastic Compliance Matrix: (Units=1/GPa)
#
#
# Indices 1 2 3 4 5 6 
#
# 1 0.019188 -0.012636 -0.009453 0.000000 0.000000 0.000000
# 2 -0.012636 0.038506 -0.003037 0.000000 0.000000 0.000000
# 3 -0.009453 -0.003037 0.012569 0.000000 0.000000 0.000000
# 4 0.000000 0.000000 0.000000 -0.363370 0.000000 0.000000
# 5 0.000000 0.000000 0.000000 0.000000 -0.018572 0.000000
# 6 0.000000 0.000000 0.000000 0.000000 0.000000 0.051037
#
#
# Mechanical properties :
#
#
# Convention : Reuss Voigt Hill
#
# Bulk Modulus (GPa) = 49.97557 103.73221 76.85389
# Shear Modulus (GPa) = -24.54345 2.54711 -10.99817
#
# Velocity S-wave (km/s) = -3.63713 1.17170 -2.43473
# Velocity P-wave (km/s) = 3.04929 7.59878 5.78963
#
# Compressibility (1/GPa) = 0.02000978
#
# Stress axis : x y z
#
# Youngs Moduli (GPa) = 52.11611 25.97026 79.56144
#
# Poissons Ratio (x) = 0.32815 0.75212
# Poissons Ratio (y) = 0.65852 0.24166
# Poissons Ratio (z) = 0.49267 0.07888
#
# Static dielectric constant tensor:
#      x y z
#    x 1.608080 0.000000 0.000000 
#    y 0.000000 1.625670 0.000000 
#    z 0.000000 0.000000 1.637300 
# 
# From -- ./inp_files/63262.got.cif
#   From: 2010.05.17/outbox.cif.g08.bks.cpg/sg65_32_cif.got.tgz:63262.got - 2010.06.03 17:01:31.
