data_PCOD9493704
_publ_section_title
;
Structure prediction by ZEFSAII (Michael W. Deem and Ramdas Pophale) SiO2 
 PCOD9493704
Probable space group: C M M M
;
_chemical_formula_sum "Si O2"
_cell_formula_units_Z 104
_cell_length_a 19.784834
_cell_length_b 32.183465
_cell_length_c 7.727315
_cell_angle_alpha 90.000000
_cell_angle_beta 90.000000
_cell_angle_gamma 90.000000
_cell_volume 4920.325423
_symmetry_space_group_name_H-M "C M M M"
_symmetry_group_IT_number 65
_symmetry_cell_setting 'orthorhombic'
loop_
_space_group_symop_operation_xyz
x,y,z
-x,-y,z
x,-y,-z
-x,y,-z
-x,-y,-z
x,y,-z
-x,y,z
x,-y,z
1/2+x,1/2+y,z
1/2-x,1/2-y,z
1/2+x,1/2-y,-z
1/2-x,1/2+y,-z
1/2-x,1/2-y,-z
1/2+x,1/2+y,-z
1/2-x,1/2+y,z
1/2+x,1/2-y,z
loop_
_atom_site_type_symbol
_atom_site_label
_atom_site_fract_x
_atom_site_fract_y
_atom_site_fract_z
Si Si1 0.073712 0.169657 0.205754
Si Si2 0.922402 0.409298 0.289934
Si Si3 0.575247 0.574288 0.211176
Si Si4 0.710921 0.129582 0.796738
Si Si5 0.082459 0.500000 0.700373
Si Si6 0.289030 0.711117 0.699010
Si Si7 0.219897 0.955152 0.788634
O O1 0.085421 0.122293 0.268388
O O2 0.137011 0.198931 0.235976
O O3 0.000000 0.183716 0.271582
O O4 0.068733 0.165556 0.000000
O O5 0.921636 0.410940 0.500000
O O6 0.868955 0.375568 0.228913
O O7 0.899647 0.455172 0.222711
O O8 0.000000 0.402071 0.237187
O O9 0.500000 0.560795 0.266569
O O10 0.641202 0.548939 0.263011
O O11 0.574865 0.573519 0.000000
O O12 0.743067 0.170070 0.713363
O O13 0.742852 0.086455 0.727847
O O14 0.727442 0.132314 0.000000
O O15 0.104182 0.500000 0.500000
O O16 0.000000 0.500000 0.698646
O O17 0.300057 0.721760 0.500000
O O18 0.250000 0.750000 0.782801
O O19 0.247304 0.000000 0.731224
O O20 0.222949 0.954693 0.000000
#
# Coordination Sequence:
#
# PCOD9493704 Si02
#       7
#    16  16  16  16   8  16  16
#     4   9  17  33  59  88 116 146 183 228 277 332
#     4   9  18  34  55  78 108 147 189 233 281 335
#     4   8  13  24  45  73 106 143 181 218 257 304
#     4  11  22  36  56  81 113 149 184 231 285 337
#     4   7  12  26  49  75 103 141 188 229 268 325
#     4  11  24  41  61  85 112 145 188 236 286 341
#     4   9  17  28  44  73 113 150 183 221 268 320
#
# _framework density 21.136814999999999
#
# number of rings (size 3 to 8) (size 9 to 14) (size 15 to 20)
#    0.000    2.692    1.538    2.769    1.077    2.154 
#    0.000    2.308    0.000    2.308    0.000    0.000 
#    0.000    2.462    0.000    0.000    0.000    0.000 
#
# Total GULP energy -290083.329592 kJ/mol
# GULP energy per Si atom -5578.525569 kJ/mol
# Density = 2.108871 g / cm^3
# Si number density = 21.136815 Si / 1000 Ang^3
#
#
#
# Elastic Constant Matrix: (Units=GPa)
#
#
# Indices 1 2 3 4 5 6 
#
# 1 110.7221 54.4891 -9.8563 0.0000 0.0000 0.0000
# 2 54.4891 100.3894 -7.2101 0.0000 0.0000 0.0000
# 3 -9.8563 -7.2101 27.9405 0.0000 0.0000 0.0000
# 4 0.0000 0.0000 0.0000 47.0653 0.0000 0.0000
# 5 0.0000 0.0000 0.0000 0.0000 21.2671 0.0000
# 6 0.0000 0.0000 0.0000 0.0000 0.0000 26.4670
#
#
#
# Elastic Compliance Matrix: (Units=1/GPa)
#
#
# Indices 1 2 3 4 5 6 
#
# 1 0.012522 -0.006602 0.002714 0.000000 0.000000 0.000000
# 2 -0.006602 0.013630 0.001188 0.000000 0.000000 0.000000
# 3 0.002714 0.001188 0.037054 0.000000 0.000000 0.000000
# 4 0.000000 0.000000 0.000000 0.021247 0.000000 0.000000
# 5 0.000000 0.000000 0.000000 0.000000 0.047021 0.000000
# 6 0.000000 0.000000 0.000000 0.000000 0.000000 0.037783
#
#
# Mechanical properties :
#
#
# Convention : Reuss Voigt Hill
#
# Bulk Modulus (GPa) = 17.29902 34.87748 26.08825
# Shear Modulus (GPa) = 25.78307 32.40183 29.09245
#
# Velocity S-wave (km/s) = 3.49638 3.91955 3.71399
# Velocity P-wave (km/s) = 4.94991 6.08444 5.54626
#
# Compressibility (1/GPa) = 0.05780673
#
# Stress axis : x y z
#
# Youngs Moduli (GPa) = 79.85877 73.36827 26.98744
#
# Poissons Ratio (x) = 0.48436 -0.07324
# Poissons Ratio (y) = 0.52721 -0.03207
# Poissons Ratio (z) = -0.21671 -0.08719
#
# Static dielectric constant tensor:
#      x y z
#    x 1.801480 0.000000 0.000000 
#    y 0.000000 1.775990 0.000000 
#    z 0.000000 0.000000 1.797740 
# 
# From -- ./inp_files/12426.got.cif
#   From: 2010.05.17/outbox.cif.g08.bks.cpg/sg65_7_cif.got.tgz:12426.got - 2010.06.03 17:01:31.
