data_PCOD9493310
_publ_section_title
;
Structure prediction by ZEFSAII (Michael W. Deem and Ramdas Pophale) SiO2 
 PCOD9493310
Probable space group: C M M M
;
_chemical_formula_sum "Si O2"
_cell_formula_units_Z 112
_cell_length_a 14.577476
_cell_length_b 34.046603
_cell_length_c 14.433143
_cell_angle_alpha 90.000000
_cell_angle_beta 90.000000
_cell_angle_gamma 90.000000
_cell_volume 7163.364268
_symmetry_space_group_name_H-M "C M M M"
_symmetry_group_IT_number 65
_symmetry_cell_setting 'orthorhombic'
loop_
_space_group_symop_operation_xyz
x,y,z
-x,-y,z
x,-y,-z
-x,y,-z
-x,-y,-z
x,y,-z
-x,y,z
x,-y,z
1/2+x,1/2+y,z
1/2-x,1/2-y,z
1/2+x,1/2-y,-z
1/2-x,1/2+y,-z
1/2-x,1/2-y,-z
1/2+x,1/2+y,-z
1/2-x,1/2+y,z
1/2+x,1/2-y,z
loop_
_atom_site_type_symbol
_atom_site_label
_atom_site_fract_x
_atom_site_fract_y
_atom_site_fract_z
Si Si1 0.388365 0.310607 0.896020
Si Si2 0.887984 0.720252 0.895745
Si Si3 0.642088 0.260122 0.392901
Si Si4 0.396562 0.181972 0.288027
Si Si5 0.895218 0.455336 0.387520
Si Si6 0.227200 0.617988 0.611469
Si Si7 0.107614 0.155791 0.703195
O O1 0.500000 0.309483 0.895843
O O2 0.358482 0.265390 0.879527
O O3 0.362895 0.337672 0.809957
O O4 0.359813 0.322155 0.000000
O O5 0.857970 0.691511 0.814207
O O6 0.000000 0.720370 0.892416
O O7 0.860694 0.709227 0.000000
O O8 0.613005 0.260966 0.500000
O O9 0.750000 0.250000 0.390722
O O10 0.598467 0.224298 0.337287
O O11 0.621810 0.301835 0.346179
O O12 0.500000 0.165906 0.281462
O O13 0.333547 0.153431 0.347372
O O14 0.895617 0.455424 0.500000
O O15 0.874399 0.500000 0.357752
O O16 0.822388 0.422433 0.359866
O O17 0.000000 0.445699 0.358839
O O18 0.228840 0.620622 0.500000
O O19 0.327983 0.624700 0.652277
O O20 0.000000 0.146129 0.699281
#
# Coordination Sequence:
#
# PCOD9493310 Si02
#       7
#    16  16  16  16  16  16  16
#     4   8  14  27  46  63  79 109 159 210 246 272
#     4   8  14  26  43  61  82 113 155 200 245 286
#     4  11  21  32  42  55  84 127 168 202 228 261
#     4  11  20  30  45  64  88 119 155 197 241 279
#     4   8  15  31  55  78  97 119 148 182 226 278
#     4  11  22  33  46  68  98 124 151 192 231 271
#     4  11  21  33  47  63  89 127 165 197 233 280
#
# _framework density 15.635111999999999
#
# number of rings (size 3 to 8) (size 9 to 14) (size 15 to 20)
#    0.000    2.286    2.857    3.000    0.000    3.429 
#    0.000    0.714    0.000    3.000    0.000    2.000 
#    0.000    2.286    0.000   13.714    0.000    0.571 
#
# Total GULP energy -312406.231411 kJ/mol
# GULP energy per Si atom -5578.682704 kJ/mol
# Density = 1.559953 g / cm^3
# Si number density = 15.635112 Si / 1000 Ang^3
#
#
#
# Elastic Constant Matrix: (Units=GPa)
#
#
# Indices 1 2 3 4 5 6 
#
# 1 86.0345 43.6681 31.3745 0.0000 0.0000 0.0000
# 2 43.6681 75.9654 31.6612 0.0000 0.0000 0.0000
# 3 31.3745 31.6612 99.2227 0.0000 0.0000 0.0000
# 4 0.0000 0.0000 0.0000 1.4972 0.0000 0.0000
# 5 0.0000 0.0000 0.0000 0.0000 91.7687 0.0000
# 6 0.0000 0.0000 0.0000 0.0000 0.0000 20.3723
#
#
#
# Elastic Compliance Matrix: (Units=1/GPa)
#
#
# Indices 1 2 3 4 5 6 
#
# 1 0.016974 -0.008674 -0.002599 0.000000 0.000000 0.000000
# 2 -0.008674 0.019616 -0.003516 0.000000 0.000000 0.000000
# 3 -0.002599 -0.003516 0.012022 0.000000 0.000000 0.000000
# 4 0.000000 0.000000 0.000000 0.667927 0.000000 0.000000
# 5 0.000000 0.000000 0.000000 0.000000 0.010897 0.000000
# 6 0.000000 0.000000 0.000000 0.000000 0.000000 0.049086
#
#
# Mechanical properties :
#
#
# Convention : Reuss Voigt Hill
#
# Bulk Modulus (GPa) = 52.54242 52.73671 52.63956
# Shear Modulus (GPa) = 6.15426 33.02890 19.59158
#
# Velocity S-wave (km/s) = 1.98613 4.60116 3.54369
# Velocity P-wave (km/s) = 6.24003 7.87594 7.10523
#
# Compressibility (1/GPa) = 0.01903224
#
# Stress axis : x y z
#
# Youngs Moduli (GPa) = 58.91468 50.97988 83.17834
#
# Poissons Ratio (x) = 0.44219 0.21621
# Poissons Ratio (y) = 0.51102 0.29250
# Poissons Ratio (z) = 0.15314 0.17927
#
# Static dielectric constant tensor:
#      x y z
#    x 1.594170 0.000000 0.000000 
#    y 0.000000 1.482170 0.000000 
#    z 0.000000 0.000000 1.544320 
# 
# From -- ./inp_files/41329.got.cif
#   From: 2010.05.17/outbox.cif.g08.bks.cpg/sg65_21_cif.got.tgz:41329.got - 2010.06.03 17:01:31.
