data_PCOD9493036
_publ_section_title
;
Structure prediction by ZEFSAII (Michael W. Deem and Ramdas Pophale) SiO2 
 PCOD9493036
Probable space group: C M M M
;
_chemical_formula_sum "Si O2"
_cell_formula_units_Z 42
_cell_length_a 9.687140
_cell_length_b 25.554398
_cell_length_c 8.933712
_cell_angle_alpha 90.000000
_cell_angle_beta 90.000000
_cell_angle_gamma 90.000000
_cell_volume 2211.531749
_symmetry_space_group_name_H-M "C M M M"
_symmetry_group_IT_number 65
_symmetry_cell_setting 'orthorhombic'
loop_
_space_group_symop_operation_xyz
x,y,z
-x,-y,z
x,-y,-z
-x,y,-z
-x,-y,-z
x,y,-z
-x,y,z
x,-y,z
1/2+x,1/2+y,z
1/2-x,1/2-y,z
1/2+x,1/2-y,-z
1/2-x,1/2+y,-z
1/2-x,1/2-y,-z
1/2+x,1/2+y,-z
1/2-x,1/2+y,z
1/2+x,1/2-y,z
loop_
_atom_site_type_symbol
_atom_site_label
_atom_site_fract_x
_atom_site_fract_y
_atom_site_fract_z
Si Si1 0.500000 0.000000 0.000000
Si Si2 0.714981 0.500000 0.833652
Si Si3 0.339499 0.199213 0.180655
Si Si4 0.656100 0.609736 0.678753
O O1 0.622305 0.000000 0.871413
O O2 0.674912 0.551978 0.745334
O O3 0.650654 0.500000 0.000000
O O4 0.500000 0.204195 0.224546
O O5 0.250000 0.250000 0.223758
O O6 0.267560 0.148579 0.250439
O O7 0.334909 0.194682 0.000000
O O8 0.670276 0.608545 0.500000
O O9 0.500000 0.628079 0.715411
#
# Coordination Sequence:
#
# PCOD9493036 Si02
#       4
#     2   8  16  16
#     4   8  24  40  60  92 124 152 196 264 284 354
#     4  10  22  40  64  86 122 156 198 244 297 347
#     4  10  22  40  64  90 119 155 202 250 298 354
#     4  11  24  40  60  89 125 160 199 245 297 357
#
# _framework density 18.991363
#
# number of rings (size 3 to 8) (size 9 to 14) (size 15 to 20)
#    0.571    1.143    0.000    3.429    2.667    8.381 
#    0.000    0.952    0.000    0.000    0.000    0.000 
#    0.000    0.000    0.000    0.000    0.000    0.000 
#
# Total GULP energy -117005.742701 kJ/mol
# GULP energy per Si atom -5571.702033 kJ/mol
# Density = 1.894814 g / cm^3
# Si number density = 18.991363 Si / 1000 Ang^3
#
#
#
# Elastic Constant Matrix: (Units=GPa)
#
#
# Indices 1 2 3 4 5 6 
#
# 1 190.8251 73.1511 48.3085 0.0000 0.0000 0.0000
# 2 73.1511 149.6907 40.1729 0.0000 0.0000 0.0000
# 3 48.3085 40.1729 30.9248 0.0000 0.0000 0.0000
# 4 0.0000 0.0000 0.0000 73.1647 0.0000 0.0000
# 5 0.0000 0.0000 0.0000 0.0000 30.5087 0.0000
# 6 0.0000 0.0000 0.0000 0.0000 0.0000 -10.4385
#
#
#
# Elastic Compliance Matrix: (Units=1/GPa)
#
#
# Indices 1 2 3 4 5 6 
#
# 1 0.008753 -0.000933 -0.012460 0.000000 0.000000 0.000000
# 2 -0.000933 0.010355 -0.011995 0.000000 0.000000 0.000000
# 3 -0.012460 -0.011995 0.067382 0.000000 0.000000 0.000000
# 4 0.000000 0.000000 0.000000 0.013668 0.000000 0.000000
# 5 0.000000 0.000000 0.000000 0.000000 0.032778 0.000000
# 6 0.000000 0.000000 0.000000 0.000000 0.000000 -0.095799
#
#
# Mechanical properties :
#
#
# Convention : Reuss Voigt Hill
#
# Bulk Modulus (GPa) = 27.99982 77.18951 52.59467
# Shear Modulus (GPa) = 50.09128 32.63420 41.36274
#
# Velocity S-wave (km/s) = 5.14131 4.14982 4.67194
# Velocity P-wave (km/s) = 7.07245 7.98086 7.54035
#
# Compressibility (1/GPa) = 0.03571452
#
# Stress axis : x y z
#
# Youngs Moduli (GPa) = 114.25273 96.56723 14.84065
#
# Poissons Ratio (x) = 0.09012 0.18492
# Poissons Ratio (y) = 0.10662 0.17801
# Poissons Ratio (z) = 1.42362 1.15828
#
# Static dielectric constant tensor:
#      x y z
#    x 1.658580 0.000000 0.000000 
#    y 0.000000 1.627890 0.000000 
#    z 0.000000 0.000000 1.632590 
# 
# From -- ./inp_files/3981.got.cif
#   From: 2010.05.17/outbox.cif.g08.bks.cpg/sg65_2_cif.got.tgz:3981.got - 2010.06.03 17:01:31.
