data_PCOD9493644
_publ_section_title
;
Structure prediction by ZEFSAII (Michael W. Deem and Ramdas Pophale) SiO2 
 PCOD9493644
Probable space group: C M M M
;
_chemical_formula_sum "Si O2"
_cell_formula_units_Z 104
_cell_length_a 25.130985
_cell_length_b 19.033721
_cell_length_c 11.749953
_cell_angle_alpha 90.000000
_cell_angle_beta 90.000000
_cell_angle_gamma 90.000000
_cell_volume 5620.427362
_symmetry_space_group_name_H-M "C M M M"
_symmetry_group_IT_number 65
_symmetry_cell_setting 'orthorhombic'
loop_
_space_group_symop_operation_xyz
x,y,z
-x,-y,z
x,-y,-z
-x,y,-z
-x,-y,-z
x,y,-z
-x,y,z
x,-y,z
1/2+x,1/2+y,z
1/2-x,1/2-y,z
1/2+x,1/2-y,-z
1/2-x,1/2+y,-z
1/2-x,1/2-y,-z
1/2+x,1/2+y,-z
1/2-x,1/2+y,z
1/2+x,1/2-y,z
loop_
_atom_site_type_symbol
_atom_site_label
_atom_site_fract_x
_atom_site_fract_y
_atom_site_fract_z
Si Si1 0.564624 0.500000 0.128917
Si Si2 0.171795 0.351198 0.864073
Si Si3 0.335025 0.259549 0.500000
Si Si4 0.736617 0.869209 0.500000
Si Si5 0.343841 0.288445 0.750165
Si Si6 0.440783 0.917612 0.137969
Si Si7 0.940190 0.848019 0.863271
Si Si8 0.234312 0.921210 0.255375
O O1 0.500000 0.500000 0.119665
O O2 0.576855 0.425113 0.182801
O O3 0.586697 0.500000 0.000000
O O4 0.186142 0.280546 0.794877
O O5 0.112640 0.376720 0.827811
O O6 0.216372 0.407384 0.828934
O O7 0.172353 0.339434 0.000000
O O8 0.315968 0.178829 0.500000
O O9 0.283714 0.311105 0.500000
O O10 0.361384 0.277307 0.619837
O O11 0.743758 0.912352 0.615656
O O12 0.395968 0.294366 0.826725
O O13 0.308192 0.358387 0.761536
O O14 0.500000 0.892504 0.175244
O O15 0.436034 0.000000 0.169569
O O16 0.441099 0.914962 0.000000
O O17 0.000000 0.831596 0.825360
O O18 0.941583 0.853327 0.000000
O O19 0.212590 0.000000 0.239643
#
# Coordination Sequence:
#
# PCOD9493644 Si02
#       8
#     8  16   8   8  16  16  16  16
#     4   7  12  26  48  71  99 139 183 224 262 306
#     4  11  22  35  52  79 116 150 180 219 277 345
#     4   9  18  36  59  80 102 139 181 231 284 330
#     4   9  17  38  62  78  99 134 187 232 269 332
#     4  11  22  36  57  80 110 146 187 236 284 336
#     4   8  15  30  52  76 104 140 179 219 264 316
#     4   9  18  33  54  80 110 148 192 231 270 327
#     4  11  23  37  57  83 108 141 184 234 288 337
#
# _framework density 18.503931000000001
#
# number of rings (size 3 to 8) (size 9 to 14) (size 15 to 20)
#    0.000    2.385    1.538    3.000    1.077    3.385 
#    0.000    1.923    0.000    0.000    0.000    2.154 
#    0.000    3.692    0.000    0.000    0.000    0.000 
#
# Total GULP energy -289678.127500 kJ/mol
# GULP energy per Si atom -5570.733221 kJ/mol
# Density = 1.846182 g / cm^3
# Si number density = 18.503931 Si / 1000 Ang^3
#
#
#
# Elastic Constant Matrix: (Units=GPa)
#
#
# Indices 1 2 3 4 5 6 
#
# 1 72.5046 23.2692 15.9510 0.0000 0.0000 0.0000
# 2 23.2692 82.9088 11.2750 0.0000 0.0000 0.0000
# 3 15.9510 11.2750 50.6114 0.0000 0.0000 0.0000
# 4 0.0000 0.0000 0.0000 17.6347 0.0000 0.0000
# 5 0.0000 0.0000 0.0000 0.0000 -6.2109 0.0000
# 6 0.0000 0.0000 0.0000 0.0000 0.0000 23.5718
#
#
#
# Elastic Compliance Matrix: (Units=1/GPa)
#
#
# Indices 1 2 3 4 5 6 
#
# 1 0.015964 -0.003915 -0.004159 0.000000 0.000000 0.000000
# 2 -0.003915 0.013398 -0.001751 0.000000 0.000000 0.000000
# 3 -0.004159 -0.001751 0.021459 0.000000 0.000000 0.000000
# 4 0.000000 0.000000 0.000000 0.056706 0.000000 0.000000
# 5 0.000000 0.000000 0.000000 0.000000 -0.161007 0.000000
# 6 0.000000 0.000000 0.000000 0.000000 0.000000 0.042424
#
#
# Mechanical properties :
#
#
# Convention : Reuss Voigt Hill
#
# Bulk Modulus (GPa) = 32.08061 34.11280 33.09671
# Shear Modulus (GPa) = 263.37935 17.36775 140.37355
#
# Velocity S-wave (km/s) = 11.94345 3.06698 8.71930
# Velocity P-wave (km/s) = 14.40727 5.56931 10.92215
#
# Compressibility (1/GPa) = 0.03117148
#
# Stress axis : x y z
#
# Youngs Moduli (GPa) = 62.64253 74.63638 46.59986
#
# Poissons Ratio (x) = 0.29218 0.19381
# Poissons Ratio (y) = 0.24523 0.08160
# Poissons Ratio (z) = 0.26054 0.13069
#
# Static dielectric constant tensor:
#      x y z
#    x 1.635670 0.000000 0.000000 
#    y 0.000000 1.706380 0.000000 
#    z 0.000000 0.000000 1.637050 
# 
# From -- ./inp_files/32593.got.cif
#   From: 2010.05.17/outbox.cif.g08.bks.cpg/sg65_17_cif.got.tgz:32593.got - 2010.06.03 17:01:31.
