data_PCOD9493202
_publ_section_title
;
Structure prediction by ZEFSAII (Michael W. Deem and Ramdas Pophale) SiO2 
 PCOD9493202
Probable space group: C M M M
;
_chemical_formula_sum "Si O2"
_cell_formula_units_Z 90
_cell_length_a 18.054724
_cell_length_b 19.064697
_cell_length_c 12.463726
_cell_angle_alpha 90.000000
_cell_angle_beta 90.000000
_cell_angle_gamma 90.000000
_cell_volume 4290.112236
_symmetry_space_group_name_H-M "C M M M"
_symmetry_group_IT_number 65
_symmetry_cell_setting 'orthorhombic'
loop_
_space_group_symop_operation_xyz
x,y,z
-x,-y,z
x,-y,-z
-x,y,-z
-x,-y,-z
x,y,-z
-x,y,z
x,-y,z
1/2+x,1/2+y,z
1/2-x,1/2-y,z
1/2+x,1/2-y,-z
1/2-x,1/2+y,-z
1/2-x,1/2-y,-z
1/2+x,1/2+y,-z
1/2-x,1/2+y,z
1/2+x,1/2-y,z
loop_
_atom_site_type_symbol
_atom_site_label
_atom_site_fract_x
_atom_site_fract_y
_atom_site_fract_z
Si Si1 0.416020 0.144773 0.000000
Si Si2 0.164446 0.354171 0.629021
Si Si3 0.838391 0.266563 0.176623
Si Si4 0.582231 0.000000 0.629720
Si Si5 0.085727 0.879639 0.124737
Si Si6 0.580681 0.414750 0.500000
Si Si7 0.500000 0.000000 0.000000
Si Si8 0.185049 0.079095 0.690295
O O1 0.367837 0.170306 0.101576
O O2 0.500000 0.178543 0.000000
O O3 0.436079 0.062822 0.000000
O O4 0.163450 0.343902 0.500000
O O5 0.141845 0.288279 0.701224
O O6 0.120143 0.425906 0.655844
O O7 0.246114 0.370918 0.673367
O O8 0.750000 0.250000 0.162953
O O9 0.886180 0.199882 0.140154
O O10 0.500000 0.000000 0.677049
O O11 0.578762 0.000000 0.500000
O O12 0.144417 0.920984 0.196678
O O13 0.000000 0.888801 0.159594
O O14 0.089716 0.898468 0.000000
O O15 0.576141 0.500000 0.500000
O O16 0.500000 0.384007 0.500000
O O17 0.624670 0.395925 0.394592
O O18 0.209050 0.000000 0.661073
#
# Coordination Sequence:
#
# PCOD9493202 Si02
#       8
#     8  16  16   8  16   8   2  16
#     4  10  23  47  72 100 134 170 226 292 359 404
#     4  11  23  41  66  97 136 178 223 279 338 407
#     4  12  24  41  70  98 132 182 230 276 336 422
#     4   9  20  39  65  95 129 175 226 278 348 414
#     4  11  25  45  68  94 128 178 227 274 340 401
#     4   9  18  32  58  91 126 168 212 267 332 390
#     4   8  24  48  76 112 130 172 224 308 356 398
#     4  11  21  39  67  98 133 172 220 273 329 398
#
# _framework density 20.978472
#
# number of rings (size 3 to 8) (size 9 to 14) (size 15 to 20)
#    0.267    1.067    4.444    1.333    0.000    3.911 
#    3.200    0.889    0.000    0.000    0.000    0.000 
#    0.000    0.000    0.000    0.000    0.000    0.000 
#
# Total GULP energy -250858.143986 kJ/mol
# GULP energy per Si atom -5574.625422 kJ/mol
# Density = 2.093072 g / cm^3
# Si number density = 20.978472 Si / 1000 Ang^3
#
#
#
# Elastic Constant Matrix: (Units=GPa)
#
#
# Indices 1 2 3 4 5 6 
#
# 1 95.8681 11.2959 33.9712 0.0000 0.0000 0.0000
# 2 11.2959 63.2819 21.3197 0.0000 0.0000 0.0000
# 3 33.9712 21.3197 99.7973 0.0000 0.0000 0.0000
# 4 0.0000 0.0000 0.0000 27.2001 0.0000 0.0000
# 5 0.0000 0.0000 0.0000 0.0000 23.3713 0.0000
# 6 0.0000 0.0000 0.0000 0.0000 0.0000 4.4897
#
#
#
# Elastic Compliance Matrix: (Units=1/GPa)
#
#
# Indices 1 2 3 4 5 6 
#
# 1 0.011901 -0.000818 -0.003876 0.000000 0.000000 0.000000
# 2 -0.000818 0.017084 -0.003371 0.000000 0.000000 0.000000
# 3 -0.003876 -0.003371 0.012060 0.000000 0.000000 0.000000
# 4 0.000000 0.000000 0.000000 0.036765 0.000000 0.000000
# 5 0.000000 0.000000 0.000000 0.000000 0.042788 0.000000
# 6 0.000000 0.000000 0.000000 0.000000 0.000000 0.222730
#
#
# Mechanical properties :
#
#
# Convention : Reuss Voigt Hill
#
# Bulk Modulus (GPa) = 40.13886 43.56897 41.85391
# Shear Modulus (GPa) = 13.59570 23.83625 18.71597
#
# Velocity S-wave (km/s) = 2.54850 3.37445 2.99013
# Velocity P-wave (km/s) = 5.27586 5.99967 5.64937
#
# Compressibility (1/GPa) = 0.02491351
#
# Stress axis : x y z
#
# Youngs Moduli (GPa) = 84.02649 58.53387 82.91899
#
# Poissons Ratio (x) = 0.04791 0.32142
# Poissons Ratio (y) = 0.06877 0.27953
# Poissons Ratio (z) = 0.32571 0.19732
#
# Static dielectric constant tensor:
#      x y z
#    x 1.785020 0.000000 0.000000 
#    y 0.000000 1.784700 0.000000 
#    z 0.000000 0.000000 1.745900 
# 
# From -- ./inp_files/26889.got.cif
#   From: 2010.05.17/outbox.cif.g08.bks.cpg/sg65_14_cif.got.tgz:26889.got - 2010.06.03 17:01:31.
