data_PCOD9493877
_publ_section_title
;
Structure prediction by ZEFSAII (Michael W. Deem and Ramdas Pophale) SiO2 
 PCOD9493877
Probable space group: C M M M
;
_chemical_formula_sum "Si O2"
_cell_formula_units_Z 72
_cell_length_a 28.594066
_cell_length_b 16.783180
_cell_length_c 7.458308
_cell_angle_alpha 90.000000
_cell_angle_beta 90.000000
_cell_angle_gamma 90.000000
_cell_volume 3579.237211
_symmetry_space_group_name_H-M "C M M M"
_symmetry_group_IT_number 65
_symmetry_cell_setting 'orthorhombic'
loop_
_space_group_symop_operation_xyz
x,y,z
-x,-y,z
x,-y,-z
-x,y,-z
-x,-y,-z
x,y,-z
-x,y,z
x,-y,z
1/2+x,1/2+y,z
1/2-x,1/2-y,z
1/2+x,1/2-y,-z
1/2-x,1/2+y,-z
1/2-x,1/2-y,-z
1/2+x,1/2+y,-z
1/2-x,1/2+y,z
1/2+x,1/2-y,z
loop_
_atom_site_type_symbol
_atom_site_label
_atom_site_fract_x
_atom_site_fract_y
_atom_site_fract_z
Si Si1 0.303313 0.254103 0.219061
Si Si2 0.106426 0.335513 0.213855
Si Si3 0.142494 0.912227 0.218293
Si Si4 0.553436 0.000000 0.288803
Si Si5 0.447571 0.678421 0.781065
O O1 0.250000 0.250000 0.280976
O O2 0.340906 0.186497 0.277278
O O3 0.324882 0.339149 0.273115
O O4 0.302208 0.251683 0.000000
O O5 0.083369 0.420948 0.246466
O O6 0.072577 0.264215 0.277807
O O7 0.108602 0.327247 0.000000
O O8 0.090005 0.887878 0.271596
O O9 0.155701 0.000000 0.280606
O O10 0.143588 0.912934 0.000000
O O11 0.500000 0.000000 0.211552
O O12 0.547931 0.000000 0.500000
O O13 0.500000 0.665315 0.718774
O O14 0.448345 0.679299 0.000000
#
# Coordination Sequence:
#
# PCOD9493877 Si02
#       5
#    16  16  16   8  16
#     4   8  14  26  42  62  91 120 149 188 230 274
#     4   9  17  30  48  68  91 121 158 193 229 282
#     4   8  13  20  30  49  80 114 141 169 213 264
#     4  11  23  35  47  67  97 127 157 203 254 291
#     4   8  13  21  35  55  79 109 143 177 212 256
#
# _framework density 20.116018
#
# number of rings (size 3 to 8) (size 9 to 14) (size 15 to 20)
#    0.000    3.444    0.000    3.667    0.000    2.222 
#    2.000    2.222    0.000    0.667    0.000    0.000 
#    0.000    8.667    0.000   48.889    0.000   40.889 
#
# Total GULP energy -200587.347345 kJ/mol
# GULP energy per Si atom -5571.870760 kJ/mol
# Density = 2.007023 g / cm^3
# Si number density = 20.116018 Si / 1000 Ang^3
#
#
#
# Elastic Constant Matrix: (Units=GPa)
#
#
# Indices 1 2 3 4 5 6 
#
# 1 207.6902 86.2087 8.4162 0.0000 0.0000 0.0000
# 2 86.2087 139.6076 -1.2889 0.0000 0.0000 0.0000
# 3 8.4162 -1.2889 56.3402 0.0000 0.0000 0.0000
# 4 0.0000 0.0000 0.0000 -51.2994 0.0000 0.0000
# 5 0.0000 0.0000 0.0000 0.0000 -11.0908 0.0000
# 6 0.0000 0.0000 0.0000 0.0000 0.0000 19.9374
#
#
#
# Elastic Compliance Matrix: (Units=1/GPa)
#
#
# Indices 1 2 3 4 5 6 
#
# 1 0.006538 -0.004047 -0.001069 0.000000 0.000000 0.000000
# 2 -0.004047 0.009670 0.000826 0.000000 0.000000 0.000000
# 3 -0.001069 0.000826 0.017928 0.000000 0.000000 0.000000
# 4 0.000000 0.000000 0.000000 -0.019493 0.000000 0.000000
# 5 0.000000 0.000000 0.000000 0.000000 -0.090165 0.000000
# 6 0.000000 0.000000 0.000000 0.000000 0.000000 0.050157
#
#
# Mechanical properties :
#
#
# Convention : Reuss Voigt Hill
#
# Bulk Modulus (GPa) = 39.13216 65.59001 52.36108
# Shear Modulus (GPa) = -604.87503 12.19624 -296.33939
#
# Velocity S-wave (km/s) = -17.35932 2.46498 -12.15051
# Velocity P-wave (km/s) = 19.55247 6.38578 13.06754
#
# Compressibility (1/GPa) = 0.02555443
#
# Stress axis : x y z
#
# Youngs Moduli (GPa) = 152.94913 103.41543 55.77889
#
# Poissons Ratio (x) = 0.41854 0.05964
# Poissons Ratio (y) = 0.61902 -0.04606
# Poissons Ratio (z) = 0.16354 -0.08540
#
# Static dielectric constant tensor:
#      x y z
#    x 1.714280 0.000000 0.000000 
#    y 0.000000 1.728560 0.000000 
#    z 0.000000 0.000000 1.763530 
# 
# From -- ./inp_files/17999.got.cif
#   From: 2010.05.17/outbox.cif.g08.bks.cpg/sg65_9_cif.got.tgz:17999.got - 2010.06.03 17:01:31.
