data_PCOD9493542
_publ_section_title
;
Structure prediction by ZEFSAII (Michael W. Deem and Ramdas Pophale) SiO2 
 PCOD9493542
Probable space group: C M M M
;
_chemical_formula_sum "Si O2"
_cell_formula_units_Z 88
_cell_length_a 9.996500
_cell_length_b 22.533910
_cell_length_c 22.077210
_cell_angle_alpha 90.000000
_cell_angle_beta 90.000000
_cell_angle_gamma 90.000000
_cell_volume 4973.117431
_symmetry_space_group_name_H-M "C M M M"
_symmetry_group_IT_number 65
_symmetry_cell_setting 'orthorhombic'
loop_
_space_group_symop_operation_xyz
x,y,z
-x,-y,z
x,-y,-z
-x,y,-z
-x,-y,-z
x,y,-z
-x,y,z
x,-y,z
1/2+x,1/2+y,z
1/2-x,1/2-y,z
1/2+x,1/2-y,-z
1/2-x,1/2+y,-z
1/2-x,1/2-y,-z
1/2+x,1/2+y,-z
1/2-x,1/2+y,z
1/2+x,1/2-y,z
loop_
_atom_site_type_symbol
_atom_site_label
_atom_site_fract_x
_atom_site_fract_y
_atom_site_fract_z
Si Si1 0.655837 0.071368 0.611159
Si Si2 0.845159 0.927858 0.500000
Si Si3 0.500000 0.142296 0.071180
Si Si4 0.000000 0.227154 0.122316
Si Si5 0.250000 0.750000 0.208535
Si Si6 0.500000 0.597556 0.071099
Si Si7 0.727319 0.067473 0.863611
Si Si8 0.159491 0.626290 0.742018
O O1 0.500000 0.083895 0.594650
O O2 0.759581 0.089716 0.559082
O O3 0.685978 0.102512 0.674923
O O4 0.665418 0.000000 0.618811
O O5 0.000000 0.907834 0.500000
O O6 0.847527 0.000000 0.500000
O O7 0.500000 0.212231 0.084313
O O8 0.372242 0.112367 0.102598
O O9 0.500000 0.130600 0.000000
O O10 0.870363 0.228709 0.165375
O O11 0.000000 0.168570 0.081842
O O12 0.201226 0.694256 0.247718
O O13 0.630540 0.572582 0.104077
O O14 0.500000 0.583906 0.000000
O O15 0.731346 0.087698 0.793794
O O16 0.677640 0.000000 0.867628
O O17 0.000000 0.620857 0.753036
#
# Coordination Sequence:
#
# PCOD9493542 Si02
#       8
#    16   8   8   8   8   8  16  16
#     4   9  18  33  58  87 117 155 195 230 276 338
#     4   9  17  33  53  84 129 162 187 228 274 327
#     4  12  24  40  63  87 108 144 196 249 297 350
#     4  12  21  42  62  84 108 145 194 250 298 349
#     4  12  20  38  63  81 114 146 190 244 300 348
#     4  12  26  42  59  81 114 154 192 239 299 366
#     4  12  24  40  59  82 117 153 189 239 299 361
#     4  11  21  38  61  89 114 147 197 247 292 338
#
# _framework density 17.695136999999999
#
# number of rings (size 3 to 8) (size 9 to 14) (size 15 to 20)
#    0.000    1.000    5.455    2.182    0.000    4.000 
#    3.273    2.727    0.000    0.545    0.000    0.000 
#    0.000    0.000    0.000    0.000    0.000    0.000 
#
# Total GULP energy -245871.092934 kJ/mol
# GULP energy per Si atom -5587.979385 kJ/mol
# Density = 1.765486 g / cm^3
# Si number density = 17.695137 Si / 1000 Ang^3
#
#
#
# Elastic Constant Matrix: (Units=GPa)
#
#
# Indices 1 2 3 4 5 6 
#
# 1 105.0110 0.8802 70.7630 0.0000 0.0000 0.0000
# 2 0.8802 69.8832 26.5070 0.0000 0.0000 0.0000
# 3 70.7630 26.5070 150.6417 0.0000 0.0000 0.0000
# 4 0.0000 0.0000 0.0000 30.3156 0.0000 0.0000
# 5 0.0000 0.0000 0.0000 0.0000 29.5410 0.0000
# 6 0.0000 0.0000 0.0000 0.0000 0.0000 25.2997
#
#
#
# Elastic Compliance Matrix: (Units=1/GPa)
#
#
# Indices 1 2 3 4 5 6 
#
# 1 0.014344 0.002545 -0.007186 0.000000 0.000000 0.000000
# 2 0.002545 0.015784 -0.003973 0.000000 0.000000 0.000000
# 3 -0.007186 -0.003973 0.010713 0.000000 0.000000 0.000000
# 4 0.000000 0.000000 0.000000 0.032986 0.000000 0.000000
# 5 0.000000 0.000000 0.000000 0.000000 0.033851 0.000000
# 6 0.000000 0.000000 0.000000 0.000000 0.000000 0.039526
#
#
# Mechanical properties :
#
#
# Convention : Reuss Voigt Hill
#
# Bulk Modulus (GPa) = 42.34851 57.98180 50.16515
# Shear Modulus (GPa) = 29.01866 32.19032 30.60449
#
# Velocity S-wave (km/s) = 4.05399 4.26979 4.16329
# Velocity P-wave (km/s) = 6.77476 7.55952 7.17787
#
# Compressibility (1/GPa) = 0.02361358
#
# Stress axis : x y z
#
# Youngs Moduli (GPa) = 69.71748 63.35334 93.34680
#
# Poissons Ratio (x) = -0.16123 0.67075
# Poissons Ratio (y) = -0.17742 0.37086
# Poissons Ratio (z) = 0.50096 0.25170
#
# Static dielectric constant tensor:
#      x y z
#    x 1.908620 0.000000 0.000000 
#    y 0.000000 1.592120 0.000000 
#    z 0.000000 0.000000 1.575650 
# 
# From -- ./inp_files/67734.got.cif
#   From: 2010.05.17/outbox.cif.g08.bks.cpg/sg65_34_cif.got.tgz:67734.got - 2010.06.03 17:01:31.
