data_PCOD9493289
_publ_section_title
;
Structure prediction by ZEFSAII (Michael W. Deem and Ramdas Pophale) SiO2 
 PCOD9493289
Probable space group: C M M M
;
_chemical_formula_sum "Si O2"
_cell_formula_units_Z 88
_cell_length_a 29.085894
_cell_length_b 14.707415
_cell_length_c 11.649556
_cell_angle_alpha 90.000000
_cell_angle_beta 90.000000
_cell_angle_gamma 90.000000
_cell_volume 4983.427421
_symmetry_space_group_name_H-M "C M M M"
_symmetry_group_IT_number 65
_symmetry_cell_setting 'orthorhombic'
loop_
_space_group_symop_operation_xyz
x,y,z
-x,-y,z
x,-y,-z
-x,y,-z
-x,-y,-z
x,y,-z
-x,y,z
x,-y,z
1/2+x,1/2+y,z
1/2-x,1/2-y,z
1/2+x,1/2-y,-z
1/2-x,1/2+y,-z
1/2-x,1/2-y,-z
1/2+x,1/2+y,-z
1/2-x,1/2+y,z
1/2+x,1/2-y,z
loop_
_atom_site_type_symbol
_atom_site_label
_atom_site_fract_x
_atom_site_fract_y
_atom_site_fract_z
Si Si1 0.848373 0.000000 0.363138
Si Si2 0.444044 0.000000 0.133318
Si Si3 0.711643 0.892443 0.000000
Si Si4 0.368556 0.679152 0.233316
Si Si5 0.677938 0.392214 0.000000
Si Si6 0.740129 0.000000 0.362665
Si Si7 0.945382 0.698918 0.138186
Si Si8 0.705700 0.183884 0.245520
O O1 0.870612 0.090162 0.310810
O O2 0.850458 0.000000 0.500000
O O3 0.794140 0.000000 0.328393
O O4 0.429827 0.901945 0.180221
O O5 0.500000 0.000000 0.134038
O O6 0.429873 0.000000 0.000000
O O7 0.767037 0.880340 0.000000
O O8 0.694027 0.846281 0.884538
O O9 0.701907 0.000000 0.000000
O O10 0.343428 0.649915 0.114664
O O11 0.416568 0.723957 0.199903
O O12 0.336252 0.755780 0.290638
O O13 0.668714 0.500000 0.000000
O O14 0.717694 0.908538 0.312153
O O15 0.737328 0.000000 0.500000
O O16 0.000000 0.707301 0.156455
O O17 0.937935 0.702963 0.000000
O O18 0.750000 0.250000 0.245396
#
# Coordination Sequence:
#
# PCOD9493289 Si02
#       8
#     8   8   8  16   8   8  16  16
#     4  11  24  41  59  79 106 151 198 235 281 337
#     4   7  12  27  48  72 109 146 171 203 256 326
#     4  11  20  34  52  74 121 152 179 220 268 349
#     4  12  22  35  58  82 113 146 188 233 279 338
#     4  11  19  31  54  78 108 154 183 217 276 335
#     4  11  24  42  58  79 112 149 195 245 282 323
#     4   9  18  33  55  85 118 151 185 223 274 334
#     4  12  22  35  54  83 111 148 185 226 277 334
#
# _framework density 17.658529000000001
#
# number of rings (size 3 to 8) (size 9 to 14) (size 15 to 20)
#    0.000    1.364    6.364    1.909    0.000    1.818 
#    0.000    0.455    0.000    2.727    0.000    0.000 
#    0.000    2.909    0.000    0.000    0.000    0.000 
#
# Total GULP energy -245739.400946 kJ/mol
# GULP energy per Si atom -5584.986385 kJ/mol
# Density = 1.761834 g / cm^3
# Si number density = 17.658529 Si / 1000 Ang^3
#
#
#
# Elastic Constant Matrix: (Units=GPa)
#
#
# Indices 1 2 3 4 5 6 
#
# 1 51.1200 57.7455 16.0613 0.0000 0.0000 0.0000
# 2 57.7455 173.8724 49.4830 0.0000 0.0000 0.0000
# 3 16.0613 49.4830 49.8780 0.0000 0.0000 0.0000
# 4 0.0000 0.0000 0.0000 -2.2495 0.0000 0.0000
# 5 0.0000 0.0000 0.0000 0.0000 5.6583 0.0000
# 6 0.0000 0.0000 0.0000 0.0000 0.0000 24.2328
#
#
#
# Elastic Compliance Matrix: (Units=1/GPa)
#
#
# Indices 1 2 3 4 5 6 
#
# 1 0.031311 -0.010491 0.000326 0.000000 0.000000 0.000000
# 2 -0.010491 0.011529 -0.008060 0.000000 0.000000 0.000000
# 3 0.000326 -0.008060 0.027940 0.000000 0.000000 0.000000
# 4 0.000000 0.000000 0.000000 -0.444536 0.000000 0.000000
# 5 0.000000 0.000000 0.000000 0.000000 0.176731 0.000000
# 6 0.000000 0.000000 0.000000 0.000000 0.000000 0.041266
#
#
# Mechanical properties :
#
#
# Convention : Reuss Voigt Hill
#
# Bulk Modulus (GPa) = 29.12951 57.93887 43.53419
# Shear Modulus (GPa) = -46.35455 15.63369 -15.36043
#
# Velocity S-wave (km/s) = -5.12908 2.97868 -2.95254
# Velocity P-wave (km/s) = 4.30637 6.68670 3.61712
#
# Compressibility (1/GPa) = 0.03432945
#
# Stress axis : x y z
#
# Youngs Moduli (GPa) = 31.93804 86.73426 35.79112
#
# Poissons Ratio (x) = 0.90997 -0.01167
# Poissons Ratio (y) = 0.33508 0.28847
# Poissons Ratio (z) = -0.01041 0.69906
#
# Static dielectric constant tensor:
#      x y z
#    x 1.598880 0.000000 0.000000 
#    y 0.000000 1.628030 0.000000 
#    z 0.000000 0.000000 1.584720 
# 
# From -- ./inp_files/32298.got.cif
#   From: 2010.05.17/outbox.cif.g08.bks.cpg/sg65_17_cif.got.tgz:32298.got - 2010.06.03 17:01:31.
