data_PCOD9493971
_publ_section_title
;
Structure prediction by ZEFSAII (Michael W. Deem and Ramdas Pophale) SiO2 
 PCOD9493971
Probable space group: C M M M
;
_chemical_formula_sum "Si O2"
_cell_formula_units_Z 72
_cell_length_a 8.718681
_cell_length_b 15.768453
_cell_length_c 27.384210
_cell_angle_alpha 90.000000
_cell_angle_beta 90.000000
_cell_angle_gamma 90.000000
_cell_volume 3764.784246
_symmetry_space_group_name_H-M "C M M M"
_symmetry_group_IT_number 65
_symmetry_cell_setting 'orthorhombic'
loop_
_space_group_symop_operation_xyz
x,y,z
-x,-y,z
x,-y,-z
-x,y,-z
-x,-y,-z
x,y,-z
-x,y,z
x,-y,z
1/2+x,1/2+y,z
1/2-x,1/2-y,z
1/2+x,1/2-y,-z
1/2-x,1/2+y,-z
1/2-x,1/2-y,-z
1/2+x,1/2+y,-z
1/2-x,1/2+y,z
1/2+x,1/2-y,z
loop_
_atom_site_type_symbol
_atom_site_label
_atom_site_fract_x
_atom_site_fract_y
_atom_site_fract_z
Si Si1 0.315964 0.599486 0.898625
Si Si2 0.684760 0.000000 0.734561
Si Si3 0.819000 0.398169 0.000000
Si Si4 0.685043 0.841912 0.443577
Si Si5 0.184498 0.160299 0.792468
Si Si6 0.313073 0.000000 0.378675
O O1 0.500000 0.601949 0.901717
O O2 0.270536 0.500000 0.893809
O O3 0.249480 0.634504 0.949211
O O4 0.268018 0.645709 0.849089
O O5 0.750013 0.082772 0.761338
O O6 0.500000 0.000000 0.737401
O O7 0.731854 0.000000 0.677764
O O8 0.785449 0.500000 0.000000
O O9 0.000000 0.386448 0.000000
O O10 0.728823 0.860031 0.500000
O O11 0.500000 0.838534 0.441945
O O12 0.750000 0.750000 0.430300
O O13 0.737710 0.916333 0.407778
O O14 0.250000 0.250000 0.775411
O O15 0.000000 0.159485 0.790383
O O16 0.500000 0.000000 0.379933
#
# Coordination Sequence:
#
# PCOD9493971 Si02
#       6
#    16   8   8  16  16   8
#     4   9  17  33  55  77 107 145 182 224 277 338
#     4  11  23  40  61  85 115 152 192 243 295 344
#     4   9  17  27  46  81 114 140 176 222 272 332
#     4   9  17  32  55  82 114 151 189 230 275 328
#     4  11  23  41  62  86 113 148 194 241 291 347
#     4   9  19  35  56  82 111 147 192 231 278 338
#
# _framework density 19.124600999999998
#
# number of rings (size 3 to 8) (size 9 to 14) (size 15 to 20)
#    0.000    2.333    1.111    1.667    0.000    5.333 
#    0.000    5.556    0.000    2.667    0.000    0.000 
#    0.000    0.000    0.000    0.000    0.000    0.000 
#
# Total GULP energy -200986.518493 kJ/mol
# GULP energy per Si atom -5582.958847 kJ/mol
# Density = 1.908107 g / cm^3
# Si number density = 19.124601 Si / 1000 Ang^3
#
#
#
# Elastic Constant Matrix: (Units=GPa)
#
#
# Indices 1 2 3 4 5 6 
#
# 1 20.1220 37.6614 40.3289 0.0000 0.0000 0.0000
# 2 37.6614 149.7927 104.0354 0.0000 0.0000 0.0000
# 3 40.3289 104.0354 159.0521 0.0000 0.0000 0.0000
# 4 0.0000 0.0000 0.0000 -9.6529 0.0000 0.0000
# 5 0.0000 0.0000 0.0000 0.0000 21.6453 0.0000
# 6 0.0000 0.0000 0.0000 0.0000 0.0000 26.0223
#
#
#
# Elastic Compliance Matrix: (Units=1/GPa)
#
#
# Indices 1 2 3 4 5 6 
#
# 1 0.119917 -0.016551 -0.019580 0.000000 0.000000 0.000000
# 2 -0.016551 0.014518 -0.005299 0.000000 0.000000 0.000000
# 3 -0.019580 -0.005299 0.014718 0.000000 0.000000 0.000000
# 4 0.000000 0.000000 0.000000 -0.103596 0.000000 0.000000
# 5 0.000000 0.000000 0.000000 0.000000 0.046199 0.000000
# 6 0.000000 0.000000 0.000000 0.000000 0.000000 0.038429
#
#
# Mechanical properties :
#
#
# Convention : Reuss Voigt Hill
#
# Bulk Modulus (GPa) = 15.08476 77.00201 46.04338
# Shear Modulus (GPa) = 21.26368 17.39901 19.33135
#
# Velocity S-wave (km/s) = 3.33806 3.01951 3.18277
# Velocity P-wave (km/s) = 4.77091 7.24620 6.13469
#
# Compressibility (1/GPa) = 0.06629209
#
# Stress axis : x y z
#
# Youngs Moduli (GPa) = 8.33912 68.88103 67.94321
#
# Poissons Ratio (x) = 1.14005 1.33032
# Poissons Ratio (y) = 0.13802 0.36006
# Poissons Ratio (z) = 0.16328 0.36503
#
# Static dielectric constant tensor:
#      x y z
#    x 1.640200 0.000000 0.000000 
#    y 0.000000 1.665130 0.000000 
#    z 0.000000 0.000000 1.660980 
# 
# From -- ./inp_files/72637.got.cif
#   From: 2010.05.17/outbox.cif.g08.bks.cpg/sg65_37_cif.got.tgz:72637.got - 2010.06.03 17:01:31.
