data_PCOD9493909
_publ_section_title
;
Structure prediction by ZEFSAII (Michael W. Deem and Ramdas Pophale) SiO2 
 PCOD9493909
Probable space group: C M M M
;
_chemical_formula_sum "Si O2"
_cell_formula_units_Z 104
_cell_length_a 21.381485
_cell_length_b 7.943479
_cell_length_c 30.908585
_cell_angle_alpha 90.000000
_cell_angle_beta 90.000000
_cell_angle_gamma 90.000000
_cell_volume 5249.618457
_symmetry_space_group_name_H-M "C M M M"
_symmetry_group_IT_number 65
_symmetry_cell_setting 'orthorhombic'
loop_
_space_group_symop_operation_xyz
x,y,z
-x,-y,z
x,-y,-z
-x,y,-z
-x,-y,-z
x,y,-z
-x,y,z
x,-y,z
1/2+x,1/2+y,z
1/2-x,1/2-y,z
1/2+x,1/2-y,-z
1/2-x,1/2+y,-z
1/2-x,1/2-y,-z
1/2+x,1/2+y,-z
1/2-x,1/2+y,z
1/2+x,1/2-y,z
loop_
_atom_site_type_symbol
_atom_site_label
_atom_site_fract_x
_atom_site_fract_y
_atom_site_fract_z
Si Si1 0.819817 0.703269 0.549707
Si Si2 0.500000 0.190796 0.947592
Si Si3 0.571062 0.199017 0.388010
Si Si4 0.071953 0.793179 0.197687
Si Si5 0.864819 0.702614 0.048607
Si Si6 0.816764 0.199637 0.137366
Si Si7 0.075675 0.192295 0.706819
O O1 0.826563 0.762625 0.500000
O O2 0.822915 0.500000 0.549303
O O3 0.750000 0.750000 0.564797
O O4 0.876059 0.767872 0.579854
O O5 0.566492 0.272409 0.937774
O O6 0.500000 0.000000 0.929732
O O7 0.500000 0.178065 0.000000
O O8 0.500000 0.269317 0.392823
O O9 0.591774 0.220140 0.338113
O O10 0.566465 0.000000 0.396525
O O11 0.122977 0.733789 0.163250
O O12 0.092366 0.737465 0.246001
O O13 0.000000 0.741549 0.188784
O O14 0.071412 0.000000 0.198484
O O15 0.870861 0.500000 0.045921
O O16 0.819876 0.743356 0.087642
O O17 0.848617 0.762107 0.000000
O O18 0.750000 0.250000 0.156581
O O19 0.820914 0.000000 0.137998
O O20 0.000000 0.189314 0.708171
O O21 0.098153 0.000000 0.704130
#
# Coordination Sequence:
#
# PCOD9493909 Si02
#       7
#    16   8  16  16  16  16  16
#     4   9  18  32  48  66  93 132 172 207 246 292
#     4   7  12  26  49  75 101 127 153 189 237 283
#     4   9  17  29  47  73 102 127 157 203 252 294
#     4   8  16  33  56  78  98 126 165 205 245 292
#     4   9  18  34  55  77 103 134 166 200 242 293
#     4  11  23  37  54  75 104 135 166 206 249 294
#     4   8  14  28  51  75  98 126 161 199 243 297
#
# _framework density 19.810963000000001
#
# number of rings (size 3 to 8) (size 9 to 14) (size 15 to 20)
#    0.000    3.154    0.000    2.308    1.077    1.538 
#    0.000    3.846    0.000    6.923    0.000    4.308 
#    0.000    0.000    0.000    0.000    0.000    0.000 
#
# Total GULP energy -289588.752530 kJ/mol
# GULP energy per Si atom -5569.014472 kJ/mol
# Density = 1.976587 g / cm^3
# Si number density = 19.810963 Si / 1000 Ang^3
#
#
#
# Elastic Constant Matrix: (Units=GPa)
#
#
# Indices 1 2 3 4 5 6 
#
# 1 128.9994 7.3367 84.1664 0.0000 0.0000 0.0000
# 2 7.3367 17.9654 5.8406 0.0000 0.0000 0.0000
# 3 84.1664 5.8406 117.9632 0.0000 0.0000 0.0000
# 4 0.0000 0.0000 0.0000 5.7893 0.0000 0.0000
# 5 0.0000 0.0000 0.0000 0.0000 6.4706 0.0000
# 6 0.0000 0.0000 0.0000 0.0000 0.0000 10.1575
#
#
#
# Elastic Compliance Matrix: (Units=1/GPa)
#
#
# Indices 1 2 3 4 5 6 
#
# 1 0.014624 -0.002622 -0.010305 0.000000 0.000000 0.000000
# 2 -0.002622 0.057043 -0.000953 0.000000 0.000000 0.000000
# 3 -0.010305 -0.000953 0.015877 0.000000 0.000000 0.000000
# 4 0.000000 0.000000 0.000000 0.172733 0.000000 0.000000
# 5 0.000000 0.000000 0.000000 0.000000 0.154544 0.000000
# 6 0.000000 0.000000 0.000000 0.000000 0.000000 0.098449
#
#
# Mechanical properties :
#
#
# Convention : Reuss Voigt Hill
#
# Bulk Modulus (GPa) = 16.72692 51.06840 33.89766
# Shear Modulus (GPa) = 8.91330 15.65578 12.28454
#
# Velocity S-wave (km/s) = 2.12343 2.81420 2.49286
# Velocity P-wave (km/s) = 3.80441 6.03270 5.04316
#
# Compressibility (1/GPa) = 0.05978388
#
# Stress axis : x y z
#
# Youngs Moduli (GPa) = 68.37858 17.53057 62.98505
#
# Poissons Ratio (x) = 0.04597 0.64904
# Poissons Ratio (y) = 0.17930 0.06005
# Poissons Ratio (z) = 0.70462 0.01671
#
# Static dielectric constant tensor:
#      x y z
#    x 1.724480 0.000000 0.000000 
#    y 0.000000 1.729420 0.000000 
#    z 0.000000 0.000000 1.713900 
# 
# From -- ./inp_files/78256.got.cif
#   From: 2010.05.17/outbox.cif.g08.bks.cpg/sg65_40_cif.got.tgz:78256.got - 2010.06.03 17:01:31.
