data_PCOD9493938
_publ_section_title
;
Structure prediction by ZEFSAII (Michael W. Deem and Ramdas Pophale) SiO2 
 PCOD9493938
Probable space group: C M M M
;
_chemical_formula_sum "Si O2"
_cell_formula_units_Z 52
_cell_length_a 21.640679
_cell_length_b 7.578133
_cell_length_c 14.404769
_cell_angle_alpha 90.000000
_cell_angle_beta 90.000000
_cell_angle_gamma 90.000000
_cell_volume 2362.323686
_symmetry_space_group_name_H-M "C M M M"
_symmetry_group_IT_number 65
_symmetry_cell_setting 'orthorhombic'
loop_
_space_group_symop_operation_xyz
x,y,z
-x,-y,z
x,-y,-z
-x,y,-z
-x,-y,-z
x,y,-z
-x,y,z
x,-y,z
1/2+x,1/2+y,z
1/2-x,1/2-y,z
1/2+x,1/2-y,-z
1/2-x,1/2+y,-z
1/2-x,1/2-y,-z
1/2+x,1/2+y,-z
1/2-x,1/2+y,z
1/2+x,1/2-y,z
loop_
_atom_site_type_symbol
_atom_site_label
_atom_site_fract_x
_atom_site_fract_y
_atom_site_fract_z
Si Si1 0.097756 0.298874 0.890614
Si Si2 0.568827 0.284765 0.391585
Si Si3 0.819539 0.209813 0.736994
Si Si4 0.500000 0.500000 0.162827
O O1 0.075360 0.500000 0.881180
O O2 0.162800 0.284374 0.837669
O O3 0.100989 0.258261 0.000000
O O4 0.053394 0.154748 0.844573
O O5 0.575500 0.239109 0.500000
O O6 0.500000 0.227376 0.360674
O O7 0.567780 0.500000 0.385868
O O8 0.626894 0.221951 0.332330
O O9 0.750000 0.250000 0.707747
O O10 0.824771 0.000000 0.740161
#
# Coordination Sequence:
#
# PCOD9493938 Si02
#       4
#    16  16  16   4
#     4  11  24  41  64  96 132 169 213 264 317 377
#     4   8  16  33  59  90 121 159 210 265 325 387
#     4  11  23  38  61  89 127 172 219 267 322 382
#     4  12  23  42  68  98 131 168 213 262 320 382
#
# _framework density 22.012224
#
# number of rings (size 3 to 8) (size 9 to 14) (size 15 to 20)
#    0.000    1.846    1.538    3.692    2.154    2.462 
#    0.000    0.000    0.000    2.769    0.000    8.615 
#    0.000    0.000    0.000    0.000    0.000    0.000 
#
# Total GULP energy -144799.382759 kJ/mol
# GULP energy per Si atom -5569.207029 kJ/mol
# Density = 2.196212 g / cm^3
# Si number density = 22.012224 Si / 1000 Ang^3
#
#
#
# Elastic Constant Matrix: (Units=GPa)
#
#
# Indices 1 2 3 4 5 6 
#
# 1 186.5906 25.1304 65.7392 0.0000 0.0000 0.0000
# 2 25.1304 94.9985 18.0488 0.0000 0.0000 0.0000
# 3 65.7392 18.0488 69.8296 0.0000 0.0000 0.0000
# 4 0.0000 0.0000 0.0000 -21.7913 0.0000 0.0000
# 5 0.0000 0.0000 0.0000 0.0000 104.8326 0.0000
# 6 0.0000 0.0000 0.0000 0.0000 0.0000 26.4221
#
#
#
# Elastic Compliance Matrix: (Units=1/GPa)
#
#
# Indices 1 2 3 4 5 6 
#
# 1 0.008067 -0.000727 -0.007406 0.000000 0.000000 0.000000
# 2 -0.000727 0.011136 -0.002194 0.000000 0.000000 0.000000
# 3 -0.007406 -0.002194 0.021860 0.000000 0.000000 0.000000
# 4 0.000000 0.000000 0.000000 -0.045890 0.000000 0.000000
# 5 0.000000 0.000000 0.000000 0.000000 0.009539 0.000000
# 6 0.000000 0.000000 0.000000 0.000000 0.000000 0.037847
#
#
# Mechanical properties :
#
#
# Convention : Reuss Voigt Hill
#
# Bulk Modulus (GPa) = 48.99990 63.25062 56.12526
# Shear Modulus (GPa) = 71.41310 38.05935 54.73623
#
# Velocity S-wave (km/s) = 5.70201 4.16265 4.99202
# Velocity P-wave (km/s) = 8.10303 7.20418 7.66679
#
# Compressibility (1/GPa) = 0.02040821
#
# Stress axis : x y z
#
# Youngs Moduli (GPa) = 123.96885 89.80229 45.74566
#
# Poissons Ratio (x) = 0.06527 0.33880
# Poissons Ratio (y) = 0.09010 0.10037
# Poissons Ratio (z) = 0.91814 0.19703
#
# Static dielectric constant tensor:
#      x y z
#    x 1.818010 0.000000 0.000000 
#    y 0.000000 1.816400 0.000000 
#    z 0.000000 0.000000 1.848360 
# 
# From -- ./inp_files/43450.got.cif
#   From: 2010.05.17/outbox.cif.g08.bks.cpg/sg65_22_cif.got.tgz:43450.got - 2010.06.03 17:01:31.
