data_PCOD9493779
_publ_section_title
;
Structure prediction by ZEFSAII (Michael W. Deem and Ramdas Pophale) SiO2 
 PCOD9493779
Probable space group: C M M M
;
_chemical_formula_sum "Si O2"
_cell_formula_units_Z 72
_cell_length_a 7.660950
_cell_length_b 15.440604
_cell_length_c 26.920972
_cell_angle_alpha 90.000000
_cell_angle_beta 90.000000
_cell_angle_gamma 90.000000
_cell_volume 3184.473573
_symmetry_space_group_name_H-M "C M M M"
_symmetry_group_IT_number 65
_symmetry_cell_setting 'orthorhombic'
loop_
_space_group_symop_operation_xyz
x,y,z
-x,-y,z
x,-y,-z
-x,y,-z
-x,-y,-z
x,y,-z
-x,y,z
x,-y,z
1/2+x,1/2+y,z
1/2-x,1/2-y,z
1/2+x,1/2-y,-z
1/2-x,1/2+y,-z
1/2-x,1/2-y,-z
1/2+x,1/2+y,-z
1/2-x,1/2+y,z
1/2+x,1/2-y,z
loop_
_atom_site_type_symbol
_atom_site_label
_atom_site_fract_x
_atom_site_fract_y
_atom_site_fract_z
Si Si1 0.790267 0.104715 0.659686
Si Si2 0.294637 0.000000 0.055298
Si Si3 0.287764 0.397294 0.766605
Si Si4 0.204997 0.156218 0.127239
Si Si5 0.788864 0.104139 0.553240
O O1 0.722378 0.136517 0.713075
O O2 0.721539 0.137689 0.606474
O O3 0.000000 0.117804 0.659165
O O4 0.764610 0.000000 0.660203
O O5 0.251694 0.917255 0.088512
O O6 0.500000 0.000000 0.049432
O O7 0.214537 0.000000 0.000000
O O8 0.500000 0.389808 0.765091
O O9 0.250268 0.500000 0.770032
O O10 0.217795 0.355765 0.817246
O O11 0.250000 0.250000 0.107354
O O12 0.000000 0.149925 0.134286
O O13 0.722813 0.138267 0.500000
O O14 0.000000 0.114051 0.553279
O O15 0.757257 0.000000 0.553206
#
# Coordination Sequence:
#
# PCOD9493779 Si02
#       5
#    16   8  16  16  16
#     4   7   9  13  24  44  72 109 155 204 253 309
#     4  11  25  45  67  91 119 151 188 229 274 326
#     4   8  13  24  43  67  95 130 173 219 269 323
#     4  11  22  38  61  89 120 154 192 234 279 331
#     4   7   8   9  14  29  59 101 147 194 246 303
#
# _framework density 22.609701000000001
#
# number of rings (size 3 to 8) (size 9 to 14) (size 15 to 20)
#    0.000    3.444    1.111    4.333    0.000    1.333 
#    0.000    0.000    0.000    0.000    0.000    0.000 
#    0.000    0.889    0.000    0.667    0.000    7.778 
#
# Total GULP energy -200607.383991 kJ/mol
# GULP energy per Si atom -5572.427333 kJ/mol
# Density = 2.255824 g / cm^3
# Si number density = 22.609701 Si / 1000 Ang^3
#
#
#
# Elastic Constant Matrix: (Units=GPa)
#
#
# Indices 1 2 3 4 5 6 
#
# 1 46.4716 1.4043 20.3374 0.0000 0.0000 0.0000
# 2 1.4043 83.7546 77.4617 0.0000 0.0000 0.0000
# 3 20.3374 77.4617 246.0100 0.0000 0.0000 0.0000
# 4 0.0000 0.0000 0.0000 -26.9602 0.0000 0.0000
# 5 0.0000 0.0000 0.0000 0.0000 37.1220 0.0000
# 6 0.0000 0.0000 0.0000 0.0000 0.0000 5.8440
#
#
#
# Elastic Compliance Matrix: (Units=1/GPa)
#
#
# Indices 1 2 3 4 5 6 
#
# 1 0.022538 0.001898 -0.002461 0.000000 0.000000 0.000000
# 2 0.001898 0.017005 -0.005511 0.000000 0.000000 0.000000
# 3 -0.002461 -0.005511 0.006004 0.000000 0.000000 0.000000
# 4 0.000000 0.000000 0.000000 -0.037092 0.000000 0.000000
# 5 0.000000 0.000000 0.000000 0.000000 0.026938 0.000000
# 6 0.000000 0.000000 0.000000 0.000000 0.000000 0.171117
#
#
# Mechanical properties :
#
#
# Convention : Reuss Voigt Hill
#
# Bulk Modulus (GPa) = 29.94137 63.84923 46.89530
# Shear Modulus (GPa) = 21.75889 21.67001 21.71445
#
# Velocity S-wave (km/s) = 3.10557 3.09922 3.10240
# Velocity P-wave (km/s) = 5.11184 6.41155 5.79823
#
# Compressibility (1/GPa) = 0.03339860
#
# Stress axis : x y z
#
# Youngs Moduli (GPa) = 44.36931 58.80603 166.56460
#
# Poissons Ratio (x) = -0.11162 0.40989
# Poissons Ratio (y) = -0.08422 0.91799
# Poissons Ratio (z) = 0.10919 0.32410
#
# Static dielectric constant tensor:
#      x y z
#    x 1.832780 0.000000 0.000000 
#    y 0.000000 1.807600 0.000000 
#    z 0.000000 0.000000 1.964980 
# 
# From -- ./inp_files/72530.got.cif
#   From: 2010.05.17/outbox.cif.g08.bks.cpg/sg65_37_cif.got.tgz:72530.got - 2010.06.03 17:01:31.
