data_PCOD9493370
_publ_section_title
;
Structure prediction by ZEFSAII (Michael W. Deem and Ramdas Pophale) SiO2 
 PCOD9493370
Probable space group: C M M M
;
_chemical_formula_sum "Si O2"
_cell_formula_units_Z 88
_cell_length_a 24.839178
_cell_length_b 28.795217
_cell_length_c 9.096861
_cell_angle_alpha 90.000000
_cell_angle_beta 90.000000
_cell_angle_gamma 90.000000
_cell_volume 6506.525469
_symmetry_space_group_name_H-M "C M M M"
_symmetry_group_IT_number 65
_symmetry_cell_setting 'orthorhombic'
loop_
_space_group_symop_operation_xyz
x,y,z
-x,-y,z
x,-y,-z
-x,y,-z
-x,-y,-z
x,y,-z
-x,y,z
x,-y,z
1/2+x,1/2+y,z
1/2-x,1/2-y,z
1/2+x,1/2-y,-z
1/2-x,1/2+y,-z
1/2-x,1/2-y,-z
1/2+x,1/2+y,-z
1/2-x,1/2+y,z
1/2+x,1/2-y,z
loop_
_atom_site_type_symbol
_atom_site_label
_atom_site_fract_x
_atom_site_fract_y
_atom_site_fract_z
Si Si1 0.647813 0.685706 0.331235
Si Si2 0.394093 0.597260 0.823999
Si Si3 0.269110 0.143068 0.668302
Si Si4 0.788944 0.946281 0.323464
Si Si5 0.500000 0.555733 0.326304
Si Si6 0.810664 0.271667 0.831350
O O1 0.629252 0.685847 0.500000
O O2 0.614200 0.649978 0.232751
O O3 0.708793 0.665074 0.331161
O O4 0.653155 0.737007 0.264672
O O5 0.342659 0.568810 0.762163
O O6 0.447314 0.575991 0.752046
O O7 0.395658 0.595355 0.000000
O O8 0.288365 0.144075 0.500000
O O9 0.258188 0.090142 0.715970
O O10 0.304941 0.176729 0.766886
O O11 0.798648 0.940447 0.500000
O O12 0.776340 0.000000 0.296256
O O13 0.500000 0.500000 0.313211
O O14 0.500000 0.567248 0.500000
O O15 0.750000 0.250000 0.827550
O O16 0.828142 0.271822 0.000000
#
# Coordination Sequence:
#
# PCOD9493370 Si02
#       6
#    16  16  16  16   8  16
#     4   9  16  27  41  54  70  92 115 139 173 219
#     4  11  21  31  43  59  75  89 113 152 194 230
#     4   8  14  23  35  51  70  93 119 144 172 210
#     4   9  17  29  42  54  71  97 126 153 183 221
#     4  11  23  37  49  57  69  93 123 153 188 231
#     4   9  15  22  34  53  74  92 111 139 175 211
#
# _framework density 13.524884
#
# number of rings (size 3 to 8) (size 9 to 14) (size 15 to 20)
#    0.000    2.636    0.000    4.636    0.000    9.818 
#    0.000    0.000    0.000    0.000    0.000    0.000 
#    0.000    0.000    0.000    0.000    0.000    0.000 
#
# Total GULP energy -245081.092279 kJ/mol
# GULP energy per Si atom -5570.024825 kJ/mol
# Density = 1.349410 g / cm^3
# Si number density = 13.524884 Si / 1000 Ang^3
#
#
#
# Elastic Constant Matrix: (Units=GPa)
#
#
# Indices 1 2 3 4 5 6 
#
# 1 15.2955 29.3729 20.9987 0.0000 0.0000 0.0000
# 2 29.3729 120.4114 58.5629 0.0000 0.0000 0.0000
# 3 20.9987 58.5629 91.2654 0.0000 0.0000 0.0000
# 4 0.0000 0.0000 0.0000 10.2420 0.0000 0.0000
# 5 0.0000 0.0000 0.0000 0.0000 12.2141 0.0000
# 6 0.0000 0.0000 0.0000 0.0000 0.0000 16.3310
#
#
#
# Elastic Compliance Matrix: (Units=1/GPa)
#
#
# Indices 1 2 3 4 5 6 
#
# 1 0.134905 -0.025893 -0.014425 0.000000 0.000000 0.000000
# 2 -0.025893 0.017042 -0.004978 0.000000 0.000000 0.000000
# 3 -0.014425 -0.004978 0.017470 0.000000 0.000000 0.000000
# 4 0.000000 0.000000 0.000000 0.097637 0.000000 0.000000
# 5 0.000000 0.000000 0.000000 0.000000 0.081873 0.000000
# 6 0.000000 0.000000 0.000000 0.000000 0.000000 0.061233
#
#
# Mechanical properties :
#
#
# Convention : Reuss Voigt Hill
#
# Bulk Modulus (GPa) = 12.68611 49.42680 31.05646
# Shear Modulus (GPa) = 9.48717 15.62661 12.55689
#
# Velocity S-wave (km/s) = 2.65138 3.40280 3.05032
# Velocity P-wave (km/s) = 4.33282 7.21548 5.95132
#
# Compressibility (1/GPa) = 0.07882637
#
# Stress axis : x y z
#
# Youngs Moduli (GPa) = 7.41263 58.67774 57.24023
#
# Poissons Ratio (x) = 1.51934 0.82566
# Poissons Ratio (y) = 0.19193 0.28495
# Poissons Ratio (z) = 0.10692 0.29210
#
# Static dielectric constant tensor:
#      x y z
#    x 1.408750 0.000000 0.000000 
#    y 0.000000 1.466360 0.000000 
#    z 0.000000 0.000000 1.453740 
# 
# From -- ./inp_files/10144.got.cif
#   From: 2010.05.17/outbox.cif.g08.bks.cpg/sg65_6_cif.got.tgz:10144.got - 2010.06.03 17:01:31.
