data_PCOD9493402
_publ_section_title
;
Structure prediction by ZEFSAII (Michael W. Deem and Ramdas Pophale) SiO2 
 PCOD9493402
Probable space group: C M M M
;
_chemical_formula_sum "Si O2"
_cell_formula_units_Z 72
_cell_length_a 15.131541
_cell_length_b 8.940733
_cell_length_c 24.868925
_cell_angle_alpha 90.000000
_cell_angle_beta 90.000000
_cell_angle_gamma 90.000000
_cell_volume 3364.443947
_symmetry_space_group_name_H-M "C M M M"
_symmetry_group_IT_number 65
_symmetry_cell_setting 'orthorhombic'
loop_
_space_group_symop_operation_xyz
x,y,z
-x,-y,z
x,-y,-z
-x,y,-z
-x,-y,-z
x,y,-z
-x,y,z
x,-y,z
1/2+x,1/2+y,z
1/2-x,1/2-y,z
1/2+x,1/2-y,-z
1/2-x,1/2+y,-z
1/2-x,1/2-y,-z
1/2+x,1/2+y,-z
1/2-x,1/2+y,z
1/2+x,1/2-y,z
loop_
_atom_site_type_symbol
_atom_site_label
_atom_site_fract_x
_atom_site_fract_y
_atom_site_fract_z
Si Si1 0.847016 0.177540 0.334871
Si Si2 0.348769 0.179213 0.559115
Si Si3 0.394064 0.178275 0.109325
Si Si4 0.104920 0.669139 0.226051
Si Si5 0.891875 0.173349 0.000000
O O1 0.750000 0.250000 0.334512
O O2 0.891802 0.248966 0.387940
O O3 0.883391 0.226841 0.277314
O O4 0.844576 0.000000 0.340282
O O5 0.388998 0.208593 0.500000
O O6 0.250000 0.250000 0.556731
O O7 0.342754 0.000000 0.565785
O O8 0.500000 0.206784 0.108559
O O9 0.360446 0.227048 0.168347
O O10 0.359026 0.252657 0.055200
O O11 0.381700 0.000000 0.106729
O O12 0.140287 0.500000 0.236602
O O13 0.000000 0.653757 0.218763
O O14 0.000000 0.187072 0.000000
O O15 0.869775 0.000000 0.000000
#
# Coordination Sequence:
#
# PCOD9493402 Si02
#       5
#    16  16  16  16   8
#     4  11  21  32  49  72  99 128 159 196 235 279
#     4   9  16  27  45  68  93 120 152 192 236 279
#     4   8  14  25  41  60  84 117 153 187 227 276
#     4   9  18  33  51  70  95 127 161 197 238 284
#     4   9  15  21  33  57  88 117 146 187 232 269
#
# _framework density 21.400266999999999
#
# number of rings (size 3 to 8) (size 9 to 14) (size 15 to 20)
#    0.000    2.778    0.000    5.667    0.000    4.000 
#    0.000    2.222    0.000    0.667    0.000    5.444 
#    0.000    0.000    0.000    0.000    0.000    0.000 
#
# Total GULP energy -200643.422684 kJ/mol
# GULP energy per Si atom -5573.428408 kJ/mol
# Density = 2.135156 g / cm^3
# Si number density = 21.400267 Si / 1000 Ang^3
#
#
#
# Elastic Constant Matrix: (Units=GPa)
#
#
# Indices 1 2 3 4 5 6 
#
# 1 34.1081 10.8195 17.1693 0.0000 0.0000 0.0000
# 2 10.8195 93.9424 98.4379 0.0000 0.0000 0.0000
# 3 17.1693 98.4379 263.1887 0.0000 0.0000 0.0000
# 4 0.0000 0.0000 0.0000 -18.2990 0.0000 0.0000
# 5 0.0000 0.0000 0.0000 0.0000 -2.1706 0.0000
# 6 0.0000 0.0000 0.0000 0.0000 0.0000 7.8332
#
#
#
# Elastic Compliance Matrix: (Units=1/GPa)
#
#
# Indices 1 2 3 4 5 6 
#
# 1 0.030628 -0.002358 -0.001116 0.000000 0.000000 0.000000
# 2 -0.002358 0.017687 -0.006462 0.000000 0.000000 0.000000
# 3 -0.001116 -0.006462 0.006289 0.000000 0.000000 0.000000
# 4 0.000000 0.000000 0.000000 -0.054648 0.000000 0.000000
# 5 0.000000 0.000000 0.000000 0.000000 -0.460696 0.000000
# 6 0.000000 0.000000 0.000000 0.000000 0.000000 0.127662
#
#
# Mechanical properties :
#
#
# Convention : Reuss Voigt Hill
#
# Bulk Modulus (GPa) = 28.79079 71.56585 50.17832
# Shear Modulus (GPa) = -16.57671 15.12687 -0.72492
#
# Velocity S-wave (km/s) = -2.78619 2.66156 -0.58265
# Velocity P-wave (km/s) = 1.76981 6.55434 4.80060
#
# Compressibility (1/GPa) = 0.03473333
#
# Stress axis : x y z
#
# Youngs Moduli (GPa) = 32.64947 56.53827 159.00506
#
# Poissons Ratio (x) = 0.13332 0.17747
# Poissons Ratio (y) = 0.07699 1.02741
# Poissons Ratio (z) = 0.03644 0.36532
#
# Static dielectric constant tensor:
#      x y z
#    x 1.867830 0.000000 0.000000 
#    y 0.000000 1.721560 0.000000 
#    z 0.000000 0.000000 1.878300 
# 
# From -- ./inp_files/64290.got.cif
#   From: 2010.05.17/outbox.cif.g08.bks.cpg/sg65_33_cif.got.tgz:64290.got - 2010.06.03 17:01:31.
