data_PCOD9493791
_publ_section_title
;
Structure prediction by ZEFSAII (Michael W. Deem and Ramdas Pophale) SiO2 
 PCOD9493791
Probable space group: C M M M
;
_chemical_formula_sum "Si O2"
_cell_formula_units_Z 52
_cell_length_a 29.757292
_cell_length_b 11.784058
_cell_length_c 7.768536
_cell_angle_alpha 90.000000
_cell_angle_beta 90.000000
_cell_angle_gamma 90.000000
_cell_volume 2724.127690
_symmetry_space_group_name_H-M "C M M M"
_symmetry_group_IT_number 65
_symmetry_cell_setting 'orthorhombic'
loop_
_space_group_symop_operation_xyz
x,y,z
-x,-y,z
x,-y,-z
-x,y,-z
-x,-y,-z
x,y,-z
-x,y,z
x,-y,z
1/2+x,1/2+y,z
1/2-x,1/2-y,z
1/2+x,1/2-y,-z
1/2-x,1/2+y,-z
1/2-x,1/2-y,-z
1/2+x,1/2+y,-z
1/2-x,1/2+y,z
1/2+x,1/2-y,z
loop_
_atom_site_type_symbol
_atom_site_label
_atom_site_fract_x
_atom_site_fract_y
_atom_site_fract_z
Si Si1 0.653840 0.000000 0.000000
Si Si2 0.641725 0.365076 0.697660
Si Si3 0.549632 0.244450 0.792495
Si Si4 0.082085 0.500000 0.695675
Si Si5 0.303469 0.755229 0.000000
O O1 0.622101 0.000000 0.832873
O O2 0.682176 0.113947 0.000000
O O3 0.655396 0.343850 0.500000
O O4 0.641478 0.500000 0.728208
O O5 0.591509 0.315803 0.723224
O O6 0.674190 0.304424 0.833760
O O7 0.500000 0.287666 0.744734
O O8 0.554747 0.115134 0.728826
O O9 0.553011 0.243382 0.000000
O O10 0.098572 0.500000 0.500000
O O11 0.250000 0.750000 0.000000
#
# Coordination Sequence:
#
# PCOD9493791 Si02
#       5
#     4  16  16   8   8
#     4  12  24  44  65 104 124 164 211 268 324 384
#     4  11  24  44  68  95 131 174 217 265 319 379
#     4  11  22  38  62  94 132 174 219 264 313 375
#     4  12  21  37  63  90 132 176 212 261 322 374
#     4  12  27  46  73  96 129 164 211 271 332 388
#
# _framework density 19.088678999999999
#
# number of rings (size 3 to 8) (size 9 to 14) (size 15 to 20)
#    0.000    0.615    6.154    1.846    2.154    5.538 
#    0.000    3.077    0.000    0.000    0.000    0.000 
#    0.000    0.000    0.000    0.000    0.000    0.000 
#
# Total GULP energy -145413.681194 kJ/mol
# GULP energy per Si atom -5592.833892 kJ/mol
# Density = 1.904523 g / cm^3
# Si number density = 19.088679 Si / 1000 Ang^3
#
#
#
# Elastic Constant Matrix: (Units=GPa)
#
#
# Indices 1 2 3 4 5 6 
#
# 1 170.8760 69.9866 76.4690 0.0000 0.0000 0.0000
# 2 69.9866 126.8151 68.8337 0.0000 0.0000 0.0000
# 3 76.4690 68.8337 144.3363 0.0000 0.0000 0.0000
# 4 0.0000 0.0000 0.0000 25.7326 0.0000 0.0000
# 5 0.0000 0.0000 0.0000 0.0000 -3.4203 0.0000
# 6 0.0000 0.0000 0.0000 0.0000 0.0000 51.8717
#
#
#
# Elastic Compliance Matrix: (Units=1/GPa)
#
#
# Indices 1 2 3 4 5 6 
#
# 1 0.008445 -0.003012 -0.003038 0.000000 0.000000 0.000000
# 2 -0.003012 0.011714 -0.003991 0.000000 0.000000 0.000000
# 3 -0.003038 -0.003991 0.010441 0.000000 0.000000 0.000000
# 4 0.000000 0.000000 0.000000 0.038861 0.000000 0.000000
# 5 0.000000 0.000000 0.000000 0.000000 -0.292376 0.000000
# 6 0.000000 0.000000 0.000000 0.000000 0.000000 0.019278
#
#
# Mechanical properties :
#
#
# Convention : Reuss Voigt Hill
#
# Bulk Modulus (GPa) = 95.06490 96.95622 96.01056
# Shear Modulus (GPa) = -27.77021 29.95270 1.09125
#
# Velocity S-wave (km/s) = -3.81832 3.96553 0.75691
# Velocity P-wave (km/s) = 5.52000 8.47762 7.15333
#
# Compressibility (1/GPa) = 0.01051913
#
# Stress axis : x y z
#
# Youngs Moduli (GPa) = 118.40934 85.37019 95.77744
#
# Poissons Ratio (x) = 0.25712 0.29097
# Poissons Ratio (y) = 0.35663 0.38221
# Poissons Ratio (z) = 0.35972 0.34068
#
# Static dielectric constant tensor:
#      x y z
#    x 1.641920 0.000000 0.000000 
#    y 0.000000 1.659040 0.000000 
#    z 0.000000 0.000000 1.668640 
# 
# From -- ./inp_files/15359.got.cif
#   From: 2010.05.17/outbox.cif.g08.bks.cpg/sg65_8_cif.got.tgz:15359.got - 2010.06.03 17:01:31.
