data_PCOD9493233
_publ_section_title
;
Structure prediction by ZEFSAII (Michael W. Deem and Ramdas Pophale) SiO2 
 PCOD9493233
Probable space group: C M M M
;
_chemical_formula_sum "Si O2"
_cell_formula_units_Z 88
_cell_length_a 23.078333
_cell_length_b 9.563896
_cell_length_c 21.524280
_cell_angle_alpha 90.000000
_cell_angle_beta 90.000000
_cell_angle_gamma 90.000000
_cell_volume 4750.812750
_symmetry_space_group_name_H-M "C M M M"
_symmetry_group_IT_number 65
_symmetry_cell_setting 'orthorhombic'
loop_
_space_group_symop_operation_xyz
x,y,z
-x,-y,z
x,-y,-z
-x,y,-z
-x,-y,-z
x,y,-z
-x,y,z
x,-y,z
1/2+x,1/2+y,z
1/2-x,1/2-y,z
1/2+x,1/2-y,-z
1/2-x,1/2+y,-z
1/2-x,1/2-y,-z
1/2+x,1/2+y,-z
1/2-x,1/2+y,z
1/2+x,1/2-y,z
loop_
_atom_site_type_symbol
_atom_site_label
_atom_site_fract_x
_atom_site_fract_y
_atom_site_fract_z
Si Si1 0.820570 0.500000 0.423442
Si Si2 0.500000 0.670151 0.156466
Si Si3 0.000000 0.168367 0.693271
Si Si4 0.883482 0.669288 0.125028
Si Si5 0.375588 0.263458 0.356859
Si Si6 0.689749 0.331741 0.770887
Si Si7 0.190542 0.663189 0.000000
Si Si8 0.685776 0.500000 0.427695
O O1 0.824897 0.500000 0.500000
O O2 0.852372 0.625848 0.389168
O O3 0.752281 0.500000 0.404026
O O4 0.500000 0.500000 0.146630
O O5 0.500000 0.692205 0.231853
O O6 0.555454 0.749547 0.127835
O O7 0.942844 0.230262 0.661099
O O8 0.000000 0.000000 0.685054
O O9 0.889220 0.500000 0.136202
O O10 0.846189 0.750405 0.176660
O O11 0.849104 0.687868 0.060489
O O12 0.343127 0.306411 0.293551
O O13 0.353156 0.373753 0.406178
O O14 0.695026 0.500000 0.782019
O O15 0.750000 0.250000 0.767318
O O16 0.250000 0.750000 0.000000
O O17 0.207049 0.500000 0.000000
O O18 0.693532 0.500000 0.500000
#
# Coordination Sequence:
#
# PCOD9493233 Si02
#       8
#     8   8   8  16  16  16   8   8
#     4  11  26  45  65  97 137 169 215 280 337 407
#     4  11  23  42  66  96 137 179 225 279 336 397
#     4  11  22  44  66  92 131 172 218 277 328 391
#     4  11  24  43  67  98 134 178 227 275 336 398
#     4  12  24  41  67  96 128 174 221 273 336 396
#     4  12  24  39  63  98 134 168 221 282 338 400
#     4  10  24  45  68  97 137 180 222 274 335 402
#     4  11  22  43  69  95 129 175 219 266 335 407
#
# _framework density 18.523147000000002
#
# number of rings (size 3 to 8) (size 9 to 14) (size 15 to 20)
#    0.000    0.727    3.636    4.091    2.545    5.091 
#    1.636    4.545    0.000    0.000    0.000    0.000 
#    0.000    0.000    0.000    0.000    0.000    0.000 
#
# Total GULP energy -245495.129139 kJ/mol
# GULP energy per Si atom -5579.434753 kJ/mol
# Density = 1.848099 g / cm^3
# Si number density = 18.523147 Si / 1000 Ang^3
#
#
#
# Elastic Constant Matrix: (Units=GPa)
#
#
# Indices 1 2 3 4 5 6 
#
# 1 171.8728 55.5674 26.6460 0.0000 0.0000 0.0000
# 2 55.5674 147.1335 25.6983 0.0000 0.0000 0.0000
# 3 26.6460 25.6983 51.4911 0.0000 0.0000 0.0000
# 4 0.0000 0.0000 0.0000 33.4387 0.0000 0.0000
# 5 0.0000 0.0000 0.0000 0.0000 32.9494 0.0000
# 6 0.0000 0.0000 0.0000 0.0000 0.0000 75.4390
#
#
#
# Elastic Compliance Matrix: (Units=1/GPa)
#
#
# Indices 1 2 3 4 5 6 
#
# 1 0.006907 -0.002174 -0.002489 0.000000 0.000000 0.000000
# 2 -0.002174 0.008130 -0.002933 0.000000 0.000000 0.000000
# 3 -0.002489 -0.002933 0.022173 0.000000 0.000000 0.000000
# 4 0.000000 0.000000 0.000000 0.029905 0.000000 0.000000
# 5 0.000000 0.000000 0.000000 0.000000 0.030350 0.000000
# 6 0.000000 0.000000 0.000000 0.000000 0.000000 0.013256
#
#
# Mechanical properties :
#
#
# Convention : Reuss Voigt Hill
#
# Bulk Modulus (GPa) = 45.41739 65.14676 55.28207
# Shear Modulus (GPa) = 37.52328 45.87115 41.69721
#
# Velocity S-wave (km/s) = 4.50572 4.98177 4.74971
# Velocity P-wave (km/s) = 7.18618 8.26665 7.74528
#
# Compressibility (1/GPa) = 0.02201800
#
# Stress axis : x y z
#
# Youngs Moduli (GPa) = 144.78114 123.00603 45.10068
#
# Poissons Ratio (x) = 0.26738 0.11227
# Poissons Ratio (y) = 0.31472 0.13226
# Poissons Ratio (z) = 0.36042 0.36072
#
# Static dielectric constant tensor:
#      x y z
#    x 1.649580 0.000000 0.000000 
#    y 0.000000 1.330360 0.000000 
#    z 0.000000 0.000000 1.613580 
# 
# From -- ./inp_files/65287.got.cif
#   From: 2010.05.17/outbox.cif.g08.bks.cpg/sg65_33_cif.got.tgz:65287.got - 2010.06.03 17:01:31.
