data_PCOD9493894
_publ_section_title
;
Structure prediction by ZEFSAII (Michael W. Deem and Ramdas Pophale) SiO2 
 PCOD9493894
Probable space group: C M M M
;
_chemical_formula_sum "Si O2"
_cell_formula_units_Z 56
_cell_length_a 7.767858
_cell_length_b 22.285794
_cell_length_c 14.319956
_cell_angle_alpha 90.000000
_cell_angle_beta 90.000000
_cell_angle_gamma 90.000000
_cell_volume 2478.968871
_symmetry_space_group_name_H-M "C M M M"
_symmetry_group_IT_number 65
_symmetry_cell_setting 'orthorhombic'
loop_
_space_group_symop_operation_xyz
x,y,z
-x,-y,z
x,-y,-z
-x,y,-z
-x,-y,-z
x,y,-z
-x,y,z
x,-y,z
1/2+x,1/2+y,z
1/2-x,1/2-y,z
1/2+x,1/2-y,-z
1/2-x,1/2+y,-z
1/2-x,1/2-y,-z
1/2+x,1/2+y,-z
1/2-x,1/2+y,z
1/2+x,1/2-y,z
loop_
_atom_site_type_symbol
_atom_site_label
_atom_site_fract_x
_atom_site_fract_y
_atom_site_fract_z
Si Si1 0.698537 0.000000 0.385997
Si Si2 0.797769 0.815548 0.792134
Si Si3 0.290374 0.565371 0.109968
Si Si4 0.292263 0.869658 0.605656
O O1 0.776803 0.935416 0.361992
O O2 0.500000 0.000000 0.354270
O O3 0.695013 0.000000 0.500000
O O4 0.750000 0.750000 0.828570
O O5 0.720973 0.874822 0.840968
O O6 0.755018 0.821707 0.682854
O O7 0.000000 0.820158 0.803444
O O8 0.500000 0.565153 0.116715
O O9 0.231450 0.500000 0.146870
O O10 0.249423 0.568001 0.000000
O O11 0.232691 0.857321 0.500000
O O12 0.500000 0.874319 0.602192
#
# Coordination Sequence:
#
# PCOD9493894 Si02
#       4
#     8  16  16  16
#     4   7  12  26  49  75 100 131 172 216 267 321
#     4  11  23  36  54  81 113 147 185 227 274 324
#     4   8  16  34  59  84 109 139 177 222 274 330
#     4   9  18  34  55  78 108 147 187 225 270 325
#
# _framework density 22.590039000000001
#
# number of rings (size 3 to 8) (size 9 to 14) (size 15 to 20)
#    0.000    3.000    0.000    3.429    2.000    1.714 
#    0.000    0.000    0.000    5.143    0.000    8.000 
#    0.000    0.000    0.000    0.000    0.000    0.000 
#
# Total GULP energy -156206.097490 kJ/mol
# GULP energy per Si atom -5578.789196 kJ/mol
# Density = 2.253862 g / cm^3
# Si number density = 22.590039 Si / 1000 Ang^3
#
#
#
# Elastic Constant Matrix: (Units=GPa)
#
#
# Indices 1 2 3 4 5 6 
#
# 1 36.7282 15.6073 0.9376 0.0000 0.0000 0.0000
# 2 15.6073 194.5944 75.5504 0.0000 0.0000 0.0000
# 3 0.9376 75.5504 58.3434 0.0000 0.0000 0.0000
# 4 0.0000 0.0000 0.0000 27.5007 0.0000 0.0000
# 5 0.0000 0.0000 0.0000 0.0000 -41.0856 0.0000
# 6 0.0000 0.0000 0.0000 0.0000 0.0000 0.3792
#
#
#
# Elastic Compliance Matrix: (Units=1/GPa)
#
#
# Indices 1 2 3 4 5 6 
#
# 1 0.028925 -0.004302 0.005107 0.000000 0.000000 0.000000
# 2 -0.004302 0.010975 -0.014142 0.000000 0.000000 0.000000
# 3 0.005107 -0.014142 0.035371 0.000000 0.000000 0.000000
# 4 0.000000 0.000000 0.000000 0.036363 0.000000 0.000000
# 5 0.000000 0.000000 0.000000 0.000000 -0.024339 0.000000
# 6 0.000000 0.000000 0.000000 0.000000 0.000000 2.637363
#
#
# Mechanical properties :
#
#
# Convention : Reuss Voigt Hill
#
# Bulk Modulus (GPa) = 20.57855 52.65073 36.61464
# Shear Modulus (GPa) = 1.80666 10.53023 6.16845
#
# Velocity S-wave (km/s) = 0.89526 2.16138 1.65425
# Velocity P-wave (km/s) = 3.19343 5.43934 4.46007
#
# Compressibility (1/GPa) = 0.04859428
#
# Stress axis : x y z
#
# Youngs Moduli (GPa) = 34.57220 91.11952 28.27185
#
# Poissons Ratio (x) = 0.39204 -0.14437
# Poissons Ratio (y) = 0.14875 0.39982
# Poissons Ratio (z) = -0.17655 1.28863
#
# Static dielectric constant tensor:
#      x y z
#    x 1.825760 0.000000 0.000000 
#    y 0.000000 1.925650 0.000000 
#    z 0.000000 0.000000 1.847020 
# 
# From -- ./inp_files/35481.got.cif
#   From: 2010.05.17/outbox.cif.g08.bks.cpg/sg65_18_cif.got.tgz:35481.got - 2010.06.03 17:01:31.
