data_PCOD9493199
_publ_section_title
;
Structure prediction by ZEFSAII (Michael W. Deem and Ramdas Pophale) SiO2 
 PCOD9493199
Probable space group: C M M M
;
_chemical_formula_sum "Si O2"
_cell_formula_units_Z 90
_cell_length_a 18.726076
_cell_length_b 22.309391
_cell_length_c 11.486729
_cell_angle_alpha 90.000000
_cell_angle_beta 90.000000
_cell_angle_gamma 90.000000
_cell_volume 4798.780350
_symmetry_space_group_name_H-M "C M M M"
_symmetry_group_IT_number 65
_symmetry_cell_setting 'orthorhombic'
loop_
_space_group_symop_operation_xyz
x,y,z
-x,-y,z
x,-y,-z
-x,y,-z
-x,-y,-z
x,y,-z
-x,y,z
x,-y,z
1/2+x,1/2+y,z
1/2-x,1/2-y,z
1/2+x,1/2-y,-z
1/2-x,1/2+y,-z
1/2-x,1/2-y,-z
1/2+x,1/2+y,-z
1/2-x,1/2+y,z
1/2+x,1/2-y,z
loop_
_atom_site_type_symbol
_atom_site_label
_atom_site_fract_x
_atom_site_fract_y
_atom_site_fract_z
Si Si1 0.696933 0.068287 0.638718
Si Si2 0.415094 0.852181 0.751547
Si Si3 0.085546 0.000000 0.364078
Si Si4 0.123133 0.605252 0.000000
Si Si5 0.709937 0.571407 0.000000
Si Si6 0.500000 0.000000 0.000000
Si Si7 0.414089 0.724703 0.636875
Si Si8 0.662933 0.386619 0.749655
O O1 0.698602 0.069121 0.500000
O O2 0.622667 0.093255 0.685362
O O3 0.759724 0.108766 0.689469
O O4 0.708998 0.000000 0.679521
O O5 0.500000 0.858912 0.749707
O O6 0.396686 0.790418 0.686552
O O7 0.388699 0.855820 0.883986
O O8 0.116956 0.941316 0.303153
O O9 0.107655 0.000000 0.500000
O O10 0.000000 0.000000 0.358866
O O11 0.063527 0.552682 0.000000
O O12 0.204182 0.580626 0.000000
O O13 0.676282 0.601379 0.114642
O O14 0.695796 0.500000 0.000000
O O15 0.394815 0.719656 0.500000
O O16 0.500000 0.716846 0.644824
O O17 0.375232 0.674393 0.712764
#
# Coordination Sequence:
#
# PCOD9493199 Si02
#       8
#    16  16   8   8   8   2  16  16
#     4  11  23  38  61  93 129 169 214 273 338 394
#     4  11  24  42  65  95 131 171 220 273 327 391
#     4  11  22  38  65  98 130 165 216 279 334 387
#     4  12  24  41  65  98 131 175 226 273 322 390
#     4  12  24  43  64  92 137 175 209 270 335 384
#     4  12  24  36  76 100 122 184 234 266 324 398
#     4  10  23  45  70  95 130 175 221 272 330 394
#     4  12  23  41  66  95 128 174 221 270 326 395
#
# _framework density 18.754764999999999
#
# number of rings (size 3 to 8) (size 9 to 14) (size 15 to 20)
#    0.000    0.800    4.889    2.667    1.244    4.267 
#    0.000    6.667    0.000    0.000    0.000    0.000 
#    0.000    0.000    0.000    0.000    0.000    0.000 
#
# Total GULP energy -251332.098485 kJ/mol
# GULP energy per Si atom -5585.157744 kJ/mol
# Density = 1.871208 g / cm^3
# Si number density = 18.754765 Si / 1000 Ang^3
#
#
#
# Elastic Constant Matrix: (Units=GPa)
#
#
# Indices 1 2 3 4 5 6 
#
# 1 51.6145 32.2083 51.8338 0.0000 0.0000 0.0000
# 2 32.2083 57.8680 40.2553 0.0000 0.0000 0.0000
# 3 51.8338 40.2553 140.2861 0.0000 0.0000 0.0000
# 4 0.0000 0.0000 0.0000 20.8103 0.0000 0.0000
# 5 0.0000 0.0000 0.0000 0.0000 33.2822 0.0000
# 6 0.0000 0.0000 0.0000 0.0000 0.0000 38.5023
#
#
#
# Elastic Compliance Matrix: (Units=1/GPa)
#
#
# Indices 1 2 3 4 5 6 
#
# 1 0.038499 -0.014409 -0.010090 0.000000 0.000000 0.000000
# 2 -0.014409 0.026983 -0.002419 0.000000 0.000000 0.000000
# 3 -0.010090 -0.002419 0.011551 0.000000 0.000000 0.000000
# 4 0.000000 0.000000 0.000000 0.048053 0.000000 0.000000
# 5 0.000000 0.000000 0.000000 0.000000 0.030046 0.000000
# 6 0.000000 0.000000 0.000000 0.000000 0.000000 0.025972
#
#
# Mechanical properties :
#
#
# Convention : Reuss Voigt Hill
#
# Bulk Modulus (GPa) = 43.10949 55.37371 49.24160
# Shear Modulus (GPa) = 20.60396 26.88369 23.74383
#
# Velocity S-wave (km/s) = 3.31811 3.79018 3.56197
# Velocity P-wave (km/s) = 6.14130 6.98163 6.57490
#
# Compressibility (1/GPa) = 0.02319675
#
# Stress axis : x y z
#
# Youngs Moduli (GPa) = 25.97499 37.06029 86.57549
#
# Poissons Ratio (x) = 0.53398 0.87356
# Poissons Ratio (y) = 0.37426 0.20943
# Poissons Ratio (z) = 0.26209 0.08965
#
# Static dielectric constant tensor:
#      x y z
#    x 1.647000 0.000000 0.000000 
#    y 0.000000 1.617880 0.000000 
#    z 0.000000 0.000000 1.650770 
# 
# From -- ./inp_files/26890.got.cif
#   From: 2010.05.17/outbox.cif.g08.bks.cpg/sg65_14_cif.got.tgz:26890.got - 2010.06.03 17:01:31.
