data_PCOD9493890
_publ_section_title
;
Structure prediction by ZEFSAII (Michael W. Deem and Ramdas Pophale) SiO2 
 PCOD9493890
Probable space group: C M M M
;
_chemical_formula_sum "Si O2"
_cell_formula_units_Z 80
_cell_length_a 8.592153
_cell_length_b 15.751995
_cell_length_c 28.006600
_cell_angle_alpha 90.000000
_cell_angle_beta 90.000000
_cell_angle_gamma 90.000000
_cell_volume 3790.512698
_symmetry_space_group_name_H-M "C M M M"
_symmetry_group_IT_number 65
_symmetry_cell_setting 'orthorhombic'
loop_
_space_group_symop_operation_xyz
x,y,z
-x,-y,z
x,-y,-z
-x,y,-z
-x,-y,-z
x,y,-z
-x,y,z
x,-y,z
1/2+x,1/2+y,z
1/2-x,1/2-y,z
1/2+x,1/2-y,-z
1/2-x,1/2+y,-z
1/2-x,1/2-y,-z
1/2+x,1/2+y,-z
1/2-x,1/2+y,z
1/2+x,1/2-y,z
loop_
_atom_site_type_symbol
_atom_site_label
_atom_site_fract_x
_atom_site_fract_y
_atom_site_fract_z
Si Si1 0.183548 0.896723 0.098900
Si Si2 0.684403 0.098976 0.000000
Si Si3 0.824699 0.402304 0.401238
Si Si4 0.819450 0.337095 0.700083
Si Si5 0.500000 0.602069 0.556643
Si Si6 0.187338 0.902173 0.201880
O O1 0.243597 0.866230 0.150681
O O2 0.000000 0.880304 0.095653
O O3 0.203490 0.000000 0.100451
O O4 0.259108 0.863811 0.050257
O O5 0.500000 0.098416 0.000000
O O6 0.740384 0.000000 0.000000
O O7 0.831278 0.500000 0.418083
O O8 0.804081 0.401338 0.343812
O O9 0.665136 0.364251 0.422782
O O10 0.000000 0.365439 0.410685
O O11 0.750000 0.250000 0.680882
O O12 0.736950 0.358400 0.749575
O O13 0.000000 0.327226 0.711053
O O14 0.500000 0.500000 0.567427
O O15 0.500000 0.612955 0.500000
O O16 0.000000 0.902336 0.199279
O O17 0.240435 0.000000 0.205389
#
# Coordination Sequence:
#
# PCOD9493890 Si02
#       6
#    16   8  16  16   8  16
#     4   8  14  25  40  60  88 124 161 199 246 302
#     4   9  15  21  33  57  88 121 158 199 248 297
#     4   9  19  35  55  82 112 143 180 221 265 314
#     4  11  23  36  52  76 103 139 176 216 264 313
#     4   9  18  32  56  88 114 142 177 216 266 312
#     4   9  18  32  51  74 101 133 170 212 260 312
#
# _framework density 21.105322999999999
#
# number of rings (size 3 to 8) (size 9 to 14) (size 15 to 20)
#    0.000    2.800    0.000    2.700    2.800    3.600 
#    0.000    4.000    0.000    0.600    0.000    0.700 
#    0.000    0.000    0.000    0.000    0.000    0.000 
#
# Total GULP energy -222812.229141 kJ/mol
# GULP energy per Si atom -5570.305729 kJ/mol
# Density = 2.105729 g / cm^3
# Si number density = 21.105323 Si / 1000 Ang^3
#
#
#
# Elastic Constant Matrix: (Units=GPa)
#
#
# Indices 1 2 3 4 5 6 
#
# 1 95.8972 8.0104 67.3847 0.0000 0.0000 0.0000
# 2 8.0104 22.7831 -3.6522 0.0000 0.0000 0.0000
# 3 67.3847 -3.6522 85.3605 0.0000 0.0000 0.0000
# 4 0.0000 0.0000 0.0000 -13.0081 0.0000 0.0000
# 5 0.0000 0.0000 0.0000 0.0000 11.2657 0.0000
# 6 0.0000 0.0000 0.0000 0.0000 0.0000 10.2663
#
#
#
# Elastic Compliance Matrix: (Units=1/GPa)
#
#
# Indices 1 2 3 4 5 6 
#
# 1 0.026696 -0.012853 -0.021624 0.000000 0.000000 0.000000
# 2 -0.012853 0.050383 0.012302 0.000000 0.000000 0.000000
# 3 -0.021624 0.012302 0.029312 0.000000 0.000000 0.000000
# 4 0.000000 0.000000 0.000000 -0.076875 0.000000 0.000000
# 5 0.000000 0.000000 0.000000 0.000000 0.088765 0.000000
# 6 0.000000 0.000000 0.000000 0.000000 0.000000 0.097406
#
#
# Mechanical properties :
#
#
# Convention : Reuss Voigt Hill
#
# Bulk Modulus (GPa) = 16.11842 38.61409 27.36625
# Shear Modulus (GPa) = 17.81143 10.52463 14.16803
#
# Velocity S-wave (km/s) = 2.90820 2.23552 2.59376
# Velocity P-wave (km/s) = 4.35093 4.99990 4.68666
#
# Compressibility (1/GPa) = 0.06204083
#
# Stress axis : x y z
#
# Youngs Moduli (GPa) = 37.45821 19.84787 34.11578
#
# Poissons Ratio (x) = 0.25510 0.73773
# Poissons Ratio (y) = 0.48144 -0.41969
# Poissons Ratio (z) = 0.81001 -0.24416
#
# Static dielectric constant tensor:
#      x y z
#    x 1.759850 0.000000 0.000000 
#    y 0.000000 1.794370 0.000000 
#    z 0.000000 0.000000 1.761350 
# 
# From -- ./inp_files/72932.got.cif
#   From: 2010.05.17/outbox.cif.g08.bks.cpg/sg65_37_cif.got.tgz:72932.got - 2010.06.03 17:01:31.
