data_PCOD9493151
_publ_section_title
;
Structure prediction by ZEFSAII (Michael W. Deem and Ramdas Pophale) SiO2 
 PCOD9493151
Probable space group: C M M M
;
_chemical_formula_sum "Si O2"
_cell_formula_units_Z 88
_cell_length_a 30.359645
_cell_length_b 18.087111
_cell_length_c 8.116437
_cell_angle_alpha 90.000000
_cell_angle_beta 90.000000
_cell_angle_gamma 90.000000
_cell_volume 4456.883836
_symmetry_space_group_name_H-M "C M M M"
_symmetry_group_IT_number 65
_symmetry_cell_setting 'orthorhombic'
loop_
_space_group_symop_operation_xyz
x,y,z
-x,-y,z
x,-y,-z
-x,y,-z
-x,-y,-z
x,y,-z
-x,y,z
x,-y,z
1/2+x,1/2+y,z
1/2-x,1/2-y,z
1/2+x,1/2-y,-z
1/2-x,1/2+y,-z
1/2-x,1/2-y,-z
1/2+x,1/2+y,-z
1/2-x,1/2+y,z
1/2+x,1/2-y,z
loop_
_atom_site_type_symbol
_atom_site_label
_atom_site_fract_x
_atom_site_fract_y
_atom_site_fract_z
Si Si1 0.208815 0.409868 0.809225
Si Si2 0.695728 0.585188 0.801211
Si Si3 0.395776 0.355354 0.303599
Si Si4 0.949452 0.000000 0.197542
Si Si5 0.949786 0.285903 0.301311
Si Si6 0.887078 0.584913 0.800328
O O1 0.208963 0.500000 0.811019
O O2 0.256344 0.388800 0.737022
O O3 0.161311 0.388948 0.737388
O O4 0.208681 0.384905 0.000000
O O5 0.688025 0.500000 0.745162
O O6 0.654044 0.634122 0.756500
O O7 0.698850 0.582486 0.000000
O O8 0.394548 0.351124 0.500000
O O9 0.423628 0.427492 0.254922
O O10 0.420726 0.282883 0.238726
O O11 0.000000 0.000000 0.257385
O O12 0.949760 0.000000 0.000000
O O13 0.951249 0.281014 0.500000
O O14 0.925325 0.361061 0.254701
O O15 0.000000 0.282558 0.240424
O O16 0.893995 0.500000 0.747627
O O17 0.884976 0.584667 0.000000
#
# Coordination Sequence:
#
# PCOD9493151 Si02
#       6
#    16  16  16   8  16  16
#     4   7  12  26  50  79 109 140 171 210 261 316
#     4   9  16  29  52  80 110 143 180 219 260 312
#     4  11  22  36  54  77 108 145 184 226 270 316
#     4  11  23  37  55  79 105 137 183 233 276 323
#     4  10  23  41  56  73 104 146 185 221 271 330
#     4   9  18  35  60  87 110 134 174 224 271 323
#
# _framework density 19.744738000000002
#
# number of rings (size 3 to 8) (size 9 to 14) (size 15 to 20)
#    0.000    2.636    0.909    3.545    0.000    4.000 
#    0.000    3.636    0.000    8.727    0.000    0.000 
#    0.000    0.000    0.000    0.000    0.000    0.000 
#
# Total GULP energy -245354.785681 kJ/mol
# GULP energy per Si atom -5576.245129 kJ/mol
# Density = 1.969980 g / cm^3
# Si number density = 19.744738 Si / 1000 Ang^3
#
#
#
# Elastic Constant Matrix: (Units=GPa)
#
#
# Indices 1 2 3 4 5 6 
#
# 1 149.9643 67.7364 8.6038 0.0000 0.0000 0.0000
# 2 67.7364 89.1316 3.1509 0.0000 0.0000 0.0000
# 3 8.6038 3.1509 12.4691 0.0000 0.0000 0.0000
# 4 0.0000 0.0000 0.0000 22.9748 0.0000 0.0000
# 5 0.0000 0.0000 0.0000 0.0000 -34.3008 0.0000
# 6 0.0000 0.0000 0.0000 0.0000 0.0000 -42.9635
#
#
#
# Elastic Compliance Matrix: (Units=1/GPa)
#
#
# Indices 1 2 3 4 5 6 
#
# 1 0.010486 -0.007783 -0.005269 0.000000 0.000000 0.000000
# 2 -0.007783 0.017097 0.001050 0.000000 0.000000 0.000000
# 3 -0.005269 0.001050 0.083569 0.000000 0.000000 0.000000
# 4 0.000000 0.000000 0.000000 0.043526 0.000000 0.000000
# 5 0.000000 0.000000 0.000000 0.000000 -0.029154 0.000000
# 6 0.000000 0.000000 0.000000 0.000000 0.000000 -0.023276
#
#
# Mechanical properties :
#
#
# Convention : Reuss Voigt Hill
#
# Bulk Modulus (GPa) = 11.47469 45.61634 28.54552
# Shear Modulus (GPa) = 32.19574 0.61368 16.40471
#
# Velocity S-wave (km/s) = 4.04245 0.55811 2.88556
# Velocity P-wave (km/s) = 5.25477 4.85474 5.05871
#
# Compressibility (1/GPa) = 0.08714830
#
# Stress axis : x y z
#
# Youngs Moduli (GPa) = 95.36743 58.49102 11.96620
#
# Poissons Ratio (x) = 0.45521 0.06305
# Poissons Ratio (y) = 0.74220 -0.01256
# Poissons Ratio (z) = 0.50246 -0.06140
#
# Static dielectric constant tensor:
#      x y z
#    x 1.728960 0.000000 0.000000 
#    y 0.000000 1.669380 0.000000 
#    z 0.000000 0.000000 1.711330 
# 
# From -- ./inp_files/18268.got.cif
#   From: 2010.05.17/outbox.cif.g08.bks.cpg/sg65_10_cif.got.tgz:18268.got - 2010.06.03 17:01:31.
