data_PCOD9493154
_publ_section_title
;
Structure prediction by ZEFSAII (Michael W. Deem and Ramdas Pophale) SiO2 
 PCOD9493154
Probable space group: C M M M
;
_chemical_formula_sum "Si O2"
_cell_formula_units_Z 72
_cell_length_a 18.217865
_cell_length_b 24.069886
_cell_length_c 9.003586
_cell_angle_alpha 90.000000
_cell_angle_beta 90.000000
_cell_angle_gamma 90.000000
_cell_volume 3948.089871
_symmetry_space_group_name_H-M "C M M M"
_symmetry_group_IT_number 65
_symmetry_cell_setting 'orthorhombic'
loop_
_space_group_symop_operation_xyz
x,y,z
-x,-y,z
x,-y,-z
-x,y,-z
-x,-y,-z
x,y,-z
-x,y,z
x,-y,z
1/2+x,1/2+y,z
1/2-x,1/2-y,z
1/2+x,1/2-y,-z
1/2-x,1/2+y,-z
1/2-x,1/2-y,-z
1/2+x,1/2+y,-z
1/2-x,1/2+y,z
1/2+x,1/2-y,z
loop_
_atom_site_type_symbol
_atom_site_label
_atom_site_fract_x
_atom_site_fract_y
_atom_site_fract_z
Si Si1 0.087190 0.265667 0.322856
Si Si2 0.139372 0.625513 0.177913
Si Si3 0.500000 0.066453 0.325177
Si Si4 0.290111 0.564419 0.178947
Si Si5 0.415072 0.637998 0.321100
O O1 0.098465 0.271661 0.500000
O O2 0.132762 0.311652 0.236248
O O3 0.103578 0.201955 0.281202
O O4 0.000000 0.274877 0.295186
O O5 0.215653 0.596547 0.221393
O O6 0.071843 0.592175 0.249623
O O7 0.132908 0.624173 0.000000
O O8 0.500000 0.080635 0.500000
O O9 0.500000 0.000000 0.309399
O O10 0.286418 0.500000 0.224744
O O11 0.359467 0.595457 0.248012
O O12 0.295333 0.566052 0.000000
O O13 0.410991 0.634288 0.500000
O O14 0.500000 0.627983 0.278731
#
# Coordination Sequence:
#
# PCOD9493154 Si02
#       5
#    16  16   8  16  16
#     4   9  18  35  58  84 117 150 185 231 283 341
#     4  11  22  36  57  84 115 152 193 236 281 334
#     4  11  23  37  55  81 113 153 198 237 280 335
#     4  10  23  41  57  79 115 154 191 236 288 339
#     4   9  20  39  62  87 113 146 187 234 289 344
#
# _framework density 18.236667000000001
#
# number of rings (size 3 to 8) (size 9 to 14) (size 15 to 20)
#    0.000    2.111    1.111    3.000    0.000    6.667 
#    0.000    8.889    0.000    0.000    0.000    0.000 
#    0.000    0.000    0.000    0.000    0.000    0.000 
#
# Total GULP energy -201069.427908 kJ/mol
# GULP energy per Si atom -5585.261886 kJ/mol
# Density = 1.819516 g / cm^3
# Si number density = 18.236667 Si / 1000 Ang^3
#
#
#
# Elastic Constant Matrix: (Units=GPa)
#
#
# Indices 1 2 3 4 5 6 
#
# 1 135.6925 97.7401 46.3252 0.0000 0.0000 0.0000
# 2 97.7401 135.5834 46.0180 0.0000 0.0000 0.0000
# 3 46.3252 46.0180 33.6600 0.0000 0.0000 0.0000
# 4 0.0000 0.0000 0.0000 32.8330 0.0000 0.0000
# 5 0.0000 0.0000 0.0000 0.0000 73.4233 0.0000
# 6 0.0000 0.0000 0.0000 0.0000 0.0000 27.3565
#
#
#
# Elastic Compliance Matrix: (Units=1/GPa)
#
#
# Indices 1 2 3 4 5 6 
#
# 1 0.017971 -0.008509 -0.013100 0.000000 0.000000 0.000000
# 2 -0.008509 0.017789 -0.012611 0.000000 0.000000 0.000000
# 3 -0.013100 -0.012611 0.064979 0.000000 0.000000 0.000000
# 4 0.000000 0.000000 0.000000 0.030457 0.000000 0.000000
# 5 0.000000 0.000000 0.000000 0.000000 0.013620 0.000000
# 6 0.000000 0.000000 0.000000 0.000000 0.000000 0.036554
#
#
# Mechanical properties :
#
#
# Convention : Reuss Voigt Hill
#
# Bulk Modulus (GPa) = 30.95953 76.12250 53.54102
# Shear Modulus (GPa) = 19.18832 34.37940 26.78386
#
# Velocity S-wave (km/s) = 3.24726 4.34658 3.83650
# Velocity P-wave (km/s) = 5.57431 8.18672 7.00340
#
# Compressibility (1/GPa) = 0.03230023
#
# Stress axis : x y z
#
# Youngs Moduli (GPa) = 55.64603 56.21346 15.38967
#
# Poissons Ratio (x) = 0.47829 0.20161
# Poissons Ratio (y) = 0.47347 0.19407
# Poissons Ratio (z) = 0.72897 0.70888
#
# Static dielectric constant tensor:
#      x y z
#    x 1.598220 0.000000 0.000000 
#    y 0.000000 1.622470 0.000000 
#    z 0.000000 0.000000 1.608040 
# 
# From -- ./inp_files/9215.got.cif
#   From: 2010.05.17/outbox.cif.g08.bks.cpg/sg65_5_cif.got.tgz:9215.got - 2010.06.03 17:01:31.
