data_PCOD9493503
_publ_section_title
;
Structure prediction by ZEFSAII (Michael W. Deem and Ramdas Pophale) SiO2 
 PCOD9493503
Probable space group: C M M M
;
_chemical_formula_sum "Si O2"
_cell_formula_units_Z 58
_cell_length_a 7.845843
_cell_length_b 25.515038
_cell_length_c 15.624482
_cell_angle_alpha 90.000000
_cell_angle_beta 90.000000
_cell_angle_gamma 90.000000
_cell_volume 3127.817901
_symmetry_space_group_name_H-M "C M M M"
_symmetry_group_IT_number 65
_symmetry_cell_setting 'orthorhombic'
loop_
_space_group_symop_operation_xyz
x,y,z
-x,-y,z
x,-y,-z
-x,y,-z
-x,-y,-z
x,y,-z
-x,y,z
x,-y,z
1/2+x,1/2+y,z
1/2-x,1/2-y,z
1/2+x,1/2-y,-z
1/2-x,1/2+y,-z
1/2-x,1/2-y,-z
1/2+x,1/2+y,-z
1/2-x,1/2+y,z
1/2+x,1/2-y,z
loop_
_atom_site_type_symbol
_atom_site_label
_atom_site_fract_x
_atom_site_fract_y
_atom_site_fract_z
Si Si1 0.500000 0.500000 0.500000
Si Si2 0.205798 0.560245 0.097261
Si Si3 0.812077 0.500000 0.635208
Si Si4 0.797666 0.102484 0.270702
Si Si5 0.704889 0.689302 0.404140
O O1 0.651341 0.500000 0.572813
O O2 0.262455 0.500000 0.115943
O O3 0.267741 0.600324 0.169281
O O4 0.000000 0.559894 0.098973
O O5 0.259234 0.572533 0.000000
O O6 0.794694 0.551529 0.692727
O O7 0.000000 0.500000 0.595430
O O8 0.736937 0.151963 0.327126
O O9 0.000000 0.097144 0.285563
O O10 0.766975 0.673416 0.500000
O O11 0.500000 0.685664 0.406648
O O12 0.750000 0.750000 0.391255
#
# Coordination Sequence:
#
# PCOD9493503 Si02
#       5
#     2  16   8  16  16
#     4  12  26  44  52  78 126 152 202 248 272 352
#     4   9  18  33  53  79 112 148 189 236 284 342
#     4  12  25  39  58  83 116 161 195 232 294 348
#     4  11  21  35  57  83 119 150 187 241 287 344
#     4   9  20  37  57  78 108 147 189 239 288 333
#
# _framework density 18.543279999999999
#
# number of rings (size 3 to 8) (size 9 to 14) (size 15 to 20)
#    0.000    1.931    2.759    1.862    1.931    2.759 
#    0.000    1.379    0.000    0.828    0.000    0.000 
#    0.000    0.000    0.000    0.000    0.000    0.000 
#
# Total GULP energy -161500.520117 kJ/mol
# GULP energy per Si atom -5568.983452 kJ/mol
# Density = 1.850107 g / cm^3
# Si number density = 18.543280 Si / 1000 Ang^3
#
#
#
# Elastic Constant Matrix: (Units=GPa)
#
#
# Indices 1 2 3 4 5 6 
#
# 1 74.9787 8.2965 23.5063 0.0000 0.0000 0.0000
# 2 8.2965 90.7191 83.0974 0.0000 0.0000 0.0000
# 3 23.5063 83.0974 171.2717 0.0000 0.0000 0.0000
# 4 0.0000 0.0000 0.0000 26.5305 0.0000 0.0000
# 5 0.0000 0.0000 0.0000 0.0000 47.5488 0.0000
# 6 0.0000 0.0000 0.0000 0.0000 0.0000 14.0931
#
#
#
# Elastic Compliance Matrix: (Units=1/GPa)
#
#
# Indices 1 2 3 4 5 6 
#
# 1 0.013974 0.000862 -0.002336 0.000000 0.000000 0.000000
# 2 0.000862 0.019894 -0.009770 0.000000 0.000000 0.000000
# 3 -0.002336 -0.009770 0.010900 0.000000 0.000000 0.000000
# 4 0.000000 0.000000 0.000000 0.037693 0.000000 0.000000
# 5 0.000000 0.000000 0.000000 0.000000 0.021031 0.000000
# 6 0.000000 0.000000 0.000000 0.000000 0.000000 0.070957
#
#
# Mechanical properties :
#
#
# Convention : Reuss Voigt Hill
#
# Bulk Modulus (GPa) = 44.88653 62.97443 53.93048
# Shear Modulus (GPa) = 24.46629 32.43909 28.45269
#
# Velocity S-wave (km/s) = 3.63632 4.18709 3.92138
# Velocity P-wave (km/s) = 6.47219 7.57695 7.04625
#
# Compressibility (1/GPa) = 0.02227840
#
# Stress axis : x y z
#
# Youngs Moduli (GPa) = 71.56089 50.26736 91.74652
#
# Poissons Ratio (x) = -0.04332 0.21432
# Poissons Ratio (y) = -0.06167 0.89639
# Poissons Ratio (z) = 0.16717 0.49112
#
# Static dielectric constant tensor:
#      x y z
#    x 1.670490 0.000000 0.000000 
#    y 0.000000 1.615720 0.000000 
#    z 0.000000 0.000000 1.683190 
# 
# From -- ./inp_files/35837.got.cif
#   From: 2010.05.17/outbox.cif.g08.bks.cpg/sg65_18_cif.got.tgz:35837.got - 2010.06.03 17:01:31.
