data_PCOD9493709
_publ_section_title
;
Structure prediction by ZEFSAII (Michael W. Deem and Ramdas Pophale) SiO2 
 PCOD9493709
Probable space group: C M M M
;
_chemical_formula_sum "Si O2"
_cell_formula_units_Z 56
_cell_length_a 14.596913
_cell_length_b 23.031239
_cell_length_c 8.826395
_cell_angle_alpha 90.000000
_cell_angle_beta 90.000000
_cell_angle_gamma 90.000000
_cell_volume 2967.301532
_symmetry_space_group_name_H-M "C M M M"
_symmetry_group_IT_number 65
_symmetry_cell_setting 'orthorhombic'
loop_
_space_group_symop_operation_xyz
x,y,z
-x,-y,z
x,-y,-z
-x,y,-z
-x,-y,-z
x,y,-z
-x,y,z
x,-y,z
1/2+x,1/2+y,z
1/2-x,1/2-y,z
1/2+x,1/2-y,-z
1/2-x,1/2+y,-z
1/2-x,1/2-y,-z
1/2+x,1/2+y,-z
1/2-x,1/2+y,z
1/2+x,1/2-y,z
loop_
_atom_site_type_symbol
_atom_site_label
_atom_site_fract_x
_atom_site_fract_y
_atom_site_fract_z
Si Si1 0.145655 0.227471 0.329051
Si Si2 0.899939 0.353907 0.316436
Si Si3 0.392393 0.500000 0.318321
Si Si4 0.294270 0.387948 0.180095
O O1 0.113904 0.213460 0.500000
O O2 0.250000 0.250000 0.339964
O O3 0.097600 0.285691 0.271697
O O4 0.150055 0.169877 0.230033
O O5 0.888958 0.354975 0.500000
O O6 0.809805 0.381518 0.242987
O O7 0.000000 0.379782 0.279784
O O8 0.500000 0.500000 0.278115
O O9 0.384739 0.500000 0.500000
O O10 0.342987 0.443357 0.252325
O O11 0.291836 0.392240 0.000000
#
# Coordination Sequence:
#
# PCOD9493709 Si02
#       4
#    16  16   8  16
#     4   8  15  30  52  78 109 147 189 225 260 311
#     4   9  18  34  57  84 115 153 194 230 265 317
#     4  11  25  45  66  81  98 137 191 236 274 327
#     4  11  22  36  56  84 118 148 178 228 288 337
#
# _framework density 18.872366
#
# number of rings (size 3 to 8) (size 9 to 14) (size 15 to 20)
#    0.000    2.429    0.000    4.714    0.000    8.000 
#    0.000    3.571    0.000    4.286    0.000    0.000 
#    0.000    0.000    0.000    0.000    0.000    0.000 
#
# Total GULP energy -156118.015373 kJ/mol
# GULP energy per Si atom -5575.643406 kJ/mol
# Density = 1.882941 g / cm^3
# Si number density = 18.872366 Si / 1000 Ang^3
#
#
#
# Elastic Constant Matrix: (Units=GPa)
#
#
# Indices 1 2 3 4 5 6 
#
# 1 147.9011 72.1833 60.9928 0.0000 0.0000 0.0000
# 2 72.1833 127.1343 65.9602 0.0000 0.0000 0.0000
# 3 60.9928 65.9602 93.6222 0.0000 0.0000 0.0000
# 4 0.0000 0.0000 0.0000 512.4077 0.0000 0.0000
# 5 0.0000 0.0000 0.0000 0.0000 8.2395 0.0000
# 6 0.0000 0.0000 0.0000 0.0000 0.0000 18.6463
#
#
#
# Elastic Compliance Matrix: (Units=1/GPa)
#
#
# Indices 1 2 3 4 5 6 
#
# 1 0.010247 -0.003711 -0.004061 0.000000 0.000000 0.000000
# 2 -0.003711 0.013741 -0.007264 0.000000 0.000000 0.000000
# 3 -0.004061 -0.007264 0.018445 0.000000 0.000000 0.000000
# 4 0.000000 0.000000 0.000000 0.001952 0.000000 0.000000
# 5 0.000000 0.000000 0.000000 0.000000 0.121367 0.000000
# 6 0.000000 0.000000 0.000000 0.000000 0.000000 0.053630
#
#
# Mechanical properties :
#
#
# Convention : Reuss Voigt Hill
#
# Bulk Modulus (GPa) = 80.89801 85.21448 83.05624
# Shear Modulus (GPa) = 19.71817 119.16013 69.43915
#
# Velocity S-wave (km/s) = 3.23587 7.95469 6.07239
# Velocity P-wave (km/s) = 7.54454 11.38510 9.65765
#
# Compressibility (1/GPa) = 0.01236124
#
# Stress axis : x y z
#
# Youngs Moduli (GPa) = 97.58681 72.77394 54.21669
#
# Poissons Ratio (x) = 0.27006 0.22019
# Poissons Ratio (y) = 0.36214 0.39380
# Poissons Ratio (z) = 0.39633 0.52859
#
# Static dielectric constant tensor:
#      x y z
#    x 1.713610 0.000000 0.000000 
#    y 0.000000 1.642330 0.000000 
#    z 0.000000 0.000000 1.632120 
# 
# From -- ./inp_files/6208.got.cif
#   From: 2010.05.17/outbox.cif.g08.bks.cpg/sg65_4_cif.got.tgz:6208.got - 2010.06.03 17:01:31.
