data_PCOD9493115
_publ_section_title
;
Structure prediction by ZEFSAII (Michael W. Deem and Ramdas Pophale) SiO2 
 PCOD9493115
Probable space group: C M M M
;
_chemical_formula_sum "Si O2"
_cell_formula_units_Z 60
_cell_length_a 15.475096
_cell_length_b 21.411284
_cell_length_c 7.752228
_cell_angle_alpha 90.000000
_cell_angle_beta 90.000000
_cell_angle_gamma 90.000000
_cell_volume 2568.636213
_symmetry_space_group_name_H-M "C M M M"
_symmetry_group_IT_number 65
_symmetry_cell_setting 'orthorhombic'
loop_
_space_group_symop_operation_xyz
x,y,z
-x,-y,z
x,-y,-z
-x,y,-z
-x,-y,-z
x,y,-z
-x,y,z
x,-y,z
1/2+x,1/2+y,z
1/2-x,1/2-y,z
1/2+x,1/2-y,-z
1/2-x,1/2+y,-z
1/2-x,1/2-y,-z
1/2+x,1/2+y,-z
1/2-x,1/2+y,z
1/2+x,1/2-y,z
loop_
_atom_site_type_symbol
_atom_site_label
_atom_site_fract_x
_atom_site_fract_y
_atom_site_fract_z
Si Si1 0.108208 0.500000 0.000000
Si Si2 0.596997 0.756054 0.292780
Si Si3 0.361012 0.899727 0.303521
Si Si4 0.000000 0.072060 0.706584
Si Si5 0.319330 0.366911 0.194812
O O1 0.109171 0.553858 0.154369
O O2 0.599080 0.748941 0.500000
O O3 0.500000 0.739784 0.232579
O O4 0.613467 0.828513 0.257052
O O5 0.665469 0.706691 0.222297
O O6 0.391299 0.913396 0.500000
O O7 0.256332 0.897081 0.306032
O O8 0.087610 0.103285 0.770976
O O9 0.000000 0.076961 0.500000
O O10 0.000000 0.000000 0.758328
O O11 0.292713 0.379409 0.000000
#
# Coordination Sequence:
#
# PCOD9493115 Si02
#       5
#     4  16  16   8  16
#     4  12  26  48  67 101 134 172 230 286 332 413
#     4  10  22  43  70 100 134 175 227 281 337 396
#     4  11  25  45  71  98 134 181 224 279 341 401
#     4  11  25  41  61  93 135 185 228 269 331 404
#     4  12  24  40  65 101 137 177 226 277 331 398
#
# _framework density 23.358696999999999
#
# number of rings (size 3 to 8) (size 9 to 14) (size 15 to 20)
#    0.000    0.933    2.667    4.000    3.733    4.267 
#    0.000    1.333    0.000    3.200    0.000    0.000 
#    0.000    0.000    0.000    0.000    0.000    0.000 
#
# Total GULP energy -167418.500724 kJ/mol
# GULP energy per Si atom -5580.616691 kJ/mol
# Density = 2.330553 g / cm^3
# Si number density = 23.358697 Si / 1000 Ang^3
#
#
#
# Elastic Constant Matrix: (Units=GPa)
#
#
# Indices 1 2 3 4 5 6 
#
# 1 82.5536 8.8463 12.6286 0.0000 0.0000 0.0000
# 2 8.8463 119.9599 65.0185 0.0000 0.0000 0.0000
# 3 12.6286 65.0185 133.5707 0.0000 0.0000 0.0000
# 4 0.0000 0.0000 0.0000 40.9406 0.0000 0.0000
# 5 0.0000 0.0000 0.0000 0.0000 -25.4366 0.0000
# 6 0.0000 0.0000 0.0000 0.0000 0.0000 -22.1223
#
#
#
# Elastic Compliance Matrix: (Units=1/GPa)
#
#
# Indices 1 2 3 4 5 6 
#
# 1 0.012304 -0.000376 -0.000980 0.000000 0.000000 0.000000
# 2 -0.000376 0.011335 -0.005482 0.000000 0.000000 0.000000
# 3 -0.000980 -0.005482 0.010248 0.000000 0.000000 0.000000
# 4 0.000000 0.000000 0.000000 0.024426 0.000000 0.000000
# 5 0.000000 0.000000 0.000000 0.000000 -0.039313 0.000000
# 6 0.000000 0.000000 0.000000 0.000000 0.000000 -0.045203
#
#
# Mechanical properties :
#
#
# Convention : Reuss Voigt Hill
#
# Bulk Modulus (GPa) = 49.48060 56.56345 53.02202
# Shear Modulus (GPa) = -863.38697 15.31572 -424.03562
#
# Velocity S-wave (km/s) = -19.24639 2.56339 -13.48801
# Velocity P-wave (km/s) = 21.74096 5.74709 14.82633
#
# Compressibility (1/GPa) = 0.02020994
#
# Stress axis : x y z
#
# Youngs Moduli (GPa) = 81.27713 88.22117 97.58127
#
# Poissons Ratio (x) = 0.03317 0.09565
# Poissons Ratio (y) = 0.03056 0.53495
# Poissons Ratio (z) = 0.07967 0.48364
#
# Static dielectric constant tensor:
#      x y z
#    x 1.920510 0.000000 0.000000 
#    y 0.000000 1.850560 0.000000 
#    z 0.000000 0.000000 1.845480 
# 
# From -- ./inp_files/8793.got.cif
#   From: 2010.05.17/outbox.cif.g08.bks.cpg/sg65_5_cif.got.tgz:8793.got - 2010.06.03 17:01:31.
