data_PCOD9493656
_publ_section_title
;
Structure prediction by ZEFSAII (Michael W. Deem and Ramdas Pophale) SiO2 
 PCOD9493656
Probable space group: C M M M
;
_chemical_formula_sum "Si O2"
_cell_formula_units_Z 112
_cell_length_a 16.520044
_cell_length_b 24.380200
_cell_length_c 14.385379
_cell_angle_alpha 90.000000
_cell_angle_beta 90.000000
_cell_angle_gamma 90.000000
_cell_volume 5793.883682
_symmetry_space_group_name_H-M "C M M M"
_symmetry_group_IT_number 65
_symmetry_cell_setting 'orthorhombic'
loop_
_space_group_symop_operation_xyz
x,y,z
-x,-y,z
x,-y,-z
-x,y,-z
-x,-y,-z
x,y,-z
-x,y,z
x,-y,z
1/2+x,1/2+y,z
1/2-x,1/2-y,z
1/2+x,1/2-y,-z
1/2-x,1/2+y,-z
1/2-x,1/2-y,-z
1/2+x,1/2+y,-z
1/2-x,1/2+y,z
1/2+x,1/2-y,z
loop_
_atom_site_type_symbol
_atom_site_label
_atom_site_fract_x
_atom_site_fract_y
_atom_site_fract_z
Si Si1 0.593781 0.937751 0.137588
Si Si2 0.176762 0.673636 0.895382
Si Si3 0.671192 0.657438 0.228790
Si Si4 0.593531 0.938108 0.362195
Si Si5 0.207938 0.337040 0.395297
Si Si6 0.591320 0.767650 0.269685
Si Si7 0.402277 0.436310 0.105905
O O1 0.500000 0.927217 0.110440
O O2 0.653168 0.890743 0.103154
O O3 0.596293 0.935810 0.249799
O O4 0.614383 0.000000 0.109744
O O5 0.262935 0.680437 0.845113
O O6 0.112275 0.700920 0.825935
O O7 0.175241 0.695065 0.000000
O O8 0.719688 0.649115 0.324621
O O9 0.605396 0.703934 0.248867
O O10 0.635673 0.603228 0.182231
O O11 0.500000 0.929713 0.389105
O O12 0.650398 0.890311 0.397423
O O13 0.617176 0.000000 0.389411
O O14 0.232766 0.322966 0.500000
O O15 0.155278 0.289285 0.345843
O O16 0.500000 0.779926 0.298735
O O17 0.500000 0.433077 0.110135
O O18 0.379571 0.500000 0.119517
O O19 0.378340 0.420310 0.000000
#
# Coordination Sequence:
#
# PCOD9493656 Si02
#       7
#    16  16  16  16  16  16  16
#     4   9  17  31  51  75 108 149 189 228 269 322
#     4  11  22  35  53  80 115 152 188 230 284 346
#     4  11  23  39  60  83 116 151 188 237 294 352
#     4   9  17  32  55  81 111 148 190 233 276 328
#     4  11  23  39  60  85 116 152 191 241 297 349
#     4  11  24  41  59  81 107 144 194 242 290 346
#     4   9  19  38  65  95 123 153 194 241 288 341
#
# _framework density 19.330729999999999
#
# number of rings (size 3 to 8) (size 9 to 14) (size 15 to 20)
#    0.000    1.857    2.857    4.714    0.000    6.857 
#    0.000    1.429    0.000    1.286    0.000    1.000 
#    0.000    0.000    0.000    0.000    0.000    0.000 
#
# Total GULP energy -312886.056352 kJ/mol
# GULP energy per Si atom -5587.251006 kJ/mol
# Density = 1.928673 g / cm^3
# Si number density = 19.330730 Si / 1000 Ang^3
#
#
#
# Elastic Constant Matrix: (Units=GPa)
#
#
# Indices 1 2 3 4 5 6 
#
# 1 45.5342 20.7429 27.9409 0.0000 0.0000 0.0000
# 2 20.7429 81.8219 38.3274 0.0000 0.0000 0.0000
# 3 27.9409 38.3274 156.4234 0.0000 0.0000 0.0000
# 4 0.0000 0.0000 0.0000 -7.8025 0.0000 0.0000
# 5 0.0000 0.0000 0.0000 0.0000 42.4251 0.0000
# 6 0.0000 0.0000 0.0000 0.0000 0.0000-2119.5344
#
#
#
# Elastic Compliance Matrix: (Units=1/GPa)
#
#
# Indices 1 2 3 4 5 6 
#
# 1 0.026401 -0.005065 -0.003475 0.000000 0.000000 0.000000
# 2 -0.005065 0.014778 -0.002716 0.000000 0.000000 0.000000
# 3 -0.003475 -0.002716 0.007679 0.000000 0.000000 0.000000
# 4 0.000000 0.000000 0.000000 -0.128164 0.000000 0.000000
# 5 0.000000 0.000000 0.000000 0.000000 0.023571 0.000000
# 6 0.000000 0.000000 0.000000 0.000000 0.000000 -0.000472
#
#
# Mechanical properties :
#
#
# Convention : Reuss Voigt Hill
#
# Bulk Modulus (GPa) = 37.95672 50.86687 44.41180
# Shear Modulus (GPa) = -200.70866 -403.86447 -302.28656
#
# Velocity S-wave (km/s) = -10.20070 -14.46987 -12.51861
# Velocity P-wave (km/s) = 10.91150 15.89963 13.63560
#
# Compressibility (1/GPa) = 0.02634580
#
# Stress axis : x y z
#
# Youngs Moduli (GPa) = 37.87709 67.66752 130.22358
#
# Poissons Ratio (x) = 0.34276 0.45249
# Poissons Ratio (y) = 0.19186 0.35371
# Poissons Ratio (z) = 0.13161 0.18380
#
# Static dielectric constant tensor:
#      x y z
#    x 1.666500 0.000000 0.000000 
#    y 0.000000 1.685330 0.000000 
#    z 0.000000 0.000000 1.695090 
# 
# From -- ./inp_files/40818.got.cif
#   From: 2010.05.17/outbox.cif.g08.bks.cpg/sg65_21_cif.got.tgz:40818.got - 2010.06.03 17:01:31.
