data_PCOD9493876
_publ_section_title
;
Structure prediction by ZEFSAII (Michael W. Deem and Ramdas Pophale) SiO2 
 PCOD9493876
Probable space group: C M M M
;
_chemical_formula_sum "Si O2"
_cell_formula_units_Z 80
_cell_length_a 24.583855
_cell_length_b 26.912695
_cell_length_c 8.601818
_cell_angle_alpha 90.000000
_cell_angle_beta 90.000000
_cell_angle_gamma 90.000000
_cell_volume 5691.115828
_symmetry_space_group_name_H-M "C M M M"
_symmetry_group_IT_number 65
_symmetry_cell_setting 'orthorhombic'
loop_
_space_group_symop_operation_xyz
x,y,z
-x,-y,z
x,-y,-z
-x,y,-z
-x,-y,-z
x,y,-z
-x,y,z
x,-y,z
1/2+x,1/2+y,z
1/2-x,1/2-y,z
1/2+x,1/2-y,-z
1/2-x,1/2+y,-z
1/2-x,1/2-y,-z
1/2+x,1/2+y,-z
1/2-x,1/2+y,z
1/2+x,1/2-y,z
loop_
_atom_site_type_symbol
_atom_site_label
_atom_site_fract_x
_atom_site_fract_y
_atom_site_fract_z
Si Si1 0.500000 0.893469 0.314519
Si Si2 0.615149 0.757529 0.688478
Si Si3 0.390335 0.942569 0.813739
Si Si4 0.500000 0.218747 0.815121
Si Si5 0.817540 0.356858 0.311438
Si Si6 0.215225 0.801298 0.318884
O O1 0.500000 0.890666 0.500000
O O2 0.553656 0.921778 0.257067
O O3 0.500000 0.837631 0.248856
O O4 0.613641 0.755754 0.500000
O O5 0.554894 0.755654 0.754304
O O6 0.642354 0.810847 0.729742
O O7 0.656697 0.714675 0.745989
O O8 0.342321 0.906956 0.755170
O O9 0.382584 0.000000 0.769069
O O10 0.394052 0.939637 0.000000
O O11 0.500000 0.217282 0.000000
O O12 0.816541 0.358989 0.500000
O O13 0.756988 0.342029 0.254077
O O14 0.206476 0.814233 0.500000
O O15 0.250000 0.750000 0.317664
#
# Coordination Sequence:
#
# PCOD9493876 Si02
#       6
#     8  16  16   8  16  16
#     4  12  23  35  48  59  74 106 150 189 221 251
#     4   9  16  28  45  63  83 109 140 170 206 251
#     4  11  23  35  45  60  84 111 139 178 224 258
#     4  12  22  29  41  62  90 115 139 175 214 249
#     4   9  16  28  47  65  81 105 139 175 209 249
#     4   7  12  24  43  65  83 101 131 171 208 244
#
# _framework density 14.056997000000001
#
# number of rings (size 3 to 8) (size 9 to 14) (size 15 to 20)
#    0.000    2.400    2.000    5.100    0.000    2.800 
#    0.000    1.000    0.000    3.600    0.000    0.000 
#    0.000    0.000    0.000    0.900    0.000   18.800 
#
# Total GULP energy -222852.400368 kJ/mol
# GULP energy per Si atom -5571.310009 kJ/mol
# Density = 1.402500 g / cm^3
# Si number density = 14.056997 Si / 1000 Ang^3
#
#
#
# Elastic Constant Matrix: (Units=GPa)
#
#
# Indices 1 2 3 4 5 6 
#
# 1 139.5248 68.3263 31.9479 0.0000 0.0000 0.0000
# 2 68.3263 63.2245 18.9612 0.0000 0.0000 0.0000
# 3 31.9479 18.9612 28.1115 0.0000 0.0000 0.0000
# 4 0.0000 0.0000 0.0000 22.8947 0.0000 0.0000
# 5 0.0000 0.0000 0.0000 0.0000 -32.6810 0.0000
# 6 0.0000 0.0000 0.0000 0.0000 0.0000 11.2108
#
#
#
# Elastic Compliance Matrix: (Units=1/GPa)
#
#
# Indices 1 2 3 4 5 6 
#
# 1 0.016713 -0.015501 -0.008539 0.000000 0.000000 0.000000
# 2 -0.015501 0.034205 -0.005454 0.000000 0.000000 0.000000
# 3 -0.008539 -0.005454 0.048955 0.000000 0.000000 0.000000
# 4 0.000000 0.000000 0.000000 0.043678 0.000000 0.000000
# 5 0.000000 0.000000 0.000000 0.000000 -0.030599 0.000000
# 6 0.000000 0.000000 0.000000 0.000000 0.000000 0.089199
#
#
# Mechanical properties :
#
#
# Convention : Reuss Voigt Hill
#
# Bulk Modulus (GPa) = 24.45878 52.14795 38.30336
# Shear Modulus (GPa) = 18.19711 7.72661 12.96186
#
# Velocity S-wave (km/s) = 3.60185 2.34703 3.03989
# Velocity P-wave (km/s) = 5.89366 6.67254 6.29516
#
# Compressibility (1/GPa) = 0.04088511
#
# Stress axis : x y z
#
# Youngs Moduli (GPa) = 59.83188 29.23585 20.42676
#
# Poissons Ratio (x) = 0.45320 0.17442
# Poissons Ratio (y) = 0.92748 0.11141
# Poissons Ratio (z) = 0.51089 0.15945
#
# Static dielectric constant tensor:
#      x y z
#    x 1.484310 0.000000 0.000000 
#    y 0.000000 1.446170 0.000000 
#    z 0.000000 0.000000 1.472440 
# 
# From -- ./inp_files/16613.got.cif
#   From: 2010.05.17/outbox.cif.g08.bks.cpg/sg65_9_cif.got.tgz:16613.got - 2010.06.03 17:01:31.
