data_PCOD9493985
_publ_section_title
;
Structure prediction by ZEFSAII (Michael W. Deem and Ramdas Pophale) SiO2 
 PCOD9493985
Probable space group: C M M M
;
_chemical_formula_sum "Si O2"
_cell_formula_units_Z 72
_cell_length_a 9.303554
_cell_length_b 15.525799
_cell_length_c 25.475977
_cell_angle_alpha 90.000000
_cell_angle_beta 90.000000
_cell_angle_gamma 90.000000
_cell_volume 3679.880285
_symmetry_space_group_name_H-M "C M M M"
_symmetry_group_IT_number 65
_symmetry_cell_setting 'orthorhombic'
loop_
_space_group_symop_operation_xyz
x,y,z
-x,-y,z
x,-y,-z
-x,y,-z
-x,-y,-z
x,y,-z
-x,y,z
x,-y,z
1/2+x,1/2+y,z
1/2-x,1/2-y,z
1/2+x,1/2-y,-z
1/2-x,1/2+y,-z
1/2-x,1/2-y,-z
1/2+x,1/2+y,-z
1/2-x,1/2+y,z
1/2+x,1/2-y,z
loop_
_atom_site_type_symbol
_atom_site_label
_atom_site_fract_x
_atom_site_fract_y
_atom_site_fract_z
Si Si1 0.724705 0.596482 0.131091
Si Si2 0.000000 0.386137 0.061119
Si Si3 0.671455 0.655349 0.500000
Si Si4 0.500000 0.317271 0.058267
Si Si5 0.827256 0.000000 0.418481
Si Si6 0.823700 0.840284 0.752278
Si Si7 0.675272 0.000000 0.692392
O O1 0.667568 0.500000 0.139588
O O2 0.869203 0.589429 0.098301
O O3 0.631881 0.651225 0.091490
O O4 0.722102 0.641623 0.187372
O O5 0.000000 0.283959 0.056033
O O6 0.000000 0.415097 0.000000
O O7 0.500000 0.672652 0.500000
O O8 0.750000 0.750000 0.500000
O O9 0.700585 0.588551 0.451515
O O10 0.500000 0.354622 0.000000
O O11 0.727103 0.000000 0.367756
O O12 0.000000 0.000000 0.406476
O O13 0.750000 0.750000 0.736423
O O14 0.749831 0.916888 0.719360
O O15 0.000000 0.839511 0.748405
O O16 0.500000 0.000000 0.698040
#
# Coordination Sequence:
#
# PCOD9493985 Si02
#       7
#    16   8   8   8   8  16   8
#     4  12  25  40  64  90 121 158 207 262 334 410
#     4  11  25  43  61  89 123 161 203 260 329 404
#     4   9  19  37  68 104 144 197 241 283 341 394
#     4  11  23  41  63  89 121 157 203 256 321 410
#     4   9  20  42  66  98 146 193 239 287 338 399
#     4  12  26  46  70  97 131 174 227 287 349 414
#     4  12  27  45  71 104 139 185 236 289 351 407
#
# _framework density 19.565854000000002
#
# number of rings (size 3 to 8) (size 9 to 14) (size 15 to 20)
#    0.000    0.889    2.222    5.667    3.111    6.222 
#    0.000    3.333    0.000    0.000    0.000    0.000 
#    0.000    0.000    0.000    0.000    0.000    0.000 
#
# Total GULP energy -200764.032105 kJ/mol
# GULP energy per Si atom -5576.778670 kJ/mol
# Density = 1.952132 g / cm^3
# Si number density = 19.565854 Si / 1000 Ang^3
#
#
#
# Elastic Constant Matrix: (Units=GPa)
#
#
# Indices 1 2 3 4 5 6 
#
# 1 164.1955 72.9446 73.1366 0.0000 0.0000 0.0000
# 2 72.9446 190.7465 58.6752 0.0000 0.0000 0.0000
# 3 73.1366 58.6752 134.2431 0.0000 0.0000 0.0000
# 4 0.0000 0.0000 0.0000 106.2636 0.0000 0.0000
# 5 0.0000 0.0000 0.0000 0.0000 34.7204 0.0000
# 6 0.0000 0.0000 0.0000 0.0000 0.0000 45.2795
#
#
#
# Elastic Compliance Matrix: (Units=1/GPa)
#
#
# Indices 1 2 3 4 5 6 
#
# 1 0.008758 -0.002174 -0.003821 0.000000 0.000000 0.000000
# 2 -0.002174 0.006596 -0.001699 0.000000 0.000000 0.000000
# 3 -0.003821 -0.001699 0.010274 0.000000 0.000000 0.000000
# 4 0.000000 0.000000 0.000000 0.009411 0.000000 0.000000
# 5 0.000000 0.000000 0.000000 0.000000 0.028802 0.000000
# 6 0.000000 0.000000 0.000000 0.000000 0.000000 0.022085
#
#
# Mechanical properties :
#
#
# Convention : Reuss Voigt Hill
#
# Bulk Modulus (GPa) = 97.65505 99.85534 98.75520
# Shear Modulus (GPa) = 47.74325 56.21462 51.97894
#
# Velocity S-wave (km/s) = 4.94513 5.36594 5.15983
# Velocity P-wave (km/s) = 9.08983 9.46242 9.27800
#
# Compressibility (1/GPa) = 0.01024013
#
# Stress axis : x y z
#
# Youngs Moduli (GPa) = 114.17946 151.59698 97.33643
#
# Poissons Ratio (x) = 0.32954 0.37196
# Poissons Ratio (y) = 0.24820 0.16536
# Poissons Ratio (z) = 0.43632 0.25755
#
# Static dielectric constant tensor:
#      x y z
#    x 1.656540 0.000000 0.000000 
#    y 0.000000 1.695010 0.000000 
#    z 0.000000 0.000000 1.671690 
# 
# From -- ./inp_files/72677.got.cif
#   From: 2010.05.17/outbox.cif.g08.bks.cpg/sg65_37_cif.got.tgz:72677.got - 2010.06.03 17:01:31.
