data_PCOD9493360
_publ_section_title
;
Structure prediction by ZEFSAII (Michael W. Deem and Ramdas Pophale) SiO2 
 PCOD9493360
Probable space group: C M M M
;
_chemical_formula_sum "Si O2"
_cell_formula_units_Z 72
_cell_length_a 16.831966
_cell_length_b 28.898695
_cell_length_c 9.022404
_cell_angle_alpha 90.000000
_cell_angle_beta 90.000000
_cell_angle_gamma 90.000000
_cell_volume 4388.694460
_symmetry_space_group_name_H-M "C M M M"
_symmetry_group_IT_number 65
_symmetry_cell_setting 'orthorhombic'
loop_
_space_group_symop_operation_xyz
x,y,z
-x,-y,z
x,-y,-z
-x,y,-z
-x,-y,-z
x,y,-z
-x,y,z
x,-y,z
1/2+x,1/2+y,z
1/2-x,1/2-y,z
1/2+x,1/2-y,-z
1/2-x,1/2+y,-z
1/2-x,1/2-y,-z
1/2+x,1/2+y,-z
1/2-x,1/2+y,z
1/2+x,1/2-y,z
loop_
_atom_site_type_symbol
_atom_site_label
_atom_site_fract_x
_atom_site_fract_y
_atom_site_fract_z
Si Si1 0.761982 0.640098 0.824366
Si Si2 0.910261 0.307951 0.321981
Si Si3 0.500000 0.943896 0.668416
Si Si4 0.171367 0.217235 0.329998
Si Si5 0.823994 0.553944 0.320631
O O1 0.842530 0.664345 0.763327
O O2 0.690932 0.673417 0.770305
O O3 0.763167 0.589594 0.750617
O O4 0.763641 0.637168 0.000000
O O5 0.897360 0.313386 0.500000
O O6 0.897528 0.253333 0.288963
O O7 0.000000 0.322604 0.287749
O O8 0.500000 0.925160 0.500000
O O9 0.413770 0.932919 0.733441
O O10 0.500000 0.000000 0.657976
O O11 0.160672 0.202127 0.500000
O O12 0.250000 0.250000 0.326239
O O13 0.824271 0.558107 0.500000
O O14 0.810044 0.500000 0.285506
#
# Coordination Sequence:
#
# PCOD9493360 Si02
#       5
#    16  16   8  16  16
#     4  11  21  29  41  63  92 120 144 174 216 261
#     4   9  18  32  49  66  84 110 146 185 218 252
#     4   7  12  24  41  57  71  95 135 179 215 241
#     4   8  15  30  48  63  81 109 145 179 213 254
#     4   9  17  30  46  61  79 109 150 188 217 248
#
# _framework density 16.40579
#
# number of rings (size 3 to 8) (size 9 to 14) (size 15 to 20)
#    0.000    3.000    0.000    4.667    1.556    4.889 
#    0.000    0.000    0.000    2.000    0.000    0.000 
#    0.000    0.889    0.000   10.222    0.000    2.889 
#
# Total GULP energy -200488.733276 kJ/mol
# GULP energy per Si atom -5569.131480 kJ/mol
# Density = 1.636845 g / cm^3
# Si number density = 16.405790 Si / 1000 Ang^3
#
#
#
# Elastic Constant Matrix: (Units=GPa)
#
#
# Indices 1 2 3 4 5 6 
#
# 1 13.0844 9.1020 6.9262 0.0000 0.0000 0.0000
# 2 9.1020 96.7804 43.8292 0.0000 0.0000 0.0000
# 3 6.9262 43.8292 48.9170 0.0000 0.0000 0.0000
# 4 0.0000 0.0000 0.0000 -102.6284 0.0000 0.0000
# 5 0.0000 0.0000 0.0000 0.0000 7.1662 0.0000
# 6 0.0000 0.0000 0.0000 0.0000 0.0000 26.3589
#
#
#
# Elastic Compliance Matrix: (Units=1/GPa)
#
#
# Indices 1 2 3 4 5 6 
#
# 1 0.083627 -0.004211 -0.008067 0.000000 0.000000 0.000000
# 2 -0.004211 0.017600 -0.015174 0.000000 0.000000 0.000000
# 3 -0.008067 -0.015174 0.035180 0.000000 0.000000 0.000000
# 4 0.000000 0.000000 0.000000 -0.009744 0.000000 0.000000
# 5 0.000000 0.000000 0.000000 0.000000 0.139544 0.000000
# 6 0.000000 0.000000 0.000000 0.000000 0.000000 0.037938
#
#
# Mechanical properties :
#
#
# Convention : Reuss Voigt Hill
#
# Bulk Modulus (GPa) = 12.26951 30.94409 21.60680
# Shear Modulus (GPa) = 12.94607 -7.22569 2.86019
#
# Velocity S-wave (km/s) = 2.81217 -2.10093 1.32181
# Velocity P-wave (km/s) = 4.24728 3.60796 3.94061
#
# Compressibility (1/GPa) = 0.08150285
#
# Stress axis : x y z
#
# Youngs Moduli (GPa) = 11.95788 56.81684 28.42494
#
# Poissons Ratio (x) = 0.23928 0.22932
# Poissons Ratio (y) = 0.05036 0.43131
# Poissons Ratio (z) = 0.09647 0.86211
#
# Static dielectric constant tensor:
#      x y z
#    x 1.562140 0.000000 0.000000 
#    y 0.000000 1.598150 0.000000 
#    z 0.000000 0.000000 1.541520 
# 
# From -- ./inp_files/12014.got.cif
#   From: 2010.05.17/outbox.cif.g08.bks.cpg/sg65_7_cif.got.tgz:12014.got - 2010.06.03 17:01:31.
