data_PCOD9493099
_publ_section_title
;
Structure prediction by ZEFSAII (Michael W. Deem and Ramdas Pophale) SiO2 
 PCOD9493099
Probable space group: C M M M
;
_chemical_formula_sum "Si O2"
_cell_formula_units_Z 52
_cell_length_a 10.046356
_cell_length_b 22.800556
_cell_length_c 12.594811
_cell_angle_alpha 90.000000
_cell_angle_beta 90.000000
_cell_angle_gamma 90.000000
_cell_volume 2884.998927
_symmetry_space_group_name_H-M "C M M M"
_symmetry_group_IT_number 65
_symmetry_cell_setting 'orthorhombic'
loop_
_space_group_symop_operation_xyz
x,y,z
-x,-y,z
x,-y,-z
-x,y,-z
-x,-y,-z
x,y,-z
-x,y,z
x,-y,z
1/2+x,1/2+y,z
1/2-x,1/2-y,z
1/2+x,1/2-y,-z
1/2-x,1/2+y,-z
1/2-x,1/2-y,-z
1/2+x,1/2+y,-z
1/2-x,1/2+y,z
1/2+x,1/2-y,z
loop_
_atom_site_type_symbol
_atom_site_label
_atom_site_fract_x
_atom_site_fract_y
_atom_site_fract_z
Si Si1 0.000000 0.570413 0.623748
Si Si2 0.154516 0.803552 0.874419
Si Si3 0.349207 0.695871 0.500000
Si Si4 0.710337 0.608063 0.307132
Si Si5 0.500000 0.500000 0.679537
O O1 0.135209 0.592274 0.677579
O O2 0.000000 0.500000 0.625347
O O3 0.000000 0.589341 0.500000
O O4 0.250000 0.750000 0.842310
O O5 0.185080 0.860594 0.805106
O O6 0.000000 0.787304 0.858010
O O7 0.174189 0.814426 0.000000
O O8 0.500000 0.718001 0.500000
O O9 0.250000 0.750000 0.500000
O O10 0.327136 0.655003 0.602294
O O11 0.616502 0.551628 0.320790
#
# Coordination Sequence:
#
# PCOD9493099 Si02
#       5
#     8  16   8  16   4
#     4  11  24  40  61  90 123 165 206 254 309 382
#     4  10  22  42  66  94 126 168 216 264 323 380
#     4  12  26  40  61  92 126 162 211 265 326 378
#     4  12  24  42  63  93 129 167 213 262 321 383
#     4  12  24  43  67  94 132 174 215 263 314 394
#
# _framework density 18.024270000000001
#
# number of rings (size 3 to 8) (size 9 to 14) (size 15 to 20)
#    0.000    0.769    6.154    0.923    4.308    1.231 
#    0.000    1.538    0.000    0.923    0.000    0.000 
#    0.000    0.000    0.000    0.000    0.000    0.000 
#
# Total GULP energy -144798.646603 kJ/mol
# GULP energy per Si atom -5569.178716 kJ/mol
# Density = 1.798325 g / cm^3
# Si number density = 18.024270 Si / 1000 Ang^3
#
#
#
# Elastic Constant Matrix: (Units=GPa)
#
#
# Indices 1 2 3 4 5 6 
#
# 1 207.0677 87.0045 45.6482 0.0000 0.0000 0.0000
# 2 87.0045 157.5151 50.5578 0.0000 0.0000 0.0000
# 3 45.6482 50.5578 54.4786 0.0000 0.0000 0.0000
# 4 0.0000 0.0000 0.0000 3.0930 0.0000 0.0000
# 5 0.0000 0.0000 0.0000 0.0000 29.8401 0.0000
# 6 0.0000 0.0000 0.0000 0.0000 0.0000 51.8884
#
#
#
# Elastic Compliance Matrix: (Units=1/GPa)
#
#
# Indices 1 2 3 4 5 6 
#
# 1 0.006631 -0.002677 -0.003072 0.000000 0.000000 0.000000
# 2 -0.002677 0.010122 -0.007151 0.000000 0.000000 0.000000
# 3 -0.003072 -0.007151 0.027567 0.000000 0.000000 0.000000
# 4 0.000000 0.000000 0.000000 0.323314 0.000000 0.000000
# 5 0.000000 0.000000 0.000000 0.000000 0.033512 0.000000
# 6 0.000000 0.000000 0.000000 0.000000 0.000000 0.019272
#
#
# Mechanical properties :
#
#
# Convention : Reuss Voigt Hill
#
# Bulk Modulus (GPa) = 53.99555 87.27580 70.63567
# Shear Modulus (GPa) = 11.05235 32.68769 21.87002
#
# Velocity S-wave (km/s) = 2.47896 4.26319 3.48712
# Velocity P-wave (km/s) = 6.18189 8.52991 7.44900
#
# Compressibility (1/GPa) = 0.01852005
#
# Stress axis : x y z
#
# Youngs Moduli (GPa) = 150.79918 98.79115 36.27581
#
# Poissons Ratio (x) = 0.26444 0.11145
# Poissons Ratio (y) = 0.40365 0.25941
# Poissons Ratio (z) = 0.46331 0.70646
#
# Static dielectric constant tensor:
#      x y z
#    x 1.616490 0.000000 0.000000 
#    y 0.000000 1.578510 0.000000 
#    z 0.000000 0.000000 1.632380 
# 
# From -- ./inp_files/35360.got.cif
#   From: 2010.05.17/outbox.cif.g08.bks.cpg/sg65_18_cif.got.tgz:35360.got - 2010.06.03 17:01:31.
