data_PCOD9493651
_publ_section_title
;
Structure prediction by ZEFSAII (Michael W. Deem and Ramdas Pophale) SiO2 
 PCOD9493651
Probable space group: C M M M
;
_chemical_formula_sum "Si O2"
_cell_formula_units_Z 96
_cell_length_a 22.199698
_cell_length_b 24.940276
_cell_length_c 7.993898
_cell_angle_alpha 90.000000
_cell_angle_beta 90.000000
_cell_angle_gamma 90.000000
_cell_volume 4425.954288
_symmetry_space_group_name_H-M "C M M M"
_symmetry_group_IT_number 65
_symmetry_cell_setting 'orthorhombic'
loop_
_space_group_symop_operation_xyz
x,y,z
-x,-y,z
x,-y,-z
-x,y,-z
-x,-y,-z
x,y,-z
-x,y,z
x,-y,z
1/2+x,1/2+y,z
1/2-x,1/2-y,z
1/2+x,1/2-y,-z
1/2-x,1/2+y,-z
1/2-x,1/2-y,-z
1/2+x,1/2+y,-z
1/2-x,1/2+y,z
1/2+x,1/2-y,z
loop_
_atom_site_type_symbol
_atom_site_label
_atom_site_fract_x
_atom_site_fract_y
_atom_site_fract_z
Si Si1 0.069229 0.558638 0.200217
Si Si2 0.621651 0.829721 0.689107
Si Si3 0.065786 0.102797 0.296441
Si Si4 0.247904 0.169106 0.808608
Si Si5 0.306428 0.440505 0.297324
Si Si6 0.620137 0.715316 0.703133
O O1 0.092089 0.500000 0.261520
O O2 0.105237 0.612579 0.238636
O O3 0.000000 0.564487 0.260207
O O4 0.067270 0.555509 0.000000
O O5 0.599470 0.831400 0.500000
O O6 0.693665 0.822286 0.696839
O O7 0.598807 0.773482 0.766214
O O8 0.064559 0.101882 0.500000
O O9 0.123499 0.067727 0.248992
O O10 0.080482 0.164103 0.245895
O O11 0.000000 0.085796 0.236510
O O12 0.229917 0.106958 0.787341
O O13 0.188360 0.201844 0.758698
O O14 0.263982 0.180845 0.000000
O O15 0.302503 0.433780 0.500000
O O16 0.285862 0.500000 0.254499
O O17 0.620106 0.716693 0.500000
#
# Coordination Sequence:
#
# PCOD9493651 Si02
#       6
#    16  16  16  16  16  16
#     4   9  20  40  61  80 108 144 177 213 260 313
#     4  11  22  35  56  83 108 137 175 218 262 313
#     4   8  14  27  49  76 104 133 167 208 252 299
#     4  11  22  35  53  76 105 140 177 219 267 318
#     4   9  18  33  52  74 103 139 177 217 261 309
#     4   9  19  35  53  76 108 141 173 214 263 312
#
# _framework density 21.690237
#
# number of rings (size 3 to 8) (size 9 to 14) (size 15 to 20)
#    0.000    2.500    0.000    4.000    0.000    6.000 
#    0.000    4.167    0.000    8.000    0.000    4.667 
#    0.000    0.000    0.000    0.000    0.000    0.000 
#
# Total GULP energy -267784.243417 kJ/mol
# GULP energy per Si atom -5578.838405 kJ/mol
# Density = 2.164087 g / cm^3
# Si number density = 21.690237 Si / 1000 Ang^3
#
#
#
# Elastic Constant Matrix: (Units=GPa)
#
#
# Indices 1 2 3 4 5 6 
#
# 1 8.6543 -12.5408 -8.0249 0.0000 0.0000 0.0000
# 2 -12.5408 134.2914 14.4301 0.0000 0.0000 0.0000
# 3 -8.0249 14.4301 27.2468 0.0000 0.0000 0.0000
# 4 0.0000 0.0000 0.0000 6.7705 0.0000 0.0000
# 5 0.0000 0.0000 0.0000 0.0000 13.1400 0.0000
# 6 0.0000 0.0000 0.0000 0.0000 0.0000 3.3755
#
#
#
# Elastic Compliance Matrix: (Units=1/GPa)
#
#
# Indices 1 2 3 4 5 6 
#
# 1 0.173973 0.011389 0.045208 0.000000 0.000000 0.000000
# 2 0.011389 0.008641 -0.001222 0.000000 0.000000 0.000000
# 3 0.045208 -0.001222 0.050664 0.000000 0.000000 0.000000
# 4 0.000000 0.000000 0.000000 0.147700 0.000000 0.000000
# 5 0.000000 0.000000 0.000000 0.000000 0.076104 0.000000
# 6 0.000000 0.000000 0.000000 0.000000 0.000000 0.296249
#
#
# Mechanical properties :
#
#
# Convention : Reuss Voigt Hill
#
# Bulk Modulus (GPa) = 2.90676 17.54682 10.22679
# Shear Modulus (GPa) = 6.60278 16.41241 11.50760
#
# Velocity S-wave (km/s) = 1.74664 2.75375 2.30585
# Velocity P-wave (km/s) = 2.32609 4.26827 3.43721
#
# Compressibility (1/GPa) = 0.34402580
#
# Stress axis : x y z
#
# Youngs Moduli (GPa) = 5.74803 115.72242 19.73804
#
# Poissons Ratio (x) = -1.31793 -0.89231
# Poissons Ratio (y) = -0.06546 0.02413
# Poissons Ratio (z) = -0.25985 0.14144
#
# Static dielectric constant tensor:
#      x y z
#    x 1.769160 0.000000 0.000000 
#    y 0.000000 1.823920 0.000000 
#    z 0.000000 0.000000 1.797320 
# 
# From -- ./inp_files/14304.got.cif
#   From: 2010.05.17/outbox.cif.g08.bks.cpg/sg65_8_cif.got.tgz:14304.got - 2010.06.03 17:01:31.
