data_PCOD9493394
_publ_section_title
;
Structure prediction by ZEFSAII (Michael W. Deem and Ramdas Pophale) SiO2 
 PCOD9493394
Probable space group: C M M M
;
_chemical_formula_sum "Si O2"
_cell_formula_units_Z 96
_cell_length_a 9.310209
_cell_length_b 26.127086
_cell_length_c 27.946645
_cell_angle_alpha 90.000000
_cell_angle_beta 90.000000
_cell_angle_gamma 90.000000
_cell_volume 6797.983143
_symmetry_space_group_name_H-M "C M M M"
_symmetry_group_IT_number 65
_symmetry_cell_setting 'orthorhombic'
loop_
_space_group_symop_operation_xyz
x,y,z
-x,-y,z
x,-y,-z
-x,y,-z
-x,-y,-z
x,y,-z
-x,y,z
x,-y,z
1/2+x,1/2+y,z
1/2-x,1/2-y,z
1/2+x,1/2-y,-z
1/2-x,1/2+y,-z
1/2-x,1/2-y,-z
1/2+x,1/2+y,-z
1/2-x,1/2+y,z
1/2+x,1/2-y,z
loop_
_atom_site_type_symbol
_atom_site_label
_atom_site_fract_x
_atom_site_fract_y
_atom_site_fract_z
Si Si1 0.827472 0.906684 0.109744
Si Si2 0.834779 0.437615 0.500000
Si Si3 0.328640 0.698217 0.055780
Si Si4 0.834487 0.562206 0.688420
Si Si5 0.670957 0.061475 0.796637
Si Si6 0.834995 0.937575 0.405140
Si Si7 0.669363 0.000000 0.057413
O O1 0.794156 0.851582 0.086836
O O2 0.765151 0.911778 0.163081
O O3 0.000000 0.914256 0.108779
O O4 0.748381 0.950574 0.079109
O O5 0.833708 0.500000 0.500000
O O6 0.753871 0.421313 0.548221
O O7 0.000000 0.421345 0.500000
O O8 0.500000 0.706018 0.057871
O O9 0.250000 0.750000 0.071275
O O10 0.290105 0.688613 0.000000
O O11 0.832807 0.500000 0.688379
O O12 0.791266 0.577127 0.742252
O O13 0.736621 0.579492 0.644563
O O14 0.000000 0.577488 0.680473
O O15 0.500000 0.070589 0.803410
O O16 0.692233 0.000000 0.800986
O O17 0.000000 0.921697 0.408633
O O18 0.832544 0.000000 0.404858
O O19 0.500000 0.000000 0.070824
O O20 0.679501 0.000000 0.000000
#
# Coordination Sequence:
#
# PCOD9493394 Si02
#       7
#    16   8  16  16  16  16   8
#     4  11  21  32  48  69  91 113 137 172 213 251
#     4   9  15  21  29  39  55  81 113 151 196 245
#     4   9  19  35  52  69  88 110 138 171 208 250
#     4   8  14  24  36  48  65  93 125 157 193 234
#     4   9  17  29  43  59  82 110 139 169 200 244
#     4   9  15  21  29  43  61  82 112 155 200 240
#     4  11  23  35  47  65  89 117 145 168 199 250
#
# _framework density 14.121835000000001
#
# number of rings (size 3 to 8) (size 9 to 14) (size 15 to 20)
#    0.000    2.667    0.833    3.000    0.000    6.333 
#    0.000    3.333    0.000    0.000    0.000    0.000 
#    0.000    0.000    0.000    0.000    0.000    0.000 
#
# Total GULP energy -267411.523005 kJ/mol
# GULP energy per Si atom -5571.073396 kJ/mol
# Density = 1.408969 g / cm^3
# Si number density = 14.121835 Si / 1000 Ang^3
#
#
#
# Elastic Constant Matrix: (Units=GPa)
#
#
# Indices 1 2 3 4 5 6 
#
# 1 95.5785 43.3699 82.6241 0.0000 0.0000 0.0000
# 2 43.3699 58.5408 45.5149 0.0000 0.0000 0.0000
# 3 82.6241 45.5149 131.2124 0.0000 0.0000 0.0000
# 4 0.0000 0.0000 0.0000 6.9497 0.0000 0.0000
# 5 0.0000 0.0000 0.0000 0.0000 25.1909 0.0000
# 6 0.0000 0.0000 0.0000 0.0000 0.0000 15.2743
#
#
#
# Elastic Compliance Matrix: (Units=1/GPa)
#
#
# Indices 1 2 3 4 5 6 
#
# 1 0.025981 -0.008939 -0.013259 0.000000 0.000000 0.000000
# 2 -0.008939 0.026466 -0.003552 0.000000 0.000000 0.000000
# 3 -0.013259 -0.003552 0.017203 0.000000 0.000000 0.000000
# 4 0.000000 0.000000 0.000000 0.143891 0.000000 0.000000
# 5 0.000000 0.000000 0.000000 0.000000 0.039697 0.000000
# 6 0.000000 0.000000 0.000000 0.000000 0.000000 0.065470
#
#
# Mechanical properties :
#
#
# Convention : Reuss Voigt Hill
#
# Bulk Modulus (GPa) = 55.09793 69.81661 62.45727
# Shear Modulus (GPa) = 13.28881 17.07118 15.17999
#
# Velocity S-wave (km/s) = 3.07092 3.48062 3.28217
# Velocity P-wave (km/s) = 7.18852 8.10550 7.66074
#
# Compressibility (1/GPa) = 0.01814950
#
# Stress axis : x y z
#
# Youngs Moduli (GPa) = 38.48954 37.78454 58.13049
#
# Poissons Ratio (x) = 0.33775 0.77078
# Poissons Ratio (y) = 0.34406 0.20646
# Poissons Ratio (z) = 0.51035 0.13420
#
# Static dielectric constant tensor:
#      x y z
#    x 1.471640 0.000000 0.000000 
#    y 0.000000 1.423820 0.000000 
#    z 0.000000 0.000000 1.478280 
# 
# From -- ./inp_files/73522.got.cif
#   From: 2010.05.17/outbox.cif.g08.bks.cpg/sg65_37_cif.got.tgz:73522.got - 2010.06.03 17:01:31.
