data_PCOD9493373
_publ_section_title
;
Structure prediction by ZEFSAII (Michael W. Deem and Ramdas Pophale) SiO2 
 PCOD9493373
Probable space group: C M M M
;
_chemical_formula_sum "Si O2"
_cell_formula_units_Z 72
_cell_length_a 18.028656
_cell_length_b 14.203655
_cell_length_c 16.970866
_cell_angle_alpha 90.000000
_cell_angle_beta 90.000000
_cell_angle_gamma 90.000000
_cell_volume 4345.777344
_symmetry_space_group_name_H-M "C M M M"
_symmetry_group_IT_number 65
_symmetry_cell_setting 'orthorhombic'
loop_
_space_group_symop_operation_xyz
x,y,z
-x,-y,z
x,-y,-z
-x,y,-z
-x,-y,-z
x,y,-z
-x,y,z
x,-y,z
1/2+x,1/2+y,z
1/2-x,1/2-y,z
1/2+x,1/2-y,-z
1/2-x,1/2+y,-z
1/2-x,1/2-y,-z
1/2+x,1/2+y,-z
1/2-x,1/2+y,z
1/2+x,1/2-y,z
loop_
_atom_site_type_symbol
_atom_site_label
_atom_site_fract_x
_atom_site_fract_y
_atom_site_fract_z
Si Si1 0.849282 0.612913 0.667308
Si Si2 0.584195 0.761774 0.798242
Si Si3 0.586478 0.885637 0.500000
Si Si4 0.829864 0.390687 0.908722
Si Si5 0.209950 0.109611 0.228403
O O1 0.857781 0.500000 0.673049
O O2 0.904302 0.663190 0.727981
O O3 0.870303 0.642934 0.579192
O O4 0.766460 0.633527 0.699984
O O5 0.500000 0.730333 0.803761
O O6 0.610264 0.817314 0.876303
O O7 0.640548 0.677598 0.778951
O O8 0.500000 0.854817 0.500000
O O9 0.585087 0.000000 0.500000
O O10 0.854622 0.500000 0.899796
O O11 0.759772 0.379386 0.850535
O O12 0.811685 0.375183 0.000000
O O13 0.189179 0.000000 0.235588
#
# Coordination Sequence:
#
# PCOD9493373 Si02
#       5
#    16  16   8  16  16
#     4   9  17  31  51  73  97 125 155 189 234 288
#     4  11  21  31  47  71  99 128 157 196 241 280
#     4   9  16  26  45  76 108 128 145 183 242 298
#     4   9  18  33  53  74  95 122 155 192 237 290
#     4   9  19  35  51  67  91 126 168 204 231 270
#
# _framework density 16.567806000000001
#
# number of rings (size 3 to 8) (size 9 to 14) (size 15 to 20)
#    0.000    2.556    0.000    5.333    0.000    5.333 
#    0.000    3.333    0.000    0.000    0.000    4.667 
#    0.000    7.111    0.000    0.000    0.000    0.000 
#
# Total GULP energy -200665.513898 kJ/mol
# GULP energy per Si atom -5574.042053 kJ/mol
# Density = 1.653010 g / cm^3
# Si number density = 16.567806 Si / 1000 Ang^3
#
#
#
# Elastic Constant Matrix: (Units=GPa)
#
#
# Indices 1 2 3 4 5 6 
#
# 1 127.4724 56.4830 54.6617 0.0000 0.0000 0.0000
# 2 56.4830 63.3465 34.4256 0.0000 0.0000 0.0000
# 3 54.6617 34.4256 121.5790 0.0000 0.0000 0.0000
# 4 0.0000 0.0000 0.0000 4.3333 0.0000 0.0000
# 5 0.0000 0.0000 0.0000 0.0000 4.1487 0.0000
# 6 0.0000 0.0000 0.0000 0.0000 0.0000 7.9176
#
#
#
# Elastic Compliance Matrix: (Units=1/GPa)
#
#
# Indices 1 2 3 4 5 6 
#
# 1 0.013981 -0.010696 -0.003257 0.000000 0.000000 0.000000
# 2 -0.010696 0.026840 -0.002791 0.000000 0.000000 0.000000
# 3 -0.003257 -0.002791 0.010480 0.000000 0.000000 0.000000
# 4 0.000000 0.000000 0.000000 0.230771 0.000000 0.000000
# 5 0.000000 0.000000 0.000000 0.000000 0.241039 0.000000
# 6 0.000000 0.000000 0.000000 0.000000 0.000000 0.126301
#
#
# Mechanical properties :
#
#
# Convention : Reuss Voigt Hill
#
# Bulk Modulus (GPa) = 56.14046 67.05983 61.60015
# Shear Modulus (GPa) = 7.25860 14.40176 10.83018
#
# Velocity S-wave (km/s) = 2.09539 2.95152 2.55951
# Velocity P-wave (km/s) = 6.30976 7.22352 6.78204
#
# Compressibility (1/GPa) = 0.01781246
#
# Stress axis : x y z
#
# Youngs Moduli (GPa) = 71.52594 37.25779 95.42158
#
# Poissons Ratio (x) = 0.39851 0.31081
# Poissons Ratio (y) = 0.76504 0.26632
# Poissons Ratio (z) = 0.23297 0.10399
#
# Static dielectric constant tensor:
#      x y z
#    x 1.545430 0.000000 0.000000 
#    y 0.000000 1.569570 0.000000 
#    z 0.000000 0.000000 1.566070 
# 
# From -- ./inp_files/42159.got.cif
#   From: 2010.05.17/outbox.cif.g08.bks.cpg/sg65_22_cif.got.tgz:42159.got - 2010.06.03 17:01:31.
