data_PCOD9493188
_publ_section_title
;
Structure prediction by ZEFSAII (Michael W. Deem and Ramdas Pophale) SiO2 
 PCOD9493188
Probable space group: C M M M
;
_chemical_formula_sum "Si O2"
_cell_formula_units_Z 72
_cell_length_a 13.684195
_cell_length_b 29.273368
_cell_length_c 9.559432
_cell_angle_alpha 90.000000
_cell_angle_beta 90.000000
_cell_angle_gamma 90.000000
_cell_volume 3829.340940
_symmetry_space_group_name_H-M "C M M M"
_symmetry_group_IT_number 65
_symmetry_cell_setting 'orthorhombic'
loop_
_space_group_symop_operation_xyz
x,y,z
-x,-y,z
x,-y,-z
-x,y,-z
-x,-y,-z
x,y,-z
-x,y,z
x,-y,z
1/2+x,1/2+y,z
1/2-x,1/2-y,z
1/2+x,1/2-y,-z
1/2-x,1/2+y,-z
1/2-x,1/2-y,-z
1/2+x,1/2+y,-z
1/2-x,1/2+y,z
1/2+x,1/2-y,z
loop_
_atom_site_type_symbol
_atom_site_label
_atom_site_fract_x
_atom_site_fract_y
_atom_site_fract_z
Si Si1 0.385586 0.235645 0.831708
Si Si2 0.282647 0.684393 0.328982
Si Si3 0.884099 0.000000 0.331772
Si Si4 0.883236 0.444261 0.000000
Si Si5 0.750403 0.082826 0.744707
Si Si6 0.110131 0.554833 0.500000
O O1 0.500000 0.225565 0.820693
O O2 0.359737 0.282990 0.751339
O O3 0.319263 0.200164 0.744086
O O4 0.361940 0.237032 0.000000
O O5 0.282767 0.689908 0.500000
O O6 0.296318 0.632002 0.285935
O O7 0.833172 0.044172 0.264879
O O8 0.864269 0.000000 0.500000
O O9 0.000000 0.000000 0.312338
O O10 0.820032 0.423441 0.875469
O O11 0.877219 0.500000 0.000000
O O12 0.000000 0.433349 0.000000
O O13 0.671959 0.072364 0.626755
O O14 0.108035 0.500000 0.500000
O O15 0.000000 0.571687 0.500000
#
# Coordination Sequence:
#
# PCOD9493188 Si02
#       6
#    16  16   8   8  16   8
#     4  10  23  43  65  91 123 161 205 255 314 377
#     4  11  23  39  65  93 124 163 204 259 315 366
#     4  11  22  41  66  91 125 171 213 255 306 357
#     4  11  24  40  62  91 128 172 210 254 317 376
#     4  12  22  41  60  94 129 163 210 261 308 365
#     4  11  20  36  62  87 124 168 208 250 307 370
#
# _framework density 18.802191000000001
#
# number of rings (size 3 to 8) (size 9 to 14) (size 15 to 20)
#    0.000    1.000    4.444    3.333    3.111    6.222 
#    0.000    1.111    0.000    0.000    0.000    0.000 
#    0.000    0.000    0.000    0.000    0.000    0.000 
#
# Total GULP energy -200686.675966 kJ/mol
# GULP energy per Si atom -5574.629888 kJ/mol
# Density = 1.875940 g / cm^3
# Si number density = 18.802191 Si / 1000 Ang^3
#
#
#
# Elastic Constant Matrix: (Units=GPa)
#
#
# Indices 1 2 3 4 5 6 
#
# 1 86.4264 5.4401 25.0676 0.0000 0.0000 0.0000
# 2 5.4401 111.1532 19.3293 0.0000 0.0000 0.0000
# 3 25.0676 19.3293 166.2234 0.0000 0.0000 0.0000
# 4 0.0000 0.0000 0.0000 25.4520 0.0000 0.0000
# 5 0.0000 0.0000 0.0000 0.0000 50.0792 0.0000
# 6 0.0000 0.0000 0.0000 0.0000 0.0000 -5.1427
#
#
#
# Elastic Compliance Matrix: (Units=1/GPa)
#
#
# Indices 1 2 3 4 5 6 
#
# 1 0.012108 -0.000281 -0.001793 0.000000 0.000000 0.000000
# 2 -0.000281 0.009189 -0.001026 0.000000 0.000000 0.000000
# 3 -0.001793 -0.001026 0.006406 0.000000 0.000000 0.000000
# 4 0.000000 0.000000 0.000000 0.039290 0.000000 0.000000
# 5 0.000000 0.000000 0.000000 0.000000 0.019968 0.000000
# 6 0.000000 0.000000 0.000000 0.000000 0.000000 -0.194451
#
#
# Mechanical properties :
#
#
# Convention : Reuss Voigt Hill
#
# Bulk Modulus (GPa) = 46.50656 51.49742 49.00199
# Shear Modulus (GPa) = -53.12229 35.00878 -9.05676
#
# Velocity S-wave (km/s) = -5.32114 4.31972 -2.19712
# Velocity P-wave (km/s) = 3.60061 7.23384 4.43644
#
# Compressibility (1/GPa) = 0.02150234
#
# Stress axis : x y z
#
# Youngs Moduli (GPa) = 82.58749 108.82833 156.10895
#
# Poissons Ratio (x) = 0.03055 0.27996
# Poissons Ratio (y) = 0.02319 0.16020
# Poissons Ratio (z) = 0.14811 0.11168
#
# Static dielectric constant tensor:
#      x y z
#    x 1.619320 0.000000 0.000000 
#    y 0.000000 1.644820 0.000000 
#    z 0.000000 0.000000 1.615550 
# 
# From -- ./inp_files/7409.got.cif
#   From: 2010.05.17/outbox.cif.g08.bks.cpg/sg65_4_cif.got.tgz:7409.got - 2010.06.03 17:01:31.
