data_PCOD9493667
_publ_section_title
;
Structure prediction by ZEFSAII (Michael W. Deem and Ramdas Pophale) SiO2 
 PCOD9493667
Probable space group: C M M M
;
_chemical_formula_sum "Si O2"
_cell_formula_units_Z 56
_cell_length_a 10.248071
_cell_length_b 27.741365
_cell_length_c 11.079780
_cell_angle_alpha 90.000000
_cell_angle_beta 90.000000
_cell_angle_gamma 90.000000
_cell_volume 3149.931353
_symmetry_space_group_name_H-M "C M M M"
_symmetry_group_IT_number 65
_symmetry_cell_setting 'orthorhombic'
loop_
_space_group_symop_operation_xyz
x,y,z
-x,-y,z
x,-y,-z
-x,y,-z
-x,-y,-z
x,y,-z
-x,y,z
x,-y,z
1/2+x,1/2+y,z
1/2-x,1/2-y,z
1/2+x,1/2-y,-z
1/2-x,1/2+y,-z
1/2-x,1/2-y,-z
1/2+x,1/2+y,-z
1/2-x,1/2+y,z
1/2+x,1/2-y,z
loop_
_atom_site_type_symbol
_atom_site_label
_atom_site_fract_x
_atom_site_fract_y
_atom_site_fract_z
Si Si1 0.246652 0.852258 0.744748
Si Si2 0.500000 0.308075 0.860641
Si Si3 0.000000 0.699321 0.147075
Si Si4 0.157115 0.443658 0.860410
Si Si5 0.161289 0.200732 0.500000
O O1 0.126057 0.837523 0.826791
O O2 0.373277 0.825823 0.798281
O O3 0.275911 0.908623 0.764167
O O4 0.206023 0.830809 0.615542
O O5 0.500000 0.254435 0.806136
O O6 0.500000 0.298204 0.000000
O O7 0.000000 0.695521 0.000000
O O8 0.189163 0.500000 0.844567
O O9 0.000000 0.438892 0.850247
O O10 0.190136 0.430054 0.000000
O O11 0.250000 0.250000 0.500000
O O12 0.000000 0.207877 0.500000
#
# Coordination Sequence:
#
# PCOD9493667 Si02
#       5
#    16   8   8  16   8
#     4  12  23  39  62  88 128 164 209 258 312 370
#     4  11  22  35  56  88 125 161 197 256 322 382
#     4  11  22  37  60  92 123 161 205 252 316 386
#     4   9  18  36  64  96 126 158 204 261 317 375
#     4  12  28  46  65  88 125 177 226 261 299 364
#
# _framework density 17.778165000000001
#
# number of rings (size 3 to 8) (size 9 to 14) (size 15 to 20)
#    0.000    1.143    2.857    6.000    2.000    2.286 
#    0.000    1.429    0.000    5.143    0.000    0.000 
#    0.000    0.000    0.000    0.000    0.000    0.000 
#
# Total GULP energy -156197.228305 kJ/mol
# GULP energy per Si atom -5578.472439 kJ/mol
# Density = 1.773770 g / cm^3
# Si number density = 17.778165 Si / 1000 Ang^3
#
#
#
# Elastic Constant Matrix: (Units=GPa)
#
#
# Indices 1 2 3 4 5 6 
#
# 1 137.0640 48.8016 40.7421 0.0000 0.0000 0.0000
# 2 48.8016 127.0826 48.0709 0.0000 0.0000 0.0000
# 3 40.7421 48.0709 85.0638 0.0000 0.0000 0.0000
# 4 0.0000 0.0000 0.0000 28.7093 0.0000 0.0000
# 5 0.0000 0.0000 0.0000 0.0000 -32.4006 0.0000
# 6 0.0000 0.0000 0.0000 0.0000 0.0000 4.2451
#
#
#
# Elastic Compliance Matrix: (Units=1/GPa)
#
#
# Indices 1 2 3 4 5 6 
#
# 1 0.009017 -0.002326 -0.003004 0.000000 0.000000 0.000000
# 2 -0.002326 0.010608 -0.004881 0.000000 0.000000 0.000000
# 3 -0.003004 -0.004881 0.015953 0.000000 0.000000 0.000000
# 4 0.000000 0.000000 0.000000 0.034832 0.000000 0.000000
# 5 0.000000 0.000000 0.000000 0.000000 -0.030864 0.000000
# 6 0.000000 0.000000 0.000000 0.000000 0.000000 0.235563
#
#
# Mechanical properties :
#
#
# Convention : Reuss Voigt Hill
#
# Bulk Modulus (GPa) = 65.98071 69.38219 67.68145
# Shear Modulus (GPa) = 16.63424 14.21715 15.42569
#
# Velocity S-wave (km/s) = 3.06217 2.83096 2.94883
# Velocity P-wave (km/s) = 7.04957 7.05671 7.05314
#
# Compressibility (1/GPa) = 0.01515594
#
# Stress axis : x y z
#
# Youngs Moduli (GPa) = 110.89985 94.26422 62.68417
#
# Poissons Ratio (x) = 0.21929 0.18832
# Poissons Ratio (y) = 0.25799 0.30595
# Poissons Ratio (z) = 0.33317 0.46009
#
# Static dielectric constant tensor:
#      x y z
#    x 1.585410 0.000000 0.000000 
#    y 0.000000 1.640430 0.000000 
#    z 0.000000 0.000000 1.627140 
# 
# From -- ./inp_files/20857.got.cif
#   From: 2010.05.17/outbox.cif.g08.bks.cpg/sg65_11_cif.got.tgz:20857.got - 2010.06.03 17:01:31.
