data_PCOD9493777
_publ_section_title
;
Structure prediction by ZEFSAII (Michael W. Deem and Ramdas Pophale) SiO2 
 PCOD9493777
Probable space group: C M M M
;
_chemical_formula_sum "Si O2"
_cell_formula_units_Z 56
_cell_length_a 14.761882
_cell_length_b 8.483932
_cell_length_c 21.402066
_cell_angle_alpha 90.000000
_cell_angle_beta 90.000000
_cell_angle_gamma 90.000000
_cell_volume 2680.369129
_symmetry_space_group_name_H-M "C M M M"
_symmetry_group_IT_number 65
_symmetry_cell_setting 'orthorhombic'
loop_
_space_group_symop_operation_xyz
x,y,z
-x,-y,z
x,-y,-z
-x,y,-z
-x,-y,-z
x,y,-z
-x,y,z
x,-y,z
1/2+x,1/2+y,z
1/2-x,1/2-y,z
1/2+x,1/2-y,-z
1/2-x,1/2+y,-z
1/2-x,1/2-y,-z
1/2+x,1/2+y,-z
1/2-x,1/2+y,z
1/2+x,1/2-y,z
loop_
_atom_site_type_symbol
_atom_site_label
_atom_site_fract_x
_atom_site_fract_y
_atom_site_fract_z
Si Si1 0.147422 0.312694 0.165855
Si Si2 0.645970 0.690865 0.567290
Si Si3 0.853967 0.810363 0.702473
Si Si4 0.500000 0.688884 0.071815
O O1 0.148791 0.500000 0.165383
O O2 0.250000 0.250000 0.160673
O O3 0.108558 0.256248 0.232931
O O4 0.086718 0.249206 0.109822
O O5 0.606703 0.741966 0.500000
O O6 0.645329 0.500000 0.567462
O O7 0.750000 0.750000 0.567146
O O8 0.606831 0.738998 0.634781
O O9 0.750000 0.750000 0.701450
O O10 0.855778 0.000000 0.706022
O O11 0.500000 0.500000 0.072509
O O12 0.500000 0.742894 0.000000
#
# Coordination Sequence:
#
# PCOD9493777 Si02
#       4
#    16  16  16   8
#     4  11  22  38  61  88 120 156 194 235 281 336
#     4   8  13  20  32  55  90 132 177 226 277 325
#     4   9  15  25  43  68 101 141 186 233 279 329
#     4  11  25  45  67  91 118 147 184 231 283 342
#
# _framework density 20.892644000000001
#
# number of rings (size 3 to 8) (size 9 to 14) (size 15 to 20)
#    0.000    2.429    0.000    5.571    0.000    2.857 
#    0.000    0.000    0.000    0.000    0.000    1.000 
#    0.000    8.000    0.000    0.000    0.000    0.286 
#
# Total GULP energy -156164.000618 kJ/mol
# GULP energy per Si atom -5577.285736 kJ/mol
# Density = 2.084509 g / cm^3
# Si number density = 20.892644 Si / 1000 Ang^3
#
#
#
# Elastic Constant Matrix: (Units=GPa)
#
#
# Indices 1 2 3 4 5 6 
#
# 1 93.2502 18.9623 68.7147 0.0000 0.0000 0.0000
# 2 18.9623 84.8959 63.2589 0.0000 0.0000 0.0000
# 3 68.7147 63.2589 278.5894 0.0000 0.0000 0.0000
# 4 0.0000 0.0000 0.0000 28.6651 0.0000 0.0000
# 5 0.0000 0.0000 0.0000 0.0000 90.8440 0.0000
# 6 0.0000 0.0000 0.0000 0.0000 0.0000 11.6007
#
#
#
# Elastic Compliance Matrix: (Units=1/GPa)
#
#
# Indices 1 2 3 4 5 6 
#
# 1 0.013133 -0.000626 -0.003097 0.000000 0.000000 0.000000
# 2 -0.000626 0.014208 -0.003072 0.000000 0.000000 0.000000
# 3 -0.003097 -0.003072 0.005051 0.000000 0.000000 0.000000
# 4 0.000000 0.000000 0.000000 0.034886 0.000000 0.000000
# 5 0.000000 0.000000 0.000000 0.000000 0.011008 0.000000
# 6 0.000000 0.000000 0.000000 0.000000 0.000000 0.086201
#
#
# Mechanical properties :
#
#
# Convention : Reuss Voigt Hill
#
# Bulk Modulus (GPa) = 53.18372 84.28972 68.73672
# Shear Modulus (GPa) = 27.12317 46.60860 36.86589
#
# Velocity S-wave (km/s) = 3.60699 4.72832 4.20520
# Velocity P-wave (km/s) = 6.54661 8.38100 7.51995
#
# Compressibility (1/GPa) = 0.01880275
#
# Stress axis : x y z
#
# Youngs Moduli (GPa) = 76.14155 70.38389 197.98051
#
# Poissons Ratio (x) = 0.04403 0.61322
# Poissons Ratio (y) = 0.04763 0.60817
# Poissons Ratio (z) = 0.23584 0.21621
#
# Static dielectric constant tensor:
#      x y z
#    x 2.285520 0.000000 0.000000 
#    y 0.000000 1.694340 0.000000 
#    z 0.000000 0.000000 1.807120 
# 
# From -- ./inp_files/58551.got.cif
#   From: 2010.05.17/outbox.cif.g08.bks.cpg/sg65_30_cif.got.tgz:58551.got - 2010.06.03 17:01:31.
