data_PCOD9493460
_publ_section_title
;
Structure prediction by ZEFSAII (Michael W. Deem and Ramdas Pophale) SiO2 
 PCOD9493460
Probable space group: C M M M
;
_chemical_formula_sum "Si O2"
_cell_formula_units_Z 56
_cell_length_a 16.347364
_cell_length_b 8.655726
_cell_length_c 19.575012
_cell_angle_alpha 90.000000
_cell_angle_beta 90.000000
_cell_angle_gamma 90.000000
_cell_volume 2769.830991
_symmetry_space_group_name_H-M "C M M M"
_symmetry_group_IT_number 65
_symmetry_cell_setting 'orthorhombic'
loop_
_space_group_symop_operation_xyz
x,y,z
-x,-y,z
x,-y,-z
-x,y,-z
-x,-y,-z
x,y,-z
-x,y,z
x,-y,z
1/2+x,1/2+y,z
1/2-x,1/2-y,z
1/2+x,1/2-y,-z
1/2-x,1/2+y,-z
1/2-x,1/2-y,-z
1/2+x,1/2+y,-z
1/2-x,1/2+y,z
1/2+x,1/2-y,z
loop_
_atom_site_type_symbol
_atom_site_label
_atom_site_fract_x
_atom_site_fract_y
_atom_site_fract_z
Si Si1 0.903401 0.327203 0.500000
Si Si2 0.341704 0.683450 0.639514
Si Si3 0.343391 0.814271 0.221284
Si Si4 0.156961 0.313295 0.073446
O O1 0.865684 0.500000 0.500000
O O2 0.879916 0.239836 0.568989
O O3 0.000000 0.341698 0.500000
O O4 0.340011 0.500000 0.642927
O O5 0.250000 0.750000 0.638539
O O6 0.381664 0.748175 0.709334
O O7 0.250000 0.750000 0.219626
O O8 0.380108 0.769115 0.147158
O O9 0.341227 0.000000 0.226245
O O10 0.160177 0.500000 0.073734
O O11 0.250000 0.250000 0.073191
O O12 0.119651 0.265634 0.000000
#
# Coordination Sequence:
#
# PCOD9493460 Si02
#       4
#     8  16  16  16
#     4  11  24  41  58  75  97 123 154 195 244 295
#     4  11  21  34  53  75 101 130 164 201 238 284
#     4   9  15  24  39  60  88 121 159 198 236 278
#     4   8  13  20  31  50  79 116 154 191 231 274
#
# _framework density 20.217841
#
# number of rings (size 3 to 8) (size 9 to 14) (size 15 to 20)
#    0.000    2.429    0.000    6.000    0.000    2.286 
#    0.000    0.000    0.000    0.000    0.000    0.000 
#    0.000    1.143    0.000   13.143    0.000    8.571 
#
# Total GULP energy -155952.633615 kJ/mol
# GULP energy per Si atom -5569.736915 kJ/mol
# Density = 2.017182 g / cm^3
# Si number density = 20.217841 Si / 1000 Ang^3
#
#
#
# Elastic Constant Matrix: (Units=GPa)
#
#
# Indices 1 2 3 4 5 6 
#
# 1 10.9287 5.9530 24.7834 0.0000 0.0000 0.0000
# 2 5.9530 113.0965 76.2681 0.0000 0.0000 0.0000
# 3 24.7834 76.2681 283.8975 0.0000 0.0000 0.0000
# 4 0.0000 0.0000 0.0000 36.2377 0.0000 0.0000
# 5 0.0000 0.0000 0.0000 0.0000 -20.9079 0.0000
# 6 0.0000 0.0000 0.0000 0.0000 0.0000 5.1883
#
#
#
# Elastic Compliance Matrix: (Units=1/GPa)
#
#
# Indices 1 2 3 4 5 6 
#
# 1 0.114157 0.000869 -0.010199 0.000000 0.000000 0.000000
# 2 0.000869 0.010805 -0.002979 0.000000 0.000000 0.000000
# 3 -0.010199 -0.002979 0.005213 0.000000 0.000000 0.000000
# 4 0.000000 0.000000 0.000000 0.027596 0.000000 0.000000
# 5 0.000000 0.000000 0.000000 0.000000 -0.047829 0.000000
# 6 0.000000 0.000000 0.000000 0.000000 0.000000 0.192742
#
#
# Mechanical properties :
#
#
# Convention : Reuss Voigt Hill
#
# Bulk Modulus (GPa) = 9.47349 69.10351 39.28850
# Shear Modulus (GPa) = 13.79362 24.16483 18.97922
#
# Velocity S-wave (km/s) = 2.61482 3.46095 3.06720
# Velocity P-wave (km/s) = 3.71649 7.08693 5.65848
#
# Compressibility (1/GPa) = 0.10555776
#
# Stress axis : x y z
#
# Youngs Moduli (GPa) = 8.75987 92.55056 191.83090
#
# Poissons Ratio (x) = -0.08043 1.95649
# Poissons Ratio (y) = -0.00761 0.57138
# Poissons Ratio (z) = 0.08934 0.27567
#
# Static dielectric constant tensor:
#      x y z
#    x 1.672460 0.000000 0.000000 
#    y 0.000000 1.739700 0.000000 
#    z 0.000000 0.000000 1.843010 
# 
# From -- ./inp_files/53901.got.cif
#   From: 2010.05.17/outbox.cif.g08.bks.cpg/sg65_27_cif.got.tgz:53901.got - 2010.06.03 17:01:31.
