data_PCOD9493239
_publ_section_title
;
Structure prediction by ZEFSAII (Michael W. Deem and Ramdas Pophale) SiO2 
 PCOD9493239
Probable space group: C M M M
;
_chemical_formula_sum "Si O2"
_cell_formula_units_Z 62
_cell_length_a 22.715934
_cell_length_b 15.488605
_cell_length_c 9.410479
_cell_angle_alpha 90.000000
_cell_angle_beta 90.000000
_cell_angle_gamma 90.000000
_cell_volume 3310.965324
_symmetry_space_group_name_H-M "C M M M"
_symmetry_group_IT_number 65
_symmetry_cell_setting 'orthorhombic'
loop_
_space_group_symop_operation_xyz
x,y,z
-x,-y,z
x,-y,-z
-x,y,-z
-x,-y,-z
x,y,-z
-x,y,z
x,-y,z
1/2+x,1/2+y,z
1/2-x,1/2-y,z
1/2+x,1/2-y,-z
1/2-x,1/2+y,-z
1/2-x,1/2-y,-z
1/2+x,1/2+y,-z
1/2-x,1/2+y,z
1/2+x,1/2-y,z
loop_
_atom_site_type_symbol
_atom_site_label
_atom_site_fract_x
_atom_site_fract_y
_atom_site_fract_z
Si Si1 0.798181 0.500000 0.000000
Si Si2 0.345345 0.599897 0.730217
Si Si3 0.210766 0.165005 0.000000
Si Si4 0.000000 0.500000 0.000000
Si Si5 0.101475 0.500000 0.241090
Si Si6 0.613434 0.874163 0.500000
Si Si7 0.429948 0.322870 0.500000
Si Si8 0.249184 0.145860 0.500000
O O1 0.755522 0.416547 0.000000
O O2 0.838777 0.500000 0.143668
O O3 0.352545 0.500000 0.770248
O O4 0.399864 0.631713 0.635985
O O5 0.287379 0.610842 0.632943
O O6 0.331499 0.658151 0.864769
O O7 0.250000 0.250000 0.000000
O O8 0.949100 0.500000 0.875277
O O9 0.095636 0.420561 0.352653
O O10 0.591111 0.776372 0.500000
O O11 0.683937 0.881574 0.500000
O O12 0.500000 0.329410 0.500000
O O13 0.250000 0.250000 0.500000
#
# Coordination Sequence:
#
# PCOD9493239 Si02
#       8
#     4  16   8   2   8   8   8   8
#     4  11  22  43  64 100 137 176 207 250 340 416
#     4  11  23  41  64  96 131 169 210 261 333 393
#     4  12  25  39  64  98 145 169 205 260 331 412
#     4  10  24  50  56  84 124 174 220 252 330 358
#     4  10  25  39  66  92 125 177 211 267 320 393
#     4  11  23  39  66  97 129 163 222 267 327 386
#     4  11  26  44  66  91 122 170 232 282 322 373
#     4  11  19  35  61  96 132 160 198 259 326 387
#
# _framework density 18.725656000000001
#
# number of rings (size 3 to 8) (size 9 to 14) (size 15 to 20)
#    0.000    1.032    3.871    3.871    9.032    1.548 
#    0.000    0.645    0.000    1.548    0.000    0.000 
#    0.000    0.000    0.000    0.000    0.000    0.000 
#
# Total GULP energy -172900.518353 kJ/mol
# GULP energy per Si atom -5577.436076 kJ/mol
# Density = 1.868304 g / cm^3
# Si number density = 18.725656 Si / 1000 Ang^3
#
#
#
# Elastic Constant Matrix: (Units=GPa)
#
#
# Indices 1 2 3 4 5 6 
#
# 1 144.6073 18.4121 51.0055 0.0000 0.0000 0.0000
# 2 18.4121 92.5867 9.8862 0.0000 0.0000 0.0000
# 3 51.0055 9.8862 143.0378 0.0000 0.0000 0.0000
# 4 0.0000 0.0000 0.0000 21.9505 0.0000 0.0000
# 5 0.0000 0.0000 0.0000 0.0000 -1.0579 0.0000
# 6 0.0000 0.0000 0.0000 0.0000 0.0000 1.0443
#
#
#
# Elastic Compliance Matrix: (Units=1/GPa)
#
#
# Indices 1 2 3 4 5 6 
#
# 1 0.008064 -0.001306 -0.002785 0.000000 0.000000 0.000000
# 2 -0.001306 0.011093 -0.000301 0.000000 0.000000 0.000000
# 3 -0.002785 -0.000301 0.008005 0.000000 0.000000 0.000000
# 4 0.000000 0.000000 0.000000 0.045557 0.000000 0.000000
# 5 0.000000 0.000000 0.000000 0.000000 -0.945262 0.000000
# 6 0.000000 0.000000 0.000000 0.000000 0.000000 0.957542
#
#
# Mechanical properties :
#
#
# Convention : Reuss Voigt Hill
#
# Bulk Modulus (GPa) = 54.41589 59.87105 57.14347
# Shear Modulus (GPa) = 50.04543 24.44926 37.24735
#
# Velocity S-wave (km/s) = 5.17529 3.61731 4.46478
# Velocity P-wave (km/s) = 8.05196 7.03482 7.56052
#
# Compressibility (1/GPa) = 0.01837699
#
# Stress axis : x y z
#
# Youngs Moduli (GPa) = 124.00796 90.15041 124.91981
#
# Poissons Ratio (x) = 0.11776 0.34793
# Poissons Ratio (y) = 0.16198 0.03759
# Poissons Ratio (z) = 0.34539 0.02713
#
# Static dielectric constant tensor:
#      x y z
#    x 1.620570 0.000000 0.000000 
#    y 0.000000 1.645760 0.000000 
#    z 0.000000 0.000000 -2.672390 
# 
# From -- ./inp_files/13472.got.cif
#   From: 2010.05.17/outbox.cif.g08.bks.cpg/sg65_7_cif.got.tgz:13472.got - 2010.06.03 17:01:31.
