data_PCOD9493977
_publ_section_title
;
Structure prediction by ZEFSAII (Michael W. Deem and Ramdas Pophale) SiO2 
 PCOD9493977
Probable space group: C M M M
;
_chemical_formula_sum "Si O2"
_cell_formula_units_Z 52
_cell_length_a 17.819397
_cell_length_b 16.952120
_cell_length_c 7.659048
_cell_angle_alpha 90.000000
_cell_angle_beta 90.000000
_cell_angle_gamma 90.000000
_cell_volume 2313.618844
_symmetry_space_group_name_H-M "C M M M"
_symmetry_group_IT_number 65
_symmetry_cell_setting 'orthorhombic'
loop_
_space_group_symop_operation_xyz
x,y,z
-x,-y,z
x,-y,-z
-x,y,-z
-x,-y,-z
x,y,-z
-x,y,z
x,-y,z
1/2+x,1/2+y,z
1/2-x,1/2-y,z
1/2+x,1/2-y,-z
1/2-x,1/2+y,-z
1/2-x,1/2-y,-z
1/2+x,1/2+y,-z
1/2-x,1/2+y,z
1/2+x,1/2-y,z
loop_
_atom_site_type_symbol
_atom_site_label
_atom_site_fract_x
_atom_site_fract_y
_atom_site_fract_z
Si Si1 0.081424 0.092066 0.289420
Si Si2 0.891951 0.592201 0.300761
Si Si3 0.740379 0.662135 0.204813
Si Si4 0.500000 0.850314 0.000000
O O1 0.081700 0.094691 0.500000
O O2 0.155058 0.135465 0.226655
O O3 0.000000 0.123541 0.229138
O O4 0.085709 0.000000 0.238214
O O5 0.914197 0.610149 0.500000
O O6 0.908935 0.500000 0.264574
O O7 0.802657 0.605909 0.287911
O O8 0.934875 0.642373 0.155108
O O9 0.750000 0.750000 0.277371
O O10 0.757360 0.663436 0.000000
#
# Coordination Sequence:
#
# PCOD9493977 Si02
#       4
#    16  16  16   4
#     4   9  19  38  64  92 121 155 202 261 319 377
#     4  11  23  40  66  95 124 166 214 259 315 378
#     4  11  24  41  59  87 128 169 210 259 317 378
#     4  12  23  42  66  94 130 162 207 270 313 362
#
# _framework density 22.475611000000001
#
# number of rings (size 3 to 8) (size 9 to 14) (size 15 to 20)
#    0.000    1.538    1.538    4.615    0.000    8.615 
#    2.769    1.538    0.000    0.000    0.000    0.000 
#    0.000    0.000    0.000    0.000    0.000    0.000 
#
# Total GULP energy -144870.439483 kJ/mol
# GULP energy per Si atom -5571.939980 kJ/mol
# Density = 2.242446 g / cm^3
# Si number density = 22.475611 Si / 1000 Ang^3
#
#
#
# Elastic Constant Matrix: (Units=GPa)
#
#
# Indices 1 2 3 4 5 6 
#
# 1 198.4973 37.5185 17.2825 0.0000 0.0000 0.0000
# 2 37.5185 31.4477 2.2888 0.0000 0.0000 0.0000
# 3 17.2825 2.2888 93.4576 0.0000 0.0000 0.0000
# 4 0.0000 0.0000 0.0000 -10.0486 0.0000 0.0000
# 5 0.0000 0.0000 0.0000 0.0000 36.9522 0.0000
# 6 0.0000 0.0000 0.0000 0.0000 0.0000 20.4014
#
#
#
# Elastic Compliance Matrix: (Units=1/GPa)
#
#
# Indices 1 2 3 4 5 6 
#
# 1 0.006602 -0.007802 -0.001030 0.000000 0.000000 0.000000
# 2 -0.007802 0.041075 0.000437 0.000000 0.000000 0.000000
# 3 -0.001030 0.000437 0.010880 0.000000 0.000000 0.000000
# 4 0.000000 0.000000 0.000000 -0.099516 0.000000 0.000000
# 5 0.000000 0.000000 0.000000 0.000000 0.027062 0.000000
# 6 0.000000 0.000000 0.000000 0.000000 0.000000 0.049016
#
#
# Mechanical properties :
#
#
# Convention : Reuss Voigt Hill
#
# Bulk Modulus (GPa) = 23.94219 48.62024 36.28122
# Shear Modulus (GPa) = 75.95210 27.21518 51.58364
#
# Velocity S-wave (km/s) = 5.81949 3.48354 4.79591
# Velocity P-wave (km/s) = 7.47201 6.15300 6.84436
#
# Compressibility (1/GPa) = 0.04176727
#
# Stress axis : x y z
#
# Youngs Moduli (GPa) = 151.46628 24.34580 91.91359
#
# Poissons Ratio (x) = 0.18994 0.09465
# Poissons Ratio (y) = 1.18169 -0.04014
# Poissons Ratio (z) = 0.15598 -0.01063
#
# Static dielectric constant tensor:
#      x y z
#    x 1.845900 0.000000 0.000000 
#    y 0.000000 1.846710 0.000000 
#    z 0.000000 0.000000 1.815910 
# 
# From -- ./inp_files/8375.got.cif
#   From: 2010.05.17/outbox.cif.g08.bks.cpg/sg65_5_cif.got.tgz:8375.got - 2010.06.03 17:01:31.
