data_PCOD9493046
_publ_section_title
;
Structure prediction by ZEFSAII (Michael W. Deem and Ramdas Pophale) SiO2 
 PCOD9493046
Probable space group: C M M M
;
_chemical_formula_sum "Si O2"
_cell_formula_units_Z 56
_cell_length_a 9.643745
_cell_length_b 15.060667
_cell_length_c 19.532813
_cell_angle_alpha 90.000000
_cell_angle_beta 90.000000
_cell_angle_gamma 90.000000
_cell_volume 2836.969826
_symmetry_space_group_name_H-M "C M M M"
_symmetry_group_IT_number 65
_symmetry_cell_setting 'orthorhombic'
loop_
_space_group_symop_operation_xyz
x,y,z
-x,-y,z
x,-y,-z
-x,y,-z
-x,-y,-z
x,y,-z
-x,y,z
x,-y,z
1/2+x,1/2+y,z
1/2-x,1/2-y,z
1/2+x,1/2-y,-z
1/2-x,1/2+y,-z
1/2-x,1/2-y,-z
1/2+x,1/2+y,-z
1/2-x,1/2+y,z
1/2+x,1/2-y,z
loop_
_atom_site_type_symbol
_atom_site_label
_atom_site_fract_x
_atom_site_fract_y
_atom_site_fract_z
Si Si1 0.000000 0.902564 0.100852
Si Si2 0.714621 0.898735 0.178979
Si Si3 0.666070 0.500000 0.576742
Si Si4 0.170286 0.836371 0.676201
Si Si5 0.500000 0.803836 0.921158
O O1 0.135507 0.904282 0.146108
O O2 0.000000 0.802784 0.071000
O O3 0.000000 0.000000 0.065700
O O4 0.747047 0.859390 0.253528
O O5 0.626178 0.839128 0.126163
O O6 0.659020 0.000000 0.183752
O O7 0.500000 0.500000 0.569968
O O8 0.725871 0.500000 0.500000
O O9 0.697070 0.414457 0.622420
O O10 0.250000 0.750000 0.649814
O O11 0.000000 0.827693 0.686354
O O12 0.500000 0.839878 0.000000
#
# Coordination Sequence:
#
# PCOD9493046 Si02
#       5
#     8  16   8  16   8
#     4  10  22  40  67  92 120 162 214 266 309 383
#     4  11  23  41  65  93 122 166 217 269 318 385
#     4   9  20  40  67 101 139 178 216 260 317 379
#     4  11  22  39  67 100 132 173 219 267 316 376
#     4  12  27  45  62  91 131 165 208 272 341 393
#
# _framework density 19.739371999999999
#
# number of rings (size 3 to 8) (size 9 to 14) (size 15 to 20)
#    0.000    1.286    2.857    3.000    2.000    4.286 
#    0.000    3.571    0.000    0.857    0.000    0.000 
#    0.000    0.000    0.000    0.000    0.000    0.000 
#
# Total GULP energy -155900.248805 kJ/mol
# GULP energy per Si atom -5567.866029 kJ/mol
# Density = 1.969444 g / cm^3
# Si number density = 19.739372 Si / 1000 Ang^3
#
#
#
# Elastic Constant Matrix: (Units=GPa)
#
#
# Indices 1 2 3 4 5 6 
#
# 1 100.0672 48.3767 47.5572 0.0000 0.0000 0.0000
# 2 48.3767 191.2079 77.8681 0.0000 0.0000 0.0000
# 3 47.5572 77.8681 158.1216 0.0000 0.0000 0.0000
# 4 0.0000 0.0000 0.0000 25.5848 0.0000 0.0000
# 5 0.0000 0.0000 0.0000 0.0000 20.6642 0.0000
# 6 0.0000 0.0000 0.0000 0.0000 0.0000 27.4653
#
#
#
# Elastic Compliance Matrix: (Units=1/GPa)
#
#
# Indices 1 2 3 4 5 6 
#
# 1 0.012242 -0.001999 -0.002698 0.000000 0.000000 0.000000
# 2 -0.001999 0.006868 -0.002781 0.000000 0.000000 0.000000
# 3 -0.002698 -0.002781 0.008505 0.000000 0.000000 0.000000
# 4 0.000000 0.000000 0.000000 0.039086 0.000000 0.000000
# 5 0.000000 0.000000 0.000000 0.000000 0.048393 0.000000
# 6 0.000000 0.000000 0.000000 0.000000 0.000000 0.036410
#
#
# Mechanical properties :
#
#
# Convention : Reuss Voigt Hill
#
# Bulk Modulus (GPa) = 78.98782 88.55562 83.77172
# Shear Modulus (GPa) = 29.29494 33.11583 31.20539
#
# Velocity S-wave (km/s) = 3.85656 4.10036 3.98033
# Velocity P-wave (km/s) = 7.74164 8.20836 7.97841
#
# Compressibility (1/GPa) = 0.01266018
#
# Stress axis : x y z
#
# Youngs Moduli (GPa) = 81.68922 145.59890 117.57529
#
# Poissons Ratio (x) = 0.29099 0.31717
# Poissons Ratio (y) = 0.16326 0.32700
# Poissons Ratio (z) = 0.22036 0.40494
#
# Static dielectric constant tensor:
#      x y z
#    x 1.671610 0.000000 0.000000 
#    y 0.000000 1.782560 0.000000 
#    z 0.000000 0.000000 1.718580 
# 
# From -- ./inp_files/58615.got.cif
#   From: 2010.05.17/outbox.cif.g08.bks.cpg/sg65_30_cif.got.tgz:58615.got - 2010.06.03 17:01:31.
