data_PCOD9493532
_publ_section_title
;
Structure prediction by ZEFSAII (Michael W. Deem and Ramdas Pophale) SiO2 
 PCOD9493532
Probable space group: C M M M
;
_chemical_formula_sum "Si O2"
_cell_formula_units_Z 72
_cell_length_a 10.506717
_cell_length_b 15.611946
_cell_length_c 21.100815
_cell_angle_alpha 90.000000
_cell_angle_beta 90.000000
_cell_angle_gamma 90.000000
_cell_volume 3461.172982
_symmetry_space_group_name_H-M "C M M M"
_symmetry_group_IT_number 65
_symmetry_cell_setting 'orthorhombic'
loop_
_space_group_symop_operation_xyz
x,y,z
-x,-y,z
x,-y,-z
-x,y,-z
-x,-y,-z
x,y,-z
-x,y,z
x,-y,z
1/2+x,1/2+y,z
1/2-x,1/2-y,z
1/2+x,1/2-y,-z
1/2-x,1/2+y,-z
1/2-x,1/2-y,-z
1/2+x,1/2+y,-z
1/2-x,1/2+y,z
1/2+x,1/2-y,z
loop_
_atom_site_type_symbol
_atom_site_label
_atom_site_fract_x
_atom_site_fract_y
_atom_site_fract_z
Si Si1 0.500000 0.170495 0.297282
Si Si2 0.244083 0.645364 0.072669
Si Si3 0.000000 0.347245 0.847104
Si Si4 0.500000 0.362127 0.142996
Si Si5 0.500000 0.625925 0.712104
Si Si6 0.744573 0.901760 0.633255
Si Si7 0.647522 0.394994 0.500000
O O1 0.500000 0.130113 0.226883
O O2 0.500000 0.271750 0.289370
O O3 0.628330 0.145914 0.333849
O O4 0.250000 0.750000 0.071791
O O5 0.374112 0.614383 0.104375
O O6 0.124808 0.621841 0.116201
O O7 0.229938 0.617478 0.000000
O O8 0.000000 0.242576 0.851391
O O9 0.500000 0.398242 0.214035
O O10 0.627709 0.598491 0.675805
O O11 0.783585 0.867000 0.564246
O O12 0.703563 0.000000 0.625000
O O13 0.646188 0.500000 0.500000
O O14 0.500000 0.367877 0.500000
#
# Coordination Sequence:
#
# PCOD9493532 Si02
#       7
#     8  16   8   8   8  16   8
#     4  11  23  37  54  86 123 148 177 230 290 331
#     4   9  15  24  40  64  96 137 180 218 261 318
#     4   9  17  29  43  64 104 146 171 206 274 338
#     4   9  17  27  43  68 102 138 173 220 274 320
#     4  11  21  37  58  82 115 156 187 218 282 349
#     4  11  22  39  62  84 110 146 191 232 272 330
#     4   9  18  37  62  84 107 144 188 230 277 330
#
# _framework density 20.802197
#
# number of rings (size 3 to 8) (size 9 to 14) (size 15 to 20)
#    0.000    2.111    1.111    3.333    0.000    6.667 
#    0.000    5.000    0.000    0.000    0.000    0.000 
#    0.000   62.222    0.000    0.000    0.000    0.000 
#
# Total GULP energy -201199.923248 kJ/mol
# GULP energy per Si atom -5588.886757 kJ/mol
# Density = 2.075485 g / cm^3
# Si number density = 20.802197 Si / 1000 Ang^3
#
#
#
# Elastic Constant Matrix: (Units=GPa)
#
#
# Indices 1 2 3 4 5 6 
#
# 1 189.3987 15.8921 112.7751 0.0000 0.0000 0.0000
# 2 15.8921 39.4512 15.6625 0.0000 0.0000 0.0000
# 3 112.7751 15.6625 223.2801 0.0000 0.0000 0.0000
# 4 0.0000 0.0000 0.0000 32.9485 0.0000 0.0000
# 5 0.0000 0.0000 0.0000 0.0000 42.5105 0.0000
# 6 0.0000 0.0000 0.0000 0.0000 0.0000 23.1118
#
#
#
# Elastic Compliance Matrix: (Units=1/GPa)
#
#
# Indices 1 2 3 4 5 6 
#
# 1 0.007647 -0.001591 -0.003751 0.000000 0.000000 0.000000
# 2 -0.001591 0.026405 -0.001049 0.000000 0.000000 0.000000
# 3 -0.003751 -0.001049 0.006447 0.000000 0.000000 0.000000
# 4 0.000000 0.000000 0.000000 0.030350 0.000000 0.000000
# 5 0.000000 0.000000 0.000000 0.000000 0.023524 0.000000
# 6 0.000000 0.000000 0.000000 0.000000 0.000000 0.043268
#
#
# Mechanical properties :
#
#
# Convention : Reuss Voigt Hill
#
# Bulk Modulus (GPa) = 36.07823 82.30992 59.19408
# Shear Modulus (GPa) = 31.31656 40.23420 35.77538
#
# Velocity S-wave (km/s) = 3.88422 4.40265 4.15153
# Velocity P-wave (km/s) = 6.12350 8.09310 7.17619
#
# Compressibility (1/GPa) = 0.02771754
#
# Stress axis : x y z
#
# Youngs Moduli (GPa) = 130.77698 37.87155 155.12125
#
# Poissons Ratio (x) = 0.06026 0.58179
# Poissons Ratio (y) = 0.20810 0.16265
# Poissons Ratio (z) = 0.49049 0.03971
#
# Static dielectric constant tensor:
#      x y z
#    x 1.693810 0.000000 0.000000 
#    y 0.000000 1.791060 0.000000 
#    z 0.000000 0.000000 1.723450 
# 
# From -- ./inp_files/59446.got.cif
#   From: 2010.05.17/outbox.cif.g08.bks.cpg/sg65_30_cif.got.tgz:59446.got - 2010.06.03 17:01:31.
