data_PCOD9493197
_publ_section_title
;
Structure prediction by ZEFSAII (Michael W. Deem and Ramdas Pophale) SiO2 
 PCOD9493197
Probable space group: C M M M
;
_chemical_formula_sum "Si O2"
_cell_formula_units_Z 112
_cell_length_a 14.711354
_cell_length_b 14.739546
_cell_length_c 24.196676
_cell_angle_alpha 90.000000
_cell_angle_beta 90.000000
_cell_angle_gamma 90.000000
_cell_volume 5246.775260
_symmetry_space_group_name_H-M "C M M M"
_symmetry_group_IT_number 65
_symmetry_cell_setting 'orthorhombic'
loop_
_space_group_symop_operation_xyz
x,y,z
-x,-y,z
x,-y,-z
-x,y,-z
-x,-y,-z
x,y,-z
-x,y,z
x,-y,z
1/2+x,1/2+y,z
1/2-x,1/2-y,z
1/2+x,1/2-y,-z
1/2-x,1/2+y,-z
1/2-x,1/2-y,-z
1/2+x,1/2+y,-z
1/2-x,1/2+y,z
1/2+x,1/2-y,z
loop_
_atom_site_type_symbol
_atom_site_label
_atom_site_fract_x
_atom_site_fract_y
_atom_site_fract_z
Si Si1 0.719054 0.895668 0.900261
Si Si2 0.107333 0.393305 0.671782
Si Si3 0.394924 0.399959 0.399484
Si Si4 0.099712 0.893774 0.283634
Si Si5 0.606611 0.720093 0.065610
Si Si6 0.146913 0.283070 0.440460
Si Si7 0.771577 0.647036 0.779322
O O1 0.649597 0.820960 0.925427
O O2 0.820286 0.850943 0.908090
O O3 0.694747 0.898177 0.835066
O O4 0.715974 0.000000 0.921361
O O5 0.129061 0.500000 0.664240
O O6 0.124677 0.341555 0.613689
O O7 0.164134 0.360777 0.725426
O O8 0.000000 0.383679 0.683634
O O9 0.500000 0.412312 0.385253
O O10 0.358381 0.500000 0.416020
O O11 0.355198 0.362285 0.341514
O O12 0.397109 0.316374 0.439993
O O13 0.172031 0.887795 0.236194
O O14 0.000000 0.852587 0.272816
O O15 0.089449 0.000000 0.293658
O O16 0.500000 0.714497 0.084501
O O17 0.607073 0.702287 0.000000
O O18 0.128950 0.328915 0.500000
O O19 0.250000 0.250000 0.437798
O O20 0.750000 0.750000 0.792960
#
# Coordination Sequence:
#
# PCOD9493197 Si02
#       7
#    16  16  16  16  16  16  16
#     4  11  23  42  67 100 142 185 231 287 349 409
#     4  11  25  43  63  88 120 165 219 268 319 387
#     4   9  18  34  56  82 111 142 182 237 302 375
#     4   9  18  33  55  83 114 152 197 244 305 385
#     4  10  23  45  70 101 143 188 237 290 340 397
#     4  11  24  40  59  84 115 153 201 260 324 388
#     4  12  23  39  62  91 130 169 207 266 332 389
#
# _framework density 21.346446
#
# number of rings (size 3 to 8) (size 9 to 14) (size 15 to 20)
#    0.000    1.571    1.429    5.571    0.000    8.000 
#    0.000    4.286    0.000    0.000    0.000    0.000 
#    0.000    0.000    0.000    0.000    0.000    0.000 
#
# Total GULP energy -311887.528939 kJ/mol
# GULP energy per Si atom -5569.420160 kJ/mol
# Density = 2.129786 g / cm^3
# Si number density = 21.346446 Si / 1000 Ang^3
#
#
#
# Elastic Constant Matrix: (Units=GPa)
#
#
# Indices 1 2 3 4 5 6 
#
# 1 84.2777 11.6434 17.0886 0.0000 0.0000 0.0000
# 2 11.6434 100.0090 12.1443 0.0000 0.0000 0.0000
# 3 17.0886 12.1443 99.3205 0.0000 0.0000 0.0000
# 4 0.0000 0.0000 0.0000 23.5125 0.0000 0.0000
# 5 0.0000 0.0000 0.0000 0.0000 20.7542 0.0000
# 6 0.0000 0.0000 0.0000 0.0000 0.0000 21.4505
#
#
#
# Elastic Compliance Matrix: (Units=1/GPa)
#
#
# Indices 1 2 3 4 5 6 
#
# 1 0.012436 -0.001206 -0.001992 0.000000 0.000000 0.000000
# 2 -0.001206 0.010267 -0.001048 0.000000 0.000000 0.000000
# 3 -0.001992 -0.001048 0.010539 0.000000 0.000000 0.000000
# 4 0.000000 0.000000 0.000000 0.042531 0.000000 0.000000
# 5 0.000000 0.000000 0.000000 0.000000 0.048183 0.000000
# 6 0.000000 0.000000 0.000000 0.000000 0.000000 0.046619
#
#
# Mechanical properties :
#
#
# Convention : Reuss Voigt Hill
#
# Bulk Modulus (GPa) = 40.40393 40.59555 40.49974
# Shear Modulus (GPa) = 26.69273 29.32549 28.00911
#
# Velocity S-wave (km/s) = 3.54001 3.71049 3.62625
# Velocity P-wave (km/s) = 5.97308 6.11684 6.04539
#
# Compressibility (1/GPa) = 0.02475007
#
# Stress axis : x y z
#
# Youngs Moduli (GPa) = 80.41103 97.40182 94.88283
#
# Poissons Ratio (x) = 0.11746 0.18903
# Poissons Ratio (y) = 0.09697 0.09942
# Poissons Ratio (z) = 0.16020 0.10206
#
# Static dielectric constant tensor:
#      x y z
#    x 1.778090 0.000000 0.000000 
#    y 0.000000 1.821150 0.000000 
#    z 0.000000 0.000000 1.850130 
# 
# From -- ./inp_files/69994.got.cif
#   From: 2010.05.17/outbox.cif.g08.bks.cpg/sg65_35_cif.got.tgz:69994.got - 2010.06.03 17:01:31.
