data_PCOD9493760
_publ_section_title
;
Structure prediction by ZEFSAII (Michael W. Deem and Ramdas Pophale) SiO2 
 PCOD9493760
Probable space group: C M M M
;
_chemical_formula_sum "Si O2"
_cell_formula_units_Z 64
_cell_length_a 26.679754
_cell_length_b 15.251268
_cell_length_c 8.397440
_cell_angle_alpha 90.000000
_cell_angle_beta 90.000000
_cell_angle_gamma 90.000000
_cell_volume 3416.918995
_symmetry_space_group_name_H-M "C M M M"
_symmetry_group_IT_number 65
_symmetry_cell_setting 'orthorhombic'
loop_
_space_group_symop_operation_xyz
x,y,z
-x,-y,z
x,-y,-z
-x,y,-z
-x,-y,-z
x,y,-z
-x,y,z
x,-y,z
1/2+x,1/2+y,z
1/2-x,1/2-y,z
1/2+x,1/2-y,-z
1/2-x,1/2+y,-z
1/2-x,1/2-y,-z
1/2+x,1/2+y,-z
1/2-x,1/2+y,z
1/2+x,1/2-y,z
loop_
_atom_site_type_symbol
_atom_site_label
_atom_site_fract_x
_atom_site_fract_y
_atom_site_fract_z
Si Si1 0.330748 0.500000 0.311082
Si Si2 0.056589 0.500000 0.194198
Si Si3 0.606907 0.665789 0.809067
Si Si4 0.363273 0.857569 0.193919
Si Si5 0.717459 0.000000 0.806847
Si Si6 0.500000 0.397778 0.309193
O O1 0.335341 0.500000 0.500000
O O2 0.358820 0.585380 0.244945
O O3 0.272916 0.500000 0.260584
O O4 0.088482 0.584949 0.241788
O O5 0.000000 0.500000 0.252586
O O6 0.055392 0.500000 0.000000
O O7 0.629933 0.758207 0.751274
O O8 0.550484 0.648936 0.749554
O O9 0.605573 0.668043 0.000000
O O10 0.314683 0.914088 0.242423
O O11 0.362156 0.856440 0.000000
O O12 0.719950 0.000000 0.000000
O O13 0.500000 0.500000 0.254414
O O14 0.500000 0.398533 0.500000
#
# Coordination Sequence:
#
# PCOD9493760 Si02
#       6
#     8   8  16  16   8   8
#     4  12  25  40  56  80 113 151 193 233 285 342
#     4   8  13  24  46  78 117 146 169 217 284 333
#     4  11  22  37  60  88 113 145 192 237 279 330
#     4   8  17  32  54  86 115 142 181 233 282 328
#     4   9  18  39  63  84 114 147 184 234 288 332
#     4  11  23  39  57  80 118 157 187 228 282 336
#
# _framework density 18.730325000000001
#
# number of rings (size 3 to 8) (size 9 to 14) (size 15 to 20)
#    0.000    2.250    1.250    3.750    1.750    1.500 
#    0.000    7.500    0.000    0.000    0.000    1.750 
#    0.000    0.000    0.000    0.000    0.000    0.000 
#
# Total GULP energy -178600.245391 kJ/mol
# GULP energy per Si atom -5581.257668 kJ/mol
# Density = 1.868769 g / cm^3
# Si number density = 18.730325 Si / 1000 Ang^3
#
#
#
# Elastic Constant Matrix: (Units=GPa)
#
#
# Indices 1 2 3 4 5 6 
#
# 1 175.3166 94.6890 23.2672 0.0000 0.0000 0.0000
# 2 94.6890 195.8047 25.3069 0.0000 0.0000 0.0000
# 3 23.2672 25.3069 36.4338 0.0000 0.0000 0.0000
# 4 0.0000 0.0000 0.0000 -11.2976 0.0000 0.0000
# 5 0.0000 0.0000 0.0000 0.0000 -35.8950 0.0000
# 6 0.0000 0.0000 0.0000 0.0000 0.0000 -10.2336
#
#
#
# Elastic Compliance Matrix: (Units=1/GPa)
#
#
# Indices 1 2 3 4 5 6 
#
# 1 0.007945 -0.003501 -0.002642 0.000000 0.000000 0.000000
# 2 -0.003501 0.007153 -0.002733 0.000000 0.000000 0.000000
# 3 -0.002642 -0.002733 0.031033 0.000000 0.000000 0.000000
# 4 0.000000 0.000000 0.000000 -0.088515 0.000000 0.000000
# 5 0.000000 0.000000 0.000000 0.000000 -0.027859 0.000000
# 6 0.000000 0.000000 0.000000 0.000000 0.000000 -0.097718
#
#
# Mechanical properties :
#
#
# Convention : Reuss Voigt Hill
#
# Bulk Modulus (GPa) = 35.23711 77.12014 56.17863
# Shear Modulus (GPa) = -35.52464 6.13425 -14.69520
#
# Velocity S-wave (km/s) = -4.35977 1.81167 -2.80405
# Velocity P-wave (km/s) = 2.54749 6.75570 4.42435
#
# Compressibility (1/GPa) = 0.02837917
#
# Stress axis : x y z
#
# Youngs Moduli (GPa) = 125.85810 139.79541 32.22384
#
# Poissons Ratio (x) = 0.48940 0.08515
# Poissons Ratio (y) = 0.44061 0.08807
# Poissons Ratio (z) = 0.33257 0.38206
#
# Static dielectric constant tensor:
#      x y z
#    x 1.615940 0.000000 0.000000 
#    y 0.000000 1.858290 0.000000 
#    z 0.000000 0.000000 1.638160 
# 
# From -- ./inp_files/13421.got.cif
#   From: 2010.05.17/outbox.cif.g08.bks.cpg/sg65_7_cif.got.tgz:13421.got - 2010.06.03 17:01:31.
