data_PCOD9493927
_publ_section_title
;
Structure prediction by ZEFSAII (Michael W. Deem and Ramdas Pophale) SiO2 
 PCOD9493927
Probable space group: C M M M
;
_chemical_formula_sum "Si O2"
_cell_formula_units_Z 64
_cell_length_a 14.779911
_cell_length_b 30.906836
_cell_length_c 8.467063
_cell_angle_alpha 90.000000
_cell_angle_beta 90.000000
_cell_angle_gamma 90.000000
_cell_volume 3867.756795
_symmetry_space_group_name_H-M "C M M M"
_symmetry_group_IT_number 65
_symmetry_cell_setting 'orthorhombic'
loop_
_space_group_symop_operation_xyz
x,y,z
-x,-y,z
x,-y,-z
-x,y,-z
-x,-y,-z
x,y,-z
-x,y,z
x,-y,z
1/2+x,1/2+y,z
1/2-x,1/2-y,z
1/2+x,1/2-y,-z
1/2-x,1/2+y,-z
1/2-x,1/2-y,-z
1/2+x,1/2+y,-z
1/2-x,1/2+y,z
1/2+x,1/2-y,z
loop_
_atom_site_type_symbol
_atom_site_label
_atom_site_fract_x
_atom_site_fract_y
_atom_site_fract_z
Si Si1 0.500000 0.815540 0.680206
Si Si2 0.000000 0.223349 0.183348
Si Si3 0.105818 0.450271 0.690276
Si Si4 0.697465 0.705403 0.311341
Si Si5 0.330827 0.135868 0.815062
O O1 0.500000 0.799371 0.500000
O O2 0.500000 0.775146 0.796531
O O3 0.588052 0.843732 0.712758
O O4 0.907288 0.208303 0.264475
O O5 0.000000 0.211302 0.000000
O O6 0.111186 0.446246 0.500000
O O7 0.127071 0.500000 0.731415
O O8 0.168706 0.414567 0.770189
O O9 0.000000 0.442525 0.734213
O O10 0.706989 0.701677 0.500000
O O11 0.750000 0.750000 0.263887
O O12 0.744220 0.664388 0.229483
O O13 0.350715 0.140687 0.000000
#
# Coordination Sequence:
#
# PCOD9493927 Si02
#       5
#     8   8  16  16  16
#     4  12  22  34  51  73 106 147 185 217 260 321
#     4  12  24  38  56  79 108 137 178 232 274 308
#     4   9  18  33  53  76 106 144 181 217 263 323
#     4  11  23  38  57  77 105 146 185 218 261 322
#     4  12  23  34  52  80 109 141 181 227 271 312
#
# _framework density 16.547059000000001
#
# number of rings (size 3 to 8) (size 9 to 14) (size 15 to 20)
#    0.000    1.000    3.750    6.000    0.000    1.500 
#    0.000    1.250    0.000    0.000    0.000    0.875 
#    0.000    7.000    0.000    0.000    0.000    0.000 
#
# Total GULP energy -178779.324173 kJ/mol
# GULP energy per Si atom -5586.853880 kJ/mol
# Density = 1.650940 g / cm^3
# Si number density = 16.547059 Si / 1000 Ang^3
#
#
#
# Elastic Constant Matrix: (Units=GPa)
#
#
# Indices 1 2 3 4 5 6 
#
# 1 89.3133 41.1122 9.3851 0.0000 0.0000 0.0000
# 2 41.1122 110.5990 18.6913 0.0000 0.0000 0.0000
# 3 9.3851 18.6913 54.7805 0.0000 0.0000 0.0000
# 4 0.0000 0.0000 0.0000 19.6616 0.0000 0.0000
# 5 0.0000 0.0000 0.0000 0.0000 -92.0901 0.0000
# 6 0.0000 0.0000 0.0000 0.0000 0.0000 13.3891
#
#
#
# Elastic Compliance Matrix: (Units=1/GPa)
#
#
# Indices 1 2 3 4 5 6 
#
# 1 0.013529 -0.004921 -0.000639 0.000000 0.000000 0.000000
# 2 -0.004921 0.011385 -0.003042 0.000000 0.000000 0.000000
# 3 -0.000639 -0.003042 0.019402 0.000000 0.000000 0.000000
# 4 0.000000 0.000000 0.000000 0.050861 0.000000 0.000000
# 5 0.000000 0.000000 0.000000 0.000000 -0.010859 0.000000
# 6 0.000000 0.000000 0.000000 0.000000 0.000000 0.074688
#
#
# Mechanical properties :
#
#
# Convention : Reuss Voigt Hill
#
# Bulk Modulus (GPa) = 36.88245 43.67444 40.27844
# Shear Modulus (GPa) = 26.99121 0.55906 13.77513
#
# Velocity S-wave (km/s) = 4.04317 0.58189 2.88841
# Velocity P-wave (km/s) = 6.64335 5.18679 5.95974
#
# Compressibility (1/GPa) = 0.02711317
#
# Stress axis : x y z
#
# Youngs Moduli (GPa) = 73.91593 87.83519 51.54147
#
# Poissons Ratio (x) = 0.43224 0.03292
# Poissons Ratio (y) = 0.36374 0.15676
# Poissons Ratio (z) = 0.04721 0.26715
#
# Static dielectric constant tensor:
#      x y z
#    x 1.567450 0.000000 0.000000 
#    y 0.000000 1.564920 0.000000 
#    z 0.000000 0.000000 1.549250 
# 
# From -- ./inp_files/4955.got.cif
#   From: 2010.05.17/outbox.cif.g08.bks.cpg/sg65_3_cif.got.tgz:4955.got - 2010.06.03 17:01:31.
