data_PCOD9493984
_publ_section_title
;
Structure prediction by ZEFSAII (Michael W. Deem and Ramdas Pophale) SiO2 
 PCOD9493984
Probable space group: C M M M
;
_chemical_formula_sum "Si O2"
_cell_formula_units_Z 72
_cell_length_a 18.212982
_cell_length_b 9.840367
_cell_length_c 22.136549
_cell_angle_alpha 90.000000
_cell_angle_beta 90.000000
_cell_angle_gamma 90.000000
_cell_volume 3967.366038
_symmetry_space_group_name_H-M "C M M M"
_symmetry_group_IT_number 65
_symmetry_cell_setting 'orthorhombic'
loop_
_space_group_symop_operation_xyz
x,y,z
-x,-y,z
x,-y,-z
-x,y,-z
-x,-y,-z
x,y,-z
-x,y,z
x,-y,z
1/2+x,1/2+y,z
1/2-x,1/2-y,z
1/2+x,1/2-y,-z
1/2-x,1/2+y,-z
1/2-x,1/2-y,-z
1/2+x,1/2+y,-z
1/2-x,1/2+y,z
1/2+x,1/2-y,z
loop_
_atom_site_type_symbol
_atom_site_label
_atom_site_fract_x
_atom_site_fract_y
_atom_site_fract_z
Si Si1 0.088988 0.840976 0.633138
Si Si2 0.662280 0.242295 0.133688
Si Si3 0.582603 0.000000 0.928695
Si Si4 0.416294 0.664330 0.500000
Si Si5 0.674105 0.834633 0.728939
Si Si6 0.911513 0.000000 0.072223
O O1 0.116305 0.802014 0.565405
O O2 0.119627 0.733418 0.680676
O O3 0.000000 0.838934 0.632308
O O4 0.109918 0.000000 0.645834
O O5 0.750000 0.250000 0.127233
O O6 0.628193 0.126663 0.093067
O O7 0.647801 0.203672 0.203449
O O8 0.623102 0.374885 0.108308
O O9 0.500000 0.000000 0.903022
O O10 0.576889 0.000000 0.000000
O O11 0.420617 0.500000 0.500000
O O12 0.500000 0.717369 0.500000
O O13 0.750000 0.750000 0.720851
O O14 0.682017 0.000000 0.723940
O O15 0.000000 0.000000 0.075998
O O16 0.893041 0.000000 0.000000
#
# Coordination Sequence:
#
# PCOD9493984 Si02
#       6
#    16  16   8   8  16   8
#     4   9  18  34  60  91 121 157 199 243 293 352
#     4  11  24  41  63  88 117 159 204 247 294 358
#     4  11  23  41  63  89 121 154 191 244 307 357
#     4   7  12  28  54  85 120 155 195 241 288 343
#     4  11  24  41  60  84 118 157 198 249 300 351
#     4  11  25  43  63  91 125 156 193 248 307 361
#
# _framework density 18.148060999999998
#
# number of rings (size 3 to 8) (size 9 to 14) (size 15 to 20)
#    0.000    1.889    1.111    4.000    6.222    6.667 
#    0.000    1.111    0.000    2.000    0.000    0.000 
#    0.000    0.000    0.000    0.000    0.000    0.000 
#
# Total GULP energy -200614.261765 kJ/mol
# GULP energy per Si atom -5572.618382 kJ/mol
# Density = 1.810676 g / cm^3
# Si number density = 18.148061 Si / 1000 Ang^3
#
#
#
# Elastic Constant Matrix: (Units=GPa)
#
#
# Indices 1 2 3 4 5 6 
#
# 1 56.9906 47.3737 64.7004 0.0000 0.0000 0.0000
# 2 47.3737 175.3643 81.1330 0.0000 0.0000 0.0000
# 3 64.7004 81.1330 136.7811 0.0000 0.0000 0.0000
# 4 0.0000 0.0000 0.0000 36.3553 0.0000 0.0000
# 5 0.0000 0.0000 0.0000 0.0000 100.6339 0.0000
# 6 0.0000 0.0000 0.0000 0.0000 0.0000 38.6370
#
#
#
# Elastic Compliance Matrix: (Units=1/GPa)
#
#
# Indices 1 2 3 4 5 6 
#
# 1 0.038835 -0.002746 -0.016741 0.000000 0.000000 0.000000
# 2 -0.002746 0.008053 -0.003478 0.000000 0.000000 0.000000
# 3 -0.016741 -0.003478 0.017293 0.000000 0.000000 0.000000
# 4 0.000000 0.000000 0.000000 0.027506 0.000000 0.000000
# 5 0.000000 0.000000 0.000000 0.000000 0.009937 0.000000
# 6 0.000000 0.000000 0.000000 0.000000 0.000000 0.025882
#
#
# Mechanical properties :
#
#
# Convention : Reuss Voigt Hill
#
# Bulk Modulus (GPa) = 54.79043 83.95001 69.37022
# Shear Modulus (GPa) = 27.85197 46.85384 37.35290
#
# Velocity S-wave (km/s) = 3.92178 5.08661 4.54169
# Velocity P-wave (km/s) = 7.12485 8.99205 8.11235
#
# Compressibility (1/GPa) = 0.01825136
#
# Stress axis : x y z
#
# Youngs Moduli (GPa) = 25.74987 124.17247 57.82694
#
# Poissons Ratio (x) = 0.34094 0.96809
# Poissons Ratio (y) = 0.07070 0.20113
# Poissons Ratio (z) = 0.43108 0.43189
#
# Static dielectric constant tensor:
#      x y z
#    x 1.621900 0.000000 0.000000 
#    y 0.000000 1.569060 0.000000 
#    z 0.000000 0.000000 1.644430 
# 
# From -- ./inp_files/70395.got.cif
#   From: 2010.05.17/outbox.cif.g08.bks.cpg/sg65_36_cif.got.tgz:70395.got - 2010.06.03 17:01:31.
