data_PCOD9493862
_publ_section_title
;
Structure prediction by ZEFSAII (Michael W. Deem and Ramdas Pophale) SiO2 
 PCOD9493862
Probable space group: C M M M
;
_chemical_formula_sum "Si O2"
_cell_formula_units_Z 50
_cell_length_a 7.884586
_cell_length_b 30.825642
_cell_length_c 10.493760
_cell_angle_alpha 90.000000
_cell_angle_beta 90.000000
_cell_angle_gamma 90.000000
_cell_volume 2550.481350
_symmetry_space_group_name_H-M "C M M M"
_symmetry_group_IT_number 65
_symmetry_cell_setting 'orthorhombic'
loop_
_space_group_symop_operation_xyz
x,y,z
-x,-y,z
x,-y,-z
-x,y,-z
-x,-y,-z
x,y,-z
-x,y,z
x,-y,z
1/2+x,1/2+y,z
1/2-x,1/2-y,z
1/2+x,1/2-y,-z
1/2-x,1/2+y,-z
1/2-x,1/2-y,-z
1/2+x,1/2+y,-z
1/2-x,1/2+y,z
1/2+x,1/2-y,z
loop_
_atom_site_type_symbol
_atom_site_label
_atom_site_fract_x
_atom_site_fract_y
_atom_site_fract_z
Si Si1 0.188303 0.067977 0.000000
Si Si2 0.796814 0.610224 0.742487
Si Si3 0.296166 0.449295 0.500000
Si Si4 0.296233 0.796475 0.645307
Si Si5 0.000000 0.500000 0.000000
O O1 0.207459 0.094977 0.129576
O O2 0.349338 0.036661 0.000000
O O3 0.000000 0.048165 0.000000
O O4 0.762489 0.577202 0.625139
O O5 0.738820 0.658864 0.708110
O O6 0.000000 0.610745 0.762156
O O7 0.238243 0.500000 0.500000
O O8 0.500000 0.449814 0.500000
O O9 0.229786 0.796338 0.500000
O O10 0.500000 0.798601 0.640227
O O11 0.250000 0.750000 0.704585
#
# Coordination Sequence:
#
# PCOD9493862 Si02
#       5
#     8  16   8  16   2
#     4  12  27  45  70  97 130 174 227 269 329 396
#     4  11  22  43  64  92 130 173 214 270 331 392
#     4  11  25  39  58  91 126 163 216 271 325 390
#     4   9  18  34  59  91 126 165 212 263 323 390
#     4  12  26  52  68  96 128 184 218 278 324 398
#
# _framework density 19.604142
#
# number of rings (size 3 to 8) (size 9 to 14) (size 15 to 20)
#    0.000    1.440    3.200    1.680    2.240    3.840 
#    0.000    0.800    0.000    0.000    0.000    0.000 
#    0.000    0.000    0.000    0.000    0.000    0.000 
#
# Total GULP energy -139279.997774 kJ/mol
# GULP energy per Si atom -5571.199911 kJ/mol
# Density = 1.955952 g / cm^3
# Si number density = 19.604142 Si / 1000 Ang^3
#
#
#
# Elastic Constant Matrix: (Units=GPa)
#
#
# Indices 1 2 3 4 5 6 
#
# 1 102.5705 41.8814 22.2683 0.0000 0.0000 0.0000
# 2 41.8814 213.8339 82.6490 0.0000 0.0000 0.0000
# 3 22.2683 82.6490 127.0854 0.0000 0.0000 0.0000
# 4 0.0000 0.0000 0.0000 177.3110 0.0000 0.0000
# 5 0.0000 0.0000 0.0000 0.0000 35.7767 0.0000
# 6 0.0000 0.0000 0.0000 0.0000 0.0000 -337.6905
#
#
#
# Elastic Compliance Matrix: (Units=1/GPa)
#
#
# Indices 1 2 3 4 5 6 
#
# 1 0.010641 -0.001821 -0.000680 0.000000 0.000000 0.000000
# 2 -0.001821 0.006558 -0.003946 0.000000 0.000000 0.000000
# 3 -0.000680 -0.003946 0.010554 0.000000 0.000000 0.000000
# 4 0.000000 0.000000 0.000000 0.005640 0.000000 0.000000
# 5 0.000000 0.000000 0.000000 0.000000 0.027951 0.000000
# 6 0.000000 0.000000 0.000000 0.000000 0.000000 -0.002961
#
#
# Mechanical properties :
#
#
# Convention : Reuss Voigt Hill
#
# Bulk Modulus (GPa) = 67.30150 81.89859 74.60004
# Shear Modulus (GPa) = 65.59040 -5.14115 30.22463
#
# Velocity S-wave (km/s) = 5.79051 -1.62116 3.93077
# Velocity P-wave (km/s) = 8.89446 6.19376 7.66401
#
# Compressibility (1/GPa) = 0.01485851
#
# Stress axis : x y z
#
# Youngs Moduli (GPa) = 93.97903 152.47524 94.74892
#
# Poissons Ratio (x) = 0.27769 0.06444
# Poissons Ratio (y) = 0.17116 0.37389
# Poissons Ratio (z) = 0.06391 0.60168
#
# Static dielectric constant tensor:
#      x y z
#    x 1.690310 0.000000 0.000000 
#    y 0.000000 1.708550 0.000000 
#    z 0.000000 0.000000 1.656220 
# 
# From -- ./inp_files/3141.got.cif
#   From: 2010.05.17/outbox.cif.g08.bks.cpg/sg65_2_cif.got.tgz:3141.got - 2010.06.03 17:01:31.
