data_PCOD9493785
_publ_section_title
;
Structure prediction by ZEFSAII (Michael W. Deem and Ramdas Pophale) SiO2 
 PCOD9493785
Probable space group: C M M M
;
_chemical_formula_sum "Si O2"
_cell_formula_units_Z 42
_cell_length_a 10.029994
_cell_length_b 30.389147
_cell_length_c 7.494181
_cell_angle_alpha 90.000000
_cell_angle_beta 90.000000
_cell_angle_gamma 90.000000
_cell_volume 2284.248567
_symmetry_space_group_name_H-M "C M M M"
_symmetry_group_IT_number 65
_symmetry_cell_setting 'orthorhombic'
loop_
_space_group_symop_operation_xyz
x,y,z
-x,-y,z
x,-y,-z
-x,y,-z
-x,-y,-z
x,y,-z
-x,y,z
x,-y,z
1/2+x,1/2+y,z
1/2-x,1/2-y,z
1/2+x,1/2-y,-z
1/2-x,1/2+y,-z
1/2-x,1/2-y,-z
1/2+x,1/2+y,-z
1/2-x,1/2+y,z
1/2+x,1/2-y,z
loop_
_atom_site_type_symbol
_atom_site_label
_atom_site_fract_x
_atom_site_fract_y
_atom_site_fract_z
Si Si1 0.500000 0.722584 0.282928
Si Si2 0.789743 0.849879 0.716259
Si Si3 0.000000 0.075795 0.801917
Si Si4 0.500000 0.176317 0.281700
Si Si5 0.000000 0.000000 0.500000
O O1 0.500000 0.723894 0.500000
O O2 0.371401 0.693935 0.229378
O O3 0.500000 0.772750 0.223000
O O4 0.792490 0.850941 0.500000
O O5 0.872732 0.891827 0.779690
O O6 0.637069 0.846597 0.774633
O O7 0.000000 0.038620 0.654435
O O8 0.000000 0.057245 0.000000
O O9 0.500000 0.176567 0.500000
#
# Coordination Sequence:
#
# PCOD9493785 Si02
#       5
#     8  16   8   8   2
#     4   8  13  22  42  75 113 153 200 235 256 296
#     4   9  16  30  49  77 116 150 185 231 268 313
#     4  11  22  38  62  86 109 137 172 222 280 334
#     4   9  15  23  47  80 112 157 197 222 264 310
#     4  12  22  44  68  88 104 124 174 230 276 350
#
# _framework density 18.386792
#
# number of rings (size 3 to 8) (size 9 to 14) (size 15 to 20)
#    0.000    2.667    1.905    2.571    0.000    4.571 
#    0.000    0.952    0.000   20.571    0.000    2.667 
#    0.000    0.000    0.000    0.000    0.000    0.000 
#
# Total GULP energy -116945.866579 kJ/mol
# GULP energy per Si atom -5568.850789 kJ/mol
# Density = 1.834494 g / cm^3
# Si number density = 18.386792 Si / 1000 Ang^3
#
#
#
# Elastic Constant Matrix: (Units=GPa)
#
#
# Indices 1 2 3 4 5 6 
#
# 1 170.1542 66.8138 30.8947 0.0000 0.0000 0.0000
# 2 66.8138 135.5363 44.4504 0.0000 0.0000 0.0000
# 3 30.8947 44.4504 102.2521 0.0000 0.0000 0.0000
# 4 0.0000 0.0000 0.0000 -60.9447 0.0000 0.0000
# 5 0.0000 0.0000 0.0000 0.0000 -6.1100 0.0000
# 6 0.0000 0.0000 0.0000 0.0000 0.0000 -0.3911
#
#
#
# Elastic Compliance Matrix: (Units=1/GPa)
#
#
# Indices 1 2 3 4 5 6 
#
# 1 0.007337 -0.003370 -0.000752 0.000000 0.000000 0.000000
# 2 -0.003370 0.010153 -0.003395 0.000000 0.000000 0.000000
# 3 -0.000752 -0.003395 0.011483 0.000000 0.000000 0.000000
# 4 0.000000 0.000000 0.000000 -0.016408 0.000000 0.000000
# 5 0.000000 0.000000 0.000000 0.000000 -0.163667 0.000000
# 6 0.000000 0.000000 0.000000 0.000000 0.000000 -2.556575
#
#
# Mechanical properties :
#
#
# Convention : Reuss Voigt Hill
#
# Bulk Modulus (GPa) = 71.74537 76.91782 74.33160
# Shear Modulus (GPa) = -1.86012 4.22975 1.18481
#
# Velocity S-wave (km/s) = -1.00690 1.51836 0.80361
# Velocity P-wave (km/s) = 6.14434 6.70805 6.43237
#
# Compressibility (1/GPa) = 0.01393818
#
# Stress axis : x y z
#
# Youngs Moduli (GPa) = 136.29746 98.49259 87.08612
#
# Poissons Ratio (x) = 0.33195 0.06546
# Poissons Ratio (y) = 0.45936 0.29569
# Poissons Ratio (z) = 0.10245 0.33442
#
# Static dielectric constant tensor:
#      x y z
#    x 1.637350 0.000000 0.000000 
#    y 0.000000 1.571610 0.000000 
#    z 0.000000 0.000000 1.677530 
# 
# From -- ./inp_files/4029.got.cif
#   From: 2010.05.17/outbox.cif.g08.bks.cpg/sg65_3_cif.got.tgz:4029.got - 2010.06.03 17:01:31.
