data_PCOD9493284
_publ_section_title
;
Structure prediction by ZEFSAII (Michael W. Deem and Ramdas Pophale) SiO2 
 PCOD9493284
Probable space group: C M M M
;
_chemical_formula_sum "Si O2"
_cell_formula_units_Z 96
_cell_length_a 32.195846
_cell_length_b 14.672461
_cell_length_c 11.713519
_cell_angle_alpha 90.000000
_cell_angle_beta 90.000000
_cell_angle_gamma 90.000000
_cell_volume 5533.376121
_symmetry_space_group_name_H-M "C M M M"
_symmetry_group_IT_number 65
_symmetry_cell_setting 'orthorhombic'
loop_
_space_group_symop_operation_xyz
x,y,z
-x,-y,z
x,-y,-z
-x,y,-z
-x,-y,-z
x,y,-z
-x,y,z
x,-y,z
1/2+x,1/2+y,z
1/2-x,1/2-y,z
1/2+x,1/2-y,-z
1/2-x,1/2+y,-z
1/2-x,1/2-y,-z
1/2+x,1/2+y,-z
1/2-x,1/2+y,z
1/2+x,1/2-y,z
loop_
_atom_site_type_symbol
_atom_site_label
_atom_site_fract_x
_atom_site_fract_y
_atom_site_fract_z
Si Si1 0.715179 0.896021 0.000000
Si Si2 0.344862 0.606465 0.862762
Si Si3 0.049078 0.396472 0.363605
Si Si4 0.884369 0.396099 0.000000
Si Si5 0.321251 0.898891 0.633439
Si Si6 0.886989 0.714892 0.227046
Si Si7 0.254686 0.350474 0.764852
O O1 0.665837 0.898506 0.000000
O O2 0.731352 0.850131 0.886508
O O3 0.731373 0.000000 0.000000
O O4 0.357413 0.500000 0.852518
O O5 0.376073 0.681591 0.809296
O O6 0.301036 0.618927 0.795878
O O7 0.339075 0.625261 0.000000
O O8 0.055377 0.395165 0.500000
O O9 0.060780 0.500000 0.324284
O O10 0.075420 0.314926 0.308980
O O11 0.000000 0.385883 0.341437
O O12 0.896033 0.340986 0.112007
O O13 0.899499 0.500000 0.000000
O O14 0.322908 0.875445 0.500000
O O15 0.346578 0.828119 0.710467
O O16 0.274296 0.905489 0.679071
O O17 0.340162 0.000000 0.648278
O O18 0.250000 0.250000 0.716247
#
# Coordination Sequence:
#
# PCOD9493284 Si02
#       7
#     8  16  16   8  16  16  16
#     4  11  19  29  49  73 100 136 182 237 282 320
#     4  11  23  38  55  78 110 151 198 242 282 328
#     4   9  19  38  65  94 121 149 179 213 263 335
#     4  11  20  29  49  84 118 142 177 232 287 333
#     4  11  23  36  51  74 107 147 188 231 281 338
#     4  12  21  36  56  84 112 147 186 226 276 336
#     4  12  21  34  52  73 103 141 195 243 288 328
#
# _framework density 17.349264000000002
#
# number of rings (size 3 to 8) (size 9 to 14) (size 15 to 20)
#    0.000    1.000    5.000    4.250    0.000    1.667 
#    0.000    0.417    0.000    5.000    0.000    2.333 
#    0.000    0.000    0.000    0.000    0.000    0.000 
#
# Total GULP energy -267728.735336 kJ/mol
# GULP energy per Si atom -5577.681986 kJ/mol
# Density = 1.730978 g / cm^3
# Si number density = 17.349264 Si / 1000 Ang^3
#
#
#
# Elastic Constant Matrix: (Units=GPa)
#
#
# Indices 1 2 3 4 5 6 
#
# 1 70.2693 38.0349 26.8944 0.0000 0.0000 0.0000
# 2 38.0349 123.3077 39.4844 0.0000 0.0000 0.0000
# 3 26.8944 39.4844 67.7548 0.0000 0.0000 0.0000
# 4 0.0000 0.0000 0.0000 23.9338 0.0000 0.0000
# 5 0.0000 0.0000 0.0000 0.0000 28.5897 0.0000
# 6 0.0000 0.0000 0.0000 0.0000 0.0000 17.8020
#
#
#
# Elastic Compliance Matrix: (Units=1/GPa)
#
#
# Indices 1 2 3 4 5 6 
#
# 1 0.018312 -0.004083 -0.004890 0.000000 0.000000 0.000000
# 2 -0.004083 0.010881 -0.004720 0.000000 0.000000 0.000000
# 3 -0.004890 -0.004720 0.019451 0.000000 0.000000 0.000000
# 4 0.000000 0.000000 0.000000 0.041782 0.000000 0.000000
# 5 0.000000 0.000000 0.000000 0.000000 0.034978 0.000000
# 6 0.000000 0.000000 0.000000 0.000000 0.000000 0.056173
#
#
# Mechanical properties :
#
#
# Convention : Reuss Voigt Hill
#
# Bulk Modulus (GPa) = 47.03987 52.23991 49.63989
# Shear Modulus (GPa) = 23.14308 24.52632 23.83470
#
# Velocity S-wave (km/s) = 3.65629 3.76397 3.71052
# Velocity P-wave (km/s) = 6.70798 7.00472 6.85795
#
# Compressibility (1/GPa) = 0.02125856
#
# Stress axis : x y z
#
# Youngs Moduli (GPa) = 54.60815 91.90676 51.41233
#
# Poissons Ratio (x) = 0.37524 0.25138
# Poissons Ratio (y) = 0.22296 0.24267
# Poissons Ratio (z) = 0.26701 0.43381
#
# Static dielectric constant tensor:
#      x y z
#    x 1.601780 0.000000 0.000000 
#    y 0.000000 1.655930 0.000000 
#    z 0.000000 0.000000 1.702420 
# 
# From -- ./inp_files/33922.got.cif
#   From: 2010.05.17/outbox.cif.g08.bks.cpg/sg65_17_cif.got.tgz:33922.got - 2010.06.03 17:01:31.
