data_PCOD9493638
_publ_section_title
;
Structure prediction by ZEFSAII (Michael W. Deem and Ramdas Pophale) SiO2 
 PCOD9493638
Probable space group: C M M M
;
_chemical_formula_sum "Si O2"
_cell_formula_units_Z 88
_cell_length_a 18.685661
_cell_length_b 9.072228
_cell_length_c 29.483724
_cell_angle_alpha 90.000000
_cell_angle_beta 90.000000
_cell_angle_gamma 90.000000
_cell_volume 4998.097902
_symmetry_space_group_name_H-M "C M M M"
_symmetry_group_IT_number 65
_symmetry_cell_setting 'orthorhombic'
loop_
_space_group_symop_operation_xyz
x,y,z
-x,-y,z
x,-y,-z
-x,y,-z
-x,-y,-z
x,y,-z
-x,y,z
x,-y,z
1/2+x,1/2+y,z
1/2-x,1/2-y,z
1/2+x,1/2-y,-z
1/2-x,1/2+y,-z
1/2-x,1/2-y,-z
1/2+x,1/2+y,-z
1/2-x,1/2+y,z
1/2+x,1/2-y,z
loop_
_atom_site_type_symbol
_atom_site_label
_atom_site_fract_x
_atom_site_fract_y
_atom_site_fract_z
Si Si1 0.581432 0.320799 0.637569
Si Si2 0.912937 0.670421 0.908997
Si Si3 0.827411 0.177597 0.551374
Si Si4 0.585107 0.177673 0.192287
Si Si5 0.827907 0.822402 0.273601
Si Si6 0.412687 0.330383 0.000000
O O1 0.500000 0.267809 0.641466
O O2 0.579349 0.500000 0.636979
O O3 0.618745 0.274074 0.590751
O O4 0.628688 0.279476 0.680955
O O5 0.892081 0.500000 0.913280
O O6 0.892061 0.723420 0.858780
O O7 0.887820 0.756042 0.953342
O O8 0.000000 0.674666 0.908999
O O9 0.851340 0.213691 0.500000
O O10 0.750000 0.250000 0.558470
O O11 0.820175 0.000000 0.554012
O O12 0.500000 0.206312 0.197297
O O13 0.628983 0.261423 0.230462
O O14 0.594686 0.000000 0.195697
O O15 0.750000 0.750000 0.274734
O O16 0.822747 0.000000 0.271862
O O17 0.393022 0.500000 0.000000
O O18 0.500000 0.320082 0.000000
#
# Coordination Sequence:
#
# PCOD9493638 Si02
#       6
#    16  16  16  16  16   8
#     4   9  18  32  50  74 101 127 161 206 252 297
#     4   8  14  25  41  61  89 126 161 194 238 290
#     4   9  17  30  50  74 100 132 167 203 243 289
#     4   9  18  33  52  74 100 129 164 207 252 299
#     4  11  22  35  52  72  97 130 166 206 252 302
#     4   9  15  21  33  59  94 127 160 199 238 279
#
# _framework density 17.606697
#
# number of rings (size 3 to 8) (size 9 to 14) (size 15 to 20)
#    0.000    2.818    0.000    3.000    0.000    3.273 
#    0.000    4.545    0.000    2.727    0.000    3.182 
#    0.000    0.000    0.000    0.000    0.000    0.000 
#
# Total GULP energy -245232.498194 kJ/mol
# GULP energy per Si atom -5573.465868 kJ/mol
# Density = 1.756662 g / cm^3
# Si number density = 17.606697 Si / 1000 Ang^3
#
#
#
# Elastic Constant Matrix: (Units=GPa)
#
#
# Indices 1 2 3 4 5 6 
#
# 1 90.8533 39.8754 94.4424 0.0000 0.0000 0.0000
# 2 39.8754 39.8995 65.2214 0.0000 0.0000 0.0000
# 3 94.4424 65.2214 205.4233 0.0000 0.0000 0.0000
# 4 0.0000 0.0000 0.0000 24.4128 0.0000 0.0000
# 5 0.0000 0.0000 0.0000 0.0000 -16.0901 0.0000
# 6 0.0000 0.0000 0.0000 0.0000 0.0000 16.4211
#
#
#
# Elastic Compliance Matrix: (Units=1/GPa)
#
#
# Indices 1 2 3 4 5 6 
#
# 1 0.023620 -0.012172 -0.006995 0.000000 0.000000 0.000000
# 2 -0.012172 0.058378 -0.012939 0.000000 0.000000 0.000000
# 3 -0.006995 -0.012939 0.012192 0.000000 0.000000 0.000000
# 4 0.000000 0.000000 0.000000 0.040962 0.000000 0.000000
# 5 0.000000 0.000000 0.000000 0.000000 -0.062150 0.000000
# 6 0.000000 0.000000 0.000000 0.000000 0.000000 0.060897
#
#
# Mechanical properties :
#
#
# Convention : Reuss Voigt Hill
#
# Bulk Modulus (GPa) = 33.35688 81.69495 57.52592
# Shear Modulus (GPa) = 24.02656 14.05789 19.04222
#
# Velocity S-wave (km/s) = 3.69809 2.82873 3.29223
# Velocity P-wave (km/s) = 6.10092 7.56106 6.86989
#
# Compressibility (1/GPa) = 0.02997882
#
# Stress axis : x y z
#
# Youngs Moduli (GPa) = 42.33720 17.12971 82.02268
#
# Poissons Ratio (x) = 0.20850 0.57371
# Poissons Ratio (y) = 0.51533 1.06128
# Poissons Ratio (z) = 0.29613 0.22164
#
# Static dielectric constant tensor:
#      x y z
#    x 1.578180 0.000000 0.000000 
#    y 0.000000 1.588710 0.000000 
#    z 0.000000 0.000000 1.610030 
# 
# From -- ./inp_files/75385.got.cif
#   From: 2010.05.17/outbox.cif.g08.bks.cpg/sg65_38_cif.got.tgz:75385.got - 2010.06.03 17:01:31.
