data_PCOD9493998
_publ_section_title
;
Structure prediction by ZEFSAII (Michael W. Deem and Ramdas Pophale) SiO2 
 PCOD9493998
Probable space group: C M M M
;
_chemical_formula_sum "Si O2"
_cell_formula_units_Z 72
_cell_length_a 8.712363
_cell_length_b 16.080513
_cell_length_c 25.944750
_cell_angle_alpha 90.000000
_cell_angle_beta 90.000000
_cell_angle_gamma 90.000000
_cell_volume 3634.840444
_symmetry_space_group_name_H-M "C M M M"
_symmetry_group_IT_number 65
_symmetry_cell_setting 'orthorhombic'
loop_
_space_group_symop_operation_xyz
x,y,z
-x,-y,z
x,-y,-z
-x,y,-z
-x,-y,-z
x,y,-z
-x,y,z
x,-y,z
1/2+x,1/2+y,z
1/2-x,1/2-y,z
1/2+x,1/2-y,-z
1/2-x,1/2+y,-z
1/2-x,1/2-y,-z
1/2+x,1/2+y,-z
1/2-x,1/2+y,z
1/2+x,1/2-y,z
loop_
_atom_site_type_symbol
_atom_site_label
_atom_site_fract_x
_atom_site_fract_y
_atom_site_fract_z
Si Si1 0.315432 0.338193 0.382519
Si Si2 0.313731 0.156886 0.055541
Si Si3 0.317668 0.000000 0.561278
Si Si4 0.824456 0.400364 0.833737
Si Si5 0.816028 0.096970 0.272650
O O1 0.500000 0.336835 0.384290
O O2 0.250000 0.250000 0.400832
O O3 0.255607 0.417300 0.414218
O O4 0.264712 0.353407 0.323056
O O5 0.500000 0.155837 0.056689
O O6 0.250000 0.250000 0.054628
O O7 0.259060 0.119971 0.109826
O O8 0.269125 0.117625 0.000000
O O9 0.500000 0.000000 0.571436
O O10 0.293159 0.000000 0.500000
O O11 0.825842 0.500000 0.830504
O O12 0.740346 0.369985 0.782447
O O13 0.000000 0.370034 0.831813
O O14 0.000000 0.096875 0.272162
O O15 0.766345 0.000000 0.278544
#
# Coordination Sequence:
#
# PCOD9493998 Si02
#       5
#    16  16   8  16  16
#     4  11  23  41  65  95 128 166 211 255 304 362
#     4   9  18  32  48  66  93 130 172 220 274 333
#     4  11  25  45  69  97 129 167 208 253 306 357
#     4   9  18  31  49  75 102 133 177 225 278 337
#     4   9  18  35  56  79 112 151 189 233 291 350
#
# _framework density 19.808297
#
# number of rings (size 3 to 8) (size 9 to 14) (size 15 to 20)
#    0.000    2.333    1.111    1.000    0.000    5.333 
#    0.000    6.667    0.000    0.000    0.000    6.222 
#    0.000    0.000    0.000    0.000    0.000    0.000 
#
# Total GULP energy -200718.886779 kJ/mol
# GULP energy per Si atom -5575.524633 kJ/mol
# Density = 1.976321 g / cm^3
# Si number density = 19.808297 Si / 1000 Ang^3
#
#
#
# Elastic Constant Matrix: (Units=GPa)
#
#
# Indices 1 2 3 4 5 6 
#
# 1 31.2641 32.7027 48.8432 0.0000 0.0000 0.0000
# 2 32.7027 94.2641 58.1751 0.0000 0.0000 0.0000
# 3 48.8432 58.1751 131.7615 0.0000 0.0000 0.0000
# 4 0.0000 0.0000 0.0000 -11.7743 0.0000 0.0000
# 5 0.0000 0.0000 0.0000 0.0000 25.7159 0.0000
# 6 0.0000 0.0000 0.0000 0.0000 0.0000 22.7024
#
#
#
# Elastic Compliance Matrix: (Units=1/GPa)
#
#
# Indices 1 2 3 4 5 6 
#
# 1 0.088110 -0.014310 -0.026344 0.000000 0.000000 0.000000
# 2 -0.014310 0.016906 -0.002160 0.000000 0.000000 0.000000
# 3 -0.026344 -0.002160 0.018309 0.000000 0.000000 0.000000
# 4 0.000000 0.000000 0.000000 -0.084931 0.000000 0.000000
# 5 0.000000 0.000000 0.000000 0.000000 0.038887 0.000000
# 6 0.000000 0.000000 0.000000 0.000000 0.000000 0.044048
#
#
# Mechanical properties :
#
#
# Convention : Reuss Voigt Hill
#
# Bulk Modulus (GPa) = 26.52656 59.63685 43.08171
# Shear Modulus (GPa) = 22.77685 15.16671 18.97178
#
# Velocity S-wave (km/s) = 3.39464 2.77008 3.09814
# Velocity P-wave (km/s) = 5.36521 6.35638 5.88171
#
# Compressibility (1/GPa) = 0.03769806
#
# Stress axis : x y z
#
# Youngs Moduli (GPa) = 11.34940 59.15159 54.61905
#
# Poissons Ratio (x) = 0.84643 1.43889
# Poissons Ratio (y) = 0.16240 0.11796
# Poissons Ratio (z) = 0.29899 0.12775
#
# Static dielectric constant tensor:
#      x y z
#    x 1.689020 0.000000 0.000000 
#    y 0.000000 1.693650 0.000000 
#    z 0.000000 0.000000 1.738600 
# 
# From -- ./inp_files/72490.got.cif
#   From: 2010.05.17/outbox.cif.g08.bks.cpg/sg65_37_cif.got.tgz:72490.got - 2010.06.03 17:01:31.
