data_PCOD9493576
_publ_section_title
;
Structure prediction by ZEFSAII (Michael W. Deem and Ramdas Pophale) SiO2 
 PCOD9493576
Probable space group: C M M M
;
_chemical_formula_sum "Si O2"
_cell_formula_units_Z 72
_cell_length_a 8.610166
_cell_length_b 29.468385
_cell_length_c 16.114898
_cell_angle_alpha 90.000000
_cell_angle_beta 90.000000
_cell_angle_gamma 90.000000
_cell_volume 4088.795789
_symmetry_space_group_name_H-M "C M M M"
_symmetry_group_IT_number 65
_symmetry_cell_setting 'orthorhombic'
loop_
_space_group_symop_operation_xyz
x,y,z
-x,-y,z
x,-y,-z
-x,y,-z
-x,-y,-z
x,y,-z
-x,y,z
x,-y,z
1/2+x,1/2+y,z
1/2-x,1/2-y,z
1/2+x,1/2-y,-z
1/2-x,1/2+y,-z
1/2-x,1/2-y,-z
1/2+x,1/2+y,-z
1/2-x,1/2+y,z
1/2+x,1/2-y,z
loop_
_atom_site_type_symbol
_atom_site_label
_atom_site_fract_x
_atom_site_fract_y
_atom_site_fract_z
Si Si1 0.313031 0.446154 0.406929
Si Si2 0.187516 0.699227 0.681937
Si Si3 0.312685 0.447452 0.093614
Si Si4 0.186901 0.698820 0.500000
Si Si5 0.314178 0.892632 0.751754
O O1 0.261488 0.431622 0.500000
O O2 0.500000 0.441568 0.403747
O O3 0.278291 0.500000 0.398977
O O4 0.241304 0.419207 0.330446
O O5 0.250000 0.750000 0.695142
O O6 0.237271 0.681355 0.589894
O O7 0.237261 0.659938 0.744552
O O8 0.000000 0.702179 0.682422
O O9 0.500000 0.446131 0.096234
O O10 0.266262 0.500000 0.106991
O O11 0.247953 0.416639 0.166278
O O12 0.264298 0.434392 0.000000
O O13 0.250000 0.750000 0.500000
O O14 0.000000 0.698273 0.500000
O O15 0.500000 0.893384 0.752396
#
# Coordination Sequence:
#
# PCOD9493576 Si02
#       5
#    16  16  16   8  16
#     4   9  19  35  51  69  99 140 182 216 245 292
#     4   9  19  33  49  70  99 135 173 214 257 301
#     4   9  19  37  59  80 103 134 172 212 254 305
#     4   8  14  28  46  62  87 124 165 207 246 285
#     4  11  22  32  50  80 109 135 166 211 266 316
#
# _framework density 17.609096999999998
#
# number of rings (size 3 to 8) (size 9 to 14) (size 15 to 20)
#    0.000    2.667    0.000    2.667    1.556    6.222 
#    0.000    2.222    0.000    0.667    0.000    0.000 
#    0.000    0.000    0.000    0.000    0.000    0.000 
#
# Total GULP energy -200653.139155 kJ/mol
# GULP energy per Si atom -5573.698310 kJ/mol
# Density = 1.756902 g / cm^3
# Si number density = 17.609097 Si / 1000 Ang^3
#
#
#
# Elastic Constant Matrix: (Units=GPa)
#
#
# Indices 1 2 3 4 5 6 
#
# 1 16.6587 29.1348 35.3053 0.0000 0.0000 0.0000
# 2 29.1348 112.9860 103.4133 0.0000 0.0000 0.0000
# 3 35.3053 103.4133 154.2664 0.0000 0.0000 0.0000
# 4 0.0000 0.0000 0.0000 27.3617 0.0000 0.0000
# 5 0.0000 0.0000 0.0000 0.0000 18.8183 0.0000
# 6 0.0000 0.0000 0.0000 0.0000 0.0000 22.6784
#
#
#
# Elastic Compliance Matrix: (Units=1/GPa)
#
#
# Indices 1 2 3 4 5 6 
#
# 1 0.126678 -0.015863 -0.018357 0.000000 0.000000 0.000000
# 2 -0.015863 0.024890 -0.013054 0.000000 0.000000 0.000000
# 3 -0.018357 -0.013054 0.019435 0.000000 0.000000 0.000000
# 4 0.000000 0.000000 0.000000 0.036547 0.000000 0.000000
# 5 0.000000 0.000000 0.000000 0.000000 0.053140 0.000000
# 6 0.000000 0.000000 0.000000 0.000000 0.000000 0.044095
#
#
# Mechanical properties :
#
#
# Convention : Reuss Voigt Hill
#
# Bulk Modulus (GPa) = 13.08013 68.84641 40.96327
# Shear Modulus (GPa) = 11.76975 21.50886 16.63930
#
# Velocity S-wave (km/s) = 2.58813 3.49873 3.07730
# Velocity P-wave (km/s) = 4.04665 7.45007 5.99495
#
# Compressibility (1/GPa) = 0.07645186
#
# Stress axis : x y z
#
# Youngs Moduli (GPa) = 7.89405 40.17745 51.45471
#
# Poissons Ratio (x) = 0.63735 0.94456
# Poissons Ratio (y) = 0.12523 0.67171
# Poissons Ratio (z) = 0.14491 0.52449
#
# Static dielectric constant tensor:
#      x y z
#    x 1.604380 0.000000 0.000000 
#    y 0.000000 1.600390 0.000000 
#    z 0.000000 0.000000 1.606180 
# 
# From -- ./inp_files/36555.got.cif
#   From: 2010.05.17/outbox.cif.g08.bks.cpg/sg65_19_cif.got.tgz:36555.got - 2010.06.03 17:01:31.
