data_PCOD9493688
_publ_section_title
;
Structure prediction by ZEFSAII (Michael W. Deem and Ramdas Pophale) SiO2 
 PCOD9493688
Probable space group: C M M M
;
_chemical_formula_sum "Si O2"
_cell_formula_units_Z 88
_cell_length_a 18.464451
_cell_length_b 8.260112
_cell_length_c 29.778841
_cell_angle_alpha 90.000000
_cell_angle_beta 90.000000
_cell_angle_gamma 90.000000
_cell_volume 4541.822174
_symmetry_space_group_name_H-M "C M M M"
_symmetry_group_IT_number 65
_symmetry_cell_setting 'orthorhombic'
loop_
_space_group_symop_operation_xyz
x,y,z
-x,-y,z
x,-y,-z
-x,y,-z
-x,-y,-z
x,y,-z
-x,y,z
x,-y,z
1/2+x,1/2+y,z
1/2-x,1/2-y,z
1/2+x,1/2-y,-z
1/2-x,1/2+y,-z
1/2-x,1/2-y,-z
1/2+x,1/2+y,-z
1/2-x,1/2+y,z
1/2+x,1/2-y,z
loop_
_atom_site_type_symbol
_atom_site_label
_atom_site_fract_x
_atom_site_fract_y
_atom_site_fract_z
Si Si1 0.082674 0.693681 0.177453
Si Si2 0.916390 0.197938 0.000000
Si Si3 0.332728 0.693668 0.089244
Si Si4 0.084480 0.801915 0.646017
Si Si5 0.667625 0.693731 0.734566
Si Si6 0.087671 0.807096 0.451768
O O1 0.081152 0.500000 0.177386
O O2 0.126878 0.749895 0.134030
O O3 0.121721 0.749867 0.222742
O O4 0.000000 0.755006 0.175705
O O5 0.874905 0.252282 0.955201
O O6 0.000000 0.249576 0.000000
O O7 0.916069 0.000000 0.000000
O O8 0.333614 0.500000 0.088571
O O9 0.250000 0.750000 0.088863
O O10 0.131412 0.746590 0.688167
O O11 0.111698 0.744209 0.596932
O O12 0.000000 0.755948 0.651718
O O13 0.085697 0.000000 0.645064
O O14 0.666271 0.500000 0.733694
O O15 0.750000 0.750000 0.738491
O O16 0.113191 0.739131 0.500000
O O17 0.000000 0.792045 0.451181
O O18 0.102857 0.000000 0.452419
#
# Coordination Sequence:
#
# PCOD9493688 Si02
#       6
#    16   8  16  16  16  16
#     4  11  24  41  60  83 110 138 174 221 270 321
#     4   9  19  36  59  87 116 149 190 231 268 310
#     4  11  22  38  61  87 118 152 186 223 265 315
#     4   8  14  25  43  68  95 125 165 211 258 310
#     4  11  22  36  54  75 103 139 178 219 264 315
#     4   7   9  15  31  58  91 122 153 197 253 306
#
# _framework density 19.375484
#
# number of rings (size 3 to 8) (size 9 to 14) (size 15 to 20)
#    0.000    2.455    0.000    5.182    0.000    2.909 
#    0.000    1.364    0.000    3.818    0.000    0.000 
#    0.000    2.182    0.000   20.545    0.000   16.909 
#
# Total GULP energy -245476.866521 kJ/mol
# GULP energy per Si atom -5579.019694 kJ/mol
# Density = 1.933138 g / cm^3
# Si number density = 19.375484 Si / 1000 Ang^3
#
#
#
# Elastic Constant Matrix: (Units=GPa)
#
#
# Indices 1 2 3 4 5 6 
#
# 1 150.3366 18.2886 112.2819 0.0000 0.0000 0.0000
# 2 18.2886 27.0893 25.6115 0.0000 0.0000 0.0000
# 3 112.2819 25.6115 239.7349 0.0000 0.0000 0.0000
# 4 0.0000 0.0000 0.0000 -15.0499 0.0000 0.0000
# 5 0.0000 0.0000 0.0000 0.0000 -17.5983 0.0000
# 6 0.0000 0.0000 0.0000 0.0000 0.0000 -11.7931
#
#
#
# Elastic Compliance Matrix: (Units=1/GPa)
#
#
# Indices 1 2 3 4 5 6 
#
# 1 0.010403 -0.002688 -0.004585 0.000000 0.000000 0.000000
# 2 -0.002688 0.041757 -0.003202 0.000000 0.000000 0.000000
# 3 -0.004585 -0.003202 0.006661 0.000000 0.000000 0.000000
# 4 0.000000 0.000000 0.000000 -0.066446 0.000000 0.000000
# 5 0.000000 0.000000 0.000000 0.000000 -0.056824 0.000000
# 6 0.000000 0.000000 0.000000 0.000000 0.000000 -0.084795
#
#
# Mechanical properties :
#
#
# Convention : Reuss Voigt Hill
#
# Bulk Modulus (GPa) = 26.40593 81.05830 53.73212
# Shear Modulus (GPa) = -43.22704 8.51032 -17.35836
#
# Velocity S-wave (km/s) = -4.72849 2.09806 -2.99639
# Velocity P-wave (km/s) = 4.01912 6.91343 3.97757
#
# Compressibility (1/GPa) = 0.03787028
#
# Stress axis : x y z
#
# Youngs Moduli (GPa) = 96.12218 23.94799 150.12943
#
# Poissons Ratio (x) = 0.06438 0.68839
# Poissons Ratio (y) = 0.25841 0.48070
# Poissons Ratio (z) = 0.44075 0.07668
#
# Static dielectric constant tensor:
#      x y z
#    x 1.643800 0.000000 0.000000 
#    y 0.000000 1.667360 0.000000 
#    z 0.000000 0.000000 1.700980 
# 
# From -- ./inp_files/77972.got.cif
#   From: 2010.05.17/outbox.cif.g08.bks.cpg/sg65_39_cif.got.tgz:77972.got - 2010.06.03 17:01:31.
