data_PCOD9493939
_publ_section_title
;
Structure prediction by ZEFSAII (Michael W. Deem and Ramdas Pophale) SiO2 
 PCOD9493939
Probable space group: C M M M
;
_chemical_formula_sum "Si O2"
_cell_formula_units_Z 72
_cell_length_a 16.633035
_cell_length_b 27.204765
_cell_length_c 7.829340
_cell_angle_alpha 90.000000
_cell_angle_beta 90.000000
_cell_angle_gamma 90.000000
_cell_volume 3542.759191
_symmetry_space_group_name_H-M "C M M M"
_symmetry_group_IT_number 65
_symmetry_cell_setting 'orthorhombic'
loop_
_space_group_symop_operation_xyz
x,y,z
-x,-y,z
x,-y,-z
-x,y,-z
-x,-y,-z
x,y,-z
-x,y,z
x,-y,z
1/2+x,1/2+y,z
1/2-x,1/2-y,z
1/2+x,1/2-y,-z
1/2-x,1/2+y,-z
1/2-x,1/2-y,-z
1/2+x,1/2+y,-z
1/2-x,1/2+y,z
1/2+x,1/2-y,z
loop_
_atom_site_type_symbol
_atom_site_label
_atom_site_fract_x
_atom_site_fract_y
_atom_site_fract_z
Si Si1 0.151340 0.056274 0.207304
Si Si2 0.679593 0.106109 0.804992
Si Si3 0.500000 0.380020 0.209375
Si Si4 0.172035 0.282279 0.703577
Si Si5 0.500000 0.266630 0.794676
Si Si6 0.905473 0.554762 0.500000
O O1 0.233938 0.083922 0.245138
O O2 0.077663 0.089609 0.266740
O O3 0.149301 0.000000 0.269342
O O4 0.145679 0.054019 0.000000
O O5 0.678325 0.164774 0.791188
O O6 0.619592 0.083786 0.668363
O O7 0.662242 0.091271 0.000000
O O8 0.500000 0.323441 0.264662
O O9 0.500000 0.379235 0.000000
O O10 0.178614 0.289577 0.500000
O O11 0.250000 0.250000 0.757066
O O12 0.084246 0.258435 0.738530
O O13 0.500000 0.265792 0.000000
O O14 0.868683 0.500000 0.500000
O O15 0.000000 0.550392 0.500000
#
# Coordination Sequence:
#
# PCOD9493939 Si02
#       6
#    16  16   8  16   8   8
#     4   9  17  31  56  90 126 166 208 253 307 370
#     4  11  23  41  67  95 129 168 214 266 321 385
#     4   9  17  31  54  89 129 165 208 254 304 370
#     4  11  24  42  64  93 129 172 221 271 328 392
#     4  11  23  38  61  92 128 171 215 266 326 387
#     4  11  26  46  67  93 127 165 210 270 331 389
#
# _framework density 20.323142000000001
#
# number of rings (size 3 to 8) (size 9 to 14) (size 15 to 20)
#    0.000    1.667    1.111    3.333    1.556    6.667 
#    0.000    1.111    0.000    0.000    0.000    2.333 
#    0.000    0.000    0.000    0.000    0.000    0.000 
#
# Total GULP energy -201149.545865 kJ/mol
# GULP energy per Si atom -5587.487385 kJ/mol
# Density = 2.027689 g / cm^3
# Si number density = 20.323142 Si / 1000 Ang^3
#
#
#
# Elastic Constant Matrix: (Units=GPa)
#
#
# Indices 1 2 3 4 5 6 
#
# 1 97.8119 37.5483 33.2437 0.0000 0.0000 0.0000
# 2 37.5483 134.6856 21.5039 0.0000 0.0000 0.0000
# 3 33.2437 21.5039 74.2245 0.0000 0.0000 0.0000
# 4 0.0000 0.0000 0.0000 -30.7682 0.0000 0.0000
# 5 0.0000 0.0000 0.0000 0.0000 -274.5624 0.0000
# 6 0.0000 0.0000 0.0000 0.0000 0.0000 43.3044
#
#
#
# Elastic Compliance Matrix: (Units=1/GPa)
#
#
# Indices 1 2 3 4 5 6 
#
# 1 0.013011 -0.002828 -0.005008 0.000000 0.000000 0.000000
# 2 -0.002828 0.008399 -0.001167 0.000000 0.000000 0.000000
# 3 -0.005008 -0.001167 0.016054 0.000000 0.000000 0.000000
# 4 0.000000 0.000000 0.000000 -0.032501 0.000000 0.000000
# 5 0.000000 0.000000 0.000000 0.000000 -0.003642 0.000000
# 6 0.000000 0.000000 0.000000 0.000000 0.000000 0.023092
#
#
# Mechanical properties :
#
#
# Convention : Reuss Voigt Hill
#
# Bulk Modulus (GPa) = 51.39108 54.59041 52.99075
# Shear Modulus (GPa) = 102.23711 -38.11017 32.06347
#
# Velocity S-wave (km/s) = 7.10035 -4.33507 3.97631
# Velocity P-wave (km/s) = 9.62091 1.36471 6.87111
#
# Compressibility (1/GPa) = 0.01945863
#
# Stress axis : x y z
#
# Youngs Moduli (GPa) = 76.85546 119.05693 62.29037
#
# Poissons Ratio (x) = 0.33666 0.31197
# Poissons Ratio (y) = 0.21733 0.07269
# Poissons Ratio (z) = 0.38492 0.13893
#
# Static dielectric constant tensor:
#      x y z
#    x 1.751750 0.000000 0.000000 
#    y 0.000000 1.716910 0.000000 
#    z 0.000000 0.000000 1.723030 
# 
# From -- ./inp_files/7363.got.cif
#   From: 2010.05.17/outbox.cif.g08.bks.cpg/sg65_4_cif.got.tgz:7363.got - 2010.06.03 17:01:31.
