data_PCOD9493950
_publ_section_title
;
Structure prediction by ZEFSAII (Michael W. Deem and Ramdas Pophale) SiO2 
 PCOD9493950
Probable space group: C M M M
;
_chemical_formula_sum "Si O2"
_cell_formula_units_Z 104
_cell_length_a 22.755918
_cell_length_b 16.951759
_cell_length_c 14.526935
_cell_angle_alpha 90.000000
_cell_angle_beta 90.000000
_cell_angle_gamma 90.000000
_cell_volume 5603.806400
_symmetry_space_group_name_H-M "C M M M"
_symmetry_group_IT_number 65
_symmetry_cell_setting 'orthorhombic'
loop_
_space_group_symop_operation_xyz
x,y,z
-x,-y,z
x,-y,-z
-x,y,-z
-x,-y,-z
x,y,-z
-x,y,z
x,-y,z
1/2+x,1/2+y,z
1/2-x,1/2-y,z
1/2+x,1/2-y,-z
1/2-x,1/2+y,-z
1/2-x,1/2-y,-z
1/2+x,1/2+y,-z
1/2-x,1/2+y,z
1/2+x,1/2-y,z
loop_
_atom_site_type_symbol
_atom_site_label
_atom_site_fract_x
_atom_site_fract_y
_atom_site_fract_z
Si Si1 0.000000 0.094296 0.610301
Si Si2 0.767111 0.909799 0.608787
Si Si3 0.433117 0.094572 0.602476
Si Si4 0.714092 0.906421 0.107052
Si Si5 0.353622 0.405530 0.898008
Si Si6 0.664914 0.826883 0.282497
Si Si7 0.618821 0.649877 0.295906
O O1 0.941838 0.134801 0.651710
O O2 0.000000 0.101757 0.500000
O O3 0.000000 0.000000 0.632356
O O4 0.771873 0.893877 0.500000
O O5 0.721713 0.851418 0.657784
O O6 0.830361 0.902556 0.656742
O O7 0.745345 0.000000 0.620525
O O8 0.413644 0.121276 0.500000
O O9 0.500000 0.122288 0.616697
O O10 0.388995 0.122441 0.679234
O O11 0.434172 0.000000 0.600971
O O12 0.783908 0.889864 0.115559
O O13 0.680246 0.851350 0.178342
O O14 0.705680 0.000000 0.128594
O O15 0.698148 0.894456 0.000000
O O16 0.359844 0.500000 0.897939
O O17 0.387559 0.372064 0.811220
O O18 0.370335 0.376380 0.000000
O O19 0.644964 0.737722 0.297597
#
# Coordination Sequence:
#
# PCOD9493950 Si02
#       7
#     8  16  16  16  16  16  16
#     4  11  26  48  69  85 112 167 221 251 289 354
#     4  11  23  39  59  84 118 159 200 248 302 362
#     4   9  19  36  57  80 110 155 206 247 288 351
#     4   9  18  34  59  90 124 163 201 235 287 368
#     4   9  18  36  63  90 118 155 198 245 296 354
#     4  12  23  34  57  91 126 155 190 244 313 362
#     4  12  25  39  60  91 124 156 200 254 307 358
#
# _framework density 18.558814999999999
#
# number of rings (size 3 to 8) (size 9 to 14) (size 15 to 20)
#    0.000    1.615    1.538    5.538    1.077    6.154 
#    0.000    1.923    0.000    1.846    0.000    2.154 
#    0.000    0.000    0.000    0.000    0.000    0.000 
#
# Total GULP energy -290467.430796 kJ/mol
# GULP energy per Si atom -5585.912131 kJ/mol
# Density = 1.851657 g / cm^3
# Si number density = 18.558815 Si / 1000 Ang^3
#
#
#
# Elastic Constant Matrix: (Units=GPa)
#
#
# Indices 1 2 3 4 5 6 
#
# 1 74.6887 33.4896 51.0888 0.0000 0.0000 0.0000
# 2 33.4896 65.5970 42.8919 0.0000 0.0000 0.0000
# 3 51.0888 42.8919 127.5010 0.0000 0.0000 0.0000
# 4 0.0000 0.0000 0.0000 -95.1021 0.0000 0.0000
# 5 0.0000 0.0000 0.0000 0.0000 31.3315 0.0000
# 6 0.0000 0.0000 0.0000 0.0000 0.0000 56.5415
#
#
#
# Elastic Compliance Matrix: (Units=1/GPa)
#
#
# Indices 1 2 3 4 5 6 
#
# 1 0.020398 -0.006499 -0.005987 0.000000 0.000000 0.000000
# 2 -0.006499 0.021614 -0.004667 0.000000 0.000000 0.000000
# 3 -0.005987 -0.004667 0.011812 0.000000 0.000000 0.000000
# 4 0.000000 0.000000 0.000000 -0.010515 0.000000 0.000000
# 5 0.000000 0.000000 0.000000 0.000000 0.031917 0.000000
# 6 0.000000 0.000000 0.000000 0.000000 0.000000 0.017686
#
#
# Mechanical properties :
#
#
# Convention : Reuss Voigt Hill
#
# Bulk Modulus (GPa) = 51.23461 58.08084 54.65772
# Shear Modulus (GPa) = 37.39005 7.90861 22.64933
#
# Velocity S-wave (km/s) = 4.49339 2.06655 3.49722
# Velocity P-wave (km/s) = 7.38832 6.08750 6.76923
#
# Compressibility (1/GPa) = 0.01951806
#
# Stress axis : x y z
#
# Youngs Moduli (GPa) = 49.02326 46.26572 84.65939
#
# Poissons Ratio (x) = 0.30070 0.50687
# Poissons Ratio (y) = 0.31862 0.39510
# Poissons Ratio (z) = 0.29351 0.21592
#
# Static dielectric constant tensor:
#      x y z
#    x 1.613710 0.000000 0.000000 
#    y 0.000000 1.667900 0.000000 
#    z 0.000000 0.000000 1.645080 
# 
# From -- ./inp_files/44405.got.cif
#   From: 2010.05.17/outbox.cif.g08.bks.cpg/sg65_23_cif.got.tgz:44405.got - 2010.06.03 17:01:31.
