data_PCOD9493571
_publ_section_title
;
Structure prediction by ZEFSAII (Michael W. Deem and Ramdas Pophale) SiO2 
 PCOD9493571
Probable space group: C M M M
;
_chemical_formula_sum "Si O2"
_cell_formula_units_Z 96
_cell_length_a 15.639275
_cell_length_b 15.646546
_cell_length_c 19.680802
_cell_angle_alpha 90.000000
_cell_angle_beta 90.000000
_cell_angle_gamma 90.000000
_cell_volume 4815.904760
_symmetry_space_group_name_H-M "C M M M"
_symmetry_group_IT_number 65
_symmetry_cell_setting 'orthorhombic'
loop_
_space_group_symop_operation_xyz
x,y,z
-x,-y,z
x,-y,-z
-x,y,-z
-x,-y,-z
x,y,-z
-x,y,z
x,-y,z
1/2+x,1/2+y,z
1/2-x,1/2-y,z
1/2+x,1/2-y,-z
1/2-x,1/2+y,-z
1/2-x,1/2-y,-z
1/2+x,1/2+y,-z
1/2-x,1/2+y,z
1/2+x,1/2-y,z
loop_
_atom_site_type_symbol
_atom_site_label
_atom_site_fract_x
_atom_site_fract_y
_atom_site_fract_z
Si Si1 0.625676 0.903061 0.422722
Si Si2 0.604270 0.402562 0.077400
Si Si3 0.395669 0.902834 0.922709
Si Si4 0.598268 0.743113 0.327643
Si Si5 0.395088 0.750898 0.173747
Si Si6 0.168740 0.903605 0.422735
O O1 0.598004 0.882064 0.500000
O O2 0.600506 0.831978 0.368671
O O3 0.728599 0.904525 0.424232
O O4 0.597730 0.000000 0.406794
O O5 0.500000 0.402141 0.077625
O O6 0.631312 0.500000 0.091702
O O7 0.631963 0.333344 0.132415
O O8 0.630169 0.380462 0.000000
O O9 0.500000 0.902342 0.922231
O O10 0.366423 0.833664 0.868483
O O11 0.368675 0.000000 0.908018
O O12 0.369966 0.881073 0.000000
O O13 0.500000 0.716558 0.320653
O O14 0.633904 0.751956 0.251603
O O15 0.642424 0.670075 0.371739
O O16 0.500000 0.752559 0.173797
O O17 0.138863 0.885439 0.500000
O O18 0.139859 0.000000 0.404372
#
# Coordination Sequence:
#
# PCOD9493571 Si02
#       6
#    16  16  16  16  16  16
#     4   9  19  37  58  74  90 122 169 212 244 279
#     4   8  13  22  37  54  74 111 162 201 224 258
#     4   8  13  22  37  54  74 111 162 201 224 258
#     4  11  22  31  45  75 110 137 156 186 244 307
#     4   9  17  26  35  55  92 129 152 178 228 289
#     4   9  19  37  58  74  90 122 169 212 244 279
#
# _framework density 19.933948999999998
#
# number of rings (size 3 to 8) (size 9 to 14) (size 15 to 20)
#    0.000    3.000    0.000    3.500    0.000    6.667 
#    0.000    5.000    0.000    0.000    0.000    0.000 
#    0.000   10.667    0.000   29.333    0.000   24.000 
#
# Total GULP energy -267798.625801 kJ/mol
# GULP energy per Si atom -5579.138038 kJ/mol
# Density = 1.988858 g / cm^3
# Si number density = 19.933949 Si / 1000 Ang^3
#
#
#
# Elastic Constant Matrix: (Units=GPa)
#
#
# Indices 1 2 3 4 5 6 
#
# 1 27.0858 19.4793 19.5009 0.0000 0.0000 0.0000
# 2 19.4793 154.9222 138.4131 0.0000 0.0000 0.0000
# 3 19.5009 138.4131 184.8640 0.0000 0.0000 0.0000
# 4 0.0000 0.0000 0.0000 -9.0182 0.0000 0.0000
# 5 0.0000 0.0000 0.0000 0.0000 34.4126 0.0000
# 6 0.0000 0.0000 0.0000 0.0000 0.0000 41.7573
#
#
#
# Elastic Compliance Matrix: (Units=1/GPa)
#
#
# Indices 1 2 3 4 5 6 
#
# 1 0.040709 -0.003872 -0.001395 0.000000 0.000000 0.000000
# 2 -0.003872 0.019866 -0.014466 0.000000 0.000000 0.000000
# 3 -0.001395 -0.014466 0.016387 0.000000 0.000000 0.000000
# 4 0.000000 0.000000 0.000000 -0.110887 0.000000 0.000000
# 5 0.000000 0.000000 0.000000 0.000000 0.029059 0.000000
# 6 0.000000 0.000000 0.000000 0.000000 0.000000 0.023948
#
#
# Mechanical properties :
#
#
# Convention : Reuss Voigt Hill
#
# Bulk Modulus (GPa) = 26.66930 80.18427 53.42679
# Shear Modulus (GPa) = 70.37602 26.06227 48.21915
#
# Velocity S-wave (km/s) = 5.94821 3.61976 4.92361
# Velocity P-wave (km/s) = 7.78350 7.60148 7.69303
#
# Compressibility (1/GPa) = 0.03749629
#
# Stress axis : x y z
#
# Youngs Moduli (GPa) = 24.56468 50.33741 61.02220
#
# Poissons Ratio (x) = 0.19491 0.08513
# Poissons Ratio (y) = 0.09512 0.88273
# Poissons Ratio (z) = 0.03427 0.72817
#
# Static dielectric constant tensor:
#      x y z
#    x 1.747750 0.000000 0.000000 
#    y 0.000000 1.679810 0.000000 
#    z 0.000000 0.000000 1.681770 
# 
# From -- ./inp_files/62617.got.cif
#   From: 2010.05.17/outbox.cif.g08.bks.cpg/sg65_32_cif.got.tgz:62617.got - 2010.06.03 17:01:31.
