data_PCOD9493861
_publ_section_title
;
Structure prediction by ZEFSAII (Michael W. Deem and Ramdas Pophale) SiO2 
 PCOD9493861
Probable space group: C M M M
;
_chemical_formula_sum "Si O2"
_cell_formula_units_Z 88
_cell_length_a 15.985384
_cell_length_b 12.365728
_cell_length_c 23.417859
_cell_angle_alpha 90.000000
_cell_angle_beta 90.000000
_cell_angle_gamma 90.000000
_cell_volume 4629.029511
_symmetry_space_group_name_H-M "C M M M"
_symmetry_group_IT_number 65
_symmetry_cell_setting 'orthorhombic'
loop_
_space_group_symop_operation_xyz
x,y,z
-x,-y,z
x,-y,-z
-x,y,-z
-x,-y,-z
x,y,-z
-x,y,z
x,-y,z
1/2+x,1/2+y,z
1/2-x,1/2-y,z
1/2+x,1/2-y,-z
1/2-x,1/2+y,-z
1/2-x,1/2-y,-z
1/2+x,1/2+y,-z
1/2-x,1/2+y,z
1/2+x,1/2-y,z
loop_
_atom_site_type_symbol
_atom_site_label
_atom_site_fract_x
_atom_site_fract_y
_atom_site_fract_z
Si Si1 0.400917 0.379902 0.562119
Si Si2 0.094415 0.500000 0.067959
Si Si3 0.601630 0.000000 0.431607
Si Si4 0.000000 0.130105 0.068952
Si Si5 0.152939 0.274755 0.117676
Si Si6 0.342129 0.798701 0.643019
Si Si7 0.600082 0.874480 0.232784
O O1 0.368910 0.339194 0.500000
O O2 0.500000 0.389989 0.556548
O O3 0.365158 0.500000 0.571387
O O4 0.388719 0.301241 0.614260
O O5 0.135192 0.390006 0.088577
O O6 0.000000 0.500000 0.091271
O O7 0.091972 0.500000 0.000000
O O8 0.643541 0.103484 0.401472
O O9 0.500000 0.000000 0.420595
O O10 0.612611 0.000000 0.500000
O O11 0.916718 0.189406 0.094427
O O12 0.000000 0.000000 0.080310
O O13 0.000000 0.145168 0.000000
O O14 0.250000 0.250000 0.106607
O O15 0.138584 0.296761 0.184887
O O16 0.250000 0.750000 0.649069
O O17 0.375140 0.838025 0.703903
O O18 0.500000 0.870413 0.227135
O O19 0.626254 0.000000 0.223842
#
# Coordination Sequence:
#
# PCOD9493861 Si02
#       7
#    16   8   8   8  16  16  16
#     4   9  19  37  60  84 117 162 206 251 311 389
#     4  11  22  41  71 104 137 181 238 287 328 395
#     4  11  24  43  67  95 129 173 225 277 338 414
#     4  11  26  47  69 101 151 194 223 274 348 415
#     4  12  25  44  70 105 139 182 236 289 347 408
#     4  12  25  39  61  96 128 165 214 272 337 400
#     4  11  22  43  72  95 125 174 227 285 340 399
#
# _framework density 19.010463000000001
#
# number of rings (size 3 to 8) (size 9 to 14) (size 15 to 20)
#    0.000    1.000    3.636    3.818    2.545    4.364 
#    0.000    0.909    0.000    0.000    0.000    0.000 
#    0.000    0.000    0.000    0.000    0.000    0.000 
#
# Total GULP energy -245604.114065 kJ/mol
# GULP energy per Si atom -5581.911683 kJ/mol
# Density = 1.896719 g / cm^3
# Si number density = 19.010463 Si / 1000 Ang^3
#
#
#
# Elastic Constant Matrix: (Units=GPa)
#
#
# Indices 1 2 3 4 5 6 
#
# 1 117.9797 62.3065 38.3897 0.0000 0.0000 0.0000
# 2 62.3065 128.5671 62.0383 0.0000 0.0000 0.0000
# 3 38.3897 62.0383 122.9005 0.0000 0.0000 0.0000
# 4 0.0000 0.0000 0.0000 45.7765 0.0000 0.0000
# 5 0.0000 0.0000 0.0000 0.0000 -37.5838 0.0000
# 6 0.0000 0.0000 0.0000 0.0000 0.0000 34.3485
#
#
#
# Elastic Compliance Matrix: (Units=1/GPa)
#
#
# Indices 1 2 3 4 5 6 
#
# 1 0.011489 -0.005071 -0.001029 0.000000 0.000000 0.000000
# 2 -0.005071 0.012521 -0.004736 0.000000 0.000000 0.000000
# 3 -0.001029 -0.004736 0.010849 0.000000 0.000000 0.000000
# 4 0.000000 0.000000 0.000000 0.021845 0.000000 0.000000
# 5 0.000000 0.000000 0.000000 0.000000 -0.026607 0.000000
# 6 0.000000 0.000000 0.000000 0.000000 0.000000 0.029113
#
#
# Mechanical properties :
#
#
# Convention : Reuss Voigt Hill
#
# Bulk Modulus (GPa) = 75.83826 77.21293 76.52560
# Shear Modulus (GPa) = 58.63090 22.28909 40.45999
#
# Velocity S-wave (km/s) = 5.55953 3.42784 4.61836
# Velocity P-wave (km/s) = 9.01058 7.50806 8.29342
#
# Compressibility (1/GPa) = 0.01318596
#
# Stress axis : x y z
#
# Youngs Moduli (GPa) = 87.03913 79.86420 92.17533
#
# Poissons Ratio (x) = 0.40503 0.09483
# Poissons Ratio (y) = 0.44141 0.43658
# Poissons Ratio (z) = 0.08955 0.37827
#
# Static dielectric constant tensor:
#      x y z
#    x 1.663540 0.000000 0.000000 
#    y 0.000000 1.635630 0.000000 
#    z 0.000000 0.000000 1.674300 
# 
# From -- ./inp_files/69834.got.cif
#   From: 2010.05.17/outbox.cif.g08.bks.cpg/sg65_35_cif.got.tgz:69834.got - 2010.06.03 17:01:31.
