data_PCOD9493885
_publ_section_title
;
Structure prediction by ZEFSAII (Michael W. Deem and Ramdas Pophale) SiO2 
 PCOD9493885
Probable space group: C M M M
;
_chemical_formula_sum "Si O2"
_cell_formula_units_Z 88
_cell_length_a 18.784992
_cell_length_b 8.037978
_cell_length_c 31.625681
_cell_angle_alpha 90.000000
_cell_angle_beta 90.000000
_cell_angle_gamma 90.000000
_cell_volume 4775.267597
_symmetry_space_group_name_H-M "C M M M"
_symmetry_group_IT_number 65
_symmetry_cell_setting 'orthorhombic'
loop_
_space_group_symop_operation_xyz
x,y,z
-x,-y,z
x,-y,-z
-x,y,-z
-x,-y,-z
x,y,-z
-x,y,z
x,-y,z
1/2+x,1/2+y,z
1/2-x,1/2-y,z
1/2+x,1/2-y,-z
1/2-x,1/2+y,-z
1/2-x,1/2-y,-z
1/2+x,1/2+y,-z
1/2-x,1/2+y,z
1/2+x,1/2-y,z
loop_
_atom_site_type_symbol
_atom_site_label
_atom_site_fract_x
_atom_site_fract_y
_atom_site_fract_z
Si Si1 0.083715 0.200149 0.954401
Si Si2 0.413236 0.308003 0.393447
Si Si3 0.413125 0.000000 0.548769
Si Si4 0.418367 0.199748 0.863480
Si Si5 0.919247 0.199923 0.701201
Si Si6 0.668439 0.802006 0.782913
O O1 0.113287 0.260132 0.909687
O O2 0.000000 0.250005 0.954149
O O3 0.085990 0.000000 0.954162
O O4 0.113584 0.257210 0.000000
O O5 0.500000 0.311791 0.393488
O O6 0.390263 0.500000 0.401454
O O7 0.390488 0.167862 0.426736
O O8 0.393151 0.253357 0.345769
O O9 0.500000 0.000000 0.549354
O O10 0.390595 0.000000 0.500000
O O11 0.500000 0.263631 0.861332
O O12 0.373219 0.265428 0.824073
O O13 0.421762 0.000000 0.860414
O O14 0.870075 0.250527 0.739771
O O15 0.000000 0.264556 0.707388
O O16 0.923066 0.000000 0.700334
O O17 0.750000 0.750000 0.783177
O O18 0.665392 0.000000 0.785283
#
# Coordination Sequence:
#
# PCOD9493885 Si02
#       6
#    16  16   8  16  16  16
#     4   8  14  25  43  69  97 122 151 191 238 286
#     4   8  15  27  42  64  95 130 168 209 250 297
#     4   9  16  24  38  64  98 136 172 204 248 304
#     4   9  18  32  49  71  97 125 161 199 242 297
#     4   9  18  33  53  75  98 129 169 210 252 301
#     4  11  23  36  50  70  99 133 165 208 254 302
#
# _framework density 18.428287000000001
#
# number of rings (size 3 to 8) (size 9 to 14) (size 15 to 20)
#    0.000    3.000    0.000    2.727    1.273    3.273 
#    0.000    5.455    0.000    0.545    0.000    0.000 
#    0.000    0.727    0.364    0.000    0.000    0.000 
#
# Total GULP energy -245065.826072 kJ/mol
# GULP energy per Si atom -5569.677865 kJ/mol
# Density = 1.838634 g / cm^3
# Si number density = 18.428287 Si / 1000 Ang^3
#
#
#
# Elastic Constant Matrix: (Units=GPa)
#
#
# Indices 1 2 3 4 5 6 
#
# 1 42.7515 14.9040 59.9529 0.0000 0.0000 0.0000
# 2 14.9040 46.2190 61.4961 0.0000 0.0000 0.0000
# 3 59.9529 61.4961 215.7394 0.0000 0.0000 0.0000
# 4 0.0000 0.0000 0.0000 -155.8151 0.0000 0.0000
# 5 0.0000 0.0000 0.0000 0.0000 -3.6640 0.0000
# 6 0.0000 0.0000 0.0000 0.0000 0.0000 9.3386
#
#
#
# Elastic Compliance Matrix: (Units=1/GPa)
#
#
# Indices 1 2 3 4 5 6 
#
# 1 0.038574 0.002938 -0.011557 0.000000 0.000000 0.000000
# 2 0.002938 0.035080 -0.010816 0.000000 0.000000 0.000000
# 3 -0.011557 -0.010816 0.010930 0.000000 0.000000 0.000000
# 4 0.000000 0.000000 0.000000 -0.006418 0.000000 0.000000
# 5 0.000000 0.000000 0.000000 0.000000 -0.272924 0.000000
# 6 0.000000 0.000000 0.000000 0.000000 0.000000 0.107082
#
#
# Mechanical properties :
#
#
# Convention : Reuss Voigt Hill
#
# Bulk Modulus (GPa) = 21.87508 64.15733 43.01620
# Shear Modulus (GPa) = -148.94790 -18.80431 -83.87611
#
# Velocity S-wave (km/s) = -9.00006 -3.19784 -6.75379
# Velocity P-wave (km/s) = 9.80334 4.61034 6.11760
#
# Compressibility (1/GPa) = 0.04571412
#
# Stress axis : x y z
#
# Youngs Moduli (GPa) = 25.92442 28.50657 91.49191
#
# Poissons Ratio (x) = -0.08376 1.05737
# Poissons Ratio (y) = -0.07618 0.98957
# Poissons Ratio (z) = 0.29961 0.30833
#
# Static dielectric constant tensor:
#      x y z
#    x 1.596860 0.000000 0.000000 
#    y 0.000000 1.646000 0.000000 
#    z 0.000000 0.000000 1.671680 
# 
# From -- ./inp_files/77847.got.cif
#   From: 2010.05.17/outbox.cif.g08.bks.cpg/sg65_39_cif.got.tgz:77847.got - 2010.06.03 17:01:31.
