data_PCOD9493409
_publ_section_title
;
Structure prediction by ZEFSAII (Michael W. Deem and Ramdas Pophale) SiO2 
 PCOD9493409
Probable space group: C M M M
;
_chemical_formula_sum "Si O2"
_cell_formula_units_Z 80
_cell_length_a 20.924197
_cell_length_b 17.226213
_cell_length_c 11.629130
_cell_angle_alpha 90.000000
_cell_angle_beta 90.000000
_cell_angle_gamma 90.000000
_cell_volume 4191.657976
_symmetry_space_group_name_H-M "C M M M"
_symmetry_group_IT_number 65
_symmetry_cell_setting 'orthorhombic'
loop_
_space_group_symop_operation_xyz
x,y,z
-x,-y,z
x,-y,-z
-x,y,-z
-x,-y,-z
x,y,-z
-x,y,z
x,-y,z
1/2+x,1/2+y,z
1/2-x,1/2-y,z
1/2+x,1/2-y,-z
1/2-x,1/2+y,-z
1/2-x,1/2-y,-z
1/2+x,1/2+y,-z
1/2-x,1/2+y,z
1/2+x,1/2-y,z
loop_
_atom_site_type_symbol
_atom_site_label
_atom_site_fract_x
_atom_site_fract_y
_atom_site_fract_z
Si Si1 0.925496 0.795187 0.500000
Si Si2 0.075497 0.377347 0.500000
Si Si3 0.254975 0.907012 0.363464
Si Si4 0.000000 0.675905 0.137229
Si Si5 0.381356 0.912691 0.746789
Si Si6 0.500000 0.360003 0.136470
Si Si7 0.110912 0.089639 0.299273
O O1 0.895427 0.709918 0.500000
O O2 0.910754 0.847459 0.391359
O O3 0.000000 0.780740 0.500000
O O4 0.095497 0.417936 0.384341
O O5 0.000000 0.374485 0.500000
O O6 0.253525 0.880353 0.500000
O O7 0.311057 0.877046 0.278633
O O8 0.187210 0.897395 0.299428
O O9 0.265861 0.000000 0.371278
O O10 0.935612 0.637017 0.188856
O O11 0.000000 0.767707 0.163679
O O12 0.000000 0.665921 0.000000
O O13 0.377428 0.000000 0.797085
O O14 0.435687 0.396504 0.191377
O O15 0.500000 0.369937 0.000000
O O16 0.101574 0.000000 0.337510
#
# Coordination Sequence:
#
# PCOD9493409 Si02
#       7
#     8   8  16   8  16   8  16
#     4  11  21  32  51  84 125 155 184 230 289 348
#     4  11  21  32  51  84 125 155 184 230 289 348
#     4   9  18  34  55  88 127 153 180 227 289 344
#     4  11  25  44  61  80 113 153 195 247 296 339
#     4  11  21  36  61  87 116 152 193 238 283 339
#     4  11  25  44  61  80 113 153 195 247 296 339
#     4  11  21  36  61  87 116 152 193 238 283 339
#
# _framework density 19.085526999999999
#
# number of rings (size 3 to 8) (size 9 to 14) (size 15 to 20)
#    0.000    1.400    4.000    2.400    0.000    2.400 
#    0.000    6.000    0.000    6.000    0.000    0.000 
#    0.000    0.000    0.000    0.000    0.000    0.000 
#
# Total GULP energy -222826.480779 kJ/mol
# GULP energy per Si atom -5570.662019 kJ/mol
# Density = 1.904209 g / cm^3
# Si number density = 19.085527 Si / 1000 Ang^3
#
#
#
# Elastic Constant Matrix: (Units=GPa)
#
#
# Indices 1 2 3 4 5 6 
#
# 1 153.4574 31.0196 44.6431 0.0000 0.0000 0.0000
# 2 31.0196 81.8775 26.8045 0.0000 0.0000 0.0000
# 3 44.6431 26.8045 69.6928 0.0000 0.0000 0.0000
# 4 0.0000 0.0000 0.0000 41.3132 0.0000 0.0000
# 5 0.0000 0.0000 0.0000 0.0000 -2.4456 0.0000
# 6 0.0000 0.0000 0.0000 0.0000 0.0000 45.9915
#
#
#
# Elastic Compliance Matrix: (Units=1/GPa)
#
#
# Indices 1 2 3 4 5 6 
#
# 1 0.008185 -0.001584 -0.004634 0.000000 0.000000 0.000000
# 2 -0.001584 0.014279 -0.004477 0.000000 0.000000 0.000000
# 3 -0.004634 -0.004477 0.019039 0.000000 0.000000 0.000000
# 4 0.000000 0.000000 0.000000 0.024205 0.000000 0.000000
# 5 0.000000 0.000000 0.000000 0.000000 -0.408900 0.000000
# 6 0.000000 0.000000 0.000000 0.000000 0.000000 0.021743
#
#
# Mechanical properties :
#
#
# Convention : Reuss Voigt Hill
#
# Bulk Modulus (GPa) = 49.71909 56.66246 53.19078
# Shear Modulus (GPa) = -17.04422 30.47585 6.71581
#
# Velocity S-wave (km/s) = -2.99163 4.00034 1.87788
# Velocity P-wave (km/s) = 3.76485 7.14773 5.71245
#
# Compressibility (1/GPa) = 0.02011300
#
# Stress axis : x y z
#
# Youngs Moduli (GPa) = 122.18038 70.03205 52.52403
#
# Poissons Ratio (x) = 0.11092 0.24338
# Poissons Ratio (y) = 0.19351 0.23517
# Poissons Ratio (z) = 0.56614 0.31356
#
# Static dielectric constant tensor:
#      x y z
#    x 1.773950 0.000000 0.000000 
#    y 0.000000 1.693290 0.000000 
#    z 0.000000 0.000000 1.663070 
# 
# From -- ./inp_files/11597.got.cif
#   From: 2010.05.17/outbox.cif.g08.bks.cpg/sg65_6_cif.got.tgz:11597.got - 2010.06.03 17:01:31.
