data_PCOD9493267
_publ_section_title
;
Structure prediction by ZEFSAII (Michael W. Deem and Ramdas Pophale) SiO2 
 PCOD9493267
Probable space group: C M M M
;
_chemical_formula_sum "Si O2"
_cell_formula_units_Z 72
_cell_length_a 14.443504
_cell_length_b 23.258645
_cell_length_c 13.391721
_cell_angle_alpha 90.000000
_cell_angle_beta 90.000000
_cell_angle_gamma 90.000000
_cell_volume 4498.765633
_symmetry_space_group_name_H-M "C M M M"
_symmetry_group_IT_number 65
_symmetry_cell_setting 'orthorhombic'
loop_
_space_group_symop_operation_xyz
x,y,z
-x,-y,z
x,-y,-z
-x,y,-z
-x,-y,-z
x,y,-z
-x,y,z
x,-y,z
1/2+x,1/2+y,z
1/2-x,1/2-y,z
1/2+x,1/2-y,-z
1/2-x,1/2+y,-z
1/2-x,1/2-y,-z
1/2+x,1/2+y,-z
1/2-x,1/2+y,z
1/2+x,1/2-y,z
loop_
_atom_site_type_symbol
_atom_site_label
_atom_site_fract_x
_atom_site_fract_y
_atom_site_fract_z
Si Si1 0.107948 0.569143 0.112728
Si Si2 0.394866 0.121808 0.500000
Si Si3 0.215425 0.376358 0.704504
Si Si4 0.606766 0.430726 0.383295
Si Si5 0.395584 0.260596 0.500000
Si Si6 0.750000 0.250000 0.665885
O O1 0.113244 0.500000 0.117017
O O2 0.168624 0.595166 0.200254
O O3 0.000000 0.584966 0.127013
O O4 0.135283 0.586664 0.000000
O O5 0.500000 0.098794 0.500000
O O6 0.340698 0.107911 0.602267
O O7 0.400774 0.191225 0.500000
O O8 0.318308 0.399963 0.685205
O O9 0.214741 0.307250 0.719101
O O10 0.622597 0.414947 0.500000
O O11 0.500000 0.416806 0.359277
O O12 0.617075 0.500000 0.376445
O O13 0.500000 0.283622 0.500000
O O14 0.332553 0.274117 0.404750
#
# Coordination Sequence:
#
# PCOD9493267 Si02
#       6
#    16   8  16  16   8   8
#     4   9  19  36  57  77  94 121 164 205 246 301
#     4   9  17  27  43  70 101 131 161 192 239 298
#     4  11  18  32  49  72 103 134 157 202 247 287
#     4   9  18  31  46  67  95 129 169 204 236 281
#     4   8  15  29  42  57  95 141 170 195 221 267
#     4   9  20  28  41  74 100 126 171 195 230 298
#
# _framework density 16.004389
#
# number of rings (size 3 to 8) (size 9 to 14) (size 15 to 20)
#    0.000    2.667    1.111    3.333    0.000    1.778 
#    0.000    0.556    0.000    3.333    0.000    3.111 
#    0.000    0.000    0.000    0.000    0.000    0.000 
#
# Total GULP energy -200634.951647 kJ/mol
# GULP energy per Si atom -5573.193101 kJ/mol
# Density = 1.596796 g / cm^3
# Si number density = 16.004389 Si / 1000 Ang^3
#
#
#
# Elastic Constant Matrix: (Units=GPa)
#
#
# Indices 1 2 3 4 5 6 
#
# 1 104.0162 35.2134 64.1934 0.0000 0.0000 0.0000
# 2 35.2134 44.2902 43.6320 0.0000 0.0000 0.0000
# 3 64.1934 43.6320 111.5558 0.0000 0.0000 0.0000
# 4 0.0000 0.0000 0.0000 20.7588 0.0000 0.0000
# 5 0.0000 0.0000 0.0000 0.0000 24.3762 0.0000
# 6 0.0000 0.0000 0.0000 0.0000 0.0000 19.1108
#
#
#
# Elastic Compliance Matrix: (Units=1/GPa)
#
#
# Indices 1 2 3 4 5 6 
#
# 1 0.015791 -0.005862 -0.006794 0.000000 0.000000 0.000000
# 2 -0.005862 0.038907 -0.011844 0.000000 0.000000 0.000000
# 3 -0.006794 -0.011844 0.017506 0.000000 0.000000 0.000000
# 4 0.000000 0.000000 0.000000 0.048172 0.000000 0.000000
# 5 0.000000 0.000000 0.000000 0.000000 0.041024 0.000000
# 6 0.000000 0.000000 0.000000 0.000000 0.000000 0.052326
#
#
# Mechanical properties :
#
#
# Convention : Reuss Voigt Hill
#
# Bulk Modulus (GPa) = 43.09586 60.66001 51.87793
# Shear Modulus (GPa) = 18.48679 20.63738 19.56208
#
# Velocity S-wave (km/s) = 3.40237 3.59483 3.49993
# Velocity P-wave (km/s) = 6.51313 7.43067 6.98698
#
# Compressibility (1/GPa) = 0.02320408
#
# Stress axis : x y z
#
# Youngs Moduli (GPa) = 63.32557 25.70212 57.12186
#
# Poissons Ratio (x) = 0.15066 0.38810
# Poissons Ratio (y) = 0.37120 0.67658
# Poissons Ratio (z) = 0.43025 0.30443
#
# Static dielectric constant tensor:
#      x y z
#    x 1.556580 0.000000 0.000000 
#    y 0.000000 1.559510 0.000000 
#    z 0.000000 0.000000 1.505900 
# 
# From -- ./inp_files/24555.got.cif
#   From: 2010.05.17/outbox.cif.g08.bks.cpg/sg65_13_cif.got.tgz:24555.got - 2010.06.03 17:01:31.
