data_PCOD9493039
_publ_section_title
;
Structure prediction by ZEFSAII (Michael W. Deem and Ramdas Pophale) SiO2 
 PCOD9493039
Probable space group: C M M M
;
_chemical_formula_sum "Si O2"
_cell_formula_units_Z 66
_cell_length_a 9.378849
_cell_length_b 15.175814
_cell_length_c 24.409335
_cell_angle_alpha 90.000000
_cell_angle_beta 90.000000
_cell_angle_gamma 90.000000
_cell_volume 3474.221364
_symmetry_space_group_name_H-M "C M M M"
_symmetry_group_IT_number 65
_symmetry_cell_setting 'orthorhombic'
loop_
_space_group_symop_operation_xyz
x,y,z
-x,-y,z
x,-y,-z
-x,y,-z
-x,-y,-z
x,y,-z
-x,y,z
x,-y,z
1/2+x,1/2+y,z
1/2-x,1/2-y,z
1/2+x,1/2-y,-z
1/2-x,1/2+y,-z
1/2-x,1/2-y,-z
1/2+x,1/2+y,-z
1/2-x,1/2+y,z
1/2+x,1/2-y,z
loop_
_atom_site_type_symbol
_atom_site_label
_atom_site_fract_x
_atom_site_fract_y
_atom_site_fract_z
Si Si1 0.665038 0.000000 0.808854
Si Si2 0.332943 0.606179 0.000000
Si Si3 0.330380 0.163889 0.890095
Si Si4 0.500000 0.000000 0.500000
Si Si5 0.837386 0.160148 0.379155
Si Si6 0.672525 0.500000 0.304086
Si Si7 0.761526 0.858231 0.500000
O O1 0.686894 0.915451 0.847440
O O2 0.765580 0.000000 0.756509
O O3 0.500000 0.000000 0.790550
O O4 0.248967 0.639481 0.946664
O O5 0.330482 0.500000 0.000000
O O6 0.500000 0.634098 0.000000
O O7 0.500000 0.177867 0.898923
O O8 0.250000 0.250000 0.868519
O O9 0.623211 0.920758 0.500000
O O10 0.750000 0.250000 0.376273
O O11 0.780702 0.085911 0.338121
O O12 0.833751 0.124435 0.441457
O O13 0.000000 0.179699 0.364491
O O14 0.500000 0.500000 0.303242
O O15 0.750000 0.750000 0.500000
#
# Coordination Sequence:
#
# PCOD9493039 Si02
#       7
#     8   8  16   2  16   8   8
#     4  10  24  44  63  86 118 164 212 264 314 369
#     4  11  22  37  62  96 130 162 202 243 307 367
#     4  11  23  41  64  91 125 162 207 252 309 369
#     4  12  24  40  62  98 132 184 218 256 340 392
#     4  10  22  40  64  94 129 168 208 263 323 384
#     4  10  23  42  61  88 122 161 213 263 317 376
#     4  10  23  38  65  97 138 166 223 264 326 405
#
# _framework density 18.997062
#
# number of rings (size 3 to 8) (size 9 to 14) (size 15 to 20)
#    0.000    1.576    1.212    2.545    6.788    4.364 
#    2.182    7.273    0.000    0.000    0.000    0.000 
#    0.000    0.000    0.000    0.000    0.000    0.000 
#
# Total GULP energy -183947.163942 kJ/mol
# GULP energy per Si atom -5574.156483 kJ/mol
# Density = 1.895382 g / cm^3
# Si number density = 18.997062 Si / 1000 Ang^3
#
#
#
# Elastic Constant Matrix: (Units=GPa)
#
#
# Indices 1 2 3 4 5 6 
#
# 1 105.7970 73.4787 46.1701 0.0000 0.0000 0.0000
# 2 73.4787 136.8753 44.0819 0.0000 0.0000 0.0000
# 3 46.1701 44.0819 104.0951 0.0000 0.0000 0.0000
# 4 0.0000 0.0000 0.0000 -74.2339 0.0000 0.0000
# 5 0.0000 0.0000 0.0000 0.0000 96.0602 0.0000
# 6 0.0000 0.0000 0.0000 0.0000 0.0000 38.1516
#
#
#
# Elastic Compliance Matrix: (Units=1/GPa)
#
#
# Indices 1 2 3 4 5 6 
#
# 1 0.016470 -0.007514 -0.004123 0.000000 0.000000 0.000000
# 2 -0.007514 0.011887 -0.001702 0.000000 0.000000 0.000000
# 3 -0.004123 -0.001702 0.012156 0.000000 0.000000 0.000000
# 4 0.000000 0.000000 0.000000 -0.013471 0.000000 0.000000
# 5 0.000000 0.000000 0.000000 0.000000 0.010410 0.000000
# 6 0.000000 0.000000 0.000000 0.000000 0.000000 0.026211
#
#
# Mechanical properties :
#
#
# Convention : Reuss Voigt Hill
#
# Bulk Modulus (GPa) = 72.27164 74.91431 73.59298
# Shear Modulus (GPa) = 52.65810 24.19802 38.42806
#
# Velocity S-wave (km/s) = 5.27060 3.57287 4.50248
# Velocity P-wave (km/s) = 8.66979 7.51937 8.11499
#
# Compressibility (1/GPa) = 0.01383669
#
# Stress axis : x y z
#
# Youngs Moduli (GPa) = 60.71732 84.12267 82.26449
#
# Poissons Ratio (x) = 0.63206 0.33919
# Poissons Ratio (y) = 0.45620 0.13997
# Poissons Ratio (z) = 0.25035 0.14313
#
# Static dielectric constant tensor:
#      x y z
#    x 1.660560 0.000000 0.000000 
#    y 0.000000 1.671140 0.000000 
#    z 0.000000 0.000000 1.633030 
# 
# From -- ./inp_files/66946.got.cif
#   From: 2010.05.17/outbox.cif.g08.bks.cpg/sg65_34_cif.got.tgz:66946.got - 2010.06.03 17:01:31.
