data_PCOD9493910
_publ_section_title
;
Structure prediction by ZEFSAII (Michael W. Deem and Ramdas Pophale) SiO2 
 PCOD9493910
Probable space group: C M M M
;
_chemical_formula_sum "Si O2"
_cell_formula_units_Z 80
_cell_length_a 9.595094
_cell_length_b 17.781553
_cell_length_c 26.331359
_cell_angle_alpha 90.000000
_cell_angle_beta 90.000000
_cell_angle_gamma 90.000000
_cell_volume 4492.542524
_symmetry_space_group_name_H-M "C M M M"
_symmetry_group_IT_number 65
_symmetry_cell_setting 'orthorhombic'
loop_
_space_group_symop_operation_xyz
x,y,z
-x,-y,z
x,-y,-z
-x,y,-z
-x,-y,-z
x,y,-z
-x,y,z
x,-y,z
1/2+x,1/2+y,z
1/2-x,1/2-y,z
1/2+x,1/2-y,-z
1/2-x,1/2+y,-z
1/2-x,1/2-y,-z
1/2+x,1/2+y,-z
1/2-x,1/2+y,z
1/2+x,1/2-y,z
loop_
_atom_site_type_symbol
_atom_site_label
_atom_site_fract_x
_atom_site_fract_y
_atom_site_fract_z
Si Si1 0.161386 0.591604 0.443035
Si Si2 0.165805 0.672794 0.856474
Si Si3 0.661992 0.089604 0.749952
Si Si4 0.160383 0.090503 0.941370
Si Si5 0.660230 0.591928 0.346876
O O1 0.203521 0.615341 0.500000
O O2 0.164667 0.500000 0.442776
O O3 0.259074 0.617454 0.397375
O O4 0.000000 0.612933 0.434724
O O5 0.250000 0.750000 0.854632
O O6 0.188353 0.629698 0.803277
O O7 0.231013 0.625699 0.902668
O O8 0.000000 0.683704 0.862970
O O9 0.500000 0.101394 0.735719
O O10 0.760112 0.115646 0.704146
O O11 0.681937 0.000000 0.756712
O O12 0.000000 0.112151 0.928764
O O13 0.167404 0.000000 0.938876
O O14 0.186526 0.112547 0.000000
O O15 0.500000 0.615611 0.346885
O O16 0.663036 0.500000 0.347173
#
# Coordination Sequence:
#
# PCOD9493910 Si02
#       5
#    16  16  16  16  16
#     4   8  13  21  33  50  77 116 156 191 233 287
#     4  11  23  37  54  77 105 137 172 211 255 301
#     4   9  18  33  51  69  92 125 165 206 247 296
#     4   9  19  37  60  84 109 137 169 206 249 297
#     4   9  16  24  37  60  87 116 153 197 244 291
#
# _framework density 17.807288
#
# number of rings (size 3 to 8) (size 9 to 14) (size 15 to 20)
#    0.000    2.800    0.000    3.000    0.000    6.400 
#    0.000    5.000    0.000    0.000    0.000    0.000 
#    0.000    0.800    0.000    2.600    0.000    5.200 
#
# Total GULP energy -223026.243173 kJ/mol
# GULP energy per Si atom -5575.656079 kJ/mol
# Density = 1.776676 g / cm^3
# Si number density = 17.807288 Si / 1000 Ang^3
#
#
#
# Elastic Constant Matrix: (Units=GPa)
#
#
# Indices 1 2 3 4 5 6 
#
# 1 144.0780 40.0770 128.4441 0.0000 0.0000 0.0000
# 2 40.0770 19.0714 39.4808 0.0000 0.0000 0.0000
# 3 128.4441 39.4808 163.3745 0.0000 0.0000 0.0000
# 4 0.0000 0.0000 0.0000 -9.7087 0.0000 0.0000
# 5 0.0000 0.0000 0.0000 0.0000 26.3553 0.0000
# 6 0.0000 0.0000 0.0000 0.0000 0.0000 13.4878
#
#
#
# Elastic Compliance Matrix: (Units=1/GPa)
#
#
# Indices 1 2 3 4 5 6 
#
# 1 0.028964 -0.027465 -0.016134 0.000000 0.000000 0.000000
# 2 -0.027465 0.130969 -0.010057 0.000000 0.000000 0.000000
# 3 -0.016134 -0.010057 0.021236 0.000000 0.000000 0.000000
# 4 0.000000 0.000000 0.000000 -0.103000 0.000000 0.000000
# 5 0.000000 0.000000 0.000000 0.000000 0.037943 0.000000
# 6 0.000000 0.000000 0.000000 0.000000 0.000000 0.074141
#
#
# Mechanical properties :
#
#
# Convention : Reuss Voigt Hill
#
# Bulk Modulus (GPa) = 13.53975 82.50307 48.02141
# Shear Modulus (GPa) = 15.51918 13.92835 14.72377
#
# Velocity S-wave (km/s) = 2.95533 2.79977 2.87860
# Velocity P-wave (km/s) = 4.38923 7.54210 6.17044
#
# Compressibility (1/GPa) = 0.07385659
#
# Stress axis : x y z
#
# Youngs Moduli (GPa) = 34.52616 7.63541 47.09060
#
# Poissons Ratio (x) = 0.20970 0.75976
# Poissons Ratio (y) = 0.94825 0.47359
# Poissons Ratio (z) = 0.55704 0.07679
#
# Static dielectric constant tensor:
#      x y z
#    x 1.594810 0.000000 0.000000 
#    y 0.000000 1.596890 0.000000 
#    z 0.000000 0.000000 1.596630 
# 
# From -- ./inp_files/72751.got.cif
#   From: 2010.05.17/outbox.cif.g08.bks.cpg/sg65_37_cif.got.tgz:72751.got - 2010.06.03 17:01:31.
