data_PCOD9493786
_publ_section_title
;
Structure prediction by ZEFSAII (Michael W. Deem and Ramdas Pophale) SiO2 
 PCOD9493786
Probable space group: C M M M
;
_chemical_formula_sum "Si O2"
_cell_formula_units_Z 88
_cell_length_a 16.463022
_cell_length_b 9.963371
_cell_length_c 28.141189
_cell_angle_alpha 90.000000
_cell_angle_beta 90.000000
_cell_angle_gamma 90.000000
_cell_volume 4615.920323
_symmetry_space_group_name_H-M "C M M M"
_symmetry_group_IT_number 65
_symmetry_cell_setting 'orthorhombic'
loop_
_space_group_symop_operation_xyz
x,y,z
-x,-y,z
x,-y,-z
-x,y,-z
-x,-y,-z
x,y,-z
-x,y,z
x,-y,z
1/2+x,1/2+y,z
1/2-x,1/2-y,z
1/2+x,1/2-y,-z
1/2-x,1/2+y,-z
1/2-x,1/2-y,-z
1/2+x,1/2+y,-z
1/2-x,1/2+y,z
1/2+x,1/2-y,z
loop_
_atom_site_type_symbol
_atom_site_label
_atom_site_fract_x
_atom_site_fract_y
_atom_site_fract_z
Si Si1 0.878632 0.000000 0.445069
Si Si2 0.330077 0.841011 0.103147
Si Si3 0.407456 0.769194 0.389119
Si Si4 0.097296 0.652251 0.795401
Si Si5 0.599375 0.345001 0.288228
Si Si6 0.816246 0.500000 0.555474
Si Si7 0.669482 0.158474 0.000000
O O1 0.908583 0.131137 0.418170
O O2 0.780778 0.000000 0.443178
O O3 0.902970 0.000000 0.500000
O O4 0.250000 0.750000 0.104933
O O5 0.380971 0.813031 0.150381
O O6 0.371317 0.816769 0.051373
O O7 0.309582 0.000000 0.104731
O O8 0.500000 0.821742 0.385750
O O9 0.377398 0.732264 0.336370
O O10 0.351516 0.871926 0.417256
O O11 0.126920 0.500000 0.785341
O O12 0.127451 0.761294 0.757576
O O13 0.000000 0.649363 0.791213
O O14 0.500000 0.348043 0.288221
O O15 0.626526 0.500000 0.288438
O O16 0.841557 0.500000 0.500000
O O17 0.750000 0.250000 0.000000
O O18 0.691193 0.000000 0.000000
#
# Coordination Sequence:
#
# PCOD9493786 Si02
#       7
#     8  16  16  16  16   8   8
#     4  11  23  41  61  81 113 153 181 214 273 334
#     4   9  17  30  48  72 101 133 173 216 258 304
#     4  11  22  38  62  88 110 139 188 235 265 312
#     4   9  18  32  52  75 102 136 171 207 258 319
#     4   9  18  34  55  79 103 131 172 219 262 305
#     4  11  25  41  57  83 121 153 175 212 279 340
#     4   8  14  26  45  67  95 133 171 210 256 304
#
# _framework density 19.064454000000001
#
# number of rings (size 3 to 8) (size 9 to 14) (size 15 to 20)
#    0.000    2.364    0.909    1.636    1.273    4.364 
#    0.000    2.273    0.000    2.727    0.000    0.000 
#    0.000   10.182    0.000    0.000    0.000    0.000 
#
# Total GULP energy -245339.727428 kJ/mol
# GULP energy per Si atom -5575.902896 kJ/mol
# Density = 1.902106 g / cm^3
# Si number density = 19.064454 Si / 1000 Ang^3
#
#
#
# Elastic Constant Matrix: (Units=GPa)
#
#
# Indices 1 2 3 4 5 6 
#
# 1 27.2067 19.7120 22.6484 0.0000 0.0000 0.0000
# 2 19.7120 83.0880 68.4202 0.0000 0.0000 0.0000
# 3 22.6484 68.4202 187.4749 0.0000 0.0000 0.0000
# 4 0.0000 0.0000 0.0000 32.3098 0.0000 0.0000
# 5 0.0000 0.0000 0.0000 0.0000 25.9418 0.0000
# 6 0.0000 0.0000 0.0000 0.0000 0.0000 19.3918
#
#
#
# Elastic Compliance Matrix: (Units=1/GPa)
#
#
# Indices 1 2 3 4 5 6 
#
# 1 0.045012 -0.008865 -0.002202 0.000000 0.000000 0.000000
# 2 -0.008865 0.018953 -0.005846 0.000000 0.000000 0.000000
# 3 -0.002202 -0.005846 0.007734 0.000000 0.000000 0.000000
# 4 0.000000 0.000000 0.000000 0.030950 0.000000 0.000000
# 5 0.000000 0.000000 0.000000 0.000000 0.038548 0.000000
# 6 0.000000 0.000000 0.000000 0.000000 0.000000 0.051568
#
#
# Mechanical properties :
#
#
# Convention : Reuss Voigt Hill
#
# Bulk Modulus (GPa) = 26.40519 57.70342 42.05430
# Shear Modulus (GPa) = 20.90166 27.99460 24.44813
#
# Velocity S-wave (km/s) = 3.31474 3.83615 3.58494
# Velocity P-wave (km/s) = 5.34140 7.06786 6.26439
#
# Compressibility (1/GPa) = 0.03787135
#
# Stress axis : x y z
#
# Youngs Moduli (GPa) = 22.21620 52.76344 129.30592
#
# Poissons Ratio (x) = 0.46776 0.28478
# Poissons Ratio (y) = 0.19695 0.75590
# Poissons Ratio (z) = 0.04893 0.30845
#
# Static dielectric constant tensor:
#      x y z
#    x 1.650370 0.000000 0.000000 
#    y 0.000000 1.639880 0.000000 
#    z 0.000000 0.000000 1.684110 
# 
# From -- ./inp_files/78010.got.cif
#   From: 2010.05.17/outbox.cif.g08.bks.cpg/sg65_40_cif.got.tgz:78010.got - 2010.06.03 17:01:31.
