data_PCOD9493434
_publ_section_title
;
Structure prediction by ZEFSAII (Michael W. Deem and Ramdas Pophale) SiO2 
 PCOD9493434
Probable space group: C M M M
;
_chemical_formula_sum "Si O2"
_cell_formula_units_Z 104
_cell_length_a 18.816999
_cell_length_b 8.979725
_cell_length_c 35.117615
_cell_angle_alpha 90.000000
_cell_angle_beta 90.000000
_cell_angle_gamma 90.000000
_cell_volume 5933.875252
_symmetry_space_group_name_H-M "C M M M"
_symmetry_group_IT_number 65
_symmetry_cell_setting 'orthorhombic'
loop_
_space_group_symop_operation_xyz
x,y,z
-x,-y,z
x,-y,-z
-x,y,-z
-x,-y,-z
x,y,-z
-x,y,z
x,-y,z
1/2+x,1/2+y,z
1/2-x,1/2-y,z
1/2+x,1/2-y,-z
1/2-x,1/2+y,-z
1/2-x,1/2-y,-z
1/2+x,1/2+y,-z
1/2-x,1/2+y,z
1/2+x,1/2-y,z
loop_
_atom_site_type_symbol
_atom_site_label
_atom_site_fract_x
_atom_site_fract_y
_atom_site_fract_z
Si Si1 0.086602 0.827856 0.922176
Si Si2 0.915018 0.324638 0.456132
Si Si3 0.416871 0.820956 0.843855
Si Si4 0.672165 0.820899 0.770611
Si Si5 0.086728 0.328133 0.000000
Si Si6 0.671644 0.677432 0.389589
Si Si7 0.328964 0.821082 0.686705
O O1 0.110087 0.749048 0.883281
O O2 0.110697 0.750365 0.961144
O O3 0.000000 0.819818 0.922295
O O4 0.106887 0.000000 0.922070
O O5 0.895893 0.290117 0.500000
O O6 0.899020 0.500000 0.449522
O O7 0.874085 0.225648 0.425826
O O8 0.000000 0.306546 0.452515
O O9 0.500000 0.782130 0.839606
O O10 0.374618 0.772129 0.806406
O O11 0.412259 0.000000 0.846801
O O12 0.750000 0.750000 0.773117
O O13 0.640091 0.787788 0.728635
O O14 0.679299 0.000000 0.772262
O O15 0.107403 0.500000 0.000000
O O16 0.000000 0.322145 0.000000
O O17 0.677731 0.500000 0.386212
O O18 0.750000 0.750000 0.393607
O O19 0.638405 0.746647 0.350810
O O20 0.250000 0.750000 0.688270
O O21 0.325204 0.000000 0.681959
#
# Coordination Sequence:
#
# PCOD9493434 Si02
#       7
#    16  16  16  16   8  16  16
#     4   9  16  25  38  59  87 117 149 187 231 275
#     4   9  19  37  58  77 100 132 167 202 243 292
#     4   9  17  30  46  65  92 123 154 189 231 279
#     4   9  18  31  49  71  93 122 160 199 237 280
#     4   9  15  23  37  57  82 115 152 187 226 273
#     4  11  21  33  52  77 104 132 164 204 247 290
#     4   9  16  29  48  70  96 125 160 200 243 287
#
# _framework density 17.526489000000002
#
# number of rings (size 3 to 8) (size 9 to 14) (size 15 to 20)
#    0.000    2.692    0.000    3.923    0.000    4.923 
#    0.000    1.538    0.000    2.769    0.000    0.538 
#    0.000    0.000    0.000    0.000    0.000    0.000 
#
# Total GULP energy -289731.107508 kJ/mol
# GULP energy per Si atom -5571.752067 kJ/mol
# Density = 1.748660 g / cm^3
# Si number density = 17.526489 Si / 1000 Ang^3
#
#
#
# Elastic Constant Matrix: (Units=GPa)
#
#
# Indices 1 2 3 4 5 6 
#
# 1 19.6317 25.5856 44.4456 0.0000 0.0000 0.0000
# 2 25.5856 87.4700 83.2012 0.0000 0.0000 0.0000
# 3 44.4456 83.2012 189.5580 0.0000 0.0000 0.0000
# 4 0.0000 0.0000 0.0000 28.4631 0.0000 0.0000
# 5 0.0000 0.0000 0.0000 0.0000 27.3391 0.0000
# 6 0.0000 0.0000 0.0000 0.0000 0.0000 16.5131
#
#
#
# Elastic Compliance Matrix: (Units=1/GPa)
#
#
# Indices 1 2 3 4 5 6 
#
# 1 0.117846 -0.014057 -0.021462 0.000000 0.000000 0.000000
# 2 -0.014057 0.021303 -0.006055 0.000000 0.000000 0.000000
# 3 -0.021462 -0.006055 0.012965 0.000000 0.000000 0.000000
# 4 0.000000 0.000000 0.000000 0.035133 0.000000 0.000000
# 5 0.000000 0.000000 0.000000 0.000000 0.036578 0.000000
# 6 0.000000 0.000000 0.000000 0.000000 0.000000 0.060558
#
#
# Mechanical properties :
#
#
# Convention : Reuss Voigt Hill
#
# Bulk Modulus (GPa) = 14.49930 67.01386 40.75658
# Shear Modulus (GPa) = 12.80347 24.02489 18.41418
#
# Velocity S-wave (km/s) = 2.70575 3.70642 3.24489
# Velocity P-wave (km/s) = 4.24879 7.52565 6.11096
#
# Compressibility (1/GPa) = 0.06896885
#
# Stress axis : x y z
#
# Youngs Moduli (GPa) = 8.48562 46.94100 77.13057
#
# Poissons Ratio (x) = 0.65984 1.65534
# Poissons Ratio (y) = 0.11928 0.46700
# Poissons Ratio (z) = 0.18211 0.28421
#
# Static dielectric constant tensor:
#      x y z
#    x 1.579180 0.000000 0.000000 
#    y 0.000000 1.585130 0.000000 
#    z 0.000000 0.000000 1.629580 
# 
# From -- ./inp_files/78362.got.cif
#   From: 2010.05.17/outbox.cif.g08.bks.cpg/sg65_40_cif.got.tgz:78362.got - 2010.06.03 17:01:31.
