data_PCOD9493333
_publ_section_title
;
Structure prediction by ZEFSAII (Michael W. Deem and Ramdas Pophale) SiO2 
 PCOD9493333
Probable space group: C M M M
;
_chemical_formula_sum "Si O2"
_cell_formula_units_Z 72
_cell_length_a 20.469406
_cell_length_b 17.265950
_cell_length_c 12.084028
_cell_angle_alpha 90.000000
_cell_angle_beta 90.000000
_cell_angle_gamma 90.000000
_cell_volume 4270.782376
_symmetry_space_group_name_H-M "C M M M"
_symmetry_group_IT_number 65
_symmetry_cell_setting 'orthorhombic'
loop_
_space_group_symop_operation_xyz
x,y,z
-x,-y,z
x,-y,-z
-x,y,-z
-x,-y,-z
x,y,-z
-x,y,z
x,-y,z
1/2+x,1/2+y,z
1/2-x,1/2-y,z
1/2+x,1/2-y,-z
1/2-x,1/2+y,-z
1/2-x,1/2-y,-z
1/2+x,1/2+y,-z
1/2-x,1/2+y,z
1/2+x,1/2-y,z
loop_
_atom_site_type_symbol
_atom_site_label
_atom_site_fract_x
_atom_site_fract_y
_atom_site_fract_z
Si Si1 0.078030 0.682141 0.000000
Si Si2 0.187436 0.190357 0.000000
Si Si3 0.674715 0.279711 0.626734
Si Si4 0.635041 0.863758 0.232515
Si Si5 0.922533 0.500000 0.376235
Si Si6 0.787355 0.091320 0.216914
O O1 0.121469 0.760001 0.000000
O O2 0.101259 0.640000 0.112651
O O3 0.000000 0.692638 0.000000
O O4 0.250000 0.250000 0.000000
O O5 0.190876 0.136635 0.892772
O O6 0.651024 0.278383 0.500000
O O7 0.750000 0.250000 0.625652
O O8 0.637565 0.220034 0.707619
O O9 0.678738 0.364545 0.680604
O O10 0.709544 0.892975 0.222030
O O11 0.599665 0.924365 0.311061
O O12 0.894026 0.500000 0.500000
O O13 0.000000 0.500000 0.382990
O O14 0.799743 0.000000 0.214024
#
# Coordination Sequence:
#
# PCOD9493333 Si02
#       6
#     8   8  16  16   8  16
#     4  12  24  37  62  87 113 150 194 243 288 346
#     4  12  19  38  59  81 118 150 190 241 293 355
#     4   9  18  32  53  82 114 149 190 238 286 335
#     4  11  20  38  57  82 117 154 194 234 288 343
#     4  11  24  39  55  81 123 166 197 230 280 350
#     4  11  20  33  57  86 114 151 191 241 294 343
#
# _framework density 16.858737999999999
#
# number of rings (size 3 to 8) (size 9 to 14) (size 15 to 20)
#    0.000    1.222    5.556    2.333    0.000    1.778 
#    0.000    1.111    0.000    1.333    0.000    0.000 
#    0.000    1.778    0.000    0.000    0.000    0.000 
#
# Total GULP energy -200903.330562 kJ/mol
# GULP energy per Si atom -5580.648071 kJ/mol
# Density = 1.682037 g / cm^3
# Si number density = 16.858738 Si / 1000 Ang^3
#
#
#
# Elastic Constant Matrix: (Units=GPa)
#
#
# Indices 1 2 3 4 5 6 
#
# 1 59.2443 30.5335 34.1490 0.0000 0.0000 0.0000
# 2 30.5335 140.9932 68.7301 0.0000 0.0000 0.0000
# 3 34.1490 68.7301 158.3702 0.0000 0.0000 0.0000
# 4 0.0000 0.0000 0.0000 156.9229 0.0000 0.0000
# 5 0.0000 0.0000 0.0000 0.0000 -18.8434 0.0000
# 6 0.0000 0.0000 0.0000 0.0000 0.0000 13.3244
#
#
#
# Elastic Compliance Matrix: (Units=1/GPa)
#
#
# Indices 1 2 3 4 5 6 
#
# 1 0.020137 -0.002846 -0.003107 0.000000 0.000000 0.000000
# 2 -0.002846 0.009398 -0.003465 0.000000 0.000000 0.000000
# 3 -0.003107 -0.003465 0.008488 0.000000 0.000000 0.000000
# 4 0.000000 0.000000 0.000000 0.006373 0.000000 0.000000
# 5 0.000000 0.000000 0.000000 0.000000 -0.053069 0.000000
# 6 0.000000 0.000000 0.000000 0.000000 0.000000 0.075050
#
#
# Mechanical properties :
#
#
# Convention : Reuss Voigt Hill
#
# Bulk Modulus (GPa) = 52.11895 69.49255 60.80575
# Shear Modulus (GPa) = 54.58012 45.29379 49.93695
#
# Velocity S-wave (km/s) = 5.69607 5.18893 5.44841
# Velocity P-wave (km/s) = 8.61641 8.78692 8.70208
#
# Compressibility (1/GPa) = 0.01918688
#
# Stress axis : x y z
#
# Youngs Moduli (GPa) = 49.65967 106.40621 117.81478
#
# Poissons Ratio (x) = 0.30288 0.36603
# Poissons Ratio (y) = 0.14135 0.40820
# Poissons Ratio (z) = 0.15428 0.36868
#
# Static dielectric constant tensor:
#      x y z
#    x 1.563970 0.000000 0.000000 
#    y 0.000000 1.558570 0.000000 
#    z 0.000000 0.000000 1.597010 
# 
# From -- ./inp_files/28489.got.cif
#   From: 2010.05.17/outbox.cif.g08.bks.cpg/sg65_15_cif.got.tgz:28489.got - 2010.06.03 17:01:31.
