data_PCOD9493437
_publ_section_title
;
Structure prediction by ZEFSAII (Michael W. Deem and Ramdas Pophale) SiO2 
 PCOD9493437
Probable space group: C M M M
;
_chemical_formula_sum "Si O2"
_cell_formula_units_Z 72
_cell_length_a 8.842035
_cell_length_b 15.654944
_cell_length_c 26.406892
_cell_angle_alpha 90.000000
_cell_angle_beta 90.000000
_cell_angle_gamma 90.000000
_cell_volume 3655.283259
_symmetry_space_group_name_H-M "C M M M"
_symmetry_group_IT_number 65
_symmetry_cell_setting 'orthorhombic'
loop_
_space_group_symop_operation_xyz
x,y,z
-x,-y,z
x,-y,-z
-x,y,-z
-x,-y,-z
x,y,-z
-x,y,z
x,-y,z
1/2+x,1/2+y,z
1/2-x,1/2-y,z
1/2+x,1/2-y,-z
1/2-x,1/2+y,-z
1/2-x,1/2-y,-z
1/2+x,1/2+y,-z
1/2-x,1/2+y,z
1/2+x,1/2-y,z
loop_
_atom_site_type_symbol
_atom_site_label
_atom_site_fract_x
_atom_site_fract_y
_atom_site_fract_z
Si Si1 0.171755 0.102045 0.055799
Si Si2 0.819178 0.845665 0.257886
Si Si3 0.321536 0.155959 0.842191
Si Si4 0.317912 0.655037 0.629164
Si Si5 0.684699 0.500000 0.441690
O O1 0.276468 0.120071 0.103339
O O2 0.000000 0.134719 0.065132
O O3 0.161913 0.000000 0.052492
O O4 0.221701 0.133517 0.000000
O O5 0.750000 0.750000 0.259581
O O6 0.750012 0.888134 0.207665
O O7 0.783829 0.879724 0.313999
O O8 0.000000 0.841852 0.252152
O O9 0.500000 0.159169 0.836037
O O10 0.250000 0.250000 0.842801
O O11 0.500000 0.663277 0.626285
O O12 0.250000 0.750000 0.622742
O O13 0.267231 0.585416 0.588142
O O14 0.500000 0.500000 0.440825
O O15 0.733113 0.500000 0.500000
#
# Coordination Sequence:
#
# PCOD9493437 Si02
#       5
#    16  16  16  16   8
#     4   9  19  37  57  74  97 132 172 213 260 315
#     4   9  16  29  49  73 101 133 171 213 261 315
#     4  11  21  33  52  77 106 135 170 214 264 316
#     4   9  18  33  55  80 108 145 187 227 276 329
#     4   9  18  34  55  81 113 147 186 229 270 325
#
# _framework density 19.697516
#
# number of rings (size 3 to 8) (size 9 to 14) (size 15 to 20)
#    0.000    2.556    0.000    4.667    0.000    2.667 
#    2.000    1.667    0.000    0.667    0.000    0.000 
#    0.000    0.000    0.000    0.000    0.000    0.000 
#
# Total GULP energy -200610.591419 kJ/mol
# GULP energy per Si atom -5572.516428 kJ/mol
# Density = 1.965268 g / cm^3
# Si number density = 19.697516 Si / 1000 Ang^3
#
#
#
# Elastic Constant Matrix: (Units=GPa)
#
#
# Indices 1 2 3 4 5 6 
#
# 1 81.7048 21.3717 70.2219 0.0000 0.0000 0.0000
# 2 21.3717 58.8302 58.5839 0.0000 0.0000 0.0000
# 3 70.2219 58.5839 206.6981 0.0000 0.0000 0.0000
# 4 0.0000 0.0000 0.0000 36.2512 0.0000 0.0000
# 5 0.0000 0.0000 0.0000 0.0000 39.5730 0.0000
# 6 0.0000 0.0000 0.0000 0.0000 0.0000 15.8467
#
#
#
# Elastic Compliance Matrix: (Units=1/GPa)
#
#
# Indices 1 2 3 4 5 6 
#
# 1 0.017302 -0.000602 -0.005707 0.000000 0.000000 0.000000
# 2 -0.000602 0.023703 -0.006514 0.000000 0.000000 0.000000
# 3 -0.005707 -0.006514 0.008623 0.000000 0.000000 0.000000
# 4 0.000000 0.000000 0.000000 0.027585 0.000000 0.000000
# 5 0.000000 0.000000 0.000000 0.000000 0.025270 0.000000
# 6 0.000000 0.000000 0.000000 0.000000 0.000000 0.063105
#
#
# Mechanical properties :
#
#
# Convention : Reuss Voigt Hill
#
# Bulk Modulus (GPa) = 41.69748 71.95421 56.82585
# Shear Modulus (GPa) = 25.09690 31.47121 28.28406
#
# Velocity S-wave (km/s) = 3.57335 4.00149 3.79346
# Velocity P-wave (km/s) = 6.18384 7.61302 6.93535
#
# Compressibility (1/GPa) = 0.02398227
#
# Stress axis : x y z
#
# Youngs Moduli (GPa) = 57.79714 42.18861 115.96751
#
# Poissons Ratio (x) = 0.02539 0.66188
# Poissons Ratio (y) = 0.03479 0.75537
# Poissons Ratio (z) = 0.32987 0.27480
#
# Static dielectric constant tensor:
#      x y z
#    x 1.672590 0.000000 0.000000 
#    y 0.000000 1.697160 0.000000 
#    z 0.000000 0.000000 1.773300 
# 
# From -- ./inp_files/70299.got.cif
#   From: 2010.05.17/outbox.cif.g08.bks.cpg/sg65_36_cif.got.tgz:70299.got - 2010.06.03 17:01:31.
