data_PCOD9493673
_publ_section_title
;
Structure prediction by ZEFSAII (Michael W. Deem and Ramdas Pophale) SiO2 
 PCOD9493673
Probable space group: C M M M
;
_chemical_formula_sum "Si O2"
_cell_formula_units_Z 80
_cell_length_a 27.158874
_cell_length_b 7.696385
_cell_length_c 19.349759
_cell_angle_alpha 90.000000
_cell_angle_beta 90.000000
_cell_angle_gamma 90.000000
_cell_volume 4044.586287
_symmetry_space_group_name_H-M "C M M M"
_symmetry_group_IT_number 65
_symmetry_cell_setting 'orthorhombic'
loop_
_space_group_symop_operation_xyz
x,y,z
-x,-y,z
x,-y,-z
-x,y,-z
-x,-y,-z
x,y,-z
-x,y,z
x,-y,z
1/2+x,1/2+y,z
1/2-x,1/2-y,z
1/2+x,1/2-y,-z
1/2-x,1/2+y,-z
1/2-x,1/2-y,-z
1/2+x,1/2+y,-z
1/2-x,1/2+y,z
1/2+x,1/2-y,z
loop_
_atom_site_type_symbol
_atom_site_label
_atom_site_fract_x
_atom_site_fract_y
_atom_site_fract_z
Si Si1 0.695121 0.300850 0.276214
Si Si2 0.406915 0.800530 0.220765
Si Si3 0.658827 0.210485 0.424270
Si Si4 0.945612 0.287470 0.366504
Si Si5 0.058349 0.710527 0.924626
O O1 0.686476 0.500000 0.259263
O O2 0.750000 0.250000 0.255732
O O3 0.650551 0.199766 0.240439
O O4 0.689005 0.275973 0.358692
O O5 0.434586 0.725917 0.287996
O O6 0.416899 0.722513 0.145578
O O7 0.424493 0.000000 0.216867
O O8 0.675436 0.268418 0.500000
O O9 0.601765 0.263109 0.411421
O O10 0.660658 0.000000 0.422214
O O11 0.945283 0.500000 0.366099
O O12 0.000000 0.232415 0.389178
O O13 0.064527 0.500000 0.926238
O O14 0.000000 0.744310 0.919643
O O15 0.075581 0.775325 0.000000
#
# Coordination Sequence:
#
# PCOD9493673 Si02
#       5
#    16  16  16  16  16
#     4  11  22  36  53  70  89 116 154 199 245 291
#     4   9  16  28  47  71  99 128 159 196 234 274
#     4   9  18  32  49  71  98 124 153 191 234 281
#     4   8  13  22  40  67  95 124 158 191 221 257
#     4   8  13  22  42  76 111 137 162 193 228 266
#
# _framework density 19.779525
#
# number of rings (size 3 to 8) (size 9 to 14) (size 15 to 20)
#    0.000    3.000    0.000    4.200    0.000    3.600 
#    0.000    2.000    0.000   16.200    0.000    7.000 
#    0.000    0.000    0.000    0.000    0.000    0.000 
#
# Total GULP energy -222961.550417 kJ/mol
# GULP energy per Si atom -5574.038760 kJ/mol
# Density = 1.973451 g / cm^3
# Si number density = 19.779525 Si / 1000 Ang^3
#
#
#
# Elastic Constant Matrix: (Units=GPa)
#
#
# Indices 1 2 3 4 5 6 
#
# 1 43.3477 -11.8362 -13.4408 0.0000 0.0000 0.0000
# 2 -11.8362 38.5723 -3.7003 0.0000 0.0000 0.0000
# 3 -13.4408 -3.7003 90.5189 0.0000 0.0000 0.0000
# 4 0.0000 0.0000 0.0000 -1.5398 0.0000 0.0000
# 5 0.0000 0.0000 0.0000 0.0000 4.1613 0.0000
# 6 0.0000 0.0000 0.0000 0.0000 0.0000 3.9540
#
#
#
# Elastic Compliance Matrix: (Units=1/GPa)
#
#
# Indices 1 2 3 4 5 6 
#
# 1 0.026767 0.008629 0.004327 0.000000 0.000000 0.000000
# 2 0.008629 0.028809 0.002459 0.000000 0.000000 0.000000
# 3 0.004327 0.002459 0.011790 0.000000 0.000000 0.000000
# 4 0.000000 0.000000 0.000000 -0.649426 0.000000 0.000000
# 5 0.000000 0.000000 0.000000 0.000000 0.240309 0.000000
# 6 0.000000 0.000000 0.000000 0.000000 0.000000 0.252911
#
#
# Mechanical properties :
#
#
# Convention : Reuss Voigt Hill
#
# Bulk Modulus (GPa) = 10.18365 12.72049 11.45207
# Shear Modulus (GPa) = -57.51309 14.74284 -21.38513
#
# Velocity S-wave (km/s) = -5.39817 2.73309 -3.29169
# Velocity P-wave (km/s) = 5.80464 4.05028 2.94016
#
# Compressibility (1/GPa) = 0.09819662
#
# Stress axis : x y z
#
# Youngs Moduli (GPa) = 37.35927 34.71136 84.81421
#
# Poissons Ratio (x) = -0.29952 -0.36701
# Poissons Ratio (y) = -0.32237 -0.20855
# Poissons Ratio (z) = -0.16166 -0.08535
#
# Static dielectric constant tensor:
#      x y z
#    x 1.681580 0.000000 0.000000 
#    y 0.000000 1.764280 0.000000 
#    z 0.000000 0.000000 1.724450 
# 
# From -- ./inp_files/57239.got.cif
#   From: 2010.05.17/outbox.cif.g08.bks.cpg/sg65_29_cif.got.tgz:57239.got - 2010.06.03 17:01:31.
