data_PCOD9493205
_publ_section_title
;
Structure prediction by ZEFSAII (Michael W. Deem and Ramdas Pophale) SiO2 
 PCOD9493205
Probable space group: C M M M
;
_chemical_formula_sum "Si O2"
_cell_formula_units_Z 74
_cell_length_a 18.308223
_cell_length_b 13.948896
_cell_length_c 14.389049
_cell_angle_alpha 90.000000
_cell_angle_beta 90.000000
_cell_angle_gamma 90.000000
_cell_volume 3674.668119
_symmetry_space_group_name_H-M "C M M M"
_symmetry_group_IT_number 65
_symmetry_cell_setting 'orthorhombic'
loop_
_space_group_symop_operation_xyz
x,y,z
-x,-y,z
x,-y,-z
-x,y,-z
-x,-y,-z
x,y,-z
-x,y,z
x,-y,z
1/2+x,1/2+y,z
1/2-x,1/2-y,z
1/2+x,1/2-y,-z
1/2-x,1/2+y,-z
1/2-x,1/2-y,-z
1/2+x,1/2+y,-z
1/2-x,1/2+y,z
1/2+x,1/2-y,z
loop_
_atom_site_type_symbol
_atom_site_label
_atom_site_fract_x
_atom_site_fract_y
_atom_site_fract_z
Si Si1 0.587281 0.613267 0.610162
Si Si2 0.893202 0.105169 0.893076
Si Si3 0.500000 0.896778 0.690499
Si Si4 0.123634 0.740389 0.241982
Si Si5 0.783464 0.611077 0.106682
Si Si6 0.500000 0.000000 0.500000
O O1 0.599180 0.630174 0.500000
O O2 0.500000 0.630573 0.627984
O O3 0.601180 0.500000 0.627737
O O4 0.636219 0.682474 0.674909
O O5 0.917640 0.193529 0.832894
O O6 0.804550 0.109725 0.889130
O O7 0.915086 0.000000 0.857958
O O8 0.914373 0.112131 0.000000
O O9 0.571075 0.838749 0.716520
O O10 0.500000 0.918783 0.581856
O O11 0.500000 0.000000 0.739730
O O12 0.184504 0.681929 0.184067
O O13 0.807234 0.500000 0.120052
O O14 0.803341 0.640207 0.000000
#
# Coordination Sequence:
#
# PCOD9493205 Si02
#       6
#    16  16   8  16  16   2
#     4   9  19  34  52  76 105 137 176 223 273 323
#     4   9  19  36  57  82 112 146 184 226 269 322
#     4  10  24  38  56  79 111 138 182 232 274 322
#     4  12  19  31  57  86 108 137 187 229 272 321
#     4   9  19  36  56  79 110 147 188 228 266 318
#     4   8  24  48  56  72 112 148 192 232 268 338
#
# _framework density 20.137874
#
# number of rings (size 3 to 8) (size 9 to 14) (size 15 to 20)
#    0.324    1.946    1.081    4.541    1.514    1.730 
#    0.000    2.162    0.000    7.784    0.000    3.027 
#    0.000    0.000    0.000    0.000    0.000    0.000 
#
# Total GULP energy -206094.995918 kJ/mol
# GULP energy per Si atom -5570.135025 kJ/mol
# Density = 2.009204 g / cm^3
# Si number density = 20.137874 Si / 1000 Ang^3
#
#
#
# Elastic Constant Matrix: (Units=GPa)
#
#
# Indices 1 2 3 4 5 6 
#
# 1 68.5784 35.7796 45.0721 0.0000 0.0000 0.0000
# 2 35.7796 143.1358 74.9821 0.0000 0.0000 0.0000
# 3 45.0721 74.9821 132.2619 0.0000 0.0000 0.0000
# 4 0.0000 0.0000 0.0000 59.1274 0.0000 0.0000
# 5 0.0000 0.0000 0.0000 0.0000 -11.7912 0.0000
# 6 0.0000 0.0000 0.0000 0.0000 0.0000 1220.1289
#
#
#
# Elastic Compliance Matrix: (Units=1/GPa)
#
#
# Indices 1 2 3 4 5 6 
#
# 1 0.019165 -0.001948 -0.005427 0.000000 0.000000 0.000000
# 2 -0.001948 0.010136 -0.005082 0.000000 0.000000 0.000000
# 3 -0.005427 -0.005082 0.012291 0.000000 0.000000 0.000000
# 4 0.000000 0.000000 0.000000 0.016913 0.000000 0.000000
# 5 0.000000 0.000000 0.000000 0.000000 -0.084809 0.000000
# 6 0.000000 0.000000 0.000000 0.000000 0.000000 0.000820
#
#
# Mechanical properties :
#
#
# Convention : Reuss Voigt Hill
#
# Bulk Modulus (GPa) = 59.95909 72.84929 66.40419
# Shear Modulus (GPa) = 1002.44457 266.03585 634.24021
#
# Velocity S-wave (km/s) = 22.33543 11.50626 17.76605
# Velocity P-wave (km/s) = 26.36287 14.58695 21.30469
#
# Compressibility (1/GPa) = 0.01667804
#
# Stress axis : x y z
#
# Youngs Moduli (GPa) = 52.17925 98.66141 81.35793
#
# Poissons Ratio (x) = 0.19217 0.44150
# Poissons Ratio (y) = 0.10163 0.41349
# Poissons Ratio (z) = 0.28316 0.50143
#
# Static dielectric constant tensor:
#      x y z
#    x 1.748740 0.000000 0.000000 
#    y 0.000000 1.756350 0.000000 
#    z 0.000000 0.000000 1.719620 
# 
# From -- ./inp_files/43937.got.cif
#   From: 2010.05.17/outbox.cif.g08.bks.cpg/sg65_22_cif.got.tgz:43937.got - 2010.06.03 17:01:31.
