data_PCOD9493640
_publ_section_title
;
Structure prediction by ZEFSAII (Michael W. Deem and Ramdas Pophale) SiO2 
 PCOD9493640
Probable space group: C M M M
;
_chemical_formula_sum "Si O2"
_cell_formula_units_Z 80
_cell_length_a 18.468686
_cell_length_b 9.344948
_cell_length_c 26.890422
_cell_angle_alpha 90.000000
_cell_angle_beta 90.000000
_cell_angle_gamma 90.000000
_cell_volume 4640.988630
_symmetry_space_group_name_H-M "C M M M"
_symmetry_group_IT_number 65
_symmetry_cell_setting 'orthorhombic'
loop_
_space_group_symop_operation_xyz
x,y,z
-x,-y,z
x,-y,-z
-x,y,-z
-x,-y,-z
x,y,-z
-x,y,z
x,-y,z
1/2+x,1/2+y,z
1/2-x,1/2-y,z
1/2+x,1/2-y,-z
1/2-x,1/2+y,-z
1/2-x,1/2-y,-z
1/2+x,1/2+y,-z
1/2-x,1/2+y,z
1/2+x,1/2-y,z
loop_
_atom_site_type_symbol
_atom_site_label
_atom_site_fract_x
_atom_site_fract_y
_atom_site_fract_z
Si Si1 0.911959 0.167363 0.554578
Si Si2 0.913233 0.833221 0.942262
Si Si3 0.411628 0.165455 0.651583
Si Si4 0.673343 0.827981 0.858385
Si Si5 0.916784 0.674009 0.760772
O O1 0.888339 0.221805 0.500000
O O2 0.885955 0.249411 0.603339
O O3 0.000000 0.176371 0.554938
O O4 0.893641 0.000000 0.557873
O O5 0.873493 0.728983 0.904557
O O6 0.000000 0.818999 0.937465
O O7 0.894999 0.000000 0.931697
O O8 0.894570 0.804961 0.000000
O O9 0.500000 0.168603 0.652097
O O10 0.390314 0.222330 0.706181
O O11 0.390008 0.000000 0.647076
O O12 0.750000 0.750000 0.859946
O O13 0.632347 0.786868 0.807265
O O14 0.680471 0.000000 0.859999
O O15 0.918405 0.500000 0.758366
O O16 0.000000 0.721390 0.768378
#
# Coordination Sequence:
#
# PCOD9493640 Si02
#       5
#    16  16  16  16  16
#     4   8  13  20  29  45  75 112 143 173 216 270
#     4   9  19  37  59  81 105 131 160 198 242 286
#     4   8  13  22  37  56  77 104 143 187 226 269
#     4  11  22  35  52  74 102 134 167 203 243 289
#     4   8  15  29  48  68  90 119 156 198 242 285
#
# _framework density 17.237707
#
# number of rings (size 3 to 8) (size 9 to 14) (size 15 to 20)
#    0.000    3.200    0.000    3.600    0.000    2.400 
#    0.000    5.000    0.000    4.800    0.000    0.000 
#    0.000    0.800    0.000    1.800    0.000    4.800 
#
# Total GULP energy -222715.642369 kJ/mol
# GULP energy per Si atom -5567.891059 kJ/mol
# Density = 1.719847 g / cm^3
# Si number density = 17.237707 Si / 1000 Ang^3
#
#
#
# Elastic Constant Matrix: (Units=GPa)
#
#
# Indices 1 2 3 4 5 6 
#
# 1 30.6837 27.3663 48.5568 0.0000 0.0000 0.0000
# 2 27.3663 56.5895 72.7106 0.0000 0.0000 0.0000
# 3 48.5568 72.7106 167.4158 0.0000 0.0000 0.0000
# 4 0.0000 0.0000 0.0000 20.2003 0.0000 0.0000
# 5 0.0000 0.0000 0.0000 0.0000 -5.9225 0.0000
# 6 0.0000 0.0000 0.0000 0.0000 0.0000 9.3921
#
#
#
# Elastic Compliance Matrix: (Units=1/GPa)
#
#
# Indices 1 2 3 4 5 6 
#
# 1 0.066556 -0.016705 -0.012049 0.000000 0.000000 0.000000
# 2 -0.016705 0.044176 -0.014341 0.000000 0.000000 0.000000
# 3 -0.012049 -0.014341 0.015696 0.000000 0.000000 0.000000
# 4 0.000000 0.000000 0.000000 0.049504 0.000000 0.000000
# 5 0.000000 0.000000 0.000000 0.000000 -0.168847 0.000000
# 6 0.000000 0.000000 0.000000 0.000000 0.000000 0.106472
#
#
# Mechanical properties :
#
#
# Convention : Reuss Voigt Hill
#
# Bulk Modulus (GPa) = 24.85155 61.32849 43.09002
# Shear Modulus (GPa) = 23.45647 11.80434 17.63040
#
# Velocity S-wave (km/s) = 3.69286 2.61970 3.20156
# Velocity P-wave (km/s) = 5.71237 6.69371 6.22242
#
# Compressibility (1/GPa) = 0.04023893
#
# Stress axis : x y z
#
# Youngs Moduli (GPa) = 15.02484 22.63667 63.70997
#
# Poissons Ratio (x) = 0.37815 0.76761
# Poissons Ratio (y) = 0.25100 0.91367
# Poissons Ratio (z) = 0.18103 0.32463
#
# Static dielectric constant tensor:
#      x y z
#    x 1.566030 0.000000 0.000000 
#    y 0.000000 1.574800 0.000000 
#    z 0.000000 0.000000 1.610380 
# 
# From -- ./inp_files/72705.got.cif
#   From: 2010.05.17/outbox.cif.g08.bks.cpg/sg65_37_cif.got.tgz:72705.got - 2010.06.03 17:01:31.
