data_PCOD9493448
_publ_section_title
;
Structure prediction by ZEFSAII (Michael W. Deem and Ramdas Pophale) SiO2 
 PCOD9493448
Probable space group: C M M M
;
_chemical_formula_sum "Si O2"
_cell_formula_units_Z 108
_cell_length_a 15.670874
_cell_length_b 27.864802
_cell_length_c 13.850443
_cell_angle_alpha 90.000000
_cell_angle_beta 90.000000
_cell_angle_gamma 90.000000
_cell_volume 6048.014789
_symmetry_space_group_name_H-M "C M M M"
_symmetry_group_IT_number 65
_symmetry_cell_setting 'orthorhombic'
loop_
_space_group_symop_operation_xyz
x,y,z
-x,-y,z
x,-y,-z
-x,y,-z
-x,-y,-z
x,y,-z
-x,y,z
x,-y,z
1/2+x,1/2+y,z
1/2-x,1/2-y,z
1/2+x,1/2-y,-z
1/2-x,1/2+y,-z
1/2-x,1/2-y,-z
1/2+x,1/2+y,-z
1/2-x,1/2+y,z
1/2+x,1/2-y,z
loop_
_atom_site_type_symbol
_atom_site_label
_atom_site_fract_x
_atom_site_fract_y
_atom_site_fract_z
Si Si1 0.902219 0.852573 0.282416
Si Si2 0.814066 0.403357 0.884726
Si Si3 0.594081 0.000000 0.882763
Si Si4 0.633740 0.556904 0.178517
Si Si5 0.396574 0.185326 0.776451
Si Si6 0.897643 0.781847 0.109038
Si Si7 0.260600 0.192399 0.388728
Si Si8 0.000000 0.938003 0.000000
O O1 0.900884 0.909711 0.264975
O O2 0.884322 0.827181 0.178291
O O3 0.825949 0.832980 0.349314
O O4 0.000000 0.838274 0.310533
O O5 0.862920 0.451173 0.853617
O O6 0.720185 0.415616 0.848838
O O7 0.862174 0.358048 0.841234
O O8 0.813738 0.399085 0.000000
O O9 0.500000 0.000000 0.844870
O O10 0.593972 0.000000 0.000000
O O11 0.644997 0.500000 0.199576
O O12 0.572961 0.560146 0.085319
O O13 0.500000 0.184703 0.764733
O O14 0.371109 0.234412 0.832628
O O15 0.342422 0.181667 0.678172
O O16 0.000000 0.778078 0.099068
O O17 0.862044 0.785985 0.000000
O O18 0.274200 0.178737 0.500000
O O19 0.250000 0.250000 0.384052
#
# Coordination Sequence:
#
# PCOD9493448 Si02
#       8
#    16  16   8  16  16  16  16   4
#     4  11  23  39  62  88 119 157 205 248 295 360
#     4  11  21  33  55  84 122 163 204 244 287 342
#     4   9  18  32  48  74 113 157 204 243 280 332
#     4  12  23  36  55  86 125 165 208 253 294 351
#     4  11  22  39  60  88 122 157 201 244 300 366
#     4   9  19  34  54  83 122 161 197 232 274 341
#     4  11  24  43  65  90 117 148 195 255 315 367
#     4  12  25  36  56  88 128 178 218 248 298 353
#
# _framework density 17.857099000000002
#
# number of rings (size 3 to 8) (size 9 to 14) (size 15 to 20)
#    0.000    1.259    5.185    1.556    1.037    2.074 
#    0.000    2.222    0.000    0.444    0.000    1.037 
#    0.000    2.963    0.000    0.000    0.000    0.000 
#
# Total GULP energy -300612.862716 kJ/mol
# GULP energy per Si atom -5566.904865 kJ/mol
# Density = 1.781646 g / cm^3
# Si number density = 17.857099 Si / 1000 Ang^3
#
#
#
# Elastic Constant Matrix: (Units=GPa)
#
#
# Indices 1 2 3 4 5 6 
#
# 1 115.3776 30.7375 29.4958 0.0000 0.0000 0.0000
# 2 30.7375 107.5186 19.9183 0.0000 0.0000 0.0000
# 3 29.4958 19.9183 72.5554 0.0000 0.0000 0.0000
# 4 0.0000 0.0000 0.0000 3.2104 0.0000 0.0000
# 5 0.0000 0.0000 0.0000 0.0000 20.5864 0.0000
# 6 0.0000 0.0000 0.0000 0.0000 0.0000 31.0899
#
#
#
# Elastic Compliance Matrix: (Units=1/GPa)
#
#
# Indices 1 2 3 4 5 6 
#
# 1 0.010166 -0.002255 -0.003514 0.000000 0.000000 0.000000
# 2 -0.002255 0.010299 -0.001911 0.000000 0.000000 0.000000
# 3 -0.003514 -0.001911 0.015736 0.000000 0.000000 0.000000
# 4 0.000000 0.000000 0.000000 0.311488 0.000000 0.000000
# 5 0.000000 0.000000 0.000000 0.000000 0.048576 0.000000
# 6 0.000000 0.000000 0.000000 0.000000 0.000000 0.032165
#
#
# Mechanical properties :
#
#
# Convention : Reuss Voigt Hill
#
# Bulk Modulus (GPa) = 47.98039 50.63940 49.30990
# Shear Modulus (GPa) = 11.09296 25.33067 18.21181
#
# Velocity S-wave (km/s) = 2.49511 3.77041 3.19700
# Velocity P-wave (km/s) = 5.93533 6.88290 6.42661
#
# Compressibility (1/GPa) = 0.02084185
#
# Stress axis : x y z
#
# Youngs Moduli (GPa) = 98.36395 97.09264 63.55056
#
# Poissons Ratio (x) = 0.21899 0.22330
# Poissons Ratio (y) = 0.22185 0.12142
# Poissons Ratio (z) = 0.34562 0.18550
#
# Static dielectric constant tensor:
#      x y z
#    x 1.648930 0.000000 0.000000 
#    y 0.000000 1.629670 0.000000 
#    z 0.000000 0.000000 1.587380 
# 
# From -- ./inp_files/25596.got.cif
#   From: 2010.05.17/outbox.cif.g08.bks.cpg/sg65_13_cif.got.tgz:25596.got - 2010.06.03 17:01:31.
