data_PCOD9493263
_publ_section_title
;
Structure prediction by ZEFSAII (Michael W. Deem and Ramdas Pophale) SiO2 
 PCOD9493263
Probable space group: C M M M
;
_chemical_formula_sum "Si O2"
_cell_formula_units_Z 80
_cell_length_a 14.298732
_cell_length_b 25.932146
_cell_length_c 14.152129
_cell_angle_alpha 90.000000
_cell_angle_beta 90.000000
_cell_angle_gamma 90.000000
_cell_volume 5247.564229
_symmetry_space_group_name_H-M "C M M M"
_symmetry_group_IT_number 65
_symmetry_cell_setting 'orthorhombic'
loop_
_space_group_symop_operation_xyz
x,y,z
-x,-y,z
x,-y,-z
-x,y,-z
-x,-y,-z
x,y,-z
-x,y,z
x,-y,z
1/2+x,1/2+y,z
1/2-x,1/2-y,z
1/2+x,1/2-y,-z
1/2-x,1/2+y,-z
1/2-x,1/2-y,-z
1/2+x,1/2+y,-z
1/2-x,1/2+y,z
1/2+x,1/2-y,z
loop_
_atom_site_type_symbol
_atom_site_label
_atom_site_fract_x
_atom_site_fract_y
_atom_site_fract_z
Si Si1 0.606629 0.310443 0.767298
Si Si2 0.393398 0.226250 0.609488
Si Si3 0.294304 0.856172 0.265318
Si Si4 0.112787 0.288654 0.108623
Si Si5 0.388957 0.061524 0.391831
O O1 0.500000 0.326822 0.787040
O O2 0.607069 0.278448 0.669462
O O3 0.684757 0.353827 0.758114
O O4 0.636298 0.266708 0.843862
O O5 0.374831 0.234498 0.500000
O O6 0.500000 0.204853 0.619522
O O7 0.321368 0.187200 0.656719
O O8 0.346572 0.834563 0.172371
O O9 0.332457 0.908079 0.312032
O O10 0.000000 0.291690 0.112961
O O11 0.142611 0.291007 0.000000
O O12 0.364170 0.077739 0.500000
O O13 0.500000 0.071447 0.380471
O O14 0.375181 0.000000 0.385783
#
# Coordination Sequence:
#
# PCOD9493263 Si02
#       5
#    16  16  16  16  16
#     4   9  19  30  38  57  88 119 149 178 208 245
#     4   9  16  25  38  59  86 110 134 168 210 257
#     4  11  18  26  45  64  82 113 150 180 210 256
#     4   9  17  29  45  67  95 121 145 177 216 259
#     4   9  18  32  49  69  90 109 135 178 229 275
#
# _framework density 15.245169000000001
#
# number of rings (size 3 to 8) (size 9 to 14) (size 15 to 20)
#    0.000    2.600    0.000    6.600    0.000    5.600 
#    0.000    0.000    0.000    1.200    0.000    4.200 
#    0.000    0.000    0.000    6.800    0.000    0.200 
#
# Total GULP energy -222925.407493 kJ/mol
# GULP energy per Si atom -5573.135187 kJ/mol
# Density = 1.521047 g / cm^3
# Si number density = 15.245169 Si / 1000 Ang^3
#
#
#
# Elastic Constant Matrix: (Units=GPa)
#
#
# Indices 1 2 3 4 5 6 
#
# 1 79.5766 33.1057 31.9504 0.0000 0.0000 0.0000
# 2 33.1057 47.7093 31.5972 0.0000 0.0000 0.0000
# 3 31.9504 31.5972 120.4748 0.0000 0.0000 0.0000
# 4 0.0000 0.0000 0.0000 12.6991 0.0000 0.0000
# 5 0.0000 0.0000 0.0000 0.0000 7.2896 0.0000
# 6 0.0000 0.0000 0.0000 0.0000 0.0000 19.8721
#
#
#
# Elastic Compliance Matrix: (Units=1/GPa)
#
#
# Indices 1 2 3 4 5 6 
#
# 1 0.017987 -0.011282 -0.001811 0.000000 0.000000 0.000000
# 2 -0.011282 0.032442 -0.005517 0.000000 0.000000 0.000000
# 3 -0.001811 -0.005517 0.010228 0.000000 0.000000 0.000000
# 4 0.000000 0.000000 0.000000 0.078746 0.000000 0.000000
# 5 0.000000 0.000000 0.000000 0.000000 0.137182 0.000000
# 6 0.000000 0.000000 0.000000 0.000000 0.000000 0.050322
#
#
# Mechanical properties :
#
#
# Convention : Reuss Voigt Hill
#
# Bulk Modulus (GPa) = 42.66655 49.00748 45.83701
# Shear Modulus (GPa) = 13.44307 18.04600 15.74453
#
# Velocity S-wave (km/s) = 2.97272 3.44425 3.21714
# Velocity P-wave (km/s) = 6.31114 6.93060 6.62811
#
# Compressibility (1/GPa) = 0.02343757
#
# Stress axis : x y z
#
# Youngs Moduli (GPa) = 55.59486 30.82384 97.77292
#
# Poissons Ratio (x) = 0.34775 0.17711
# Poissons Ratio (y) = 0.62721 0.53939
# Poissons Ratio (z) = 0.10070 0.17005
#
# Static dielectric constant tensor:
#      x y z
#    x 1.560400 0.000000 0.000000 
#    y 0.000000 1.488660 0.000000 
#    z 0.000000 0.000000 1.513090 
# 
# From -- ./inp_files/40047.got.cif
#   From: 2010.05.17/outbox.cif.g08.bks.cpg/sg65_21_cif.got.tgz:40047.got - 2010.06.03 17:01:31.
