data_PCOD9493452
_publ_section_title
;
Structure prediction by ZEFSAII (Michael W. Deem and Ramdas Pophale) SiO2 
 PCOD9493452
Probable space group: C M M M
;
_chemical_formula_sum "Si O2"
_cell_formula_units_Z 88
_cell_length_a 23.309158
_cell_length_b 25.466988
_cell_length_c 8.429784
_cell_angle_alpha 90.000000
_cell_angle_beta 90.000000
_cell_angle_gamma 90.000000
_cell_volume 5004.038196
_symmetry_space_group_name_H-M "C M M M"
_symmetry_group_IT_number 65
_symmetry_cell_setting 'orthorhombic'
loop_
_space_group_symop_operation_xyz
x,y,z
-x,-y,z
x,-y,-z
-x,y,-z
-x,-y,-z
x,y,-z
-x,y,z
x,-y,z
1/2+x,1/2+y,z
1/2-x,1/2-y,z
1/2+x,1/2-y,-z
1/2-x,1/2+y,-z
1/2-x,1/2-y,-z
1/2+x,1/2+y,-z
1/2-x,1/2+y,z
1/2+x,1/2-y,z
loop_
_atom_site_type_symbol
_atom_site_label
_atom_site_fract_x
_atom_site_fract_y
_atom_site_fract_z
Si Si1 0.432939 0.237032 0.809004
Si Si2 0.000000 0.560495 0.309893
Si Si3 0.653013 0.440245 0.306398
Si Si4 0.715695 0.939695 0.308547
Si Si5 0.890577 0.625429 0.189737
Si Si6 0.934110 0.850999 0.691272
O O1 0.500000 0.229517 0.764765
O O2 0.398831 0.185568 0.754776
O O3 0.414174 0.293011 0.741307
O O4 0.430223 0.239798 0.000000
O O5 0.943495 0.590824 0.252559
O O6 0.000000 0.500000 0.253719
O O7 0.000000 0.560012 0.500000
O O8 0.652220 0.440047 0.500000
O O9 0.639140 0.500000 0.257166
O O10 0.718695 0.428456 0.259357
O O11 0.607871 0.396895 0.251065
O O12 0.713686 0.937823 0.500000
O O13 0.668781 0.900402 0.242028
O O14 0.702341 0.000000 0.261543
O O15 0.894133 0.625696 0.000000
O O16 0.935027 0.853108 0.500000
O O17 0.000000 0.857715 0.747427
#
# Coordination Sequence:
#
# PCOD9493452 Si02
#       6
#    16   8  16  16  16  16
#     4   9  18  34  50  66  95 133 165 197 247 301
#     4  11  23  35  49  73 103 131 162 205 254 301
#     4   8  15  30  51  74 103 134 160 196 249 303
#     4   9  18  33  51  70  96 133 170 201 245 303
#     4  11  21  34  51  72  97 130 171 211 250 290
#     4   9  17  29  50  80 103 123 162 208 246 292
#
# _framework density 17.585795999999998
#
# number of rings (size 3 to 8) (size 9 to 14) (size 15 to 20)
#    0.000    2.636    0.909    2.455    0.000    5.091 
#    0.000    3.636    0.000    7.091    0.000    2.545 
#    0.000    0.000    0.000    0.000    0.000    0.000 
#
# Total GULP energy -245360.217445 kJ/mol
# GULP energy per Si atom -5576.368578 kJ/mol
# Density = 1.754577 g / cm^3
# Si number density = 17.585796 Si / 1000 Ang^3
#
#
#
# Elastic Constant Matrix: (Units=GPa)
#
#
# Indices 1 2 3 4 5 6 
#
# 1 110.7189 117.2977 18.7317 0.0000 0.0000 0.0000
# 2 117.2977 187.1160 23.5555 0.0000 0.0000 0.0000
# 3 18.7317 23.5555 11.0282 0.0000 0.0000 0.0000
# 4 0.0000 0.0000 0.0000 42.2141 0.0000 0.0000
# 5 0.0000 0.0000 0.0000 0.0000 5.3397 0.0000
# 6 0.0000 0.0000 0.0000 0.0000 0.0000 21.4339
#
#
#
# Elastic Compliance Matrix: (Units=1/GPa)
#
#
# Indices 1 2 3 4 5 6 
#
# 1 0.028378 -0.016033 -0.013957 0.000000 0.000000 0.000000
# 2 -0.016033 0.016368 -0.007728 0.000000 0.000000 0.000000
# 3 -0.013957 -0.007728 0.130889 0.000000 0.000000 0.000000
# 4 0.000000 0.000000 0.000000 0.023689 0.000000 0.000000
# 5 0.000000 0.000000 0.000000 0.000000 0.187276 0.000000
# 6 0.000000 0.000000 0.000000 0.000000 0.000000 0.046655
#
#
# Mechanical properties :
#
#
# Convention : Reuss Voigt Hill
#
# Bulk Modulus (GPa) = 9.98005 69.78142 39.88073
# Shear Modulus (GPa) = 9.22356 23.74942 16.48649
#
# Velocity S-wave (km/s) = 2.29266 3.67889 3.06517
# Velocity P-wave (km/s) = 3.56311 7.60344 5.93751
#
# Compressibility (1/GPa) = 0.10019990
#
# Stress axis : x y z
#
# Youngs Moduli (GPa) = 35.23805 61.09654 7.64006
#
# Poissons Ratio (x) = 0.97954 0.10663
# Poissons Ratio (y) = 0.56496 0.05904
# Poissons Ratio (z) = 0.49181 0.47216
#
# Static dielectric constant tensor:
#      x y z
#    x 1.582590 0.000000 0.000000 
#    y 0.000000 1.596470 0.000000 
#    z 0.000000 0.000000 1.606800 
# 
# From -- ./inp_files/11713.got.cif
#   From: 2010.05.17/outbox.cif.g08.bks.cpg/sg65_6_cif.got.tgz:11713.got - 2010.06.03 17:01:31.
