data_PCOD9493872
_publ_section_title
;
Structure prediction by ZEFSAII (Michael W. Deem and Ramdas Pophale) SiO2 
 PCOD9493872
Probable space group: C M M M
;
_chemical_formula_sum "Si O2"
_cell_formula_units_Z 104
_cell_length_a 32.470471
_cell_length_b 20.534422
_cell_length_c 9.623501
_cell_angle_alpha 90.000000
_cell_angle_beta 90.000000
_cell_angle_gamma 90.000000
_cell_volume 6416.588181
_symmetry_space_group_name_H-M "C M M M"
_symmetry_group_IT_number 65
_symmetry_cell_setting 'orthorhombic'
loop_
_space_group_symop_operation_xyz
x,y,z
-x,-y,z
x,-y,-z
-x,y,-z
-x,-y,-z
x,y,-z
-x,y,z
x,-y,z
1/2+x,1/2+y,z
1/2-x,1/2-y,z
1/2+x,1/2-y,-z
1/2-x,1/2+y,-z
1/2-x,1/2-y,-z
1/2+x,1/2+y,-z
1/2-x,1/2+y,z
1/2+x,1/2-y,z
loop_
_atom_site_type_symbol
_atom_site_label
_atom_site_fract_x
_atom_site_fract_y
_atom_site_fract_z
Si Si1 0.573831 0.122709 0.160319
Si Si2 0.179419 0.075291 0.335603
Si Si3 0.049379 0.500000 0.658573
Si Si4 0.634363 0.313188 0.831928
Si Si5 0.045055 0.765419 0.831432
Si Si6 0.222584 0.425639 0.334482
Si Si7 0.332484 0.171795 0.839828
O O1 0.550985 0.189229 0.203363
O O2 0.622226 0.139457 0.162864
O O3 0.564043 0.063504 0.259703
O O4 0.562382 0.107762 0.000000
O O5 0.172414 0.086878 0.500000
O O6 0.154484 0.125780 0.243137
O O7 0.228489 0.082059 0.311086
O O8 0.168566 0.000000 0.306043
O O9 0.064479 0.500000 0.500000
O O10 0.000000 0.500000 0.657342
O O11 0.586653 0.302242 0.787724
O O12 0.659547 0.246861 0.797928
O O13 0.635181 0.319535 0.000000
O O14 0.000000 0.788459 0.783239
O O15 0.045316 0.768043 0.000000
O O16 0.215487 0.420720 0.500000
O O17 0.211182 0.500000 0.291942
O O18 0.197470 0.370672 0.254359
O O19 0.318037 0.171270 0.000000
#
# Coordination Sequence:
#
# PCOD9493872 Si02
#       7
#    16  16   8  16  16  16  16
#     4   9  18  32  49  67  89 124 166 201 239 292
#     4   9  19  36  54  72  97 129 164 199 236 287
#     4  11  23  33  41  61  93 125 161 209 257 289
#     4   9  18  32  51  77 103 124 156 201 245 290
#     4   8  14  28  51  74  95 122 157 197 239 286
#     4   9  19  34  50  69  95 131 173 207 237 283
#     4   9  19  33  48  72 102 127 158 204 250 288
#
# _framework density 16.207991
#
# number of rings (size 3 to 8) (size 9 to 14) (size 15 to 20)
#    0.000    3.000    0.000    3.462    1.077    4.308 
#    0.000    6.923    0.000    1.846    0.000    3.231 
#    0.000    0.000    0.000    0.000    0.000    0.000 
#
# Total GULP energy -289735.597992 kJ/mol
# GULP energy per Si atom -5571.838423 kJ/mol
# Density = 1.617110 g / cm^3
# Si number density = 16.207991 Si / 1000 Ang^3
#
#
#
# Elastic Constant Matrix: (Units=GPa)
#
#
# Indices 1 2 3 4 5 6 
#
# 1 78.0516 74.0442 43.8012 0.0000 0.0000 0.0000
# 2 74.0442 116.9971 61.8951 0.0000 0.0000 0.0000
# 3 43.8012 61.8951 51.9100 0.0000 0.0000 0.0000
# 4 0.0000 0.0000 0.0000 9.7806 0.0000 0.0000
# 5 0.0000 0.0000 0.0000 0.0000 11.1438 0.0000
# 6 0.0000 0.0000 0.0000 0.0000 0.0000 8.5721
#
#
#
# Elastic Compliance Matrix: (Units=1/GPa)
#
#
# Indices 1 2 3 4 5 6 
#
# 1 0.033253 -0.016795 -0.008032 0.000000 0.000000 0.000000
# 2 -0.016795 0.031633 -0.023546 0.000000 0.000000 0.000000
# 3 -0.008032 -0.023546 0.054117 0.000000 0.000000 0.000000
# 4 0.000000 0.000000 0.000000 0.102243 0.000000 0.000000
# 5 0.000000 0.000000 0.000000 0.000000 0.089736 0.000000
# 6 0.000000 0.000000 0.000000 0.000000 0.000000 0.116658
#
#
# Mechanical properties :
#
#
# Convention : Reuss Voigt Hill
#
# Bulk Modulus (GPa) = 44.93324 67.38222 56.15773
# Shear Modulus (GPa) = 9.40192 10.38050 9.89121
#
# Velocity S-wave (km/s) = 2.41110 2.53347 2.47304
# Velocity P-wave (km/s) = 5.96106 7.08672 6.54813
#
# Compressibility (1/GPa) = 0.02225524
#
# Stress axis : x y z
#
# Youngs Moduli (GPa) = 30.07277 31.61230 18.47844
#
# Poissons Ratio (x) = 0.53094 0.14842
# Poissons Ratio (y) = 0.50508 0.43510
# Poissons Ratio (z) = 0.24155 0.74435
#
# Static dielectric constant tensor:
#      x y z
#    x 1.553340 0.000000 0.000000 
#    y 0.000000 1.522610 0.000000 
#    z 0.000000 0.000000 1.533990 
# 
# From -- ./inp_files/18668.got.cif
#   From: 2010.05.17/outbox.cif.g08.bks.cpg/sg65_10_cif.got.tgz:18668.got - 2010.06.03 17:01:31.
