data_PCOD9493294
_publ_section_title
;
Structure prediction by ZEFSAII (Michael W. Deem and Ramdas Pophale) SiO2 
 PCOD9493294
Probable space group: C M M M
;
_chemical_formula_sum "Si O2"
_cell_formula_units_Z 72
_cell_length_a 24.287702
_cell_length_b 8.515689
_cell_length_c 18.300322
_cell_angle_alpha 90.000000
_cell_angle_beta 90.000000
_cell_angle_gamma 90.000000
_cell_volume 3784.991855
_symmetry_space_group_name_H-M "C M M M"
_symmetry_group_IT_number 65
_symmetry_cell_setting 'orthorhombic'
loop_
_space_group_symop_operation_xyz
x,y,z
-x,-y,z
x,-y,-z
-x,y,-z
-x,-y,-z
x,y,-z
-x,y,z
x,-y,z
1/2+x,1/2+y,z
1/2-x,1/2-y,z
1/2+x,1/2-y,-z
1/2-x,1/2+y,-z
1/2-x,1/2-y,-z
1/2+x,1/2+y,-z
1/2-x,1/2+y,z
1/2+x,1/2-y,z
loop_
_atom_site_type_symbol
_atom_site_label
_atom_site_fract_x
_atom_site_fract_y
_atom_site_fract_z
Si Si1 0.000000 0.819268 0.721017
Si Si2 0.122213 0.191893 0.919954
Si Si3 0.064976 0.812198 0.500000
Si Si4 0.500000 0.680932 0.105049
Si Si5 0.890844 0.685492 0.651511
Si Si6 0.688055 0.311466 0.774807
O O1 0.946317 0.731102 0.694234
O O2 0.000000 0.824496 0.807721
O O3 0.000000 0.000000 0.692990
O O4 0.155162 0.243412 0.847874
O O5 0.058846 0.249570 0.917243
O O6 0.120484 0.000000 0.916325
O O7 0.145717 0.233823 0.000000
O O8 0.097588 0.754434 0.428679
O O9 0.000000 0.757608 0.500000
O O10 0.063196 0.000000 0.500000
O O11 0.500000 0.500000 0.079108
O O12 0.883906 0.500000 0.646217
O O13 0.842164 0.755339 0.701052
O O14 0.687517 0.500000 0.775331
O O15 0.750000 0.250000 0.777565
#
# Coordination Sequence:
#
# PCOD9493294 Si02
#       6
#     8  16   8   8  16  16
#     4  11  19  33  58  89 121 162 202 244 298 359
#     4   9  17  30  53  86 120 155 199 251 304 360
#     4  11  23  39  64  95 129 164 196 237 291 355
#     4   9  15  27  51  85 119 152 193 242 298 361
#     4  12  24  39  61  92 126 160 199 247 300 357
#     4  11  23  41  62  85 116 159 210 258 306 359
#
# _framework density 19.022499
#
# number of rings (size 3 to 8) (size 9 to 14) (size 15 to 20)
#    0.000    1.444    3.333    3.667    0.000    2.222 
#    0.000    0.556    0.000    2.000    0.000    1.556 
#    0.000    0.000    0.000    0.000    0.000    0.000 
#
# Total GULP energy -200945.764543 kJ/mol
# GULP energy per Si atom -5581.826793 kJ/mol
# Density = 1.897920 g / cm^3
# Si number density = 19.022499 Si / 1000 Ang^3
#
#
#
# Elastic Constant Matrix: (Units=GPa)
#
#
# Indices 1 2 3 4 5 6 
#
# 1 142.6263 31.0668 83.4845 0.0000 0.0000 0.0000
# 2 31.0668 67.4897 40.7150 0.0000 0.0000 0.0000
# 3 83.4845 40.7150 192.2803 0.0000 0.0000 0.0000
# 4 0.0000 0.0000 0.0000 -3.7340 0.0000 0.0000
# 5 0.0000 0.0000 0.0000 0.0000 -57.4514 0.0000
# 6 0.0000 0.0000 0.0000 0.0000 0.0000 23.0322
#
#
#
# Elastic Compliance Matrix: (Units=1/GPa)
#
#
# Indices 1 2 3 4 5 6 
#
# 1 0.009677 -0.002201 -0.003736 0.000000 0.000000 0.000000
# 2 -0.002201 0.017488 -0.002747 0.000000 0.000000 0.000000
# 3 -0.003736 -0.002747 0.007404 0.000000 0.000000 0.000000
# 4 0.000000 0.000000 0.000000 -0.267812 0.000000 0.000000
# 5 0.000000 0.000000 0.000000 0.000000 -0.017406 0.000000
# 6 0.000000 0.000000 0.000000 0.000000 0.000000 0.043417
#
#
# Mechanical properties :
#
#
# Convention : Reuss Voigt Hill
#
# Bulk Modulus (GPa) = 58.13481 79.21433 68.67457
# Shear Modulus (GPa) = -27.15482 8.84471 -9.15505
#
# Velocity S-wave (km/s) = -3.78234 2.15863 -2.19618
# Velocity P-wave (km/s) = 3.39892 6.92429 5.45428
#
# Compressibility (1/GPa) = 0.01720140
#
# Stress axis : x y z
#
# Youngs Moduli (GPa) = 103.33363 57.18318 135.05407
#
# Poissons Ratio (x) = 0.12586 0.50452
# Poissons Ratio (y) = 0.22744 0.37104
# Poissons Ratio (z) = 0.38602 0.15710
#
# Static dielectric constant tensor:
#      x y z
#    x 1.641450 0.000000 0.000000 
#    y 0.000000 1.650890 0.000000 
#    z 0.000000 0.000000 1.683360 
# 
# From -- ./inp_files/56482.got.cif
#   From: 2010.05.17/outbox.cif.g08.bks.cpg/sg65_29_cif.got.tgz:56482.got - 2010.06.03 17:01:31.
