data_PCOD9493891
_publ_section_title
;
Structure prediction by ZEFSAII (Michael W. Deem and Ramdas Pophale) SiO2 
 PCOD9493891
Probable space group: C M M M
;
_chemical_formula_sum "Si O2"
_cell_formula_units_Z 72
_cell_length_a 19.087347
_cell_length_b 8.119539
_cell_length_c 25.548718
_cell_angle_alpha 90.000000
_cell_angle_beta 90.000000
_cell_angle_gamma 90.000000
_cell_volume 3959.552026
_symmetry_space_group_name_H-M "C M M M"
_symmetry_group_IT_number 65
_symmetry_cell_setting 'orthorhombic'
loop_
_space_group_symop_operation_xyz
x,y,z
-x,-y,z
x,-y,-z
-x,y,-z
-x,-y,-z
x,y,-z
-x,y,z
x,-y,z
1/2+x,1/2+y,z
1/2-x,1/2-y,z
1/2+x,1/2-y,-z
1/2-x,1/2+y,-z
1/2-x,1/2-y,-z
1/2+x,1/2+y,-z
1/2-x,1/2+y,z
1/2+x,1/2-y,z
loop_
_atom_site_type_symbol
_atom_site_label
_atom_site_fract_x
_atom_site_fract_y
_atom_site_fract_z
Si Si1 0.580014 0.301467 0.441149
Si Si2 0.169918 0.304098 0.342524
Si Si3 0.414738 0.315763 0.872547
Si Si4 0.417936 0.199407 0.242713
Si Si5 0.414432 0.000000 0.060520
O O1 0.599507 0.245894 0.500000
O O2 0.500000 0.245643 0.430687
O O3 0.579184 0.500000 0.441845
O O4 0.631499 0.247345 0.395714
O O5 0.167378 0.500000 0.339718
O O6 0.250000 0.250000 0.341942
O O7 0.127693 0.241730 0.291687
O O8 0.500000 0.314459 0.874040
O O9 0.391775 0.500000 0.887736
O O10 0.395692 0.277249 0.812436
O O11 0.391362 0.165480 0.909335
O O12 0.500000 0.238003 0.251693
O O13 0.412943 0.000000 0.237741
O O14 0.500000 0.000000 0.061817
O O15 0.393205 0.000000 0.000000
#
# Coordination Sequence:
#
# PCOD9493891 Si02
#       5
#    16  16  16  16   8
#     4   9  19  37  59  80 103 133 172 218 265 317
#     4  11  23  36  52  76 107 141 173 217 267 318
#     4   9  16  26  43  67  94 131 175 213 257 313
#     4   9  17  32  52  71  96 132 173 218 265 316
#     4   9  16  26  40  62 100 140 169 211 262 307
#
# _framework density 18.183876000000001
#
# number of rings (size 3 to 8) (size 9 to 14) (size 15 to 20)
#    0.000    2.556    1.111    2.000    0.000    4.444 
#    0.000    5.556    0.000    0.000    0.000    0.000 
#    0.000    0.889    0.444    0.000    0.000    0.000 
#
# Total GULP energy -200779.342177 kJ/mol
# GULP energy per Si atom -5577.203949 kJ/mol
# Density = 1.814249 g / cm^3
# Si number density = 18.183876 Si / 1000 Ang^3
#
#
#
# Elastic Constant Matrix: (Units=GPa)
#
#
# Indices 1 2 3 4 5 6 
#
# 1 55.7790 32.1699 68.5862 0.0000 0.0000 0.0000
# 2 32.1699 87.0382 71.5424 0.0000 0.0000 0.0000
# 3 68.5862 71.5424 171.8061 0.0000 0.0000 0.0000
# 4 0.0000 0.0000 0.0000 11.0057 0.0000 0.0000
# 5 0.0000 0.0000 0.0000 0.0000 -3.2435 0.0000
# 6 0.0000 0.0000 0.0000 0.0000 0.0000 1.1763
#
#
#
# Elastic Compliance Matrix: (Units=1/GPa)
#
#
# Indices 1 2 3 4 5 6 
#
# 1 0.035497 -0.002238 -0.013239 0.000000 0.000000 0.000000
# 2 -0.002238 0.017609 -0.006439 0.000000 0.000000 0.000000
# 3 -0.013239 -0.006439 0.013787 0.000000 0.000000 0.000000
# 4 0.000000 0.000000 0.000000 0.090862 0.000000 0.000000
# 5 0.000000 0.000000 0.000000 0.000000 -0.308304 0.000000
# 6 0.000000 0.000000 0.000000 0.000000 0.000000 0.850139
#
#
# Mechanical properties :
#
#
# Convention : Reuss Voigt Hill
#
# Bulk Modulus (GPa) = 43.36325 73.24671 58.30498
# Shear Modulus (GPa) = 6.65682 11.27601 8.96642
#
# Velocity S-wave (km/s) = 1.91541 2.49290 2.22299
# Velocity P-wave (km/s) = 5.36568 6.97529 6.22275
#
# Compressibility (1/GPa) = 0.02306100
#
# Stress axis : x y z
#
# Youngs Moduli (GPa) = 28.17125 56.78819 72.53283
#
# Poissons Ratio (x) = 0.12711 0.96024
# Poissons Ratio (y) = 0.06306 0.46705
# Poissons Ratio (z) = 0.37295 0.36567
#
# Static dielectric constant tensor:
#      x y z
#    x 1.507550 0.000000 0.000000 
#    y 0.000000 1.644940 0.000000 
#    z 0.000000 0.000000 1.618640 
# 
# From -- ./inp_files/67007.got.cif
#   From: 2010.05.17/outbox.cif.g08.bks.cpg/sg65_34_cif.got.tgz:67007.got - 2010.06.03 17:01:31.
