data_PCOD9493771
_publ_section_title
;
Structure prediction by ZEFSAII (Michael W. Deem and Ramdas Pophale) SiO2 
 PCOD9493771
Probable space group: C M M M
;
_chemical_formula_sum "Si O2"
_cell_formula_units_Z 80
_cell_length_a 17.384747
_cell_length_b 20.663526
_cell_length_c 13.004508
_cell_angle_alpha 90.000000
_cell_angle_beta 90.000000
_cell_angle_gamma 90.000000
_cell_volume 4671.611641
_symmetry_space_group_name_H-M "C M M M"
_symmetry_group_IT_number 65
_symmetry_cell_setting 'orthorhombic'
loop_
_space_group_symop_operation_xyz
x,y,z
-x,-y,z
x,-y,-z
-x,y,-z
-x,-y,-z
x,y,-z
-x,y,z
x,-y,z
1/2+x,1/2+y,z
1/2-x,1/2-y,z
1/2+x,1/2-y,-z
1/2-x,1/2+y,-z
1/2-x,1/2-y,-z
1/2+x,1/2+y,-z
1/2-x,1/2+y,z
1/2+x,1/2-y,z
loop_
_atom_site_type_symbol
_atom_site_label
_atom_site_fract_x
_atom_site_fract_y
_atom_site_fract_z
Si Si1 0.308790 0.810235 0.194944
Si Si2 0.590013 0.232671 0.618639
Si Si3 0.910116 0.111463 0.381072
Si Si4 0.590393 0.378686 0.000000
Si Si5 0.409661 0.222624 0.000000
Si Si6 0.190662 0.073426 0.808977
O O1 0.250000 0.750000 0.186539
O O2 0.355245 0.801858 0.300728
O O3 0.367562 0.804246 0.100594
O O4 0.259885 0.875550 0.190753
O O5 0.608110 0.217026 0.500000
O O6 0.500000 0.217725 0.637170
O O7 0.597874 0.310538 0.630299
O O8 0.892987 0.095212 0.500000
O O9 0.855155 0.079537 0.298246
O O10 0.000000 0.095699 0.362159
O O11 0.598388 0.300768 0.000000
O O12 0.632184 0.406344 0.100423
O O13 0.500000 0.394392 0.000000
O O14 0.500000 0.207780 0.000000
O O15 0.216376 0.000000 0.824926
#
# Coordination Sequence:
#
# PCOD9493771 Si02
#       6
#    16  16  16   8   8  16
#     4  12  21  36  59  83 111 146 181 224 277 322
#     4   9  18  34  58  86 111 139 183 233 275 319
#     4   9  18  34  55  80 112 149 186 220 262 324
#     4  11  22  38  58  82 111 146 183 217 264 330
#     4  11  22  38  63  87 107 135 183 234 273 322
#     4  12  25  37  52  80 116 150 183 222 269 323
#
# _framework density 17.12471
#
# number of rings (size 3 to 8) (size 9 to 14) (size 15 to 20)
#    0.000    1.400    4.000    3.600    0.000    6.800 
#    0.000    1.000    0.000    3.000    0.000    1.400 
#    0.000    0.000    0.000    0.000    0.000    0.000 
#
# Total GULP energy -223540.342427 kJ/mol
# GULP energy per Si atom -5588.508561 kJ/mol
# Density = 1.708573 g / cm^3
# Si number density = 17.124710 Si / 1000 Ang^3
#
#
#
# Elastic Constant Matrix: (Units=GPa)
#
#
# Indices 1 2 3 4 5 6 
#
# 1 113.0204 70.4376 81.7257 0.0000 0.0000 0.0000
# 2 70.4376 100.5448 50.3703 0.0000 0.0000 0.0000
# 3 81.7257 50.3703 109.0516 0.0000 0.0000 0.0000
# 4 0.0000 0.0000 0.0000 -5.8431 0.0000 0.0000
# 5 0.0000 0.0000 0.0000 0.0000 65.2236 0.0000
# 6 0.0000 0.0000 0.0000 0.0000 0.0000 18.2948
#
#
#
# Elastic Compliance Matrix: (Units=1/GPa)
#
#
# Indices 1 2 3 4 5 6 
#
# 1 0.026353 -0.011147 -0.014601 0.000000 0.000000 0.000000
# 2 -0.011147 0.017655 0.000199 0.000000 0.000000 0.000000
# 3 -0.014601 0.000199 0.020020 0.000000 0.000000 0.000000
# 4 0.000000 0.000000 0.000000 -0.171143 0.000000 0.000000
# 5 0.000000 0.000000 0.000000 0.000000 0.015332 0.000000
# 6 0.000000 0.000000 0.000000 0.000000 0.000000 0.054660
#
#
# Mechanical properties :
#
#
# Convention : Reuss Voigt Hill
#
# Bulk Modulus (GPa) = 77.33490 80.85379 79.09434
# Shear Modulus (GPa) = 273.42720 23.54062 148.48391
#
# Velocity S-wave (km/s) = 12.64970 3.71166 9.32178
# Velocity P-wave (km/s) = 16.08139 8.10467 12.73375
#
# Compressibility (1/GPa) = 0.01293077
#
# Stress axis : x y z
#
# Youngs Moduli (GPa) = 37.94597 56.63966 49.94975
#
# Poissons Ratio (x) = 0.63139 0.72931
# Poissons Ratio (y) = 0.42300 -0.00995
# Poissons Ratio (z) = 0.55404 -0.01128
#
# Static dielectric constant tensor:
#      x y z
#    x 1.557450 0.000000 0.000000 
#    y 0.000000 1.564590 0.000000 
#    z 0.000000 0.000000 1.579660 
# 
# From -- ./inp_files/26705.got.cif
#   From: 2010.05.17/outbox.cif.g08.bks.cpg/sg65_14_cif.got.tgz:26705.got - 2010.06.03 17:01:31.
