data_PCOD9493159
_publ_section_title
;
Structure prediction by ZEFSAII (Michael W. Deem and Ramdas Pophale) SiO2 
 PCOD9493159
Probable space group: C M M M
;
_chemical_formula_sum "Si O2"
_cell_formula_units_Z 72
_cell_length_a 9.945728
_cell_length_b 26.917244
_cell_length_c 14.847744
_cell_angle_alpha 90.000000
_cell_angle_beta 90.000000
_cell_angle_gamma 90.000000
_cell_volume 3974.913115
_symmetry_space_group_name_H-M "C M M M"
_symmetry_group_IT_number 65
_symmetry_cell_setting 'orthorhombic'
loop_
_space_group_symop_operation_xyz
x,y,z
-x,-y,z
x,-y,-z
-x,y,-z
-x,-y,-z
x,y,-z
-x,y,z
x,-y,z
1/2+x,1/2+y,z
1/2-x,1/2-y,z
1/2+x,1/2-y,-z
1/2-x,1/2+y,-z
1/2-x,1/2-y,-z
1/2+x,1/2+y,-z
1/2-x,1/2+y,z
1/2+x,1/2-y,z
loop_
_atom_site_type_symbol
_atom_site_label
_atom_site_fract_x
_atom_site_fract_y
_atom_site_fract_z
Si Si1 0.158741 0.120191 0.358225
Si Si2 0.000000 0.055457 0.105575
Si Si3 0.837950 0.559855 0.500000
Si Si4 0.145838 0.793028 0.500000
Si Si5 0.751948 0.378092 0.842136
Si Si6 0.165548 0.301723 0.000000
Si Si7 0.500000 0.941245 0.106976
O O1 0.255772 0.082407 0.413771
O O2 0.157975 0.170347 0.415872
O O3 0.217165 0.133831 0.260732
O O4 0.000000 0.103268 0.352715
O O5 0.126774 0.089212 0.126492
O O6 0.000000 0.000000 0.148519
O O7 0.000000 0.048055 0.000000
O O8 0.829185 0.500000 0.500000
O O9 0.000000 0.572677 0.500000
O O10 0.250000 0.750000 0.500000
O O11 0.000000 0.769329 0.500000
O O12 0.788865 0.333634 0.911484
O O13 0.873907 0.416164 0.847571
O O14 0.250000 0.250000 0.000000
O O15 0.000000 0.295921 0.000000
O O16 0.500000 0.000000 0.115477
O O17 0.500000 0.929121 0.000000
#
# Coordination Sequence:
#
# PCOD9493159 Si02
#       7
#    16   8   8   8  16   8   8
#     4  10  23  41  64  90 126 167 202 253 317 379
#     4  11  22  36  62  97 130 171 215 256 307 369
#     4  10  23  41  61  91 126 166 212 258 308 369
#     4   9  20  42  64  88 115 148 198 254 313 368
#     4  12  22  43  63  93 133 168 215 263 317 383
#     4  12  28  46  67  92 126 176 221 270 331 382
#     4  11  22  40  64  89 128 175 215 262 313 369
#
# _framework density 18.113603000000001
#
# number of rings (size 3 to 8) (size 9 to 14) (size 15 to 20)
#    0.000    1.222    4.444    1.667    3.111    7.111 
#    0.000    2.222    0.000    0.000    0.000    0.000 
#    0.000    0.000    0.000    0.000    0.000    0.000 
#
# Total GULP energy -200649.742160 kJ/mol
# GULP energy per Si atom -5573.603949 kJ/mol
# Density = 1.807238 g / cm^3
# Si number density = 18.113603 Si / 1000 Ang^3
#
#
#
# Elastic Constant Matrix: (Units=GPa)
#
#
# Indices 1 2 3 4 5 6 
#
# 1 198.4522 80.1130 64.9941 0.0000 0.0000 0.0000
# 2 80.1130 100.7444 48.8734 0.0000 0.0000 0.0000
# 3 64.9941 48.8734 153.8636 0.0000 0.0000 0.0000
# 4 0.0000 0.0000 0.0000 -4.0329 0.0000 0.0000
# 5 0.0000 0.0000 0.0000 0.0000 26.0845 0.0000
# 6 0.0000 0.0000 0.0000 0.0000 0.0000 42.2232
#
#
#
# Elastic Compliance Matrix: (Units=1/GPa)
#
#
# Indices 1 2 3 4 5 6 
#
# 1 0.007722 -0.005389 -0.001550 0.000000 0.000000 0.000000
# 2 -0.005389 0.015495 -0.002645 0.000000 0.000000 0.000000
# 3 -0.001550 -0.002645 0.007994 0.000000 0.000000 0.000000
# 4 0.000000 0.000000 0.000000 -0.247959 0.000000 0.000000
# 5 0.000000 0.000000 0.000000 0.000000 0.038337 0.000000
# 6 0.000000 0.000000 0.000000 0.000000 0.000000 0.023684
#
#
# Mechanical properties :
#
#
# Convention : Reuss Voigt Hill
#
# Bulk Modulus (GPa) = 83.04023 93.44680 88.24351
# Shear Modulus (GPa) = -38.00992 30.12693 -3.94149
#
# Velocity S-wave (km/s) = -4.58582 4.08269 -1.47672
# Velocity P-wave (km/s) = 4.23131 8.59801 6.77605
#
# Compressibility (1/GPa) = 0.01204236
#
# Stress axis : x y z
#
# Youngs Moduli (GPa) = 129.49972 64.53881 125.08712
#
# Poissons Ratio (x) = 0.34777 0.19392
# Poissons Ratio (y) = 0.69782 0.33092
# Poissons Ratio (z) = 0.20076 0.17074
#
# Static dielectric constant tensor:
#      x y z
#    x 1.893800 0.000000 0.000000 
#    y 0.000000 1.604840 0.000000 
#    z 0.000000 0.000000 1.687910 
# 
# From -- ./inp_files/36733.got.cif
#   From: 2010.05.17/outbox.cif.g08.bks.cpg/sg65_19_cif.got.tgz:36733.got - 2010.06.03 17:01:31.
