data_PCOD9493274
_publ_section_title
;
Structure prediction by ZEFSAII (Michael W. Deem and Ramdas Pophale) SiO2 
 PCOD9493274
Probable space group: C M M M
;
_chemical_formula_sum "Si O2"
_cell_formula_units_Z 104
_cell_length_a 21.813118
_cell_length_b 31.298936
_cell_length_c 7.697963
_cell_angle_alpha 90.000000
_cell_angle_beta 90.000000
_cell_angle_gamma 90.000000
_cell_volume 5255.610143
_symmetry_space_group_name_H-M "C M M M"
_symmetry_group_IT_number 65
_symmetry_cell_setting 'orthorhombic'
loop_
_space_group_symop_operation_xyz
x,y,z
-x,-y,z
x,-y,-z
-x,y,-z
-x,-y,-z
x,y,-z
-x,y,z
x,-y,z
1/2+x,1/2+y,z
1/2-x,1/2-y,z
1/2+x,1/2-y,-z
1/2-x,1/2+y,-z
1/2-x,1/2-y,-z
1/2+x,1/2+y,-z
1/2-x,1/2+y,z
1/2+x,1/2-y,z
loop_
_atom_site_type_symbol
_atom_site_label
_atom_site_fract_x
_atom_site_fract_y
_atom_site_fract_z
Si Si1 0.109555 0.406570 0.708021
Si Si2 0.068057 0.312593 0.287079
Si Si3 0.072051 0.948895 0.500000
Si Si4 0.238147 0.623973 0.702950
Si Si5 0.158025 0.926206 0.803651
Si Si6 0.890572 0.500000 0.206162
Si Si7 0.805240 0.721512 0.296422
Si Si8 0.747944 0.000000 0.209976
O O1 0.112847 0.403303 0.500000
O O2 0.077389 0.362563 0.766644
O O3 0.179953 0.402848 0.774886
O O4 0.082593 0.453442 0.746002
O O5 0.070642 0.312649 0.500000
O O6 0.125120 0.283357 0.226426
O O7 0.000000 0.298676 0.235264
O O8 0.103377 0.929105 0.669703
O O9 0.000000 0.942069 0.500000
O O10 0.083569 0.000000 0.500000
O O11 0.246952 0.613104 0.500000
O O12 0.302211 0.616659 0.796814
O O13 0.217717 0.672812 0.709634
O O14 0.210123 0.959862 0.742894
O O15 0.139372 0.936601 0.000000
O O16 0.820806 0.500000 0.281249
O O17 0.888100 0.500000 0.000000
O O18 0.811370 0.734694 0.500000
O O19 0.750000 0.750000 0.220452
O O20 0.743014 0.000000 0.000000
#
# Coordination Sequence:
#
# PCOD9493274 Si02
#       8
#    16  16   8  16  16   8  16   8
#     4   9  17  27  41  64  92 125 167 207 247 291
#     4   8  14  26  44  65  91 125 168 213 250 299
#     4  11  24  38  52  72  99 134 175 219 264 315
#     4   9  16  27  46  71  98 130 164 206 261 316
#     4  11  20  33  52  74 100 132 171 213 264 320
#     4  11  19  27  40  62  96 126 156 207 255 295
#     4   8  14  25  44  73 103 131 167 211 271 320
#     4   9  18  28  42  68  96 123 159 202 255 309
#
# _framework density 19.788377000000001
#
# number of rings (size 3 to 8) (size 9 to 14) (size 15 to 20)
#    0.000    2.692    3.077    2.077    0.000    0.308 
#    1.385    1.154    0.000    4.154    0.000    0.000 
#    0.000    0.000    0.000    0.000    0.000    0.000 
#
# Total GULP energy -289662.721953 kJ/mol
# GULP energy per Si atom -5570.436961 kJ/mol
# Density = 1.974334 g / cm^3
# Si number density = 19.788377 Si / 1000 Ang^3
#
#
#
# Elastic Constant Matrix: (Units=GPa)
#
#
# Indices 1 2 3 4 5 6 
#
# 1 136.2450 32.9567 28.3516 0.0000 0.0000 0.0000
# 2 32.9567 45.2733 5.0537 0.0000 0.0000 0.0000
# 3 28.3516 5.0537 56.8382 0.0000 0.0000 0.0000
# 4 0.0000 0.0000 0.0000 -4.0174 0.0000 0.0000
# 5 0.0000 0.0000 0.0000 0.0000 -4.5922 0.0000
# 6 0.0000 0.0000 0.0000 0.0000 0.0000 22.1188
#
#
#
# Elastic Compliance Matrix: (Units=1/GPa)
#
#
# Indices 1 2 3 4 5 6 
#
# 1 0.009858 -0.006694 -0.004322 0.000000 0.000000 0.000000
# 2 -0.006694 0.026855 0.000951 0.000000 0.000000 0.000000
# 3 -0.004322 0.000951 0.019665 0.000000 0.000000 0.000000
# 4 0.000000 0.000000 0.000000 -0.248915 0.000000 0.000000
# 5 0.000000 0.000000 0.000000 0.000000 -0.217762 0.000000
# 6 0.000000 0.000000 0.000000 0.000000 0.000000 0.045210
#
#
# Mechanical properties :
#
#
# Convention : Reuss Voigt Hill
#
# Bulk Modulus (GPa) = 27.58739 41.23115 34.40927
# Shear Modulus (GPa) = -15.02064 14.16813 -0.42625
#
# Velocity S-wave (km/s) = -2.75810 2.67869 -0.46462
# Velocity P-wave (km/s) = 1.95669 5.51801 4.13987
#
# Compressibility (1/GPa) = 0.03624844
#
# Stress axis : x y z
#
# Youngs Moduli (GPa) = 101.43666 37.23743 50.85110
#
# Poissons Ratio (x) = 0.24926 0.21979
# Poissons Ratio (y) = 0.67901 -0.04837
# Poissons Ratio (z) = 0.43844 -0.03542
#
# Static dielectric constant tensor:
#      x y z
#    x 1.731350 0.000000 0.000000 
#    y 0.000000 1.751670 0.000000 
#    z 0.000000 0.000000 1.736720 
# 
# From -- ./inp_files/15109.got.cif
#   From: 2010.05.17/outbox.cif.g08.bks.cpg/sg65_8_cif.got.tgz:15109.got - 2010.06.03 17:01:31.
