data_PCOD9493972
_publ_section_title
;
Structure prediction by ZEFSAII (Michael W. Deem and Ramdas Pophale) SiO2 
 PCOD9493972
Probable space group: C M M M
;
_chemical_formula_sum "Si O2"
_cell_formula_units_Z 58
_cell_length_a 14.809655
_cell_length_b 26.084925
_cell_length_c 8.056041
_cell_angle_alpha 90.000000
_cell_angle_beta 90.000000
_cell_angle_gamma 90.000000
_cell_volume 3112.119048
_symmetry_space_group_name_H-M "C M M M"
_symmetry_group_IT_number 65
_symmetry_cell_setting 'orthorhombic'
loop_
_space_group_symop_operation_xyz
x,y,z
-x,-y,z
x,-y,-z
-x,y,-z
-x,-y,-z
x,y,-z
-x,y,z
x,-y,z
1/2+x,1/2+y,z
1/2-x,1/2-y,z
1/2+x,1/2-y,-z
1/2-x,1/2+y,-z
1/2-x,1/2-y,-z
1/2+x,1/2+y,-z
1/2-x,1/2+y,z
1/2+x,1/2-y,z
loop_
_atom_site_type_symbol
_atom_site_label
_atom_site_fract_x
_atom_site_fract_y
_atom_site_fract_z
Si Si1 0.500000 0.500000 0.000000
Si Si2 0.644559 0.500000 0.311908
Si Si3 0.000000 0.739591 0.190593
Si Si4 0.810588 0.701657 0.698403
Si Si5 0.500000 0.353522 0.692384
Si Si6 0.192937 0.105378 0.194256
O O1 0.577394 0.500000 0.151562
O O2 0.605126 0.500000 0.500000
O O3 0.700820 0.552163 0.291082
O O4 0.909841 0.708004 0.227373
O O5 0.000000 0.791970 0.295979
O O6 0.000000 0.756452 0.000000
O O7 0.817895 0.704970 0.500000
O O8 0.750000 0.750000 0.756171
O O9 0.759394 0.649863 0.745368
O O10 0.500000 0.369085 0.500000
O O11 0.590145 0.375104 0.776193
O O12 0.206644 0.097002 0.000000
#
# Coordination Sequence:
#
# PCOD9493972 Si02
#       6
#     2   8   8  16   8  16
#     4  12  22  44  60  98 128 170 214 268 308 384
#     4  12  25  43  63  89 128 172 214 262 319 376
#     4  12  24  39  60  91 124 163 207 263 319 372
#     4  11  23  40  63  90 123 165 209 256 314 379
#     4  12  23  36  56  87 125 168 208 252 310 379
#     4  12  24  41  62  91 126 166 213 262 311 377
#
# _framework density 18.636821000000001
#
# number of rings (size 3 to 8) (size 9 to 14) (size 15 to 20)
#    0.000    0.276    4.138    6.828    0.000    1.103 
#    0.000    0.000    0.000    0.828    0.000    5.793 
#    0.000    0.000    0.000    0.000    0.000    0.000 
#
# Total GULP energy -161955.139939 kJ/mol
# GULP energy per Si atom -5584.659998 kJ/mol
# Density = 1.859440 g / cm^3
# Si number density = 18.636821 Si / 1000 Ang^3
#
#
#
# Elastic Constant Matrix: (Units=GPa)
#
#
# Indices 1 2 3 4 5 6 
#
# 1 116.6910 54.5362 14.4476 0.0000 0.0000 0.0000
# 2 54.5362 140.7888 9.4749 0.0000 0.0000 0.0000
# 3 14.4476 9.4749 115.7121 0.0000 0.0000 0.0000
# 4 0.0000 0.0000 0.0000 29.3443 0.0000 0.0000
# 5 0.0000 0.0000 0.0000 0.0000 12.7084 0.0000
# 6 0.0000 0.0000 0.0000 0.0000 0.0000 77.2677
#
#
#
# Elastic Compliance Matrix: (Units=1/GPa)
#
#
# Indices 1 2 3 4 5 6 
#
# 1 0.010576 -0.004030 -0.000990 0.000000 0.000000 0.000000
# 2 -0.004030 0.008678 -0.000207 0.000000 0.000000 0.000000
# 3 -0.000990 -0.000207 0.008783 0.000000 0.000000 0.000000
# 4 0.000000 0.000000 0.000000 0.034078 0.000000 0.000000
# 5 0.000000 0.000000 0.000000 0.000000 0.078688 0.000000
# 6 0.000000 0.000000 0.000000 0.000000 0.000000 0.012942
#
#
# Mechanical properties :
#
#
# Convention : Reuss Voigt Hill
#
# Bulk Modulus (GPa) = 56.88068 58.90104 57.89086
# Shear Modulus (GPa) = 29.40135 43.51298 36.45716
#
# Velocity S-wave (km/s) = 3.97620 4.83720 4.42768
# Velocity P-wave (km/s) = 7.18798 7.92914 7.56764
#
# Compressibility (1/GPa) = 0.01758066
#
# Stress axis : x y z
#
# Youngs Moduli (GPa) = 94.55643 115.23595 113.85902
#
# Poissons Ratio (x) = 0.46440 0.11277
# Poissons Ratio (y) = 0.38106 0.02361
# Poissons Ratio (z) = 0.09366 0.02390
#
# Static dielectric constant tensor:
#      x y z
#    x 1.611570 0.000000 0.000000 
#    y 0.000000 1.659850 0.000000 
#    z 0.000000 0.000000 1.649410 
# 
# From -- ./inp_files/4552.got.cif
#   From: 2010.05.17/outbox.cif.g08.bks.cpg/sg65_3_cif.got.tgz:4552.got - 2010.06.03 17:01:31.
