data_PCOD9493695
_publ_section_title
;
Structure prediction by ZEFSAII (Michael W. Deem and Ramdas Pophale) SiO2 
 PCOD9493695
Probable space group: C M M M
;
_chemical_formula_sum "Si O2"
_cell_formula_units_Z 72
_cell_length_a 17.995122
_cell_length_b 9.276312
_cell_length_c 24.383821
_cell_angle_alpha 90.000000
_cell_angle_beta 90.000000
_cell_angle_gamma 90.000000
_cell_volume 4070.351400
_symmetry_space_group_name_H-M "C M M M"
_symmetry_group_IT_number 65
_symmetry_cell_setting 'orthorhombic'
loop_
_space_group_symop_operation_xyz
x,y,z
-x,-y,z
x,-y,-z
-x,y,-z
-x,-y,-z
x,y,-z
-x,y,z
x,-y,z
1/2+x,1/2+y,z
1/2-x,1/2-y,z
1/2+x,1/2-y,-z
1/2-x,1/2+y,-z
1/2-x,1/2-y,-z
1/2+x,1/2+y,-z
1/2-x,1/2+y,z
1/2+x,1/2-y,z
loop_
_atom_site_type_symbol
_atom_site_label
_atom_site_fract_x
_atom_site_fract_y
_atom_site_fract_z
Si Si1 0.415626 0.674640 0.000000
Si Si2 0.909620 0.667613 0.332535
Si Si3 0.909668 0.169139 0.440048
Si Si4 0.670549 0.673811 0.889054
Si Si5 0.589399 0.170998 0.790026
O O1 0.373060 0.715514 0.944646
O O2 0.418506 0.500000 0.000000
O O3 0.500000 0.729205 0.000000
O O4 0.890283 0.500000 0.338081
O O5 0.881883 0.752573 0.385568
O O6 0.886574 0.715995 0.271610
O O7 0.000000 0.676259 0.332575
O O8 0.884884 0.225026 0.500000
O O9 0.000000 0.180779 0.439736
O O10 0.892227 0.000000 0.437158
O O11 0.676951 0.500000 0.886962
O O12 0.750000 0.750000 0.890170
O O13 0.626727 0.734065 0.836611
O O14 0.500000 0.184358 0.793309
O O15 0.606676 0.000000 0.796686
#
# Coordination Sequence:
#
# PCOD9493695 Si02
#       5
#     8  16  16  16  16
#     4   9  19  36  57  81 106 131 164 205 244 288
#     4   8  14  24  38  57  83 117 155 196 242 290
#     4   8  13  20  30  48  78 115 153 194 239 286
#     4  11  22  36  55  77 104 136 168 204 247 294
#     4   9  18  33  51  72 100 131 166 210 255 299
#
# _framework density 17.688891000000002
#
# number of rings (size 3 to 8) (size 9 to 14) (size 15 to 20)
#    0.000    3.000    0.000    3.667    0.000    2.667 
#    0.000    6.111    0.000    4.000    0.000    0.000 
#    0.000    0.889    0.000    2.889    0.000    6.444 
#
# Total GULP energy -200516.948609 kJ/mol
# GULP energy per Si atom -5569.915239 kJ/mol
# Density = 1.764863 g / cm^3
# Si number density = 17.688891 Si / 1000 Ang^3
#
#
#
# Elastic Constant Matrix: (Units=GPa)
#
#
# Indices 1 2 3 4 5 6 
#
# 1 40.5652 30.5438 51.3937 0.0000 0.0000 0.0000
# 2 30.5438 57.1846 83.2757 0.0000 0.0000 0.0000
# 3 51.3937 83.2757 223.6774 0.0000 0.0000 0.0000
# 4 0.0000 0.0000 0.0000 32.0651 0.0000 0.0000
# 5 0.0000 0.0000 0.0000 0.0000 -8.2503 0.0000
# 6 0.0000 0.0000 0.0000 0.0000 0.0000 11.9023
#
#
#
# Elastic Compliance Matrix: (Units=1/GPa)
#
#
# Indices 1 2 3 4 5 6 
#
# 1 0.042045 -0.018323 -0.002839 0.000000 0.000000 0.000000
# 2 -0.018323 0.046181 -0.012983 0.000000 0.000000 0.000000
# 3 -0.002839 -0.012983 0.009957 0.000000 0.000000 0.000000
# 4 0.000000 0.000000 0.000000 0.031187 0.000000 0.000000
# 5 0.000000 0.000000 0.000000 0.000000 -0.121208 0.000000
# 6 0.000000 0.000000 0.000000 0.000000 0.000000 0.084017
#
#
# Mechanical properties :
#
#
# Convention : Reuss Voigt Hill
#
# Bulk Modulus (GPa) = 33.45370 72.42818 52.94094
# Shear Modulus (GPa) = 29.33693 17.55768 23.44731
#
# Velocity S-wave (km/s) = 4.07688 3.15395 3.64474
# Velocity P-wave (km/s) = 6.41207 7.36869 6.90696
#
# Compressibility (1/GPa) = 0.02989206
#
# Stress axis : x y z
#
# Youngs Moduli (GPa) = 23.78418 21.65373 100.43492
#
# Poissons Ratio (x) = 0.39677 0.28510
# Poissons Ratio (y) = 0.43581 1.30398
# Poissons Ratio (z) = 0.06752 0.28114
#
# Static dielectric constant tensor:
#      x y z
#    x 1.590540 0.000000 0.000000 
#    y 0.000000 1.587310 0.000000 
#    z 0.000000 0.000000 1.625850 
# 
# From -- ./inp_files/59507.got.cif
#   From: 2010.05.17/outbox.cif.g08.bks.cpg/sg65_30_cif.got.tgz:59507.got - 2010.06.03 17:01:31.
