data_PCOD9493308
_publ_section_title
;
Structure prediction by ZEFSAII (Michael W. Deem and Ramdas Pophale) SiO2 
 PCOD9493308
Probable space group: C M M M
;
_chemical_formula_sum "Si O2"
_cell_formula_units_Z 80
_cell_length_a 18.762811
_cell_length_b 30.862969
_cell_length_c 10.058579
_cell_angle_alpha 90.000000
_cell_angle_beta 90.000000
_cell_angle_gamma 90.000000
_cell_volume 5824.682239
_symmetry_space_group_name_H-M "C M M M"
_symmetry_group_IT_number 65
_symmetry_cell_setting 'orthorhombic'
loop_
_space_group_symop_operation_xyz
x,y,z
-x,-y,z
x,-y,-z
-x,y,-z
-x,-y,-z
x,y,-z
-x,y,z
x,-y,z
1/2+x,1/2+y,z
1/2-x,1/2-y,z
1/2+x,1/2-y,-z
1/2-x,1/2+y,-z
1/2-x,1/2-y,-z
1/2+x,1/2+y,-z
1/2-x,1/2+y,z
1/2+x,1/2-y,z
loop_
_atom_site_type_symbol
_atom_site_label
_atom_site_fract_x
_atom_site_fract_y
_atom_site_fract_z
Si Si1 0.219819 0.680402 0.656959
Si Si2 0.500000 0.734000 0.841815
Si Si3 0.086775 0.551135 0.000000
Si Si4 0.586115 0.051167 0.500000
Si Si5 0.000000 0.662291 0.842626
Si Si6 0.130883 0.393587 0.752180
Si Si7 0.865613 0.769038 0.342003
O O1 0.210244 0.671143 0.500000
O O2 0.199320 0.637186 0.736094
O O3 0.167610 0.721239 0.686664
O O4 0.299668 0.697989 0.676319
O O5 0.500000 0.786286 0.834665
O O6 0.429964 0.720701 0.757801
O O7 0.500000 0.722116 0.000000
O O8 0.122408 0.574382 0.124816
O O9 0.099042 0.500000 0.000000
O O10 0.000000 0.556758 0.000000
O O11 0.500000 0.054482 0.500000
O O12 0.616557 0.076562 0.374255
O O13 0.603514 0.000000 0.500000
O O14 0.067487 0.641003 0.772347
O O15 0.000000 0.651483 0.000000
O O16 0.885784 0.769604 0.500000
#
# Coordination Sequence:
#
# PCOD9493308 Si02
#       7
#    16   8   8   8   8  16  16
#     4   9  18  31  48  68  90 117 157 196 228 270
#     4  11  21  31  45  68  98 118 153 199 230 262
#     4  11  22  34  46  61  88 127 163 196 233 275
#     4  11  22  30  42  67  92 115 151 204 243 263
#     4  11  20  30  41  65  89 123 161 190 226 271
#     4  12  18  32  47  62  88 121 161 196 229 270
#     4   9  18  33  48  66  91 122 154 188 231 275
#
# _framework density 13.734655
#
# number of rings (size 3 to 8) (size 9 to 14) (size 15 to 20)
#    0.000    1.600    6.000    2.100    0.000    1.600 
#    3.600    1.000    0.000    0.000    0.000    0.000 
#    0.000    0.000    0.000    5.400    0.000    0.100 
#
# Total GULP energy -222863.537274 kJ/mol
# GULP energy per Si atom -5571.588432 kJ/mol
# Density = 1.370339 g / cm^3
# Si number density = 13.734655 Si / 1000 Ang^3
#
#
#
# Elastic Constant Matrix: (Units=GPa)
#
#
# Indices 1 2 3 4 5 6 
#
# 1 71.0791 33.6087 47.4418 0.0000 0.0000 0.0000
# 2 33.6087 91.1577 45.0202 0.0000 0.0000 0.0000
# 3 47.4418 45.0202 109.4629 0.0000 0.0000 0.0000
# 4 0.0000 0.0000 0.0000 24.7658 0.0000 0.0000
# 5 0.0000 0.0000 0.0000 0.0000 20.3286 0.0000
# 6 0.0000 0.0000 0.0000 0.0000 0.0000 26.2064
#
#
#
# Elastic Compliance Matrix: (Units=1/GPa)
#
#
# Indices 1 2 3 4 5 6 
#
# 1 0.020928 -0.004061 -0.007400 0.000000 0.000000 0.000000
# 2 -0.004061 0.014554 -0.004226 0.000000 0.000000 0.000000
# 3 -0.007400 -0.004226 0.014081 0.000000 0.000000 0.000000
# 4 0.000000 0.000000 0.000000 0.040378 0.000000 0.000000
# 5 0.000000 0.000000 0.000000 0.000000 0.049192 0.000000
# 6 0.000000 0.000000 0.000000 0.000000 0.000000 0.038159
#
#
# Mechanical properties :
#
#
# Convention : Reuss Voigt Hill
#
# Bulk Modulus (GPa) = 54.97803 58.20455 56.59129
# Shear Modulus (GPa) = 23.28510 23.96876 23.62693
#
# Velocity S-wave (km/s) = 4.12193 4.18201 4.15208
# Velocity P-wave (km/s) = 7.92271 8.11103 8.01742
#
# Compressibility (1/GPa) = 0.01818908
#
# Stress axis : x y z
#
# Youngs Moduli (GPa) = 47.78200 68.70806 71.01897
#
# Poissons Ratio (x) = 0.27905 0.52555
# Poissons Ratio (y) = 0.19406 0.30011
# Poissons Ratio (z) = 0.35359 0.29034
#
# Static dielectric constant tensor:
#      x y z
#    x 1.447190 0.000000 0.000000 
#    y 0.000000 1.438390 0.000000 
#    z 0.000000 0.000000 2.443830 
# 
# From -- ./inp_files/12588.got.cif
#   From: 2010.05.17/outbox.cif.g08.bks.cpg/sg65_7_cif.got.tgz:12588.got - 2010.06.03 17:01:31.
