data_PCOD9493632
_publ_section_title
;
Structure prediction by ZEFSAII (Michael W. Deem and Ramdas Pophale) SiO2 
 PCOD9493632
Probable space group: C M M M
;
_chemical_formula_sum "Si O2"
_cell_formula_units_Z 72
_cell_length_a 32.766361
_cell_length_b 7.825766
_cell_length_c 13.984529
_cell_angle_alpha 90.000000
_cell_angle_beta 90.000000
_cell_angle_gamma 90.000000
_cell_volume 3585.939131
_symmetry_space_group_name_H-M "C M M M"
_symmetry_group_IT_number 65
_symmetry_cell_setting 'orthorhombic'
loop_
_space_group_symop_operation_xyz
x,y,z
-x,-y,z
x,-y,-z
-x,y,-z
-x,-y,-z
x,y,-z
-x,y,z
x,-y,z
1/2+x,1/2+y,z
1/2-x,1/2-y,z
1/2+x,1/2-y,-z
1/2-x,1/2+y,-z
1/2-x,1/2-y,-z
1/2+x,1/2+y,-z
1/2-x,1/2+y,z
1/2+x,1/2-y,z
loop_
_atom_site_type_symbol
_atom_site_label
_atom_site_fract_x
_atom_site_fract_y
_atom_site_fract_z
Si Si1 0.795560 0.302272 0.308220
Si Si2 0.085405 0.790896 0.801630
Si Si3 0.000000 0.209080 0.110352
Si Si4 0.378992 0.699481 0.605112
Si Si5 0.829423 0.206862 0.106578
O O1 0.801469 0.500000 0.328858
O O2 0.750000 0.250000 0.334593
O O3 0.831603 0.207142 0.363876
O O4 0.802606 0.271463 0.194910
O O5 0.041691 0.734117 0.839377
O O6 0.096130 0.727917 0.695041
O O7 0.123741 0.743900 0.868754
O O8 0.085191 0.000000 0.800283
O O9 0.000000 0.000000 0.112335
O O10 0.000000 0.260848 0.000000
O O11 0.384896 0.776100 0.500000
O O12 0.390279 0.500000 0.599613
O O13 0.827434 0.000000 0.108418
O O14 0.818002 0.264698 0.000000
#
# Coordination Sequence:
#
# PCOD9493632 Si02
#       5
#    16  16   8  16  16
#     4  11  22  35  51  72  98 125 158 202 247 295
#     4   8  14  25  42  68 100 131 163 198 239 287
#     4   9  14  20  37  69 106 137 163 195 236 283
#     4   9  18  34  53  70  93 127 164 204 250 295
#     4   9  17  31  50  70  97 134 170 203 242 288
#
# _framework density 20.078422
#
# number of rings (size 3 to 8) (size 9 to 14) (size 15 to 20)
#    0.000    2.778    0.000    4.000    0.000    4.444 
#    0.000    0.556    0.000    3.333    0.000   12.444 
#    0.000   28.444    0.000    0.000    0.000    0.000 
#
# Total GULP energy -200828.062475 kJ/mol
# GULP energy per Si atom -5578.557291 kJ/mol
# Density = 2.003272 g / cm^3
# Si number density = 20.078422 Si / 1000 Ang^3
#
#
#
# Elastic Constant Matrix: (Units=GPa)
#
#
# Indices 1 2 3 4 5 6 
#
# 1 93.4870 -10.3180 20.5245 0.0000 0.0000 0.0000
# 2 -10.3180 29.2260 -5.9054 0.0000 0.0000 0.0000
# 3 20.5245 -5.9054 107.2181 0.0000 0.0000 0.0000
# 4 0.0000 0.0000 0.0000 6.1984 0.0000 0.0000
# 5 0.0000 0.0000 0.0000 0.0000 1986.6732 0.0000
# 6 0.0000 0.0000 0.0000 0.0000 0.0000 6.7492
#
#
#
# Elastic Compliance Matrix: (Units=1/GPa)
#
#
# Indices 1 2 3 4 5 6 
#
# 1 0.011542 0.003669 -0.002007 0.000000 0.000000 0.000000
# 2 0.003669 0.035768 0.001268 0.000000 0.000000 0.000000
# 3 -0.002007 0.001268 0.009781 0.000000 0.000000 0.000000
# 4 0.000000 0.000000 0.000000 0.161331 0.000000 0.000000
# 5 0.000000 0.000000 0.000000 0.000000 0.000503 0.000000
# 6 0.000000 0.000000 0.000000 0.000000 0.000000 0.148166
#
#
# Mechanical properties :
#
#
# Convention : Reuss Voigt Hill
#
# Bulk Modulus (GPa) = 15.88564 26.50372 21.19468
# Shear Modulus (GPa) = 13.08162 414.96616 214.02389
#
# Velocity S-wave (km/s) = 2.55527 14.39171 10.33564
# Velocity P-wave (km/s) = 4.07858 17.01148 12.36983
#
# Compressibility (1/GPa) = 0.06294995
#
# Stress axis : x y z
#
# Youngs Moduli (GPa) = 86.63734 27.95818 102.24031
#
# Poissons Ratio (x) = -0.10259 0.20524
# Poissons Ratio (y) = -0.31790 -0.12960
# Poissons Ratio (z) = 0.17392 -0.03544
#
# Static dielectric constant tensor:
#      x y z
#    x 1.688760 0.000000 0.000000 
#    y 0.000000 1.760210 0.000000 
#    z 0.000000 0.000000 1.727960 
# 
# From -- ./inp_files/36547.got.cif
#   From: 2010.05.17/outbox.cif.g08.bks.cpg/sg65_19_cif.got.tgz:36547.got - 2010.06.03 17:01:31.
