data_PCOD9493038
_publ_section_title
;
Structure prediction by ZEFSAII (Michael W. Deem and Ramdas Pophale) SiO2 
 PCOD9493038
Probable space group: C M M M
;
_chemical_formula_sum "Si O2"
_cell_formula_units_Z 72
_cell_length_a 17.721778
_cell_length_b 24.663887
_cell_length_c 7.951452
_cell_angle_alpha 90.000000
_cell_angle_beta 90.000000
_cell_angle_gamma 90.000000
_cell_volume 3475.483695
_symmetry_space_group_name_H-M "C M M M"
_symmetry_group_IT_number 65
_symmetry_cell_setting 'orthorhombic'
loop_
_space_group_symop_operation_xyz
x,y,z
-x,-y,z
x,-y,-z
-x,y,-z
-x,-y,-z
x,y,-z
-x,y,z
x,-y,z
1/2+x,1/2+y,z
1/2-x,1/2-y,z
1/2+x,1/2-y,-z
1/2-x,1/2+y,-z
1/2-x,1/2-y,-z
1/2+x,1/2+y,-z
1/2-x,1/2+y,z
1/2+x,1/2-y,z
loop_
_atom_site_type_symbol
_atom_site_label
_atom_site_fract_x
_atom_site_fract_y
_atom_site_fract_z
Si Si1 0.700514 0.655077 0.809556
Si Si2 0.090721 0.562721 0.000000
Si Si3 0.583466 0.743661 0.701883
Si Si4 0.413346 0.562775 0.296701
Si Si5 0.862810 0.363428 0.690374
O O1 0.650133 0.707924 0.776466
O O2 0.645443 0.604165 0.780827
O O3 0.773802 0.649982 0.694842
O O4 0.728481 0.656010 0.000000
O O5 0.119529 0.592642 0.167798
O O6 0.114532 0.500000 0.000000
O O7 0.000000 0.565211 0.000000
O O8 0.586009 0.736150 0.500000
O O9 0.500000 0.726638 0.760777
O O10 0.595552 0.807159 0.734314
O O11 0.409301 0.567352 0.500000
O O12 0.500000 0.575168 0.248275
O O13 0.398150 0.500000 0.252948
O O14 0.884443 0.379583 0.500000
#
# Coordination Sequence:
#
# PCOD9493038 Si02
#       5
#    16   8  16  16  16
#     4  12  24  37  58  94 133 172 217 267 323 383
#     4  11  26  48  73 102 133 165 211 272 328 392
#     4  10  22  40  64  94 128 171 222 269 319 387
#     4   9  19  37  59  82 115 165 220 270 321 379
#     4  11  24  45  70  97 132 175 216 266 330 387
#
# _framework density 20.716540999999999
#
# number of rings (size 3 to 8) (size 9 to 14) (size 15 to 20)
#    0.000    1.444    1.111    4.667    1.556    9.333 
#    0.000    2.222    0.000    0.000    0.000    0.000 
#    0.000    0.000    0.000    0.000    0.000    0.000 
#
# Total GULP energy -201374.863715 kJ/mol
# GULP energy per Si atom -5593.746214 kJ/mol
# Density = 2.066939 g / cm^3
# Si number density = 20.716541 Si / 1000 Ang^3
#
#
#
# Elastic Constant Matrix: (Units=GPa)
#
#
# Indices 1 2 3 4 5 6 
#
# 1 69.8385 25.6484 14.5100 0.0000 0.0000 0.0000
# 2 25.6484 89.7909 53.4626 0.0000 0.0000 0.0000
# 3 14.5100 53.4626 85.3117 0.0000 0.0000 0.0000
# 4 0.0000 0.0000 0.0000 487.6911 0.0000 0.0000
# 5 0.0000 0.0000 0.0000 0.0000 21.1172 0.0000
# 6 0.0000 0.0000 0.0000 0.0000 0.0000 56.7417
#
#
#
# Elastic Compliance Matrix: (Units=1/GPa)
#
#
# Indices 1 2 3 4 5 6 
#
# 1 0.016000 -0.004706 0.000228 0.000000 0.000000 0.000000
# 2 -0.004706 0.019150 -0.011200 0.000000 0.000000 0.000000
# 3 0.000228 -0.011200 0.018702 0.000000 0.000000 0.000000
# 4 0.000000 0.000000 0.000000 0.002050 0.000000 0.000000
# 5 0.000000 0.000000 0.000000 0.000000 0.047355 0.000000
# 6 0.000000 0.000000 0.000000 0.000000 0.000000 0.017624
#
#
# Mechanical properties :
#
#
# Convention : Reuss Voigt Hill
#
# Bulk Modulus (GPa) = 44.45497 48.02034 46.23766
# Shear Modulus (GPa) = 31.30164 123.19801 77.24982
#
# Velocity S-wave (km/s) = 3.89131 7.71994 6.11309
# Velocity P-wave (km/s) = 6.45717 10.13378 8.49672
#
# Compressibility (1/GPa) = 0.02249467
#
# Stress axis : x y z
#
# Youngs Moduli (GPa) = 62.50129 52.21912 53.47022
#
# Poissons Ratio (x) = 0.24574 -0.01218
# Poissons Ratio (y) = 0.29412 0.59889
# Poissons Ratio (z) = -0.01424 0.58488
#
# Static dielectric constant tensor:
#      x y z
#    x 1.724490 0.000000 0.000000 
#    y 0.000000 1.711190 0.000000 
#    z 0.000000 0.000000 1.741430 
# 
# From -- ./inp_files/9205.got.cif
#   From: 2010.05.17/outbox.cif.g08.bks.cpg/sg65_5_cif.got.tgz:9205.got - 2010.06.03 17:01:31.
