data_PCOD9493108
_publ_section_title
;
Structure prediction by ZEFSAII (Michael W. Deem and Ramdas Pophale) SiO2 
 PCOD9493108
Probable space group: C M M M
;
_chemical_formula_sum "Si O2"
_cell_formula_units_Z 50
_cell_length_a 16.679777
_cell_length_b 10.231291
_cell_length_c 15.027130
_cell_angle_alpha 90.000000
_cell_angle_beta 90.000000
_cell_angle_gamma 90.000000
_cell_volume 2564.464672
_symmetry_space_group_name_H-M "C M M M"
_symmetry_group_IT_number 65
_symmetry_cell_setting 'orthorhombic'
loop_
_space_group_symop_operation_xyz
x,y,z
-x,-y,z
x,-y,-z
-x,y,-z
-x,-y,-z
x,y,-z
-x,y,z
x,-y,z
1/2+x,1/2+y,z
1/2-x,1/2-y,z
1/2+x,1/2-y,-z
1/2-x,1/2+y,-z
1/2-x,1/2-y,-z
1/2+x,1/2+y,-z
1/2-x,1/2+y,z
1/2+x,1/2-y,z
loop_
_atom_site_type_symbol
_atom_site_label
_atom_site_fract_x
_atom_site_fract_y
_atom_site_fract_z
Si Si1 0.000000 0.500000 0.500000
Si Si2 0.176651 0.000000 0.395916
Si Si3 0.594272 0.278659 0.722038
Si Si4 0.176895 0.849994 0.101086
Si Si5 0.862154 0.500000 0.346819
O O1 0.929501 0.500000 0.422883
O O2 0.140472 0.126071 0.345945
O O3 0.155362 0.000000 0.500000
O O4 0.272375 0.000000 0.385060
O O5 0.500000 0.285290 0.703120
O O6 0.613218 0.324667 0.821821
O O7 0.624965 0.131603 0.709160
O O8 0.250000 0.750000 0.113935
O O9 0.205312 0.000000 0.109537
O O10 0.146292 0.832851 0.000000
#
# Coordination Sequence:
#
# PCOD9493108 Si02
#       5
#     2   8  16  16   8
#     4  12  24  48  72  98 128 188 228 286 332 400
#     4  12  27  42  69  98 132 174 224 281 338 399
#     4  12  26  44  65 101 137 176 222 278 335 402
#     4  10  22  42  69  99 134 177 224 277 337 403
#     4  12  26  47  69  93 136 177 229 273 335 404
#
# _framework density 19.497246000000001
#
# number of rings (size 3 to 8) (size 9 to 14) (size 15 to 20)
#    0.000    0.640    4.000    3.360    4.480    3.200 
#    0.000    1.600    0.000    1.920    0.000    0.000 
#    0.000    0.000    0.000    0.000    0.000    0.000 
#
# Total GULP energy -139551.994007 kJ/mol
# GULP energy per Si atom -5582.079760 kJ/mol
# Density = 1.945287 g / cm^3
# Si number density = 19.497246 Si / 1000 Ang^3
#
#
#
# Elastic Constant Matrix: (Units=GPa)
#
#
# Indices 1 2 3 4 5 6 
#
# 1 105.2299 54.3037 58.0009 0.0000 0.0000 0.0000
# 2 54.3037 156.0309 57.3087 0.0000 0.0000 0.0000
# 3 58.0009 57.3087 125.3657 0.0000 0.0000 0.0000
# 4 0.0000 0.0000 0.0000 -16.7464 0.0000 0.0000
# 5 0.0000 0.0000 0.0000 0.0000 23.5379 0.0000
# 6 0.0000 0.0000 0.0000 0.0000 0.0000 21.6534
#
#
#
# Elastic Compliance Matrix: (Units=1/GPa)
#
#
# Indices 1 2 3 4 5 6 
#
# 1 0.013803 -0.002954 -0.005036 0.000000 0.000000 0.000000
# 2 -0.002954 0.008335 -0.002443 0.000000 0.000000 0.000000
# 3 -0.005036 -0.002443 0.011423 0.000000 0.000000 0.000000
# 4 0.000000 0.000000 0.000000 -0.059714 0.000000 0.000000
# 5 0.000000 0.000000 0.000000 0.000000 0.042485 0.000000
# 6 0.000000 0.000000 0.000000 0.000000 0.000000 0.046182
#
#
# Mechanical properties :
#
#
# Convention : Reuss Voigt Hill
#
# Bulk Modulus (GPa) = 78.77263 80.65035 79.71149
# Shear Modulus (GPa) = 57.07035 20.15651 38.61343
#
# Velocity S-wave (km/s) = 5.41614 3.21878 4.45506
# Velocity P-wave (km/s) = 8.92201 7.43431 8.21192
#
# Compressibility (1/GPa) = 0.01269476
#
# Stress axis : x y z
#
# Youngs Moduli (GPa) = 72.44740 119.98241 87.54127
#
# Poissons Ratio (x) = 0.35448 0.44081
# Poissons Ratio (y) = 0.21404 0.21387
# Poissons Ratio (z) = 0.36481 0.29313
#
# Static dielectric constant tensor:
#      x y z
#    x 1.644220 0.000000 0.000000 
#    y 0.000000 1.679530 0.000000 
#    z 0.000000 0.000000 1.672890 
# 
# From -- ./inp_files/41684.got.cif
#   From: 2010.05.17/outbox.cif.g08.bks.cpg/sg65_21_cif.got.tgz:41684.got - 2010.06.03 17:01:31.
