data_PCOD9493848
_publ_section_title
;
Structure prediction by ZEFSAII (Michael W. Deem and Ramdas Pophale) SiO2 
 PCOD9493848
Probable space group: C M M M
;
_chemical_formula_sum "Si O2"
_cell_formula_units_Z 64
_cell_length_a 33.097601
_cell_length_b 10.798826
_cell_length_c 8.733495
_cell_angle_alpha 90.000000
_cell_angle_beta 90.000000
_cell_angle_gamma 90.000000
_cell_volume 3121.484161
_symmetry_space_group_name_H-M "C M M M"
_symmetry_group_IT_number 65
_symmetry_cell_setting 'orthorhombic'
loop_
_space_group_symop_operation_xyz
x,y,z
-x,-y,z
x,-y,-z
-x,y,-z
-x,-y,-z
x,y,-z
-x,y,z
x,-y,z
1/2+x,1/2+y,z
1/2-x,1/2-y,z
1/2+x,1/2-y,-z
1/2-x,1/2+y,-z
1/2-x,1/2-y,-z
1/2+x,1/2+y,-z
1/2-x,1/2+y,z
1/2+x,1/2-y,z
loop_
_atom_site_type_symbol
_atom_site_label
_atom_site_fract_x
_atom_site_fract_y
_atom_site_fract_z
Si Si1 0.500000 0.355337 0.170707
Si Si2 0.581231 0.261063 0.317207
Si Si3 0.166425 0.232058 0.817982
Si Si4 0.786425 0.000000 0.320643
Si Si5 0.953261 0.500000 0.685335
Si Si6 0.689421 0.000000 0.679301
O O1 0.500000 0.500000 0.150388
O O2 0.540037 0.324293 0.264642
O O3 0.500000 0.295936 0.000000
O O4 0.586529 0.270292 0.500000
O O5 0.621279 0.305636 0.233493
O O6 0.572045 0.119499 0.271591
O O7 0.174593 0.370175 0.751782
O O8 0.195983 0.125560 0.753547
O O9 0.169836 0.236296 0.000000
O O10 0.738028 0.000000 0.308335
O O11 0.797417 0.000000 0.500000
O O12 0.956207 0.500000 0.500000
O O13 0.000000 0.500000 0.741311
O O14 0.677571 0.000000 0.500000
#
# Coordination Sequence:
#
# PCOD9493848 Si02
#       6
#     8  16  16   8   8   8
#     4  11  25  42  59  84 126 171 216 273 330 380
#     4  11  22  40  66  92 125 168 218 266 319 389
#     4  12  26  43  67 101 140 176 219 276 338 398
#     4  11  25  46  72 100 132 175 225 274 330 401
#     4   9  17  34  59  89 116 149 202 261 312 363
#     4  11  24  46  73 101 134 174 223 273 328 402
#
# _framework density 20.503067000000001
#
# number of rings (size 3 to 8) (size 9 to 14) (size 15 to 20)
#    0.000    1.000    1.250    5.625    1.750    7.000 
#    0.000    2.500    0.000    0.000    0.000    0.000 
#    0.000    0.000    0.000    0.000    0.000    0.000 
#
# Total GULP energy -178888.220110 kJ/mol
# GULP energy per Si atom -5590.256878 kJ/mol
# Density = 2.045640 g / cm^3
# Si number density = 20.503067 Si / 1000 Ang^3
#
#
#
# Elastic Constant Matrix: (Units=GPa)
#
#
# Indices 1 2 3 4 5 6 
#
# 1 88.5141 25.8259 49.3411 0.0000 0.0000 0.0000
# 2 25.8259 102.4653 50.8720 0.0000 0.0000 0.0000
# 3 49.3411 50.8720 144.8957 0.0000 0.0000 0.0000
# 4 0.0000 0.0000 0.0000 36.7176 0.0000 0.0000
# 5 0.0000 0.0000 0.0000 0.0000 -179.7708 0.0000
# 6 0.0000 0.0000 0.0000 0.0000 0.0000 12.4112
#
#
#
# Elastic Compliance Matrix: (Units=1/GPa)
#
#
# Indices 1 2 3 4 5 6 
#
# 1 0.014113 -0.001418 -0.004308 0.000000 0.000000 0.000000
# 2 -0.001418 0.011962 -0.003717 0.000000 0.000000 0.000000
# 3 -0.004308 -0.003717 0.009673 0.000000 0.000000 0.000000
# 4 0.000000 0.000000 0.000000 0.027235 0.000000 0.000000
# 5 0.000000 0.000000 0.000000 0.000000 -0.005563 0.000000
# 6 0.000000 0.000000 0.000000 0.000000 0.000000 0.080572
#
#
# Mechanical properties :
#
#
# Convention : Reuss Voigt Hill
#
# Bulk Modulus (GPa) = 59.30355 65.32810 62.31582
# Shear Modulus (GPa) = 30.76924 -12.13933 9.31496
#
# Velocity S-wave (km/s) = 3.87811 -2.43590 2.13379
# Velocity P-wave (km/s) = 7.00286 4.90105 6.04402
#
# Compressibility (1/GPa) = 0.01686240
#
# Stress axis : x y z
#
# Youngs Moduli (GPa) = 70.85758 83.59635 103.37584
#
# Poissons Ratio (x) = 0.11856 0.44533
# Poissons Ratio (y) = 0.10050 0.38424
# Poissons Ratio (z) = 0.30524 0.31072
#
# Static dielectric constant tensor:
#      x y z
#    x 2.054950 0.000000 0.000000 
#    y 0.000000 1.708020 0.000000 
#    z 0.000000 0.000000 1.717610 
# 
# From -- ./inp_files/17857.got.cif
#   From: 2010.05.17/outbox.cif.g08.bks.cpg/sg65_9_cif.got.tgz:17857.got - 2010.06.03 17:01:31.
