data_PCOD9493796
_publ_section_title
;
Structure prediction by ZEFSAII (Michael W. Deem and Ramdas Pophale) SiO2 
 PCOD9493796
Probable space group: C M M M
;
_chemical_formula_sum "Si O2"
_cell_formula_units_Z 64
_cell_length_a 35.757639
_cell_length_b 12.049582
_cell_length_c 7.796446
_cell_angle_alpha 90.000000
_cell_angle_beta 90.000000
_cell_angle_gamma 90.000000
_cell_volume 3359.212613
_symmetry_space_group_name_H-M "C M M M"
_symmetry_group_IT_number 65
_symmetry_cell_setting 'orthorhombic'
loop_
_space_group_symop_operation_xyz
x,y,z
-x,-y,z
x,-y,-z
-x,y,-z
-x,-y,-z
x,y,-z
-x,y,z
x,-y,z
1/2+x,1/2+y,z
1/2-x,1/2-y,z
1/2+x,1/2-y,-z
1/2-x,1/2+y,-z
1/2-x,1/2-y,-z
1/2+x,1/2+y,-z
1/2-x,1/2+y,z
1/2+x,1/2-y,z
loop_
_atom_site_type_symbol
_atom_site_label
_atom_site_fract_x
_atom_site_fract_y
_atom_site_fract_z
Si Si1 0.674432 0.500000 0.707028
Si Si2 0.294285 0.738396 0.196733
Si Si3 0.955857 0.776482 0.804271
Si Si4 0.923636 0.368578 0.500000
Si Si5 0.334796 0.868142 0.500000
Si Si6 0.586753 0.500000 0.293204
O O1 0.677268 0.500000 0.500000
O O2 0.693544 0.611092 0.776269
O O3 0.630521 0.500000 0.752694
O O4 0.250000 0.750000 0.227563
O O5 0.316510 0.812073 0.333295
O O6 0.302020 0.771245 0.000000
O O7 0.941404 0.688454 0.666642
O O8 0.933544 0.890545 0.775323
O O9 0.000000 0.796763 0.778142
O O10 0.950240 0.738709 0.000000
O O11 0.929833 0.500000 0.500000
O O12 0.879170 0.346608 0.500000
O O13 0.328463 0.000000 0.500000
O O14 0.584036 0.500000 0.500000
#
# Coordination Sequence:
#
# PCOD9493796 Si02
#       6
#     8  16  16   8   8   8
#     4  11  23  40  66  96 128 169 209 258 319 373
#     4  11  25  42  65  95 127 164 210 261 317 379
#     4  11  24  41  65  96 129 167 209 258 318 378
#     4  11  25  44  64  91 125 168 219 263 307 367
#     4  11  25  43  66  92 123 168 214 260 318 374
#     4  11  22  38  65  99 131 164 207 257 318 385
#
# _framework density 19.052085000000002
#
# number of rings (size 3 to 8) (size 9 to 14) (size 15 to 20)
#    0.000    1.000    2.500    3.375    1.750    8.500 
#    0.000    3.750    0.000    0.000    0.000    0.000 
#    0.000    0.000    0.000    0.000    0.000    0.000 
#
# Total GULP energy -179068.240535 kJ/mol
# GULP energy per Si atom -5595.882517 kJ/mol
# Density = 1.900872 g / cm^3
# Si number density = 19.052085 Si / 1000 Ang^3
#
#
#
# Elastic Constant Matrix: (Units=GPa)
#
#
# Indices 1 2 3 4 5 6 
#
# 1 148.8478 96.3894 94.8380 0.0000 0.0000 0.0000
# 2 96.3894 110.9208 74.9571 0.0000 0.0000 0.0000
# 3 94.8380 74.9571 135.4280 0.0000 0.0000 0.0000
# 4 0.0000 0.0000 0.0000 -2.5169 0.0000 0.0000
# 5 0.0000 0.0000 0.0000 0.0000 58.8898 0.0000
# 6 0.0000 0.0000 0.0000 0.0000 0.0000 91.2513
#
#
#
# Elastic Compliance Matrix: (Units=1/GPa)
#
#
# Indices 1 2 3 4 5 6 
#
# 1 0.018288 -0.011562 -0.006407 0.000000 0.000000 0.000000
# 2 -0.011562 0.021712 -0.003921 0.000000 0.000000 0.000000
# 3 -0.006407 -0.003921 0.014041 0.000000 0.000000 0.000000
# 4 0.000000 0.000000 0.000000 -0.397311 0.000000 0.000000
# 5 0.000000 0.000000 0.000000 0.000000 0.016981 0.000000
# 6 0.000000 0.000000 0.000000 0.000000 0.000000 0.010959
#
#
# Mechanical properties :
#
#
# Convention : Reuss Voigt Hill
#
# Bulk Modulus (GPa) = 97.45605 103.06285 100.25945
# Shear Modulus (GPa) = -18.64771 38.12564 9.73896
#
# Velocity S-wave (km/s) = -3.13193 4.47825 2.26337
# Velocity P-wave (km/s) = 6.17939 8.99735 7.71807
#
# Compressibility (1/GPa) = 0.01026104
#
# Stress axis : x y z
#
# Youngs Moduli (GPa) = 54.68035 46.05649 71.22076
#
# Poissons Ratio (x) = 0.53252 0.45633
# Poissons Ratio (y) = 0.63224 0.27922
# Poissons Ratio (z) = 0.35035 0.18057
#
# Static dielectric constant tensor:
#      x y z
#    x 1.638590 0.000000 0.000000 
#    y 0.000000 1.616820 0.000000 
#    z 0.000000 0.000000 1.658120 
# 
# From -- ./inp_files/17849.got.cif
#   From: 2010.05.17/outbox.cif.g08.bks.cpg/sg65_9_cif.got.tgz:17849.got - 2010.06.03 17:01:31.
