data_PCOD9493591
_publ_section_title
;
Structure prediction by ZEFSAII (Michael W. Deem and Ramdas Pophale) SiO2 
 PCOD9493591
Probable space group: C M M M
;
_chemical_formula_sum "Si O2"
_cell_formula_units_Z 80
_cell_length_a 16.653226
_cell_length_b 13.196449
_cell_length_c 20.519148
_cell_angle_alpha 90.000000
_cell_angle_beta 90.000000
_cell_angle_gamma 90.000000
_cell_volume 4509.358706
_symmetry_space_group_name_H-M "C M M M"
_symmetry_group_IT_number 65
_symmetry_cell_setting 'orthorhombic'
loop_
_space_group_symop_operation_xyz
x,y,z
-x,-y,z
x,-y,-z
-x,y,-z
-x,-y,-z
x,y,-z
-x,y,z
x,-y,z
1/2+x,1/2+y,z
1/2-x,1/2-y,z
1/2+x,1/2-y,-z
1/2-x,1/2+y,-z
1/2-x,1/2-y,-z
1/2+x,1/2+y,-z
1/2-x,1/2+y,z
1/2+x,1/2-y,z
loop_
_atom_site_type_symbol
_atom_site_label
_atom_site_fract_x
_atom_site_fract_y
_atom_site_fract_z
Si Si1 0.097920 0.384170 0.073796
Si Si2 0.903576 0.613849 0.425923
Si Si3 0.902368 0.781071 0.177048
Si Si4 0.842894 0.221341 0.324713
Si Si5 0.593197 0.500000 0.327377
Si Si6 0.092018 0.000000 0.169348
O O1 0.122730 0.500000 0.086410
O O2 0.125376 0.307097 0.129044
O O3 0.000000 0.383120 0.074786
O O4 0.121849 0.356165 0.000000
O O5 0.875174 0.634417 0.500000
O O6 0.875648 0.500000 0.407234
O O7 0.880247 0.699944 0.375502
O O8 0.000000 0.610530 0.427973
O O9 0.877464 0.765100 0.251740
O O10 0.871757 0.891115 0.152557
O O11 0.000000 0.784878 0.176249
O O12 0.750000 0.250000 0.322222
O O13 0.862879 0.105175 0.345189
O O14 0.500000 0.500000 0.350013
O O15 0.589822 0.500000 0.248324
O O16 0.000000 0.000000 0.144932
#
# Coordination Sequence:
#
# PCOD9493591 Si02
#       6
#    16  16  16  16   8   8
#     4   8  14  25  42  67  98 129 165 213 263 307
#     4   9  19  37  59  80 106 141 177 215 264 323
#     4   9  16  29  48  70  96 134 173 211 257 316
#     4  11  22  33  54  80 112 138 178 228 273 314
#     4   9  18  36  55  73 104 149 181 212 269 331
#     4   7  12  24  43  63  87 122 167 203 244 298
#
# _framework density 17.740881999999999
#
# number of rings (size 3 to 8) (size 9 to 14) (size 15 to 20)
#    0.000    3.000    0.000    4.200    1.400    1.200 
#    0.000    3.000    0.000    5.400    0.000    0.000 
#    0.000    0.000    0.000    0.000    0.000    0.000 
#
# Total GULP energy -222672.560322 kJ/mol
# GULP energy per Si atom -5566.814008 kJ/mol
# Density = 1.770050 g / cm^3
# Si number density = 17.740882 Si / 1000 Ang^3
#
#
#
# Elastic Constant Matrix: (Units=GPa)
#
#
# Indices 1 2 3 4 5 6 
#
# 1 37.2873 34.7797 10.8125 0.0000 0.0000 0.0000
# 2 34.7797 189.7855 105.4710 0.0000 0.0000 0.0000
# 3 10.8125 105.4710 94.6645 0.0000 0.0000 0.0000
# 4 0.0000 0.0000 0.0000 -12.3922 0.0000 0.0000
# 5 0.0000 0.0000 0.0000 0.0000 438.6252 0.0000
# 6 0.0000 0.0000 0.0000 0.0000 0.0000 5.6436
#
#
#
# Elastic Compliance Matrix: (Units=1/GPa)
#
#
# Indices 1 2 3 4 5 6 
#
# 1 0.034600 -0.010883 0.008173 0.000000 0.000000 0.000000
# 2 -0.010883 0.017259 -0.017986 0.000000 0.000000 0.000000
# 3 0.008173 -0.017986 0.029670 0.000000 0.000000 0.000000
# 4 0.000000 0.000000 0.000000 -0.080696 0.000000 0.000000
# 5 0.000000 0.000000 0.000000 0.000000 0.002280 0.000000
# 6 0.000000 0.000000 0.000000 0.000000 0.000000 0.177192
#
#
# Mechanical properties :
#
#
# Convention : Reuss Voigt Hill
#
# Bulk Modulus (GPa) = 24.91495 69.31820 47.11658
# Shear Modulus (GPa) = 21.26974 97.75360 59.51167
#
# Velocity S-wave (km/s) = 3.46629 7.43104 5.79808
# Velocity P-wave (km/s) = 5.48584 10.62001 8.45219
#
# Compressibility (1/GPa) = 0.04013654
#
# Stress axis : x y z
#
# Youngs Moduli (GPa) = 28.90202 57.94012 33.70439
#
# Poissons Ratio (x) = 0.63055 -0.27547
# Poissons Ratio (y) = 0.31454 0.60622
# Poissons Ratio (z) = -0.23622 1.04213
#
# Static dielectric constant tensor:
#      x y z
#    x 1.632840 0.000000 0.000000 
#    y 0.000000 1.634670 0.000000 
#    z 0.000000 0.000000 1.584190 
# 
# From -- ./inp_files/63535.got.cif
#   From: 2010.05.17/outbox.cif.g08.bks.cpg/sg65_32_cif.got.tgz:63535.got - 2010.06.03 17:01:31.
