data_PCOD9493943
_publ_section_title
;
Structure prediction by ZEFSAII (Michael W. Deem and Ramdas Pophale) SiO2 
 PCOD9493943
Probable space group: C M M M
;
_chemical_formula_sum "Si O2"
_cell_formula_units_Z 56
_cell_length_a 8.925185
_cell_length_b 18.137819
_cell_length_c 18.876775
_cell_angle_alpha 90.000000
_cell_angle_beta 90.000000
_cell_angle_gamma 90.000000
_cell_volume 3055.836331
_symmetry_space_group_name_H-M "C M M M"
_symmetry_group_IT_number 65
_symmetry_cell_setting 'orthorhombic'
loop_
_space_group_symop_operation_xyz
x,y,z
-x,-y,z
x,-y,-z
-x,y,-z
-x,-y,-z
x,y,-z
-x,y,z
x,-y,z
1/2+x,1/2+y,z
1/2-x,1/2-y,z
1/2+x,1/2-y,-z
1/2-x,1/2+y,-z
1/2-x,1/2-y,-z
1/2+x,1/2+y,-z
1/2-x,1/2+y,z
1/2+x,1/2-y,z
loop_
_atom_site_type_symbol
_atom_site_label
_atom_site_fract_x
_atom_site_fract_y
_atom_site_fract_z
Si Si1 0.676429 0.411915 0.500000
Si Si2 0.677346 0.589148 0.922708
Si Si3 0.319383 0.169032 0.366353
Si Si4 0.320148 0.085667 0.222701
O O1 0.689866 0.500000 0.500000
O O2 0.500000 0.392435 0.500000
O O3 0.755135 0.378720 0.569199
O O4 0.500000 0.603562 0.918408
O O5 0.696310 0.500000 0.923190
O O6 0.756263 0.615597 0.851424
O O7 0.732048 0.615973 0.000000
O O8 0.500000 0.171919 0.370492
O O9 0.250000 0.250000 0.371010
O O10 0.276034 0.131843 0.291528
O O11 0.500000 0.085913 0.218442
O O12 0.271807 0.000000 0.231308
#
# Coordination Sequence:
#
# PCOD9493943 Si02
#       4
#     8  16  16  16
#     4  11  24  41  62  87 111 137 174 217 262 315
#     4   8  14  25  43  70 103 136 170 212 263 314
#     4  11  23  39  58  80 110 145 180 219 265 317
#     4   9  18  32  51  76 104 136 175 218 265 315
#
# _framework density 18.325589999999998
#
# number of rings (size 3 to 8) (size 9 to 14) (size 15 to 20)
#    0.000    2.429    0.000    3.429    0.000    5.143 
#    0.000    5.714    0.000    0.857    0.000    0.000 
#    0.000    0.000    0.000    0.000    0.000    0.000 
#
# Total GULP energy -156185.772574 kJ/mol
# GULP energy per Si atom -5578.063306 kJ/mol
# Density = 1.828388 g / cm^3
# Si number density = 18.325590 Si / 1000 Ang^3
#
#
#
# Elastic Constant Matrix: (Units=GPa)
#
#
# Indices 1 2 3 4 5 6 
#
# 1 50.2809 33.4541 63.8530 0.0000 0.0000 0.0000
# 2 33.4541 55.8191 55.6986 0.0000 0.0000 0.0000
# 3 63.8530 55.6986 206.5406 0.0000 0.0000 0.0000
# 4 0.0000 0.0000 0.0000 -14.8253 0.0000 0.0000
# 5 0.0000 0.0000 0.0000 0.0000 39.2455 0.0000
# 6 0.0000 0.0000 0.0000 0.0000 0.0000 14.6312
#
#
#
# Elastic Compliance Matrix: (Units=1/GPa)
#
#
# Indices 1 2 3 4 5 6 
#
# 1 0.041528 -0.016525 -0.008382 0.000000 0.000000 0.000000
# 2 -0.016525 0.031086 -0.003274 0.000000 0.000000 0.000000
# 3 -0.008382 -0.003274 0.008316 0.000000 0.000000 0.000000
# 4 0.000000 0.000000 0.000000 -0.067452 0.000000 0.000000
# 5 0.000000 0.000000 0.000000 0.000000 0.025481 0.000000
# 6 0.000000 0.000000 0.000000 0.000000 0.000000 0.068347
#
#
# Mechanical properties :
#
#
# Convention : Reuss Voigt Hill
#
# Bulk Modulus (GPa) = 40.70467 68.73911 54.72189
# Shear Modulus (GPa) = 29.09399 18.45263 23.77331
#
# Velocity S-wave (km/s) = 3.98881 3.17666 3.60568
# Velocity P-wave (km/s) = 6.59350 7.14467 6.87461
#
# Compressibility (1/GPa) = 0.02456721
#
# Stress axis : x y z
#
# Youngs Moduli (GPa) = 24.08031 32.16866 120.24897
#
# Poissons Ratio (x) = 0.53158 1.00795
# Poissons Ratio (y) = 0.39792 0.39374
# Poissons Ratio (z) = 0.20185 0.10533
#
# Static dielectric constant tensor:
#      x y z
#    x 1.614790 0.000000 0.000000 
#    y 0.000000 1.611010 0.000000 
#    z 0.000000 0.000000 1.638350 
# 
# From -- ./inp_files/48777.got.cif
#   From: 2010.05.17/outbox.cif.g08.bks.cpg/sg65_25_cif.got.tgz:48777.got - 2010.06.03 17:01:31.
