data_PCOD9493234
_publ_section_title
;
Structure prediction by ZEFSAII (Michael W. Deem and Ramdas Pophale) SiO2 
 PCOD9493234
Probable space group: C M M M
;
_chemical_formula_sum "Si O2"
_cell_formula_units_Z 60
_cell_length_a 23.166412
_cell_length_b 9.546618
_cell_length_c 14.721594
_cell_angle_alpha 90.000000
_cell_angle_beta 90.000000
_cell_angle_gamma 90.000000
_cell_volume 3255.840769
_symmetry_space_group_name_H-M "C M M M"
_symmetry_group_IT_number 65
_symmetry_cell_setting 'orthorhombic'
loop_
_space_group_symop_operation_xyz
x,y,z
-x,-y,z
x,-y,-z
-x,y,-z
-x,-y,-z
x,y,-z
-x,y,z
x,-y,z
1/2+x,1/2+y,z
1/2-x,1/2-y,z
1/2+x,1/2-y,-z
1/2-x,1/2+y,-z
1/2-x,1/2-y,-z
1/2+x,1/2+y,-z
1/2-x,1/2+y,z
1/2+x,1/2-y,z
loop_
_atom_site_type_symbol
_atom_site_label
_atom_site_fract_x
_atom_site_fract_y
_atom_site_fract_z
Si Si1 0.250000 0.250000 0.354658
Si Si2 0.365582 0.665019 0.746241
Si Si3 0.569294 0.156332 0.395658
Si Si4 0.272912 0.000000 0.500000
Si Si5 0.433627 0.833684 0.891955
O O1 0.302319 0.297543 0.290009
O O2 0.230464 0.376936 0.420079
O O3 0.371258 0.500000 0.758948
O O4 0.406597 0.722660 0.666123
O O5 0.387679 0.746900 0.834844
O O6 0.589094 0.169995 0.500000
O O7 0.500000 0.158516 0.395500
O O8 0.587351 0.000000 0.364193
O O9 0.500000 0.796931 0.865337
O O10 0.427018 0.000000 0.875212
O O11 0.428388 0.811003 0.000000
#
# Coordination Sequence:
#
# PCOD9493234 Si02
#       5
#     8  16  16   4  16
#     4  11  26  42  61  90 118 164 211 256 301 352
#     4  12  25  37  57  89 121 152 199 251 302 359
#     4   9  20  36  55  80 112 154 197 237 291 357
#     4  10  24  46  64  78 120 166 216 256 294 348
#     4   9  20  41  68  94 120 156 200 243 296 366
#
# _framework density 18.428419999999999
#
# number of rings (size 3 to 8) (size 9 to 14) (size 15 to 20)
#    0.000    1.867    1.333    3.200    7.467    5.333 
#    0.000    3.333    0.000    0.000    0.000    0.000 
#    0.000    0.000    0.000    0.000    0.000    0.000 
#
# Total GULP energy -167042.249898 kJ/mol
# GULP energy per Si atom -5568.074997 kJ/mol
# Density = 1.838648 g / cm^3
# Si number density = 18.428420 Si / 1000 Ang^3
#
#
#
# Elastic Constant Matrix: (Units=GPa)
#
#
# Indices 1 2 3 4 5 6 
#
# 1 75.0675 43.5696 49.8091 0.0000 0.0000 0.0000
# 2 43.5696 123.4859 55.2479 0.0000 0.0000 0.0000
# 3 49.8091 55.2479 93.4901 0.0000 0.0000 0.0000
# 4 0.0000 0.0000 0.0000 25.9507 0.0000 0.0000
# 5 0.0000 0.0000 0.0000 0.0000 24.6396 0.0000
# 6 0.0000 0.0000 0.0000 0.0000 0.0000 11.9299
#
#
#
# Elastic Compliance Matrix: (Units=1/GPa)
#
#
# Indices 1 2 3 4 5 6 
#
# 1 0.021584 -0.003359 -0.009515 0.000000 0.000000 0.000000
# 2 -0.003359 0.011531 -0.005025 0.000000 0.000000 0.000000
# 3 -0.009515 -0.005025 0.018735 0.000000 0.000000 0.000000
# 4 0.000000 0.000000 0.000000 0.038535 0.000000 0.000000
# 5 0.000000 0.000000 0.000000 0.000000 0.040585 0.000000
# 6 0.000000 0.000000 0.000000 0.000000 0.000000 0.083823
#
#
# Mechanical properties :
#
#
# Convention : Reuss Voigt Hill
#
# Bulk Modulus (GPa) = 62.29081 65.47742 63.88411
# Shear Modulus (GPa) = 19.53577 22.06515 20.80046
#
# Velocity S-wave (km/s) = 3.25943 3.46402 3.36328
# Velocity P-wave (km/s) = 6.93109 7.18380 7.05858
#
# Compressibility (1/GPa) = 0.01605373
#
# Stress axis : x y z
#
# Youngs Moduli (GPa) = 46.33099 86.72018 53.37614
#
# Poissons Ratio (x) = 0.29126 0.50785
# Poissons Ratio (y) = 0.15561 0.26822
# Poissons Ratio (z) = 0.44082 0.43577
#
# Static dielectric constant tensor:
#      x y z
#    x 1.677590 0.000000 0.000000 
#    y 0.000000 1.609290 0.000000 
#    z 0.000000 0.000000 1.629950 
# 
# From -- ./inp_files/44997.got.cif
#   From: 2010.05.17/outbox.cif.g08.bks.cpg/sg65_23_cif.got.tgz:44997.got - 2010.06.03 17:01:31.
