data_PCOD9493453
_publ_section_title
;
Structure prediction by ZEFSAII (Michael W. Deem and Ramdas Pophale) SiO2 
 PCOD9493453
Probable space group: C M M M
;
_chemical_formula_sum "Si O2"
_cell_formula_units_Z 104
_cell_length_a 8.787761
_cell_length_b 30.262831
_cell_length_c 23.702915
_cell_angle_alpha 90.000000
_cell_angle_beta 90.000000
_cell_angle_gamma 90.000000
_cell_volume 6303.613089
_symmetry_space_group_name_H-M "C M M M"
_symmetry_group_IT_number 65
_symmetry_cell_setting 'orthorhombic'
loop_
_space_group_symop_operation_xyz
x,y,z
-x,-y,z
x,-y,-z
-x,y,-z
-x,-y,-z
x,y,-z
-x,y,z
x,-y,z
1/2+x,1/2+y,z
1/2-x,1/2-y,z
1/2+x,1/2-y,-z
1/2-x,1/2+y,-z
1/2-x,1/2-y,-z
1/2+x,1/2+y,-z
1/2-x,1/2+y,z
1/2+x,1/2-y,z
loop_
_atom_site_type_symbol
_atom_site_label
_atom_site_fract_x
_atom_site_fract_y
_atom_site_fract_z
Si Si1 0.317045 0.393682 0.105182
Si Si2 0.814596 0.550538 0.335684
Si Si3 0.817033 0.203059 0.933743
Si Si4 0.327656 0.705478 0.568358
Si Si5 0.683098 0.947929 0.000000
Si Si6 0.683026 0.112579 0.435876
Si Si7 0.316345 0.947871 0.792237
O O1 0.500000 0.395187 0.101402
O O2 0.270186 0.342177 0.097541
O O3 0.247837 0.422702 0.054440
O O4 0.260894 0.416194 0.162619
O O5 0.767727 0.500000 0.344148
O O6 0.759709 0.580107 0.387333
O O7 0.771183 0.563730 0.272111
O O8 0.000000 0.551423 0.336428
O O9 0.750000 0.250000 0.913757
O O10 0.000000 0.205903 0.931039
O O11 0.774107 0.197960 0.000000
O O12 0.333204 0.708811 0.500000
O O13 0.500000 0.701173 0.588690
O O14 0.250000 0.750000 0.589748
O O15 0.231705 0.661934 0.580006
O O16 0.500000 0.945479 0.000000
O O17 0.725285 0.000000 0.000000
O O18 0.737683 0.103153 0.500000
O O19 0.500000 0.109990 0.437338
O O20 0.500000 0.944357 0.796892
O O21 0.279291 0.000000 0.801733
#
# Coordination Sequence:
#
# PCOD9493453 Si02
#       7
#    16  16  16  16   8  16  16
#     4  11  21  34  51  74 102 128 158 200 247 286
#     4   8  15  29  48  69  95 127 162 201 240 280
#     4   9  18  33  50  71  98 126 157 193 235 283
#     4   9  16  26  41  62  90 122 153 187 231 283
#     4  11  23  35  48  71 102 133 164 195 232 285
#     4   9  16  26  44  71  98 123 156 198 244 293
#     4   9  18  33  51  70  94 128 169 203 234 284
#
# _framework density 16.498474000000002
#
# number of rings (size 3 to 8) (size 9 to 14) (size 15 to 20)
#    0.000    2.692    0.769    2.538    0.000    6.154 
#    0.000    2.308    0.000    2.308    0.000    4.308 
#    0.000    0.000    0.000    0.000    0.000    0.000 
#
# Total GULP energy -289698.545572 kJ/mol
# GULP energy per Si atom -5571.125876 kJ/mol
# Density = 1.646092 g / cm^3
# Si number density = 16.498474 Si / 1000 Ang^3
#
#
#
# Elastic Constant Matrix: (Units=GPa)
#
#
# Indices 1 2 3 4 5 6 
#
# 1 20.6870 31.3396 25.7732 0.0000 0.0000 0.0000
# 2 31.3396 146.4017 94.3774 0.0000 0.0000 0.0000
# 3 25.7732 94.3774 112.5234 0.0000 0.0000 0.0000
# 4 0.0000 0.0000 0.0000 2.3976 0.0000 0.0000
# 5 0.0000 0.0000 0.0000 0.0000 8.5170 0.0000
# 6 0.0000 0.0000 0.0000 0.0000 0.0000 25.2669
#
#
#
# Elastic Compliance Matrix: (Units=1/GPa)
#
#
# Indices 1 2 3 4 5 6 
#
# 1 0.074750 -0.010808 -0.008056 0.000000 0.000000 0.000000
# 2 -0.010808 0.016434 -0.011308 0.000000 0.000000 0.000000
# 3 -0.008056 -0.011308 0.020217 0.000000 0.000000 0.000000
# 4 0.000000 0.000000 0.000000 0.417079 0.000000 0.000000
# 5 0.000000 0.000000 0.000000 0.000000 0.117412 0.000000
# 6 0.000000 0.000000 0.000000 0.000000 0.000000 0.039578
#
#
# Mechanical properties :
#
#
# Convention : Reuss Voigt Hill
#
# Bulk Modulus (GPa) = 19.58630 64.73250 42.15940
# Shear Modulus (GPa) = 6.55451 15.77775 11.16613
#
# Velocity S-wave (km/s) = 1.99535 3.09579 2.60436
# Velocity P-wave (km/s) = 4.14800 7.21798 5.88664
#
# Compressibility (1/GPa) = 0.05105610
#
# Stress axis : x y z
#
# Youngs Moduli (GPa) = 13.37787 60.84973 49.46360
#
# Poissons Ratio (x) = 0.65766 0.39850
# Poissons Ratio (y) = 0.14459 0.55934
# Poissons Ratio (z) = 0.10778 0.68810
#
# Static dielectric constant tensor:
#      x y z
#    x 1.562720 0.000000 0.000000 
#    y 0.000000 1.548970 0.000000 
#    z 0.000000 0.000000 1.548690 
# 
# From -- ./inp_files/60862.got.cif
#   From: 2010.05.17/outbox.cif.g08.bks.cpg/sg65_31_cif.got.tgz:60862.got - 2010.06.03 17:01:31.
