data_PCOD9493061
_publ_section_title
;
Structure prediction by ZEFSAII (Michael W. Deem and Ramdas Pophale) SiO2 
 PCOD9493061
Probable space group: C M M M
;
_chemical_formula_sum "Si O2"
_cell_formula_units_Z 72
_cell_length_a 14.962162
_cell_length_b 19.139912
_cell_length_c 12.820674
_cell_angle_alpha 90.000000
_cell_angle_beta 90.000000
_cell_angle_gamma 90.000000
_cell_volume 3671.513645
_symmetry_space_group_name_H-M "C M M M"
_symmetry_group_IT_number 65
_symmetry_cell_setting 'orthorhombic'
loop_
_space_group_symop_operation_xyz
x,y,z
-x,-y,z
x,-y,-z
-x,y,-z
-x,-y,-z
x,y,-z
-x,y,z
x,-y,z
1/2+x,1/2+y,z
1/2-x,1/2-y,z
1/2+x,1/2-y,-z
1/2-x,1/2+y,-z
1/2-x,1/2-y,-z
1/2+x,1/2+y,-z
1/2-x,1/2+y,z
1/2+x,1/2-y,z
loop_
_atom_site_type_symbol
_atom_site_label
_atom_site_fract_x
_atom_site_fract_y
_atom_site_fract_z
Si Si1 0.108353 0.079787 0.000000
Si Si2 0.239578 0.082507 0.379602
Si Si3 0.606183 0.079794 0.780274
Si Si4 0.148658 0.721725 0.883920
Si Si5 0.398588 0.647053 0.779748
O O1 0.134333 0.115808 0.891317
O O2 0.000000 0.080983 0.000000
O O3 0.139082 0.000000 0.000000
O O4 0.240625 0.104232 0.500000
O O5 0.335844 0.089726 0.324471
O O6 0.167878 0.123843 0.310461
O O7 0.216510 0.000000 0.375021
O O8 0.500000 0.086702 0.764148
O O9 0.638633 0.140674 0.857198
O O10 0.623314 0.000000 0.817313
O O11 0.250000 0.750000 0.882528
O O12 0.101106 0.770036 0.798844
O O13 0.111949 0.734475 0.000000
O O14 0.500000 0.622262 0.760996
#
# Coordination Sequence:
#
# PCOD9493061 Si02
#       5
#     8  16  16  16  16
#     4   9  18  32  53  84 120 158 199 244 291 352
#     4  10  22  41  63  89 125 166 209 260 312 366
#     4  10  22  41  65  92 122 162 214 266 315 370
#     4  11  22  39  63  92 127 168 206 251 316 382
#     4  11  21  36  59  90 125 163 205 249 307 378
#
# _framework density 19.610441000000002
#
# number of rings (size 3 to 8) (size 9 to 14) (size 15 to 20)
#    0.000    1.667    3.333    1.333    0.000    4.000 
#    0.000    6.667    0.000    2.667    0.000    0.000 
#    0.000    0.000    0.000    0.000    0.000    0.000 
#
# Total GULP energy -200988.138614 kJ/mol
# GULP energy per Si atom -5583.003850 kJ/mol
# Density = 1.956581 g / cm^3
# Si number density = 19.610441 Si / 1000 Ang^3
#
#
#
# Elastic Constant Matrix: (Units=GPa)
#
#
# Indices 1 2 3 4 5 6 
#
# 1 108.2745 43.4420 37.4848 0.0000 0.0000 0.0000
# 2 43.4420 110.4343 50.8114 0.0000 0.0000 0.0000
# 3 37.4848 50.8114 95.4183 0.0000 0.0000 0.0000
# 4 0.0000 0.0000 0.0000 25.0675 0.0000 0.0000
# 5 0.0000 0.0000 0.0000 0.0000 10.5380 0.0000
# 6 0.0000 0.0000 0.0000 0.0000 0.0000 27.4741
#
#
#
# Elastic Compliance Matrix: (Units=1/GPa)
#
#
# Indices 1 2 3 4 5 6 
#
# 1 0.011503 -0.003239 -0.002794 0.000000 0.000000 0.000000
# 2 -0.003239 0.012906 -0.005600 0.000000 0.000000 0.000000
# 3 -0.002794 -0.005600 0.014560 0.000000 0.000000 0.000000
# 4 0.000000 0.000000 0.000000 0.039892 0.000000 0.000000
# 5 0.000000 0.000000 0.000000 0.000000 0.094894 0.000000
# 6 0.000000 0.000000 0.000000 0.000000 0.000000 0.036398
#
#
# Mechanical properties :
#
#
# Convention : Reuss Voigt Hill
#
# Bulk Modulus (GPa) = 63.68583 64.17818 63.93201
# Shear Modulus (GPa) = 20.95086 24.77520 22.86303
#
# Velocity S-wave (km/s) = 3.27211 3.55824 3.41817
# Velocity P-wave (km/s) = 6.84263 7.04834 6.94625
#
# Compressibility (1/GPa) = 0.01570208
#
# Stress axis : x y z
#
# Youngs Moduli (GPa) = 86.93596 77.48285 68.68232
#
# Poissons Ratio (x) = 0.25100 0.19188
# Poissons Ratio (y) = 0.28162 0.38462
# Poissons Ratio (z) = 0.24288 0.43391
#
# Static dielectric constant tensor:
#      x y z
#    x 1.708570 0.000000 0.000000 
#    y 0.000000 1.727360 0.000000 
#    z 0.000000 0.000000 1.645120 
# 
# From -- ./inp_files/26321.got.cif
#   From: 2010.05.17/outbox.cif.g08.bks.cpg/sg65_14_cif.got.tgz:26321.got - 2010.06.03 17:01:31.
