data_PCOD9493711
_publ_section_title
;
Structure prediction by ZEFSAII (Michael W. Deem and Ramdas Pophale) SiO2 
 PCOD9493711
Probable space group: C M M M
;
_chemical_formula_sum "Si O2"
_cell_formula_units_Z 80
_cell_length_a 8.609366
_cell_length_b 24.123581
_cell_length_c 21.043434
_cell_angle_alpha 90.000000
_cell_angle_beta 90.000000
_cell_angle_gamma 90.000000
_cell_volume 4370.484252
_symmetry_space_group_name_H-M "C M M M"
_symmetry_group_IT_number 65
_symmetry_cell_setting 'orthorhombic'
loop_
_space_group_symop_operation_xyz
x,y,z
-x,-y,z
x,-y,-z
-x,y,-z
-x,-y,-z
x,y,-z
-x,y,z
x,-y,z
1/2+x,1/2+y,z
1/2-x,1/2-y,z
1/2+x,1/2-y,-z
1/2-x,1/2+y,-z
1/2-x,1/2-y,-z
1/2+x,1/2+y,-z
1/2-x,1/2+y,z
1/2+x,1/2-y,z
loop_
_atom_site_type_symbol
_atom_site_label
_atom_site_fract_x
_atom_site_fract_y
_atom_site_fract_z
Si Si1 0.814774 0.611822 0.304680
Si Si2 0.187094 0.064020 0.427199
Si Si3 0.814320 0.882861 0.929847
Si Si4 0.684919 0.000000 0.104621
Si Si5 0.187103 0.312060 0.811436
Si Si6 0.183445 0.000000 0.755568
O O1 0.749658 0.607344 0.375927
O O2 0.763765 0.659599 0.255521
O O3 0.758619 0.554693 0.273287
O O4 0.000000 0.613314 0.307740
O O5 0.233628 0.075553 0.500000
O O6 0.000000 0.064261 0.424459
O O7 0.236206 0.000000 0.412541
O O8 0.735416 0.943243 0.928491
O O9 0.750129 0.847550 0.870958
O O10 0.000000 0.889226 0.922609
O O11 0.784678 0.857691 0.000000
O O12 0.500000 0.000000 0.115467
O O13 0.777821 0.000000 0.170529
O O14 0.250000 0.250000 0.815320
O O15 0.000000 0.312570 0.813987
O O16 0.000000 0.000000 0.743250
#
# Coordination Sequence:
#
# PCOD9493711 Si02
#       6
#    16  16  16   8  16   8
#     4  11  22  36  57  87 119 150 190 242 291 341
#     4   9  18  32  52  83 122 160 194 227 274 342
#     4  11  24  41  62  88 118 154 194 236 290 354
#     4  12  23  37  58  88 123 155 190 235 289 348
#     4  11  25  43  63  85 113 149 196 249 296 347
#     4  12  22  33  56  85 116 156 192 232 286 347
#
# _framework density 18.304608000000002
#
# number of rings (size 3 to 8) (size 9 to 14) (size 15 to 20)
#    0.000    1.200    3.000    4.500    0.000    6.000 
#    0.000    1.000    0.000    0.600    0.000    0.000 
#    0.000    0.000    0.000    0.000    0.000    0.000 
#
# Total GULP energy -223400.040499 kJ/mol
# GULP energy per Si atom -5585.001012 kJ/mol
# Density = 1.826295 g / cm^3
# Si number density = 18.304608 Si / 1000 Ang^3
#
#
#
# Elastic Constant Matrix: (Units=GPa)
#
#
# Indices 1 2 3 4 5 6 
#
# 1 13.7805 24.2565 12.4042 0.0000 0.0000 0.0000
# 2 24.2565 112.1842 60.3285 0.0000 0.0000 0.0000
# 3 12.4042 60.3285 141.3368 0.0000 0.0000 0.0000
# 4 0.0000 0.0000 0.0000 64.2569 0.0000 0.0000
# 5 0.0000 0.0000 0.0000 0.0000 40.5601 0.0000
# 6 0.0000 0.0000 0.0000 0.0000 0.0000 24.7236
#
#
#
# Elastic Compliance Matrix: (Units=1/GPa)
#
#
# Indices 1 2 3 4 5 6 
#
# 1 0.117206 -0.025713 0.000689 0.000000 0.000000 0.000000
# 2 -0.025713 0.017211 -0.005090 0.000000 0.000000 0.000000
# 3 0.000689 -0.005090 0.009187 0.000000 0.000000 0.000000
# 4 0.000000 0.000000 0.000000 0.015563 0.000000 0.000000
# 5 0.000000 0.000000 0.000000 0.000000 0.024655 0.000000
# 6 0.000000 0.000000 0.000000 0.000000 0.000000 0.040447
#
#
# Mechanical properties :
#
#
# Convention : Reuss Voigt Hill
#
# Bulk Modulus (GPa) = 11.99371 51.25332 31.62351
# Shear Modulus (GPa) = 16.01087 37.26225 26.63656
#
# Velocity S-wave (km/s) = 2.96073 4.51674 3.81882
# Velocity P-wave (km/s) = 4.27251 7.43386 6.06286
#
# Compressibility (1/GPa) = 0.08337704
#
# Stress axis : x y z
#
# Youngs Moduli (GPa) = 8.53197 58.10403 108.84642
#
# Poissons Ratio (x) = 1.49402 -0.07498
# Poissons Ratio (y) = 0.21938 0.55398
# Poissons Ratio (z) = -0.00588 0.29572
#
# Static dielectric constant tensor:
#      x y z
#    x 1.614630 0.000000 0.000000 
#    y 0.000000 1.598250 0.000000 
#    z 0.000000 0.000000 1.678150 
# 
# From -- ./inp_files/59694.got.cif
#   From: 2010.05.17/outbox.cif.g08.bks.cpg/sg65_30_cif.got.tgz:59694.got - 2010.06.03 17:01:31.
