data_PCOD9493055
_publ_section_title
;
Structure prediction by ZEFSAII (Michael W. Deem and Ramdas Pophale) SiO2 
 PCOD9493055
Probable space group: C M M M
;
_chemical_formula_sum "Si O2"
_cell_formula_units_Z 80
_cell_length_a 18.584441
_cell_length_b 25.782658
_cell_length_c 9.052199
_cell_angle_alpha 90.000000
_cell_angle_beta 90.000000
_cell_angle_gamma 90.000000
_cell_volume 4337.418057
_symmetry_space_group_name_H-M "C M M M"
_symmetry_group_IT_number 65
_symmetry_cell_setting 'orthorhombic'
loop_
_space_group_symop_operation_xyz
x,y,z
-x,-y,z
x,-y,-z
-x,y,-z
-x,-y,-z
x,y,-z
-x,y,z
x,-y,z
1/2+x,1/2+y,z
1/2-x,1/2-y,z
1/2+x,1/2-y,-z
1/2-x,1/2+y,-z
1/2-x,1/2-y,-z
1/2+x,1/2+y,-z
1/2-x,1/2+y,z
1/2+x,1/2-y,z
loop_
_atom_site_type_symbol
_atom_site_label
_atom_site_fract_x
_atom_site_fract_y
_atom_site_fract_z
Si Si1 0.584543 0.755183 0.175927
Si Si2 0.084672 0.939833 0.676525
Si Si3 0.670704 0.848145 0.324211
Si Si4 0.173870 0.849126 0.824070
Si Si5 0.415390 0.939188 0.175506
O O1 0.500000 0.751439 0.209859
O O2 0.621927 0.801149 0.264809
O O3 0.624535 0.701100 0.206604
O O4 0.591746 0.765827 0.000000
O O5 0.094491 0.933057 0.500000
O O6 0.133514 0.899802 0.763819
O O7 0.000000 0.931052 0.708542
O O8 0.100874 0.000000 0.711430
O O9 0.674939 0.847285 0.500000
O O10 0.749609 0.843144 0.254248
O O11 0.634246 0.901153 0.267738
O O12 0.184118 0.852680 0.000000
O O13 0.500000 0.928997 0.205322
O O14 0.401903 0.000000 0.205242
O O15 0.404037 0.930495 0.000000
#
# Coordination Sequence:
#
# PCOD9493055 Si02
#       5
#    16  16  16  16  16
#     4  10  22  41  63  85 111 145 187 235 285 338
#     4   9  19  37  60  86 118 154 189 230 284 341
#     4  12  25  38  56  85 119 153 188 230 284 341
#     4  11  23  39  60  85 114 151 194 238 283 331
#     4   9  19  38  63  87 112 147 191 236 282 334
#
# _framework density 18.444151999999999
#
# number of rings (size 3 to 8) (size 9 to 14) (size 15 to 20)
#    0.000    1.800    0.000    5.400    0.000   10.000 
#    0.000    2.000    0.000    0.000    0.000    0.000 
#    0.000    0.000    0.000    0.000    0.000    0.000 
#
# Total GULP energy -223605.132257 kJ/mol
# GULP energy per Si atom -5590.128306 kJ/mol
# Density = 1.840217 g / cm^3
# Si number density = 18.444152 Si / 1000 Ang^3
#
#
#
# Elastic Constant Matrix: (Units=GPa)
#
#
# Indices 1 2 3 4 5 6 
#
# 1 163.2675 105.5695 104.0575 0.0000 0.0000 0.0000
# 2 105.5695 116.3679 89.6062 0.0000 0.0000 0.0000
# 3 104.0575 89.6062 95.9319 0.0000 0.0000 0.0000
# 4 0.0000 0.0000 0.0000 162.2953 0.0000 0.0000
# 5 0.0000 0.0000 0.0000 0.0000 28.5999 0.0000
# 6 0.0000 0.0000 0.0000 0.0000 0.000063042.2897
#
#
#
# Elastic Compliance Matrix: (Units=1/GPa)
#
#
# Indices 1 2 3 4 5 6 
#
# 1 0.020725 -0.005312 -0.017519 0.000000 0.000000 0.000000
# 2 -0.005312 0.031970 -0.024100 0.000000 0.000000 0.000000
# 3 -0.017519 -0.024100 0.051938 0.000000 0.000000 0.000000
# 4 0.000000 0.000000 0.000000 0.006162 0.000000 0.000000
# 5 0.000000 0.000000 0.000000 0.000000 0.034965 0.000000
# 6 0.000000 0.000000 0.000000 0.000000 0.000000 0.000016
#
#
# Mechanical properties :
#
#
# Convention : Reuss Voigt Hill
#
# Bulk Modulus (GPa) = 92.84110 108.22595 100.53353
# Shear Modulus (GPa) = 20.55673 12651.72592 6336.14132
#
# Velocity S-wave (km/s) = 3.34209 82.91182 58.67512
# Velocity P-wave (km/s) = 8.08322 96.04494 68.15413
#
# Compressibility (1/GPa) = 0.01077109
#
# Stress axis : x y z
#
# Youngs Moduli (GPa) = 48.25007 31.27903 19.25369
#
# Poissons Ratio (x) = 0.16615 0.33731
# Poissons Ratio (y) = 0.25630 0.46402
# Poissons Ratio (z) = 0.84530 0.75383
#
# Static dielectric constant tensor:
#      x y z
#    x 1.607850 0.000000 0.000000 
#    y 0.000000 1.612210 0.000000 
#    z 0.000000 0.000000 1.610550 
# 
# From -- ./inp_files/9635.got.cif
#   From: 2010.05.17/outbox.cif.g08.bks.cpg/sg65_5_cif.got.tgz:9635.got - 2010.06.03 17:01:31.
