data_PCOD9493801
_publ_section_title
;
Structure prediction by ZEFSAII (Michael W. Deem and Ramdas Pophale) SiO2 
 PCOD9493801
Probable space group: C M M M
;
_chemical_formula_sum "Si O2"
_cell_formula_units_Z 58
_cell_length_a 8.524835
_cell_length_b 23.157835
_cell_length_c 15.862282
_cell_angle_alpha 90.000000
_cell_angle_beta 90.000000
_cell_angle_gamma 90.000000
_cell_volume 3131.479721
_symmetry_space_group_name_H-M "C M M M"
_symmetry_group_IT_number 65
_symmetry_cell_setting 'orthorhombic'
loop_
_space_group_symop_operation_xyz
x,y,z
-x,-y,z
x,-y,-z
-x,y,-z
-x,-y,-z
x,y,-z
-x,y,z
x,-y,z
1/2+x,1/2+y,z
1/2-x,1/2-y,z
1/2+x,1/2-y,-z
1/2-x,1/2+y,-z
1/2-x,1/2-y,-z
1/2+x,1/2+y,-z
1/2-x,1/2+y,z
1/2+x,1/2-y,z
loop_
_atom_site_type_symbol
_atom_site_label
_atom_site_fract_x
_atom_site_fract_y
_atom_site_fract_z
Si Si1 0.500000 0.000000 0.500000
Si Si2 0.689075 0.815715 0.666610
Si Si3 0.812826 0.314318 0.000000
Si Si4 0.811775 0.877224 0.834372
Si Si5 0.309055 0.500000 0.901413
Si Si6 0.675164 0.121222 0.500000
O O1 0.635917 0.052678 0.500000
O O2 0.500000 0.814836 0.669920
O O3 0.750000 0.750000 0.661588
O O4 0.747045 0.847143 0.751108
O O5 0.746072 0.853455 0.585944
O O6 0.750000 0.250000 0.000000
O O7 0.746864 0.344314 0.916859
O O8 0.000000 0.316088 0.000000
O O9 0.760038 0.943160 0.850778
O O10 0.000000 0.875727 0.831485
O O11 0.500000 0.500000 0.904981
O O12 0.256480 0.500000 0.000000
O O13 0.500000 0.148370 0.500000
#
# Coordination Sequence:
#
# PCOD9493801 Si02
#       6
#     2  16   8  16   8   8
#     4   8  16  40  64  96 126 158 212 250 322 360
#     4  11  22  39  60  92 124 163 208 255 310 370
#     4  12  24  39  58  83 115 158 204 256 311 370
#     4  11  22  39  61  87 120 162 203 255 310 371
#     4   9  18  37  62  84 114 157 205 247 306 374
#     4   8  19  37  63  87 124 162 198 251 310 361
#
# _framework density 18.521595000000001
#
# number of rings (size 3 to 8) (size 9 to 14) (size 15 to 20)
#    0.414    1.241    1.379    4.138    0.000    1.103 
#    0.000    4.828    0.000    0.000    0.000    6.759 
#    0.000    0.000    0.000    0.000    0.000    0.000 
#
# Total GULP energy -161467.307793 kJ/mol
# GULP energy per Si atom -5567.838200 kJ/mol
# Density = 1.847944 g / cm^3
# Si number density = 18.521595 Si / 1000 Ang^3
#
#
#
# Elastic Constant Matrix: (Units=GPa)
#
#
# Indices 1 2 3 4 5 6 
#
# 1 64.3613 41.2965 39.0680 0.0000 0.0000 0.0000
# 2 41.2965 219.2560 116.2189 0.0000 0.0000 0.0000
# 3 39.0680 116.2189 194.9916 0.0000 0.0000 0.0000
# 4 0.0000 0.0000 0.0000 27.1679 0.0000 0.0000
# 5 0.0000 0.0000 0.0000 0.0000 444.7040 0.0000
# 6 0.0000 0.0000 0.0000 0.0000 0.0000 6.0183
#
#
#
# Elastic Compliance Matrix: (Units=1/GPa)
#
#
# Indices 1 2 3 4 5 6 
#
# 1 0.018392 -0.002209 -0.002369 0.000000 0.000000 0.000000
# 2 -0.002209 0.006932 -0.003689 0.000000 0.000000 0.000000
# 3 -0.002369 -0.003689 0.007802 0.000000 0.000000 0.000000
# 4 0.000000 0.000000 0.000000 0.036808 0.000000 0.000000
# 5 0.000000 0.000000 0.000000 0.000000 0.002249 0.000000
# 6 0.000000 0.000000 0.000000 0.000000 0.000000 0.166160
#
#
# Mechanical properties :
#
#
# Convention : Reuss Voigt Hill
#
# Bulk Modulus (GPa) = 60.26512 96.86396 78.56454
# Shear Modulus (GPa) = 19.20064 114.37975 66.79020
#
# Velocity S-wave (km/s) = 3.22322 7.86695 6.01157
# Velocity P-wave (km/s) = 6.81620 11.61593 9.52340
#
# Compressibility (1/GPa) = 0.01659335
#
# Stress axis : x y z
#
# Youngs Moduli (GPa) = 54.37090 144.24900 128.17333
#
# Poissons Ratio (x) = 0.31859 0.30359
# Poissons Ratio (y) = 0.12009 0.47288
# Poissons Ratio (z) = 0.12878 0.53219
#
# Static dielectric constant tensor:
#      x y z
#    x 1.637980 0.000000 0.000000 
#    y 0.000000 1.650640 0.000000 
#    z 0.000000 0.000000 1.646330 
# 
# From -- ./inp_files/35917.got.cif
#   From: 2010.05.17/outbox.cif.g08.bks.cpg/sg65_18_cif.got.tgz:35917.got - 2010.06.03 17:01:31.
