data_PCOD9493021
_publ_section_title
;
Structure prediction by ZEFSAII (Michael W. Deem and Ramdas Pophale) SiO2 
 PCOD9493021
Probable space group: C M M M
;
_chemical_formula_sum "Si O2"
_cell_formula_units_Z 88
_cell_length_a 24.529039
_cell_length_b 15.249653
_cell_length_c 10.886805
_cell_angle_alpha 90.000000
_cell_angle_beta 90.000000
_cell_angle_gamma 90.000000
_cell_volume 4072.311019
_symmetry_space_group_name_H-M "C M M M"
_symmetry_group_IT_number 65
_symmetry_cell_setting 'orthorhombic'
loop_
_space_group_symop_operation_xyz
x,y,z
-x,-y,z
x,-y,-z
-x,y,-z
-x,-y,-z
x,y,-z
-x,y,z
x,-y,z
1/2+x,1/2+y,z
1/2-x,1/2-y,z
1/2+x,1/2-y,-z
1/2-x,1/2+y,-z
1/2-x,1/2-y,-z
1/2+x,1/2+y,-z
1/2-x,1/2+y,z
1/2+x,1/2-y,z
loop_
_atom_site_type_symbol
_atom_site_label
_atom_site_fract_x
_atom_site_fract_y
_atom_site_fract_z
Si Si1 0.673463 0.595830 0.230738
Si Si2 0.938815 0.137451 0.643345
Si Si3 0.217558 0.602320 0.361008
Si Si4 0.437809 0.180136 0.766572
Si Si5 0.934090 0.500000 0.637125
Si Si6 0.673398 0.784812 0.867693
O O1 0.682530 0.500000 0.172777
O O2 0.611868 0.600717 0.281015
O O3 0.717014 0.603204 0.341523
O O4 0.684131 0.681532 0.149546
O O5 0.932834 0.117102 0.500000
O O6 0.936893 0.242509 0.665536
O O7 0.000000 0.109504 0.682506
O O8 0.203687 0.630845 0.500000
O O9 0.200629 0.500000 0.345489
O O10 0.194979 0.663101 0.251594
O O11 0.500000 0.173733 0.812539
O O12 0.391943 0.204551 0.863192
O O13 0.420662 0.088430 0.707241
O O14 0.911842 0.500000 0.500000
O O15 0.000000 0.500000 0.628800
O O16 0.694023 0.816170 0.000000
#
# Coordination Sequence:
#
# PCOD9493021 Si02
#       6
#    16  16  16  16   8  16
#     4  10  22  40  62  88 121 161 207 256 306 364
#     4   9  17  31  54  86 124 162 199 245 303 363
#     4  10  23  43  66  93 125 163 204 249 307 373
#     4   9  19  35  54  81 119 162 204 249 302 364
#     4   9  16  28  51  83 117 155 201 249 296 355
#     4  11  25  42  63  92 124 161 208 260 310 364
#
# _framework density 21.609352999999999
#
# number of rings (size 3 to 8) (size 9 to 14) (size 15 to 20)
#    0.000    2.273    0.000    1.636    1.273   11.273 
#    0.000    2.727    0.000    1.636    0.000    5.091 
#    0.000    0.000    0.000    0.000    0.000    0.000 
#
# Total GULP energy -245620.362195 kJ/mol
# GULP energy per Si atom -5582.280959 kJ/mol
# Density = 2.156017 g / cm^3
# Si number density = 21.609353 Si / 1000 Ang^3
#
#
#
# Elastic Constant Matrix: (Units=GPa)
#
#
# Indices 1 2 3 4 5 6 
#
# 1 108.1365 17.3236 35.0769 0.0000 0.0000 0.0000
# 2 17.3236 137.1017 53.9480 0.0000 0.0000 0.0000
# 3 35.0769 53.9480 128.8835 0.0000 0.0000 0.0000
# 4 0.0000 0.0000 0.0000 0.5241 0.0000 0.0000
# 5 0.0000 0.0000 0.0000 0.0000 7.4739 0.0000
# 6 0.0000 0.0000 0.0000 0.0000 0.0000 31.8336
#
#
#
# Elastic Compliance Matrix: (Units=1/GPa)
#
#
# Indices 1 2 3 4 5 6 
#
# 1 0.010149 -0.000234 -0.002664 0.000000 0.000000 0.000000
# 2 -0.000234 0.008737 -0.003594 0.000000 0.000000 0.000000
# 3 -0.002664 -0.003594 0.009988 0.000000 0.000000 0.000000
# 4 0.000000 0.000000 0.000000 1.907911 0.000000 0.000000
# 5 0.000000 0.000000 0.000000 0.000000 0.133799 0.000000
# 6 0.000000 0.000000 0.000000 0.000000 0.000000 0.031413
#
#
# Mechanical properties :
#
#
# Convention : Reuss Voigt Hill
#
# Bulk Modulus (GPa) = 62.92814 65.20208 64.06511
# Shear Modulus (GPa) = 2.35818 25.81787 14.08803
#
# Velocity S-wave (km/s) = 1.04578 3.46027 2.55608
# Velocity P-wave (km/s) = 5.53554 6.79730 6.19861
#
# Compressibility (1/GPa) = 0.01589114
#
# Stress axis : x y z
#
# Youngs Moduli (GPa) = 98.52910 114.44944 100.11751
#
# Poissons Ratio (x) = 0.02679 0.26674
# Poissons Ratio (y) = 0.02306 0.35978
# Poissons Ratio (z) = 0.26251 0.41129
#
# Static dielectric constant tensor:
#      x y z
#    x 1.837330 0.000000 0.000000 
#    y 0.000000 1.787400 0.000000 
#    z 0.000000 0.000000 1.736730 
# 
# From -- ./inp_files/30547.got.cif
#   From: 2010.05.17/outbox.cif.g08.bks.cpg/sg65_16_cif.got.tgz:30547.got - 2010.06.03 17:01:31.
