data_PCOD9493580
_publ_section_title
;
Structure prediction by ZEFSAII (Michael W. Deem and Ramdas Pophale) SiO2 
 PCOD9493580
Probable space group: C M M M
;
_chemical_formula_sum "Si O2"
_cell_formula_units_Z 104
_cell_length_a 8.977164
_cell_length_b 31.081705
_cell_length_c 23.883244
_cell_angle_alpha 90.000000
_cell_angle_beta 90.000000
_cell_angle_gamma 90.000000
_cell_volume 6664.035608
_symmetry_space_group_name_H-M "C M M M"
_symmetry_group_IT_number 65
_symmetry_cell_setting 'orthorhombic'
loop_
_space_group_symop_operation_xyz
x,y,z
-x,-y,z
x,-y,-z
-x,y,-z
-x,-y,-z
x,y,-z
-x,y,z
x,-y,z
1/2+x,1/2+y,z
1/2-x,1/2-y,z
1/2+x,1/2-y,-z
1/2-x,1/2+y,-z
1/2-x,1/2-y,-z
1/2+x,1/2+y,-z
1/2-x,1/2+y,z
1/2+x,1/2-y,z
loop_
_atom_site_type_symbol
_atom_site_label
_atom_site_fract_x
_atom_site_fract_y
_atom_site_fract_z
Si Si1 0.177912 0.706070 0.816669
Si Si2 0.820220 0.326983 0.061564
Si Si3 0.320173 0.111973 0.220276
Si Si4 0.825879 0.052094 0.561307
Si Si5 0.331514 0.000000 0.933485
Si Si6 0.178918 0.549947 0.677421
Si Si7 0.677501 0.587151 0.896454
O O1 0.250000 0.750000 0.796190
O O2 0.226202 0.697646 0.881639
O O3 0.213080 0.663164 0.780919
O O4 0.000000 0.710701 0.817070
O O5 0.749137 0.374070 0.068025
O O6 0.000000 0.330755 0.063862
O O7 0.780550 0.308923 0.000000
O O8 0.500000 0.107954 0.211852
O O9 0.278689 0.083635 0.274168
O O10 0.234112 0.094070 0.166708
O O11 0.770591 0.067040 0.500000
O O12 0.739686 0.064728 0.617140
O O13 0.000000 0.063672 0.565984
O O14 0.818358 0.000000 0.560283
O O15 0.242974 0.957886 0.915903
O O16 0.500000 0.000000 0.909647
O O17 0.342903 0.000000 0.000000
O O18 0.228250 0.500000 0.688128
O O19 0.000000 0.549031 0.675315
O O20 0.500000 0.588539 0.900263
#
# Coordination Sequence:
#
# PCOD9493580 Si02
#       7
#    16  16  16  16   8  16  16
#     4   9  18  32  49  68  90 116 148 186 229 280
#     4   9  18  34  52  67  87 116 144 172 221 289
#     4   9  19  35  50  66  92 125 155 186 229 281
#     4   8  14  25  40  60  91 130 162 187 222 263
#     4  11  23  37  51  63  81 117 156 185 224 279
#     4   9  17  28  45  69  92 121 161 197 223 255
#     4  11  22  33  47  69  91 112 145 192 234 267
#
# _framework density 15.606158000000001
#
# number of rings (size 3 to 8) (size 9 to 14) (size 15 to 20)
#    0.000    2.692    0.000    3.462    1.077    6.462 
#    0.000    1.538    0.000    0.000    0.000    0.000 
#    0.000    0.615    0.000    1.385    0.000    2.462 
#
# Total GULP energy -289645.367514 kJ/mol
# GULP energy per Si atom -5570.103221 kJ/mol
# Density = 1.557064 g / cm^3
# Si number density = 15.606158 Si / 1000 Ang^3
#
#
#
# Elastic Constant Matrix: (Units=GPa)
#
#
# Indices 1 2 3 4 5 6 
#
# 1 12.9254 18.8809 20.7564 0.0000 0.0000 0.0000
# 2 18.8809 88.0789 38.8038 0.0000 0.0000 0.0000
# 3 20.7564 38.8038 102.2458 0.0000 0.0000 0.0000
# 4 0.0000 0.0000 0.0000 6.5474 0.0000 0.0000
# 5 0.0000 0.0000 0.0000 0.0000 72.8640 0.0000
# 6 0.0000 0.0000 0.0000 0.0000 0.0000 24.6894
#
#
#
# Elastic Compliance Matrix: (Units=1/GPa)
#
#
# Indices 1 2 3 4 5 6 
#
# 1 0.141621 -0.021245 -0.020687 0.000000 0.000000 0.000000
# 2 -0.021245 0.016820 -0.002071 0.000000 0.000000 0.000000
# 3 -0.020687 -0.002071 0.014766 0.000000 0.000000 0.000000
# 4 0.000000 0.000000 0.000000 0.152732 0.000000 0.000000
# 5 0.000000 0.000000 0.000000 0.000000 0.013724 0.000000
# 6 0.000000 0.000000 0.000000 0.000000 0.000000 0.040503
#
#
# Mechanical properties :
#
#
# Convention : Reuss Voigt Hill
#
# Bulk Modulus (GPa) = 11.73679 40.01468 25.87574
# Shear Modulus (GPa) = 10.06903 29.14075 19.60489
#
# Velocity S-wave (km/s) = 2.54283 4.32587 3.54818
# Velocity P-wave (km/s) = 4.01973 7.11666 5.77949
#
# Compressibility (1/GPa) = 0.08520219
#
# Stress axis : x y z
#
# Youngs Moduli (GPa) = 7.06108 59.45397 67.72420
#
# Poissons Ratio (x) = 1.26307 1.40102
# Poissons Ratio (y) = 0.15001 0.14023
# Poissons Ratio (z) = 0.14607 0.12311
#
# Static dielectric constant tensor:
#      x y z
#    x 1.520540 0.000000 0.000000 
#    y 0.000000 1.445010 0.000000 
#    z 0.000000 0.000000 1.532840 
# 
# From -- ./inp_files/68494.got.cif
#   From: 2010.05.17/outbox.cif.g08.bks.cpg/sg65_35_cif.got.tgz:68494.got - 2010.06.03 17:01:31.
