data_PCOD9493003
_publ_section_title
;
Structure prediction by ZEFSAII (Michael W. Deem and Ramdas Pophale) SiO2 
 PCOD9493003
Probable space group: C M M M
;
_chemical_formula_sum "Si O2"
_cell_formula_units_Z 80
_cell_length_a 13.764055
_cell_length_b 11.560752
_cell_length_c 22.798293
_cell_angle_alpha 90.000000
_cell_angle_beta 90.000000
_cell_angle_gamma 90.000000
_cell_volume 3627.728819
_symmetry_space_group_name_H-M "C M M M"
_symmetry_group_IT_number 65
_symmetry_cell_setting 'orthorhombic'
loop_
_space_group_symop_operation_xyz
x,y,z
-x,-y,z
x,-y,-z
-x,y,-z
-x,-y,-z
x,y,-z
-x,y,z
x,-y,z
1/2+x,1/2+y,z
1/2-x,1/2-y,z
1/2+x,1/2-y,-z
1/2-x,1/2+y,-z
1/2-x,1/2-y,-z
1/2+x,1/2+y,-z
1/2-x,1/2+y,z
1/2+x,1/2-y,z
loop_
_atom_site_type_symbol
_atom_site_label
_atom_site_fract_x
_atom_site_fract_y
_atom_site_fract_z
Si Si1 0.804246 0.127045 0.259705
Si Si2 0.383768 0.628430 0.871935
Si Si3 0.382308 0.129078 0.067719
Si Si4 0.820194 0.372135 0.433493
Si Si5 0.606988 0.339821 0.380946
O O1 0.750000 0.250000 0.267092
O O2 0.850715 0.130677 0.195509
O O3 0.879075 0.125811 0.313811
O O4 0.751783 0.000000 0.263943
O O5 0.500000 0.629410 0.874490
O O6 0.354835 0.500000 0.896534
O O7 0.353057 0.750559 0.901282
O O8 0.500000 0.130123 0.067575
O O9 0.356185 0.000000 0.092221
O O10 0.349765 0.132818 0.000000
O O11 0.831674 0.328051 0.500000
O O12 0.857665 0.500000 0.432503
O O13 0.705520 0.375679 0.415768
O O14 0.879851 0.296791 0.388216
O O15 0.500000 0.373389 0.402693
#
# Coordination Sequence:
#
# PCOD9493003 Si02
#       5
#    16  16  16  16  16
#     4  11  23  39  59  82 114 152 193 243 298 355
#     4   9  18  32  51  79 111 143 184 234 289 348
#     4   8  14  26  46  74 109 147 185 229 283 342
#     4  10  22  40  60  87 125 162 198 245 299 357
#     4  11  22  37  61  88 116 155 203 248 297 357
#
# _framework density 22.052365000000002
#
# number of rings (size 3 to 8) (size 9 to 14) (size 15 to 20)
#    0.000    2.200    2.000    3.000    0.000    5.600 
#    0.000    4.000    0.000    4.200    0.000    0.000 
#    0.000    0.000    0.000    0.000    0.000    0.000 
#
# Total GULP energy -222674.797695 kJ/mol
# GULP energy per Si atom -5566.869942 kJ/mol
# Density = 2.200217 g / cm^3
# Si number density = 22.052365 Si / 1000 Ang^3
#
#
#
# Elastic Constant Matrix: (Units=GPa)
#
#
# Indices 1 2 3 4 5 6 
#
# 1 101.7945 26.9850 7.7595 0.0000 0.0000 0.0000
# 2 26.9850 238.3250 62.1537 0.0000 0.0000 0.0000
# 3 7.7595 62.1537 82.1577 0.0000 0.0000 0.0000
# 4 0.0000 0.0000 0.0000 150.3278 0.0000 0.0000
# 5 0.0000 0.0000 0.0000 0.0000 14.8031 0.0000
# 6 0.0000 0.0000 0.0000 0.0000 0.0000 -25.3085
#
#
#
# Elastic Compliance Matrix: (Units=1/GPa)
#
#
# Indices 1 2 3 4 5 6 
#
# 1 0.010129 -0.001118 -0.000111 0.000000 0.000000 0.000000
# 2 -0.001118 0.005351 -0.003942 0.000000 0.000000 0.000000
# 3 -0.000111 -0.003942 0.015165 0.000000 0.000000 0.000000
# 4 0.000000 0.000000 0.000000 0.006652 0.000000 0.000000
# 5 0.000000 0.000000 0.000000 0.000000 0.067553 0.000000
# 6 0.000000 0.000000 0.000000 0.000000 0.000000 -0.039512
#
#
# Mechanical properties :
#
#
# Convention : Reuss Voigt Hill
#
# Bulk Modulus (GPa) = 49.25719 68.45263 58.85491
# Shear Modulus (GPa) = 60.64566 49.65642 55.15104
#
# Velocity S-wave (km/s) = 5.24981 4.75041 5.00634
# Velocity P-wave (km/s) = 7.68975 7.82284 7.75658
#
# Compressibility (1/GPa) = 0.02030161
#
# Stress axis : x y z
#
# Youngs Moduli (GPa) = 98.73114 186.89312 65.94311
#
# Poissons Ratio (x) = 0.20893 0.00731
# Poissons Ratio (y) = 0.11037 0.25997
# Poissons Ratio (z) = 0.01095 0.73678
#
# Static dielectric constant tensor:
#      x y z
#    x 1.810180 0.000000 0.000000 
#    y 0.000000 1.942130 0.000000 
#    z 0.000000 0.000000 1.771880 
# 
# From -- ./inp_files/69699.got.cif
#   From: 2010.05.17/outbox.cif.g08.bks.cpg/sg65_35_cif.got.tgz:69699.got - 2010.06.03 17:01:31.
