data_PCOD9493269
_publ_section_title
;
Structure prediction by ZEFSAII (Michael W. Deem and Ramdas Pophale) SiO2 
 PCOD9493269
Probable space group: C M M M
;
_chemical_formula_sum "Si O2"
_cell_formula_units_Z 82
_cell_length_a 21.919659
_cell_length_b 23.537646
_cell_length_c 10.235697
_cell_angle_alpha 90.000000
_cell_angle_beta 90.000000
_cell_angle_gamma 90.000000
_cell_volume 5280.976584
_symmetry_space_group_name_H-M "C M M M"
_symmetry_group_IT_number 65
_symmetry_cell_setting 'orthorhombic'
loop_
_space_group_symop_operation_xyz
x,y,z
-x,-y,z
x,-y,-z
-x,y,-z
-x,-y,-z
x,y,-z
-x,y,z
x,-y,z
1/2+x,1/2+y,z
1/2-x,1/2-y,z
1/2+x,1/2-y,-z
1/2-x,1/2+y,-z
1/2-x,1/2-y,-z
1/2+x,1/2+y,-z
1/2-x,1/2+y,z
1/2+x,1/2-y,z
loop_
_atom_site_type_symbol
_atom_site_label
_atom_site_fract_x
_atom_site_fract_y
_atom_site_fract_z
Si Si1 0.427647 0.100536 0.000000
Si Si2 0.604761 0.902130 0.500000
Si Si3 0.755688 0.332454 0.844390
Si Si4 0.428797 0.236929 0.000000
Si Si5 0.927408 0.730542 0.500000
Si Si6 0.148327 0.763169 0.244980
Si Si7 0.163146 0.566492 0.226603
Si Si8 0.500000 0.000000 0.500000
O O1 0.393593 0.076498 0.127365
O O2 0.500000 0.088484 0.000000
O O3 0.418405 0.168647 0.000000
O O4 0.578846 0.838128 0.500000
O O5 0.643789 0.911760 0.630864
O O6 0.552827 0.950018 0.500000
O O7 0.807214 0.290526 0.784974
O O8 0.693660 0.316652 0.769097
O O9 0.781290 0.395393 0.825108
O O10 0.748963 0.320529 0.000000
O O11 0.398519 0.263273 0.873539
O O12 0.500000 0.245866 0.000000
O O13 0.890308 0.754044 0.624751
O O14 0.000000 0.744317 0.500000
O O15 0.176926 0.500000 0.230147
#
# Coordination Sequence:
#
# PCOD9493269 Si02
#       8
#     8   8  16   8   8  16  16   2
#     4  11  23  33  49  73 105 140 188 233 269 301
#     4  12  24  37  51  72 107 152 197 221 266 302
#     4  11  20  36  58  78 106 138 187 230 278 332
#     4  11  18  33  53  75 103 142 181 222 268 326
#     4  12  24  36  53  83 114 139 183 238 272 316
#     4  11  20  35  55  77 104 141 180 221 285 328
#     4  12  23  37  52  76 105 144 189 231 265 312
#     4  12  24  40  52  66 108 176 192 230 244 312
#
# _framework density 15.527430000000001
#
# number of rings (size 3 to 8) (size 9 to 14) (size 15 to 20)
#    0.000    0.585    8.293    1.463    1.366    4.683 
#    0.000    0.000    0.000    0.000    0.000    0.000 
#    0.000    4.683    0.000    0.000    0.000    0.000 
#
# Total GULP energy -228667.302006 kJ/mol
# GULP energy per Si atom -5577.251268 kJ/mol
# Density = 1.549209 g / cm^3
# Si number density = 15.527430 Si / 1000 Ang^3
#
#
#
# Elastic Constant Matrix: (Units=GPa)
#
#
# Indices 1 2 3 4 5 6 
#
# 1 100.9061 49.3764 57.8052 0.0000 0.0000 0.0000
# 2 49.3764 66.3399 30.7013 0.0000 0.0000 0.0000
# 3 57.8052 30.7013 138.4052 0.0000 0.0000 0.0000
# 4 0.0000 0.0000 0.0000 15.8939 0.0000 0.0000
# 5 0.0000 0.0000 0.0000 0.0000 35.0796 0.0000
# 6 0.0000 0.0000 0.0000 0.0000 0.0000 29.9150
#
#
#
# Elastic Compliance Matrix: (Units=1/GPa)
#
#
# Indices 1 2 3 4 5 6 
#
# 1 0.018410 -0.011305 -0.005181 0.000000 0.000000 0.000000
# 2 -0.011305 0.023740 -0.000545 0.000000 0.000000 0.000000
# 3 -0.005181 -0.000545 0.009510 0.000000 0.000000 0.000000
# 4 0.000000 0.000000 0.000000 0.062917 0.000000 0.000000
# 5 0.000000 0.000000 0.000000 0.000000 0.028507 0.000000
# 6 0.000000 0.000000 0.000000 0.000000 0.000000 0.033428
#
#
# Mechanical properties :
#
#
# Convention : Reuss Voigt Hill
#
# Bulk Modulus (GPa) = 56.82250 64.60190 60.71220
# Shear Modulus (GPa) = 23.10114 27.36225 25.23170
#
# Velocity S-wave (km/s) = 3.86134 4.20240 4.03547
# Velocity P-wave (km/s) = 7.52026 8.07726 7.80373
#
# Compressibility (1/GPa) = 0.01759866
#
# Stress axis : x y z
#
# Youngs Moduli (GPa) = 54.31781 42.12314 105.15251
#
# Poissons Ratio (x) = 0.47619 0.54484
# Poissons Ratio (y) = 0.61405 0.05727
# Poissons Ratio (z) = 0.28144 0.02294
#
# Static dielectric constant tensor:
#      x y z
#    x 1.507700 0.000000 0.000000 
#    y 0.000000 1.514470 0.000000 
#    z 0.000000 0.000000 1.422470 
# 
# From -- ./inp_files/11686.got.cif
#   From: 2010.05.17/outbox.cif.g08.bks.cpg/sg65_6_cif.got.tgz:11686.got - 2010.06.03 17:01:31.
