data_PCOD9493463
_publ_section_title
;
Structure prediction by ZEFSAII (Michael W. Deem and Ramdas Pophale) SiO2 
 PCOD9493463
Probable space group: C M M M
;
_chemical_formula_sum "Si O2"
_cell_formula_units_Z 104
_cell_length_a 23.537744
_cell_length_b 28.743745
_cell_length_c 8.178411
_cell_angle_alpha 90.000000
_cell_angle_beta 90.000000
_cell_angle_gamma 90.000000
_cell_volume 5533.209557
_symmetry_space_group_name_H-M "C M M M"
_symmetry_group_IT_number 65
_symmetry_cell_setting 'orthorhombic'
loop_
_space_group_symop_operation_xyz
x,y,z
-x,-y,z
x,-y,-z
-x,y,-z
-x,-y,-z
x,y,-z
-x,y,z
x,-y,z
1/2+x,1/2+y,z
1/2-x,1/2-y,z
1/2+x,1/2-y,-z
1/2-x,1/2+y,-z
1/2-x,1/2-y,-z
1/2+x,1/2+y,-z
1/2-x,1/2+y,z
1/2+x,1/2-y,z
loop_
_atom_site_type_symbol
_atom_site_label
_atom_site_fract_x
_atom_site_fract_y
_atom_site_fract_z
Si Si1 0.436656 0.734979 0.199791
Si Si2 0.736511 0.698032 0.309869
Si Si3 0.068852 0.500000 0.308150
Si Si4 0.644942 0.183110 0.808146
Si Si5 0.374847 0.355528 0.193958
Si Si6 0.932998 0.600932 0.301816
Si Si7 0.435069 0.447205 0.303482
O O1 0.500000 0.748257 0.253745
O O2 0.387950 0.770773 0.253047
O O3 0.420159 0.683195 0.253569
O O4 0.436441 0.736174 0.000000
O O5 0.722190 0.703985 0.500000
O O6 0.750000 0.750000 0.239633
O O7 0.797141 0.673708 0.286784
O O8 0.686196 0.667445 0.234194
O O9 0.084074 0.500000 0.500000
O O10 0.086775 0.450119 0.241627
O O11 0.000000 0.500000 0.302206
O O12 0.601799 0.141236 0.781809
O O13 0.657944 0.188971 0.000000
O O14 0.391618 0.406367 0.257429
O O15 0.379414 0.357848 0.000000
O O16 0.926642 0.603088 0.500000
O O17 0.000000 0.605823 0.267803
O O18 0.436832 0.448613 0.500000
O O19 0.500000 0.436678 0.246231
O O20 0.420721 0.500000 0.247143
#
# Coordination Sequence:
#
# PCOD9493463 Si02
#       7
#    16  16   8  16  16  16  16
#     4   9  18  31  48  75 111 145 173 208 263 327
#     4  11  23  39  58  78 105 142 187 230 272 326
#     4   7  12  26  49  73  99 135 173 209 252 307
#     4  11  21  34  53  76 108 144 180 222 271 324
#     4  11  21  35  58  84 113 147 188 233 278 330
#     4   9  17  31  52  78 107 139 177 219 266 320
#     4   9  19  37  60  87 121 157 190 229 282 341
#
# _framework density 18.795601999999999
#
# number of rings (size 3 to 8) (size 9 to 14) (size 15 to 20)
#    0.000    2.231    1.538    3.692    0.000    2.769 
#    0.000    1.154    1.692    5.077    0.000    0.000 
#    0.000    0.000    0.000    0.000    0.000    0.000 
#
# Total GULP energy -289913.849834 kJ/mol
# GULP energy per Si atom -5575.266343 kJ/mol
# Density = 1.875282 g / cm^3
# Si number density = 18.795602 Si / 1000 Ang^3
#
#
#
# Elastic Constant Matrix: (Units=GPa)
#
#
# Indices 1 2 3 4 5 6 
#
# 1 80.6123 40.6488 9.3613 0.0000 0.0000 0.0000
# 2 40.6488 132.9218 15.8364 0.0000 0.0000 0.0000
# 3 9.3613 15.8364 17.7135 0.0000 0.0000 0.0000
# 4 0.0000 0.0000 0.0000 21.3788 0.0000 0.0000
# 5 0.0000 0.0000 0.0000 0.0000 17.9597 0.0000
# 6 0.0000 0.0000 0.0000 0.0000 0.0000 15.9677
#
#
#
# Elastic Compliance Matrix: (Units=1/GPa)
#
#
# Indices 1 2 3 4 5 6 
#
# 1 0.014950 -0.004063 -0.004268 0.000000 0.000000 0.000000
# 2 -0.004063 0.009524 -0.006368 0.000000 0.000000 0.000000
# 3 -0.004268 -0.006368 0.064403 0.000000 0.000000 0.000000
# 4 0.000000 0.000000 0.000000 0.046775 0.000000 0.000000
# 5 0.000000 0.000000 0.000000 0.000000 0.055680 0.000000
# 6 0.000000 0.000000 0.000000 0.000000 0.000000 0.062626
#
#
# Mechanical properties :
#
#
# Convention : Reuss Voigt Hill
#
# Bulk Modulus (GPa) = 16.81270 40.32674 28.56972
# Shear Modulus (GPa) = 16.49168 22.08797 19.28982
#
# Velocity S-wave (km/s) = 2.96534 3.43179 3.20706
# Velocity P-wave (km/s) = 4.54849 6.09958 5.38023
#
# Compressibility (1/GPa) = 0.05947884
#
# Stress axis : x y z
#
# Youngs Moduli (GPa) = 66.89148 104.99269 15.52726
#
# Poissons Ratio (x) = 0.42661 0.06627
# Poissons Ratio (y) = 0.27180 0.09888
# Poissons Ratio (z) = 0.28549 0.66858
#
# Static dielectric constant tensor:
#      x y z
#    x 1.643060 0.000000 0.000000 
#    y 0.000000 1.684780 0.000000 
#    z 0.000000 0.000000 1.670400 
# 
# From -- ./inp_files/14727.got.cif
#   From: 2010.05.17/outbox.cif.g08.bks.cpg/sg65_8_cif.got.tgz:14727.got - 2010.06.03 17:01:31.
