data_PCOD9493067
_publ_section_title
;
Structure prediction by ZEFSAII (Michael W. Deem and Ramdas Pophale) SiO2 
 PCOD9493067
Probable space group: C M M M
;
_chemical_formula_sum "Si O2"
_cell_formula_units_Z 112
_cell_length_a 14.370657
_cell_length_b 23.379039
_cell_length_c 17.422869
_cell_angle_alpha 90.000000
_cell_angle_beta 90.000000
_cell_angle_gamma 90.000000
_cell_volume 5853.598765
_symmetry_space_group_name_H-M "C M M M"
_symmetry_group_IT_number 65
_symmetry_cell_setting 'orthorhombic'
loop_
_space_group_symop_operation_xyz
x,y,z
-x,-y,z
x,-y,-z
-x,y,-z
-x,-y,-z
x,y,-z
-x,y,z
x,-y,z
1/2+x,1/2+y,z
1/2-x,1/2-y,z
1/2+x,1/2-y,-z
1/2-x,1/2+y,-z
1/2-x,1/2-y,-z
1/2+x,1/2+y,-z
1/2-x,1/2+y,z
1/2+x,1/2-y,z
loop_
_atom_site_type_symbol
_atom_site_label
_atom_site_fract_x
_atom_site_fract_y
_atom_site_fract_z
Si Si1 0.283550 0.936453 0.859119
Si Si2 0.899315 0.663881 0.917042
Si Si3 0.394006 0.717648 0.363895
Si Si4 0.143306 0.766807 0.188574
Si Si5 0.701760 0.162413 0.409668
Si Si6 0.110347 0.566541 0.696902
Si Si7 0.390945 0.619538 0.091609
O O1 0.324178 0.884819 0.908274
O O2 0.331879 0.929392 0.776251
O O3 0.173634 0.925765 0.864128
O O4 0.306037 0.000000 0.887089
O O5 0.896742 0.710450 0.850965
O O6 0.000000 0.635111 0.914868
O O7 0.888422 0.693223 0.000000
O O8 0.500000 0.706867 0.391761
O O9 0.396304 0.718153 0.271383
O O10 0.356883 0.780042 0.390304
O O11 0.310217 0.675269 0.388932
O O12 0.250000 0.750000 0.201431
O O13 0.131327 0.819134 0.130088
O O14 0.695197 0.151517 0.500000
O O15 0.657081 0.110947 0.361343
O O16 0.116426 0.500000 0.671545
O O17 0.000000 0.579393 0.708486
O O18 0.500000 0.608168 0.101837
O O19 0.372259 0.619502 0.000000
#
# Coordination Sequence:
#
# PCOD9493067 Si02
#       7
#    16  16  16  16  16  16  16
#     4  11  23  40  60  82 112 152 199 245 292 346
#     4  11  23  36  54  83 116 152 194 242 299 354
#     4  11  22  38  60  88 123 163 201 236 286 351
#     4  12  21  37  61  84 115 153 196 244 293 344
#     4  11  23  39  60  92 126 155 192 238 291 351
#     4  10  22  41  65  90 116 152 196 242 295 354
#     4  11  24  40  59  85 117 156 203 252 301 350
#
# _framework density 19.133528999999999
#
# number of rings (size 3 to 8) (size 9 to 14) (size 15 to 20)
#    0.000    1.000    2.857    5.571    0.000    6.286 
#    0.000    2.143    0.000    1.286    0.000    1.000 
#    0.000    0.000    0.000    0.000    0.000    0.000 
#
# Total GULP energy -312720.553078 kJ/mol
# GULP energy per Si atom -5584.295591 kJ/mol
# Density = 1.908998 g / cm^3
# Si number density = 19.133529 Si / 1000 Ang^3
#
#
#
# Elastic Constant Matrix: (Units=GPa)
#
#
# Indices 1 2 3 4 5 6 
#
# 1 148.0303 31.8645 36.4640 0.0000 0.0000 0.0000
# 2 31.8645 66.7087 27.8770 0.0000 0.0000 0.0000
# 3 36.4640 27.8770 85.4353 0.0000 0.0000 0.0000
# 4 0.0000 0.0000 0.0000 8.0177 0.0000 0.0000
# 5 0.0000 0.0000 0.0000 0.0000 74.2973 0.0000
# 6 0.0000 0.0000 0.0000 0.0000 0.0000 16.0413
#
#
#
# Elastic Compliance Matrix: (Units=1/GPa)
#
#
# Indices 1 2 3 4 5 6 
#
# 1 0.007965 -0.002760 -0.002499 0.000000 0.000000 0.000000
# 2 -0.002760 0.018314 -0.004798 0.000000 0.000000 0.000000
# 3 -0.002499 -0.004798 0.014337 0.000000 0.000000 0.000000
# 4 0.000000 0.000000 0.000000 0.124723 0.000000 0.000000
# 5 0.000000 0.000000 0.000000 0.000000 0.013459 0.000000
# 6 0.000000 0.000000 0.000000 0.000000 0.000000 0.062339
#
#
# Mechanical properties :
#
#
# Convention : Reuss Voigt Hill
#
# Bulk Modulus (GPa) = 48.77544 54.73170 51.75357
# Shear Modulus (GPa) = 18.65078 33.26919 25.95999
#
# Velocity S-wave (km/s) = 3.12552 4.17440 3.68745
# Velocity P-wave (km/s) = 6.21068 7.20426 6.72585
#
# Compressibility (1/GPa) = 0.02050212
#
# Stress axis : x y z
#
# Youngs Moduli (GPa) = 125.54765 54.60311 69.75111
#
# Poissons Ratio (x) = 0.15073 0.17430
# Poissons Ratio (y) = 0.34657 0.33464
# Poissons Ratio (z) = 0.31372 0.26196
#
# Static dielectric constant tensor:
#      x y z
#    x 1.827360 0.000000 0.000000 
#    y 0.000000 1.642730 0.000000 
#    z 0.000000 0.000000 1.659930 
# 
# From -- ./inp_files/40859.got.cif
#   From: 2010.05.17/outbox.cif.g08.bks.cpg/sg65_21_cif.got.tgz:40859.got - 2010.06.03 17:01:31.
