data_PCOD9493659
_publ_section_title
;
Structure prediction by ZEFSAII (Michael W. Deem and Ramdas Pophale) SiO2 
 PCOD9493659
Probable space group: C M M M
;
_chemical_formula_sum "Si O2"
_cell_formula_units_Z 88
_cell_length_a 20.505165
_cell_length_b 14.597562
_cell_length_c 15.392679
_cell_angle_alpha 90.000000
_cell_angle_beta 90.000000
_cell_angle_gamma 90.000000
_cell_volume 4607.420067
_symmetry_space_group_name_H-M "C M M M"
_symmetry_group_IT_number 65
_symmetry_cell_setting 'orthorhombic'
loop_
_space_group_symop_operation_xyz
x,y,z
-x,-y,z
x,-y,-z
-x,y,-z
-x,-y,-z
x,y,-z
-x,y,z
x,-y,z
1/2+x,1/2+y,z
1/2-x,1/2-y,z
1/2+x,1/2-y,-z
1/2-x,1/2+y,-z
1/2-x,1/2-y,-z
1/2+x,1/2+y,-z
1/2-x,1/2+y,z
1/2+x,1/2-y,z
loop_
_atom_site_type_symbol
_atom_site_label
_atom_site_fract_x
_atom_site_fract_y
_atom_site_fract_z
Si Si1 0.131474 0.702894 0.099112
Si Si2 0.714502 0.611940 0.596176
Si Si3 0.229274 0.605142 0.225645
Si Si4 0.000000 0.396773 0.105443
Si Si5 0.121607 0.100451 0.159536
Si Si6 0.071187 0.891495 0.648325
O O1 0.187541 0.671398 0.164968
O O2 0.065795 0.653772 0.130208
O O3 0.116801 0.810648 0.101044
O O4 0.147633 0.674779 0.000000
O O5 0.736973 0.636859 0.500000
O O6 0.711896 0.500000 0.601915
O O7 0.761458 0.638737 0.675387
O O8 0.639558 0.644495 0.610059
O O9 0.203080 0.500000 0.223478
O O10 0.303008 0.599196 0.190114
O O11 0.000000 0.500000 0.137591
O O12 0.000000 0.397973 0.000000
O O13 0.080010 0.113741 0.247455
O O14 0.106055 0.000000 0.122419
O O15 0.000000 0.853321 0.622890
O O16 0.069957 0.000000 0.626220
#
# Coordination Sequence:
#
# PCOD9493659 Si02
#       6
#    16  16  16   8  16  16
#     4  11  22  35  54  77 102 137 182 227 273 324
#     4   8  14  26  46  75 108 137 172 220 267 316
#     4   9  18  33  52  76 107 142 180 220 268 321
#     4   9  20  38  55  75 102 130 171 226 271 311
#     4   9  19  33  49  73 107 140 176 221 266 318
#     4   8  14  25  43  67  98 140 180 210 252 310
#
# _framework density 19.099626000000001
#
# number of rings (size 3 to 8) (size 9 to 14) (size 15 to 20)
#    0.000    3.000    0.000    3.273    1.273    3.273 
#    0.000    3.636    0.000   10.364    0.000    0.636 
#    0.000    3.636    0.000    0.000    0.000    0.364 
#
# Total GULP energy -245185.556120 kJ/mol
# GULP energy per Si atom -5572.399003 kJ/mol
# Density = 1.905615 g / cm^3
# Si number density = 19.099626 Si / 1000 Ang^3
#
#
#
# Elastic Constant Matrix: (Units=GPa)
#
#
# Indices 1 2 3 4 5 6 
#
# 1 68.7894 24.7581 41.2090 0.0000 0.0000 0.0000
# 2 24.7581 85.2817 29.1151 0.0000 0.0000 0.0000
# 3 41.2090 29.1151 89.7142 0.0000 0.0000 0.0000
# 4 0.0000 0.0000 0.0000 8.0737 0.0000 0.0000
# 5 0.0000 0.0000 0.0000 0.0000 16.7788 0.0000
# 6 0.0000 0.0000 0.0000 0.0000 0.0000 12.0777
#
#
#
# Elastic Compliance Matrix: (Units=1/GPa)
#
#
# Indices 1 2 3 4 5 6 
#
# 1 0.020768 -0.003118 -0.008528 0.000000 0.000000 0.000000
# 2 -0.003118 0.013655 -0.002999 0.000000 0.000000 0.000000
# 3 -0.008528 -0.002999 0.016037 0.000000 0.000000 0.000000
# 4 0.000000 0.000000 0.000000 0.123859 0.000000 0.000000
# 5 0.000000 0.000000 0.000000 0.000000 0.059599 0.000000
# 6 0.000000 0.000000 0.000000 0.000000 0.000000 0.082797
#
#
# Mechanical properties :
#
#
# Convention : Reuss Voigt Hill
#
# Bulk Modulus (GPa) = 47.23615 48.21663 47.72639
# Shear Modulus (GPa) = 14.16184 17.29957 15.73071
#
# Velocity S-wave (km/s) = 2.72595 3.01284 2.87298
# Velocity P-wave (km/s) = 5.89007 6.11576 6.00398
#
# Compressibility (1/GPa) = 0.02117023
#
# Stress axis : x y z
#
# Youngs Moduli (GPa) = 48.15153 73.23359 62.35614
#
# Poissons Ratio (x) = 0.22833 0.53175
# Poissons Ratio (y) = 0.15013 0.18703
# Poissons Ratio (z) = 0.41062 0.21965
#
# Static dielectric constant tensor:
#      x y z
#    x 1.662190 0.000000 0.000000 
#    y 0.000000 1.706810 0.000000 
#    z 0.000000 0.000000 1.681050 
# 
# From -- ./inp_files/44008.got.cif
#   From: 2010.05.17/outbox.cif.g08.bks.cpg/sg65_23_cif.got.tgz:44008.got - 2010.06.03 17:01:31.
