data_PCOD9493186
_publ_section_title
;
Structure prediction by ZEFSAII (Michael W. Deem and Ramdas Pophale) SiO2 
 PCOD9493186
Probable space group: C M M M
;
_chemical_formula_sum "Si O2"
_cell_formula_units_Z 96
_cell_length_a 29.554588
_cell_length_b 18.549397
_cell_length_c 8.726074
_cell_angle_alpha 90.000000
_cell_angle_beta 90.000000
_cell_angle_gamma 90.000000
_cell_volume 4783.806421
_symmetry_space_group_name_H-M "C M M M"
_symmetry_group_IT_number 65
_symmetry_cell_setting 'orthorhombic'
loop_
_space_group_symop_operation_xyz
x,y,z
-x,-y,z
x,-y,-z
-x,y,-z
-x,-y,-z
x,y,-z
-x,y,z
x,-y,z
1/2+x,1/2+y,z
1/2-x,1/2-y,z
1/2+x,1/2-y,-z
1/2-x,1/2+y,-z
1/2-x,1/2-y,-z
1/2+x,1/2+y,-z
1/2-x,1/2+y,z
1/2+x,1/2-y,z
loop_
_atom_site_type_symbol
_atom_site_label
_atom_site_fract_x
_atom_site_fract_y
_atom_site_fract_z
Si Si1 0.948419 0.114476 0.824489
Si Si2 0.223457 0.417712 0.185025
Si Si3 0.551065 0.211440 0.180417
Si Si4 0.647559 0.172861 0.318146
Si Si5 0.362013 0.418987 0.330326
Si Si6 0.196994 0.811063 0.822830
O O1 0.946271 0.201471 0.810292
O O2 0.915039 0.081880 0.701316
O O3 0.000000 0.092603 0.801979
O O4 0.935785 0.095537 0.000000
O O5 0.234571 0.500000 0.233347
O O6 0.174361 0.393952 0.243910
O O7 0.259007 0.355134 0.235528
O O8 0.224676 0.416422 0.000000
O O9 0.500000 0.190958 0.234974
O O10 0.595685 0.181054 0.262410
O O11 0.553760 0.193006 0.000000
O O12 0.648463 0.167828 0.500000
O O13 0.676826 0.242719 0.264967
O O14 0.351809 0.389179 0.500000
O O15 0.344693 0.500000 0.322912
O O16 0.341281 0.371226 0.197257
O O17 0.203558 0.790770 0.000000
#
# Coordination Sequence:
#
# PCOD9493186 Si02
#       6
#    16  16  16  16  16  16
#     4   9  18  33  53  75 101 141 193 243 290 342
#     4  10  23  43  65  88 116 155 202 248 294 345
#     4   9  18  35  60  88 117 152 196 245 292 341
#     4  12  24  37  60  94 127 158 192 236 297 358
#     4  11  23  35  49  75 112 151 190 238 298 355
#     4  11  22  39  62  86 113 152 204 250 285 334
#
# _framework density 20.067701
#
# number of rings (size 3 to 8) (size 9 to 14) (size 15 to 20)
#    0.000    1.667    1.667    4.500    0.000    6.667 
#    0.000    3.333    0.000    0.500    0.000    3.500 
#    0.000    0.000    0.000    0.000    0.000    0.000 
#
# Total GULP energy -267879.999242 kJ/mol
# GULP energy per Si atom -5580.833318 kJ/mol
# Density = 2.002203 g / cm^3
# Si number density = 20.067701 Si / 1000 Ang^3
#
#
#
# Elastic Constant Matrix: (Units=GPa)
#
#
# Indices 1 2 3 4 5 6 
#
# 1 128.7683 37.1968 27.9326 0.0000 0.0000 0.0000
# 2 37.1968 28.0056 10.6407 0.0000 0.0000 0.0000
# 3 27.9326 10.6407 32.1224 0.0000 0.0000 0.0000
# 4 0.0000 0.0000 0.0000 14.6694 0.0000 0.0000
# 5 0.0000 0.0000 0.0000 0.0000 -1.0276 0.0000
# 6 0.0000 0.0000 0.0000 0.0000 0.0000 85.4132
#
#
#
# Elastic Compliance Matrix: (Units=1/GPa)
#
#
# Indices 1 2 3 4 5 6 
#
# 1 0.013778 -0.015727 -0.006771 0.000000 0.000000 0.000000
# 2 -0.015727 0.058800 -0.005802 0.000000 0.000000 0.000000
# 3 -0.006771 -0.005802 0.038941 0.000000 0.000000 0.000000
# 4 0.000000 0.000000 0.000000 0.068169 0.000000 0.000000
# 5 0.000000 0.000000 0.000000 0.000000 -0.973124 0.000000
# 6 0.000000 0.000000 0.000000 0.000000 0.000000 0.011708
#
#
# Mechanical properties :
#
#
# Convention : Reuss Voigt Hill
#
# Bulk Modulus (GPa) = 18.20889 37.82627 28.01758
# Shear Modulus (GPa) = -7.07390 27.35275 10.13942
#
# Velocity S-wave (km/s) = -1.87954 3.69592 2.25024
# Velocity P-wave (km/s) = 2.09361 6.09125 4.55448
#
# Compressibility (1/GPa) = 0.05491824
#
# Stress axis : x y z
#
# Youngs Moduli (GPa) = 72.58198 17.00692 25.67999
#
# Poissons Ratio (x) = 0.26746 0.17388
# Poissons Ratio (y) = 1.14146 0.14900
# Poissons Ratio (z) = 0.49145 0.09868
#
# Static dielectric constant tensor:
#      x y z
#    x 1.763930 0.000000 0.000000 
#    y 0.000000 1.715690 0.000000 
#    z 0.000000 0.000000 1.694390 
# 
# From -- ./inp_files/16344.got.cif
#   From: 2010.05.17/outbox.cif.g08.bks.cpg/sg65_9_cif.got.tgz:16344.got - 2010.06.03 17:01:31.
