data_PCOD9493935
_publ_section_title
;
Structure prediction by ZEFSAII (Michael W. Deem and Ramdas Pophale) SiO2 
 PCOD9493935
Probable space group: C M M M
;
_chemical_formula_sum "Si O2"
_cell_formula_units_Z 72
_cell_length_a 29.512139
_cell_length_b 14.168161
_cell_length_c 8.892991
_cell_angle_alpha 90.000000
_cell_angle_beta 90.000000
_cell_angle_gamma 90.000000
_cell_volume 3718.450665
_symmetry_space_group_name_H-M "C M M M"
_symmetry_group_IT_number 65
_symmetry_cell_setting 'orthorhombic'
loop_
_space_group_symop_operation_xyz
x,y,z
-x,-y,z
x,-y,-z
-x,y,-z
-x,-y,-z
x,y,-z
-x,y,z
x,-y,z
1/2+x,1/2+y,z
1/2-x,1/2-y,z
1/2+x,1/2-y,-z
1/2-x,1/2+y,-z
1/2-x,1/2-y,-z
1/2+x,1/2+y,-z
1/2-x,1/2+y,z
1/2+x,1/2-y,z
loop_
_atom_site_type_symbol
_atom_site_label
_atom_site_fract_x
_atom_site_fract_y
_atom_site_fract_z
Si Si1 0.821229 0.389429 0.819949
Si Si2 0.500000 0.888683 0.680236
Si Si3 0.872595 0.110529 0.681739
Si Si4 0.413471 0.214648 0.180691
Si Si5 0.228345 0.885094 0.674066
O O1 0.825265 0.500000 0.777951
O O2 0.866780 0.337127 0.771502
O O3 0.773923 0.351938 0.754237
O O4 0.818501 0.384008 0.000000
O O5 0.500000 0.878916 0.500000
O O6 0.455823 0.839121 0.748877
O O7 0.500000 0.000000 0.717209
O O8 0.873583 0.120251 0.500000
O O9 0.908272 0.179284 0.758428
O O10 0.821599 0.138926 0.734512
O O11 0.879463 0.000000 0.715782
O O12 0.416439 0.212912 0.000000
O O13 0.230285 0.857349 0.500000
O O14 0.229121 0.000000 0.679291
#
# Coordination Sequence:
#
# PCOD9493935 Si02
#       5
#    16   8  16  16  16
#     4   9  18  32  50  76 112 151 188 228 278 336
#     4  11  25  45  68  91 114 143 181 226 278 337
#     4   9  19  37  58  81 114 154 194 237 282 328
#     4  11  23  38  59  86 115 148 187 233 286 342
#     4   8  15  29  50  76 108 149 193 234 276 321
#
# _framework density 19.362905000000001
#
# number of rings (size 3 to 8) (size 9 to 14) (size 15 to 20)
#    0.000    2.556    0.000    3.000    0.000    5.778 
#    0.000    9.444    0.000    3.333    0.000    0.000 
#    0.000    0.000    0.000    0.000    0.000    0.000 
#
# Total GULP energy -200985.342817 kJ/mol
# GULP energy per Si atom -5582.926189 kJ/mol
# Density = 1.931883 g / cm^3
# Si number density = 19.362905 Si / 1000 Ang^3
#
#
#
# Elastic Constant Matrix: (Units=GPa)
#
#
# Indices 1 2 3 4 5 6 
#
# 1 141.6308 89.2972 51.1371 0.0000 0.0000 0.0000
# 2 89.2972 115.7059 46.4540 0.0000 0.0000 0.0000
# 3 51.1371 46.4540 35.2172 0.0000 0.0000 0.0000
# 4 0.0000 0.0000 0.0000 18.1067 0.0000 0.0000
# 5 0.0000 0.0000 0.0000 0.0000 36.7463 0.0000
# 6 0.0000 0.0000 0.0000 0.0000 0.0000 39.7080
#
#
#
# Elastic Compliance Matrix: (Units=1/GPa)
#
#
# Indices 1 2 3 4 5 6 
#
# 1 0.017062 -0.006847 -0.015742 0.000000 0.000000 0.000000
# 2 -0.006847 0.021120 -0.017917 0.000000 0.000000 0.000000
# 3 -0.015742 -0.017917 0.074887 0.000000 0.000000 0.000000
# 4 0.000000 0.000000 0.000000 0.055228 0.000000 0.000000
# 5 0.000000 0.000000 0.000000 0.000000 0.027214 0.000000
# 6 0.000000 0.000000 0.000000 0.000000 0.000000 0.025184
#
#
# Mechanical properties :
#
#
# Convention : Reuss Voigt Hill
#
# Bulk Modulus (GPa) = 31.19477 74.03673 52.61575
# Shear Modulus (GPa) = 16.00551 25.95659 20.98105
#
# Velocity S-wave (km/s) = 2.87820 3.66530 3.29533
# Velocity P-wave (km/s) = 5.21449 7.49880 6.45844
#
# Compressibility (1/GPa) = 0.03205665
#
# Stress axis : x y z
#
# Youngs Moduli (GPa) = 58.61091 47.34802 13.35342
#
# Poissons Ratio (x) = 0.32420 0.21022
# Poissons Ratio (y) = 0.40132 0.23925
# Poissons Ratio (z) = 0.92268 0.84831
#
# Static dielectric constant tensor:
#      x y z
#    x 1.661530 0.000000 0.000000 
#    y 0.000000 1.708810 0.000000 
#    z 0.000000 0.000000 1.645550 
# 
# From -- ./inp_files/7242.got.cif
#   From: 2010.05.17/outbox.cif.g08.bks.cpg/sg65_4_cif.got.tgz:7242.got - 2010.06.03 17:01:31.
