data_PCOD9493766
_publ_section_title
;
Structure prediction by ZEFSAII (Michael W. Deem and Ramdas Pophale) SiO2 
 PCOD9493766
Probable space group: C M M M
;
_chemical_formula_sum "Si O2"
_cell_formula_units_Z 72
_cell_length_a 33.434627
_cell_length_b 14.640284
_cell_length_c 7.442432
_cell_angle_alpha 90.000000
_cell_angle_beta 90.000000
_cell_angle_gamma 90.000000
_cell_volume 3643.014160
_symmetry_space_group_name_H-M "C M M M"
_symmetry_group_IT_number 65
_symmetry_cell_setting 'orthorhombic'
loop_
_space_group_symop_operation_xyz
x,y,z
-x,-y,z
x,-y,-z
-x,y,-z
-x,-y,-z
x,y,-z
-x,y,z
x,-y,z
1/2+x,1/2+y,z
1/2-x,1/2-y,z
1/2+x,1/2-y,-z
1/2-x,1/2+y,-z
1/2-x,1/2-y,-z
1/2+x,1/2+y,-z
1/2-x,1/2+y,z
1/2+x,1/2-y,z
loop_
_atom_site_type_symbol
_atom_site_label
_atom_site_fract_x
_atom_site_fract_y
_atom_site_fract_z
Si Si1 0.546176 0.103836 0.282566
Si Si2 0.742842 0.896139 0.219173
Si Si3 0.094918 0.781925 0.794098
Si Si4 0.046814 0.890994 0.500000
Si Si5 0.814059 0.234872 0.781344
O O1 0.547343 0.107397 0.500000
O O2 0.500000 0.121501 0.229287
O O3 0.575476 0.181238 0.212639
O O4 0.556347 0.000000 0.228664
O O5 0.784071 0.846331 0.272958
O O6 0.706807 0.829524 0.275692
O O7 0.739703 0.000000 0.280774
O O8 0.742620 0.897161 0.000000
O O9 0.068215 0.846802 0.671462
O O10 0.140422 0.777188 0.724572
O O11 0.095402 0.813777 0.000000
O O12 0.000000 0.866189 0.500000
O O13 0.050466 0.000000 0.500000
O O14 0.814447 0.236093 0.000000
#
# Coordination Sequence:
#
# PCOD9493766 Si02
#       5
#    16  16  16   8  16
#     4   9  18  34  56  82 114 151 189 230 282 348
#     4   8  13  25  46  71 108 153 186 222 276 333
#     4  11  22  37  61  90 119 151 192 245 296 342
#     4  11  26  46  63  82 113 153 198 246 297 351
#     4   8  16  28  45  78 113 142 186 233 276 335
#
# _framework density 19.763855
#
# number of rings (size 3 to 8) (size 9 to 14) (size 15 to 20)
#    0.000    2.778    1.111    2.667    0.000    4.444 
#    0.000    6.667    0.000    2.667    0.000    1.556 
#    0.000    0.000    0.000    0.000    0.000    0.000 
#
# Total GULP energy -201013.163316 kJ/mol
# GULP energy per Si atom -5583.698981 kJ/mol
# Density = 1.971887 g / cm^3
# Si number density = 19.763855 Si / 1000 Ang^3
#
#
#
# Elastic Constant Matrix: (Units=GPa)
#
#
# Indices 1 2 3 4 5 6 
#
# 1 182.2085 89.7460 42.8015 0.0000 0.0000 0.0000
# 2 89.7460 130.9934 29.9848 0.0000 0.0000 0.0000
# 3 42.8015 29.9848 81.7911 0.0000 0.0000 0.0000
# 4 0.0000 0.0000 0.0000 3.5665 0.0000 0.0000
# 5 0.0000 0.0000 0.0000 0.0000 31.4241 0.0000
# 6 0.0000 0.0000 0.0000 0.0000 0.0000 -13.0221
#
#
#
# Elastic Compliance Matrix: (Units=1/GPa)
#
#
# Indices 1 2 3 4 5 6 
#
# 1 0.008764 -0.005408 -0.002603 0.000000 0.000000 0.000000
# 2 -0.005408 0.011671 -0.001448 0.000000 0.000000 0.000000
# 3 -0.002603 -0.001448 0.014120 0.000000 0.000000 0.000000
# 4 0.000000 0.000000 0.000000 0.280384 0.000000 0.000000
# 5 0.000000 0.000000 0.000000 0.000000 0.031823 0.000000
# 6 0.000000 0.000000 0.000000 0.000000 0.000000 -0.076792
#
#
# Mechanical properties :
#
#
# Convention : Reuss Voigt Hill
#
# Bulk Modulus (GPa) = 63.96292 80.00641 71.98466
# Shear Modulus (GPa) = 17.00108 19.89107 18.44607
#
# Velocity S-wave (km/s) = 2.93612 3.17588 3.05835
# Velocity P-wave (km/s) = 6.62784 7.34965 6.99806
#
# Compressibility (1/GPa) = 0.01563406
#
# Stress axis : x y z
#
# Youngs Moduli (GPa) = 114.10966 85.68444 70.82350
#
# Poissons Ratio (x) = 0.46339 0.18438
# Poissons Ratio (y) = 0.61712 0.10258
# Poissons Ratio (z) = 0.29707 0.12411
#
# Static dielectric constant tensor:
#      x y z
#    x 1.662010 0.000000 0.000000 
#    y 0.000000 1.662910 0.000000 
#    z 0.000000 0.000000 1.754080 
# 
# From -- ./inp_files/18011.got.cif
#   From: 2010.05.17/outbox.cif.g08.bks.cpg/sg65_10_cif.got.tgz:18011.got - 2010.06.03 17:01:31.
