data_PCOD9493924
_publ_section_title
;
Structure prediction by ZEFSAII (Michael W. Deem and Ramdas Pophale) SiO2 
 PCOD9493924
Probable space group: C M M M
;
_chemical_formula_sum "Si O2"
_cell_formula_units_Z 116
_cell_length_a 16.336327
_cell_length_b 17.763956
_cell_length_c 19.525270
_cell_angle_alpha 90.000000
_cell_angle_beta 90.000000
_cell_angle_gamma 90.000000
_cell_volume 5666.190282
_symmetry_space_group_name_H-M "C M M M"
_symmetry_group_IT_number 65
_symmetry_cell_setting 'orthorhombic'
loop_
_space_group_symop_operation_xyz
x,y,z
-x,-y,z
x,-y,-z
-x,y,-z
-x,-y,-z
x,y,-z
-x,y,z
x,-y,z
1/2+x,1/2+y,z
1/2-x,1/2-y,z
1/2+x,1/2-y,-z
1/2-x,1/2+y,-z
1/2-x,1/2-y,-z
1/2+x,1/2+y,-z
1/2-x,1/2+y,z
1/2+x,1/2-y,z
loop_
_atom_site_type_symbol
_atom_site_label
_atom_site_fract_x
_atom_site_fract_y
_atom_site_fract_z
Si Si1 0.824311 0.912143 0.422941
Si Si2 0.359793 0.616440 0.148317
Si Si3 0.902414 0.830859 0.704977
Si Si4 0.626970 0.911996 0.424100
Si Si5 0.829233 0.415612 0.155130
Si Si6 0.500000 0.500000 0.891506
Si Si7 0.597841 0.227833 0.919978
Si Si8 0.593886 0.159050 0.281043
O O1 0.850516 0.890015 0.500000
O O2 0.860885 0.862188 0.363029
O O3 0.725771 0.908028 0.421304
O O4 0.846878 0.000000 0.412735
O O5 0.381948 0.619128 0.228932
O O6 0.267593 0.587777 0.142137
O O7 0.427684 0.565448 0.111672
O O8 0.364728 0.701081 0.119452
O O9 0.876764 0.745184 0.721013
O O10 0.000000 0.830064 0.695582
O O11 0.601623 0.885546 0.500000
O O12 0.594611 0.867300 0.359426
O O13 0.604256 0.000000 0.418143
O O14 0.859390 0.500000 0.141206
O O15 0.871171 0.350555 0.110737
O O16 0.850160 0.393209 0.233621
O O17 0.500000 0.232318 0.911997
O O18 0.618327 0.232773 0.000000
O O19 0.500000 0.155828 0.255203
#
# Coordination Sequence:
#
# PCOD9493924 Si02
#       8
#    16  16  16  16  16   4  16  16
#     4   9  20  37  57  84 119 159 209 273 340 403
#     4  12  24  45  70 105 137 176 227 279 338 398
#     4  11  23  37  59  85 124 169 216 266 335 405
#     4   9  19  37  58  81 113 157 211 270 333 395
#     4  12  26  42  69 104 137 178 229 281 330 399
#     4  12  24  44  77 104 141 172 224 282 336 388
#     4  11  25  48  75 102 141 184 220 269 335 397
#     4  11  24  40  58  90 128 170 218 279 336 397
#
# _framework density 20.472308000000002
#
# number of rings (size 3 to 8) (size 9 to 14) (size 15 to 20)
#    0.000    1.241    3.448    2.897    0.966    7.448 
#    0.000    5.517    0.000    0.000    0.000    0.000 
#    0.000    0.000    0.000    0.000    0.000    0.000 
#
# Total GULP energy -323820.574290 kJ/mol
# GULP energy per Si atom -5583.113350 kJ/mol
# Density = 2.042571 g / cm^3
# Si number density = 20.472308 Si / 1000 Ang^3
#
#
#
# Elastic Constant Matrix: (Units=GPa)
#
#
# Indices 1 2 3 4 5 6 
#
# 1 39.9563 19.2887 16.5891 0.0000 0.0000 0.0000
# 2 19.2887 107.2640 28.3928 0.0000 0.0000 0.0000
# 3 16.5891 28.3928 87.3460 0.0000 0.0000 0.0000
# 4 0.0000 0.0000 0.0000 -26.4278 0.0000 0.0000
# 5 0.0000 0.0000 0.0000 0.0000 27.2485 0.0000
# 6 0.0000 0.0000 0.0000 0.0000 0.0000 24.7057
#
#
#
# Elastic Compliance Matrix: (Units=1/GPa)
#
#
# Indices 1 2 3 4 5 6 
#
# 1 0.028706 -0.004069 -0.004129 0.000000 0.000000 0.000000
# 2 -0.004069 0.010777 -0.002730 0.000000 0.000000 0.000000
# 3 -0.004129 -0.002730 0.013121 0.000000 0.000000 0.000000
# 4 0.000000 0.000000 0.000000 -0.037839 0.000000 0.000000
# 5 0.000000 0.000000 0.000000 0.000000 0.036699 0.000000
# 6 0.000000 0.000000 0.000000 0.000000 0.000000 0.040476
#
#
# Mechanical properties :
#
#
# Convention : Reuss Voigt Hill
#
# Bulk Modulus (GPa) = 32.52425 40.34528 36.43476
# Shear Modulus (GPa) = 40.30731 16.45832 28.38282
#
# Velocity S-wave (km/s) = 4.44201 2.83844 3.72748
# Velocity P-wave (km/s) = 6.49846 5.52199 6.03002
#
# Compressibility (1/GPa) = 0.03074629
#
# Stress axis : x y z
#
# Youngs Moduli (GPa) = 34.83588 92.78795 76.21642
#
# Poissons Ratio (x) = 0.37756 0.31472
# Poissons Ratio (y) = 0.14175 0.20811
# Poissons Ratio (z) = 0.14385 0.25335
#
# Static dielectric constant tensor:
#      x y z
#    x 1.715650 0.000000 0.000000 
#    y 0.000000 1.708790 0.000000 
#    z 0.000000 0.000000 1.726660 
# 
# From -- ./inp_files/54692.got.cif
#   From: 2010.05.17/outbox.cif.g08.bks.cpg/sg65_28_cif.got.tgz:54692.got - 2010.06.03 17:01:31.
