data_PCOD9493569
_publ_section_title
;
Structure prediction by ZEFSAII (Michael W. Deem and Ramdas Pophale) SiO2 
 PCOD9493569
Probable space group: C M M M
;
_chemical_formula_sum "Si O2"
_cell_formula_units_Z 72
_cell_length_a 25.662582
_cell_length_b 14.324266
_cell_length_c 12.993628
_cell_angle_alpha 90.000000
_cell_angle_beta 90.000000
_cell_angle_gamma 90.000000
_cell_volume 4776.427128
_symmetry_space_group_name_H-M "C M M M"
_symmetry_group_IT_number 65
_symmetry_cell_setting 'orthorhombic'
loop_
_space_group_symop_operation_xyz
x,y,z
-x,-y,z
x,-y,-z
-x,y,-z
-x,-y,-z
x,y,-z
-x,y,z
x,-y,z
1/2+x,1/2+y,z
1/2-x,1/2-y,z
1/2+x,1/2-y,-z
1/2-x,1/2+y,-z
1/2-x,1/2-y,-z
1/2+x,1/2+y,-z
1/2-x,1/2+y,z
1/2+x,1/2-y,z
loop_
_atom_site_type_symbol
_atom_site_label
_atom_site_fract_x
_atom_site_fract_y
_atom_site_fract_z
Si Si1 0.937438 0.110374 0.000000
Si Si2 0.280629 0.611470 0.880796
Si Si3 0.840909 0.392205 0.123762
Si Si4 0.381488 0.704711 0.804449
Si Si5 0.937679 0.891164 0.380089
O O1 0.913357 0.158288 0.101105
O O2 0.000000 0.118891 0.000000
O O3 0.924175 0.000000 0.000000
O O4 0.289037 0.500000 0.876771
O O5 0.220245 0.627580 0.854245
O O6 0.323288 0.662735 0.813236
O O7 0.288360 0.641365 0.000000
O O8 0.851636 0.500000 0.151051
O O9 0.876103 0.315062 0.177654
O O10 0.846705 0.383613 0.000000
O O11 0.408013 0.674384 0.698929
O O12 0.925261 0.874030 0.500000
O O13 0.000000 0.880898 0.367870
O O14 0.925259 0.000000 0.357079
#
# Coordination Sequence:
#
# PCOD9493569 Si02
#       5
#     8  16  16  16  16
#     4  11  22  30  40  69 103 119 136 184 252 299
#     4   9  16  26  43  70 101 127 154 188 228 280
#     4   9  18  31  45  67 100 134 164 191 221 269
#     4  12  18  28  50  71  94 127 158 191 232 283
#     4   9  19  35  52  70  93 122 157 195 236 287
#
# _framework density 15.074028
#
# number of rings (size 3 to 8) (size 9 to 14) (size 15 to 20)
#    0.000    2.111    2.222    5.333    0.000    3.556 
#    0.000    0.000    0.000    6.667    0.000    4.667 
#    0.000    0.000    0.000    0.000    0.000    0.000 
#
# Total GULP energy -200861.791319 kJ/mol
# GULP energy per Si atom -5579.494203 kJ/mol
# Density = 1.503972 g / cm^3
# Si number density = 15.074028 Si / 1000 Ang^3
#
#
#
# Elastic Constant Matrix: (Units=GPa)
#
#
# Indices 1 2 3 4 5 6 
#
# 1 51.7525 64.4306 44.2210 0.0000 0.0000 0.0000
# 2 64.4306 107.7414 60.2314 0.0000 0.0000 0.0000
# 3 44.2210 60.2314 71.8608 0.0000 0.0000 0.0000
# 4 0.0000 0.0000 0.0000 20.8674 0.0000 0.0000
# 5 0.0000 0.0000 0.0000 0.0000 24.9233 0.0000
# 6 0.0000 0.0000 0.0000 0.0000 0.0000 25.1928
#
#
#
# Elastic Compliance Matrix: (Units=1/GPa)
#
#
# Indices 1 2 3 4 5 6 
#
# 1 0.087255 -0.041703 -0.018740 0.000000 0.000000 0.000000
# 2 -0.041703 0.037397 -0.005682 0.000000 0.000000 0.000000
# 3 -0.018740 -0.005682 0.030210 0.000000 0.000000 0.000000
# 4 0.000000 0.000000 0.000000 0.047922 0.000000 0.000000
# 5 0.000000 0.000000 0.000000 0.000000 0.040123 0.000000
# 6 0.000000 0.000000 0.000000 0.000000 0.000000 0.039694
#
#
# Mechanical properties :
#
#
# Convention : Reuss Voigt Hill
#
# Bulk Modulus (GPa) = 44.22426 63.23563 53.72995
# Shear Modulus (GPa) = 11.83748 18.36148 15.09948
#
# Velocity S-wave (km/s) = 2.80534 3.49390 3.16838
# Velocity P-wave (km/s) = 6.31625 7.63659 7.00759
#
# Compressibility (1/GPa) = 0.02261202
#
# Stress axis : x y z
#
# Youngs Moduli (GPa) = 11.46072 26.74018 33.10150
#
# Poissons Ratio (x) = 1.11515 0.62031
# Poissons Ratio (y) = 0.47795 0.18808
# Poissons Ratio (z) = 0.21477 0.15194
#
# Static dielectric constant tensor:
#      x y z
#    x 1.504350 0.000000 0.000000 
#    y 0.000000 1.518770 0.000000 
#    z 0.000000 0.000000 1.471150 
# 
# From -- ./inp_files/30288.got.cif
#   From: 2010.05.17/outbox.cif.g08.bks.cpg/sg65_16_cif.got.tgz:30288.got - 2010.06.03 17:01:31.
