data_PCOD9493960
_publ_section_title
;
Structure prediction by ZEFSAII (Michael W. Deem and Ramdas Pophale) SiO2 
 PCOD9493960
Probable space group: C M M M
;
_chemical_formula_sum "Si O2"
_cell_formula_units_Z 48
_cell_length_a 7.926942
_cell_length_b 20.941747
_cell_length_c 12.718312
_cell_angle_alpha 90.000000
_cell_angle_beta 90.000000
_cell_angle_gamma 90.000000
_cell_volume 2111.290841
_symmetry_space_group_name_H-M "C M M M"
_symmetry_group_IT_number 65
_symmetry_cell_setting 'orthorhombic'
loop_
_space_group_symop_operation_xyz
x,y,z
-x,-y,z
x,-y,-z
-x,y,-z
-x,-y,-z
x,y,-z
-x,y,z
x,-y,z
1/2+x,1/2+y,z
1/2-x,1/2-y,z
1/2+x,1/2-y,-z
1/2-x,1/2+y,-z
1/2-x,1/2-y,-z
1/2+x,1/2+y,-z
1/2-x,1/2+y,z
1/2+x,1/2-y,z
loop_
_atom_site_type_symbol
_atom_site_label
_atom_site_fract_x
_atom_site_fract_y
_atom_site_fract_z
Si Si1 0.296699 0.637839 0.382131
Si Si2 0.706811 0.925559 0.000000
Si Si3 0.810094 0.000000 0.626725
Si Si4 0.800151 0.681124 0.838236
O O1 0.237831 0.656093 0.500000
O O2 0.500000 0.632159 0.388817
O O3 0.226356 0.567515 0.351568
O O4 0.255332 0.680026 0.282950
O O5 0.763194 0.881444 0.098829
O O6 0.500000 0.927528 0.000000
O O7 0.762379 0.000000 0.000000
O O8 0.826979 0.000000 0.500000
O O9 0.000000 0.000000 0.672747
O O10 0.750000 0.750000 0.883099
O O11 0.000000 0.677518 0.842444
#
# Coordination Sequence:
#
# PCOD9493960 Si02
#       4
#    16   8   8  16
#     4   9  18  34  57  86 122 160 197 239 290 349
#     4   9  21  42  65  89 116 149 192 246 305 354
#     4   7  12  26  49  76 109 150 188 229 282 333
#     4  11  23  39  62  87 119 159 197 243 294 352
#
# _framework density 22.734905999999999
#
# number of rings (size 3 to 8) (size 9 to 14) (size 15 to 20)
#    0.000    2.667    0.000    3.500    2.333    1.333 
#    0.000    2.500    0.000    7.000    0.000    0.000 
#    0.000    0.000    0.000    0.000    0.000    0.000 
#
# Total GULP energy -133755.316440 kJ/mol
# GULP energy per Si atom -5573.138185 kJ/mol
# Density = 2.268316 g / cm^3
# Si number density = 22.734906 Si / 1000 Ang^3
#
#
#
# Elastic Constant Matrix: (Units=GPa)
#
#
# Indices 1 2 3 4 5 6 
#
# 1 28.8637 8.4060 10.4113 0.0000 0.0000 0.0000
# 2 8.4060 192.7740 89.0462 0.0000 0.0000 0.0000
# 3 10.4113 89.0462 157.1041 0.0000 0.0000 0.0000
# 4 0.0000 0.0000 0.0000 12.3975 0.0000 0.0000
# 5 0.0000 0.0000 0.0000 0.0000 -1.3265 0.0000
# 6 0.0000 0.0000 0.0000 0.0000 0.0000 5.5652
#
#
#
# Elastic Compliance Matrix: (Units=1/GPa)
#
#
# Indices 1 2 3 4 5 6 
#
# 1 0.035550 -0.000626 -0.002001 0.000000 0.000000 0.000000
# 2 -0.000626 0.007038 -0.003948 0.000000 0.000000 0.000000
# 3 -0.002001 -0.003948 0.008735 0.000000 0.000000 0.000000
# 4 0.000000 0.000000 0.000000 0.080661 0.000000 0.000000
# 5 0.000000 0.000000 0.000000 0.000000 -0.753867 0.000000
# 6 0.000000 0.000000 0.000000 0.000000 0.000000 0.179688
#
#
# Mechanical properties :
#
#
# Convention : Reuss Voigt Hill
#
# Bulk Modulus (GPa) = 26.19595 66.05208 46.12402
# Shear Modulus (GPa) = -12.01000 21.38580 4.68790
#
# Velocity S-wave (km/s) = -2.30089 3.07034 1.43752
# Velocity P-wave (km/s) = 2.11862 6.45644 4.80490
#
# Compressibility (1/GPa) = 0.03817384
#
# Stress axis : x y z
#
# Youngs Moduli (GPa) = 28.12967 142.08011 114.47629
#
# Poissons Ratio (x) = 0.08891 0.22909
# Poissons Ratio (y) = 0.01760 0.45193
# Poissons Ratio (z) = 0.05629 0.56091
#
# Static dielectric constant tensor:
#      x y z
#    x 1.831040 0.000000 0.000000 
#    y 0.000000 1.918520 0.000000 
#    z 0.000000 0.000000 1.867090 
# 
# From -- ./inp_files/20118.got.cif
#   From: 2010.05.17/outbox.cif.g08.bks.cpg/sg65_11_cif.got.tgz:20118.got - 2010.06.03 17:01:31.
