data_PCOD9493916
_publ_section_title
;
Structure prediction by ZEFSAII (Michael W. Deem and Ramdas Pophale) SiO2 
 PCOD9493916
Probable space group: C M M M
;
_chemical_formula_sum "Si O2"
_cell_formula_units_Z 80
_cell_length_a 19.623899
_cell_length_b 8.374815
_cell_length_c 26.353946
_cell_angle_alpha 90.000000
_cell_angle_beta 90.000000
_cell_angle_gamma 90.000000
_cell_volume 4331.179411
_symmetry_space_group_name_H-M "C M M M"
_symmetry_group_IT_number 65
_symmetry_cell_setting 'orthorhombic'
loop_
_space_group_symop_operation_xyz
x,y,z
-x,-y,z
x,-y,-z
-x,y,-z
-x,-y,-z
x,y,-z
-x,y,z
x,-y,z
1/2+x,1/2+y,z
1/2-x,1/2-y,z
1/2+x,1/2-y,-z
1/2-x,1/2+y,-z
1/2-x,1/2-y,-z
1/2+x,1/2+y,-z
1/2-x,1/2+y,z
1/2+x,1/2-y,z
loop_
_atom_site_type_symbol
_atom_site_label
_atom_site_fract_x
_atom_site_fract_y
_atom_site_fract_z
Si Si1 0.672845 0.806964 0.056802
Si Si2 0.921501 0.692974 0.851267
Si Si3 0.172707 0.190737 0.647706
Si Si4 0.922569 0.692787 0.441519
Si Si5 0.421512 0.692700 0.740032
O O1 0.750000 0.750000 0.064380
O O2 0.624895 0.750199 0.102308
O O3 0.672071 0.000000 0.057377
O O4 0.651050 0.755767 0.000000
O O5 0.920041 0.500000 0.850756
O O6 0.899340 0.752743 0.795952
O O7 0.000000 0.743600 0.858428
O O8 0.250000 0.250000 0.648396
O O9 0.132521 0.242083 0.597298
O O10 0.128751 0.250530 0.695964
O O11 0.173704 0.000000 0.649921
O O12 0.910138 0.740925 0.500000
O O13 0.921118 0.500000 0.439990
O O14 0.000000 0.743475 0.427777
O O15 0.500000 0.747461 0.731936
O O16 0.422209 0.500000 0.738989
#
# Coordination Sequence:
#
# PCOD9493916 Si02
#       5
#    16  16  16  16  16
#     4   9  18  32  49  70  98 131 165 202 245 295
#     4   9  18  32  51  75  99 126 164 207 251 299
#     4  11  23  37  54  78 108 141 177 216 259 307
#     4   9  19  37  60  84 109 138 173 213 258 308
#     4   9  19  36  55  74  99 132 169 210 256 305
#
# _framework density 18.470718999999999
#
# number of rings (size 3 to 8) (size 9 to 14) (size 15 to 20)
#    0.000    2.600    0.000    1.800    0.000    5.600 
#    0.000    9.000    0.000    0.000    0.000    5.600 
#    0.000    0.000    0.000    0.000    0.000    0.000 
#
# Total GULP energy -223161.068048 kJ/mol
# GULP energy per Si atom -5579.026701 kJ/mol
# Density = 1.842868 g / cm^3
# Si number density = 18.470719 Si / 1000 Ang^3
#
#
#
# Elastic Constant Matrix: (Units=GPa)
#
#
# Indices 1 2 3 4 5 6 
#
# 1 129.2440 21.1204 124.0423 0.0000 0.0000 0.0000
# 2 21.1204 10.8589 23.1313 0.0000 0.0000 0.0000
# 3 124.0423 23.1313 174.1100 0.0000 0.0000 0.0000
# 4 0.0000 0.0000 0.0000 26.7359 0.0000 0.0000
# 5 0.0000 0.0000 0.0000 0.0000 -24.4643 0.0000
# 6 0.0000 0.0000 0.0000 0.0000 0.0000 15.9532
#
#
#
# Elastic Compliance Matrix: (Units=1/GPa)
#
#
# Indices 1 2 3 4 5 6 
#
# 1 0.026243 -0.015642 -0.016618 0.000000 0.000000 0.000000
# 2 -0.015642 0.137763 -0.007158 0.000000 0.000000 0.000000
# 3 -0.016618 -0.007158 0.018534 0.000000 0.000000 0.000000
# 4 0.000000 0.000000 0.000000 0.037403 0.000000 0.000000
# 5 0.000000 0.000000 0.000000 0.000000 -0.040876 0.000000
# 6 0.000000 0.000000 0.000000 0.000000 0.000000 0.062683
#
#
# Mechanical properties :
#
#
# Convention : Reuss Voigt Hill
#
# Bulk Modulus (GPa) = 9.64303 72.31122 40.97712
# Shear Modulus (GPa) = 14.07837 13.37289 13.72563
#
# Velocity S-wave (km/s) = 2.76379 2.69365 2.72895
# Velocity P-wave (km/s) = 3.92642 6.99346 5.67121
#
# Compressibility (1/GPa) = 0.10370190
#
# Stress axis : x y z
#
# Youngs Moduli (GPa) = 38.10559 7.25886 53.95524
#
# Poissons Ratio (x) = 0.11355 0.89664
# Poissons Ratio (y) = 0.59607 0.38622
# Poissons Ratio (z) = 0.63325 0.05196
#
# Static dielectric constant tensor:
#      x y z
#    x 1.616990 0.000000 0.000000 
#    y 0.000000 1.639470 0.000000 
#    z 0.000000 0.000000 1.631740 
# 
# From -- ./inp_files/72737.got.cif
#   From: 2010.05.17/outbox.cif.g08.bks.cpg/sg65_37_cif.got.tgz:72737.got - 2010.06.03 17:01:31.
