data_PCOD9493410
_publ_section_title
;
Structure prediction by ZEFSAII (Michael W. Deem and Ramdas Pophale) SiO2 
 PCOD9493410
Probable space group: C M M M
;
_chemical_formula_sum "Si O2"
_cell_formula_units_Z 72
_cell_length_a 16.128328
_cell_length_b 25.547995
_cell_length_c 9.464245
_cell_angle_alpha 90.000000
_cell_angle_beta 90.000000
_cell_angle_gamma 90.000000
_cell_volume 3899.708489
_symmetry_space_group_name_H-M "C M M M"
_symmetry_group_IT_number 65
_symmetry_cell_setting 'orthorhombic'
loop_
_space_group_symop_operation_xyz
x,y,z
-x,-y,z
x,-y,-z
-x,y,-z
-x,-y,-z
x,y,-z
-x,y,z
x,-y,z
1/2+x,1/2+y,z
1/2-x,1/2-y,z
1/2+x,1/2-y,-z
1/2-x,1/2+y,-z
1/2-x,1/2-y,-z
1/2+x,1/2+y,-z
1/2-x,1/2+y,z
1/2+x,1/2-y,z
loop_
_atom_site_type_symbol
_atom_site_label
_atom_site_fract_x
_atom_site_fract_y
_atom_site_fract_z
Si Si1 0.855276 0.140834 0.330595
Si Si2 0.149515 0.257620 0.341547
Si Si3 0.818134 0.645025 0.833287
Si Si4 0.099345 0.440039 0.655957
Si Si5 0.000000 0.939330 0.328604
O O1 0.838806 0.136603 0.500000
O O2 0.887651 0.200487 0.309630
O O3 0.770997 0.138418 0.242267
O O4 0.919683 0.095477 0.289428
O O5 0.123906 0.273567 0.500000
O O6 0.250000 0.250000 0.344777
O O7 0.137183 0.303464 0.230203
O O8 0.869129 0.595270 0.781525
O O9 0.809146 0.649216 0.000000
O O10 0.127230 0.420425 0.500000
O O11 0.127657 0.500000 0.669233
O O12 0.000000 0.440172 0.655029
O O13 0.000000 0.941013 0.500000
O O14 0.000000 0.000000 0.279359
#
# Coordination Sequence:
#
# PCOD9493410 Si02
#       5
#    16  16  16  16   8
#     4   9  18  34  55  78 106 140 183 228 270 315
#     4   8  15  30  51  74 102 135 175 220 262 308
#     4  11  21  32  52  81 112 142 175 215 268 330
#     4   9  19  37  58  77 100 134 176 219 261 309
#     4   9  18  34  57  83 107 135 180 237 282 313
#
# _framework density 18.462918999999999
#
# number of rings (size 3 to 8) (size 9 to 14) (size 15 to 20)
#    0.000    2.778    0.000    4.000    0.000    5.778 
#    2.000    3.889    0.000    0.667    0.000    0.000 
#    0.000    0.000    0.000    0.000    0.000    0.000 
#
# Total GULP energy -200612.060731 kJ/mol
# GULP energy per Si atom -5572.557243 kJ/mol
# Density = 1.842090 g / cm^3
# Si number density = 18.462919 Si / 1000 Ang^3
#
#
#
# Elastic Constant Matrix: (Units=GPa)
#
#
# Indices 1 2 3 4 5 6 
#
# 1 34.6508 45.7731 27.7184 0.0000 0.0000 0.0000
# 2 45.7731 138.6201 61.0234 0.0000 0.0000 0.0000
# 3 27.7184 61.0234 93.7515 0.0000 0.0000 0.0000
# 4 0.0000 0.0000 0.0000 -11.6474 0.0000 0.0000
# 5 0.0000 0.0000 0.0000 0.0000 -2.4925 0.0000
# 6 0.0000 0.0000 0.0000 0.0000 0.0000 29.5878
#
#
#
# Elastic Compliance Matrix: (Units=1/GPa)
#
#
# Indices 1 2 3 4 5 6 
#
# 1 0.053533 -0.015011 -0.006057 0.000000 0.000000 0.000000
# 2 -0.015011 0.014320 -0.004883 0.000000 0.000000 0.000000
# 3 -0.006057 -0.004883 0.015636 0.000000 0.000000 0.000000
# 4 0.000000 0.000000 0.000000 -0.085856 0.000000 0.000000
# 5 0.000000 0.000000 0.000000 0.000000 -0.401199 0.000000
# 6 0.000000 0.000000 0.000000 0.000000 0.000000 0.033798
#
#
# Mechanical properties :
#
#
# Convention : Reuss Voigt Hill
#
# Bulk Modulus (GPa) = 31.65778 59.56136 45.60957
# Shear Modulus (GPa) = -16.26878 11.92339 -2.17270
#
# Velocity S-wave (km/s) = -2.97165 2.54402 -1.08598
# Velocity P-wave (km/s) = 2.32585 6.39995 4.81503
#
# Compressibility (1/GPa) = 0.03158782
#
# Stress axis : x y z
#
# Youngs Moduli (GPa) = 18.67991 69.83158 63.95593
#
# Poissons Ratio (x) = 1.04821 0.38739
# Poissons Ratio (y) = 0.28040 0.31230
# Poissons Ratio (z) = 0.11315 0.34099
#
# Static dielectric constant tensor:
#      x y z
#    x 1.651210 0.000000 0.000000 
#    y 0.000000 1.670520 0.000000 
#    z 0.000000 0.000000 1.611730 
# 
# From -- ./inp_files/9263.got.cif
#   From: 2010.05.17/outbox.cif.g08.bks.cpg/sg65_5_cif.got.tgz:9263.got - 2010.06.03 17:01:31.
