data_PCOD9493092
_publ_section_title
;
Structure prediction by ZEFSAII (Michael W. Deem and Ramdas Pophale) SiO2 
 PCOD9493092
Probable space group: C M M M
;
_chemical_formula_sum "Si O2"
_cell_formula_units_Z 56
_cell_length_a 17.819333
_cell_length_b 17.700772
_cell_length_c 9.053428
_cell_angle_alpha 90.000000
_cell_angle_beta 90.000000
_cell_angle_gamma 90.000000
_cell_volume 2855.595599
_symmetry_space_group_name_H-M "C M M M"
_symmetry_group_IT_number 65
_symmetry_cell_setting 'orthorhombic'
loop_
_space_group_symop_operation_xyz
x,y,z
-x,-y,z
x,-y,-z
-x,y,-z
-x,-y,-z
x,y,-z
-x,y,z
x,-y,z
1/2+x,1/2+y,z
1/2-x,1/2-y,z
1/2+x,1/2-y,-z
1/2-x,1/2+y,-z
1/2-x,1/2-y,-z
1/2+x,1/2+y,-z
1/2-x,1/2+y,z
1/2+x,1/2-y,z
loop_
_atom_site_type_symbol
_atom_site_label
_atom_site_fract_x
_atom_site_fract_y
_atom_site_fract_z
Si Si1 0.589569 0.500000 0.326986
Si Si2 0.586014 0.225798 0.324205
Si Si3 0.171853 0.139620 0.176233
Si Si4 0.842593 0.411415 0.823846
O O1 0.500000 0.500000 0.316772
O O2 0.610451 0.500000 0.500000
O O3 0.622905 0.573345 0.248118
O O4 0.596342 0.229555 0.500000
O O5 0.500000 0.248336 0.290696
O O6 0.643591 0.282231 0.244860
O O7 0.601497 0.141853 0.265232
O O8 0.258543 0.119302 0.205543
O O9 0.161804 0.141234 0.000000
O O10 0.846714 0.500000 0.785972
O O11 0.856089 0.404244 0.000000
#
# Coordination Sequence:
#
# PCOD9493092 Si02
#       4
#     8  16  16  16
#     4  11  23  37  57  89 128 165 200 245 301 362
#     4  11  25  42  60  89 127 163 204 254 306 362
#     4  11  22  40  64  91 122 159 205 253 303 362
#     4  10  22  42  65  91 122 157 203 256 306 362
#
# _framework density 19.610620999999998
#
# number of rings (size 3 to 8) (size 9 to 14) (size 15 to 20)
#    0.000    1.286    1.429    3.857    0.000   13.714 
#    0.000    2.857    0.000    0.000    0.000    0.000 
#    0.000    0.000    0.000    0.000    0.000    0.000 
#
# Total GULP energy -156616.579655 kJ/mol
# GULP energy per Si atom -5593.449273 kJ/mol
# Density = 1.956599 g / cm^3
# Si number density = 19.610621 Si / 1000 Ang^3
#
#
#
# Elastic Constant Matrix: (Units=GPa)
#
#
# Indices 1 2 3 4 5 6 
#
# 1 15.1075 8.1831 20.9258 0.0000 0.0000 0.0000
# 2 8.1831 105.6573 22.8928 0.0000 0.0000 0.0000
# 3 20.9258 22.8928 39.4351 0.0000 0.0000 0.0000
# 4 0.0000 0.0000 0.0000 184.6339 0.0000 0.0000
# 5 0.0000 0.0000 0.0000 0.0000 31.6531 0.0000
# 6 0.0000 0.0000 0.0000 0.0000 0.0000 51.3938
#
#
#
# Elastic Compliance Matrix: (Units=1/GPa)
#
#
# Indices 1 2 3 4 5 6 
#
# 1 0.260870 0.011197 -0.144928 0.000000 0.000000 0.000000
# 2 0.011197 0.011307 -0.012506 0.000000 0.000000 0.000000
# 3 -0.144928 -0.012506 0.109523 0.000000 0.000000 0.000000
# 4 0.000000 0.000000 0.000000 0.005416 0.000000 0.000000
# 5 0.000000 0.000000 0.000000 0.000000 0.031593 0.000000
# 6 0.000000 0.000000 0.000000 0.000000 0.000000 0.019458
#
#
# Mechanical properties :
#
#
# Convention : Reuss Voigt Hill
#
# Bulk Modulus (GPa) = 11.20742 29.35593 20.28167
# Shear Modulus (GPa) = 6.57565 60.74938 33.66252
#
# Velocity S-wave (km/s) = 1.83314 5.57181 4.14762
# Velocity P-wave (km/s) = 3.19498 7.50968 5.77075
#
# Compressibility (1/GPa) = 0.08922664
#
# Stress axis : x y z
#
# Youngs Moduli (GPa) = 3.83333 88.44124 9.13054
#
# Poissons Ratio (x) = -0.99032 1.32327
# Poissons Ratio (y) = -0.04292 0.11418
# Poissons Ratio (z) = 0.55556 1.10602
#
# Static dielectric constant tensor:
#      x y z
#    x 1.674070 0.000000 0.000000 
#    y 0.000000 1.681450 0.000000 
#    z 0.000000 0.000000 1.648200 
# 
# From -- ./inp_files/6237.got.cif
#   From: 2010.05.17/outbox.cif.g08.bks.cpg/sg65_4_cif.got.tgz:6237.got - 2010.06.03 17:01:31.
