data_PCOD9493634
_publ_section_title
;
Structure prediction by ZEFSAII (Michael W. Deem and Ramdas Pophale) SiO2 
 PCOD9493634
Probable space group: C M M M
;
_chemical_formula_sum "Si O2"
_cell_formula_units_Z 88
_cell_length_a 31.483455
_cell_length_b 9.190182
_cell_length_c 17.574478
_cell_angle_alpha 90.000000
_cell_angle_beta 90.000000
_cell_angle_gamma 90.000000
_cell_volume 5084.976291
_symmetry_space_group_name_H-M "C M M M"
_symmetry_group_IT_number 65
_symmetry_cell_setting 'orthorhombic'
loop_
_space_group_symop_operation_xyz
x,y,z
-x,-y,z
x,-y,-z
-x,y,-z
-x,-y,-z
x,y,-z
-x,y,z
x,-y,z
1/2+x,1/2+y,z
1/2-x,1/2-y,z
1/2+x,1/2-y,-z
1/2-x,1/2+y,-z
1/2-x,1/2-y,-z
1/2+x,1/2+y,-z
1/2-x,1/2+y,z
1/2+x,1/2-y,z
loop_
_atom_site_type_symbol
_atom_site_label
_atom_site_fract_x
_atom_site_fract_y
_atom_site_fract_z
Si Si1 0.379157 0.176139 0.294905
Si Si2 0.952239 0.676794 0.588450
Si Si3 0.793120 0.174688 0.756016
Si Si4 0.092245 0.663568 0.127287
Si Si5 0.450020 0.657073 0.000000
Si Si6 0.309239 0.832206 0.913359
O O1 0.411903 0.221528 0.360920
O O2 0.334292 0.258977 0.287138
O O3 0.402747 0.204778 0.214927
O O4 0.371524 0.000000 0.298780
O O5 0.947203 0.718613 0.500000
O O6 0.952479 0.500000 0.591396
O O7 0.000000 0.723505 0.613533
O O8 0.750000 0.250000 0.726450
O O9 0.796214 0.226688 0.844720
O O10 0.791973 0.000000 0.751210
O O11 0.075590 0.500000 0.123552
O O12 0.064066 0.763252 0.075746
O O13 0.139658 0.664308 0.092509
O O14 0.428937 0.500000 0.000000
O O15 0.500000 0.646695 0.000000
O O16 0.294791 0.000000 0.898746
O O17 0.297544 0.791807 0.000000
#
# Coordination Sequence:
#
# PCOD9493634 Si02
#       6
#    16  16  16  16   8  16
#     4   9  18  33  54  79 107 138 172 213 260 309
#     4   8  14  27  52  87 119 141 166 206 256 311
#     4  11  22  35  51  73 102 137 178 220 264 313
#     4   9  17  31  48  66  89 125 169 210 251 300
#     4  11  23  33  41  59  90 127 168 217 265 303
#     4   9  17  32  52  71  94 124 163 214 266 313
#
# _framework density 17.305882
#
# number of rings (size 3 to 8) (size 9 to 14) (size 15 to 20)
#    0.000    2.636    0.909    3.545    0.000    5.091 
#    0.000    1.818    0.000    1.636    0.000    1.273 
#    0.000    0.000    0.000    0.000    0.000    0.000 
#
# Total GULP energy -245114.219208 kJ/mol
# GULP energy per Si atom -5570.777709 kJ/mol
# Density = 1.726649 g / cm^3
# Si number density = 17.305882 Si / 1000 Ang^3
#
#
#
# Elastic Constant Matrix: (Units=GPa)
#
#
# Indices 1 2 3 4 5 6 
#
# 1 118.8334 62.8135 66.7748 0.0000 0.0000 0.0000
# 2 62.8135 63.0472 39.5697 0.0000 0.0000 0.0000
# 3 66.7748 39.5697 82.7132 0.0000 0.0000 0.0000
# 4 0.0000 0.0000 0.0000 8.1123 0.0000 0.0000
# 5 0.0000 0.0000 0.0000 0.0000 32.6265 0.0000
# 6 0.0000 0.0000 0.0000 0.0000 0.0000 20.0095
#
#
#
# Elastic Compliance Matrix: (Units=1/GPa)
#
#
# Indices 1 2 3 4 5 6 
#
# 1 0.023080 -0.016149 -0.010907 0.000000 0.000000 0.000000
# 2 -0.016149 0.033967 -0.003212 0.000000 0.000000 0.000000
# 3 -0.010907 -0.003212 0.022432 0.000000 0.000000 0.000000
# 4 0.000000 0.000000 0.000000 0.123269 0.000000 0.000000
# 5 0.000000 0.000000 0.000000 0.000000 0.030650 0.000000
# 6 0.000000 0.000000 0.000000 0.000000 0.000000 0.049976
#
#
# Mechanical properties :
#
#
# Convention : Reuss Voigt Hill
#
# Bulk Modulus (GPa) = 52.79298 66.98998 59.89148
# Shear Modulus (GPa) = 14.27653 18.51205 16.39429
#
# Velocity S-wave (km/s) = 2.87531 3.27417 3.08120
# Velocity P-wave (km/s) = 6.44944 7.28608 6.88049
#
# Compressibility (1/GPa) = 0.01894191
#
# Stress axis : x y z
#
# Youngs Moduli (GPa) = 43.32699 29.44074 44.57926
#
# Poissons Ratio (x) = 0.47545 0.48623
# Poissons Ratio (y) = 0.69970 0.14319
# Poissons Ratio (z) = 0.47257 0.09457
#
# Static dielectric constant tensor:
#      x y z
#    x 1.607270 0.000000 0.000000 
#    y 0.000000 1.609870 0.000000 
#    z 0.000000 0.000000 1.556710 
# 
# From -- ./inp_files/57965.got.cif
#   From: 2010.05.17/outbox.cif.g08.bks.cpg/sg65_29_cif.got.tgz:57965.got - 2010.06.03 17:01:31.
