data_PCOD9493917
_publ_section_title
;
Structure prediction by ZEFSAII (Michael W. Deem and Ramdas Pophale) SiO2 
 PCOD9493917
Probable space group: C M M M
;
_chemical_formula_sum "Si O2"
_cell_formula_units_Z 96
_cell_length_a 19.006312
_cell_length_b 9.242833
_cell_length_c 31.629846
_cell_angle_alpha 90.000000
_cell_angle_beta 90.000000
_cell_angle_gamma 90.000000
_cell_volume 5556.483613
_symmetry_space_group_name_H-M "C M M M"
_symmetry_group_IT_number 65
_symmetry_cell_setting 'orthorhombic'
loop_
_space_group_symop_operation_xyz
x,y,z
-x,-y,z
x,-y,-z
-x,y,-z
-x,-y,-z
x,y,-z
-x,y,z
x,-y,z
1/2+x,1/2+y,z
1/2-x,1/2-y,z
1/2+x,1/2-y,-z
1/2-x,1/2+y,-z
1/2-x,1/2-y,-z
1/2+x,1/2+y,-z
1/2-x,1/2+y,z
1/2+x,1/2-y,z
loop_
_atom_site_type_symbol
_atom_site_label
_atom_site_fract_x
_atom_site_fract_y
_atom_site_fract_z
Si Si1 0.585645 0.666576 0.212604
Si Si2 0.417283 0.671508 0.450251
Si Si3 0.174719 0.326692 0.619504
Si Si4 0.174915 0.673805 0.952636
Si Si5 0.917729 0.327324 0.297978
Si Si6 0.583069 0.172801 0.127792
O O1 0.500000 0.671037 0.212216
O O2 0.607745 0.500000 0.212777
O O3 0.606739 0.746641 0.255633
O O4 0.608801 0.746635 0.169912
O O5 0.404271 0.698370 0.500000
O O6 0.500000 0.700892 0.442123
O O7 0.405570 0.500000 0.442631
O O8 0.368499 0.765846 0.420318
O O9 0.182438 0.500000 0.616677
O O10 0.250000 0.250000 0.621499
O O11 0.129488 0.292595 0.661556
O O12 0.183754 0.500000 0.950634
O O13 0.250000 0.750000 0.947895
O O14 0.124120 0.716647 0.914431
O O15 0.147732 0.708202 0.000000
O O16 0.914890 0.500000 0.290839
O O17 0.000000 0.289758 0.305987
O O18 0.500000 0.202281 0.122587
O O19 0.590907 0.000000 0.133648
#
# Coordination Sequence:
#
# PCOD9493917 Si02
#       6
#    16  16  16  16  16  16
#     4   9  17  29  48  75 102 127 159 201 248 297
#     4   9  19  37  60  84 109 138 174 216 260 307
#     4  11  23  37  54  78 109 143 177 215 260 308
#     4   9  18  32  49  69  94 126 163 200 240 289
#     4   9  18  34  55  76  99 130 169 210 252 301
#     4   9  17  30  49  72  98 127 159 199 246 292
#
# _framework density 17.277114999999998
#
# number of rings (size 3 to 8) (size 9 to 14) (size 15 to 20)
#    0.000    2.667    0.000    2.000    0.000    6.000 
#    0.000    5.000    0.000    0.000    0.000    4.667 
#    0.000    0.000    0.000    0.000    0.000    0.000 
#
# Total GULP energy -267680.184305 kJ/mol
# GULP energy per Si atom -5576.670506 kJ/mol
# Density = 1.723779 g / cm^3
# Si number density = 17.277115 Si / 1000 Ang^3
#
#
#
# Elastic Constant Matrix: (Units=GPa)
#
#
# Indices 1 2 3 4 5 6 
#
# 1 74.6935 54.9797 88.4116 0.0000 0.0000 0.0000
# 2 54.9797 56.2582 81.3440 0.0000 0.0000 0.0000
# 3 88.4116 81.3440 165.3449 0.0000 0.0000 0.0000
# 4 0.0000 0.0000 0.0000 24.2859 0.0000 0.0000
# 5 0.0000 0.0000 0.0000 0.0000 -10.8958 0.0000
# 6 0.0000 0.0000 0.0000 0.0000 0.0000 18.9202
#
#
#
# Elastic Compliance Matrix: (Units=1/GPa)
#
#
# Indices 1 2 3 4 5 6 
#
# 1 0.051820 -0.036646 -0.009680 0.000000 0.000000 0.000000
# 2 -0.036646 0.087492 -0.023448 0.000000 0.000000 0.000000
# 3 -0.009680 -0.023448 0.022760 0.000000 0.000000 0.000000
# 4 0.000000 0.000000 0.000000 0.041176 0.000000 0.000000
# 5 0.000000 0.000000 0.000000 0.000000 -0.091778 0.000000
# 6 0.000000 0.000000 0.000000 0.000000 0.000000 0.052854
#
#
# Mechanical properties :
#
#
# Convention : Reuss Voigt Hill
#
# Bulk Modulus (GPa) = 44.39797 82.86303 63.63050
# Shear Modulus (GPa) = 16.05753 11.23279 13.64516
#
# Velocity S-wave (km/s) = 3.05193 2.55258 2.81336
# Velocity P-wave (km/s) = 6.17838 7.53345 6.88931
#
# Compressibility (1/GPa) = 0.02252355
#
# Stress axis : x y z
#
# Youngs Moduli (GPa) = 19.29753 11.42959 43.93684
#
# Poissons Ratio (x) = 0.41884 0.42532
# Poissons Ratio (y) = 0.70717 1.03025
# Poissons Ratio (z) = 0.18681 0.26801
#
# Static dielectric constant tensor:
#      x y z
#    x 1.563290 0.000000 0.000000 
#    y 0.000000 1.574670 0.000000 
#    z 0.000000 0.000000 1.575660 
# 
# From -- ./inp_files/75361.got.cif
#   From: 2010.05.17/outbox.cif.g08.bks.cpg/sg65_38_cif.got.tgz:75361.got - 2010.06.03 17:01:31.
