data_PCOD9493119
_publ_section_title
;
Structure prediction by ZEFSAII (Michael W. Deem and Ramdas Pophale) SiO2 
 PCOD9493119
Probable space group: C M M M
;
_chemical_formula_sum "Si O2"
_cell_formula_units_Z 90
_cell_length_a 21.632211
_cell_length_b 19.023776
_cell_length_c 11.277889
_cell_angle_alpha 90.000000
_cell_angle_beta 90.000000
_cell_angle_gamma 90.000000
_cell_volume 4641.148343
_symmetry_space_group_name_H-M "C M M M"
_symmetry_group_IT_number 65
_symmetry_cell_setting 'orthorhombic'
loop_
_space_group_symop_operation_xyz
x,y,z
-x,-y,z
x,-y,-z
-x,y,-z
-x,-y,-z
x,y,-z
-x,y,z
x,-y,z
1/2+x,1/2+y,z
1/2-x,1/2-y,z
1/2+x,1/2-y,-z
1/2-x,1/2+y,-z
1/2-x,1/2-y,-z
1/2+x,1/2+y,-z
1/2-x,1/2+y,z
1/2+x,1/2-y,z
loop_
_atom_site_type_symbol
_atom_site_label
_atom_site_fract_x
_atom_site_fract_y
_atom_site_fract_z
Si Si1 0.594538 0.815466 0.246277
Si Si2 0.280033 0.172898 0.869097
Si Si3 0.902304 0.367868 0.500000
Si Si4 0.928375 0.161861 0.140652
Si Si5 0.183630 0.083854 0.258491
Si Si6 0.000000 0.421953 0.141021
Si Si7 0.500000 0.000000 0.500000
Si Si8 0.757100 0.585058 0.500000
O O1 0.666452 0.828005 0.225906
O O2 0.581967 0.822183 0.384480
O O3 0.576785 0.742479 0.184378
O O4 0.558405 0.878499 0.184007
O O5 0.250000 0.250000 0.865859
O O6 0.229724 0.114599 0.840424
O O7 0.307124 0.162634 0.000000
O O8 0.828002 0.386335 0.500000
O O9 0.945119 0.437557 0.500000
O O10 0.882027 0.117950 0.223751
O O11 0.000000 0.139685 0.150957
O O12 0.911250 0.157813 0.000000
O O13 0.216112 0.104675 0.383690
O O14 0.179251 0.000000 0.255631
O O15 0.000000 0.500000 0.194649
O O16 0.000000 0.426157 0.000000
O O17 0.762527 0.500000 0.500000
#
# Coordination Sequence:
#
# PCOD9493119 Si02
#       8
#    16  16   8  16  16   8   2   8
#     4  12  24  41  65  97 132 179 228 273 338 412
#     4  11  22  38  64  97 133 175 221 280 348 414
#     4  12  26  41  67 101 138 188 235 283 336 394
#     4  11  24  45  71  98 137 181 223 285 354 419
#     4  11  24  43  69 100 134 176 230 289 350 413
#     4  11  25  42  63  93 130 173 222 275 330 396
#     4  12  28  44  68  96 146 192 232 288 332 386
#     4  10  22  45  65  92 138 182 218 275 349 407
#
# _framework density 19.391752
#
# number of rings (size 3 to 8) (size 9 to 14) (size 15 to 20)
#    0.000    0.800    4.889    2.667    2.489    3.200 
#    0.000    4.000    0.000    1.600    0.000    0.000 
#    0.000    0.000    0.000    0.000    0.000    0.000 
#
# Total GULP energy -251077.498882 kJ/mol
# GULP energy per Si atom -5579.499975 kJ/mol
# Density = 1.934762 g / cm^3
# Si number density = 19.391752 Si / 1000 Ang^3
#
#
#
# Elastic Constant Matrix: (Units=GPa)
#
#
# Indices 1 2 3 4 5 6 
#
# 1 120.4276 40.1935 37.1331 0.0000 0.0000 0.0000
# 2 40.1935 90.6095 31.1939 0.0000 0.0000 0.0000
# 3 37.1331 31.1939 108.2891 0.0000 0.0000 0.0000
# 4 0.0000 0.0000 0.0000 36.6514 0.0000 0.0000
# 5 0.0000 0.0000 0.0000 0.0000 33.7333 0.0000
# 6 0.0000 0.0000 0.0000 0.0000 0.0000 35.3943
#
#
#
# Elastic Compliance Matrix: (Units=1/GPa)
#
#
# Indices 1 2 3 4 5 6 
#
# 1 0.010306 -0.003724 -0.002461 0.000000 0.000000 0.000000
# 2 -0.003724 0.013597 -0.002640 0.000000 0.000000 0.000000
# 3 -0.002461 -0.002640 0.010839 0.000000 0.000000 0.000000
# 4 0.000000 0.000000 0.000000 0.027284 0.000000 0.000000
# 5 0.000000 0.000000 0.000000 0.000000 0.029644 0.000000
# 6 0.000000 0.000000 0.000000 0.000000 0.000000 0.028253
#
#
# Mechanical properties :
#
#
# Convention : Reuss Voigt Hill
#
# Bulk Modulus (GPa) = 58.50834 59.59636 59.05235
# Shear Modulus (GPa) = 34.89906 35.20951 35.05429
#
# Velocity S-wave (km/s) = 4.24687 4.26572 4.25631
# Velocity P-wave (km/s) = 7.36785 7.42034 7.39414
#
# Compressibility (1/GPa) = 0.01709158
#
# Stress axis : x y z
#
# Youngs Moduli (GPa) = 97.03494 73.54475 92.26060
#
# Poissons Ratio (x) = 0.27389 0.22706
# Poissons Ratio (y) = 0.36138 0.24355
# Poissons Ratio (z) = 0.23881 0.19414
#
# Static dielectric constant tensor:
#      x y z
#    x 1.671200 0.000000 0.000000 
#    y 0.000000 1.643880 0.000000 
#    z 0.000000 0.000000 1.648050 
# 
# From -- ./inp_files/28796.got.cif
#   From: 2010.05.17/outbox.cif.g08.bks.cpg/sg65_15_cif.got.tgz:28796.got - 2010.06.03 17:01:31.
