data_PCOD9493250
_publ_section_title
;
Structure prediction by ZEFSAII (Michael W. Deem and Ramdas Pophale) SiO2 
 PCOD9493250
Probable space group: C M M M
;
_chemical_formula_sum "Si O2"
_cell_formula_units_Z 90
_cell_length_a 19.101322
_cell_length_b 22.694636
_cell_length_c 11.628474
_cell_angle_alpha 90.000000
_cell_angle_beta 90.000000
_cell_angle_gamma 90.000000
_cell_volume 5040.914988
_symmetry_space_group_name_H-M "C M M M"
_symmetry_group_IT_number 65
_symmetry_cell_setting 'orthorhombic'
loop_
_space_group_symop_operation_xyz
x,y,z
-x,-y,z
x,-y,-z
-x,y,-z
-x,-y,-z
x,y,-z
-x,y,z
x,-y,z
1/2+x,1/2+y,z
1/2-x,1/2-y,z
1/2+x,1/2-y,-z
1/2-x,1/2+y,-z
1/2-x,1/2-y,-z
1/2+x,1/2+y,-z
1/2-x,1/2+y,z
1/2+x,1/2-y,z
loop_
_atom_site_type_symbol
_atom_site_label
_atom_site_fract_x
_atom_site_fract_y
_atom_site_fract_z
Si Si1 0.202112 0.665453 0.000000
Si Si2 0.000000 0.500000 0.500000
Si Si3 0.671569 0.769758 0.637207
Si Si4 0.423562 0.000000 0.736490
Si Si5 0.361503 0.290695 0.000000
Si Si6 0.583082 0.331599 0.753786
Si Si7 0.820967 0.392220 0.243899
Si Si8 0.323942 0.569824 0.636603
O O1 0.195082 0.627892 0.885022
O O2 0.280809 0.689819 0.000000
O O3 0.146155 0.719432 0.000000
O O4 0.059423 0.500000 0.601284
O O5 0.671956 0.772299 0.500000
O O6 0.750000 0.750000 0.676287
O O7 0.617132 0.721633 0.681183
O O8 0.655658 0.833497 0.688930
O O9 0.379087 0.057762 0.761241
O O10 0.500000 0.000000 0.795200
O O11 0.397536 0.316197 0.885717
O O12 0.500000 0.335066 0.739892
O O13 0.620752 0.390320 0.705947
O O14 0.751920 0.415716 0.309331
O O15 0.324466 0.585083 0.500000
O O16 0.337621 0.500000 0.647109
#
# Coordination Sequence:
#
# PCOD9493250 Si02
#       8
#     8   2  16   8   8  16  16  16
#     4  11  22  39  73  96 126 168 227 272 322 373
#     4   8  24  48  68  90 144 188 210 264 336 396
#     4  11  22  37  63  97 129 165 214 277 329 388
#     4  10  26  43  64  98 134 175 214 268 323 391
#     4  11  21  44  65  96 130 177 210 269 325 397
#     4  12  25  43  64  96 135 170 214 269 335 396
#     4  12  22  41  67  99 129 170 226 271 320 387
#     4  11  24  41  68  98 128 173 222 270 325 387
#
# _framework density 17.853901
#
# number of rings (size 3 to 8) (size 9 to 14) (size 15 to 20)
#    0.267    0.533    6.222    1.333    2.489    2.844 
#    0.000    3.111    0.000    1.067    0.000    0.000 
#    0.000    0.000    0.000    0.000    0.000    0.000 
#
# Total GULP energy -251111.521013 kJ/mol
# GULP energy per Si atom -5580.256023 kJ/mol
# Density = 1.781327 g / cm^3
# Si number density = 17.853901 Si / 1000 Ang^3
#
#
#
# Elastic Constant Matrix: (Units=GPa)
#
#
# Indices 1 2 3 4 5 6 
#
# 1 139.3181 65.6613 35.3280 0.0000 0.0000 0.0000
# 2 65.6613 131.4806 42.1692 0.0000 0.0000 0.0000
# 3 35.3280 42.1692 97.2822 0.0000 0.0000 0.0000
# 4 0.0000 0.0000 0.0000 64.8418 0.0000 0.0000
# 5 0.0000 0.0000 0.0000 0.0000 48.8010 0.0000
# 6 0.0000 0.0000 0.0000 0.0000 0.0000 22.0096
#
#
#
# Elastic Compliance Matrix: (Units=1/GPa)
#
#
# Indices 1 2 3 4 5 6 
#
# 1 0.009607 -0.004273 -0.001637 0.000000 0.000000 0.000000
# 2 -0.004273 0.010734 -0.003101 0.000000 0.000000 0.000000
# 3 -0.001637 -0.003101 0.012218 0.000000 0.000000 0.000000
# 4 0.000000 0.000000 0.000000 0.015422 0.000000 0.000000
# 5 0.000000 0.000000 0.000000 0.000000 0.020491 0.000000
# 6 0.000000 0.000000 0.000000 0.000000 0.000000 0.045435
#
#
# Mechanical properties :
#
#
# Convention : Reuss Voigt Hill
#
# Bulk Modulus (GPa) = 68.78688 72.71088 70.74888
# Shear Modulus (GPa) = 36.55670 42.12530 39.34100
#
# Velocity S-wave (km/s) = 4.52989 4.86268 4.69923
# Velocity P-wave (km/s) = 8.12226 8.50538 8.31603
#
# Compressibility (1/GPa) = 0.01453766
#
# Stress axis : x y z
#
# Youngs Moduli (GPa) = 104.09608 93.16105 81.84623
#
# Poissons Ratio (x) = 0.39804 0.13395
# Poissons Ratio (y) = 0.44476 0.25383
# Poissons Ratio (z) = 0.17036 0.28892
#
# Static dielectric constant tensor:
#      x y z
#    x 1.597930 0.000000 0.000000 
#    y 0.000000 1.607160 0.000000 
#    z 0.000000 0.000000 1.597290 
# 
# From -- ./inp_files/26894.got.cif
#   From: 2010.05.17/outbox.cif.g08.bks.cpg/sg65_14_cif.got.tgz:26894.got - 2010.06.03 17:01:31.
