data_PCOD9493088
_publ_section_title
;
Structure prediction by ZEFSAII (Michael W. Deem and Ramdas Pophale) SiO2 
 PCOD9493088
Probable space group: C M M M
;
_chemical_formula_sum "Si O2"
_cell_formula_units_Z 88
_cell_length_a 11.529327
_cell_length_b 16.010657
_cell_length_c 24.410716
_cell_angle_alpha 90.000000
_cell_angle_beta 90.000000
_cell_angle_gamma 90.000000
_cell_volume 4506.025330
_symmetry_space_group_name_H-M "C M M M"
_symmetry_group_IT_number 65
_symmetry_cell_setting 'orthorhombic'
loop_
_space_group_symop_operation_xyz
x,y,z
-x,-y,z
x,-y,-z
-x,y,-z
-x,-y,-z
x,y,-z
-x,y,z
x,-y,z
1/2+x,1/2+y,z
1/2-x,1/2-y,z
1/2+x,1/2-y,-z
1/2-x,1/2+y,-z
1/2-x,1/2-y,-z
1/2+x,1/2+y,-z
1/2-x,1/2+y,z
1/2+x,1/2-y,z
loop_
_atom_site_type_symbol
_atom_site_label
_atom_site_fract_x
_atom_site_fract_y
_atom_site_fract_z
Si Si1 0.131435 0.093973 0.785975
Si Si2 0.866443 0.345039 0.620207
Si Si3 0.631201 0.657655 0.330075
Si Si4 0.500000 0.099865 0.937286
Si Si5 0.861661 0.595400 0.500000
Si Si6 0.361946 0.596027 0.000000
Si Si7 0.758289 0.653873 0.110156
O O1 0.145493 0.157419 0.735697
O O2 0.214118 0.104090 0.837400
O O3 0.000000 0.103388 0.807187
O O4 0.142559 0.000000 0.762962
O O5 0.751188 0.383597 0.648580
O O6 0.871494 0.249850 0.642642
O O7 0.837365 0.354928 0.555841
O O8 0.000000 0.378469 0.628672
O O9 0.500000 0.621663 0.340148
O O10 0.612887 0.130129 0.906360
O O11 0.500000 0.000000 0.939315
O O12 0.500000 0.131538 0.000000
O O13 0.813033 0.500000 0.500000
O O14 0.000000 0.586375 0.500000
O O15 0.316470 0.637514 0.055443
O O16 0.318842 0.500000 0.000000
O O17 0.500000 0.596257 0.000000
O O18 0.750000 0.750000 0.125105
#
# Coordination Sequence:
#
# PCOD9493088 Si02
#       7
#    16  16  16   8   8   8  16
#     4  10  22  42  64  84 117 161 205 251 307 368
#     4   9  18  34  57  84 117 156 197 242 291 352
#     4   9  19  35  57  83 114 151 198 247 304 353
#     4  11  24  44  66  88 128 170 196 243 330 395
#     4   9  18  33  55  85 122 162 200 239 294 355
#     4  11  23  41  67  91 117 155 205 251 297 365
#     4  12  26  39  64  92 125 158 204 255 308 376
#
# _framework density 19.529405000000001
#
# number of rings (size 3 to 8) (size 9 to 14) (size 15 to 20)
#    0.000    1.909    0.909    2.455    5.091    3.636 
#    1.636    1.364    0.000    0.545    0.000    0.000 
#    0.000    0.000    0.000    0.000    0.000    0.000 
#
# Total GULP energy -245130.632579 kJ/mol
# GULP energy per Si atom -5571.150740 kJ/mol
# Density = 1.948496 g / cm^3
# Si number density = 19.529405 Si / 1000 Ang^3
#
#
#
# Elastic Constant Matrix: (Units=GPa)
#
#
# Indices 1 2 3 4 5 6 
#
# 1 160.9906 3.7540 61.6817 0.0000 0.0000 0.0000
# 2 3.7540 58.4501 26.5693 0.0000 0.0000 0.0000
# 3 61.6817 26.5693 127.3691 0.0000 0.0000 0.0000
# 4 0.0000 0.0000 0.0000 21.3789 0.0000 0.0000
# 5 0.0000 0.0000 0.0000 0.0000 36.3545 0.0000
# 6 0.0000 0.0000 0.0000 0.0000 0.0000 17.9055
#
#
#
# Elastic Compliance Matrix: (Units=1/GPa)
#
#
# Indices 1 2 3 4 5 6 
#
# 1 0.007719 0.001330 -0.004015 0.000000 0.000000 0.000000
# 2 0.001330 0.019130 -0.004634 0.000000 0.000000 0.000000
# 3 -0.004015 -0.004634 0.010763 0.000000 0.000000 0.000000
# 4 0.000000 0.000000 0.000000 0.046775 0.000000 0.000000
# 5 0.000000 0.000000 0.000000 0.000000 0.027507 0.000000
# 6 0.000000 0.000000 0.000000 0.000000 0.000000 0.055849
#
#
# Mechanical properties :
#
#
# Convention : Reuss Voigt Hill
#
# Bulk Modulus (GPa) = 43.53356 58.97996 51.25676
# Shear Modulus (GPa) = 26.31027 32.11476 29.21252
#
# Velocity S-wave (km/s) = 3.67442 4.05956 3.87178
# Velocity P-wave (km/s) = 6.35150 7.22769 6.80371
#
# Compressibility (1/GPa) = 0.02297079
#
# Stress axis : x y z
#
# Youngs Moduli (GPa) = 129.55016 52.27435 92.91503
#
# Poissons Ratio (x) = -0.06950 0.37310
# Poissons Ratio (y) = -0.17224 0.43060
# Poissons Ratio (z) = 0.52020 0.24226
#
# Static dielectric constant tensor:
#      x y z
#    x 1.713220 0.000000 0.000000 
#    y 0.000000 1.717800 0.000000 
#    z 0.000000 0.000000 1.681620 
# 
# From -- ./inp_files/61513.got.cif
#   From: 2010.05.17/outbox.cif.g08.bks.cpg/sg65_31_cif.got.tgz:61513.got - 2010.06.03 17:01:31.
