data_PCOD9493313
_publ_section_title
;
Structure prediction by ZEFSAII (Michael W. Deem and Ramdas Pophale) SiO2 
 PCOD9493313
Probable space group: C M M M
;
_chemical_formula_sum "Si O2"
_cell_formula_units_Z 104
_cell_length_a 31.162472
_cell_length_b 23.367952
_cell_length_c 8.310288
_cell_angle_alpha 90.000000
_cell_angle_beta 90.000000
_cell_angle_gamma 90.000000
_cell_volume 6051.577898
_symmetry_space_group_name_H-M "C M M M"
_symmetry_group_IT_number 65
_symmetry_cell_setting 'orthorhombic'
loop_
_space_group_symop_operation_xyz
x,y,z
-x,-y,z
x,-y,-z
-x,y,-z
-x,-y,-z
x,y,-z
-x,y,z
x,-y,z
1/2+x,1/2+y,z
1/2-x,1/2-y,z
1/2+x,1/2-y,-z
1/2-x,1/2+y,-z
1/2-x,1/2-y,-z
1/2+x,1/2+y,-z
1/2-x,1/2+y,z
1/2+x,1/2-y,z
loop_
_atom_site_type_symbol
_atom_site_label
_atom_site_fract_x
_atom_site_fract_y
_atom_site_fract_z
Si Si1 0.548945 0.153592 0.196581
Si Si2 0.603024 0.390549 0.692206
Si Si3 0.450769 0.500000 0.807379
Si Si4 0.450977 0.284231 0.194199
Si Si5 0.306064 0.433268 0.303353
Si Si6 0.120310 0.565245 0.192532
Si Si7 0.712627 0.930546 0.313118
O O1 0.500000 0.139783 0.244846
O O2 0.558503 0.219013 0.245460
O O3 0.583968 0.108217 0.254589
O O4 0.549509 0.153049 0.000000
O O5 0.603974 0.393406 0.500000
O O6 0.574393 0.443603 0.751881
O O7 0.581608 0.331460 0.744212
O O8 0.651988 0.399204 0.750385
O O9 0.500000 0.500000 0.747710
O O10 0.451901 0.500000 0.000000
O O11 0.500000 0.297890 0.244942
O O12 0.450435 0.285295 0.000000
O O13 0.304447 0.432479 0.500000
O O14 0.311611 0.500000 0.257203
O O15 0.259200 0.411883 0.248006
O O16 0.115802 0.500000 0.255552
O O17 0.168552 0.586201 0.228490
O O18 0.115626 0.562409 0.000000
O O19 0.709331 0.913947 0.500000
O O20 0.714462 0.000000 0.306748
#
# Coordination Sequence:
#
# PCOD9493313 Si02
#       7
#    16  16   8  16  16  16  16
#     4   8  15  29  48  67  90 125 159 183 219 275
#     4  11  20  31  49  70  91 115 152 201 242 270
#     4  11  23  35  45  63  95 129 155 183 230 289
#     4   9  18  33  49  63  85 121 161 191 221 275
#     4   8  14  27  45  64  87 116 149 184 226 274
#     4   9  16  26  44  73 101 117 142 190 234 264
#     4   8  14  26  45  64  87 122 153 174 213 278
#
# _framework density 17.185600999999998
#
# number of rings (size 3 to 8) (size 9 to 14) (size 15 to 20)
#    0.000    3.000    0.769    3.000    0.000    3.077 
#    0.000    3.846    0.000    2.308    0.000    8.615 
#    0.000    0.000    0.000    0.000    0.000    0.000 
#
# Total GULP energy -289623.200698 kJ/mol
# GULP energy per Si atom -5569.676936 kJ/mol
# Density = 1.714649 g / cm^3
# Si number density = 17.185601 Si / 1000 Ang^3
#
#
#
# Elastic Constant Matrix: (Units=GPa)
#
#
# Indices 1 2 3 4 5 6 
#
# 1 183.0856 99.3794 15.6391 0.0000 0.0000 0.0000
# 2 99.3794 87.9506 12.5044 0.0000 0.0000 0.0000
# 3 15.6391 12.5044 8.2884 0.0000 0.0000 0.0000
# 4 0.0000 0.0000 0.0000 2.6490 0.0000 0.0000
# 5 0.0000 0.0000 0.0000 0.0000 22.6953 0.0000
# 6 0.0000 0.0000 0.0000 0.0000 0.0000 26.0499
#
#
#
# Elastic Compliance Matrix: (Units=1/GPa)
#
#
# Indices 1 2 3 4 5 6 
#
# 1 0.014196 -0.015573 -0.003292 0.000000 0.000000 0.000000
# 2 -0.015573 0.031558 -0.018226 0.000000 0.000000 0.000000
# 3 -0.003292 -0.018226 0.154358 0.000000 0.000000 0.000000
# 4 0.000000 0.000000 0.000000 0.377504 0.000000 0.000000
# 5 0.000000 0.000000 0.000000 0.000000 0.044062 0.000000
# 6 0.000000 0.000000 0.000000 0.000000 0.000000 0.038388
#
#
# Mechanical properties :
#
#
# Convention : Reuss Voigt Hill
#
# Bulk Modulus (GPa) = 7.94090 59.37448 33.65769
# Shear Modulus (GPa) = 6.44144 20.39896 13.42020
#
# Velocity S-wave (km/s) = 1.93812 3.44900 2.79749
# Velocity P-wave (km/s) = 3.10469 7.10526 5.48287
#
# Compressibility (1/GPa) = 0.12593033
#
# Stress axis : x y z
#
# Youngs Moduli (GPa) = 70.44213 31.68807 6.47843
#
# Poissons Ratio (x) = 0.49347 0.02133
# Poissons Ratio (y) = 1.09697 0.11808
# Poissons Ratio (z) = 0.23191 0.57755
#
# Static dielectric constant tensor:
#      x y z
#    x 1.609380 0.000000 0.000000 
#    y 0.000000 1.569880 0.000000 
#    z 0.000000 0.000000 1.606740 
# 
# From -- ./inp_files/18889.got.cif
#   From: 2010.05.17/outbox.cif.g08.bks.cpg/sg65_10_cif.got.tgz:18889.got - 2010.06.03 17:01:31.
