data_PCOD9493349
_publ_section_title
;
Structure prediction by ZEFSAII (Michael W. Deem and Ramdas Pophale) SiO2 
 PCOD9493349
Probable space group: C M M M
;
_chemical_formula_sum "Si O2"
_cell_formula_units_Z 88
_cell_length_a 22.163797
_cell_length_b 10.260694
_cell_length_c 23.483812
_cell_angle_alpha 90.000000
_cell_angle_beta 90.000000
_cell_angle_gamma 90.000000
_cell_volume 5340.593155
_symmetry_space_group_name_H-M "C M M M"
_symmetry_group_IT_number 65
_symmetry_cell_setting 'orthorhombic'
loop_
_space_group_symop_operation_xyz
x,y,z
-x,-y,z
x,-y,-z
-x,y,-z
-x,-y,-z
x,y,-z
-x,y,z
x,-y,z
1/2+x,1/2+y,z
1/2-x,1/2-y,z
1/2+x,1/2-y,-z
1/2-x,1/2+y,-z
1/2-x,1/2-y,-z
1/2+x,1/2+y,-z
1/2-x,1/2+y,z
1/2+x,1/2-y,z
loop_
_atom_site_type_symbol
_atom_site_label
_atom_site_fract_x
_atom_site_fract_y
_atom_site_fract_z
Si Si1 0.874252 0.229222 0.877025
Si Si2 0.811099 0.838840 0.236963
Si Si3 0.196321 0.000000 0.936077
Si Si4 0.000000 0.155808 0.934029
Si Si5 0.325843 0.000000 0.567206
Si Si6 0.821528 0.000000 0.435421
Si Si7 0.340322 0.000000 0.933623
Si Si8 0.323123 0.255087 0.636210
O O1 0.859126 0.201876 0.811194
O O2 0.940843 0.196926 0.899295
O O3 0.860335 0.373062 0.899266
O O4 0.828697 0.128560 0.907006
O O5 0.750000 0.750000 0.226695
O O6 0.835458 0.791058 0.298332
O O7 0.800768 0.000000 0.236686
O O8 0.267954 0.000000 0.935494
O O9 0.172703 0.000000 0.000000
O O10 0.000000 0.000000 0.937305
O O11 0.000000 0.205040 0.000000
O O12 0.344459 0.124421 0.604976
O O13 0.344452 0.000000 0.500000
O O14 0.252156 0.000000 0.565362
O O15 0.843005 0.873807 0.402666
O O16 0.840904 0.000000 0.500000
O O17 0.361458 0.000000 0.000000
O O18 0.250000 0.250000 0.634466
#
# Coordination Sequence:
#
# PCOD9493349 Si02
#       8
#    16  16   8   8   8   8   8  16
#     4  12  24  38  59  82 109 142 182 223 274 335
#     4  11  22  35  53  76 106 141 182 227 273 329
#     4  11  20  36  58  81 108 140 174 219 270 328
#     4  11  22  41  65  83 105 141 184 227 273 336
#     4   9  16  25  39  62  93 135 183 221 255 305
#     4   9  14  23  37  56  85 127 171 211 247 291
#     4  11  24  38  56  85 114 136 168 221 280 328
#     4   9  17  26  40  61  93 131 174 218 258 307
#
# _framework density 16.47757
#
# number of rings (size 3 to 8) (size 9 to 14) (size 15 to 20)
#    0.000    1.545    2.727    3.818    5.091    4.000 
#    0.000    0.909    0.000    0.000    0.000    0.000 
#    0.000    0.000    0.000    4.909    0.000    2.273 
#
# Total GULP energy -245124.357666 kJ/mol
# GULP energy per Si atom -5571.008129 kJ/mol
# Density = 1.644007 g / cm^3
# Si number density = 16.477570 Si / 1000 Ang^3
#
#
#
# Elastic Constant Matrix: (Units=GPa)
#
#
# Indices 1 2 3 4 5 6 
#
# 1 50.1610 27.2818 41.0107 0.0000 0.0000 0.0000
# 2 27.2818 171.4505 86.0303 0.0000 0.0000 0.0000
# 3 41.0107 86.0303 185.9253 0.0000 0.0000 0.0000
# 4 0.0000 0.0000 0.0000 33.4969 0.0000 0.0000
# 5 0.0000 0.0000 0.0000 0.0000 -61.3307 0.0000
# 6 0.0000 0.0000 0.0000 0.0000 0.0000 17.5184
#
#
#
# Elastic Compliance Matrix: (Units=1/GPa)
#
#
# Indices 1 2 3 4 5 6 
#
# 1 0.024636 -0.001554 -0.004715 0.000000 0.000000 0.000000
# 2 -0.001554 0.007694 -0.003217 0.000000 0.000000 0.000000
# 3 -0.004715 -0.003217 0.007907 0.000000 0.000000 0.000000
# 4 0.000000 0.000000 0.000000 0.029854 0.000000 0.000000
# 5 0.000000 0.000000 0.000000 0.000000 -0.016305 0.000000
# 6 0.000000 0.000000 0.000000 0.000000 0.000000 0.057083
#
#
# Mechanical properties :
#
#
# Convention : Reuss Voigt Hill
#
# Bulk Modulus (GPa) = 47.02727 79.57583 63.30155
# Shear Modulus (GPa) = 36.51490 14.81784 25.66637
#
# Velocity S-wave (km/s) = 4.71259 3.00204 3.95100
# Velocity P-wave (km/s) = 7.62977 7.77268 7.70156
#
# Compressibility (1/GPa) = 0.02126426
#
# Stress axis : x y z
#
# Youngs Moduli (GPa) = 40.59104 129.96532 126.46601
#
# Poissons Ratio (x) = 0.20201 0.59628
# Poissons Ratio (y) = 0.06309 0.40690
# Poissons Ratio (z) = 0.19138 0.41816
#
# Static dielectric constant tensor:
#      x y z
#    x 1.520940 0.000000 0.000000 
#    y 0.000000 1.695670 0.000000 
#    z 0.000000 0.000000 1.589930 
# 
# From -- ./inp_files/71118.got.cif
#   From: 2010.05.17/outbox.cif.g08.bks.cpg/sg65_36_cif.got.tgz:71118.got - 2010.06.03 17:01:31.
