data_PCOD9493589
_publ_section_title
;
Structure prediction by ZEFSAII (Michael W. Deem and Ramdas Pophale) SiO2 
 PCOD9493589
Probable space group: C M M M
;
_chemical_formula_sum "Si O2"
_cell_formula_units_Z 72
_cell_length_a 14.792303
_cell_length_b 15.547023
_cell_length_c 15.802707
_cell_angle_alpha 90.000000
_cell_angle_beta 90.000000
_cell_angle_gamma 90.000000
_cell_volume 3634.247690
_symmetry_space_group_name_H-M "C M M M"
_symmetry_group_IT_number 65
_symmetry_cell_setting 'orthorhombic'
loop_
_space_group_symop_operation_xyz
x,y,z
-x,-y,z
x,-y,-z
-x,y,-z
-x,-y,-z
x,y,-z
-x,y,z
x,-y,z
1/2+x,1/2+y,z
1/2-x,1/2-y,z
1/2+x,1/2-y,-z
1/2-x,1/2+y,-z
1/2-x,1/2-y,-z
1/2+x,1/2+y,-z
1/2-x,1/2+y,z
1/2+x,1/2-y,z
loop_
_atom_site_type_symbol
_atom_site_label
_atom_site_fract_x
_atom_site_fract_y
_atom_site_fract_z
Si Si1 0.603006 0.396489 0.092122
Si Si2 0.797473 0.655473 0.595642
Si Si3 0.397746 0.896582 0.094308
Si Si4 0.746942 0.648570 0.771188
Si Si5 0.000000 0.599605 0.601280
O O1 0.500000 0.366412 0.098870
O O2 0.602447 0.500000 0.089288
O O3 0.660630 0.372080 0.172549
O O4 0.639310 0.367059 0.000000
O O5 0.788904 0.618616 0.500000
O O6 0.750000 0.750000 0.589846
O O7 0.751299 0.610369 0.676701
O O8 0.905320 0.649513 0.619286
O O9 0.500000 0.865918 0.109441
O O10 0.331414 0.874592 0.169709
O O11 0.399927 0.000000 0.090289
O O12 0.369368 0.866322 0.000000
O O13 0.750000 0.750000 0.759646
O O14 0.000000 0.500000 0.635647
O O15 0.000000 0.591717 0.500000
#
# Coordination Sequence:
#
# PCOD9493589 Si02
#       5
#    16  16  16  16   8
#     4   9  19  37  58  77 102 142 186 222 263 323
#     4   9  20  39  56  79 115 155 190 229 289 354
#     4   9  19  35  53  75 106 143 178 213 265 335
#     4  11  22  33  51  82 108 138 177 226 272 328
#     4   9  18  34  60  90 112 138 192 253 288 326
#
# _framework density 19.811527999999999
#
# number of rings (size 3 to 8) (size 9 to 14) (size 15 to 20)
#    0.000    2.556    0.000    2.667    1.556    6.222 
#    6.000    2.222    0.000    0.000    0.000    1.556 
#    0.000    0.000    0.000    0.000    0.000    0.000 
#
# Total GULP energy -200418.486920 kJ/mol
# GULP energy per Si atom -5567.180192 kJ/mol
# Density = 1.976644 g / cm^3
# Si number density = 19.811528 Si / 1000 Ang^3
#
#
#
# Elastic Constant Matrix: (Units=GPa)
#
#
# Indices 1 2 3 4 5 6 
#
# 1 104.0366 21.6385 66.5777 0.0000 0.0000 0.0000
# 2 21.6385 45.9052 7.0600 0.0000 0.0000 0.0000
# 3 66.5777 7.0600 194.2729 0.0000 0.0000 0.0000
# 4 0.0000 0.0000 0.0000 27.7660 0.0000 0.0000
# 5 0.0000 0.0000 0.0000 0.0000 66.7861 0.0000
# 6 0.0000 0.0000 0.0000 0.0000 0.0000 32.9023
#
#
#
# Elastic Compliance Matrix: (Units=1/GPa)
#
#
# Indices 1 2 3 4 5 6 
#
# 1 0.013675 -0.005757 -0.004477 0.000000 0.000000 0.000000
# 2 -0.005757 0.024330 0.001089 0.000000 0.000000 0.000000
# 3 -0.004477 0.001089 0.006642 0.000000 0.000000 0.000000
# 4 0.000000 0.000000 0.000000 0.036015 0.000000 0.000000
# 5 0.000000 0.000000 0.000000 0.000000 0.014973 0.000000
# 6 0.000000 0.000000 0.000000 0.000000 0.000000 0.030393
#
#
# Mechanical properties :
#
#
# Convention : Reuss Voigt Hill
#
# Bulk Modulus (GPa) = 37.94192 59.41859 48.68025
# Shear Modulus (GPa) = 32.65736 42.08678 37.37207
#
# Velocity S-wave (km/s) = 4.06446 4.61408 4.34796
# Velocity P-wave (km/s) = 6.42024 7.64482 7.05913
#
# Compressibility (1/GPa) = 0.02635607
#
# Stress axis : x y z
#
# Youngs Moduli (GPa) = 73.12867 41.10085 150.55414
#
# Poissons Ratio (x) = 0.23663 0.67404
# Poissons Ratio (y) = 0.42102 -0.16393
# Poissons Ratio (z) = 0.32740 -0.04475
#
# Static dielectric constant tensor:
#      x y z
#    x 1.810900 0.000000 0.000000 
#    y 0.000000 1.732970 0.000000 
#    z 0.000000 0.000000 1.772440 
# 
# From -- ./inp_files/39763.got.cif
#   From: 2010.05.17/outbox.cif.g08.bks.cpg/sg65_20_cif.got.tgz:39763.got - 2010.06.03 17:01:31.
