data_PCOD9493660
_publ_section_title
;
Structure prediction by ZEFSAII (Michael W. Deem and Ramdas Pophale) SiO2 
 PCOD9493660
Probable space group: C M M M
;
_chemical_formula_sum "Si O2"
_cell_formula_units_Z 96
_cell_length_a 28.629237
_cell_length_b 20.997292
_cell_length_c 8.295309
_cell_angle_alpha 90.000000
_cell_angle_beta 90.000000
_cell_angle_gamma 90.000000
_cell_volume 4986.612596
_symmetry_space_group_name_H-M "C M M M"
_symmetry_group_IT_number 65
_symmetry_cell_setting 'orthorhombic'
loop_
_space_group_symop_operation_xyz
x,y,z
-x,-y,z
x,-y,-z
-x,y,-z
-x,-y,-z
x,y,-z
-x,y,z
x,-y,z
1/2+x,1/2+y,z
1/2-x,1/2-y,z
1/2+x,1/2-y,-z
1/2-x,1/2+y,-z
1/2-x,1/2-y,-z
1/2+x,1/2+y,-z
1/2-x,1/2+y,z
1/2+x,1/2-y,z
loop_
_atom_site_type_symbol
_atom_site_label
_atom_site_fract_x
_atom_site_fract_y
_atom_site_fract_z
Si Si1 0.446662 0.427894 0.305677
Si Si2 0.622246 0.927777 0.803512
Si Si3 0.784621 0.805389 0.692146
Si Si4 0.609899 0.307700 0.192053
Si Si5 0.946360 0.684023 0.197451
Si Si6 0.729427 0.072822 0.194806
O O1 0.446813 0.428160 0.500000
O O2 0.500000 0.413411 0.252332
O O3 0.435239 0.500000 0.251999
O O4 0.411107 0.374571 0.248959
O O5 0.585503 0.875179 0.749068
O O6 0.675717 0.913482 0.755292
O O7 0.610924 0.000000 0.752791
O O8 0.621985 0.927452 0.000000
O O9 0.786306 0.800503 0.500000
O O10 0.750000 0.750000 0.754825
O O11 0.836856 0.798190 0.756281
O O12 0.763498 0.873751 0.738759
O O13 0.577625 0.249592 0.251890
O O14 0.608156 0.306617 0.000000
O O15 0.000000 0.679266 0.249305
O O16 0.946254 0.683774 0.000000
O O17 0.740521 0.000000 0.243639
O O18 0.730931 0.074860 0.000000
#
# Coordination Sequence:
#
# PCOD9493660 Si02
#       6
#    16  16  16  16  16  16
#     4   9  19  37  59  81 108 143 179 217 265 319
#     4   8  14  26  46  72 102 136 170 203 243 295
#     4  11  24  39  55  77 105 138 179 226 274 326
#     4  11  22  35  54  78 106 141 178 220 269 318
#     4   9  17  28  44  71 105 136 168 207 249 294
#     4   9  18  34  56  80 106 138 176 215 259 316
#
# _framework density 19.251546999999999
#
# number of rings (size 3 to 8) (size 9 to 14) (size 15 to 20)
#    0.000    2.500    0.000    4.000    0.000    5.333 
#    0.000    2.500    0.000    0.000    0.000    0.000 
#    0.000    0.000    0.000   21.167    0.000   19.000 
#
# Total GULP energy -267934.167431 kJ/mol
# GULP energy per Si atom -5581.961821 kJ/mol
# Density = 1.920773 g / cm^3
# Si number density = 19.251547 Si / 1000 Ang^3
#
#
#
# Elastic Constant Matrix: (Units=GPa)
#
#
# Indices 1 2 3 4 5 6 
#
# 1 39.6868 4.5225 -2.0685 0.0000 0.0000 0.0000
# 2 4.5225 43.3294 -0.6031 0.0000 0.0000 0.0000
# 3 -2.0685 -0.6031 10.3231 0.0000 0.0000 0.0000
# 4 0.0000 0.0000 0.0000 12.9680 0.0000 0.0000
# 5 0.0000 0.0000 0.0000 0.0000 -19.5855 0.0000
# 6 0.0000 0.0000 0.0000 0.0000 0.0000 40.3918
#
#
#
# Elastic Compliance Matrix: (Units=1/GPa)
#
#
# Indices 1 2 3 4 5 6 
#
# 1 0.025757 -0.002619 0.005008 0.000000 0.000000 0.000000
# 2 -0.002619 0.023364 0.000840 0.000000 0.000000 0.000000
# 3 0.005008 0.000840 0.097922 0.000000 0.000000 0.000000
# 4 0.000000 0.000000 0.000000 0.077113 0.000000 0.000000
# 5 0.000000 0.000000 0.000000 0.000000 -0.051058 0.000000
# 6 0.000000 0.000000 0.000000 0.000000 0.000000 0.024757
#
#
# Mechanical properties :
#
#
# Convention : Reuss Voigt Hill
#
# Bulk Modulus (GPa) = 6.51456 10.78234 8.64845
# Shear Modulus (GPa) = 20.61314 12.85408 16.73361
#
# Velocity S-wave (km/s) = 3.27575 2.58677 2.95143
# Velocity P-wave (km/s) = 4.20697 3.81245 4.01456
#
# Compressibility (1/GPa) = 0.15350242
#
# Stress axis : x y z
#
# Youngs Moduli (GPa) = 38.82480 42.80080 10.21217
#
# Poissons Ratio (x) = 0.11208 -0.05114
# Poissons Ratio (y) = 0.10167 -0.00858
# Poissons Ratio (z) = -0.19443 -0.03597
#
# Static dielectric constant tensor:
#      x y z
#    x 1.649800 0.000000 0.000000 
#    y 0.000000 1.666100 0.000000 
#    z 0.000000 0.000000 1.669840 
# 
# From -- ./inp_files/16356.got.cif
#   From: 2010.05.17/outbox.cif.g08.bks.cpg/sg65_9_cif.got.tgz:16356.got - 2010.06.03 17:01:31.
