data_PCOD9493376
_publ_section_title
;
Structure prediction by ZEFSAII (Michael W. Deem and Ramdas Pophale) SiO2 
 PCOD9493376
Probable space group: C M M M
;
_chemical_formula_sum "Si O2"
_cell_formula_units_Z 72
_cell_length_a 8.934856
_cell_length_b 23.994259
_cell_length_c 21.224998
_cell_angle_alpha 90.000000
_cell_angle_beta 90.000000
_cell_angle_gamma 90.000000
_cell_volume 4550.326481
_symmetry_space_group_name_H-M "C M M M"
_symmetry_group_IT_number 65
_symmetry_cell_setting 'orthorhombic'
loop_
_space_group_symop_operation_xyz
x,y,z
-x,-y,z
x,-y,-z
-x,y,-z
-x,-y,-z
x,y,-z
-x,y,z
x,-y,z
1/2+x,1/2+y,z
1/2-x,1/2-y,z
1/2+x,1/2-y,-z
1/2-x,1/2+y,-z
1/2-x,1/2-y,-z
1/2+x,1/2+y,-z
1/2-x,1/2+y,z
1/2+x,1/2-y,z
loop_
_atom_site_type_symbol
_atom_site_label
_atom_site_fract_x
_atom_site_fract_y
_atom_site_fract_z
Si Si1 0.671224 0.932326 0.371145
Si Si2 0.679872 0.434898 0.239054
Si Si3 0.820717 0.114596 0.889892
Si Si4 0.672729 0.567974 0.500000
Si Si5 0.669168 0.000000 0.925915
Si Si6 0.680250 0.188619 0.000000
O O1 0.500000 0.913771 0.368598
O O2 0.755830 0.918232 0.306723
O O3 0.748342 0.913177 0.435694
O O4 0.671922 0.000000 0.373515
O O5 0.500000 0.436804 0.241640
O O6 0.728658 0.500000 0.225520
O O7 0.719597 0.390556 0.184410
O O8 0.766075 0.053889 0.910997
O O9 0.000000 0.121266 0.895962
O O10 0.739303 0.157104 0.937046
O O11 0.678097 0.500000 0.500000
O O12 0.500000 0.584253 0.500000
O O13 0.500000 0.000000 0.897225
O O14 0.648048 0.000000 0.000000
O O15 0.750000 0.250000 0.000000
O O16 0.500000 0.189223 0.000000
#
# Coordination Sequence:
#
# PCOD9493376 Si02
#       6
#    16  16  16   8   8   8
#     4   9  16  24  35  54  80 113 152 194 232 269
#     4   9  17  29  43  64  92 122 154 188 233 285
#     4  11  21  35  54  74  97 127 158 198 244 290
#     4   9  15  23  35  49  71 111 156 195 228 267
#     4  11  21  31  47  75 102 125 154 193 238 290
#     4  12  26  43  58  75  94 122 160 200 242 292
#
# _framework density 15.823040000000001
#
# number of rings (size 3 to 8) (size 9 to 14) (size 15 to 20)
#    0.000    2.000    2.222    3.000    0.000    6.222 
#    0.000    0.000    0.000    0.000    0.000    0.000 
#    0.000    0.000    0.000    1.000    0.000   13.444 
#
# Total GULP energy -200463.526421 kJ/mol
# GULP energy per Si atom -5568.431289 kJ/mol
# Density = 1.578703 g / cm^3
# Si number density = 15.823040 Si / 1000 Ang^3
#
#
#
# Elastic Constant Matrix: (Units=GPa)
#
#
# Indices 1 2 3 4 5 6 
#
# 1 74.0081 24.7737 63.3559 0.0000 0.0000 0.0000
# 2 24.7737 60.0563 40.2182 0.0000 0.0000 0.0000
# 3 63.3559 40.2182 162.7071 0.0000 0.0000 0.0000
# 4 0.0000 0.0000 0.0000 0.9934 0.0000 0.0000
# 5 0.0000 0.0000 0.0000 0.0000 15.3968 0.0000
# 6 0.0000 0.0000 0.0000 0.0000 0.0000 17.9305
#
#
#
# Elastic Compliance Matrix: (Units=1/GPa)
#
#
# Indices 1 2 3 4 5 6 
#
# 1 0.020973 -0.003814 -0.007224 0.000000 0.000000 0.000000
# 2 -0.003814 0.020648 -0.003619 0.000000 0.000000 0.000000
# 3 -0.007224 -0.003619 0.009853 0.000000 0.000000 0.000000
# 4 0.000000 0.000000 0.000000 1.006666 0.000000 0.000000
# 5 0.000000 0.000000 0.000000 0.000000 0.064948 0.000000
# 6 0.000000 0.000000 0.000000 0.000000 0.000000 0.055771
#
#
# Mechanical properties :
#
#
# Convention : Reuss Voigt Hill
#
# Bulk Modulus (GPa) = 45.12411 61.49637 53.31024
# Shear Modulus (GPa) = 4.11333 18.09238 11.10285
#
# Velocity S-wave (km/s) = 1.61407 3.38512 2.65182
# Velocity P-wave (km/s) = 5.66158 7.36398 6.56817
#
# Compressibility (1/GPa) = 0.02216110
#
# Stress axis : x y z
#
# Youngs Moduli (GPa) = 47.68092 48.43177 101.48863
#
# Poissons Ratio (x) = 0.18471 0.73313
# Poissons Ratio (y) = 0.18185 0.36725
# Poissons Ratio (z) = 0.34444 0.17526
#
# Static dielectric constant tensor:
#      x y z
#    x 1.546680 0.000000 0.000000 
#    y 0.000000 1.501770 0.000000 
#    z 0.000000 0.000000 1.573120 
# 
# From -- ./inp_files/59548.got.cif
#   From: 2010.05.17/outbox.cif.g08.bks.cpg/sg65_30_cif.got.tgz:59548.got - 2010.06.03 17:01:31.
