data_PCOD9493016
_publ_section_title
;
Structure prediction by ZEFSAII (Michael W. Deem and Ramdas Pophale) SiO2 
 PCOD9493016
Probable space group: C M M M
;
_chemical_formula_sum "Si O2"
_cell_formula_units_Z 64
_cell_length_a 10.619387
_cell_length_b 14.640461
_cell_length_c 20.355834
_cell_angle_alpha 90.000000
_cell_angle_beta 90.000000
_cell_angle_gamma 90.000000
_cell_volume 3164.776905
_symmetry_space_group_name_H-M "C M M M"
_symmetry_group_IT_number 65
_symmetry_cell_setting 'orthorhombic'
loop_
_space_group_symop_operation_xyz
x,y,z
-x,-y,z
x,-y,-z
-x,y,-z
-x,-y,-z
x,y,-z
-x,y,z
x,-y,z
1/2+x,1/2+y,z
1/2-x,1/2-y,z
1/2+x,1/2-y,-z
1/2-x,1/2+y,-z
1/2-x,1/2-y,-z
1/2+x,1/2+y,-z
1/2-x,1/2+y,z
1/2+x,1/2-y,z
loop_
_atom_site_type_symbol
_atom_site_label
_atom_site_fract_x
_atom_site_fract_y
_atom_site_fract_z
Si Si1 0.500000 0.836120 0.926340
Si Si2 0.241714 0.397429 0.846036
Si Si3 0.000000 0.121681 0.925489
Si Si4 0.250000 0.250000 0.607739
Si Si5 0.649083 0.892658 0.500000
Si Si6 0.353468 0.608111 0.710063
O O1 0.628283 0.855835 0.887199
O O2 0.500000 0.729032 0.932188
O O3 0.500000 0.878109 0.000000
O O4 0.199110 0.500000 0.834122
O O5 0.372135 0.400455 0.886593
O O6 0.273230 0.361558 0.773555
O O7 0.000000 0.087695 0.000000
O O8 0.313655 0.172491 0.561485
O O9 0.334007 0.315957 0.654013
O O10 0.500000 0.901537 0.500000
O O11 0.698931 0.000000 0.500000
O O12 0.500000 0.607109 0.729346
O O13 0.323354 0.500000 0.692657
#
# Coordination Sequence:
#
# PCOD9493016 Si02
#       6
#     8  16   8   8   8  16
#     4  11  25  41  59  87 123 161 209 270 329 388
#     4  11  23  40  61  87 121 162 208 265 322 376
#     4  11  23  39  61  87 115 159 213 260 315 384
#     4  11  22  38  68  96 123 174 206 244 311 360
#     4  10  22  42  64  96 136 164 204 249 292 362
#     4  10  22  40  61  92 128 163 214 265 309 373
#
# _framework density 20.222595999999999
#
# number of rings (size 3 to 8) (size 9 to 14) (size 15 to 20)
#    0.000    1.375    1.250    3.750    3.500    5.000 
#    2.250    0.000    0.000    6.000    0.000    0.000 
#    0.000    0.000    0.000    0.000    0.000    0.000 
#
# Total GULP energy -178231.424936 kJ/mol
# GULP energy per Si atom -5569.732029 kJ/mol
# Density = 2.017657 g / cm^3
# Si number density = 20.222596 Si / 1000 Ang^3
#
#
#
# Elastic Constant Matrix: (Units=GPa)
#
#
# Indices 1 2 3 4 5 6 
#
# 1 110.9700 47.4758 54.3380 0.0000 0.0000 0.0000
# 2 47.4758 153.5888 65.1860 0.0000 0.0000 0.0000
# 3 54.3380 65.1860 133.8020 0.0000 0.0000 0.0000
# 4 0.0000 0.0000 0.0000 30.4411 0.0000 0.0000
# 5 0.0000 0.0000 0.0000 0.0000 22.5306 0.0000
# 6 0.0000 0.0000 0.0000 0.0000 0.0000 37.3438
#
#
#
# Elastic Compliance Matrix: (Units=1/GPa)
#
#
# Indices 1 2 3 4 5 6 
#
# 1 0.011726 -0.002021 -0.003777 0.000000 0.000000 0.000000
# 2 -0.002021 0.008557 -0.003348 0.000000 0.000000 0.000000
# 3 -0.003777 -0.003348 0.010639 0.000000 0.000000 0.000000
# 4 0.000000 0.000000 0.000000 0.032850 0.000000 0.000000
# 5 0.000000 0.000000 0.000000 0.000000 0.044384 0.000000
# 6 0.000000 0.000000 0.000000 0.000000 0.000000 0.026778
#
#
# Mechanical properties :
#
#
# Convention : Reuss Voigt Hill
#
# Bulk Modulus (GPa) = 79.18651 81.37340 80.27996
# Shear Modulus (GPa) = 31.75906 33.48719 32.62313
#
# Velocity S-wave (km/s) = 3.96722 4.07373 4.02083
# Velocity P-wave (km/s) = 7.76064 7.90273 7.83201
#
# Compressibility (1/GPa) = 0.01262841
#
# Stress axis : x y z
#
# Youngs Moduli (GPa) = 85.28209 116.86935 93.99763
#
# Poissons Ratio (x) = 0.23625 0.35504
# Poissons Ratio (y) = 0.17240 0.31467
# Poissons Ratio (z) = 0.32212 0.39124
#
# Static dielectric constant tensor:
#      x y z
#    x 2.496500 0.000000 0.000000 
#    y 0.000000 1.744710 0.000000 
#    z 0.000000 0.000000 1.798350 
# 
# From -- ./inp_files/50964.got.cif
#   From: 2010.05.17/outbox.cif.g08.bks.cpg/sg65_26_cif.got.tgz:50964.got - 2010.06.03 17:01:31.
