data_PCOD9493053
_publ_section_title
;
Structure prediction by ZEFSAII (Michael W. Deem and Ramdas Pophale) SiO2 
 PCOD9493053
Probable space group: C M M M
;
_chemical_formula_sum "Si O2"
_cell_formula_units_Z 88
_cell_length_a 21.826905
_cell_length_b 23.440874
_cell_length_c 8.603283
_cell_angle_alpha 90.000000
_cell_angle_beta 90.000000
_cell_angle_gamma 90.000000
_cell_volume 4401.798597
_symmetry_space_group_name_H-M "C M M M"
_symmetry_group_IT_number 65
_symmetry_cell_setting 'orthorhombic'
loop_
_space_group_symop_operation_xyz
x,y,z
-x,-y,z
x,-y,-z
-x,y,-z
-x,-y,-z
x,y,-z
-x,y,z
x,-y,z
1/2+x,1/2+y,z
1/2-x,1/2-y,z
1/2+x,1/2-y,-z
1/2-x,1/2+y,-z
1/2-x,1/2-y,-z
1/2+x,1/2+y,-z
1/2-x,1/2+y,z
1/2+x,1/2-y,z
loop_
_atom_site_type_symbol
_atom_site_label
_atom_site_fract_x
_atom_site_fract_y
_atom_site_fract_z
Si Si1 0.072917 0.064511 0.827986
Si Si2 0.572013 0.752989 0.687769
Si Si3 0.257011 0.066399 0.187281
Si Si4 0.500000 0.932658 0.324143
Si Si5 0.883678 0.373867 0.814588
Si Si6 0.348142 0.352882 0.323537
O O1 0.096504 0.102321 0.689456
O O2 0.000000 0.062923 0.827837
O O3 0.096292 0.000000 0.815834
O O4 0.092107 0.086433 0.000000
O O5 0.570387 0.749398 0.500000
O O6 0.500000 0.747379 0.740168
O O7 0.600736 0.812976 0.738903
O O8 0.619622 0.704011 0.743202
O O9 0.321736 0.094168 0.237013
O O10 0.205553 0.111735 0.240056
O O11 0.249807 0.000000 0.241921
O O12 0.256190 0.063961 0.000000
O O13 0.500000 0.907783 0.500000
O O14 0.559464 0.912682 0.233181
O O15 0.500000 0.000000 0.335702
O O16 0.880548 0.366544 0.000000
O O17 0.328993 0.341425 0.500000
#
# Coordination Sequence:
#
# PCOD9493053 Si02
#       6
#    16  16  16   8  16  16
#     4   9  18  33  53  78 110 150 197 251 310 365
#     4  10  22  41  62  86 124 166 202 248 310 371
#     4  10  23  43  63  86 122 163 201 251 312 366
#     4  11  23  39  63  95 129 163 196 241 310 377
#     4  11  23  40  65  94 121 156 207 259 303 358
#     4  11  23  37  57  86 119 160 206 250 298 358
#
# _framework density 19.991827000000001
#
# number of rings (size 3 to 8) (size 9 to 14) (size 15 to 20)
#    0.000    1.727    0.909    3.545    0.000    9.091 
#    0.000    4.545    0.000    0.000    0.000    0.000 
#    0.000    0.000    0.000    0.000    0.000    0.000 
#
# Total GULP energy -245340.737368 kJ/mol
# GULP energy per Si atom -5575.925849 kJ/mol
# Density = 1.994632 g / cm^3
# Si number density = 19.991827 Si / 1000 Ang^3
#
#
#
# Elastic Constant Matrix: (Units=GPa)
#
#
# Indices 1 2 3 4 5 6 
#
# 1 141.9403 81.5332 15.3025 0.0000 0.0000 0.0000
# 2 81.5332 143.0695 17.0149 0.0000 0.0000 0.0000
# 3 15.3025 17.0149 9.3520 0.0000 0.0000 0.0000
# 4 0.0000 0.0000 0.0000 29.9276 0.0000 0.0000
# 5 0.0000 0.0000 0.0000 0.0000 24.1656 0.0000
# 6 0.0000 0.0000 0.0000 0.0000 0.0000 30.0626
#
#
#
# Elastic Compliance Matrix: (Units=1/GPa)
#
#
# Indices 1 2 3 4 5 6 
#
# 1 0.010966 -0.005252 -0.008389 0.000000 0.000000 0.000000
# 2 -0.005252 0.011435 -0.012211 0.000000 0.000000 0.000000
# 3 -0.008389 -0.012211 0.142872 0.000000 0.000000 0.000000
# 4 0.000000 0.000000 0.000000 0.033414 0.000000 0.000000
# 5 0.000000 0.000000 0.000000 0.000000 0.041381 0.000000
# 6 0.000000 0.000000 0.000000 0.000000 0.000000 0.033264
#
#
# Mechanical properties :
#
#
# Convention : Reuss Voigt Hill
#
# Bulk Modulus (GPa) = 8.80514 58.00701 33.40608
# Shear Modulus (GPa) = 13.77821 28.86523 21.32172
#
# Velocity S-wave (km/s) = 2.62809 3.80393 3.26931
# Velocity P-wave (km/s) = 3.69095 6.95496 5.56752
#
# Compressibility (1/GPa) = 0.11357001
#
# Stress axis : x y z
#
# Youngs Moduli (GPa) = 91.18735 87.45223 6.99928
#
# Poissons Ratio (x) = 0.45929 0.05872
# Poissons Ratio (y) = 0.47891 0.08547
# Poissons Ratio (z) = 0.76496 1.06785
#
# Static dielectric constant tensor:
#      x y z
#    x 1.722060 0.000000 0.000000 
#    y 0.000000 1.720170 0.000000 
#    z 0.000000 0.000000 1.733950 
# 
# From -- ./inp_files/11816.got.cif
#   From: 2010.05.17/outbox.cif.g08.bks.cpg/sg65_6_cif.got.tgz:11816.got - 2010.06.03 17:01:31.
