data_PCOD9493681
_publ_section_title
;
Structure prediction by ZEFSAII (Michael W. Deem and Ramdas Pophale) SiO2 
 PCOD9493681
Probable space group: C M M M
;
_chemical_formula_sum "Si O2"
_cell_formula_units_Z 64
_cell_length_a 8.425227
_cell_length_b 23.967208
_cell_length_c 18.991087
_cell_angle_alpha 90.000000
_cell_angle_beta 90.000000
_cell_angle_gamma 90.000000
_cell_volume 3834.854396
_symmetry_space_group_name_H-M "C M M M"
_symmetry_group_IT_number 65
_symmetry_cell_setting 'orthorhombic'
loop_
_space_group_symop_operation_xyz
x,y,z
-x,-y,z
x,-y,-z
-x,y,-z
-x,-y,-z
x,y,-z
-x,y,z
x,-y,z
1/2+x,1/2+y,z
1/2-x,1/2-y,z
1/2+x,1/2-y,-z
1/2-x,1/2+y,-z
1/2-x,1/2-y,-z
1/2+x,1/2+y,-z
1/2-x,1/2+y,z
1/2+x,1/2-y,z
loop_
_atom_site_type_symbol
_atom_site_label
_atom_site_fract_x
_atom_site_fract_y
_atom_site_fract_z
Si Si1 0.309524 0.382116 0.866215
Si Si2 0.807816 0.186145 0.730123
Si Si3 0.690089 0.000000 0.918027
Si Si4 0.189344 0.313030 0.000000
Si Si5 0.308246 0.685998 0.575616
O O1 0.500000 0.382941 0.865920
O O2 0.254035 0.353179 0.793767
O O3 0.248639 0.444382 0.879607
O O4 0.251568 0.344768 0.931247
O O5 0.750000 0.250000 0.739312
O O6 0.756629 0.164576 0.652429
O O7 0.000000 0.187591 0.731242
O O8 0.500000 0.000000 0.919523
O O9 0.745943 0.000000 0.000000
O O10 0.250000 0.250000 0.000000
O O11 0.000000 0.314086 0.000000
O O12 0.255386 0.661060 0.500000
O O13 0.500000 0.685292 0.575520
O O14 0.250000 0.750000 0.575161
#
# Coordination Sequence:
#
# PCOD9493681 Si02
#       5
#    16  16   8   8  16
#     4  11  22  36  54  74  97 127 162 203 248 291
#     4   9  18  30  46  72 102 131 162 195 236 285
#     4  11  23  39  57  75  93 120 161 209 250 294
#     4  12  24  37  52  73 100 130 164 198 238 292
#     4   8  13  23  40  63  94 129 160 190 226 273
#
# _framework density 16.689029999999999
#
# number of rings (size 3 to 8) (size 9 to 14) (size 15 to 20)
#    0.000    2.125    1.250    3.000    0.000    4.500 
#    0.000    0.000    0.000    0.000    0.000    0.875 
#    0.000    7.000    0.000    0.000    0.000    0.000 
#
# Total GULP energy -178338.216584 kJ/mol
# GULP energy per Si atom -5573.069268 kJ/mol
# Density = 1.665104 g / cm^3
# Si number density = 16.689030 Si / 1000 Ang^3
#
#
#
# Elastic Constant Matrix: (Units=GPa)
#
#
# Indices 1 2 3 4 5 6 
#
# 1 31.7823 19.4406 25.9610 0.0000 0.0000 0.0000
# 2 19.4406 112.2604 82.7319 0.0000 0.0000 0.0000
# 3 25.9610 82.7319 211.6154 0.0000 0.0000 0.0000
# 4 0.0000 0.0000 0.0000 0.9252 0.0000 0.0000
# 5 0.0000 0.0000 0.0000 0.0000 5.9300 0.0000
# 6 0.0000 0.0000 0.0000 0.0000 0.0000 23.7510
#
#
#
# Elastic Compliance Matrix: (Units=1/GPa)
#
#
# Indices 1 2 3 4 5 6 
#
# 1 0.036341 -0.004225 -0.002807 0.000000 0.000000 0.000000
# 2 -0.004225 0.013004 -0.004566 0.000000 0.000000 0.000000
# 3 -0.002807 -0.004566 0.006855 0.000000 0.000000 0.000000
# 4 0.000000 0.000000 0.000000 1.080883 0.000000 0.000000
# 5 0.000000 0.000000 0.000000 0.000000 0.168634 0.000000
# 6 0.000000 0.000000 0.000000 0.000000 0.000000 0.042104
#
#
# Mechanical properties :
#
#
# Convention : Reuss Voigt Hill
#
# Bulk Modulus (GPa) = 30.29795 67.99168 49.14482
# Shear Modulus (GPa) = 3.61790 21.28952 12.45371
#
# Velocity S-wave (km/s) = 1.47395 3.57551 2.73467
# Velocity P-wave (km/s) = 4.59244 7.60753 6.28351
#
# Compressibility (1/GPa) = 0.03300553
#
# Stress axis : x y z
#
# Youngs Moduli (GPa) = 27.51718 76.89740 145.88170
#
# Poissons Ratio (x) = 0.32489 0.40942
# Poissons Ratio (y) = 0.11626 0.66606
# Poissons Ratio (z) = 0.07723 0.35110
#
# Static dielectric constant tensor:
#      x y z
#    x 1.565100 0.000000 0.000000 
#    y 0.000000 1.517280 0.000000 
#    z 0.000000 0.000000 1.625620 
# 
# From -- ./inp_files/49403.got.cif
#   From: 2010.05.17/outbox.cif.g08.bks.cpg/sg65_25_cif.got.tgz:49403.got - 2010.06.03 17:01:31.
