data_PCOD9493296
_publ_section_title
;
Structure prediction by ZEFSAII (Michael W. Deem and Ramdas Pophale) SiO2 
 PCOD9493296
Probable space group: C M M M
;
_chemical_formula_sum "Si O2"
_cell_formula_units_Z 72
_cell_length_a 21.730914
_cell_length_b 19.034995
_cell_length_c 10.402151
_cell_angle_alpha 90.000000
_cell_angle_beta 90.000000
_cell_angle_gamma 90.000000
_cell_volume 4302.827286
_symmetry_space_group_name_H-M "C M M M"
_symmetry_group_IT_number 65
_symmetry_cell_setting 'orthorhombic'
loop_
_space_group_symop_operation_xyz
x,y,z
-x,-y,z
x,-y,-z
-x,y,-z
-x,-y,-z
x,y,-z
-x,y,z
x,-y,z
1/2+x,1/2+y,z
1/2-x,1/2-y,z
1/2+x,1/2-y,-z
1/2-x,1/2+y,-z
1/2-x,1/2-y,-z
1/2+x,1/2+y,-z
1/2-x,1/2+y,z
1/2+x,1/2-y,z
loop_
_atom_site_type_symbol
_atom_site_label
_atom_site_fract_x
_atom_site_fract_y
_atom_site_fract_z
Si Si1 0.889564 0.162255 0.258377
Si Si2 0.574241 0.758598 0.500000
Si Si3 0.705869 0.177323 0.500000
Si Si4 0.240803 0.917093 0.274635
Si Si5 0.350921 0.270153 0.000000
Si Si6 0.726700 0.864660 0.000000
Si Si7 0.000000 0.918264 0.648883
O O1 0.908499 0.213515 0.374066
O O2 0.825876 0.120601 0.275671
O O3 0.885940 0.206340 0.127914
O O4 0.942011 0.104847 0.268787
O O5 0.500000 0.776939 0.500000
O O6 0.632044 0.812387 0.500000
O O7 0.750000 0.250000 0.500000
O O8 0.722519 0.130660 0.375971
O O9 0.268806 0.908154 0.131598
O O10 0.237390 0.000000 0.307632
O O11 0.330402 0.189185 0.000000
O O12 0.287741 0.315497 0.000000
O O13 0.000000 0.889305 0.500000
O O14 0.000000 0.000000 0.633767
#
# Coordination Sequence:
#
# PCOD9493296 Si02
#       7
#    16   8   8  16   8   8   8
#     4  11  19  36  54  82 114 150 189 230 276 338
#     4  12  22  38  57  79 114 152 196 234 282 340
#     4  12  23  36  59  87 117 147 193 252 285 329
#     4  11  22  36  59  88 118 148 187 234 292 347
#     4   9  20  31  57  80 109 144 188 234 281 325
#     4   9  19  36  54  80 115 149 182 226 291 348
#     4  11  22  35  51  75 115 165 196 222 273 344
#
# _framework density 16.733183
#
# number of rings (size 3 to 8) (size 9 to 14) (size 15 to 20)
#    0.000    1.222    4.444    2.667    3.111    0.444 
#    0.000    2.222    0.000    1.333    0.000    0.000 
#    0.000    3.556    0.000    0.000    0.000    0.000 
#
# Total GULP energy -200484.732928 kJ/mol
# GULP energy per Si atom -5569.020359 kJ/mol
# Density = 1.669510 g / cm^3
# Si number density = 16.733183 Si / 1000 Ang^3
#
#
#
# Elastic Constant Matrix: (Units=GPa)
#
#
# Indices 1 2 3 4 5 6 
#
# 1 120.9733 62.8690 65.5702 0.0000 0.0000 0.0000
# 2 62.8690 73.3048 45.3347 0.0000 0.0000 0.0000
# 3 65.5702 45.3347 127.6310 0.0000 0.0000 0.0000
# 4 0.0000 0.0000 0.0000 6.2144 0.0000 0.0000
# 5 0.0000 0.0000 0.0000 0.0000 16.7802 0.0000
# 6 0.0000 0.0000 0.0000 0.0000 0.0000 54.1407
#
#
#
# Elastic Compliance Matrix: (Units=1/GPa)
#
#
# Indices 1 2 3 4 5 6 
#
# 1 0.016694 -0.011551 -0.004474 0.000000 0.000000 0.000000
# 2 -0.011551 0.025474 -0.003114 0.000000 0.000000 0.000000
# 3 -0.004474 -0.003114 0.011240 0.000000 0.000000 0.000000
# 4 0.000000 0.000000 0.000000 0.160918 0.000000 0.000000
# 5 0.000000 0.000000 0.000000 0.000000 0.059594 0.000000
# 6 0.000000 0.000000 0.000000 0.000000 0.000000 0.018470
#
#
# Mechanical properties :
#
#
# Convention : Reuss Voigt Hill
#
# Bulk Modulus (GPa) = 66.09240 74.38410 70.23825
# Shear Modulus (GPa) = 14.89381 25.30275 20.09828
#
# Velocity S-wave (km/s) = 2.98665 3.89283 3.46945
# Velocity P-wave (km/s) = 7.17475 8.04705 7.62339
#
# Compressibility (1/GPa) = 0.01513033
#
# Stress axis : x y z
#
# Youngs Moduli (GPa) = 59.90213 39.25587 88.97107
#
# Poissons Ratio (x) = 0.45343 0.39803
# Poissons Ratio (y) = 0.69191 0.27708
# Poissons Ratio (z) = 0.26798 0.12225
#
# Static dielectric constant tensor:
#      x y z
#    x 1.589470 0.000000 0.000000 
#    y 0.000000 1.588690 0.000000 
#    z 0.000000 0.000000 1.583470 
# 
# From -- ./inp_files/11362.got.cif
#   From: 2010.05.17/outbox.cif.g08.bks.cpg/sg65_6_cif.got.tgz:11362.got - 2010.06.03 17:01:31.
