data_PCOD9493264
_publ_section_title
;
Structure prediction by ZEFSAII (Michael W. Deem and Ramdas Pophale) SiO2 
 PCOD9493264
Probable space group: C M M M
;
_chemical_formula_sum "Si O2"
_cell_formula_units_Z 80
_cell_length_a 25.088787
_cell_length_b 13.984926
_cell_length_c 13.943059
_cell_angle_alpha 90.000000
_cell_angle_beta 90.000000
_cell_angle_gamma 90.000000
_cell_volume 4892.129020
_symmetry_space_group_name_H-M "C M M M"
_symmetry_group_IT_number 65
_symmetry_cell_setting 'orthorhombic'
loop_
_space_group_symop_operation_xyz
x,y,z
-x,-y,z
x,-y,-z
-x,y,-z
-x,-y,-z
x,y,-z
-x,y,z
x,-y,z
1/2+x,1/2+y,z
1/2-x,1/2-y,z
1/2+x,1/2-y,-z
1/2-x,1/2+y,-z
1/2-x,1/2-y,-z
1/2+x,1/2+y,-z
1/2-x,1/2+y,z
1/2+x,1/2-y,z
loop_
_atom_site_type_symbol
_atom_site_label
_atom_site_fract_x
_atom_site_fract_y
_atom_site_fract_z
Si Si1 0.564149 0.110839 0.110981
Si Si2 0.661449 0.386393 0.388290
Si Si3 0.799798 0.110088 0.889028
Si Si4 0.866922 0.251104 0.238704
Si Si5 0.225551 0.608996 0.714705
O O1 0.500000 0.115367 0.115762
O O2 0.589907 0.182750 0.187048
O O3 0.580005 0.000000 0.129414
O O4 0.579461 0.133087 0.000000
O O5 0.658118 0.362443 0.500000
O O6 0.652600 0.500000 0.376245
O O7 0.621420 0.325483 0.322414
O O8 0.722077 0.369102 0.349264
O O9 0.839767 0.186534 0.844122
O O10 0.747255 0.115536 0.823769
O O11 0.819598 0.000000 0.878070
O O12 0.789279 0.127642 0.000000
O O13 0.823495 0.320262 0.288817
O O14 0.209990 0.500000 0.693827
#
# Coordination Sequence:
#
# PCOD9493264 Si02
#       5
#    16  16  16  16  16
#     4   9  19  35  52  71  96 124 154 191 236 282
#     4   9  18  32  48  68  98 131 158 189 232 280
#     4   9  17  27  38  58  92 125 148 179 227 280
#     4  11  18  27  48  70  88 118 162 200 230 270
#     4   9  18  28  39  63  95 123 154 190 227 271
#
# _framework density 16.352798
#
# number of rings (size 3 to 8) (size 9 to 14) (size 15 to 20)
#    0.000    2.600    0.000    6.000    0.000    4.000 
#    0.000    2.000    0.000    4.800    0.000    9.800 
#    0.000    0.000    0.000    0.000    0.000    0.000 
#
# Total GULP energy -222778.506420 kJ/mol
# GULP energy per Si atom -5569.462660 kJ/mol
# Density = 1.631558 g / cm^3
# Si number density = 16.352798 Si / 1000 Ang^3
#
#
#
# Elastic Constant Matrix: (Units=GPa)
#
#
# Indices 1 2 3 4 5 6 
#
# 1 20.3662 29.0957 15.0895 0.0000 0.0000 0.0000
# 2 29.0957 77.3921 38.8658 0.0000 0.0000 0.0000
# 3 15.0895 38.8658 100.2876 0.0000 0.0000 0.0000
# 4 0.0000 0.0000 0.0000 22.0499 0.0000 0.0000
# 5 0.0000 0.0000 0.0000 0.0000 8.4381 0.0000
# 6 0.0000 0.0000 0.0000 0.0000 0.0000 22.5230
#
#
#
# Elastic Compliance Matrix: (Units=1/GPa)
#
#
# Indices 1 2 3 4 5 6 
#
# 1 0.106103 -0.039574 -0.000628 0.000000 0.000000 0.000000
# 2 -0.039574 0.030804 -0.005983 0.000000 0.000000 0.000000
# 3 -0.000628 -0.005983 0.012385 0.000000 0.000000 0.000000
# 4 0.000000 0.000000 0.000000 0.045352 0.000000 0.000000
# 5 0.000000 0.000000 0.000000 0.000000 0.118510 0.000000
# 6 0.000000 0.000000 0.000000 0.000000 0.000000 0.044399
#
#
# Mechanical properties :
#
#
# Convention : Reuss Voigt Hill
#
# Bulk Modulus (GPa) = 17.56832 40.46088 29.01460
# Shear Modulus (GPa) = 10.66332 18.26854 14.46593
#
# Velocity S-wave (km/s) = 2.55635 3.34601 2.97747
# Velocity P-wave (km/s) = 4.41360 6.30269 5.44076
#
# Compressibility (1/GPa) = 0.05692064
#
# Stress axis : x y z
#
# Youngs Moduli (GPa) = 9.42480 32.46315 80.74530
#
# Poissons Ratio (x) = 1.28471 0.05068
# Poissons Ratio (y) = 0.37298 0.48314
# Poissons Ratio (z) = 0.00592 0.19424
#
# Static dielectric constant tensor:
#      x y z
#    x 1.526500 0.000000 0.000000 
#    y 0.000000 1.603770 0.000000 
#    z 0.000000 0.000000 1.560560 
# 
# From -- ./inp_files/40497.got.cif
#   From: 2010.05.17/outbox.cif.g08.bks.cpg/sg65_21_cif.got.tgz:40497.got - 2010.06.03 17:01:31.
