data_PCOD9493889
_publ_section_title
;
Structure prediction by ZEFSAII (Michael W. Deem and Ramdas Pophale) SiO2 
 PCOD9493889
Probable space group: C M M M
;
_chemical_formula_sum "Si O2"
_cell_formula_units_Z 104
_cell_length_a 28.815823
_cell_length_b 28.942257
_cell_length_c 7.341740
_cell_angle_alpha 90.000000
_cell_angle_beta 90.000000
_cell_angle_gamma 90.000000
_cell_volume 6122.974120
_symmetry_space_group_name_H-M "C M M M"
_symmetry_group_IT_number 65
_symmetry_cell_setting 'orthorhombic'
loop_
_space_group_symop_operation_xyz
x,y,z
-x,-y,z
x,-y,-z
-x,y,-z
-x,-y,-z
x,y,-z
-x,y,z
x,-y,z
1/2+x,1/2+y,z
1/2-x,1/2-y,z
1/2+x,1/2-y,-z
1/2-x,1/2+y,-z
1/2-x,1/2-y,-z
1/2+x,1/2+y,-z
1/2-x,1/2+y,z
1/2+x,1/2-y,z
loop_
_atom_site_type_symbol
_atom_site_label
_atom_site_fract_x
_atom_site_fract_y
_atom_site_fract_z
Si Si1 0.409335 0.109778 0.222067
Si Si2 0.615638 0.444783 0.782352
Si Si3 0.217866 0.945473 0.780258
Si Si4 0.555238 0.208663 0.215810
Si Si5 0.444286 0.608843 0.500000
Si Si6 0.943916 0.215066 0.500000
Si Si7 0.680690 0.053924 0.777696
Si Si8 0.500000 0.053086 0.222226
O O1 0.417554 0.162771 0.275449
O O2 0.361958 0.085495 0.281899
O O3 0.453764 0.079782 0.279710
O O4 0.409390 0.109528 0.000000
O O5 0.612518 0.500000 0.746937
O O6 0.667325 0.428350 0.721300
O O7 0.576919 0.417379 0.673588
O O8 0.611639 0.438692 0.000000
O O9 0.268324 0.928345 0.718881
O O10 0.218431 0.000000 0.737234
O O11 0.217340 0.941799 0.000000
O O12 0.500000 0.200257 0.247381
O O13 0.569405 0.254054 0.326059
O O14 0.561250 0.215032 0.000000
O O15 0.500000 0.606925 0.500000
O O16 0.428375 0.662307 0.500000
O O17 0.000000 0.212942 0.500000
O O18 0.674747 0.000000 0.724062
O O19 0.680596 0.053762 0.000000
O O20 0.500000 0.000000 0.280166
O O21 0.500000 0.053301 0.000000
#
# Coordination Sequence:
#
# PCOD9493889 Si02
#       8
#    16  16  16  16   8   8  16   8
#     4   9  14  20  33  58  89 124 162 199 244 292
#     4   9  18  33  53  76 104 137 163 181 210 258
#     4   7  11  22  40  62  89 123 162 196 222 256
#     4   9  16  29  47  65  87 117 160 208 244 284
#     4  11  23  36  51  77 106 125 153 189 220 273
#     4   9  20  35  50  68  88 117 153 194 246 279
#     4   8  12  18  32  59  94 125 157 201 242 275
#     4   9  14  18  26  49  91 131 160 193 237 296
#
# _framework density 16.985209000000001
#
# number of rings (size 3 to 8) (size 9 to 14) (size 15 to 20)
#    0.000    3.308    0.769    2.538    0.000    3.385 
#    0.000    2.308    0.000    0.923    0.000    5.923 
#    0.000    6.154    0.000    0.000    0.000    0.000 
#
# Total GULP energy -289695.042106 kJ/mol
# GULP energy per Si atom -5571.058502 kJ/mol
# Density = 1.694655 g / cm^3
# Si number density = 16.985209 Si / 1000 Ang^3
#
#
#
# Elastic Constant Matrix: (Units=GPa)
#
#
# Indices 1 2 3 4 5 6 
#
# 1 130.8508 64.5179 30.9793 0.0000 0.0000 0.0000
# 2 64.5179 108.4686 38.5475 0.0000 0.0000 0.0000
# 3 30.9793 38.5475 71.2276 0.0000 0.0000 0.0000
# 4 0.0000 0.0000 0.0000 11.4918 0.0000 0.0000
# 5 0.0000 0.0000 0.0000 0.0000 -19.1300 0.0000
# 6 0.0000 0.0000 0.0000 0.0000 0.0000 5.6460
#
#
#
# Elastic Compliance Matrix: (Units=1/GPa)
#
#
# Indices 1 2 3 4 5 6 
#
# 1 0.010947 -0.005967 -0.001532 0.000000 0.000000 0.000000
# 2 -0.005967 0.014667 -0.005342 0.000000 0.000000 0.000000
# 3 -0.001532 -0.005342 0.017597 0.000000 0.000000 0.000000
# 4 0.000000 0.000000 0.000000 0.087019 0.000000 0.000000
# 5 0.000000 0.000000 0.000000 0.000000 -0.052274 0.000000
# 6 0.000000 0.000000 0.000000 0.000000 0.000000 0.177115
#
#
# Mechanical properties :
#
#
# Convention : Reuss Voigt Hill
#
# Bulk Modulus (GPa) = 57.05008 64.29294 60.67151
# Shear Modulus (GPa) = 17.44611 11.36837 14.40724
#
# Velocity S-wave (km/s) = 3.20837 2.58991 2.91559
# Velocity P-wave (km/s) = 6.88374 6.84675 6.86527
#
# Compressibility (1/GPa) = 0.01752846
#
# Stress axis : x y z
#
# Youngs Moduli (GPa) = 91.34841 68.18013 56.82763
#
# Poissons Ratio (x) = 0.40683 0.08706
# Poissons Ratio (y) = 0.54507 0.30360
# Poissons Ratio (z) = 0.13995 0.36424
#
# Static dielectric constant tensor:
#      x y z
#    x 1.586700 0.000000 0.000000 
#    y 0.000000 1.535790 0.000000 
#    z 0.000000 0.000000 1.649740 
# 
# From -- ./inp_files/16844.got.cif
#   From: 2010.05.17/outbox.cif.g08.bks.cpg/sg65_9_cif.got.tgz:16844.got - 2010.06.03 17:01:31.
