data_PCOD9493860
_publ_section_title
;
Structure prediction by ZEFSAII (Michael W. Deem and Ramdas Pophale) SiO2 
 PCOD9493860
Probable space group: C M M M
;
_chemical_formula_sum "Si O2"
_cell_formula_units_Z 92
_cell_length_a 21.303567
_cell_length_b 15.310127
_cell_length_c 14.221520
_cell_angle_alpha 90.000000
_cell_angle_beta 90.000000
_cell_angle_gamma 90.000000
_cell_volume 4638.495462
_symmetry_space_group_name_H-M "C M M M"
_symmetry_group_IT_number 65
_symmetry_cell_setting 'orthorhombic'
loop_
_space_group_symop_operation_xyz
x,y,z
-x,-y,z
x,-y,-z
-x,y,-z
-x,-y,-z
x,y,-z
-x,y,z
x,-y,z
1/2+x,1/2+y,z
1/2-x,1/2-y,z
1/2+x,1/2-y,-z
1/2-x,1/2+y,-z
1/2-x,1/2-y,-z
1/2+x,1/2+y,-z
1/2-x,1/2+y,z
1/2+x,1/2-y,z
loop_
_atom_site_type_symbol
_atom_site_label
_atom_site_fract_x
_atom_site_fract_y
_atom_site_fract_z
Si Si1 0.608697 0.641405 0.800359
Si Si2 0.865776 0.666700 0.796205
Si Si3 0.500000 0.500000 0.163146
Si Si4 0.244049 0.898969 0.888226
Si Si5 0.925319 0.500000 0.107089
Si Si6 0.810539 0.394546 0.390980
Si Si7 0.335155 0.605546 0.394934
O O1 0.599946 0.743494 0.819912
O O2 0.554981 0.576502 0.833561
O O3 0.675301 0.615411 0.846216
O O4 0.619391 0.633157 0.688119
O O5 0.796578 0.662302 0.842842
O O6 0.902123 0.585232 0.839038
O O7 0.853292 0.652685 0.685377
O O8 0.262036 0.000000 0.866873
O O9 0.242600 0.887477 0.000000
O O10 0.000000 0.500000 0.103206
O O11 0.899998 0.500000 0.000000
O O12 0.825538 0.376121 0.500000
O O13 0.814695 0.500000 0.377573
O O14 0.737352 0.369173 0.375799
O O15 0.351874 0.636001 0.500000
O O16 0.335332 0.500000 0.396136
#
# Coordination Sequence:
#
# PCOD9493860 Si02
#       7
#    16  16   4  16   8  16  16
#     4  12  25  42  65  93 132 179 227 270 318 390
#     4  12  23  39  71 100 130 167 215 273 340 390
#     4  12  28  50  66  86 138 192 230 260 310 390
#     4  11  22  41  68  98 131 163 208 281 350 396
#     4  11  26  47  67  93 127 164 211 269 327 397
#     4   9  17  32  60  99 137 167 200 260 340 408
#     4   9  17  34  60  91 131 174 217 269 329 386
#
# _framework density 19.834015999999998
#
# number of rings (size 3 to 8) (size 9 to 14) (size 15 to 20)
#    0.000    1.304    5.217    2.087    1.217    2.783 
#    0.000    3.478    0.000    1.043    0.000    0.000 
#    0.000    0.000    0.000    0.000    0.000    0.000 
#
# Total GULP energy -256632.898604 kJ/mol
# GULP energy per Si atom -5578.976057 kJ/mol
# Density = 1.978887 g / cm^3
# Si number density = 19.834016 Si / 1000 Ang^3
#
#
#
# Elastic Constant Matrix: (Units=GPa)
#
#
# Indices 1 2 3 4 5 6 
#
# 1 90.9815 48.9196 18.0012 0.0000 0.0000 0.0000
# 2 48.9196 128.9130 17.3560 0.0000 0.0000 0.0000
# 3 18.0012 17.3560 62.6205 0.0000 0.0000 0.0000
# 4 0.0000 0.0000 0.0000 -53.1607 0.0000 0.0000
# 5 0.0000 0.0000 0.0000 0.0000 1.5365 0.0000
# 6 0.0000 0.0000 0.0000 0.0000 0.0000 10.8643
#
#
#
# Elastic Compliance Matrix: (Units=1/GPa)
#
#
# Indices 1 2 3 4 5 6 
#
# 1 0.014234 -0.005038 -0.002695 0.000000 0.000000 0.000000
# 2 -0.005038 0.009841 -0.001279 0.000000 0.000000 0.000000
# 3 -0.002695 -0.001279 0.017099 0.000000 0.000000 0.000000
# 4 0.000000 0.000000 0.000000 -0.018811 0.000000 0.000000
# 5 0.000000 0.000000 0.000000 0.000000 0.650851 0.000000
# 6 0.000000 0.000000 0.000000 0.000000 0.000000 0.092045
#
#
# Mechanical properties :
#
#
# Convention : Reuss Voigt Hill
#
# Bulk Modulus (GPa) = 43.20086 50.11872 46.65979
# Shear Modulus (GPa) = 6.32111 5.06388 5.69250
#
# Velocity S-wave (km/s) = 1.78716 1.59958 1.69597
# Velocity P-wave (km/s) = 5.10755 5.36055 5.23558
#
# Compressibility (1/GPa) = 0.02314769
#
# Stress axis : x y z
#
# Youngs Moduli (GPa) = 70.25610 101.61169 58.48445
#
# Poissons Ratio (x) = 0.51197 0.15763
# Poissons Ratio (y) = 0.35398 0.07482
# Poissons Ratio (z) = 0.18935 0.12999
#
# Static dielectric constant tensor:
#      x y z
#    x 1.655460 0.000000 0.000000 
#    y 0.000000 1.732760 0.000000 
#    z 0.000000 0.000000 1.718330 
# 
# From -- ./inp_files/44175.got.cif
#   From: 2010.05.17/outbox.cif.g08.bks.cpg/sg65_23_cif.got.tgz:44175.got - 2010.06.03 17:01:31.
