data_PCOD9493028
_publ_section_title
;
Structure prediction by ZEFSAII (Michael W. Deem and Ramdas Pophale) SiO2 
 PCOD9493028
Probable space group: C M M M
;
_chemical_formula_sum "Si O2"
_cell_formula_units_Z 80
_cell_length_a 28.626027
_cell_length_b 18.756483
_cell_length_c 7.466934
_cell_angle_alpha 90.000000
_cell_angle_beta 90.000000
_cell_angle_gamma 90.000000
_cell_volume 4009.173000
_symmetry_space_group_name_H-M "C M M M"
_symmetry_group_IT_number 65
_symmetry_cell_setting 'orthorhombic'
loop_
_space_group_symop_operation_xyz
x,y,z
-x,-y,z
x,-y,-z
-x,y,-z
-x,-y,-z
x,y,-z
-x,y,z
x,-y,z
1/2+x,1/2+y,z
1/2-x,1/2-y,z
1/2+x,1/2-y,-z
1/2-x,1/2+y,-z
1/2-x,1/2-y,-z
1/2+x,1/2+y,-z
1/2-x,1/2+y,z
1/2+x,1/2-y,z
loop_
_atom_site_type_symbol
_atom_site_label
_atom_site_fract_x
_atom_site_fract_y
_atom_site_fract_z
Si Si1 0.738580 0.832386 0.213935
Si Si2 0.352376 0.919374 0.782230
Si Si3 0.947037 0.652360 0.781464
Si Si4 0.944050 0.184677 0.795396
Si Si5 0.095298 0.918445 0.500000
Si Si6 0.293448 0.419147 0.500000
O O1 0.750000 0.750000 0.253714
O O2 0.687068 0.861472 0.266977
O O3 0.774359 0.879506 0.325582
O O4 0.743284 0.842126 0.000000
O O5 0.404321 0.896959 0.722731
O O6 0.340667 0.000000 0.724408
O O7 0.353319 0.919838 0.000000
O O8 0.935756 0.734193 0.731632
O O9 0.000000 0.634479 0.722602
O O10 0.948172 0.651159 0.000000
O O11 0.922183 0.125509 0.670686
O O12 0.000000 0.176281 0.795083
O O13 0.927246 0.178983 0.000000
O O14 0.150988 0.919028 0.500000
O O15 0.078205 0.000000 0.500000
O O16 0.276239 0.500000 0.500000
#
# Coordination Sequence:
#
# PCOD9493028 Si02
#       6
#    16  16  16  16   8   8
#     4  10  22  40  63  88 116 158 206 252 298 352
#     4   9  17  30  52  83 116 151 192 238 292 350
#     4   8  15  29  51  81 115 151 190 230 281 350
#     4   9  19  37  60  83 113 155 197 240 293 357
#     4  11  25  39  56  86 117 149 194 249 304 360
#     4  11  25  42  59  85 121 157 196 248 310 368
#
# _framework density 19.954239000000001
#
# number of rings (size 3 to 8) (size 9 to 14) (size 15 to 20)
#    0.000    2.600    0.000    2.400    2.800    3.600 
#    0.000    5.000    0.000    0.000    0.000    0.000 
#    0.000    5.600    0.000    0.600    0.000    0.000 
#
# Total GULP energy -223298.419581 kJ/mol
# GULP energy per Si atom -5582.460490 kJ/mol
# Density = 1.990882 g / cm^3
# Si number density = 19.954239 Si / 1000 Ang^3
#
#
#
# Elastic Constant Matrix: (Units=GPa)
#
#
# Indices 1 2 3 4 5 6 
#
# 1 79.6894 76.2010 18.3036 0.0000 0.0000 0.0000
# 2 76.2010 152.3390 40.3628 0.0000 0.0000 0.0000
# 3 18.3036 40.3628 63.0462 0.0000 0.0000 0.0000
# 4 0.0000 0.0000 0.0000 58.0245 0.0000 0.0000
# 5 0.0000 0.0000 0.0000 0.0000 17.6874 0.0000
# 6 0.0000 0.0000 0.0000 0.0000 0.0000 35.3449
#
#
#
# Elastic Compliance Matrix: (Units=1/GPa)
#
#
# Indices 1 2 3 4 5 6 
#
# 1 0.024093 -0.012282 0.000868 0.000000 0.000000 0.000000
# 2 -0.012282 0.014166 -0.005504 0.000000 0.000000 0.000000
# 3 0.000868 -0.005504 0.019133 0.000000 0.000000 0.000000
# 4 0.000000 0.000000 0.000000 0.017234 0.000000 0.000000
# 5 0.000000 0.000000 0.000000 0.000000 0.056538 0.000000
# 6 0.000000 0.000000 0.000000 0.000000 0.000000 0.028293
#
#
# Mechanical properties :
#
#
# Convention : Reuss Voigt Hill
#
# Bulk Modulus (GPa) = 42.44884 62.75659 52.60271
# Shear Modulus (GPa) = 24.85793 32.89183 28.87488
#
# Velocity S-wave (km/s) = 3.53334 4.06441 3.80814
# Velocity P-wave (km/s) = 6.16160 7.31741 6.76423
#
# Compressibility (1/GPa) = 0.02355777
#
# Stress axis : x y z
#
# Youngs Moduli (GPa) = 41.50522 70.59230 52.26631
#
# Poissons Ratio (x) = 0.86699 -0.04537
# Poissons Ratio (y) = 0.50975 0.28765
# Poissons Ratio (z) = -0.03603 0.38851
#
# Static dielectric constant tensor:
#      x y z
#    x 1.686660 0.000000 0.000000 
#    y 0.000000 1.700810 0.000000 
#    z 0.000000 0.000000 1.717040 
# 
# From -- ./inp_files/16094.got.cif
#   From: 2010.05.17/outbox.cif.g08.bks.cpg/sg65_9_cif.got.tgz:16094.got - 2010.06.03 17:01:31.
