data_PCOD9493382
_publ_section_title
;
Structure prediction by ZEFSAII (Michael W. Deem and Ramdas Pophale) SiO2 
 PCOD9493382
Probable space group: C M M M
;
_chemical_formula_sum "Si O2"
_cell_formula_units_Z 96
_cell_length_a 27.985970
_cell_length_b 7.718924
_cell_length_c 25.373957
_cell_angle_alpha 90.000000
_cell_angle_beta 90.000000
_cell_angle_gamma 90.000000
_cell_volume 5481.322168
_symmetry_space_group_name_H-M "C M M M"
_symmetry_group_IT_number 65
_symmetry_cell_setting 'orthorhombic'
loop_
_space_group_symop_operation_xyz
x,y,z
-x,-y,z
x,-y,-z
-x,y,-z
-x,-y,-z
x,y,-z
-x,y,z
x,-y,z
1/2+x,1/2+y,z
1/2-x,1/2-y,z
1/2+x,1/2-y,-z
1/2-x,1/2+y,-z
1/2-x,1/2-y,-z
1/2+x,1/2+y,-z
1/2-x,1/2+y,z
1/2+x,1/2-y,z
loop_
_atom_site_type_symbol
_atom_site_label
_atom_site_fract_x
_atom_site_fract_y
_atom_site_fract_z
Si Si1 0.195579 0.798194 0.389055
Si Si2 0.306576 0.208466 0.943319
Si Si3 0.693796 0.208822 0.828772
Si Si4 0.946482 0.712308 0.334831
Si Si5 0.149025 0.709552 0.720566
Si Si6 0.400573 0.798169 0.441974
O O1 0.250000 0.750000 0.400803
O O2 0.183465 0.759918 0.327835
O O3 0.154726 0.708099 0.423756
O O4 0.189244 0.000000 0.398395
O O5 0.250000 0.250000 0.943299
O O6 0.324015 0.272836 0.886220
O O7 0.311804 0.000000 0.943467
O O8 0.325675 0.273410 0.000000
O O9 0.750000 0.250000 0.824062
O O10 0.666938 0.274641 0.776952
O O11 0.689368 0.000000 0.829188
O O12 0.945794 0.500000 0.335422
O O13 0.904196 0.766925 0.295659
O O14 0.930932 0.774149 0.393167
O O15 0.000000 0.767008 0.321555
O O16 0.149064 0.500000 0.722049
O O17 0.406745 0.720412 0.500000
O O18 0.414112 0.000000 0.445363
#
# Coordination Sequence:
#
# PCOD9493382 Si02
#       6
#    16  16  16  16  16  16
#     4  11  21  32  46  62  83 111 139 165 196 233
#     4   8  13  21  32  47  70 101 135 166 195 228
#     4   9  16  24  36  55  79 107 136 166 198 232
#     4   8  14  26  45  66  84 102 126 161 204 242
#     4   9  17  29  43  61  84 106 134 170 203 239
#     4   9  18  32  48  66  86 105 129 162 197 236
#
# _framework density 17.514022000000001
#
# number of rings (size 3 to 8) (size 9 to 14) (size 15 to 20)
#    0.000    3.000    0.000    3.000    0.000    3.000 
#    0.000    1.667    0.000    8.000    0.000    4.667 
#    0.000    0.667    0.000    9.333    0.000    0.000 
#
# Total GULP energy -267323.845766 kJ/mol
# GULP energy per Si atom -5569.246787 kJ/mol
# Density = 1.747416 g / cm^3
# Si number density = 17.514022 Si / 1000 Ang^3
#
#
#
# Elastic Constant Matrix: (Units=GPa)
#
#
# Indices 1 2 3 4 5 6 
#
# 1 60.3575 -5.6357 18.2148 0.0000 0.0000 0.0000
# 2 -5.6357 32.6733 1.0950 0.0000 0.0000 0.0000
# 3 18.2148 1.0950 125.1427 0.0000 0.0000 0.0000
# 4 0.0000 0.0000 0.0000 5.0222 0.0000 0.0000
# 5 0.0000 0.0000 0.0000 0.0000 11.6774 0.0000
# 6 0.0000 0.0000 0.0000 0.0000 0.0000 7.3562
#
#
#
# Elastic Compliance Matrix: (Units=1/GPa)
#
#
# Indices 1 2 3 4 5 6 
#
# 1 0.017643 0.003130 -0.002595 0.000000 0.000000 0.000000
# 2 0.003130 0.031170 -0.000728 0.000000 0.000000 0.000000
# 3 -0.002595 -0.000728 0.008375 0.000000 0.000000 0.000000
# 4 0.000000 0.000000 0.000000 0.199117 0.000000 0.000000
# 5 0.000000 0.000000 0.000000 0.000000 0.085635 0.000000
# 6 0.000000 0.000000 0.000000 0.000000 0.000000 0.135940
#
#
# Mechanical properties :
#
#
# Convention : Reuss Voigt Hill
#
# Bulk Modulus (GPa) = 17.60507 27.28018 22.44262
# Shear Modulus (GPa) = 10.05628 18.44445 14.25037
#
# Velocity S-wave (km/s) = 2.39881 3.24871 2.85556
# Velocity P-wave (km/s) = 4.21263 5.44813 4.86972
#
# Compressibility (1/GPa) = 0.05680181
#
# Stress axis : x y z
#
# Youngs Moduli (GPa) = 56.67817 32.08175 119.40264
#
# Poissons Ratio (x) = -0.10042 0.30990
# Poissons Ratio (y) = -0.17742 0.08697
# Poissons Ratio (z) = 0.14710 0.02337
#
# Static dielectric constant tensor:
#      x y z
#    x 1.592400 0.000000 0.000000 
#    y 0.000000 1.655160 0.000000 
#    z 0.000000 0.000000 1.653380 
# 
# From -- ./inp_files/71688.got.cif
#   From: 2010.05.17/outbox.cif.g08.bks.cpg/sg65_36_cif.got.tgz:71688.got - 2010.06.03 17:01:31.
