data_PCOD9493472
_publ_section_title
;
Structure prediction by ZEFSAII (Michael W. Deem and Ramdas Pophale) SiO2 
 PCOD9493472
Probable space group: C M M M
;
_chemical_formula_sum "Si O2"
_cell_formula_units_Z 80
_cell_length_a 18.629125
_cell_length_b 8.587839
_cell_length_c 26.854428
_cell_angle_alpha 90.000000
_cell_angle_beta 90.000000
_cell_angle_gamma 90.000000
_cell_volume 4296.276828
_symmetry_space_group_name_H-M "C M M M"
_symmetry_group_IT_number 65
_symmetry_cell_setting 'orthorhombic'
loop_
_space_group_symop_operation_xyz
x,y,z
-x,-y,z
x,-y,-z
-x,y,-z
-x,-y,-z
x,y,-z
-x,y,z
x,-y,z
1/2+x,1/2+y,z
1/2-x,1/2-y,z
1/2+x,1/2-y,-z
1/2-x,1/2+y,-z
1/2-x,1/2-y,-z
1/2+x,1/2+y,-z
1/2-x,1/2+y,z
1/2+x,1/2-y,z
loop_
_atom_site_type_symbol
_atom_site_label
_atom_site_fract_x
_atom_site_fract_y
_atom_site_fract_z
Si Si1 0.169671 0.187309 0.152418
Si Si2 0.331722 0.813182 0.554314
Si Si3 0.082970 0.189507 0.944209
Si Si4 0.916172 0.313199 0.247160
Si Si5 0.668529 0.314463 0.341951
O O1 0.250000 0.250000 0.156672
O O2 0.133459 0.241366 0.100598
O O3 0.122897 0.246690 0.198564
O O4 0.170585 0.000000 0.153040
O O5 0.364019 0.772934 0.500000
O O6 0.250000 0.750000 0.553125
O O7 0.362784 0.742594 0.604904
O O8 0.330119 0.000000 0.558520
O O9 0.000000 0.236089 0.935761
O O10 0.083793 0.000000 0.944217
O O11 0.104291 0.240147 0.000000
O O12 0.910354 0.500000 0.247067
O O13 0.877552 0.247991 0.296164
O O14 0.000000 0.270193 0.246744
O O15 0.671642 0.500000 0.341352
O O16 0.750000 0.250000 0.337573
#
# Coordination Sequence:
#
# PCOD9493472 Si02
#       5
#    16  16  16  16  16
#     4  11  22  36  56  82 112 144 181 224 269 319
#     4   9  16  27  46  74 108 143 179 219 264 314
#     4   8  15  30  53  80 109 143 183 224 266 314
#     4  11  24  41  59  78 104 138 177 223 275 330
#     4  11  21  34  55  81 111 143 179 223 268 318
#
# _framework density 18.620774000000001
#
# number of rings (size 3 to 8) (size 9 to 14) (size 15 to 20)
#    0.000    2.000    0.000    6.600    0.000    4.000 
#    0.000    0.000    0.000    2.400    0.000   11.200 
#    0.000    0.000    0.000    0.000    0.000    0.000 
#
# Total GULP energy -223272.377350 kJ/mol
# GULP energy per Si atom -5581.809434 kJ/mol
# Density = 1.857839 g / cm^3
# Si number density = 18.620774 Si / 1000 Ang^3
#
#
#
# Elastic Constant Matrix: (Units=GPa)
#
#
# Indices 1 2 3 4 5 6 
#
# 1 106.9236 46.9077 102.1214 0.0000 0.0000 0.0000
# 2 46.9077 74.6298 58.5169 0.0000 0.0000 0.0000
# 3 102.1214 58.5169 214.4972 0.0000 0.0000 0.0000
# 4 0.0000 0.0000 0.0000 64.6848 0.0000 0.0000
# 5 0.0000 0.0000 0.0000 0.0000 16.6927 0.0000
# 6 0.0000 0.0000 0.0000 0.0000 0.0000 11.3180
#
#
#
# Elastic Compliance Matrix: (Units=1/GPa)
#
#
# Indices 1 2 3 4 5 6 
#
# 1 0.019187 -0.006230 -0.007435 0.000000 0.000000 0.000000
# 2 -0.006230 0.019068 -0.002236 0.000000 0.000000 0.000000
# 3 -0.007435 -0.002236 0.008812 0.000000 0.000000 0.000000
# 4 0.000000 0.000000 0.000000 0.015460 0.000000 0.000000
# 5 0.000000 0.000000 0.000000 0.000000 0.059906 0.000000
# 6 0.000000 0.000000 0.000000 0.000000 0.000000 0.088355
#
#
# Mechanical properties :
#
#
# Convention : Reuss Voigt Hill
#
# Bulk Modulus (GPa) = 65.50899 90.12697 77.81798
# Shear Modulus (GPa) = 20.18746 31.10607 25.64676
#
# Velocity S-wave (km/s) = 3.29619 4.09161 3.71525
# Velocity P-wave (km/s) = 7.05291 8.41594 7.76439
#
# Compressibility (1/GPa) = 0.01526508
#
# Stress axis : x y z
#
# Youngs Moduli (GPa) = 52.11925 52.44279 113.48179
#
# Poissons Ratio (x) = 0.32670 0.84376
# Poissons Ratio (y) = 0.32469 0.25376
# Poissons Ratio (z) = 0.38752 0.11727
#
# Static dielectric constant tensor:
#      x y z
#    x 1.612880 0.000000 0.000000 
#    y 0.000000 1.624000 0.000000 
#    z 0.000000 0.000000 1.666060 
# 
# From -- ./inp_files/72732.got.cif
#   From: 2010.05.17/outbox.cif.g08.bks.cpg/sg65_37_cif.got.tgz:72732.got - 2010.06.03 17:01:31.
