data_PCOD9493391
_publ_section_title
;
Structure prediction by ZEFSAII (Michael W. Deem and Ramdas Pophale) SiO2 
 PCOD9493391
Probable space group: C M M M
;
_chemical_formula_sum "Si O2"
_cell_formula_units_Z 72
_cell_length_a 8.341358
_cell_length_b 26.515170
_cell_length_c 20.601092
_cell_angle_alpha 90.000000
_cell_angle_beta 90.000000
_cell_angle_gamma 90.000000
_cell_volume 4556.395544
_symmetry_space_group_name_H-M "C M M M"
_symmetry_group_IT_number 65
_symmetry_cell_setting 'orthorhombic'
loop_
_space_group_symop_operation_xyz
x,y,z
-x,-y,z
x,-y,-z
-x,y,-z
-x,-y,-z
x,y,-z
-x,y,z
x,-y,z
1/2+x,1/2+y,z
1/2-x,1/2-y,z
1/2+x,1/2-y,-z
1/2-x,1/2+y,-z
1/2-x,1/2-y,-z
1/2+x,1/2+y,-z
1/2-x,1/2+y,z
1/2+x,1/2-y,z
loop_
_atom_site_type_symbol
_atom_site_label
_atom_site_fract_x
_atom_site_fract_y
_atom_site_fract_z
Si Si1 0.805949 0.941202 0.711329
Si Si2 0.190992 0.060979 0.430184
Si Si3 0.806508 0.694580 0.925236
Si Si4 0.308081 0.902484 0.153717
Si Si5 0.807774 0.000000 0.925267
O O1 0.747247 0.922571 0.640416
O O2 0.748708 0.909855 0.772679
O O3 0.000000 0.941145 0.710106
O O4 0.756334 0.000000 0.719998
O O5 0.258179 0.078591 0.500000
O O6 0.000000 0.071713 0.431092
O O7 0.205402 0.000000 0.429361
O O8 0.750000 0.750000 0.904694
O O9 0.749768 0.649052 0.879880
O O10 0.000000 0.694198 0.925252
O O11 0.752966 0.686557 0.000000
O O12 0.500000 0.902287 0.152775
O O13 0.250254 0.950370 0.112156
O O14 0.000000 0.000000 0.924792
O O15 0.751486 0.000000 0.000000
#
# Coordination Sequence:
#
# PCOD9493391 Si02
#       5
#    16  16  16  16   8
#     4   9  16  26  41  62  90 121 154 187 216 255
#     4   7  10  18  34  56  81 112 150 187 217 246
#     4   9  19  35  52  68  85 109 145 187 229 270
#     4  11  21  32  47  67  93 122 148 179 223 274
#     4  11  23  35  47  65  88 117 154 189 219 258
#
# _framework density 15.801964
#
# number of rings (size 3 to 8) (size 9 to 14) (size 15 to 20)
#    0.000    2.778    1.111    3.667    0.000    3.556 
#    0.000    2.222    0.000    0.667    0.000    3.111 
#    0.000    0.889    0.000    2.000    0.000    3.111 
#
# Total GULP energy -200475.533175 kJ/mol
# GULP energy per Si atom -5568.764810 kJ/mol
# Density = 1.576600 g / cm^3
# Si number density = 15.801964 Si / 1000 Ang^3
#
#
#
# Elastic Constant Matrix: (Units=GPa)
#
#
# Indices 1 2 3 4 5 6 
#
# 1 11.1562 11.8383 18.9533 0.0000 0.0000 0.0000
# 2 11.8383 97.5482 78.4698 0.0000 0.0000 0.0000
# 3 18.9533 78.4698 175.7268 0.0000 0.0000 0.0000
# 4 0.0000 0.0000 0.0000 2.5745 0.0000 0.0000
# 5 0.0000 0.0000 0.0000 0.0000 6.4153 0.0000
# 6 0.0000 0.0000 0.0000 0.0000 0.0000 18.5129
#
#
#
# Elastic Compliance Matrix: (Units=1/GPa)
#
#
# Indices 1 2 3 4 5 6 
#
# 1 0.111985 -0.006046 -0.009378 0.000000 0.000000 0.000000
# 2 -0.006046 0.016324 -0.006637 0.000000 0.000000 0.000000
# 3 -0.009378 -0.006637 0.009666 0.000000 0.000000 0.000000
# 4 0.000000 0.000000 0.000000 0.388426 0.000000 0.000000
# 5 0.000000 0.000000 0.000000 0.000000 0.155877 0.000000
# 6 0.000000 0.000000 0.000000 0.000000 0.000000 0.054016
#
#
# Mechanical properties :
#
#
# Convention : Reuss Voigt Hill
#
# Bulk Modulus (GPa) = 10.65516 55.88376 33.26946
# Shear Modulus (GPa) = 6.15990 17.17853 11.66921
#
# Velocity S-wave (km/s) = 1.97652 3.30072 2.72042
# Velocity P-wave (km/s) = 3.45925 7.06882 5.56483
#
# Compressibility (1/GPa) = 0.09385124
#
# Stress axis : x y z
#
# Youngs Moduli (GPa) = 8.92979 61.25801 103.45441
#
# Poissons Ratio (x) = 0.37037 0.97024
# Poissons Ratio (y) = 0.05399 0.68667
# Poissons Ratio (z) = 0.08375 0.40660
#
# Static dielectric constant tensor:
#      x y z
#    x 1.549670 0.000000 0.000000 
#    y 0.000000 1.493990 0.000000 
#    z 0.000000 0.000000 1.579410 
# 
# From -- ./inp_files/59523.got.cif
#   From: 2010.05.17/outbox.cif.g08.bks.cpg/sg65_30_cif.got.tgz:59523.got - 2010.06.03 17:01:31.
