data_PCOD9493262
_publ_section_title
;
Structure prediction by ZEFSAII (Michael W. Deem and Ramdas Pophale) SiO2 
 PCOD9493262
Probable space group: C M M M
;
_chemical_formula_sum "Si O2"
_cell_formula_units_Z 80
_cell_length_a 19.926194
_cell_length_b 27.641331
_cell_length_c 11.332926
_cell_angle_alpha 90.000000
_cell_angle_beta 90.000000
_cell_angle_gamma 90.000000
_cell_volume 6242.022917
_symmetry_space_group_name_H-M "C M M M"
_symmetry_group_IT_number 65
_symmetry_cell_setting 'orthorhombic'
loop_
_space_group_symop_operation_xyz
x,y,z
-x,-y,z
x,-y,-z
-x,y,-z
-x,-y,-z
x,y,-z
-x,y,z
x,-y,z
1/2+x,1/2+y,z
1/2-x,1/2-y,z
1/2+x,1/2-y,-z
1/2-x,1/2+y,-z
1/2-x,1/2-y,-z
1/2+x,1/2+y,-z
1/2-x,1/2+y,z
1/2+x,1/2-y,z
loop_
_atom_site_type_symbol
_atom_site_label
_atom_site_fract_x
_atom_site_fract_y
_atom_site_fract_z
Si Si1 0.375714 0.597833 0.750414
Si Si2 0.500000 0.346726 0.137482
Si Si3 0.500000 0.230416 0.862357
Si Si4 0.146995 0.274111 0.857125
Si Si5 0.581102 0.558256 0.500000
Si Si6 0.718283 0.327302 0.142815
Si Si7 0.422954 0.500000 0.139736
O O1 0.435549 0.631798 0.798217
O O2 0.388018 0.583751 0.615065
O O3 0.309235 0.626849 0.786594
O O4 0.384974 0.547512 0.818487
O O5 0.500000 0.288869 0.139104
O O6 0.500000 0.362316 0.000000
O O7 0.427774 0.215449 0.810778
O O8 0.500000 0.215021 0.000000
O O9 0.205580 0.311911 0.827764
O O10 0.173457 0.220246 0.827062
O O11 0.143132 0.273567 0.000000
O O12 0.593882 0.500000 0.500000
O O13 0.500000 0.564113 0.500000
O O14 0.712645 0.334680 0.000000
O O15 0.500000 0.500000 0.189129
O O16 0.428000 0.500000 0.000000
#
# Coordination Sequence:
#
# PCOD9493262 Si02
#       7
#    16   8   8  16   8  16   8
#     4  12  20  30  42  55  81 114 145 179 203 240
#     4  11  18  24  40  67  86 105 139 177 210 240
#     4   9  14  22  38  64  91 113 138 164 201 254
#     4   8  14  23  38  61  90 114 133 165 210 255
#     4  11  22  36  42  51  76 115 155 178 203 234
#     4   9  16  26  40  62  87 110 136 172 215 247
#     4  11  20  27  39  61  81 101 133 176 217 244
#
# _framework density 12.816357999999999
#
# number of rings (size 3 to 8) (size 9 to 14) (size 15 to 20)
#    0.000    2.000    5.000    3.000    0.000    0.000 
#    0.000    0.000    0.000    2.400    0.000    0.000 
#    0.000    0.800    0.000    8.400    0.000    0.100 
#
# Total GULP energy -222737.614243 kJ/mol
# GULP energy per Si atom -5568.440356 kJ/mol
# Density = 1.278719 g / cm^3
# Si number density = 12.816358 Si / 1000 Ang^3
#
#
#
# Elastic Constant Matrix: (Units=GPa)
#
#
# Indices 1 2 3 4 5 6 
#
# 1 110.6515 46.4532 25.1289 0.0000 0.0000 0.0000
# 2 46.4532 69.0762 29.9585 0.0000 0.0000 0.0000
# 3 25.1289 29.9585 65.5315 0.0000 0.0000 0.0000
# 4 0.0000 0.0000 0.0000 -57.7216 0.0000 0.0000
# 5 0.0000 0.0000 0.0000 0.0000 10.0597 0.0000
# 6 0.0000 0.0000 0.0000 0.0000 0.0000 26.6539
#
#
#
# Elastic Compliance Matrix: (Units=1/GPa)
#
#
# Indices 1 2 3 4 5 6 
#
# 1 0.012668 -0.007998 -0.001201 0.000000 0.000000 0.000000
# 2 -0.007998 0.023107 -0.007497 0.000000 0.000000 0.000000
# 3 -0.001201 -0.007497 0.019148 0.000000 0.000000 0.000000
# 4 0.000000 0.000000 0.000000 -0.017325 0.000000 0.000000
# 5 0.000000 0.000000 0.000000 0.000000 0.099407 0.000000
# 6 0.000000 0.000000 0.000000 0.000000 0.000000 0.037518
#
#
# Mechanical properties :
#
#
# Convention : Reuss Voigt Hill
#
# Bulk Modulus (GPa) = 46.44584 49.81560 48.13072
# Shear Modulus (GPa) = 23.24598 5.37964 14.31281
#
# Velocity S-wave (km/s) = 4.26346 2.05100 3.34542
# Velocity P-wave (km/s) = 7.78167 6.67547 7.24970
#
# Compressibility (1/GPa) = 0.02153045
#
# Stress axis : x y z
#
# Youngs Moduli (GPa) = 78.93969 43.27761 52.22585
#
# Poissons Ratio (x) = 0.34614 0.06274
# Poissons Ratio (y) = 0.63136 0.39151
# Poissons Ratio (z) = 0.09483 0.32443
#
# Static dielectric constant tensor:
#      x y z
#    x 1.455920 0.000000 0.000000 
#    y 0.000000 1.409820 0.000000 
#    z 0.000000 0.000000 1.415300 
# 
# From -- ./inp_files/29479.got.cif
#   From: 2010.05.17/outbox.cif.g08.bks.cpg/sg65_15_cif.got.tgz:29479.got - 2010.06.03 17:01:31.
