data_PCOD9493772
_publ_section_title
;
Structure prediction by ZEFSAII (Michael W. Deem and Ramdas Pophale) SiO2 
 PCOD9493772
Probable space group: C M M M
;
_chemical_formula_sum "Si O2"
_cell_formula_units_Z 68
_cell_length_a 7.490819
_cell_length_b 17.192771
_cell_length_c 23.427833
_cell_angle_alpha 90.000000
_cell_angle_beta 90.000000
_cell_angle_gamma 90.000000
_cell_volume 3017.222249
_symmetry_space_group_name_H-M "C M M M"
_symmetry_group_IT_number 65
_symmetry_cell_setting 'orthorhombic'
loop_
_space_group_symop_operation_xyz
x,y,z
-x,-y,z
x,-y,-z
-x,y,-z
-x,-y,-z
x,y,-z
-x,y,z
x,-y,z
1/2+x,1/2+y,z
1/2-x,1/2-y,z
1/2+x,1/2-y,-z
1/2-x,1/2+y,-z
1/2-x,1/2-y,-z
1/2+x,1/2+y,-z
1/2-x,1/2+y,z
1/2+x,1/2-y,z
loop_
_atom_site_type_symbol
_atom_site_label
_atom_site_fract_x
_atom_site_fract_y
_atom_site_fract_z
Si Si1 0.796385 0.590634 0.416815
Si Si2 0.217730 0.089397 0.818773
Si Si3 0.213873 0.841952 0.062225
Si Si4 0.211855 0.839768 0.701133
Si Si5 0.500000 0.348913 0.500000
O O1 0.749596 0.500000 0.428162
O O2 0.786974 0.607900 0.349603
O O3 0.656626 0.643175 0.450453
O O4 0.000000 0.603855 0.435098
O O5 0.282773 0.118493 0.880312
O O6 0.279071 0.138703 0.764306
O O7 0.000000 0.094145 0.820162
O O8 0.265853 0.000000 0.809868
O O9 0.250000 0.750000 0.066039
O O10 0.000000 0.853338 0.061545
O O11 0.281710 0.869012 0.000000
O O12 0.250000 0.750000 0.688711
O O13 0.000000 0.852383 0.701038
#
# Coordination Sequence:
#
# PCOD9493772 Si02
#       5
#    16  16  16  16   4
#     4  11  23  40  66  97 127 161 206 251 298 365
#     4   9  18  32  53  82 112 149 197 248 306 360
#     4   9  17  30  50  77 111 151 196 243 294 357
#     4  11  22  38  60  83 118 157 201 252 308 368
#     4  12  23  42  70  98 130 168 201 244 307 362
#
# _framework density 22.537284
#
# number of rings (size 3 to 8) (size 9 to 14) (size 15 to 20)
#    0.000    1.882    1.176    3.529    0.000    2.353 
#    0.000    4.118    0.000    3.529    0.000    3.294 
#    0.000    0.000    0.000    0.000    0.000    0.000 
#
# Total GULP energy -189577.021556 kJ/mol
# GULP energy per Si atom -5575.794752 kJ/mol
# Density = 2.248599 g / cm^3
# Si number density = 22.537284 Si / 1000 Ang^3
#
#
#
# Elastic Constant Matrix: (Units=GPa)
#
#
# Indices 1 2 3 4 5 6 
#
# 1 92.4432 -2.8565 21.6567 0.0000 0.0000 0.0000
# 2 -2.8565 29.6605 16.3322 0.0000 0.0000 0.0000
# 3 21.6567 16.3322 164.2943 0.0000 0.0000 0.0000
# 4 0.0000 0.0000 0.0000 -387.8627 0.0000 0.0000
# 5 0.0000 0.0000 0.0000 0.0000 465.4516 0.0000
# 6 0.0000 0.0000 0.0000 0.0000 0.0000 5.7882
#
#
#
# Elastic Compliance Matrix: (Units=1/GPa)
#
#
# Indices 1 2 3 4 5 6 
#
# 1 0.011275 0.002014 -0.001686 0.000000 0.000000 0.000000
# 2 0.002014 0.036027 -0.003847 0.000000 0.000000 0.000000
# 3 -0.001686 -0.003847 0.006691 0.000000 0.000000 0.000000
# 4 0.000000 0.000000 0.000000 -0.002578 0.000000 0.000000
# 5 0.000000 0.000000 0.000000 0.000000 0.002148 0.000000
# 6 0.000000 0.000000 0.000000 0.000000 0.000000 0.172765
#
#
# Mechanical properties :
#
#
# Convention : Reuss Voigt Hill
#
# Bulk Modulus (GPa) = 21.29678 39.62919 30.46298
# Shear Modulus (GPa) = 20.07889 33.42647 26.75268
#
# Velocity S-wave (km/s) = 2.98806 3.85536 3.44908
# Velocity P-wave (km/s) = 4.62329 6.11886 5.42288
#
# Compressibility (1/GPa) = 0.04695547
#
# Stress axis : x y z
#
# Youngs Moduli (GPa) = 88.69348 27.75684 149.44647
#
# Poissons Ratio (x) = -0.05592 0.25204
# Poissons Ratio (y) = -0.17867 0.57491
# Poissons Ratio (z) = 0.14958 0.10678
#
# Static dielectric constant tensor:
#      x y z
#    x 1.827790 0.000000 0.000000 
#    y 0.000000 1.788310 0.000000 
#    z 0.000000 0.000000 1.844090 
# 
# From -- ./inp_files/58959.got.cif
#   From: 2010.05.17/outbox.cif.g08.bks.cpg/sg65_30_cif.got.tgz:58959.got - 2010.06.03 17:01:31.
