data_PCOD9493546
_publ_section_title
;
Structure prediction by ZEFSAII (Michael W. Deem and Ramdas Pophale) SiO2 
 PCOD9493546
Probable space group: C M M M
;
_chemical_formula_sum "Si O2"
_cell_formula_units_Z 68
_cell_length_a 18.738079
_cell_length_b 14.123367
_cell_length_c 14.154542
_cell_angle_alpha 90.000000
_cell_angle_beta 90.000000
_cell_angle_gamma 90.000000
_cell_volume 3745.925464
_symmetry_space_group_name_H-M "C M M M"
_symmetry_group_IT_number 65
_symmetry_cell_setting 'orthorhombic'
loop_
_space_group_symop_operation_xyz
x,y,z
-x,-y,z
x,-y,-z
-x,y,-z
-x,-y,-z
x,y,-z
-x,y,z
x,-y,z
1/2+x,1/2+y,z
1/2-x,1/2-y,z
1/2+x,1/2-y,-z
1/2-x,1/2+y,-z
1/2-x,1/2-y,-z
1/2+x,1/2+y,-z
1/2-x,1/2+y,z
1/2+x,1/2-y,z
loop_
_atom_site_type_symbol
_atom_site_label
_atom_site_fract_x
_atom_site_fract_y
_atom_site_fract_z
Si Si1 0.729820 0.360137 0.000000
Si Si2 0.347198 0.393963 0.196957
Si Si3 0.292548 0.110607 0.328902
Si Si4 0.393204 0.106352 0.000000
Si Si5 0.750000 0.750000 0.500000
Si Si6 0.419501 0.804093 0.203969
O O1 0.750000 0.250000 0.000000
O O2 0.685362 0.385865 0.907810
O O3 0.807880 0.403774 0.000000
O O4 0.376607 0.500000 0.211295
O O5 0.279588 0.381170 0.266257
O O6 0.401092 0.307377 0.210123
O O7 0.282462 0.179076 0.417289
O O8 0.359432 0.142094 0.264543
O O9 0.299979 0.000000 0.355083
O O10 0.413586 0.161774 0.095175
O O11 0.422713 0.000000 0.000000
O O12 0.500000 0.822694 0.237017
#
# Coordination Sequence:
#
# PCOD9493546 Si02
#       6
#     8  16  16   8   4  16
#     4  12  18  33  62  88 121 156 208 267 309 357
#     4  11  21  38  63  90 120 160 210 259 307 365
#     4  11  23  41  68  95 119 157 207 260 314 368
#     4  12  23  36  57  90 128 171 212 247 300 369
#     4  12  22  44  70  94 122 144 208 278 320 362
#     4  12  24  40  60  92 137 172 202 248 307 379
#
# _framework density 18.153055999999999
#
# number of rings (size 3 to 8) (size 9 to 14) (size 15 to 20)
#    0.000    0.471    7.059    2.471    0.000    2.824 
#    0.000    0.588    0.000    4.235    0.000    3.294 
#    0.000    0.000    0.000    0.000    0.000    0.000 
#
# Total GULP energy -189437.421284 kJ/mol
# GULP energy per Si atom -5571.688861 kJ/mol
# Density = 1.811174 g / cm^3
# Si number density = 18.153056 Si / 1000 Ang^3
#
#
#
# Elastic Constant Matrix: (Units=GPa)
#
#
# Indices 1 2 3 4 5 6 
#
# 1 58.7941 44.1072 24.1010 0.0000 0.0000 0.0000
# 2 44.1072 154.8653 44.4096 0.0000 0.0000 0.0000
# 3 24.1010 44.4096 121.8646 0.0000 0.0000 0.0000
# 4 0.0000 0.0000 0.0000 28.1986 0.0000 0.0000
# 5 0.0000 0.0000 0.0000 0.0000 0.0534 0.0000
# 6 0.0000 0.0000 0.0000 0.0000 0.0000 -9.6489
#
#
#
# Elastic Compliance Matrix: (Units=1/GPa)
#
#
# Indices 1 2 3 4 5 6 
#
# 1 0.022207 -0.005657 -0.002331 0.000000 0.000000 0.000000
# 2 -0.005657 0.008652 -0.002034 0.000000 0.000000 0.000000
# 3 -0.002331 -0.002034 0.009408 0.000000 0.000000 0.000000
# 4 0.000000 0.000000 0.000000 0.035463 0.000000 0.000000
# 5 0.000000 0.000000 0.000000 0.000000 18.711690 0.000000
# 6 0.000000 0.000000 0.000000 0.000000 0.000000 -0.103639
#
#
# Mechanical properties :
#
#
# Convention : Reuss Voigt Hill
#
# Bulk Modulus (GPa) = 49.44496 62.30661 55.87578
# Shear Modulus (GPa) = 0.26723 18.58104 9.42413
#
# Velocity S-wave (km/s) = 0.38409 3.20281 2.28095
# Velocity P-wave (km/s) = 5.24344 6.93360 6.14689
#
# Compressibility (1/GPa) = 0.02022451
#
# Stress axis : x y z
#
# Youngs Moduli (GPa) = 45.03003 115.58588 106.29250
#
# Poissons Ratio (x) = 0.65382 0.24772
# Poissons Ratio (y) = 0.25472 0.21621
# Poissons Ratio (z) = 0.10495 0.23511
#
# Static dielectric constant tensor:
#      x y z
#    x 1.601380 0.000000 0.000000 
#    y 0.000000 1.652740 0.000000 
#    z 0.000000 0.000000 1.581040 
# 
# From -- ./inp_files/28355.got.cif
#   From: 2010.05.17/outbox.cif.g08.bks.cpg/sg65_15_cif.got.tgz:28355.got - 2010.06.03 17:01:31.
