data_PCOD9493612
_publ_section_title
;
Structure prediction by ZEFSAII (Michael W. Deem and Ramdas Pophale) SiO2 
 PCOD9493612
Probable space group: C M M M
;
_chemical_formula_sum "Si O2"
_cell_formula_units_Z 112
_cell_length_a 24.727697
_cell_length_b 17.204187
_cell_length_c 13.939269
_cell_angle_alpha 90.000000
_cell_angle_beta 90.000000
_cell_angle_gamma 90.000000
_cell_volume 5930.042748
_symmetry_space_group_name_H-M "C M M M"
_symmetry_group_IT_number 65
_symmetry_cell_setting 'orthorhombic'
loop_
_space_group_symop_operation_xyz
x,y,z
-x,-y,z
x,-y,-z
-x,y,-z
-x,-y,-z
x,y,-z
-x,y,z
x,-y,z
1/2+x,1/2+y,z
1/2-x,1/2-y,z
1/2+x,1/2-y,-z
1/2-x,1/2+y,-z
1/2-x,1/2-y,-z
1/2+x,1/2+y,-z
1/2-x,1/2+y,z
1/2+x,1/2-y,z
loop_
_atom_site_type_symbol
_atom_site_label
_atom_site_fract_x
_atom_site_fract_y
_atom_site_fract_z
Si Si1 0.563668 0.136849 0.109458
Si Si2 0.663169 0.591303 0.219529
Si Si3 0.061144 0.206228 0.215315
Si Si4 0.208247 0.817404 0.392737
Si Si5 0.259259 0.157774 0.109092
Si Si6 0.152087 0.587447 0.748994
Si Si7 0.895001 0.291843 0.393209
O O1 0.500000 0.121663 0.121661
O O2 0.572317 0.228133 0.134816
O O3 0.599426 0.089244 0.183189
O O4 0.578670 0.120984 0.000000
O O5 0.652230 0.500000 0.220423
O O6 0.608052 0.641777 0.215380
O O7 0.697244 0.617082 0.314335
O O8 0.702920 0.615551 0.133337
O O9 0.064799 0.255664 0.314582
O O10 0.000000 0.175992 0.203802
O O11 0.224648 0.844046 0.500000
O O12 0.250000 0.750000 0.361466
O O13 0.151514 0.772948 0.400734
O O14 0.250000 0.250000 0.116933
O O15 0.303056 0.131185 0.187313
O O16 0.276764 0.140106 0.000000
O O17 0.169654 0.500000 0.728617
O O18 0.134649 0.634325 0.654509
O O19 0.916552 0.307059 0.500000
#
# Coordination Sequence:
#
# PCOD9493612 Si02
#       7
#    16  16  16  16  16  16  16
#     4   9  18  34  56  78 101 136 182 227 268 314
#     4  11  22  34  52  80 112 141 173 222 282 335
#     4   9  19  36  56  78 105 140 186 230 267 321
#     4   9  17  32  54  75  98 133 175 216 258 309
#     4  11  23  39  58  77 104 146 191 231 272 325
#     4  11  22  34  52  81 115 145 176 220 276 335
#     4   9  18  33  54  78 104 138 180 221 259 308
#
# _framework density 18.886879
#
# number of rings (size 3 to 8) (size 9 to 14) (size 15 to 20)
#    0.000    2.143    0.000    4.714    0.000    5.143 
#    0.000    0.714    0.000    4.286    0.000   11.000 
#    0.000    0.000    0.000    0.000    0.000    0.000 
#
# Total GULP energy -312414.501401 kJ/mol
# GULP energy per Si atom -5578.830382 kJ/mol
# Density = 1.884389 g / cm^3
# Si number density = 18.886879 Si / 1000 Ang^3
#
#
#
# Elastic Constant Matrix: (Units=GPa)
#
#
# Indices 1 2 3 4 5 6 
#
# 1 53.0313 11.3499 -8.4047 0.0000 0.0000 0.0000
# 2 11.3499 69.0362 3.2689 0.0000 0.0000 0.0000
# 3 -8.4047 3.2689 56.9758 0.0000 0.0000 0.0000
# 4 0.0000 0.0000 0.0000 -12.6297 0.0000 0.0000
# 5 0.0000 0.0000 0.0000 0.0000 18.8796 0.0000
# 6 0.0000 0.0000 0.0000 0.0000 0.0000 16.4999
#
#
#
# Elastic Compliance Matrix: (Units=1/GPa)
#
#
# Indices 1 2 3 4 5 6 
#
# 1 0.020097 -0.003454 0.003163 0.000000 0.000000 0.000000
# 2 -0.003454 0.015118 -0.001377 0.000000 0.000000 0.000000
# 3 0.003163 -0.001377 0.018097 0.000000 0.000000 0.000000
# 4 0.000000 0.000000 0.000000 -0.079178 0.000000 0.000000
# 5 0.000000 0.000000 0.000000 0.000000 0.052967 0.000000
# 6 0.000000 0.000000 0.000000 0.000000 0.000000 0.060606
#
#
# Mechanical properties :
#
#
# Convention : Reuss Voigt Hill
#
# Bulk Modulus (GPa) = 20.00943 21.27460 20.64201
# Shear Modulus (GPa) = 46.42436 16.07192 31.24814
#
# Velocity S-wave (km/s) = 4.96322 2.92028 4.07195
# Velocity P-wave (km/s) = 6.59258 4.76019 5.74985
#
# Compressibility (1/GPa) = 0.04997644
#
# Stress axis : x y z
#
# Youngs Moduli (GPa) = 49.75802 66.14552 55.25821
#
# Poissons Ratio (x) = 0.22846 -0.17477
# Poissons Ratio (y) = 0.17186 0.07608
# Poissons Ratio (z) = -0.15737 0.09107
#
# Static dielectric constant tensor:
#      x y z
#    x 1.662590 0.000000 0.000000 
#    y 0.000000 1.637880 0.000000 
#    z 0.000000 0.000000 1.694220 
# 
# From -- ./inp_files/45808.got.cif
#   From: 2010.05.17/outbox.cif.g08.bks.cpg/sg65_23_cif.got.tgz:45808.got - 2010.06.03 17:01:31.
