data_PCOD9493655
_publ_section_title
;
Structure prediction by ZEFSAII (Michael W. Deem and Ramdas Pophale) SiO2 
 PCOD9493655
Probable space group: C M M M
;
_chemical_formula_sum "Si O2"
_cell_formula_units_Z 72
_cell_length_a 8.328672
_cell_length_b 16.730620
_cell_length_c 25.095090
_cell_angle_alpha 90.000000
_cell_angle_beta 90.000000
_cell_angle_gamma 90.000000
_cell_volume 3496.846365
_symmetry_space_group_name_H-M "C M M M"
_symmetry_group_IT_number 65
_symmetry_cell_setting 'orthorhombic'
loop_
_space_group_symop_operation_xyz
x,y,z
-x,-y,z
x,-y,-z
-x,y,-z
-x,-y,-z
x,y,-z
-x,y,z
x,-y,z
1/2+x,1/2+y,z
1/2-x,1/2-y,z
1/2+x,1/2-y,-z
1/2-x,1/2+y,-z
1/2-x,1/2-y,-z
1/2+x,1/2+y,-z
1/2-x,1/2+y,z
1/2+x,1/2-y,z
loop_
_atom_site_type_symbol
_atom_site_label
_atom_site_fract_x
_atom_site_fract_y
_atom_site_fract_z
Si Si1 0.308411 0.589599 0.777878
Si Si2 0.695830 0.000000 0.062255
Si Si3 0.195040 0.405988 0.558070
Si Si4 0.192733 0.338903 0.329642
Si Si5 0.810037 0.663271 0.118259
O O1 0.500000 0.594615 0.782081
O O2 0.255242 0.500000 0.792758
O O3 0.258099 0.606064 0.717415
O O4 0.232448 0.650655 0.819624
O O5 0.754046 0.916950 0.088951
O O6 0.500000 0.000000 0.066887
O O7 0.736130 0.000000 0.000000
O O8 0.251403 0.375834 0.500000
O O9 0.234695 0.500000 0.561592
O O10 0.252397 0.363007 0.611375
O O11 0.000000 0.400855 0.557914
O O12 0.250000 0.250000 0.317775
O O13 0.000000 0.343365 0.329389
O O14 0.750000 0.750000 0.099768
O O15 0.000000 0.663281 0.111723
#
# Coordination Sequence:
#
# PCOD9493655 Si02
#       5
#    16   8  16  16  16
#     4  11  23  39  60  85 116 151 193 246 300 354
#     4   9  20  40  65  93 127 167 208 249 296 353
#     4   8  15  30  52  76 101 134 180 232 284 342
#     4  11  22  35  53  79 112 148 189 234 287 349
#     4  11  22  39  64  93 126 164 206 250 300 356
#
# _framework density 20.589981999999999
#
# number of rings (size 3 to 8) (size 9 to 14) (size 15 to 20)
#    0.000    1.889    1.111    4.000    0.000    3.111 
#    0.000    0.000    0.000    6.667    0.000    7.778 
#    0.000    0.000    0.000    0.000    0.000    0.000 
#
# Total GULP energy -201009.510894 kJ/mol
# GULP energy per Si atom -5583.597525 kJ/mol
# Density = 2.054312 g / cm^3
# Si number density = 20.589982 Si / 1000 Ang^3
#
#
#
# Elastic Constant Matrix: (Units=GPa)
#
#
# Indices 1 2 3 4 5 6 
#
# 1 20.8315 22.5684 2.6248 0.0000 0.0000 0.0000
# 2 22.5684 128.0961 48.1989 0.0000 0.0000 0.0000
# 3 2.6248 48.1989 101.6200 0.0000 0.0000 0.0000
# 4 0.0000 0.0000 0.0000 20.6487 0.0000 0.0000
# 5 0.0000 0.0000 0.0000 0.0000 7.4074 0.0000
# 6 0.0000 0.0000 0.0000 0.0000 0.0000 12.5394
#
#
#
# Elastic Compliance Matrix: (Units=1/GPa)
#
#
# Indices 1 2 3 4 5 6 
#
# 1 0.060816 -0.012323 0.004274 0.000000 0.000000 0.000000
# 2 -0.012323 0.011999 -0.005373 0.000000 0.000000 0.000000
# 3 0.004274 -0.005373 0.012279 0.000000 0.000000 0.000000
# 4 0.000000 0.000000 0.000000 0.048429 0.000000 0.000000
# 5 0.000000 0.000000 0.000000 0.000000 0.135000 0.000000
# 6 0.000000 0.000000 0.000000 0.000000 0.000000 0.079748
#
#
# Mechanical properties :
#
#
# Convention : Reuss Voigt Hill
#
# Bulk Modulus (GPa) = 17.16739 44.14799 30.65769
# Shear Modulus (GPa) = 12.67324 19.92948 16.30136
#
# Velocity S-wave (km/s) = 2.48363 3.11452 2.81679
# Velocity P-wave (km/s) = 4.07190 5.86700 5.04985
#
# Compressibility (1/GPa) = 0.05824999
#
# Stress axis : x y z
#
# Youngs Moduli (GPa) = 16.44304 83.33694 81.44198
#
# Poissons Ratio (x) = 1.02696 -0.34808
# Poissons Ratio (y) = 0.20263 0.43760
# Poissons Ratio (z) = -0.07028 0.44778
#
# Static dielectric constant tensor:
#      x y z
#    x 1.705480 0.000000 0.000000 
#    y 0.000000 1.735400 0.000000 
#    z 0.000000 0.000000 1.728740 
# 
# From -- ./inp_files/72508.got.cif
#   From: 2010.05.17/outbox.cif.g08.bks.cpg/sg65_37_cif.got.tgz:72508.got - 2010.06.03 17:01:31.
