data_PCOD9493413
_publ_section_title
;
Structure prediction by ZEFSAII (Michael W. Deem and Ramdas Pophale) SiO2 
 PCOD9493413
Probable space group: C M M M
;
_chemical_formula_sum "Si O2"
_cell_formula_units_Z 80
_cell_length_a 28.939285
_cell_length_b 8.641837
_cell_length_c 21.676566
_cell_angle_alpha 90.000000
_cell_angle_beta 90.000000
_cell_angle_gamma 90.000000
_cell_volume 5421.061694
_symmetry_space_group_name_H-M "C M M M"
_symmetry_group_IT_number 65
_symmetry_cell_setting 'orthorhombic'
loop_
_space_group_symop_operation_xyz
x,y,z
-x,-y,z
x,-y,-z
-x,y,-z
-x,-y,-z
x,y,-z
-x,y,z
x,-y,z
1/2+x,1/2+y,z
1/2-x,1/2-y,z
1/2+x,1/2-y,-z
1/2-x,1/2+y,-z
1/2-x,1/2-y,-z
1/2+x,1/2+y,-z
1/2-x,1/2+y,z
1/2+x,1/2-y,z
loop_
_atom_site_type_symbol
_atom_site_label
_atom_site_fract_x
_atom_site_fract_y
_atom_site_fract_z
Si Si1 0.802300 0.813731 0.500000
Si Si2 0.447098 0.185770 0.927153
Si Si3 0.145551 0.183867 0.880383
Si Si4 0.698155 0.814728 0.000000
Si Si5 0.197483 0.186237 0.633644
Si Si6 0.197688 0.315338 0.237768
O O1 0.750000 0.750000 0.500000
O O2 0.823371 0.769556 0.566576
O O3 0.799582 0.000000 0.500000
O O4 0.500000 0.225149 0.910898
O O5 0.407944 0.270510 0.888614
O O6 0.441693 0.000000 0.920942
O O7 0.440724 0.221790 0.000000
O O8 0.171951 0.254749 0.939361
O O9 0.167635 0.253830 0.818792
O O10 0.151272 0.000000 0.880528
O O11 0.750000 0.750000 0.000000
O O12 0.698546 0.000000 0.000000
O O13 0.250000 0.250000 0.631927
O O14 0.177900 0.257215 0.696434
O O15 0.198235 0.000000 0.638850
O O16 0.199956 0.500000 0.237299
O O17 0.250000 0.250000 0.231610
#
# Coordination Sequence:
#
# PCOD9493413 Si02
#       6
#     8  16  16   8  16  16
#     4   8  14  22  36  56  80 108 141 182 223 258
#     4   9  18  34  55  75  94 115 140 176 224 273
#     4  12  23  35  50  70  91 116 149 186 226 269
#     4  12  24  38  51  66  89 116 150 189 227 265
#     4   9  15  25  39  58  82 111 147 185 222 262
#     4  11  21  33  46  62  87 121 156 191 228 268
#
# _framework density 14.757256999999999
#
# number of rings (size 3 to 8) (size 9 to 14) (size 15 to 20)
#    0.000    1.800    1.000    7.500    0.000    1.200 
#    0.000    1.000    0.000    0.000    0.000    0.000 
#    0.000    0.000    0.000    0.900    0.000   17.500 
#
# Total GULP energy -223055.487951 kJ/mol
# GULP energy per Si atom -5576.387199 kJ/mol
# Density = 1.472367 g / cm^3
# Si number density = 14.757257 Si / 1000 Ang^3
#
#
#
# Elastic Constant Matrix: (Units=GPa)
#
#
# Indices 1 2 3 4 5 6 
#
# 1 62.5746 36.5882 49.0459 0.0000 0.0000 0.0000
# 2 36.5882 110.2141 60.5206 0.0000 0.0000 0.0000
# 3 49.0459 60.5206 158.7853 0.0000 0.0000 0.0000
# 4 0.0000 0.0000 0.0000 12.3214 0.0000 0.0000
# 5 0.0000 0.0000 0.0000 0.0000 -0.4360 0.0000
# 6 0.0000 0.0000 0.0000 0.0000 0.0000 20.3642
#
#
#
# Elastic Compliance Matrix: (Units=1/GPa)
#
#
# Indices 1 2 3 4 5 6 
#
# 1 0.022857 -0.004693 -0.005271 0.000000 0.000000 0.000000
# 2 -0.004693 0.012439 -0.003291 0.000000 0.000000 0.000000
# 3 -0.005271 -0.003291 0.009180 0.000000 0.000000 0.000000
# 4 0.000000 0.000000 0.000000 0.081160 0.000000 0.000000
# 5 0.000000 0.000000 0.000000 0.000000 -2.293532 0.000000
# 6 0.000000 0.000000 0.000000 0.000000 0.000000 0.049106
#
#
# Mechanical properties :
#
#
# Convention : Reuss Voigt Hill
#
# Bulk Modulus (GPa) = 55.66614 69.32035 62.49324
# Shear Modulus (GPa) = -2.39660 18.81121 8.20731
#
# Velocity S-wave (km/s) = -1.27575 3.57418 2.36085
# Velocity P-wave (km/s) = 5.96934 8.00679 7.06193
#
# Compressibility (1/GPa) = 0.01796424
#
# Stress axis : x y z
#
# Youngs Moduli (GPa) = 43.75081 80.39491 108.92736
#
# Poissons Ratio (x) = 0.37732 0.57417
# Poissons Ratio (y) = 0.20534 0.35851
# Poissons Ratio (z) = 0.23062 0.26460
#
# Static dielectric constant tensor:
#      x y z
#    x 1.461040 0.000000 0.000000 
#    y 0.000000 1.492830 0.000000 
#    z 0.000000 0.000000 1.527520 
# 
# From -- ./inp_files/66157.got.cif
#   From: 2010.05.17/outbox.cif.g08.bks.cpg/sg65_34_cif.got.tgz:66157.got - 2010.06.03 17:01:31.
