data_PCOD9493062
_publ_section_title
;
Structure prediction by ZEFSAII (Michael W. Deem and Ramdas Pophale) SiO2 
 PCOD9493062
Probable space group: C M M M
;
_chemical_formula_sum "Si O2"
_cell_formula_units_Z 88
_cell_length_a 8.644330
_cell_length_b 21.574891
_cell_length_c 24.260616
_cell_angle_alpha 90.000000
_cell_angle_beta 90.000000
_cell_angle_gamma 90.000000
_cell_volume 4524.616469
_symmetry_space_group_name_H-M "C M M M"
_symmetry_group_IT_number 65
_symmetry_cell_setting 'orthorhombic'
loop_
_space_group_symop_operation_xyz
x,y,z
-x,-y,z
x,-y,-z
-x,y,-z
-x,-y,-z
x,y,-z
-x,y,z
x,-y,z
1/2+x,1/2+y,z
1/2-x,1/2-y,z
1/2+x,1/2-y,-z
1/2-x,1/2+y,-z
1/2-x,1/2-y,-z
1/2+x,1/2+y,-z
1/2-x,1/2+y,z
1/2+x,1/2-y,z
loop_
_atom_site_type_symbol
_atom_site_label
_atom_site_fract_x
_atom_site_fract_y
_atom_site_fract_z
Si Si1 0.324993 0.500000 0.433195
Si Si2 0.687918 0.363779 0.436620
Si Si3 0.186371 0.430331 0.141042
Si Si4 0.683059 0.186701 0.671369
Si Si5 0.684813 0.430504 0.735711
Si Si6 0.686679 0.816575 0.936169
O O1 0.500000 0.500000 0.410101
O O2 0.337945 0.500000 0.500000
O O3 0.254881 0.566644 0.420700
O O4 0.731375 0.350516 0.500000
O O5 0.500000 0.364627 0.434483
O O6 0.754207 0.319161 0.390915
O O7 0.218793 0.500000 0.119302
O O8 0.265728 0.425176 0.200503
O O9 0.235552 0.374787 0.100956
O O10 0.000000 0.425960 0.148457
O O11 0.500000 0.189441 0.671547
O O12 0.750000 0.250000 0.696429
O O13 0.740416 0.125709 0.702834
O O14 0.500000 0.426460 0.730532
O O15 0.732214 0.500000 0.716653
O O16 0.500000 0.814322 0.935138
O O17 0.750000 0.750000 0.916915
O O18 0.735423 0.824850 0.000000
#
# Coordination Sequence:
#
# PCOD9493062 Si02
#       6
#     8  16  16  16  16  16
#     4   7  12  26  51  81 109 139 175 213 256 313
#     4   9  18  35  59  86 116 150 187 227 276 335
#     4   9  18  34  56  82 112 146 188 237 284 331
#     4  12  26  42  60  84 116 150 190 236 285 340
#     4  10  22  41  64  87 113 148 189 234 288 348
#     4   9  18  32  51  78 113 153 193 232 278 332
#
# _framework density 19.449162000000001
#
# number of rings (size 3 to 8) (size 9 to 14) (size 15 to 20)
#    0.000    2.455    0.000    3.273    1.273    3.636 
#    0.000    3.636    0.000    1.636    0.000    5.091 
#    0.000    0.000    0.000    0.000    0.000    0.000 
#
# Total GULP energy -245529.537157 kJ/mol
# GULP energy per Si atom -5580.216754 kJ/mol
# Density = 1.940490 g / cm^3
# Si number density = 19.449162 Si / 1000 Ang^3
#
#
#
# Elastic Constant Matrix: (Units=GPa)
#
#
# Indices 1 2 3 4 5 6 
#
# 1 42.1318 44.0464 25.7764 0.0000 0.0000 0.0000
# 2 44.0464 177.8443 75.0820 0.0000 0.0000 0.0000
# 3 25.7764 75.0820 67.2299 0.0000 0.0000 0.0000
# 4 0.0000 0.0000 0.0000 22.4397 0.0000 0.0000
# 5 0.0000 0.0000 0.0000 0.0000 23.8154 0.0000
# 6 0.0000 0.0000 0.0000 0.0000 0.0000 29.2043
#
#
#
# Elastic Compliance Matrix: (Units=1/GPa)
#
#
# Indices 1 2 3 4 5 6 
#
# 1 0.033589 -0.005453 -0.006788 0.000000 0.000000 0.000000
# 2 -0.005453 0.011524 -0.010780 0.000000 0.000000 0.000000
# 3 -0.006788 -0.010780 0.029516 0.000000 0.000000 0.000000
# 4 0.000000 0.000000 0.000000 0.044564 0.000000 0.000000
# 5 0.000000 0.000000 0.000000 0.000000 0.041990 0.000000
# 6 0.000000 0.000000 0.000000 0.000000 0.000000 0.034242
#
#
# Mechanical properties :
#
#
# Convention : Reuss Voigt Hill
#
# Bulk Modulus (GPa) = 34.98088 64.11286 49.54687
# Shear Modulus (GPa) = 19.92069 24.57861 22.24965
#
# Velocity S-wave (km/s) = 3.20385 3.55876 3.38596
# Velocity P-wave (km/s) = 5.63126 7.06557 6.38879
#
# Compressibility (1/GPa) = 0.02858704
#
# Stress axis : x y z
#
# Youngs Moduli (GPa) = 29.77163 86.77255 33.88027
#
# Poissons Ratio (x) = 0.47318 0.22999
# Poissons Ratio (y) = 0.16235 0.36522
# Poissons Ratio (z) = 0.20210 0.93538
#
# Static dielectric constant tensor:
#      x y z
#    x 1.659490 0.000000 0.000000 
#    y 0.000000 1.710760 0.000000 
#    z 0.000000 0.000000 1.670510 
# 
# From -- ./inp_files/67592.got.cif
#   From: 2010.05.17/outbox.cif.g08.bks.cpg/sg65_34_cif.got.tgz:67592.got - 2010.06.03 17:01:31.
