data_PCOD9493232
_publ_section_title
;
Structure prediction by ZEFSAII (Michael W. Deem and Ramdas Pophale) SiO2 
 PCOD9493232
Probable space group: C M M M
;
_chemical_formula_sum "Si O2"
_cell_formula_units_Z 64
_cell_length_a 8.659403
_cell_length_b 15.818537
_cell_length_c 24.245832
_cell_angle_alpha 90.000000
_cell_angle_beta 90.000000
_cell_angle_gamma 90.000000
_cell_volume 3321.171925
_symmetry_space_group_name_H-M "C M M M"
_symmetry_group_IT_number 65
_symmetry_cell_setting 'orthorhombic'
loop_
_space_group_symop_operation_xyz
x,y,z
-x,-y,z
x,-y,-z
-x,y,-z
-x,-y,-z
x,y,-z
-x,y,z
x,-y,z
1/2+x,1/2+y,z
1/2-x,1/2-y,z
1/2+x,1/2-y,-z
1/2-x,1/2+y,-z
1/2-x,1/2-y,-z
1/2+x,1/2+y,-z
1/2-x,1/2+y,z
1/2+x,1/2-y,z
loop_
_atom_site_type_symbol
_atom_site_label
_atom_site_fract_x
_atom_site_fract_y
_atom_site_fract_z
Si Si1 0.315219 0.160331 0.383884
Si Si2 0.314221 0.840435 0.880130
Si Si3 0.184009 0.000000 0.186261
Si Si4 0.815380 0.900085 0.500000
Si Si5 0.686584 0.000000 0.691000
Si Si6 0.812376 0.597983 0.000000
O O1 0.500000 0.163855 0.386135
O O2 0.250000 0.250000 0.364555
O O3 0.251989 0.141085 0.444904
O O4 0.270383 0.083008 0.344097
O O5 0.500000 0.840369 0.878357
O O6 0.250000 0.750000 0.861946
O O7 0.252193 0.917288 0.843618
O O8 0.263106 0.857700 0.943493
O O9 0.235331 0.000000 0.249716
O O10 0.000000 0.000000 0.181465
O O11 0.000000 0.891196 0.500000
O O12 0.776641 0.000000 0.500000
O O13 0.500000 0.000000 0.697596
O O14 0.762266 0.500000 0.000000
O O15 0.000000 0.597596 0.000000
#
# Coordination Sequence:
#
# PCOD9493232 Si02
#       6
#    16  16   8   8   8   8
#     4  11  23  41  65  93 125 161 203 250 305 365
#     4  11  22  40  65  93 128 164 206 255 309 371
#     4  12  26  43  64  91 123 164 212 260 311 368
#     4  11  22  37  62  94 128 164 202 247 301 363
#     4  10  24  45  66  87 119 164 208 258 313 364
#     4   9  17  34  62  93 124 164 202 247 310 369
#
# _framework density 19.270306999999999
#
# number of rings (size 3 to 8) (size 9 to 14) (size 15 to 20)
#    0.000    1.250    2.500    3.750    0.000    3.500 
#    0.000    5.000    0.000    0.000    0.000    0.000 
#    0.000    0.000    0.000    0.000    0.000    0.000 
#
# Total GULP energy -178984.317091 kJ/mol
# GULP energy per Si atom -5593.259909 kJ/mol
# Density = 1.922645 g / cm^3
# Si number density = 19.270307 Si / 1000 Ang^3
#
#
#
# Elastic Constant Matrix: (Units=GPa)
#
#
# Indices 1 2 3 4 5 6 
#
# 1 67.7513 62.7417 50.3682 0.0000 0.0000 0.0000
# 2 62.7417 204.7718 84.3982 0.0000 0.0000 0.0000
# 3 50.3682 84.3982 139.1782 0.0000 0.0000 0.0000
# 4 0.0000 0.0000 0.0000 -5.9944 0.0000 0.0000
# 5 0.0000 0.0000 0.0000 0.0000 -10.7734 0.0000
# 6 0.0000 0.0000 0.0000 0.0000 0.0000 32.1273
#
#
#
# Elastic Compliance Matrix: (Units=1/GPa)
#
#
# Indices 1 2 3 4 5 6 
#
# 1 0.023379 -0.004901 -0.005489 0.000000 0.000000 0.000000
# 2 -0.004901 0.007538 -0.002797 0.000000 0.000000 0.000000
# 3 -0.005489 -0.002797 0.010868 0.000000 0.000000 0.000000
# 4 0.000000 0.000000 0.000000 -0.166822 0.000000 0.000000
# 5 0.000000 0.000000 0.000000 0.000000 -0.092821 0.000000
# 6 0.000000 0.000000 0.000000 0.000000 0.000000 0.031126
#
#
# Mechanical properties :
#
#
# Convention : Reuss Voigt Hill
#
# Bulk Modulus (GPa) = 64.89139 89.63527 77.26333
# Shear Modulus (GPa) = -32.21221 17.35143 -7.43039
#
# Velocity S-wave (km/s) = -4.09295 3.00396 -1.96577
# Velocity P-wave (km/s) = 3.37802 7.65816 5.91855
#
# Compressibility (1/GPa) = 0.01541037
#
# Stress axis : x y z
#
# Youngs Moduli (GPa) = 42.77331 132.65822 92.01474
#
# Poissons Ratio (x) = 0.65017 0.50505
# Poissons Ratio (y) = 0.20963 0.25741
# Poissons Ratio (z) = 0.23477 0.37111
#
# Static dielectric constant tensor:
#      x y z
#    x 1.642840 0.000000 0.000000 
#    y 0.000000 1.662910 0.000000 
#    z 0.000000 0.000000 1.641450 
# 
# From -- ./inp_files/66897.got.cif
#   From: 2010.05.17/outbox.cif.g08.bks.cpg/sg65_34_cif.got.tgz:66897.got - 2010.06.03 17:01:31.
