data_PCOD9493392
_publ_section_title
;
Structure prediction by ZEFSAII (Michael W. Deem and Ramdas Pophale) SiO2 
 PCOD9493392
Probable space group: C M M M
;
_chemical_formula_sum "Si O2"
_cell_formula_units_Z 104
_cell_length_a 21.214652
_cell_length_b 15.028974
_cell_length_c 19.287391
_cell_angle_alpha 90.000000
_cell_angle_beta 90.000000
_cell_angle_gamma 90.000000
_cell_volume 6149.484766
_symmetry_space_group_name_H-M "C M M M"
_symmetry_group_IT_number 65
_symmetry_cell_setting 'orthorhombic'
loop_
_space_group_symop_operation_xyz
x,y,z
-x,-y,z
x,-y,-z
-x,y,-z
-x,-y,-z
x,y,-z
-x,y,z
x,-y,z
1/2+x,1/2+y,z
1/2-x,1/2-y,z
1/2+x,1/2-y,-z
1/2-x,1/2+y,-z
1/2-x,1/2-y,-z
1/2+x,1/2+y,-z
1/2-x,1/2+y,z
1/2+x,1/2-y,z
loop_
_atom_site_type_symbol
_atom_site_label
_atom_site_fract_x
_atom_site_fract_y
_atom_site_fract_z
Si Si1 0.689553 0.398753 0.307083
Si Si2 0.208022 0.103987 0.150736
Si Si3 0.615098 0.271880 0.918279
Si Si4 0.826634 0.760010 0.421374
Si Si5 0.158425 0.399569 0.328568
Si Si6 0.640965 0.103118 0.829894
Si Si7 0.500000 0.398474 0.915843
O O1 0.668065 0.500000 0.314252
O O2 0.681452 0.371094 0.227156
O O3 0.660487 0.336357 0.365201
O O4 0.765425 0.398124 0.318402
O O5 0.179348 0.174550 0.098071
O O6 0.283631 0.107811 0.155715
O O7 0.191613 0.000000 0.135992
O O8 0.611083 0.179919 0.876412
O O9 0.561042 0.341547 0.896113
O O10 0.609382 0.254553 0.000000
O O11 0.846955 0.777609 0.500000
O O12 0.750000 0.750000 0.423198
O O13 0.854911 0.670594 0.388406
O O14 0.140362 0.500000 0.346918
O O15 0.131816 0.378624 0.252138
O O16 0.621959 0.000000 0.843381
O O17 0.500000 0.500000 0.889845
O O18 0.500000 0.403249 0.000000
#
# Coordination Sequence:
#
# PCOD9493392 Si02
#       7
#    16  16  16  16  16  16   8
#     4   8  14  24  36  51  75 108 142 173 210 258
#     4   9  17  29  46  67  89 115 148 185 225 268
#     4  11  21  32  48  67  87 115 148 182 221 262
#     4   9  15  20  29  48  73 104 144 183 209 234
#     4   8  14  25  38  51  74 109 142 172 209 253
#     4   9  18  31  46  66  91 117 146 181 223 271
#     4   9  20  38  53  65  85 113 145 178 214 262
#
# _framework density 16.911985999999999
#
# number of rings (size 3 to 8) (size 9 to 14) (size 15 to 20)
#    0.000    3.000    0.000    3.692    0.000    5.538 
#    0.000    5.000    0.000    1.385    0.000    0.000 
#    0.000    0.000    0.000   11.077    0.000   72.615 
#
# Total GULP energy -289555.023899 kJ/mol
# GULP energy per Si atom -5568.365844 kJ/mol
# Density = 1.687349 g / cm^3
# Si number density = 16.911986 Si / 1000 Ang^3
#
#
#
# Elastic Constant Matrix: (Units=GPa)
#
#
# Indices 1 2 3 4 5 6 
#
# 1 11.3709 16.2995 6.6188 0.0000 0.0000 0.0000
# 2 16.2995 113.4678 70.3535 0.0000 0.0000 0.0000
# 3 6.6188 70.3535 82.3508 0.0000 0.0000 0.0000
# 4 0.0000 0.0000 0.0000 16.3759 0.0000 0.0000
# 5 0.0000 0.0000 0.0000 0.0000 0.9681 0.0000
# 6 0.0000 0.0000 0.0000 0.0000 0.0000 13.1986
#
#
#
# Elastic Compliance Matrix: (Units=1/GPa)
#
#
# Indices 1 2 3 4 5 6 
#
# 1 0.114738 -0.022888 0.010331 0.000000 0.000000 0.000000
# 2 -0.022888 0.023305 -0.018070 0.000000 0.000000 0.000000
# 3 0.010331 -0.018070 0.026750 0.000000 0.000000 0.000000
# 4 0.000000 0.000000 0.000000 0.061065 0.000000 0.000000
# 5 0.000000 0.000000 0.000000 0.000000 1.032901 0.000000
# 6 0.000000 0.000000 0.000000 0.000000 0.000000 0.075766
#
#
# Mechanical properties :
#
#
# Convention : Reuss Voigt Hill
#
# Bulk Modulus (GPa) = 9.65808 43.74813 26.70310
# Shear Modulus (GPa) = 3.49579 13.70305 8.59942
#
# Velocity S-wave (km/s) = 1.43928 2.84959 2.25740
# Velocity P-wave (km/s) = 2.91294 6.06227 4.75586
#
# Compressibility (1/GPa) = 0.10354021
#
# Stress axis : x y z
#
# Youngs Moduli (GPa) = 8.71552 42.90937 37.38263
#
# Poissons Ratio (x) = 0.98210 -0.38622
# Poissons Ratio (y) = 0.19948 0.67551
# Poissons Ratio (z) = -0.09004 0.77538
#
# Static dielectric constant tensor:
#      x y z
#    x 1.578340 0.000000 0.000000 
#    y 0.000000 1.599420 0.000000 
#    z 0.000000 0.000000 1.569510 
# 
# From -- ./inp_files/53298.got.cif
#   From: 2010.05.17/outbox.cif.g08.bks.cpg/sg65_27_cif.got.tgz:53298.got - 2010.06.03 17:01:31.
