data_PCOD9493635
_publ_section_title
;
Structure prediction by ZEFSAII (Michael W. Deem and Ramdas Pophale) SiO2 
 PCOD9493635
Probable space group: C M M M
;
_chemical_formula_sum "Si O2"
_cell_formula_units_Z 88
_cell_length_a 8.139667
_cell_length_b 18.986903
_cell_length_c 31.174933
_cell_angle_alpha 90.000000
_cell_angle_beta 90.000000
_cell_angle_gamma 90.000000
_cell_volume 4817.994483
_symmetry_space_group_name_H-M "C M M M"
_symmetry_group_IT_number 65
_symmetry_cell_setting 'orthorhombic'
loop_
_space_group_symop_operation_xyz
x,y,z
-x,-y,z
x,-y,-z
-x,y,-z
-x,-y,-z
x,y,-z
-x,y,z
x,-y,z
1/2+x,1/2+y,z
1/2-x,1/2-y,z
1/2+x,1/2-y,-z
1/2-x,1/2+y,-z
1/2-x,1/2-y,-z
1/2+x,1/2+y,-z
1/2-x,1/2+y,z
1/2+x,1/2-y,z
loop_
_atom_site_type_symbol
_atom_site_label
_atom_site_fract_x
_atom_site_fract_y
_atom_site_fract_z
Si Si1 0.191298 0.414347 0.805203
Si Si2 0.681466 0.585896 0.103215
Si Si3 0.201094 0.581525 0.710881
Si Si4 0.801873 0.919279 0.451890
Si Si5 0.195469 0.669687 0.370489
Si Si6 0.500000 0.914011 0.049550
O O1 0.194008 0.500000 0.804049
O O2 0.288609 0.392255 0.847418
O O3 0.252754 0.392309 0.758168
O O4 0.000000 0.394025 0.810391
O O5 0.500000 0.608079 0.088570
O O6 0.683867 0.500000 0.102838
O O7 0.835070 0.608824 0.074321
O O8 0.250991 0.500000 0.705153
O O9 0.260146 0.627996 0.671249
O O10 0.000000 0.581792 0.711732
O O11 0.746967 0.898627 0.500000
O O12 0.745792 0.869104 0.414092
O O13 0.000000 0.919596 0.452227
O O14 0.747120 0.000000 0.444143
O O15 0.250000 0.750000 0.370485
O O16 0.000000 0.667407 0.367833
O O17 0.500000 0.000000 0.050452
O O18 0.500000 0.892414 0.000000
#
# Coordination Sequence:
#
# PCOD9493635 Si02
#       6
#    16  16  16  16  16   8
#     4   8  12  22  40  58  77 102 135 183 240 286
#     4   9  15  22  33  50  72 100 139 188 236 282
#     4   8  15  28  48  71  91 117 157 203 246 292
#     4   9  19  37  59  80 101 126 159 203 255 303
#     4  11  22  35  51  73 103 137 170 203 243 298
#     4   9  16  24  32  44  68 106 148 188 233 283
#
# _framework density 18.264861
#
# number of rings (size 3 to 8) (size 9 to 14) (size 15 to 20)
#    0.000    3.000    0.909    2.727    0.000    2.182 
#    0.000    4.545    0.000    4.364    0.000    0.000 
#    0.000    0.000    0.000    0.000    0.000    0.909 
#
# Total GULP energy -245160.199005 kJ/mol
# GULP energy per Si atom -5571.822705 kJ/mol
# Density = 1.822329 g / cm^3
# Si number density = 18.264861 Si / 1000 Ang^3
#
#
#
# Elastic Constant Matrix: (Units=GPa)
#
#
# Indices 1 2 3 4 5 6 
#
# 1 75.4297 20.6886 61.5418 0.0000 0.0000 0.0000
# 2 20.6886 41.4048 57.1365 0.0000 0.0000 0.0000
# 3 61.5418 57.1365 175.1697 0.0000 0.0000 0.0000
# 4 0.0000 0.0000 0.0000 -2.7142 0.0000 0.0000
# 5 0.0000 0.0000 0.0000 0.0000 4.6800 0.0000
# 6 0.0000 0.0000 0.0000 0.0000 0.0000 -5.0917
#
#
#
# Elastic Compliance Matrix: (Units=1/GPa)
#
#
# Indices 1 2 3 4 5 6 
#
# 1 0.018590 -0.000502 -0.006367 0.000000 0.000000 0.000000
# 2 -0.000502 0.043935 -0.014154 0.000000 0.000000 0.000000
# 3 -0.006367 -0.014154 0.012563 0.000000 0.000000 0.000000
# 4 0.000000 0.000000 0.000000 -0.368438 0.000000 0.000000
# 5 0.000000 0.000000 0.000000 0.000000 0.213677 0.000000
# 6 0.000000 0.000000 0.000000 0.000000 0.000000 -0.196399
#
#
# Mechanical properties :
#
#
# Convention : Reuss Voigt Hill
#
# Bulk Modulus (GPa) = 30.26642 63.41535 46.84089
# Shear Modulus (GPa) = -22.42026 9.55065 -6.43481
#
# Velocity S-wave (km/s) = -3.50738 2.28918 -1.87902
# Velocity P-wave (km/s) = 0.45223 6.46393 4.58186
#
# Compressibility (1/GPa) = 0.03303992
#
# Stress axis : x y z
#
# Youngs Moduli (GPa) = 53.79180 22.76116 79.60180
#
# Poissons Ratio (x) = 0.01143 0.50686
# Poissons Ratio (y) = 0.02701 1.12669
# Poissons Ratio (z) = 0.34252 0.32216
#
# Static dielectric constant tensor:
#      x y z
#    x 1.651660 0.000000 0.000000 
#    y 0.000000 2.659140 0.000000 
#    z 0.000000 0.000000 1.646920 
# 
# From -- ./inp_files/76684.got.cif
#   From: 2010.05.17/outbox.cif.g08.bks.cpg/sg65_39_cif.got.tgz:76684.got - 2010.06.03 17:01:31.
