data_PCOD9493069
_publ_section_title
;
Structure prediction by ZEFSAII (Michael W. Deem and Ramdas Pophale) SiO2 
 PCOD9493069
Probable space group: C M M M
;
_chemical_formula_sum "Si O2"
_cell_formula_units_Z 96
_cell_length_a 16.171668
_cell_length_b 15.920769
_cell_length_c 16.327431
_cell_angle_alpha 90.000000
_cell_angle_beta 90.000000
_cell_angle_gamma 90.000000
_cell_volume 4203.748399
_symmetry_space_group_name_H-M "C M M M"
_symmetry_group_IT_number 65
_symmetry_cell_setting 'orthorhombic'
loop_
_space_group_symop_operation_xyz
x,y,z
-x,-y,z
x,-y,-z
-x,y,-z
-x,-y,-z
x,y,-z
-x,y,z
x,-y,z
1/2+x,1/2+y,z
1/2-x,1/2-y,z
1/2+x,1/2-y,-z
1/2-x,1/2+y,-z
1/2-x,1/2-y,-z
1/2+x,1/2+y,-z
1/2-x,1/2+y,z
1/2+x,1/2-y,z
loop_
_atom_site_type_symbol
_atom_site_label
_atom_site_fract_x
_atom_site_fract_y
_atom_site_fract_z
Si Si1 0.911336 0.721383 0.877536
Si Si2 0.344316 0.750935 0.297417
Si Si3 0.900503 0.594186 0.596765
Si Si4 0.265305 0.907168 0.094523
Si Si5 0.909863 0.905430 0.870037
Si Si6 0.900120 0.905162 0.595532
O O1 0.902750 0.739080 0.780714
O O2 0.833769 0.664202 0.898833
O O3 0.911729 0.815241 0.913802
O O4 0.000000 0.681197 0.896359
O O5 0.250000 0.750000 0.269547
O O6 0.358034 0.831663 0.354581
O O7 0.364677 0.667361 0.348025
O O8 0.883002 0.601265 0.500000
O O9 0.876509 0.500000 0.623664
O O10 0.000000 0.601654 0.606301
O O11 0.186984 0.900951 0.156241
O O12 0.302600 0.000000 0.106793
O O13 0.234023 0.904350 0.000000
O O14 0.000000 0.904706 0.823673
O O15 0.911129 0.000000 0.907190
O O16 0.875919 0.893516 0.500000
O O17 0.000000 0.900512 0.598114
O O18 0.876259 0.000000 0.620718
#
# Coordination Sequence:
#
# PCOD9493069 Si02
#       6
#    16  16  16  16  16  16
#     4  11  24  41  61  85 116 158 205 252 302 355
#     4  12  24  36  55  84 118 154 192 242 301 357
#     4   9  19  37  59  81 109 150 198 244 292 352
#     4  10  22  41  65  92 122 155 193 243 300 358
#     4   9  19  37  61  90 124 159 193 232 285 352
#     4   9  19  37  60  85 115 153 195 237 284 344
#
# _framework density 22.836762
#
# number of rings (size 3 to 8) (size 9 to 14) (size 15 to 20)
#    0.000    2.000    0.000    4.500    0.000    7.000 
#    0.000    7.500    0.000    0.000    0.000    0.000 
#    0.000    0.000    0.000    0.000    0.000    0.000 
#
# Total GULP energy -267556.794027 kJ/mol
# GULP energy per Si atom -5574.099876 kJ/mol
# Density = 2.278478 g / cm^3
# Si number density = 22.836762 Si / 1000 Ang^3
#
#
#
# Elastic Constant Matrix: (Units=GPa)
#
#
# Indices 1 2 3 4 5 6 
#
# 1 127.2909 68.2785 18.0769 0.0000 0.0000 0.0000
# 2 68.2785 156.3042 42.0735 0.0000 0.0000 0.0000
# 3 18.0769 42.0735 66.4441 0.0000 0.0000 0.0000
# 4 0.0000 0.0000 0.0000 -12.4422 0.0000 0.0000
# 5 0.0000 0.0000 0.0000 0.0000 25.3016 0.0000
# 6 0.0000 0.0000 0.0000 0.0000 0.0000 35.7910
#
#
#
# Elastic Compliance Matrix: (Units=1/GPa)
#
#
# Indices 1 2 3 4 5 6 
#
# 1 0.010260 -0.004497 0.000056 0.000000 0.000000 0.000000
# 2 -0.004497 0.009683 -0.004908 0.000000 0.000000 0.000000
# 3 0.000056 -0.004908 0.018143 0.000000 0.000000 0.000000
# 4 0.000000 0.000000 0.000000 -0.080372 0.000000 0.000000
# 5 0.000000 0.000000 0.000000 0.000000 0.039523 0.000000
# 6 0.000000 0.000000 0.000000 0.000000 0.000000 0.027940
#
#
# Mechanical properties :
#
#
# Convention : Reuss Voigt Hill
#
# Bulk Modulus (GPa) = 51.57729 67.43302 59.50515
# Shear Modulus (GPa) = 99.32642 24.50410 61.91526
#
# Velocity S-wave (km/s) = 6.60216 3.27924 5.21258
# Velocity P-wave (km/s) = 8.98623 6.62799 7.89565
#
# Compressibility (1/GPa) = 0.01938838
#
# Stress axis : x y z
#
# Youngs Moduli (GPa) = 97.46309 103.26888 55.11796
#
# Poissons Ratio (x) = 0.46442 -0.00310
# Poissons Ratio (y) = 0.43831 0.27053
# Poissons Ratio (z) = -0.00548 0.50687
#
# Static dielectric constant tensor:
#      x y z
#    x 1.855380 0.000000 0.000000 
#    y 0.000000 1.832420 0.000000 
#    z 0.000000 0.000000 1.910530 
# 
# From -- ./inp_files/62598.got.cif
#   From: 2010.05.17/outbox.cif.g08.bks.cpg/sg65_32_cif.got.tgz:62598.got - 2010.06.03 17:01:31.
