data_PCOD9493005
_publ_section_title
;
Structure prediction by ZEFSAII (Michael W. Deem and Ramdas Pophale) SiO2 
 PCOD9493005
Probable space group: C M M M
;
_chemical_formula_sum "Si O2"
_cell_formula_units_Z 64
_cell_length_a 24.508875
_cell_length_b 11.329566
_cell_length_c 13.655698
_cell_angle_alpha 90.000000
_cell_angle_beta 90.000000
_cell_angle_gamma 90.000000
_cell_volume 3791.844807
_symmetry_space_group_name_H-M "C M M M"
_symmetry_group_IT_number 65
_symmetry_cell_setting 'orthorhombic'
loop_
_space_group_symop_operation_xyz
x,y,z
-x,-y,z
x,-y,-z
-x,y,-z
-x,-y,-z
x,y,-z
-x,y,z
x,-y,z
1/2+x,1/2+y,z
1/2-x,1/2-y,z
1/2+x,1/2-y,-z
1/2-x,1/2+y,-z
1/2-x,1/2-y,-z
1/2+x,1/2+y,-z
1/2-x,1/2+y,z
1/2+x,1/2-y,z
loop_
_atom_site_type_symbol
_atom_site_label
_atom_site_fract_x
_atom_site_fract_y
_atom_site_fract_z
Si Si1 0.500000 0.858714 0.384296
Si Si2 0.434411 0.000000 0.113301
Si Si3 0.290313 0.862546 0.384306
Si Si4 0.937134 0.859232 0.889935
Si Si5 0.103633 0.699897 0.740747
O O1 0.500000 0.840838 0.500000
O O2 0.553883 0.805866 0.335522
O O3 0.500000 0.000000 0.365199
O O4 0.411217 0.109975 0.172446
O O5 0.500000 0.000000 0.119125
O O6 0.418997 0.000000 0.000000
O O7 0.194573 0.640942 0.500000
O O8 0.250000 0.750000 0.368936
O O9 0.342234 0.837525 0.315694
O O10 0.271043 0.000000 0.366521
O O11 0.898357 0.820674 0.801546
O O12 0.000000 0.817681 0.872063
O O13 0.938830 0.000000 0.893257
O O14 0.921891 0.817680 0.000000
#
# Coordination Sequence:
#
# PCOD9493005 Si02
#       5
#     8   8  16  16  16
#     4  11  20  30  47  78 117 145 170 214 278 346
#     4  11  20  30  50  86 120 144 174 219 272 337
#     4  10  22  40  61  83 109 146 197 246 290 345
#     4   9  18  32  51  77 112 153 191 221 260 328
#     4  12  18  33  54  82 110 144 182 224 284 336
#
# _framework density 16.878328
#
# number of rings (size 3 to 8) (size 9 to 14) (size 15 to 20)
#    0.000    1.500    5.000    2.250    0.000    5.000 
#    0.000    0.000    0.000    6.000    0.000    0.000 
#    0.000    0.000    0.000    0.000    0.000    0.000 
#
# Total GULP energy -178286.660194 kJ/mol
# GULP energy per Si atom -5571.458131 kJ/mol
# Density = 1.683991 g / cm^3
# Si number density = 16.878328 Si / 1000 Ang^3
#
#
#
# Elastic Constant Matrix: (Units=GPa)
#
#
# Indices 1 2 3 4 5 6 
#
# 1 69.5056 38.7241 50.7214 0.0000 0.0000 0.0000
# 2 38.7241 84.3511 44.0130 0.0000 0.0000 0.0000
# 3 50.7214 44.0130 112.7385 0.0000 0.0000 0.0000
# 4 0.0000 0.0000 0.0000 30.3349 0.0000 0.0000
# 5 0.0000 0.0000 0.0000 0.0000 26.7746 0.0000
# 6 0.0000 0.0000 0.0000 0.0000 0.0000 15.7617
#
#
#
# Elastic Compliance Matrix: (Units=1/GPa)
#
#
# Indices 1 2 3 4 5 6 
#
# 1 0.024181 -0.006812 -0.008220 0.000000 0.000000 0.000000
# 2 -0.006812 0.016807 -0.003497 0.000000 0.000000 0.000000
# 3 -0.008220 -0.003497 0.013933 0.000000 0.000000 0.000000
# 4 0.000000 0.000000 0.000000 0.032965 0.000000 0.000000
# 5 0.000000 0.000000 0.000000 0.000000 0.037349 0.000000
# 6 0.000000 0.000000 0.000000 0.000000 0.000000 0.063445
#
#
# Mechanical properties :
#
#
# Convention : Reuss Voigt Hill
#
# Bulk Modulus (GPa) = 55.97756 59.27914 57.62835
# Shear Modulus (GPa) = 21.58041 23.45003 22.51522
#
# Velocity S-wave (km/s) = 3.57961 3.73145 3.65632
# Velocity P-wave (km/s) = 7.09381 7.33230 7.21404
#
# Compressibility (1/GPa) = 0.01786430
#
# Stress axis : x y z
#
# Youngs Moduli (GPa) = 41.35513 59.49888 71.77117
#
# Poissons Ratio (x) = 0.40532 0.58993
# Poissons Ratio (y) = 0.28172 0.25096
# Poissons Ratio (z) = 0.33992 0.20805
#
# Static dielectric constant tensor:
#      x y z
#    x 1.555130 0.000000 0.000000 
#    y 0.000000 1.725620 0.000000 
#    z 0.000000 0.000000 1.556990 
# 
# From -- ./inp_files/30170.got.cif
#   From: 2010.05.17/outbox.cif.g08.bks.cpg/sg65_16_cif.got.tgz:30170.got - 2010.06.03 17:01:31.
