data_PCOD9493118
_publ_section_title
;
Structure prediction by ZEFSAII (Michael W. Deem and Ramdas Pophale) SiO2 
 PCOD9493118
Probable space group: C M M M
;
_chemical_formula_sum "Si O2"
_cell_formula_units_Z 58
_cell_length_a 22.980131
_cell_length_b 8.786487
_cell_length_c 15.605420
_cell_angle_alpha 90.000000
_cell_angle_beta 90.000000
_cell_angle_gamma 90.000000
_cell_volume 3150.962485
_symmetry_space_group_name_H-M "C M M M"
_symmetry_group_IT_number 65
_symmetry_cell_setting 'orthorhombic'
loop_
_space_group_symop_operation_xyz
x,y,z
-x,-y,z
x,-y,-z
-x,y,-z
-x,-y,-z
x,y,-z
-x,y,z
x,-y,z
1/2+x,1/2+y,z
1/2-x,1/2-y,z
1/2+x,1/2-y,-z
1/2-x,1/2+y,-z
1/2-x,1/2-y,-z
1/2+x,1/2+y,-z
1/2-x,1/2+y,z
1/2+x,1/2-y,z
loop_
_atom_site_type_symbol
_atom_site_label
_atom_site_fract_x
_atom_site_fract_y
_atom_site_fract_z
Si Si1 0.815148 0.817749 0.839467
Si Si2 0.000000 0.500000 0.000000
Si Si3 0.500000 0.183157 0.397727
Si Si4 0.879924 0.817205 0.662011
Si Si5 0.377759 0.168330 0.000000
Si Si6 0.313651 0.818111 0.500000
O O1 0.750000 0.750000 0.842058
O O2 0.847629 0.778283 0.750487
O O3 0.854398 0.754757 0.916703
O O4 0.810971 0.000000 0.845054
O O5 0.053103 0.369058 0.000000
O O6 0.500000 0.225406 0.500000
O O7 0.555949 0.249530 0.349735
O O8 0.500000 0.000000 0.394503
O O9 0.845053 0.744810 0.583721
O O10 0.881731 0.000000 0.654289
O O11 0.349314 0.000000 0.000000
O O12 0.250000 0.750000 0.500000
O O13 0.313889 0.000000 0.500000
#
# Coordination Sequence:
#
# PCOD9493118 Si02
#       6
#    16   2   8  16   8   8
#     4  11  24  42  67 101 134 173 220 272 332 396
#     4   8  24  44  70 100 132 174 226 250 332 384
#     4  11  23  40  63  92 125 171 224 271 327 397
#     4  11  24  41  63  92 128 169 219 271 330 390
#     4  10  22  44  70  96 133 172 218 265 324 387
#     4  12  24  39  60  87 124 168 214 270 334 388
#
# _framework density 18.407073
#
# number of rings (size 3 to 8) (size 9 to 14) (size 15 to 20)
#    0.414    0.690    1.379    4.966    0.000    8.276 
#    2.483    2.759    0.000    0.000    0.000    0.000 
#    0.000    0.000    0.000    0.000    0.000    0.000 
#
# Total GULP energy -161744.375602 kJ/mol
# GULP energy per Si atom -5577.392262 kJ/mol
# Density = 1.836518 g / cm^3
# Si number density = 18.407073 Si / 1000 Ang^3
#
#
#
# Elastic Constant Matrix: (Units=GPa)
#
#
# Indices 1 2 3 4 5 6 
#
# 1 218.1026 69.4701 106.2516 0.0000 0.0000 0.0000
# 2 69.4701 89.8402 81.5248 0.0000 0.0000 0.0000
# 3 106.2516 81.5248 180.5905 0.0000 0.0000 0.0000
# 4 0.0000 0.0000 0.0000 45.5477 0.0000 0.0000
# 5 0.0000 0.0000 0.0000 0.0000 20.9087 0.0000
# 6 0.0000 0.0000 0.0000 0.0000 0.0000 32.0636
#
#
#
# Elastic Compliance Matrix: (Units=1/GPa)
#
#
# Indices 1 2 3 4 5 6 
#
# 1 0.006809 -0.002761 -0.002760 0.000000 0.000000 0.000000
# 2 -0.002761 0.019974 -0.007393 0.000000 0.000000 0.000000
# 3 -0.002760 -0.007393 0.010498 0.000000 0.000000 0.000000
# 4 0.000000 0.000000 0.000000 0.021955 0.000000 0.000000
# 5 0.000000 0.000000 0.000000 0.000000 0.047827 0.000000
# 6 0.000000 0.000000 0.000000 0.000000 0.000000 0.031188
#
#
# Mechanical properties :
#
#
# Convention : Reuss Voigt Hill
#
# Bulk Modulus (GPa) = 87.29802 111.44739 99.37270
# Shear Modulus (GPa) = 29.78038 35.12312 32.45175
#
# Velocity S-wave (km/s) = 4.02665 4.37296 4.20337
# Velocity P-wave (km/s) = 8.31552 9.28302 8.81255
#
# Compressibility (1/GPa) = 0.01145501
#
# Stress axis : x y z
#
# Youngs Moduli (GPa) = 146.86963 50.06489 95.25248
#
# Poissons Ratio (x) = 0.13821 0.26287
# Poissons Ratio (y) = 0.40546 0.70418
# Poissons Ratio (z) = 0.40532 0.37012
#
# Static dielectric constant tensor:
#      x y z
#    x 1.690410 0.000000 0.000000 
#    y 0.000000 1.618320 0.000000 
#    z 0.000000 0.000000 1.628680 
# 
# From -- ./inp_files/43608.got.cif
#   From: 2010.05.17/outbox.cif.g08.bks.cpg/sg65_22_cif.got.tgz:43608.got - 2010.06.03 17:01:31.
