data_PCOD9493534
_publ_section_title
;
Structure prediction by ZEFSAII (Michael W. Deem and Ramdas Pophale) SiO2 
 PCOD9493534
Probable space group: C M M M
;
_chemical_formula_sum "Si O2"
_cell_formula_units_Z 88
_cell_length_a 29.883297
_cell_length_b 8.496244
_cell_length_c 18.076793
_cell_angle_alpha 90.000000
_cell_angle_beta 90.000000
_cell_angle_gamma 90.000000
_cell_volume 4589.621510
_symmetry_space_group_name_H-M "C M M M"
_symmetry_group_IT_number 65
_symmetry_cell_setting 'orthorhombic'
loop_
_space_group_symop_operation_xyz
x,y,z
-x,-y,z
x,-y,-z
-x,y,-z
-x,-y,-z
x,y,-z
-x,y,z
x,-y,z
1/2+x,1/2+y,z
1/2-x,1/2-y,z
1/2+x,1/2-y,-z
1/2-x,1/2+y,-z
1/2-x,1/2-y,-z
1/2+x,1/2+y,-z
1/2-x,1/2+y,z
1/2+x,1/2-y,z
loop_
_atom_site_type_symbol
_atom_site_label
_atom_site_fract_x
_atom_site_fract_y
_atom_site_fract_z
Si Si1 0.700221 0.188790 0.279375
Si Si2 0.356281 0.811250 0.415884
Si Si3 0.549470 0.308585 0.913404
Si Si4 0.951395 0.814484 0.589565
Si Si5 0.300843 0.188444 0.000000
Si Si6 0.644502 0.310457 0.858233
O O1 0.750000 0.250000 0.266278
O O2 0.680886 0.244814 0.358406
O O3 0.667315 0.248087 0.215622
O O4 0.700791 0.000000 0.278731
O O5 0.351022 0.749839 0.500000
O O6 0.405733 0.767067 0.386721
O O7 0.353850 0.000000 0.419389
O O8 0.500000 0.255403 0.888692
O O9 0.549166 0.500000 0.911341
O O10 0.593039 0.256670 0.868735
O O11 0.554957 0.265057 0.000000
O O12 0.952089 0.799806 0.500000
O O13 0.000000 0.755102 0.616368
O O14 0.948753 0.000000 0.606764
O O15 0.250000 0.250000 0.000000
O O16 0.326909 0.250714 0.928050
O O17 0.199436 0.500000 0.000000
O O18 0.645249 0.500000 0.858314
#
# Coordination Sequence:
#
# PCOD9493534 Si02
#       6
#    16  16  16  16   8  16
#     4  11  24  41  58  79 109 144 184 234 291 343
#     4   9  19  36  57  80 107 142 186 234 285 344
#     4   8  14  28  54  86 115 144 182 224 262 310
#     4   8  14  26  47  77 110 140 173 217 267 321
#     4  12  24  38  57  82 113 147 188 233 277 324
#     4  11  21  37  60  86 115 148 187 227 274 328
#
# _framework density 19.173694999999999
#
# number of rings (size 3 to 8) (size 9 to 14) (size 15 to 20)
#    0.000    2.364    0.909    3.545    0.000    2.182 
#    0.000    2.727    0.000    6.000    0.000    0.000 
#    0.000    0.000    0.000    0.000    0.000    0.000 
#
# Total GULP energy -245430.880563 kJ/mol
# GULP energy per Si atom -5577.974558 kJ/mol
# Density = 1.913005 g / cm^3
# Si number density = 19.173695 Si / 1000 Ang^3
#
#
#
# Elastic Constant Matrix: (Units=GPa)
#
#
# Indices 1 2 3 4 5 6 
#
# 1 188.9359 26.9133 74.5016 0.0000 0.0000 0.0000
# 2 26.9133 36.1987 20.7630 0.0000 0.0000 0.0000
# 3 74.5016 20.7630 88.9066 0.0000 0.0000 0.0000
# 4 0.0000 0.0000 0.0000 8.2323 0.0000 0.0000
# 5 0.0000 0.0000 0.0000 0.0000 32.7635 0.0000
# 6 0.0000 0.0000 0.0000 0.0000 0.0000 96.4962
#
#
#
# Elastic Compliance Matrix: (Units=1/GPa)
#
#
# Indices 1 2 3 4 5 6 
#
# 1 0.008089 -0.002455 -0.006205 0.000000 0.000000 0.000000
# 2 -0.002455 0.032643 -0.005566 0.000000 0.000000 0.000000
# 3 -0.006205 -0.005566 0.017748 0.000000 0.000000 0.000000
# 4 0.000000 0.000000 0.000000 0.121473 0.000000 0.000000
# 5 0.000000 0.000000 0.000000 0.000000 0.030522 0.000000
# 6 0.000000 0.000000 0.000000 0.000000 0.000000 0.010363
#
#
# Mechanical properties :
#
#
# Convention : Reuss Voigt Hill
#
# Bulk Modulus (GPa) = 33.30320 62.04413 47.67367
# Shear Modulus (GPa) = 19.28262 40.28928 29.78595
#
# Velocity S-wave (km/s) = 3.17469 4.58894 3.94570
# Velocity P-wave (km/s) = 5.55384 7.77863 6.75841
#
# Compressibility (1/GPa) = 0.03002714
#
# Stress axis : x y z
#
# Youngs Moduli (GPa) = 123.61777 30.63414 56.34549
#
# Poissons Ratio (x) = 0.07521 0.34965
# Poissons Ratio (y) = 0.30349 0.31363
# Poissons Ratio (z) = 0.76710 0.17051
#
# Static dielectric constant tensor:
#      x y z
#    x 1.676480 0.000000 0.000000 
#    y 0.000000 1.653890 0.000000 
#    z 0.000000 0.000000 1.666150 
# 
# From -- ./inp_files/58026.got.cif
#   From: 2010.05.17/outbox.cif.g08.bks.cpg/sg65_30_cif.got.tgz:58026.got - 2010.06.03 17:01:31.
