data_PCOD9493419
_publ_section_title
;
Structure prediction by ZEFSAII (Michael W. Deem and Ramdas Pophale) SiO2 
 PCOD9493419
Probable space group: C M M M
;
_chemical_formula_sum "Si O2"
_cell_formula_units_Z 72
_cell_length_a 28.912508
_cell_length_b 8.665872
_cell_length_c 18.773674
_cell_angle_alpha 90.000000
_cell_angle_beta 90.000000
_cell_angle_gamma 90.000000
_cell_volume 4703.783324
_symmetry_space_group_name_H-M "C M M M"
_symmetry_group_IT_number 65
_symmetry_cell_setting 'orthorhombic'
loop_
_space_group_symop_operation_xyz
x,y,z
-x,-y,z
x,-y,-z
-x,y,-z
-x,-y,-z
x,y,-z
-x,y,z
x,-y,z
1/2+x,1/2+y,z
1/2-x,1/2-y,z
1/2+x,1/2-y,-z
1/2-x,1/2+y,-z
1/2-x,1/2-y,-z
1/2+x,1/2+y,-z
1/2-x,1/2+y,z
1/2+x,1/2-y,z
loop_
_atom_site_type_symbol
_atom_site_label
_atom_site_fract_x
_atom_site_fract_y
_atom_site_fract_z
Si Si1 0.354423 0.816562 0.637940
Si Si2 0.946991 0.185099 0.584198
Si Si3 0.302335 0.185111 0.922063
Si Si4 0.802330 0.184253 0.225770
Si Si5 0.801835 0.184883 0.500000
O O1 0.407975 0.771044 0.628486
O O2 0.332354 0.746651 0.709065
O O3 0.328056 0.745015 0.569971
O O4 0.348630 0.000000 0.637582
O O5 0.940674 0.220221 0.500000
O O6 0.000000 0.223741 0.602851
O O7 0.941306 0.000000 0.591785
O O8 0.250000 0.250000 0.924256
O O9 0.322245 0.258208 0.850244
O O10 0.300800 0.000000 0.914889
O O11 0.323280 0.222058 0.000000
O O12 0.750000 0.250000 0.232651
O O13 0.800054 0.000000 0.226735
O O14 0.750000 0.250000 0.500000
O O15 0.801393 0.000000 0.500000
#
# Coordination Sequence:
#
# PCOD9493419 Si02
#       5
#    16  16  16  16   8
#     4  12  23  35  50  71  96 124 160 199 240 284
#     4   9  18  34  55  75  95 120 152 194 243 290
#     4   9  16  27  44  66  92 122 157 196 236 279
#     4  11  21  33  48  67  95 130 165 201 239 281
#     4  12  24  38  51  66  91 124 164 201 237 279
#
# _framework density 15.306827
#
# number of rings (size 3 to 8) (size 9 to 14) (size 15 to 20)
#    0.000    1.556    1.111    8.333    0.000    1.778 
#    0.000    1.111    0.000    0.000    0.000    0.000 
#    0.000    0.889    0.000    9.333    0.000    4.000 
#
# Total GULP energy -200930.398020 kJ/mol
# GULP energy per Si atom -5581.399945 kJ/mol
# Density = 1.527199 g / cm^3
# Si number density = 15.306827 Si / 1000 Ang^3
#
#
#
# Elastic Constant Matrix: (Units=GPa)
#
#
# Indices 1 2 3 4 5 6 
#
# 1 73.8480 45.9036 54.5280 0.0000 0.0000 0.0000
# 2 45.9036 133.1814 70.2384 0.0000 0.0000 0.0000
# 3 54.5280 70.2384 153.4111 0.0000 0.0000 0.0000
# 4 0.0000 0.0000 0.0000 18.3813 0.0000 0.0000
# 5 0.0000 0.0000 0.0000 0.0000 1.4791 0.0000
# 6 0.0000 0.0000 0.0000 0.0000 0.0000 23.5224
#
#
#
# Elastic Compliance Matrix: (Units=1/GPa)
#
#
# Indices 1 2 3 4 5 6 
#
# 1 0.019949 -0.004135 -0.005198 0.000000 0.000000 0.000000
# 2 -0.004135 0.010756 -0.003455 0.000000 0.000000 0.000000
# 3 -0.005198 -0.003455 0.009948 0.000000 0.000000 0.000000
# 4 0.000000 0.000000 0.000000 0.054403 0.000000 0.000000
# 5 0.000000 0.000000 0.000000 0.000000 0.676095 0.000000
# 6 0.000000 0.000000 0.000000 0.000000 0.000000 0.042513
#
#
# Mechanical properties :
#
#
# Convention : Reuss Voigt Hill
#
# Bulk Modulus (GPa) = 66.32065 77.97561 72.14813
# Shear Modulus (GPa) = 5.92232 21.32793 13.62513
#
# Velocity S-wave (km/s) = 1.96913 3.73682 2.98675
# Velocity P-wave (km/s) = 6.97076 8.34690 7.68968
#
# Compressibility (1/GPa) = 0.01507826
#
# Stress axis : x y z
#
# Youngs Moduli (GPa) = 50.12706 92.97406 100.52645
#
# Poissons Ratio (x) = 0.38442 0.52250
# Poissons Ratio (y) = 0.20726 0.34730
# Poissons Ratio (z) = 0.26054 0.32121
#
# Static dielectric constant tensor:
#      x y z
#    x 1.489660 0.000000 0.000000 
#    y 0.000000 1.509780 0.000000 
#    z 0.000000 0.000000 1.530180 
# 
# From -- ./inp_files/57145.got.cif
#   From: 2010.05.17/outbox.cif.g08.bks.cpg/sg65_29_cif.got.tgz:57145.got - 2010.06.03 17:01:31.
