data_PCOD9493059
_publ_section_title
;
Structure prediction by ZEFSAII (Michael W. Deem and Ramdas Pophale) SiO2 
 PCOD9493059
Probable space group: C M M M
;
_chemical_formula_sum "Si O2"
_cell_formula_units_Z 72
_cell_length_a 17.474800
_cell_length_b 14.283761
_cell_length_c 15.544921
_cell_angle_alpha 90.000000
_cell_angle_beta 90.000000
_cell_angle_gamma 90.000000
_cell_volume 3880.103479
_symmetry_space_group_name_H-M "C M M M"
_symmetry_group_IT_number 65
_symmetry_cell_setting 'orthorhombic'
loop_
_space_group_symop_operation_xyz
x,y,z
-x,-y,z
x,-y,-z
-x,y,-z
-x,-y,-z
x,y,-z
-x,y,z
x,-y,z
1/2+x,1/2+y,z
1/2-x,1/2-y,z
1/2+x,1/2-y,-z
1/2-x,1/2+y,-z
1/2-x,1/2-y,-z
1/2+x,1/2+y,-z
1/2-x,1/2+y,z
1/2+x,1/2-y,z
loop_
_atom_site_type_symbol
_atom_site_label
_atom_site_fract_x
_atom_site_fract_y
_atom_site_fract_z
Si Si1 0.659948 0.889004 0.405743
Si Si2 0.410365 0.244490 0.728671
Si Si3 0.335896 0.295251 0.900212
Si Si4 0.158737 0.889174 0.402557
Si Si5 0.091149 0.000000 0.897091
O O1 0.633184 0.855413 0.500000
O O2 0.617365 0.842572 0.327473
O O3 0.750473 0.868983 0.400014
O O4 0.651190 0.000000 0.403865
O O5 0.500000 0.250240 0.731300
O O6 0.379615 0.241447 0.825143
O O7 0.379297 0.332110 0.673500
O O8 0.250000 0.250000 0.896044
O O9 0.358727 0.405131 0.878277
O O10 0.360251 0.282724 0.000000
O O11 0.131987 0.866130 0.500000
O O12 0.148187 0.000000 0.390998
O O13 0.000000 0.000000 0.864584
O O14 0.083404 0.000000 0.000000
#
# Coordination Sequence:
#
# PCOD9493059 Si02
#       5
#    16  16  16  16   8
#     4   9  19  38  62  83 109 152 203 248 288 342
#     4  12  24  35  54  85 120 155 189 238 300 358
#     4  10  22  41  63  89 119 157 204 253 303 363
#     4   9  19  36  57  82 113 149 191 240 291 346
#     4   9  18  36  64  94 122 152 194 253 312 362
#
# _framework density 18.556207000000001
#
# number of rings (size 3 to 8) (size 9 to 14) (size 15 to 20)
#    0.000    2.111    0.000    4.667    1.556    5.778 
#    2.000    2.222    0.000    0.000    0.000    1.556 
#    0.000    0.000    0.000    0.000    0.000    0.000 
#
# Total GULP energy -200548.150612 kJ/mol
# GULP energy per Si atom -5570.781961 kJ/mol
# Density = 1.851397 g / cm^3
# Si number density = 18.556207 Si / 1000 Ang^3
#
#
#
# Elastic Constant Matrix: (Units=GPa)
#
#
# Indices 1 2 3 4 5 6 
#
# 1 91.5256 50.0892 73.4128 0.0000 0.0000 0.0000
# 2 50.0892 83.4829 46.7468 0.0000 0.0000 0.0000
# 3 73.4128 46.7468 147.4881 0.0000 0.0000 0.0000
# 4 0.0000 0.0000 0.0000 20.1675 0.0000 0.0000
# 5 0.0000 0.0000 0.0000 0.0000 -37.8384 0.0000
# 6 0.0000 0.0000 0.0000 0.0000 0.0000 35.0625
#
#
#
# Elastic Compliance Matrix: (Units=1/GPa)
#
#
# Indices 1 2 3 4 5 6 
#
# 1 0.022468 -0.008776 -0.008402 0.000000 0.000000 0.000000
# 2 -0.008776 0.017991 -0.001334 0.000000 0.000000 0.000000
# 3 -0.008402 -0.001334 0.011385 0.000000 0.000000 0.000000
# 4 0.000000 0.000000 0.000000 0.049585 0.000000 0.000000
# 5 0.000000 0.000000 0.000000 0.000000 -0.026428 0.000000
# 6 0.000000 0.000000 0.000000 0.000000 0.000000 0.028521
#
#
# Mechanical properties :
#
#
# Convention : Reuss Voigt Hill
#
# Bulk Modulus (GPa) = 67.47522 73.66601 70.57061
# Shear Modulus (GPa) = 34.36782 13.62817 23.99799
#
# Velocity S-wave (km/s) = 4.30826 2.71297 3.60009
# Velocity P-wave (km/s) = 7.82239 7.04263 7.44273
#
# Compressibility (1/GPa) = 0.01482026
#
# Stress axis : x y z
#
# Youngs Moduli (GPa) = 44.50799 55.58336 87.83375
#
# Poissons Ratio (x) = 0.48779 0.73797
# Poissons Ratio (y) = 0.39060 0.11718
# Poissons Ratio (z) = 0.37395 0.07415
#
# Static dielectric constant tensor:
#      x y z
#    x 1.624880 0.000000 0.000000 
#    y 0.000000 1.678720 0.000000 
#    z 0.000000 0.000000 1.627170 
# 
# From -- ./inp_files/42137.got.cif
#   From: 2010.05.17/outbox.cif.g08.bks.cpg/sg65_22_cif.got.tgz:42137.got - 2010.06.03 17:01:31.
