data_PCOD9493450
_publ_section_title
;
Structure prediction by ZEFSAII (Michael W. Deem and Ramdas Pophale) SiO2 
 PCOD9493450
Probable space group: C M M M
;
_chemical_formula_sum "Si O2"
_cell_formula_units_Z 112
_cell_length_a 15.485879
_cell_length_b 15.660123
_cell_length_c 22.915262
_cell_angle_alpha 90.000000
_cell_angle_beta 90.000000
_cell_angle_gamma 90.000000
_cell_volume 5557.197830
_symmetry_space_group_name_H-M "C M M M"
_symmetry_group_IT_number 65
_symmetry_cell_setting 'orthorhombic'
loop_
_space_group_symop_operation_xyz
x,y,z
-x,-y,z
x,-y,-z
-x,y,-z
-x,-y,-z
x,y,-z
-x,y,z
x,-y,z
1/2+x,1/2+y,z
1/2-x,1/2-y,z
1/2+x,1/2-y,-z
1/2-x,1/2+y,-z
1/2-x,1/2-y,-z
1/2+x,1/2+y,-z
1/2-x,1/2+y,z
1/2+x,1/2-y,z
loop_
_atom_site_type_symbol
_atom_site_label
_atom_site_fract_x
_atom_site_fract_y
_atom_site_fract_z
Si Si1 0.864981 0.404945 0.343624
Si Si2 0.903488 0.103751 0.068340
Si Si3 0.596205 0.831142 0.781774
Si Si4 0.405200 0.631541 0.248682
Si Si5 0.739008 0.597248 0.157644
Si Si6 0.164810 0.905342 0.372410
Si Si7 0.900395 0.744287 0.434741
O O1 0.894297 0.500000 0.360611
O O2 0.892708 0.385172 0.277657
O O3 0.761451 0.403611 0.347266
O O4 0.893825 0.331391 0.387889
O O5 0.823509 0.134319 0.107243
O O6 0.000000 0.133281 0.086705
O O7 0.903866 0.000000 0.073532
O O8 0.893019 0.123870 0.000000
O O9 0.500000 0.846583 0.806157
O O10 0.600909 0.733003 0.761335
O O11 0.675280 0.852286 0.824491
O O12 0.500000 0.602889 0.228031
O O13 0.325825 0.594028 0.212795
O O14 0.395603 0.610547 0.316564
O O15 0.764020 0.500000 0.142465
O O16 0.154074 0.826476 0.415770
O O17 0.148627 0.000000 0.397253
O O18 0.876936 0.715038 0.500000
O O19 0.000000 0.772507 0.435188
#
# Coordination Sequence:
#
# PCOD9493450 Si02
#       7
#    16  16  16  16  16  16  16
#     4  11  23  40  62  86 113 150 200 253 302 356
#     4   8  15  30  53  83 122 163 200 246 303 357
#     4  11  23  38  56  80 116 161 202 244 300 360
#     4  11  22  36  56  83 117 154 191 239 298 359
#     4  11  21  33  55  89 119 150 197 248 299 357
#     4  11  23  39  61  88 117 150 191 242 302 370
#     4  11  25  43  62  86 116 153 196 243 301 366
#
# _framework density 20.154040999999999
#
# number of rings (size 3 to 8) (size 9 to 14) (size 15 to 20)
#    0.000    1.429    2.857    3.429    0.000    6.286 
#    0.000    2.857    0.000    2.143    0.000    4.000 
#    0.000    0.000    0.000    0.000    0.000    0.000 
#
# Total GULP energy -312856.660529 kJ/mol
# GULP energy per Si atom -5586.726081 kJ/mol
# Density = 2.010817 g / cm^3
# Si number density = 20.154041 Si / 1000 Ang^3
#
#
#
# Elastic Constant Matrix: (Units=GPa)
#
#
# Indices 1 2 3 4 5 6 
#
# 1 135.1033 33.1172 33.4443 0.0000 0.0000 0.0000
# 2 33.1172 92.9669 10.0903 0.0000 0.0000 0.0000
# 3 33.4443 10.0903 77.4614 0.0000 0.0000 0.0000
# 4 0.0000 0.0000 0.0000 17.0402 0.0000 0.0000
# 5 0.0000 0.0000 0.0000 0.0000 31.3983 0.0000
# 6 0.0000 0.0000 0.0000 0.0000 0.0000 -153.7197
#
#
#
# Elastic Compliance Matrix: (Units=1/GPa)
#
#
# Indices 1 2 3 4 5 6 
#
# 1 0.008957 -0.002811 -0.003501 0.000000 0.000000 0.000000
# 2 -0.002811 0.011793 -0.000323 0.000000 0.000000 0.000000
# 3 -0.003501 -0.000323 0.014463 0.000000 0.000000 0.000000
# 4 0.000000 0.000000 0.000000 0.058685 0.000000 0.000000
# 5 0.000000 0.000000 0.000000 0.000000 0.031849 0.000000
# 6 0.000000 0.000000 0.000000 0.000000 0.000000 -0.006505
#
#
# Mechanical properties :
#
#
# Convention : Reuss Voigt Hill
#
# Bulk Modulus (GPa) = 45.56999 50.98169 48.27584
# Shear Modulus (GPa) = 35.75867 -5.79759 14.98054
#
# Velocity S-wave (km/s) = 4.21678 -1.69791 2.72931
# Velocity P-wave (km/s) = 6.80942 4.63757 5.82560
#
# Compressibility (1/GPa) = 0.02194426
#
# Stress axis : x y z
#
# Youngs Moduli (GPa) = 111.63848 84.79731 69.14024
#
# Poissons Ratio (x) = 0.23835 0.24208
# Poissons Ratio (y) = 0.31380 0.02230
# Poissons Ratio (z) = 0.39088 0.02735
#
# Static dielectric constant tensor:
#      x y z
#    x 1.741040 0.000000 0.000000 
#    y 0.000000 1.725860 0.000000 
#    z 0.000000 0.000000 1.703880 
# 
# From -- ./inp_files/69971.got.cif
#   From: 2010.05.17/outbox.cif.g08.bks.cpg/sg65_35_cif.got.tgz:69971.got - 2010.06.03 17:01:31.
