data_PCOD9493929
_publ_section_title
;
Structure prediction by ZEFSAII (Michael W. Deem and Ramdas Pophale) SiO2 
 PCOD9493929
Probable space group: C M M M
;
_chemical_formula_sum "Si O2"
_cell_formula_units_Z 72
_cell_length_a 8.194776
_cell_length_b 32.759683
_cell_length_c 13.927237
_cell_angle_alpha 90.000000
_cell_angle_beta 90.000000
_cell_angle_gamma 90.000000
_cell_volume 3738.881868
_symmetry_space_group_name_H-M "C M M M"
_symmetry_group_IT_number 65
_symmetry_cell_setting 'orthorhombic'
loop_
_space_group_symop_operation_xyz
x,y,z
-x,-y,z
x,-y,-z
-x,y,-z
-x,-y,-z
x,y,-z
-x,y,z
x,-y,z
1/2+x,1/2+y,z
1/2-x,1/2-y,z
1/2+x,1/2-y,-z
1/2-x,1/2+y,-z
1/2-x,1/2-y,-z
1/2+x,1/2+y,-z
1/2-x,1/2+y,z
1/2+x,1/2-y,z
loop_
_atom_site_type_symbol
_atom_site_label
_atom_site_fract_x
_atom_site_fract_y
_atom_site_fract_z
Si Si1 0.699174 0.000000 0.109076
Si Si2 0.302797 0.296871 0.104510
Si Si3 0.302844 0.929684 0.253274
Si Si4 0.806349 0.838577 0.299430
Si Si5 0.692991 0.797498 0.500000
Si Si6 0.198514 0.500000 0.604674
O O1 0.748601 0.042061 0.162560
O O2 0.500000 0.000000 0.112968
O O3 0.753270 0.000000 0.000000
O O4 0.500000 0.299563 0.105953
O O5 0.250000 0.250000 0.104468
O O6 0.239832 0.315930 0.203769
O O7 0.249112 0.314591 0.000000
O O8 0.500000 0.925464 0.248604
O O9 0.230940 0.885756 0.276258
O O10 0.256341 0.959466 0.339927
O O11 0.744729 0.820956 0.401594
O O12 0.000000 0.832566 0.302220
O O13 0.500000 0.796613 0.500000
O O14 0.750000 0.750000 0.500000
O O15 0.267177 0.500000 0.500000
O O16 0.000000 0.500000 0.602457
#
# Coordination Sequence:
#
# PCOD9493929 Si02
#       6
#     8  16  16  16   8   8
#     4   8  15  31  54  80 115 155 196 243 292 348
#     4   9  19  36  57  80 108 144 183 226 278 334
#     4   9  18  32  52  80 107 142 190 233 279 335
#     4  11  23  38  57  84 120 153 190 238 288 345
#     4  12  26  44  64  85 114 153 196 240 293 352
#     4   8  15  29  50  72  98 132 174 220 270 320
#
# _framework density 19.257093999999999
#
# number of rings (size 3 to 8) (size 9 to 14) (size 15 to 20)
#    0.000    2.444    0.000    3.667    1.556    4.444 
#    0.000    2.222    0.000    1.333    0.000    0.000 
#    0.000    0.000    0.000    0.000    0.000    0.000 
#
# Total GULP energy -200493.285279 kJ/mol
# GULP energy per Si atom -5569.257924 kJ/mol
# Density = 1.921326 g / cm^3
# Si number density = 19.257094 Si / 1000 Ang^3
#
#
#
# Elastic Constant Matrix: (Units=GPa)
#
#
# Indices 1 2 3 4 5 6 
#
# 1 33.9265 12.9257 30.5411 0.0000 0.0000 0.0000
# 2 12.9257 131.9910 99.8309 0.0000 0.0000 0.0000
# 3 30.5411 99.8309 226.3019 0.0000 0.0000 0.0000
# 4 0.0000 0.0000 0.0000 -1.0720 0.0000 0.0000
# 5 0.0000 0.0000 0.0000 0.0000 7.7207 0.0000
# 6 0.0000 0.0000 0.0000 0.0000 0.0000 40.8614
#
#
#
# Elastic Compliance Matrix: (Units=1/GPa)
#
#
# Indices 1 2 3 4 5 6 
#
# 1 0.033556 0.000209 -0.004621 0.000000 0.000000 0.000000
# 2 0.000209 0.011371 -0.005044 0.000000 0.000000 0.000000
# 3 -0.004621 -0.005044 0.007268 0.000000 0.000000 0.000000
# 4 0.000000 0.000000 0.000000 -0.932837 0.000000 0.000000
# 5 0.000000 0.000000 0.000000 0.000000 0.129521 0.000000
# 6 0.000000 0.000000 0.000000 0.000000 0.000000 0.024473
#
#
# Mechanical properties :
#
#
# Convention : Reuss Voigt Hill
#
# Bulk Modulus (GPa) = 30.04643 75.42387 52.73515
# Shear Modulus (GPa) = -7.17729 26.09680 9.45976
#
# Velocity S-wave (km/s) = -1.93266 3.68527 2.21879
# Velocity P-wave (km/s) = 3.26442 7.57365 5.83166
#
# Compressibility (1/GPa) = 0.03328183
#
# Stress axis : x y z
#
# Youngs Moduli (GPa) = 29.80131 87.94150 137.59345
#
# Poissons Ratio (x) = -0.01836 0.63577
# Poissons Ratio (y) = -0.00622 0.69409
# Poissons Ratio (z) = 0.13770 0.44362
#
# Static dielectric constant tensor:
#      x y z
#    x 1.684210 0.000000 0.000000 
#    y 0.000000 1.736800 0.000000 
#    z 0.000000 0.000000 1.722800 
# 
# From -- ./inp_files/36654.got.cif
#   From: 2010.05.17/outbox.cif.g08.bks.cpg/sg65_19_cif.got.tgz:36654.got - 2010.06.03 17:01:31.
