data_PCOD9493124
_publ_section_title
;
Structure prediction by ZEFSAII (Michael W. Deem and Ramdas Pophale) SiO2 
 PCOD9493124
Probable space group: C M M M
;
_chemical_formula_sum "Si O2"
_cell_formula_units_Z 56
_cell_length_a 10.346831
_cell_length_b 15.079257
_cell_length_c 18.563521
_cell_angle_alpha 90.000000
_cell_angle_beta 90.000000
_cell_angle_gamma 90.000000
_cell_volume 2896.327397
_symmetry_space_group_name_H-M "C M M M"
_symmetry_group_IT_number 65
_symmetry_cell_setting 'orthorhombic'
loop_
_space_group_symop_operation_xyz
x,y,z
-x,-y,z
x,-y,-z
-x,y,-z
-x,-y,-z
x,y,-z
-x,y,z
x,-y,z
1/2+x,1/2+y,z
1/2-x,1/2-y,z
1/2+x,1/2-y,-z
1/2-x,1/2+y,-z
1/2-x,1/2-y,-z
1/2+x,1/2+y,-z
1/2-x,1/2+y,z
1/2+x,1/2-y,z
loop_
_atom_site_type_symbol
_atom_site_label
_atom_site_fract_x
_atom_site_fract_y
_atom_site_fract_z
Si Si1 0.737554 0.356462 0.582071
Si Si2 0.000000 0.099824 0.686186
Si Si3 0.500000 0.763800 0.788001
Si Si4 0.343448 0.606118 0.000000
Si Si5 0.750000 0.750000 0.115298
Si Si6 0.000000 0.596816 0.341257
O O1 0.710016 0.384036 0.500000
O O2 0.750000 0.250000 0.583315
O O3 0.624440 0.384056 0.635915
O O4 0.873579 0.392785 0.609788
O O5 0.000000 0.167003 0.752127
O O6 0.000000 0.000000 0.712907
O O7 0.372423 0.774413 0.835694
O O8 0.500000 0.830090 0.720632
O O9 0.289536 0.664440 0.067028
O O10 0.309923 0.500000 0.000000
O O11 0.500000 0.611443 0.000000
O O12 0.000000 0.500000 0.307061
#
# Coordination Sequence:
#
# PCOD9493124 Si02
#       6
#    16   8   8   8   8   8
#     4  11  22  41  65  88 121 166 219 280 339 384
#     4  12  25  41  64  92 125 170 222 272 321 383
#     4  12  24  43  63  94 140 170 214 252 316 384
#     4  10  22  45  74 107 134 163 213 256 300 368
#     4  11  24  42  72 100 133 176 202 256 315 362
#     4  12  25  41  62  90 127 170 214 268 327 385
#
# _framework density 19.334831000000001
#
# number of rings (size 3 to 8) (size 9 to 14) (size 15 to 20)
#    0.000    0.714    4.286    3.429    0.000    8.000 
#    0.000    0.714    0.000    0.000    0.000    0.000 
#    0.000    0.000    0.000    0.000    0.000    0.000 
#
# Total GULP energy -156590.403054 kJ/mol
# GULP energy per Si atom -5592.514395 kJ/mol
# Density = 1.929082 g / cm^3
# Si number density = 19.334831 Si / 1000 Ang^3
#
#
#
# Elastic Constant Matrix: (Units=GPa)
#
#
# Indices 1 2 3 4 5 6 
#
# 1 139.1921 18.5301 33.7906 0.0000 0.0000 0.0000
# 2 18.5301 154.8683 35.1866 0.0000 0.0000 0.0000
# 3 33.7906 35.1866 81.9417 0.0000 0.0000 0.0000
# 4 0.0000 0.0000 0.0000 19.7347 0.0000 0.0000
# 5 0.0000 0.0000 0.0000 0.0000 -9.6147 0.0000
# 6 0.0000 0.0000 0.0000 0.0000 0.0000 37.8743
#
#
#
# Elastic Compliance Matrix: (Units=1/GPa)
#
#
# Indices 1 2 3 4 5 6 
#
# 1 0.007991 -0.000230 -0.003197 0.000000 0.000000 0.000000
# 2 -0.000230 0.007162 -0.002981 0.000000 0.000000 0.000000
# 3 -0.003197 -0.002981 0.014802 0.000000 0.000000 0.000000
# 4 0.000000 0.000000 0.000000 0.050672 0.000000 0.000000
# 5 0.000000 0.000000 0.000000 0.000000 -0.104008 0.000000
# 6 0.000000 0.000000 0.000000 0.000000 0.000000 0.026403
#
#
# Mechanical properties :
#
#
# Convention : Reuss Voigt Hill
#
# Bulk Modulus (GPa) = 58.34083 61.22407 59.78245
# Shear Modulus (GPa) = 232.02472 28.83185 130.42828
#
# Velocity S-wave (km/s) = 10.96649 3.86578 8.22217
# Velocity P-wave (km/s) = 13.80549 7.18746 11.00570
#
# Compressibility (1/GPa) = 0.01714065
#
# Stress axis : x y z
#
# Youngs Moduli (GPa) = 125.14213 139.62977 67.55906
#
# Poissons Ratio (x) = 0.03209 0.21596
# Poissons Ratio (y) = 0.02876 0.20136
# Poissons Ratio (z) = 0.40002 0.41618
#
# Static dielectric constant tensor:
#      x y z
#    x 1.647100 0.000000 0.000000 
#    y 0.000000 1.685640 0.000000 
#    z 0.000000 0.000000 1.646530 
# 
# From -- ./inp_files/58656.got.cif
#   From: 2010.05.17/outbox.cif.g08.bks.cpg/sg65_30_cif.got.tgz:58656.got - 2010.06.03 17:01:31.
