data_PCOD9493014
_publ_section_title
;
Structure prediction by ZEFSAII (Michael W. Deem and Ramdas Pophale) SiO2 
 PCOD9493014
Probable space group: C M M M
;
_chemical_formula_sum "Si O2"
_cell_formula_units_Z 64
_cell_length_a 35.279457
_cell_length_b 8.624664
_cell_length_c 10.888037
_cell_angle_alpha 90.000000
_cell_angle_beta 90.000000
_cell_angle_gamma 90.000000
_cell_volume 3312.940720
_symmetry_space_group_name_H-M "C M M M"
_symmetry_group_IT_number 65
_symmetry_cell_setting 'orthorhombic'
loop_
_space_group_symop_operation_xyz
x,y,z
-x,-y,z
x,-y,-z
-x,y,-z
-x,-y,-z
x,y,-z
-x,y,z
x,-y,z
1/2+x,1/2+y,z
1/2-x,1/2-y,z
1/2+x,1/2-y,-z
1/2-x,1/2+y,-z
1/2-x,1/2-y,-z
1/2+x,1/2+y,-z
1/2-x,1/2+y,z
1/2+x,1/2-y,z
loop_
_atom_site_type_symbol
_atom_site_label
_atom_site_fract_x
_atom_site_fract_y
_atom_site_fract_z
Si Si1 0.152841 0.312570 0.640385
Si Si2 0.792602 0.687392 0.137974
Si Si3 0.424753 0.316209 0.252016
Si Si4 0.000000 0.673481 0.356168
Si Si5 0.544978 0.814327 0.000000
O O1 0.161479 0.261595 0.500000
O O2 0.153294 0.500000 0.640187
O O3 0.181760 0.259727 0.747488
O O4 0.111417 0.256884 0.681302
O O5 0.791744 0.500000 0.140562
O O6 0.750000 0.750000 0.150821
O O7 0.806392 0.732953 0.000000
O O8 0.420530 0.500000 0.247591
O O9 0.462792 0.266305 0.321061
O O10 0.432658 0.248744 0.117272
O O11 0.000000 0.500000 0.297075
O O12 0.000000 0.654054 0.500000
O O13 0.500000 0.765620 0.000000
O O14 0.545370 0.000000 0.000000
#
# Coordination Sequence:
#
# PCOD9493014 Si02
#       5
#    16  16  16   8   8
#     4  10  22  40  61  87 121 163 208 249 296 364
#     4   9  19  37  61  89 119 156 199 247 302 359
#     4  12  25  39  59  89 122 153 196 254 309 356
#     4  11  23  40  61  82 111 159 209 247 296 365
#     4  11  23  41  65  87 113 156 203 246 302 368
#
# _framework density 19.318183999999999
#
# number of rings (size 3 to 8) (size 9 to 14) (size 15 to 20)
#    0.000    1.500    1.250    3.750    1.750    6.500 
#    0.000    0.000    0.000    0.000    0.000    0.000 
#    0.000    0.000    0.000    0.000    0.000    0.000 
#
# Total GULP energy -178703.416645 kJ/mol
# GULP energy per Si atom -5584.481770 kJ/mol
# Density = 1.927422 g / cm^3
# Si number density = 19.318184 Si / 1000 Ang^3
#
#
#
# Elastic Constant Matrix: (Units=GPa)
#
#
# Indices 1 2 3 4 5 6 
#
# 1 111.1366 7.9532 87.4427 0.0000 0.0000 0.0000
# 2 7.9532 23.9526 29.0960 0.0000 0.0000 0.0000
# 3 87.4427 29.0960 196.2856 0.0000 0.0000 0.0000
# 4 0.0000 0.0000 0.0000 23.8660 0.0000 0.0000
# 5 0.0000 0.0000 0.0000 0.0000 178.8920 0.0000
# 6 0.0000 0.0000 0.0000 0.0000 0.0000 36.4975
#
#
#
# Elastic Compliance Matrix: (Units=1/GPa)
#
#
# Indices 1 2 3 4 5 6 
#
# 1 0.014103 0.003597 -0.006816 0.000000 0.000000 0.000000
# 2 0.003597 0.051835 -0.009286 0.000000 0.000000 0.000000
# 3 -0.006816 -0.009286 0.009508 0.000000 0.000000 0.000000
# 4 0.000000 0.000000 0.000000 0.041901 0.000000 0.000000
# 5 0.000000 0.000000 0.000000 0.000000 0.005590 0.000000
# 6 0.000000 0.000000 0.000000 0.000000 0.000000 0.027399
#
#
# Mechanical properties :
#
#
# Convention : Reuss Voigt Hill
#
# Bulk Modulus (GPa) = 19.82729 64.48429 42.15579
# Shear Modulus (GPa) = 26.02026 61.64330 43.83178
#
# Velocity S-wave (km/s) = 3.67404 5.65497 4.76851
# Velocity P-wave (km/s) = 5.31826 8.72301 7.22408
#
# Compressibility (1/GPa) = 0.05043553
#
# Stress axis : x y z
#
# Youngs Moduli (GPa) = 70.90454 19.29200 105.17909
#
# Poissons Ratio (x) = -0.06939 0.71691
# Poissons Ratio (y) = -0.25503 0.97669
# Poissons Ratio (z) = 0.48329 0.17915
#
# Static dielectric constant tensor:
#      x y z
#    x 1.652820 0.000000 0.000000 
#    y 0.000000 1.654340 0.000000 
#    z 0.000000 0.000000 1.815420 
# 
# From -- ./inp_files/33260.got.cif
#   From: 2010.05.17/outbox.cif.g08.bks.cpg/sg65_17_cif.got.tgz:33260.got - 2010.06.03 17:01:31.
