data_PCOD9493479
_publ_section_title
;
Structure prediction by ZEFSAII (Michael W. Deem and Ramdas Pophale) SiO2 
 PCOD9493479
Probable space group: C M M M
;
_chemical_formula_sum "Si O2"
_cell_formula_units_Z 112
_cell_length_a 27.952182
_cell_length_b 15.335635
_cell_length_c 14.704498
_cell_angle_alpha 90.000000
_cell_angle_beta 90.000000
_cell_angle_gamma 90.000000
_cell_volume 6303.295704
_symmetry_space_group_name_H-M "C M M M"
_symmetry_group_IT_number 65
_symmetry_cell_setting 'orthorhombic'
loop_
_space_group_symop_operation_xyz
x,y,z
-x,-y,z
x,-y,-z
-x,y,-z
-x,-y,-z
x,y,-z
-x,y,z
x,-y,z
1/2+x,1/2+y,z
1/2-x,1/2-y,z
1/2+x,1/2-y,-z
1/2-x,1/2+y,-z
1/2-x,1/2-y,-z
1/2+x,1/2+y,-z
1/2-x,1/2+y,z
1/2+x,1/2-y,z
loop_
_atom_site_type_symbol
_atom_site_label
_atom_site_fract_x
_atom_site_fract_y
_atom_site_fract_z
Si Si1 0.304631 0.894197 0.602593
Si Si2 0.055415 0.355554 0.103509
Si Si3 0.806794 0.750000 0.897551
Si Si4 0.055415 0.144446 0.103509
Si Si5 0.355127 0.600702 0.783413
Si Si6 0.144873 0.600702 0.783413
Si Si7 0.695369 0.394197 0.397407
O O1 0.315057 0.863387 0.500000
O O2 0.342453 0.870773 0.680430
O O3 0.250000 0.866901 0.626600
O O4 0.304048 0.000000 0.599033
O O5 0.058051 0.250000 0.105944
O O6 0.090826 0.390763 0.180248
O O7 0.000000 0.380142 0.117271
O O8 0.069040 0.382664 0.000000
O O9 0.750000 0.750000 0.898485
O O10 0.825443 0.835329 0.847261
O O11 0.825443 0.664671 0.847261
O O12 0.825671 0.750000 0.000000
O O13 0.090826 0.109237 0.180248
O O14 0.000000 0.119858 0.117271
O O15 0.069040 0.117336 0.000000
O O16 0.340275 0.500000 0.792475
O O17 0.342453 0.629227 0.680430
O O18 0.159725 0.500000 0.792475
O O19 0.684943 0.363387 0.500000
O O20 0.695952 0.500000 0.400967
#
# Coordination Sequence:
#
# PCOD9493479 Si02
#       7
#    16  16  16  16  16  16  16
#     4   8  15  30  52  77 105 137 175 220 265 309
#     4   9  18  34  55  77 104 139 178 221 267 315
#     4  11  24  38  50  72 110 147 178 216 260 311
#     4   9  18  34  55  77 104 139 178 221 267 315
#     4  11  21  34  56  81 105 139 180 219 267 320
#     4  11  21  34  56  81 105 139 180 219 267 320
#     4   8  15  30  52  77 105 137 175 220 265 309
#
# _framework density 17.768481999999999
#
# number of rings (size 3 to 8) (size 9 to 14) (size 15 to 20)
#    0.000    2.429    1.429    3.429    0.000    4.571 
#    0.000    3.571    0.000    3.429    0.000    6.000 
#    0.000    0.000    0.000    0.000    0.000    0.000 
#
# Total GULP energy -312304.202581 kJ/mol
# GULP energy per Si atom -5576.860760 kJ/mol
# Density = 1.772804 g / cm^3
# Si number density = 17.768482 Si / 1000 Ang^3
#
#
#
# Elastic Constant Matrix: (Units=GPa)
#
#
# Indices 1 2 3 4 5 6 
#
# 1 99.8691 15.8176 81.9257 0.0000 0.0000 0.0000
# 2 15.8176 64.9679 30.0590 0.0000 0.0000 0.0000
# 3 81.9257 30.0590 163.1896 0.0000 0.0000 0.0000
# 4 0.0000 0.0000 0.0000 28.6865 0.0000 0.0000
# 5 0.0000 0.0000 0.0000 0.0000 35.6275 0.0000
# 6 0.0000 0.0000 0.0000 0.0000 0.0000 13.6185
#
#
#
# Elastic Compliance Matrix: (Units=1/GPa)
#
#
# Indices 1 2 3 4 5 6 
#
# 1 0.017027 -0.000208 -0.008510 0.000000 0.000000 0.000000
# 2 -0.000208 0.016829 -0.002995 0.000000 0.000000 0.000000
# 3 -0.008510 -0.002995 0.010952 0.000000 0.000000 0.000000
# 4 0.000000 0.000000 0.000000 0.034860 0.000000 0.000000
# 5 0.000000 0.000000 0.000000 0.000000 0.028068 0.000000
# 6 0.000000 0.000000 0.000000 0.000000 0.000000 0.073430
#
#
# Mechanical properties :
#
#
# Convention : Reuss Voigt Hill
#
# Bulk Modulus (GPa) = 46.77066 64.84791 55.80929
# Shear Modulus (GPa) = 23.61636 28.93477 26.27556
#
# Velocity S-wave (km/s) = 3.64966 4.03976 3.84965
# Velocity P-wave (km/s) = 6.64375 7.63772 7.15801
#
# Compressibility (1/GPa) = 0.02138092
#
# Stress axis : x y z
#
# Youngs Moduli (GPa) = 58.73128 59.42211 91.31115
#
# Poissons Ratio (x) = 0.01238 0.77701
# Poissons Ratio (y) = 0.01223 0.27350
# Poissons Ratio (z) = 0.49977 0.17798
#
# Static dielectric constant tensor:
#      x y z
#    x 1.610280 0.000000 0.000000 
#    y 0.000000 1.641720 0.000000 
#    z 0.000000 0.000000 1.614540 
# 
# From -- ./inp_files/47026.got.cif
#   From: 2010.05.17/outbox.cif.g08.bks.cpg/sg65_24_cif.got.tgz:47026.got - 2010.06.03 17:01:31.
