data_PCOD9493344
_publ_section_title
;
Structure prediction by ZEFSAII (Michael W. Deem and Ramdas Pophale) SiO2 
 PCOD9493344
Probable space group: C M M M
;
_chemical_formula_sum "Si O2"
_cell_formula_units_Z 64
_cell_length_a 27.736408
_cell_length_b 14.418135
_cell_length_c 9.685967
_cell_angle_alpha 90.000000
_cell_angle_beta 90.000000
_cell_angle_gamma 90.000000
_cell_volume 3873.488668
_symmetry_space_group_name_H-M "C M M M"
_symmetry_group_IT_number 65
_symmetry_cell_setting 'orthorhombic'
loop_
_space_group_symop_operation_xyz
x,y,z
-x,-y,z
x,-y,-z
-x,y,-z
-x,-y,-z
x,y,-z
-x,y,z
x,-y,z
1/2+x,1/2+y,z
1/2-x,1/2-y,z
1/2+x,1/2-y,-z
1/2-x,1/2+y,-z
1/2-x,1/2-y,-z
1/2+x,1/2+y,-z
1/2-x,1/2+y,z
1/2+x,1/2-y,z
loop_
_atom_site_type_symbol
_atom_site_label
_atom_site_fract_x
_atom_site_fract_y
_atom_site_fract_z
Si Si1 0.058036 0.612611 0.000000
Si Si2 0.701233 0.313002 0.332868
Si Si3 0.943705 0.391717 0.500000
Si Si4 0.382585 0.173875 0.265917
Si Si5 0.222945 0.000000 0.832370
Si Si6 0.183239 0.500000 0.659609
O O1 0.089598 0.651434 0.873775
O O2 0.059990 0.500000 0.000000
O O3 0.000000 0.635961 0.000000
O O4 0.698715 0.328157 0.500000
O O5 0.750000 0.250000 0.310122
O O6 0.653409 0.259903 0.280454
O O7 0.703938 0.407229 0.244051
O O8 0.925500 0.500000 0.500000
O O9 0.925610 0.331936 0.626632
O O10 0.000000 0.400134 0.500000
O O11 0.348484 0.090006 0.315926
O O12 0.278115 0.000000 0.781581
O O13 0.217593 0.000000 0.000000
O O14 0.202375 0.500000 0.500000
#
# Coordination Sequence:
#
# PCOD9493344 Si02
#       6
#     8  16   8  16   8   8
#     4  11  24  38  55  87 131 169 199 246 303 361
#     4  11  23  40  63  88 120 160 204 247 295 353
#     4  11  20  34  57  89 123 155 201 248 289 357
#     4  12  21  36  59  86 120 168 203 238 299 355
#     4  12  28  40  58  89 124 161 203 246 293 357
#     4  12  20  36  57  87 125 161 201 242 290 345
#
# _framework density 16.522573000000001
#
# number of rings (size 3 to 8) (size 9 to 14) (size 15 to 20)
#    0.000    0.500    7.500    1.875    3.500    2.500 
#    0.000    0.000    0.000    0.000    0.000    5.250 
#    0.000    0.000    0.000    0.000    0.000    0.000 
#
# Total GULP energy -178210.817487 kJ/mol
# GULP energy per Si atom -5569.088046 kJ/mol
# Density = 1.648497 g / cm^3
# Si number density = 16.522573 Si / 1000 Ang^3
#
#
#
# Elastic Constant Matrix: (Units=GPa)
#
#
# Indices 1 2 3 4 5 6 
#
# 1 106.5328 55.2540 57.6702 0.0000 0.0000 0.0000
# 2 55.2540 113.9619 60.7339 0.0000 0.0000 0.0000
# 3 57.6702 60.7339 173.6288 0.0000 0.0000 0.0000
# 4 0.0000 0.0000 0.0000 23.9000 0.0000 0.0000
# 5 0.0000 0.0000 0.0000 0.0000 38.1243 0.0000
# 6 0.0000 0.0000 0.0000 0.0000 0.0000 -8.3616
#
#
#
# Elastic Compliance Matrix: (Units=1/GPa)
#
#
# Indices 1 2 3 4 5 6 
#
# 1 0.013495 -0.005106 -0.002696 0.000000 0.000000 0.000000
# 2 -0.005106 0.012717 -0.002753 0.000000 0.000000 0.000000
# 3 -0.002696 -0.002753 0.007618 0.000000 0.000000 0.000000
# 4 0.000000 0.000000 0.000000 0.041841 0.000000 0.000000
# 5 0.000000 0.000000 0.000000 0.000000 0.026230 0.000000
# 6 0.000000 0.000000 0.000000 0.000000 0.000000 -0.119594
#
#
# Mechanical properties :
#
#
# Convention : Reuss Voigt Hill
#
# Bulk Modulus (GPa) = 78.61352 82.38220 80.49786
# Shear Modulus (GPa) = 653.11727 25.43022 339.27375
#
# Velocity S-wave (km/s) = 19.90342 3.92742 14.34522
# Velocity P-wave (km/s) = 23.99745 8.39850 17.97793
#
# Compressibility (1/GPa) = 0.01272046
#
# Stress axis : x y z
#
# Youngs Moduli (GPa) = 74.10415 78.63274 131.27250
#
# Poissons Ratio (x) = 0.40149 0.35393
# Poissons Ratio (y) = 0.37837 0.36133
# Poissons Ratio (z) = 0.19980 0.21644
#
# Static dielectric constant tensor:
#      x y z
#    x 1.572870 0.000000 0.000000 
#    y 0.000000 1.568920 0.000000 
#    z 0.000000 0.000000 1.494570 
# 
# From -- ./inp_files/7614.got.cif
#   From: 2010.05.17/outbox.cif.g08.bks.cpg/sg65_4_cif.got.tgz:7614.got - 2010.06.03 17:01:31.
