data_PCOD9493122
_publ_section_title
;
Structure prediction by ZEFSAII (Michael W. Deem and Ramdas Pophale) SiO2 
 PCOD9493122
Probable space group: C M M M
;
_chemical_formula_sum "Si O2"
_cell_formula_units_Z 72
_cell_length_a 10.230113
_cell_length_b 15.004019
_cell_length_c 24.238735
_cell_angle_alpha 90.000000
_cell_angle_beta 90.000000
_cell_angle_gamma 90.000000
_cell_volume 3720.471542
_symmetry_space_group_name_H-M "C M M M"
_symmetry_group_IT_number 65
_symmetry_cell_setting 'orthorhombic'
loop_
_space_group_symop_operation_xyz
x,y,z
-x,-y,z
x,-y,-z
-x,y,-z
-x,-y,-z
x,y,-z
-x,y,z
x,-y,z
1/2+x,1/2+y,z
1/2-x,1/2-y,z
1/2+x,1/2-y,-z
1/2-x,1/2+y,-z
1/2-x,1/2-y,-z
1/2+x,1/2+y,-z
1/2-x,1/2+y,z
1/2+x,1/2-y,z
loop_
_atom_site_type_symbol
_atom_site_label
_atom_site_fract_x
_atom_site_fract_y
_atom_site_fract_z
Si Si1 0.153562 0.664687 0.439516
Si Si2 0.500000 0.596694 0.736097
Si Si3 0.500000 0.265509 0.836318
Si Si4 0.764064 0.357234 0.322403
Si Si5 0.657899 0.894101 0.000000
Si Si6 0.500000 0.100507 0.240085
Si Si7 0.750000 0.250000 0.088957
O O1 0.165738 0.620422 0.500000
O O2 0.250000 0.750000 0.441127
O O3 0.194327 0.614068 0.383963
O O4 0.000000 0.690688 0.433390
O O5 0.500000 0.500000 0.763189
O O6 0.500000 0.670623 0.783308
O O7 0.626765 0.606179 0.698009
O O8 0.500000 0.167024 0.810738
O O9 0.371787 0.276918 0.873059
O O10 0.750000 0.250000 0.322639
O O11 0.874837 0.382636 0.278778
O O12 0.709675 0.835200 0.051585
O O13 0.500000 0.890653 0.000000
O O14 0.694960 0.000000 0.000000
O O15 0.500000 0.000000 0.220286
#
# Coordination Sequence:
#
# PCOD9493122 Si02
#       7
#    16   8   8  16   8   8   8
#     4   9  18  31  54  88 117 150 202 263 325 389
#     4  12  26  42  62  89 128 171 212 263 318 374
#     4  12  24  43  64  98 137 170 218 262 316 356
#     4  11  20  39  62  86 121 165 208 261 325 390
#     4  10  22  45  74 105 136 175 215 252 310 368
#     4  12  24  40  64  91 122 169 222 261 310 380
#     4  11  24  42  72 102 136 172 213 264 306 362
#
# _framework density 19.352385000000002
#
# number of rings (size 3 to 8) (size 9 to 14) (size 15 to 20)
#    0.000    1.222    4.444    2.000    4.667    1.778 
#    0.000    0.556    0.000    4.000    0.000    0.000 
#    0.000    0.000    0.000    0.000    0.000    0.000 
#
# Total GULP energy -201002.648796 kJ/mol
# GULP energy per Si atom -5583.406911 kJ/mol
# Density = 1.930834 g / cm^3
# Si number density = 19.352385 Si / 1000 Ang^3
#
#
#
# Elastic Constant Matrix: (Units=GPa)
#
#
# Indices 1 2 3 4 5 6 
#
# 1 170.1556 25.9708 70.0787 0.0000 0.0000 0.0000
# 2 25.9708 126.2496 37.9040 0.0000 0.0000 0.0000
# 3 70.0787 37.9040 124.5641 0.0000 0.0000 0.0000
# 4 0.0000 0.0000 0.0000 -28.5666 0.0000 0.0000
# 5 0.0000 0.0000 0.0000 0.0000 84.3677 0.0000
# 6 0.0000 0.0000 0.0000 0.0000 0.0000 36.6988
#
#
#
# Elastic Compliance Matrix: (Units=1/GPa)
#
#
# Indices 1 2 3 4 5 6 
#
# 1 0.007660 -0.000310 -0.004215 0.000000 0.000000 0.000000
# 2 -0.000310 0.008730 -0.002482 0.000000 0.000000 0.000000
# 3 -0.004215 -0.002482 0.011155 0.000000 0.000000 0.000000
# 4 0.000000 0.000000 0.000000 -0.035006 0.000000 0.000000
# 5 0.000000 0.000000 0.000000 0.000000 0.011853 0.000000
# 6 0.000000 0.000000 0.000000 0.000000 0.000000 0.027249
#
#
# Mechanical properties :
#
#
# Convention : Reuss Voigt Hill
#
# Bulk Modulus (GPa) = 73.90942 76.54180 75.22561
# Shear Modulus (GPa) = 99.67022 37.63437 68.65229
#
# Velocity S-wave (km/s) = 7.18433 4.41465 5.96254
# Velocity P-wave (km/s) = 10.34861 8.10080 9.29292
#
# Compressibility (1/GPa) = 0.01353008
#
# Stress axis : x y z
#
# Youngs Moduli (GPa) = 130.54176 114.55054 89.64851
#
# Poissons Ratio (x) = 0.03554 0.37789
# Poissons Ratio (y) = 0.04050 0.22249
# Poissons Ratio (z) = 0.55027 0.28430
#
# Static dielectric constant tensor:
#      x y z
#    x 1.642280 0.000000 0.000000 
#    y 0.000000 1.681760 0.000000 
#    z 0.000000 0.000000 1.685060 
# 
# From -- ./inp_files/72666.got.cif
#   From: 2010.05.17/outbox.cif.g08.bks.cpg/sg65_37_cif.got.tgz:72666.got - 2010.06.03 17:01:31.
