data_PCOD9493858
_publ_section_title
;
Structure prediction by ZEFSAII (Michael W. Deem and Ramdas Pophale) SiO2 
 PCOD9493858
Probable space group: C M M M
;
_chemical_formula_sum "Si O2"
_cell_formula_units_Z 68
_cell_length_a 7.816487
_cell_length_b 19.671867
_cell_length_c 20.555746
_cell_angle_alpha 90.000000
_cell_angle_beta 90.000000
_cell_angle_gamma 90.000000
_cell_volume 3160.752077
_symmetry_space_group_name_H-M "C M M M"
_symmetry_group_IT_number 65
_symmetry_cell_setting 'orthorhombic'
loop_
_space_group_symop_operation_xyz
x,y,z
-x,-y,z
x,-y,-z
-x,y,-z
-x,-y,-z
x,y,-z
-x,y,z
x,-y,z
1/2+x,1/2+y,z
1/2-x,1/2-y,z
1/2+x,1/2-y,-z
1/2-x,1/2+y,-z
1/2-x,1/2-y,-z
1/2+x,1/2+y,-z
1/2-x,1/2+y,z
1/2+x,1/2-y,z
loop_
_atom_site_type_symbol
_atom_site_label
_atom_site_fract_x
_atom_site_fract_y
_atom_site_fract_z
Si Si1 0.500000 0.000000 0.254913
Si Si2 0.209042 0.421994 0.000000
Si Si3 0.704891 0.173697 0.881862
Si Si4 0.199539 0.675515 0.382613
Si Si5 0.309509 0.388473 0.252073
Si Si6 0.705377 0.577895 0.500000
O O1 0.652613 0.941243 0.254276
O O2 0.261976 0.380683 0.063996
O O3 0.266735 0.500000 0.000000
O O4 0.000000 0.422873 0.000000
O O5 0.500000 0.168128 0.875784
O O6 0.750000 0.250000 0.902450
O O7 0.786339 0.156143 0.812714
O O8 0.250000 0.750000 0.407553
O O9 0.296572 0.657340 0.316599
O O10 0.234990 0.618574 0.436619
O O11 0.000000 0.675835 0.367725
O O12 0.500000 0.419390 0.250834
O O13 0.767059 0.500000 0.500000
O O14 0.500000 0.577123 0.500000
#
# Coordination Sequence:
#
# PCOD9493858 Si02
#       6
#     4   8  16  16  16   8
#     4  12  26  48  68 108 148 180 224 282 362 408
#     4   9  21  38  65  95 136 185 233 291 355 415
#     4  11  22  41  68 100 138 184 237 290 349 416
#     4  12  25  46  71 102 139 185 236 290 349 415
#     4  12  26  45  73 106 141 183 233 286 344 416
#     4  11  26  45  68 101 139 183 234 289 355 421
#
# _framework density 21.513867000000001
#
# number of rings (size 3 to 8) (size 9 to 14) (size 15 to 20)
#    0.000    0.706    2.353    4.941    3.294    0.941 
#    0.000    1.765    0.000    2.824    0.000    0.000 
#    0.000    0.000    0.000    0.000    0.000    0.000 
#
# Total GULP energy -189749.305860 kJ/mol
# GULP energy per Si atom -5580.861937 kJ/mol
# Density = 2.146490 g / cm^3
# Si number density = 21.513867 Si / 1000 Ang^3
#
#
#
# Elastic Constant Matrix: (Units=GPa)
#
#
# Indices 1 2 3 4 5 6 
#
# 1 152.8146 31.4759 12.7136 0.0000 0.0000 0.0000
# 2 31.4759 189.9784 71.2205 0.0000 0.0000 0.0000
# 3 12.7136 71.2205 150.2508 0.0000 0.0000 0.0000
# 4 0.0000 0.0000 0.0000 -30.7780 0.0000 0.0000
# 5 0.0000 0.0000 0.0000 0.0000 44.2001 0.0000
# 6 0.0000 0.0000 0.0000 0.0000 0.0000 25.5356
#
#
#
# Elastic Compliance Matrix: (Units=1/GPa)
#
#
# Indices 1 2 3 4 5 6 
#
# 1 0.006775 -0.001104 -0.000050 0.000000 0.000000 0.000000
# 2 -0.001104 0.006581 -0.003026 0.000000 0.000000 0.000000
# 3 -0.000050 -0.003026 0.008094 0.000000 0.000000 0.000000
# 4 0.000000 0.000000 0.000000 -0.032491 0.000000 0.000000
# 5 0.000000 0.000000 0.000000 0.000000 0.022624 0.000000
# 6 0.000000 0.000000 0.000000 0.000000 0.000000 0.039161
#
#
# Mechanical properties :
#
#
# Convention : Reuss Voigt Hill
#
# Bulk Modulus (GPa) = 76.39015 80.42930 78.40972
# Shear Modulus (GPa) = 78.77873 32.96712 55.87292
#
# Velocity S-wave (km/s) = 6.05782 3.91879 5.10167
# Velocity P-wave (km/s) = 9.19315 7.61196 8.43967
#
# Compressibility (1/GPa) = 0.01309069
#
# Stress axis : x y z
#
# Youngs Moduli (GPa) = 147.59288 151.95076 123.54546
#
# Poissons Ratio (x) = 0.16772 0.00619
# Poissons Ratio (y) = 0.16291 0.37386
# Poissons Ratio (z) = 0.00740 0.45982
#
# Static dielectric constant tensor:
#      x y z
#    x 1.775550 0.000000 0.000000 
#    y 0.000000 1.753360 0.000000 
#    z 0.000000 0.000000 1.765800 
# 
# From -- ./inp_files/59024.got.cif
#   From: 2010.05.17/outbox.cif.g08.bks.cpg/sg65_30_cif.got.tgz:59024.got - 2010.06.03 17:01:31.
