data_PCOD9493368
_publ_section_title
;
Structure prediction by ZEFSAII (Michael W. Deem and Ramdas Pophale) SiO2 
 PCOD9493368
Probable space group: C M M M
;
_chemical_formula_sum "Si O2"
_cell_formula_units_Z 96
_cell_length_a 33.860506
_cell_length_b 16.365954
_cell_length_c 7.676116
_cell_angle_alpha 90.000000
_cell_angle_beta 90.000000
_cell_angle_gamma 90.000000
_cell_volume 4253.792479
_symmetry_space_group_name_H-M "C M M M"
_symmetry_group_IT_number 65
_symmetry_cell_setting 'orthorhombic'
loop_
_space_group_symop_operation_xyz
x,y,z
-x,-y,z
x,-y,-z
-x,y,-z
-x,-y,-z
x,y,-z
-x,y,z
x,-y,z
1/2+x,1/2+y,z
1/2-x,1/2-y,z
1/2+x,1/2-y,-z
1/2-x,1/2+y,-z
1/2-x,1/2-y,-z
1/2+x,1/2+y,-z
1/2-x,1/2+y,z
1/2+x,1/2-y,z
loop_
_atom_site_type_symbol
_atom_site_label
_atom_site_fract_x
_atom_site_fract_y
_atom_site_fract_z
Si Si1 0.457617 0.326817 0.790820
Si Si2 0.203058 0.094254 0.788652
Si Si3 0.542618 0.867121 0.787643
Si Si4 0.712280 0.097816 0.199140
Si Si5 0.874806 0.807659 0.302903
Si Si6 0.372846 0.871716 0.197436
O O1 0.500000 0.361066 0.729286
O O2 0.458034 0.229880 0.745751
O O3 0.415310 0.357832 0.726437
O O4 0.457265 0.332819 0.000000
O O5 0.245834 0.127192 0.725856
O O6 0.164966 0.143491 0.731021
O O7 0.198680 0.000000 0.733288
O O8 0.204615 0.095575 0.000000
O O9 0.500000 0.900840 0.730137
O O10 0.585060 0.899653 0.725416
O O11 0.543472 0.873529 0.000000
O O12 0.669569 0.111929 0.283116
O O13 0.716957 0.000000 0.188781
O O14 0.709696 0.130920 0.000000
O O15 0.875160 0.777811 0.500000
O O16 0.875721 0.726414 0.187879
O O17 0.370720 0.905409 0.000000
#
# Coordination Sequence:
#
# PCOD9493368 Si02
#       6
#    16  16  16  16  16  16
#     4   8  14  27  47  68  91 121 156 190 225 268
#     4   9  18  34  53  68  85 115 157 199 239 287
#     4   7  10  18  35  60  87 115 146 177 212 259
#     4   8  15  29  50  72  88 111 156 208 247 277
#     4  11  21  30  44  70 102 127 151 187 229 276
#     4   9  16  28  47  68  92 122 157 197 237 277
#
# _framework density 22.568097999999999
#
# number of rings (size 3 to 8) (size 9 to 14) (size 15 to 20)
#    0.000    3.333    0.000    4.500    0.000    1.333 
#    0.000    4.167    0.000    2.500    0.000    7.000 
#    0.000    0.000    0.000    8.333    0.000   10.500 
#
# Total GULP energy -267250.064734 kJ/mol
# GULP energy per Si atom -5567.709682 kJ/mol
# Density = 2.251673 g / cm^3
# Si number density = 22.568098 Si / 1000 Ang^3
#
#
#
# Elastic Constant Matrix: (Units=GPa)
#
#
# Indices 1 2 3 4 5 6 
#
# 1 305.1188 37.3262 15.4624 0.0000 0.0000 0.0000
# 2 37.3262 18.2142 1.3863 0.0000 0.0000 0.0000
# 3 15.4624 1.3863 56.8666 0.0000 0.0000 0.0000
# 4 0.0000 0.0000 0.0000 -9.4407 0.0000 0.0000
# 5 0.0000 0.0000 0.0000 0.0000 -53.9620 0.0000
# 6 0.0000 0.0000 0.0000 0.0000 0.0000 96.0584
#
#
#
# Elastic Compliance Matrix: (Units=1/GPa)
#
#
# Indices 1 2 3 4 5 6 
#
# 1 0.004428 -0.009000 -0.000985 0.000000 0.000000 0.000000
# 2 -0.009000 0.073295 0.000660 0.000000 0.000000 0.000000
# 3 -0.000985 0.000660 0.017837 0.000000 0.000000 0.000000
# 4 0.000000 0.000000 0.000000 -0.105924 0.000000 0.000000
# 5 0.000000 0.000000 0.000000 0.000000 -0.018532 0.000000
# 6 0.000000 0.000000 0.000000 0.000000 0.000000 0.010410
#
#
# Mechanical properties :
#
#
# Convention : Reuss Voigt Hill
#
# Bulk Modulus (GPa) = 13.00193 54.28326 33.64260
# Shear Modulus (GPa) = 193.79361 28.26614 111.02987
#
# Velocity S-wave (km/s) = 9.27669 3.54288 7.02172
# Velocity P-wave (km/s) = 10.97800 6.39072 8.98214
#
# Compressibility (1/GPa) = 0.07691168
#
# Stress axis : x y z
#
# Youngs Moduli (GPa) = 225.82037 13.64344 56.06431
#
# Poissons Ratio (x) = 0.12279 0.05521
# Poissons Ratio (y) = 2.03236 -0.03702
# Poissons Ratio (z) = 0.22236 -0.00901
#
# Static dielectric constant tensor:
#      x y z
#    x 1.955530 0.000000 0.000000 
#    y 0.000000 1.800540 0.000000 
#    z 0.000000 0.000000 1.831260 
# 
# From -- ./inp_files/16676.got.cif
#   From: 2010.05.17/outbox.cif.g08.bks.cpg/sg65_9_cif.got.tgz:16676.got - 2010.06.03 17:01:31.
