data_PCOD9493335
_publ_section_title
;
Structure prediction by ZEFSAII (Michael W. Deem and Ramdas Pophale) SiO2 
 PCOD9493335
Probable space group: C M M M
;
_chemical_formula_sum "Si O2"
_cell_formula_units_Z 104
_cell_length_a 15.076076
_cell_length_b 20.433094
_cell_length_c 20.878808
_cell_angle_alpha 90.000000
_cell_angle_beta 90.000000
_cell_angle_gamma 90.000000
_cell_volume 6431.735137
_symmetry_space_group_name_H-M "C M M M"
_symmetry_group_IT_number 65
_symmetry_cell_setting 'orthorhombic'
loop_
_space_group_symop_operation_xyz
x,y,z
-x,-y,z
x,-y,-z
-x,y,-z
-x,-y,-z
x,y,-z
-x,y,z
x,-y,z
1/2+x,1/2+y,z
1/2-x,1/2-y,z
1/2+x,1/2-y,-z
1/2-x,1/2+y,-z
1/2-x,1/2-y,-z
1/2+x,1/2+y,-z
1/2-x,1/2+y,z
1/2+x,1/2-y,z
loop_
_atom_site_type_symbol
_atom_site_label
_atom_site_fract_x
_atom_site_fract_y
_atom_site_fract_z
Si Si1 0.094485 0.367891 0.643143
Si Si2 0.607175 0.925549 0.000000
Si Si3 0.848724 0.000000 0.425272
Si Si4 0.231272 0.579717 0.258334
Si Si5 0.865774 0.500000 0.573118
Si Si6 0.102750 0.420557 0.859504
Si Si7 0.855352 0.761406 0.427069
Si Si8 0.601947 0.381145 0.333534
O O1 0.174892 0.377583 0.691358
O O2 0.097784 0.435233 0.604876
O O3 0.104793 0.307366 0.595636
O O4 0.000000 0.362304 0.677610
O O5 0.628434 0.895690 0.930702
O O6 0.500000 0.929806 0.000000
O O7 0.642920 0.000000 0.000000
O O8 0.741511 0.000000 0.422338
O O9 0.882732 0.062530 0.386664
O O10 0.874453 0.000000 0.500000
O O11 0.224876 0.500000 0.268973
O O12 0.179801 0.593396 0.191884
O O13 0.331232 0.602047 0.275059
O O14 0.890072 0.500000 0.500000
O O15 0.098387 0.500000 0.863280
O O16 0.000000 0.400181 0.843986
O O17 0.883023 0.779457 0.500000
O O18 0.750000 0.750000 0.428384
O O19 0.877699 0.814953 0.373181
O O20 0.500000 0.380769 0.312649
#
# Coordination Sequence:
#
# PCOD9493335 Si02
#       8
#    16   8   8  16   8  16  16  16
#     4  12  22  34  52  72  96 125 159 195 243 308
#     4   7  10  20  38  68 103 138 171 195 223 274
#     4  11  21  37  55  70  89 117 158 214 269 306
#     4  11  20  34  48  73 102 133 164 201 243 295
#     4  11  21  35  51  70  97 125 153 193 245 303
#     4   8  14  24  44  71 105 140 168 196 234 285
#     4  11  23  40  56  69  91 123 161 212 267 311
#     4  12  23  37  54  71  92 122 166 215 258 303
#
# _framework density 16.169820000000001
#
# number of rings (size 3 to 8) (size 9 to 14) (size 15 to 20)
#    0.000    1.462    4.615    3.231    0.000    6.769 
#    0.000    0.000    0.000    0.000    0.000    0.538 
#    0.000    5.538    0.000    3.231    0.000    0.462 
#
# Total GULP energy -289683.197873 kJ/mol
# GULP energy per Si atom -5570.830728 kJ/mol
# Density = 1.613302 g / cm^3
# Si number density = 16.169820 Si / 1000 Ang^3
#
#
#
# Elastic Constant Matrix: (Units=GPa)
#
#
# Indices 1 2 3 4 5 6 
#
# 1 122.4999 13.4791 46.8903 0.0000 0.0000 0.0000
# 2 13.4791 67.4924 15.2182 0.0000 0.0000 0.0000
# 3 46.8903 15.2182 109.2775 0.0000 0.0000 0.0000
# 4 0.0000 0.0000 0.0000 5.4329 0.0000 0.0000
# 5 0.0000 0.0000 0.0000 0.0000 25.1499 0.0000
# 6 0.0000 0.0000 0.0000 0.0000 0.0000 -64.5216
#
#
#
# Elastic Compliance Matrix: (Units=1/GPa)
#
#
# Indices 1 2 3 4 5 6 
#
# 1 0.009839 -0.001046 -0.004076 0.000000 0.000000 0.000000
# 2 -0.001046 0.015408 -0.001697 0.000000 0.000000 0.000000
# 3 -0.004076 -0.001697 0.011136 0.000000 0.000000 0.000000
# 4 0.000000 0.000000 0.000000 0.184062 0.000000 0.000000
# 5 0.000000 0.000000 0.000000 0.000000 0.039762 0.000000
# 6 0.000000 0.000000 0.000000 0.000000 0.000000 -0.015499
#
#
# Mechanical properties :
#
#
# Convention : Reuss Voigt Hill
#
# Bulk Modulus (GPa) = 43.96532 50.04946 47.00739
# Shear Modulus (GPa) = 18.80212 8.12439 13.46326
#
# Velocity S-wave (km/s) = 3.41367 2.24395 2.88864
# Velocity P-wave (km/s) = 6.54112 6.14275 6.34506
#
# Compressibility (1/GPa) = 0.02274520
#
# Stress axis : x y z
#
# Youngs Moduli (GPa) = 101.64095 64.90142 89.79617
#
# Poissons Ratio (x) = 0.06788 0.36601
# Poissons Ratio (y) = 0.10630 0.15238
# Poissons Ratio (z) = 0.41429 0.11014
#
# Static dielectric constant tensor:
#      x y z
#    x 1.584160 0.000000 0.000000 
#    y 0.000000 1.531930 0.000000 
#    z 0.000000 0.000000 1.561910 
# 
# From -- ./inp_files/62917.got.cif
#   From: 2010.05.17/outbox.cif.g08.bks.cpg/sg65_32_cif.got.tgz:62917.got - 2010.06.03 17:01:31.
