data_PCOD9493606
_publ_section_title
;
Structure prediction by ZEFSAII (Michael W. Deem and Ramdas Pophale) SiO2 
 PCOD9493606
Probable space group: C M M M
;
_chemical_formula_sum "Si O2"
_cell_formula_units_Z 104
_cell_length_a 7.654798
_cell_length_b 19.748130
_cell_length_c 34.381924
_cell_angle_alpha 90.000000
_cell_angle_beta 90.000000
_cell_angle_gamma 90.000000
_cell_volume 5197.444832
_symmetry_space_group_name_H-M "C M M M"
_symmetry_group_IT_number 65
_symmetry_cell_setting 'orthorhombic'
loop_
_space_group_symop_operation_xyz
x,y,z
-x,-y,z
x,-y,-z
-x,y,-z
-x,-y,-z
x,y,-z
-x,y,z
x,-y,z
1/2+x,1/2+y,z
1/2-x,1/2-y,z
1/2+x,1/2-y,-z
1/2-x,1/2+y,-z
1/2-x,1/2-y,-z
1/2+x,1/2+y,-z
1/2-x,1/2+y,z
1/2+x,1/2-y,z
loop_
_atom_site_type_symbol
_atom_site_label
_atom_site_fract_x
_atom_site_fract_y
_atom_site_fract_z
Si Si1 0.713134 0.921985 0.272231
Si Si2 0.709959 0.576000 0.044039
Si Si3 0.705193 0.828833 0.115378
Si Si4 0.209954 0.671619 0.570760
Si Si5 0.786272 0.421851 0.184709
Si Si6 0.709932 0.828112 0.658230
Si Si7 0.214274 0.421756 0.500000
O O1 0.500000 0.919739 0.272408
O O2 0.767924 0.902302 0.228521
O O3 0.776943 0.875200 0.307177
O O4 0.763276 0.000000 0.278382
O O5 0.500000 0.573321 0.042561
O O6 0.771870 0.500000 0.055064
O O7 0.755497 0.631973 0.075517
O O8 0.771902 0.590426 0.000000
O O9 0.500000 0.831948 0.120794
O O10 0.750000 0.750000 0.114302
O O11 0.781280 0.871351 0.151636
O O12 0.250000 0.750000 0.561177
O O13 0.276154 0.657284 0.614508
O O14 0.272816 0.619861 0.538016
O O15 0.000000 0.665920 0.571788
O O16 0.734098 0.500000 0.177311
O O17 0.000000 0.421806 0.184552
O O18 0.500000 0.836038 0.657037
O O19 0.750000 0.750000 0.666553
O O20 0.268859 0.500000 0.500000
O O21 0.000000 0.421418 0.500000
#
# Coordination Sequence:
#
# PCOD9493606 Si02
#       7
#    16  16  16  16  16  16   8
#     4   8  14  26  45  68  92 118 151 192 234 274
#     4   9  19  37  59  80 102 129 161 198 241 288
#     4  11  22  34  50  74 103 133 165 201 241 284
#     4   9  17  29  45  64  87 117 151 184 222 272
#     4   8  15  29  48  69  93 122 157 196 237 281
#     4   9  17  28  44  67  91 117 150 186 225 271
#     4   9  17  28  43  65  90 113 142 188 238 271
#
# _framework density 20.009831999999999
#
# number of rings (size 3 to 8) (size 9 to 14) (size 15 to 20)
#    0.000    3.000    0.000    2.538    0.000    2.769 
#    0.000    3.846    0.000    2.308    0.000    8.615 
#    0.000    0.000    0.000    0.000    0.000    0.000 
#
# Total GULP energy -290035.834339 kJ/mol
# GULP energy per Si atom -5577.612199 kJ/mol
# Density = 1.996429 g / cm^3
# Si number density = 20.009832 Si / 1000 Ang^3
#
#
#
# Elastic Constant Matrix: (Units=GPa)
#
#
# Indices 1 2 3 4 5 6 
#
# 1 36.4167 5.7381 8.0130 0.0000 0.0000 0.0000
# 2 5.7381 168.1818 157.7050 0.0000 0.0000 0.0000
# 3 8.0130 157.7050 197.4231 0.0000 0.0000 0.0000
# 4 0.0000 0.0000 0.0000 37.2288 0.0000 0.0000
# 5 0.0000 0.0000 0.0000 0.0000 12.1405 0.0000
# 6 0.0000 0.0000 0.0000 0.0000 0.0000 -0.6416
#
#
#
# Elastic Compliance Matrix: (Units=1/GPa)
#
#
# Indices 1 2 3 4 5 6 
#
# 1 0.027715 0.000435 -0.001473 0.000000 0.000000 0.000000
# 2 0.000435 0.023701 -0.018951 0.000000 0.000000 0.000000
# 3 -0.001473 -0.018951 0.020263 0.000000 0.000000 0.000000
# 4 0.000000 0.000000 0.000000 0.026861 0.000000 0.000000
# 5 0.000000 0.000000 0.000000 0.000000 0.082369 0.000000
# 6 0.000000 0.000000 0.000000 0.000000 0.000000 -1.558601
#
#
# Mechanical properties :
#
#
# Convention : Reuss Voigt Hill
#
# Bulk Modulus (GPa) = 31.54196 82.77043 57.15619
# Shear Modulus (GPa) = -3.76748 25.11655 10.67454
#
# Velocity S-wave (km/s) = -1.37365 3.54674 2.31219
# Velocity P-wave (km/s) = 3.64439 7.63067 5.97950
#
# Compressibility (1/GPa) = 0.03170380
#
# Stress axis : x y z
#
# Youngs Moduli (GPa) = 36.08105 42.19204 49.35082
#
# Poissons Ratio (x) = -0.01836 0.07267
# Poissons Ratio (y) = -0.01570 0.93523
# Poissons Ratio (z) = 0.05313 0.79956
#
# Static dielectric constant tensor:
#      x y z
#    x 1.757540 0.000000 0.000000 
#    y 0.000000 1.601780 0.000000 
#    z 0.000000 0.000000 1.727370 
# 
# From -- ./inp_files/76844.got.cif
#   From: 2010.05.17/outbox.cif.g08.bks.cpg/sg65_39_cif.got.tgz:76844.got - 2010.06.03 17:01:31.
