data_PCOD9493125
_publ_section_title
;
Structure prediction by ZEFSAII (Michael W. Deem and Ramdas Pophale) SiO2 
 PCOD9493125
Probable space group: C M M M
;
_chemical_formula_sum "Si O2"
_cell_formula_units_Z 64
_cell_length_a 10.326690
_cell_length_b 14.894808
_cell_length_c 23.300273
_cell_angle_alpha 90.000000
_cell_angle_beta 90.000000
_cell_angle_gamma 90.000000
_cell_volume 3583.909702
_symmetry_space_group_name_H-M "C M M M"
_symmetry_group_IT_number 65
_symmetry_cell_setting 'orthorhombic'
loop_
_space_group_symop_operation_xyz
x,y,z
-x,-y,z
x,-y,-z
-x,y,-z
-x,-y,-z
x,y,-z
-x,y,z
x,-y,z
1/2+x,1/2+y,z
1/2-x,1/2-y,z
1/2+x,1/2-y,-z
1/2-x,1/2+y,-z
1/2-x,1/2-y,-z
1/2+x,1/2+y,-z
1/2-x,1/2+y,z
1/2+x,1/2-y,z
loop_
_atom_site_type_symbol
_atom_site_label
_atom_site_fract_x
_atom_site_fract_y
_atom_site_fract_z
Si Si1 0.500000 0.101254 0.224641
Si Si2 0.500000 0.393955 0.759958
Si Si3 0.000000 0.740528 0.328908
Si Si4 0.844015 0.000000 0.933178
Si Si5 0.250000 0.750000 0.406957
Si Si6 0.740455 0.645756 0.843797
Si Si7 0.343049 0.392842 0.500000
O O1 0.500000 0.170961 0.276532
O O2 0.626611 0.116160 0.186019
O O3 0.500000 0.000000 0.247073
O O4 0.500000 0.500000 0.749868
O O5 0.500000 0.337846 0.701529
O O6 0.374635 0.368721 0.797801
O O7 0.873183 0.729439 0.367443
O O8 0.790998 0.914416 0.898778
O O9 0.000000 0.000000 0.928465
O O10 0.808948 0.000000 0.000000
O O11 0.286869 0.663858 0.446213
O O12 0.750000 0.750000 0.858576
O O13 0.311884 0.500000 0.500000
O O14 0.500000 0.385194 0.500000
#
# Coordination Sequence:
#
# PCOD9493125 Si02
#       7
#     8   8   8   8   8  16   8
#     4  12  24  38  61  93 128 170 200 252 320 382
#     4  12  22  40  65  91 122 180 218 244 308 392
#     4  12  24  39  62 100 137 162 214 266 318 372
#     4  11  24  43  67  93 121 163 223 278 311 372
#     4  11  24  42  66 100 134 162 211 280 314 364
#     4  12  21  40  65  89 123 165 212 256 318 388
#     4  10  22  45  74  93 124 179 223 254 324 380
#
# _framework density 17.857593000000001
#
# number of rings (size 3 to 8) (size 9 to 14) (size 15 to 20)
#    0.000    0.500    7.500    1.500    0.000    2.500 
#    0.000    1.875    0.000    0.000    0.000    0.000 
#    0.000    0.000    0.000    0.000    0.000    0.000 
#
# Total GULP energy -178894.323597 kJ/mol
# GULP energy per Si atom -5590.447612 kJ/mol
# Density = 1.781695 g / cm^3
# Si number density = 17.857593 Si / 1000 Ang^3
#
#
#
# Elastic Constant Matrix: (Units=GPa)
#
#
# Indices 1 2 3 4 5 6 
#
# 1 159.2039 45.7520 77.3699 0.0000 0.0000 0.0000
# 2 45.7520 187.6426 69.4779 0.0000 0.0000 0.0000
# 3 77.3699 69.4779 139.6516 0.0000 0.0000 0.0000
# 4 0.0000 0.0000 0.0000 -7.3080 0.0000 0.0000
# 5 0.0000 0.0000 0.0000 0.0000 14.1918 0.0000
# 6 0.0000 0.0000 0.0000 0.0000 0.0000 26.1153
#
#
#
# Elastic Compliance Matrix: (Units=1/GPa)
#
#
# Indices 1 2 3 4 5 6 
#
# 1 0.008621 -0.000409 -0.004573 0.000000 0.000000 0.000000
# 2 -0.000409 0.006552 -0.003033 0.000000 0.000000 0.000000
# 3 -0.004573 -0.003033 0.011203 0.000000 0.000000 0.000000
# 4 0.000000 0.000000 0.000000 -0.136837 0.000000 0.000000
# 5 0.000000 0.000000 0.000000 0.000000 0.070463 0.000000
# 6 0.000000 0.000000 0.000000 0.000000 0.000000 0.038292
#
#
# Mechanical properties :
#
#
# Convention : Reuss Voigt Hill
#
# Bulk Modulus (GPa) = 96.65095 96.85530 96.75313
# Shear Modulus (GPa) = 281.33009 26.19306 153.76157
#
# Velocity S-wave (km/s) = 12.56515 3.83400 9.28931
# Velocity P-wave (km/s) = 16.27118 8.59970 13.01357
#
# Compressibility (1/GPa) = 0.01034651
#
# Stress axis : x y z
#
# Youngs Moduli (GPa) = 115.99515 152.62376 89.26058
#
# Poissons Ratio (x) = 0.06240 0.40817
# Poissons Ratio (y) = 0.04743 0.27074
# Poissons Ratio (z) = 0.53043 0.46294
#
# Static dielectric constant tensor:
#      x y z
#    x 1.591760 0.000000 0.000000 
#    y 0.000000 1.622320 0.000000 
#    z 0.000000 0.000000 1.579910 
# 
# From -- ./inp_files/66941.got.cif
#   From: 2010.05.17/outbox.cif.g08.bks.cpg/sg65_34_cif.got.tgz:66941.got - 2010.06.03 17:01:31.
