data_PCOD9493780
_publ_section_title
;
Structure prediction by ZEFSAII (Michael W. Deem and Ramdas Pophale) SiO2 
 PCOD9493780
Probable space group: C M M M
;
_chemical_formula_sum "Si O2"
_cell_formula_units_Z 56
_cell_length_a 15.719599
_cell_length_b 7.917248
_cell_length_c 20.968006
_cell_angle_alpha 90.000000
_cell_angle_beta 90.000000
_cell_angle_gamma 90.000000
_cell_volume 2609.593395
_symmetry_space_group_name_H-M "C M M M"
_symmetry_group_IT_number 65
_symmetry_cell_setting 'orthorhombic'
loop_
_space_group_symop_operation_xyz
x,y,z
-x,-y,z
x,-y,-z
-x,y,-z
-x,-y,-z
x,y,-z
-x,y,z
x,-y,z
1/2+x,1/2+y,z
1/2-x,1/2-y,z
1/2+x,1/2-y,-z
1/2-x,1/2+y,-z
1/2-x,1/2-y,-z
1/2+x,1/2+y,-z
1/2-x,1/2+y,z
1/2+x,1/2-y,z
loop_
_atom_site_type_symbol
_atom_site_label
_atom_site_fract_x
_atom_site_fract_y
_atom_site_fract_z
Si Si1 0.500000 0.299685 0.571601
Si Si2 0.341899 0.200029 0.658296
Si Si3 0.396975 0.797504 0.931664
Si Si4 0.100594 0.294100 0.205909
O O1 0.500000 0.500000 0.566373
O O2 0.500000 0.226587 0.500000
O O3 0.417415 0.250987 0.611906
O O4 0.250000 0.250000 0.633228
O O5 0.355134 0.270797 0.730103
O O6 0.345532 0.000000 0.664356
O O7 0.500000 0.776393 0.930818
O O8 0.366472 0.731388 0.863015
O O9 0.382308 0.000000 0.932442
O O10 0.365826 0.728319 0.000000
O O11 0.106066 0.500000 0.204358
O O12 0.000000 0.254505 0.211315
#
# Coordination Sequence:
#
# PCOD9493780 Si02
#       4
#     8  16  16  16
#     4  11  25  45  67  91 118 147 184 232 285 345
#     4  11  22  38  61  89 121 157 194 236 283 337
#     4   7   9  14  29  58  96 135 177 227 278 326
#     4   8  13  24  44  71 104 143 187 233 281 331
#
# _framework density 21.459281000000001
#
# number of rings (size 3 to 8) (size 9 to 14) (size 15 to 20)
#    0.000    3.000    1.429    3.857    0.000    1.714 
#    0.000    0.000    0.000    0.857    0.000    0.000 
#    0.000    4.571    0.000    0.000    0.000    0.857 
#
# Total GULP energy -156110.494976 kJ/mol
# GULP energy per Si atom -5575.374821 kJ/mol
# Density = 2.141044 g / cm^3
# Si number density = 21.459281 Si / 1000 Ang^3
#
#
#
# Elastic Constant Matrix: (Units=GPa)
#
#
# Indices 1 2 3 4 5 6 
#
# 1 108.5082 7.3214 79.9803 0.0000 0.0000 0.0000
# 2 7.3214 30.8684 20.7329 0.0000 0.0000 0.0000
# 3 79.9803 20.7329 204.1027 0.0000 0.0000 0.0000
# 4 0.0000 0.0000 0.0000 715.6965 0.0000 0.0000
# 5 0.0000 0.0000 0.0000 0.0000 -15.5414 0.0000
# 6 0.0000 0.0000 0.0000 0.0000 0.0000 12.5811
#
#
#
# Elastic Compliance Matrix: (Units=1/GPa)
#
#
# Indices 1 2 3 4 5 6 
#
# 1 0.012963 0.000362 -0.005116 0.000000 0.000000 0.000000
# 2 0.000362 0.034778 -0.003675 0.000000 0.000000 0.000000
# 3 -0.005116 -0.003675 0.007278 0.000000 0.000000 0.000000
# 4 0.000000 0.000000 0.000000 0.001397 0.000000 0.000000
# 5 0.000000 0.000000 0.000000 0.000000 -0.064344 0.000000
# 6 0.000000 0.000000 0.000000 0.000000 0.000000 0.079484
#
#
# Mechanical properties :
#
#
# Convention : Reuss Voigt Hill
#
# Bulk Modulus (GPa) = 26.20537 62.17206 44.18872
# Shear Modulus (GPa) = 49.43965 158.24356 103.84160
#
# Velocity S-wave (km/s) = 4.80508 8.59659 6.96384
# Velocity P-wave (km/s) = 6.55921 11.29470 9.23562
#
# Compressibility (1/GPa) = 0.03816011
#
# Stress axis : x y z
#
# Youngs Moduli (GPa) = 77.14440 28.75400 137.40644
#
# Poissons Ratio (x) = -0.01041 0.70302
# Poissons Ratio (y) = -0.02792 0.50491
# Poissons Ratio (z) = 0.39470 0.10566
#
# Static dielectric constant tensor:
#      x y z
#    x 1.742630 0.000000 0.000000 
#    y 0.000000 1.761890 0.000000 
#    z 0.000000 0.000000 1.862100 
# 
# From -- ./inp_files/58569.got.cif
#   From: 2010.05.17/outbox.cif.g08.bks.cpg/sg65_30_cif.got.tgz:58569.got - 2010.06.03 17:01:31.
