data_PCOD9493422
_publ_section_title
;
Structure prediction by ZEFSAII (Michael W. Deem and Ramdas Pophale) SiO2 
 PCOD9493422
Probable space group: C M M M
;
_chemical_formula_sum "Si O2"
_cell_formula_units_Z 88
_cell_length_a 7.738770
_cell_length_b 33.065287
_cell_length_c 17.214535
_cell_angle_alpha 90.000000
_cell_angle_beta 90.000000
_cell_angle_gamma 90.000000
_cell_volume 4404.935282
_symmetry_space_group_name_H-M "C M M M"
_symmetry_group_IT_number 65
_symmetry_cell_setting 'orthorhombic'
loop_
_space_group_symop_operation_xyz
x,y,z
-x,-y,z
x,-y,-z
-x,y,-z
-x,-y,-z
x,y,-z
-x,y,z
x,-y,z
1/2+x,1/2+y,z
1/2-x,1/2-y,z
1/2+x,1/2-y,-z
1/2-x,1/2+y,-z
1/2-x,1/2-y,-z
1/2+x,1/2+y,-z
1/2-x,1/2+y,z
1/2+x,1/2-y,z
loop_
_atom_site_type_symbol
_atom_site_label
_atom_site_fract_x
_atom_site_fract_y
_atom_site_fract_z
Si Si1 0.791723 0.204882 0.910743
Si Si2 0.200868 0.058208 0.416233
Si Si3 0.288214 0.544112 0.241824
Si Si4 0.701271 0.144524 0.631954
Si Si5 0.295841 0.296442 0.500000
Si Si6 0.202590 0.131879 0.195045
O O1 0.750000 0.250000 0.880010
O O2 0.724819 0.166436 0.861804
O O3 0.000000 0.202309 0.911537
O O4 0.729375 0.202953 0.000000
O O5 0.277493 0.046246 0.500000
O O6 0.271170 0.045001 0.332268
O O7 0.210784 0.106610 0.410106
O O8 0.000000 0.046026 0.417238
O O9 0.500000 0.546165 0.243710
O O10 0.240971 0.500000 0.208820
O O11 0.228246 0.585504 0.200002
O O12 0.500000 0.134753 0.641036
O O13 0.721809 0.182554 0.576757
O O14 0.780152 0.148362 0.717251
O O15 0.500000 0.302563 0.500000
O O16 0.250000 0.250000 0.500000
O O17 0.000000 0.127773 0.175667
#
# Coordination Sequence:
#
# PCOD9493422 Si02
#       6
#    16  16  16  16   8  16
#     4   9  18  33  54  79 105 131 161 201 250 304
#     4   9  16  27  45  65  89 125 164 208 257 299
#     4   8  14  25  43  69  97 128 171 213 248 295
#     4  11  21  33  49  70  95 128 169 208 249 297
#     4  12  24  38  52  68  93 126 167 212 258 301
#     4   9  18  33  52  73 100 135 168 205 254 303
#
# _framework density 19.977592000000001
#
# number of rings (size 3 to 8) (size 9 to 14) (size 15 to 20)
#    0.000    2.545    0.909    3.545    0.000    1.818 
#    0.000    3.636    0.000    9.273    0.000    8.909 
#    0.000    0.000    0.000   11.091    0.000   12.000 
#
# Total GULP energy -245211.520041 kJ/mol
# GULP energy per Si atom -5572.989092 kJ/mol
# Density = 1.993212 g / cm^3
# Si number density = 19.977592 Si / 1000 Ang^3
#
#
#
# Elastic Constant Matrix: (Units=GPa)
#
#
# Indices 1 2 3 4 5 6 
#
# 1 42.8377 -2.8433 -5.8355 0.0000 0.0000 0.0000
# 2 -2.8433 204.9439 70.8257 0.0000 0.0000 0.0000
# 3 -5.8355 70.8257 67.9978 0.0000 0.0000 0.0000
# 4 0.0000 0.0000 0.0000 12.6469 0.0000 0.0000
# 5 0.0000 0.0000 0.0000 0.0000 -0.0773 0.0000
# 6 0.0000 0.0000 0.0000 0.0000 0.0000 -4.7674
#
#
#
# Elastic Compliance Matrix: (Units=1/GPa)
#
#
# Indices 1 2 3 4 5 6 
#
# 1 0.023665 -0.000584 0.002639 0.000000 0.000000 0.000000
# 2 -0.000584 0.007638 -0.008006 0.000000 0.000000 0.000000
# 3 0.002639 -0.008006 0.023271 0.000000 0.000000 0.000000
# 4 0.000000 0.000000 0.000000 0.079071 0.000000 0.000000
# 5 0.000000 0.000000 0.000000 0.000000-12.942632 0.000000
# 6 0.000000 0.000000 0.000000 0.000000 0.000000 -0.209756
#
#
# Mechanical properties :
#
#
# Convention : Reuss Voigt Hill
#
# Bulk Modulus (GPa) = 23.43402 48.89701 36.16552
# Shear Modulus (GPa) = -0.38483 18.46927 9.04222
#
# Velocity S-wave (km/s) = -0.43938 3.04386 2.12979
# Velocity P-wave (km/s) = 3.39090 6.07309 4.91837
#
# Compressibility (1/GPa) = 0.04267299
#
# Stress axis : x y z
#
# Youngs Moduli (GPa) = 42.25710 130.92547 42.97116
#
# Poissons Ratio (x) = 0.07641 -0.11339
# Poissons Ratio (y) = 0.02466 0.34401
# Poissons Ratio (z) = -0.11151 1.04815
#
# Static dielectric constant tensor:
#      x y z
#    x 1.761120 0.000000 0.000000 
#    y 0.000000 1.737750 0.000000 
#    z 0.000000 0.000000 1.690750 
# 
# From -- ./inp_files/50445.got.cif
#   From: 2010.05.17/outbox.cif.g08.bks.cpg/sg65_26_cif.got.tgz:50445.got - 2010.06.03 17:01:31.
