data_PCOD9493728
_publ_section_title
;
Structure prediction by ZEFSAII (Michael W. Deem and Ramdas Pophale) SiO2 
 PCOD9493728
Probable space group: C M M M
;
_chemical_formula_sum "Si O2"
_cell_formula_units_Z 88
_cell_length_a 14.713230
_cell_length_b 17.382271
_cell_length_c 17.805455
_cell_angle_alpha 90.000000
_cell_angle_beta 90.000000
_cell_angle_gamma 90.000000
_cell_volume 4553.733563
_symmetry_space_group_name_H-M "C M M M"
_symmetry_group_IT_number 65
_symmetry_cell_setting 'orthorhombic'
loop_
_space_group_symop_operation_xyz
x,y,z
-x,-y,z
x,-y,-z
-x,y,-z
-x,-y,-z
x,y,-z
-x,y,z
x,-y,z
1/2+x,1/2+y,z
1/2-x,1/2-y,z
1/2+x,1/2-y,-z
1/2-x,1/2+y,-z
1/2-x,1/2-y,-z
1/2+x,1/2+y,-z
1/2-x,1/2+y,z
1/2+x,1/2-y,z
loop_
_atom_site_type_symbol
_atom_site_label
_atom_site_fract_x
_atom_site_fract_y
_atom_site_fract_z
Si Si1 0.896814 0.132092 0.803639
Si Si2 0.896884 0.408873 0.410124
Si Si3 0.733305 0.841100 0.291211
Si Si4 0.389108 0.500000 0.915539
Si Si5 0.606302 0.911237 0.161283
Si Si6 0.641901 0.761969 0.917719
O O1 0.831768 0.126688 0.732233
O O2 0.862056 0.073921 0.867703
O O3 0.895281 0.213667 0.847232
O O4 0.000000 0.112864 0.784122
O O5 0.889910 0.400528 0.500000
O O6 0.890165 0.500000 0.392496
O O7 0.816774 0.365248 0.367333
O O8 0.000000 0.384021 0.388215
O O9 0.750000 0.750000 0.287693
O O10 0.666759 0.874845 0.227278
O O11 0.500000 0.500000 0.919267
O O12 0.354052 0.500000 0.000000
O O13 0.500000 0.910482 0.182580
O O14 0.619447 0.851403 0.093519
O O15 0.631636 0.000000 0.146332
O O16 0.750000 0.750000 0.915376
O O17 0.609351 0.734859 0.000000
#
# Coordination Sequence:
#
# PCOD9493728 Si02
#       6
#    16  16  16   8  16  16
#     4  11  22  37  56  82 116 160 209 255 307 365
#     4   9  20  41  70 101 128 156 193 239 295 360
#     4  12  23  37  59  90 124 158 194 243 296 360
#     4   9  20  36  54  78 104 145 212 272 308 345
#     4  11  23  39  60  86 116 155 205 260 319 377
#     4  11  22  39  59  82 114 158 208 263 327 379
#
# _framework density 19.324801999999998
#
# number of rings (size 3 to 8) (size 9 to 14) (size 15 to 20)
#    0.000    1.364    3.636    2.727    2.545    5.091 
#    0.000    0.909    0.000    0.545    0.000    1.273 
#    0.000    0.000    0.000    0.000    0.000    0.000 
#
# Total GULP energy -245652.226025 kJ/mol
# GULP energy per Si atom -5583.005137 kJ/mol
# Density = 1.928082 g / cm^3
# Si number density = 19.324802 Si / 1000 Ang^3
#
#
#
# Elastic Constant Matrix: (Units=GPa)
#
#
# Indices 1 2 3 4 5 6 
#
# 1 121.3323 35.8467 44.3899 0.0000 0.0000 0.0000
# 2 35.8467 114.3540 27.0283 0.0000 0.0000 0.0000
# 3 44.3899 27.0283 62.6086 0.0000 0.0000 0.0000
# 4 0.0000 0.0000 0.0000 24.4959 0.0000 0.0000
# 5 0.0000 0.0000 0.0000 0.0000 -8.3986 0.0000
# 6 0.0000 0.0000 0.0000 0.0000 0.0000 28.0722
#
#
#
# Elastic Compliance Matrix: (Units=1/GPa)
#
#
# Indices 1 2 3 4 5 6 
#
# 1 0.011475 -0.001864 -0.007331 0.000000 0.000000 0.000000
# 2 -0.001864 0.010041 -0.003013 0.000000 0.000000 0.000000
# 3 -0.007331 -0.003013 0.022471 0.000000 0.000000 0.000000
# 4 0.000000 0.000000 0.000000 0.040823 0.000000 0.000000
# 5 0.000000 0.000000 0.000000 0.000000 -0.119068 0.000000
# 6 0.000000 0.000000 0.000000 0.000000 0.000000 0.035622
#
#
# Mechanical properties :
#
#
# Convention : Reuss Voigt Hill
#
# Bulk Modulus (GPa) = 51.09796 56.98053 54.03924
# Shear Modulus (GPa) = 154.78052 21.56922 88.17487
#
# Velocity S-wave (km/s) = 8.95925 3.34450 6.76217
# Velocity P-wave (km/s) = 11.55522 6.66813 9.43364
#
# Compressibility (1/GPa) = 0.01957025
#
# Stress axis : x y z
#
# Youngs Moduli (GPa) = 87.14897 99.58830 44.50266
#
# Poissons Ratio (x) = 0.18566 0.32624
# Poissons Ratio (y) = 0.16247 0.13409
# Poissons Ratio (z) = 0.63887 0.30007
#
# Static dielectric constant tensor:
#      x y z
#    x 1.698530 0.000000 0.000000 
#    y 0.000000 1.711290 0.000000 
#    z 0.000000 0.000000 1.672800 
# 
# From -- ./inp_files/53022.got.cif
#   From: 2010.05.17/outbox.cif.g08.bks.cpg/sg65_27_cif.got.tgz:53022.got - 2010.06.03 17:01:31.
