data_PCOD9493261
_publ_section_title
;
Structure prediction by ZEFSAII (Michael W. Deem and Ramdas Pophale) SiO2 
 PCOD9493261
Probable space group: C M M M
;
_chemical_formula_sum "Si O2"
_cell_formula_units_Z 96
_cell_length_a 23.657530
_cell_length_b 22.396307
_cell_length_c 12.591470
_cell_angle_alpha 90.000000
_cell_angle_beta 90.000000
_cell_angle_gamma 90.000000
_cell_volume 6671.480893
_symmetry_space_group_name_H-M "C M M M"
_symmetry_group_IT_number 65
_symmetry_cell_setting 'orthorhombic'
loop_
_space_group_symop_operation_xyz
x,y,z
-x,-y,z
x,-y,-z
-x,y,-z
-x,-y,-z
x,y,-z
-x,y,z
x,-y,z
1/2+x,1/2+y,z
1/2-x,1/2-y,z
1/2+x,1/2-y,-z
1/2-x,1/2+y,-z
1/2-x,1/2-y,-z
1/2+x,1/2+y,-z
1/2-x,1/2+y,z
1/2+x,1/2-y,z
loop_
_atom_site_type_symbol
_atom_site_label
_atom_site_fract_x
_atom_site_fract_y
_atom_site_fract_z
Si Si1 0.762128 0.431764 0.625295
Si Si2 0.229072 0.847150 0.807806
Si Si3 0.065298 0.650122 0.188750
Si Si4 0.898143 0.431792 0.374814
Si Si5 0.751281 0.430369 0.000000
Si Si6 0.112483 0.569849 0.000000
Si Si7 0.836347 0.265543 0.129066
O O1 0.750992 0.424600 0.500000
O O2 0.746271 0.500000 0.655864
O O3 0.733591 0.381128 0.696380
O O4 0.830154 0.427664 0.640200
O O5 0.179631 0.799133 0.824791
O O6 0.286557 0.809997 0.832020
O O7 0.227249 0.897704 0.897284
O O8 0.073809 0.617814 0.301647
O O9 0.087076 0.602235 0.102257
O O10 0.105460 0.706995 0.171089
O O11 0.000000 0.664085 0.170844
O O12 0.909812 0.424137 0.500000
O O13 0.914816 0.500000 0.345491
O O14 0.819596 0.423156 0.000000
O O15 0.739130 0.500000 0.000000
O O16 0.099372 0.500000 0.000000
O O17 0.835339 0.263941 0.000000
#
# Coordination Sequence:
#
# PCOD9493261 Si02
#       7
#    16  16  16  16   8   8  16
#     4   9  17  30  49  72  99 126 151 187 236 285
#     4  11  17  31  49  68  92 120 157 190 229 288
#     4  12  22  33  47  64  89 123 167 204 234 270
#     4   9  18  33  49  65  91 127 164 200 235 269
#     4  11  18  27  49  73  93 116 147 194 242 278
#     4  11  21  31  43  65  95 120 154 197 237 277
#     4  11  20  33  47  65  92 127 159 195 238 278
#
# _framework density 14.389609
#
# number of rings (size 3 to 8) (size 9 to 14) (size 15 to 20)
#    0.000    1.500    5.833    2.750    0.000    4.667 
#    0.000    3.333    0.000    0.000    0.000    0.000 
#    0.000    3.333    0.000    1.833    0.000    0.000 
#
# Total GULP energy -267834.797596 kJ/mol
# GULP energy per Si atom -5579.891617 kJ/mol
# Density = 1.435686 g / cm^3
# Si number density = 14.389609 Si / 1000 Ang^3
#
#
#
# Elastic Constant Matrix: (Units=GPa)
#
#
# Indices 1 2 3 4 5 6 
#
# 1 56.0860 54.9015 20.2392 0.0000 0.0000 0.0000
# 2 54.9015 114.5129 46.9281 0.0000 0.0000 0.0000
# 3 20.2392 46.9281 57.1643 0.0000 0.0000 0.0000
# 4 0.0000 0.0000 0.0000 23.7582 0.0000 0.0000
# 5 0.0000 0.0000 0.0000 0.0000 7.3786 0.0000
# 6 0.0000 0.0000 0.0000 0.0000 0.0000 14.7725
#
#
#
# Elastic Compliance Matrix: (Units=1/GPa)
#
#
# Indices 1 2 3 4 5 6 
#
# 1 0.033750 -0.017005 0.002011 0.000000 0.000000 0.000000
# 2 -0.017005 0.021728 -0.011817 0.000000 0.000000 0.000000
# 3 0.002011 -0.011817 0.026482 0.000000 0.000000 0.000000
# 4 0.000000 0.000000 0.000000 0.042091 0.000000 0.000000
# 5 0.000000 0.000000 0.000000 0.000000 0.135528 0.000000
# 6 0.000000 0.000000 0.000000 0.000000 0.000000 0.067693
#
#
# Mechanical properties :
#
#
# Convention : Reuss Voigt Hill
#
# Bulk Modulus (GPa) = 35.28782 52.43342 43.86062
# Shear Modulus (GPa) = 12.80936 16.22813 14.51875
#
# Velocity S-wave (km/s) = 2.98683 3.36187 3.17988
# Velocity P-wave (km/s) = 6.03914 7.18241 6.63544
#
# Compressibility (1/GPa) = 0.02833839
#
# Stress axis : x y z
#
# Youngs Moduli (GPa) = 29.62970 46.02394 37.76123
#
# Poissons Ratio (x) = 0.78263 -0.07592
# Poissons Ratio (y) = 0.50385 0.44621
# Poissons Ratio (z) = -0.05957 0.54384
#
# Static dielectric constant tensor:
#      x y z
#    x 1.460720 0.000000 0.000000 
#    y 0.000000 1.470240 0.000000 
#    z 0.000000 0.000000 1.491700 
# 
# From -- ./inp_files/29281.got.cif
#   From: 2010.05.17/outbox.cif.g08.bks.cpg/sg65_15_cif.got.tgz:29281.got - 2010.06.03 17:01:31.
