data_PCOD9493420
_publ_section_title
;
Structure prediction by ZEFSAII (Michael W. Deem and Ramdas Pophale) SiO2 
 PCOD9493420
Probable space group: C M M M
;
_chemical_formula_sum "Si O2"
_cell_formula_units_Z 104
_cell_length_a 17.089232
_cell_length_b 29.615938
_cell_length_c 13.483810
_cell_angle_alpha 90.000000
_cell_angle_beta 90.000000
_cell_angle_gamma 90.000000
_cell_volume 6824.340098
_symmetry_space_group_name_H-M "C M M M"
_symmetry_group_IT_number 65
_symmetry_cell_setting 'orthorhombic'
loop_
_space_group_symop_operation_xyz
x,y,z
-x,-y,z
x,-y,-z
-x,y,-z
-x,-y,-z
x,y,-z
-x,y,z
x,-y,z
1/2+x,1/2+y,z
1/2-x,1/2-y,z
1/2+x,1/2-y,-z
1/2-x,1/2+y,-z
1/2-x,1/2-y,-z
1/2+x,1/2+y,-z
1/2-x,1/2+y,z
1/2+x,1/2-y,z
loop_
_atom_site_type_symbol
_atom_site_label
_atom_site_fract_x
_atom_site_fract_y
_atom_site_fract_z
Si Si1 0.406962 0.054289 0.276891
Si Si2 0.193504 0.204863 0.805197
Si Si3 0.672816 0.864522 0.195894
Si Si4 0.411237 0.169856 0.000000
Si Si5 0.590917 0.826915 0.608903
Si Si6 0.590917 0.718009 0.388588
Si Si7 0.409197 0.278302 0.000000
Si Si8 0.905705 0.448536 0.500000
O O1 0.500000 0.064287 0.258640
O O2 0.348357 0.082685 0.208250
O O3 0.386798 0.068918 0.390504
O O4 0.399064 0.000000 0.269475
O O5 0.250000 0.250000 0.806583
O O6 0.242604 0.158502 0.810753
O O7 0.145412 0.204388 0.702486
O O8 0.136915 0.207798 0.900519
O O9 0.635300 0.842974 0.294685
O O10 0.629548 0.847376 0.098424
O O11 0.500000 0.154068 0.000000
O O12 0.409508 0.223921 0.000000
O O13 0.621117 0.841136 0.500000
O O14 0.500000 0.840948 0.614614
O O15 0.592056 0.772541 0.610174
O O16 0.615373 0.703085 0.500000
O O17 0.500000 0.704487 0.373594
O O18 0.500000 0.293396 0.000000
O O19 0.876034 0.500000 0.500000
O O20 0.000000 0.450213 0.500000
#
# Coordination Sequence:
#
# PCOD9493420 Si02
#       8
#    16  16  16   8  16  16   8   8
#     4   9  18  33  50  70  98 134 174 208 240 285
#     4  12  21  33  48  73 102 126 161 212 256 295
#     4  12  22  31  47  70  99 129 162 210 257 293
#     4  11  21  33  48  68  95 131 173 203 238 294
#     4   9  17  28  43  65  92 126 168 202 232 282
#     4   9  18  33  48  63  93 136 170 194 232 295
#     4  11  22  38  56  68  91 134 176 209 244 290
#     4   7  12  26  48  68  89 122 165 211 244 269
#
# _framework density 15.239568999999999
#
# number of rings (size 3 to 8) (size 9 to 14) (size 15 to 20)
#    0.000    1.923    3.077    4.385    1.077    3.385 
#    0.000    0.385    0.000    1.385    0.000    0.000 
#    0.000    3.077    0.000    1.692    0.000    0.000 
#
# Total GULP energy -289718.411081 kJ/mol
# GULP energy per Si atom -5571.507905 kJ/mol
# Density = 1.520488 g / cm^3
# Si number density = 15.239569 Si / 1000 Ang^3
#
#
#
# Elastic Constant Matrix: (Units=GPa)
#
#
# Indices 1 2 3 4 5 6 
#
# 1 80.9566 35.2042 68.5249 0.0000 0.0000 0.0000
# 2 35.2042 62.5523 28.1297 0.0000 0.0000 0.0000
# 3 68.5249 28.1297 132.1333 0.0000 0.0000 0.0000
# 4 0.0000 0.0000 0.0000 24.9251 0.0000 0.0000
# 5 0.0000 0.0000 0.0000 0.0000 49.2469 0.0000
# 6 0.0000 0.0000 0.0000 0.0000 0.0000 23.5525
#
#
#
# Elastic Compliance Matrix: (Units=1/GPa)
#
#
# Indices 1 2 3 4 5 6 
#
# 1 0.026382 -0.009615 -0.011635 0.000000 0.000000 0.000000
# 2 -0.009615 0.021184 0.000477 0.000000 0.000000 0.000000
# 3 -0.011635 0.000477 0.013500 0.000000 0.000000 0.000000
# 4 0.000000 0.000000 0.000000 0.040120 0.000000 0.000000
# 5 0.000000 0.000000 0.000000 0.000000 0.020306 0.000000
# 6 0.000000 0.000000 0.000000 0.000000 0.000000 0.042458
#
#
# Mechanical properties :
#
#
# Convention : Reuss Voigt Hill
#
# Bulk Modulus (GPa) = 51.23136 59.92888 55.58012
# Shear Modulus (GPa) = 23.58461 29.13047 26.35754
#
# Velocity S-wave (km/s) = 3.93821 4.37682 4.16329
# Velocity P-wave (km/s) = 7.37358 8.05928 7.72404
#
# Compressibility (1/GPa) = 0.01951929
#
# Stress axis : x y z
#
# Youngs Moduli (GPa) = 37.90528 47.20610 74.07215
#
# Poissons Ratio (x) = 0.45390 0.86180
# Poissons Ratio (y) = 0.36447 -0.03532
# Poissons Ratio (z) = 0.44101 -0.02251
#
# Static dielectric constant tensor:
#      x y z
#    x 1.511160 0.000000 0.000000 
#    y 0.000000 1.536120 0.000000 
#    z 0.000000 0.000000 1.518510 
# 
# From -- ./inp_files/27559.got.cif
#   From: 2010.05.17/outbox.cif.g08.bks.cpg/sg65_14_cif.got.tgz:27559.got - 2010.06.03 17:01:31.
