data_PCOD9493257
_publ_section_title
;
Structure prediction by ZEFSAII (Michael W. Deem and Ramdas Pophale) SiO2 
 PCOD9493257
Probable space group: C M M M
;
_chemical_formula_sum "Si O2"
_cell_formula_units_Z 70
_cell_length_a 13.653977
_cell_length_b 27.864776
_cell_length_c 10.076417
_cell_angle_alpha 90.000000
_cell_angle_beta 90.000000
_cell_angle_gamma 90.000000
_cell_volume 3833.724101
_symmetry_space_group_name_H-M "C M M M"
_symmetry_group_IT_number 65
_symmetry_cell_setting 'orthorhombic'
loop_
_space_group_symop_operation_xyz
x,y,z
-x,-y,z
x,-y,-z
-x,y,-z
-x,-y,-z
x,y,-z
-x,y,z
x,-y,z
1/2+x,1/2+y,z
1/2-x,1/2-y,z
1/2+x,1/2-y,-z
1/2-x,1/2+y,-z
1/2-x,1/2-y,-z
1/2+x,1/2+y,-z
1/2-x,1/2+y,z
1/2+x,1/2-y,z
loop_
_atom_site_type_symbol
_atom_site_label
_atom_site_fract_x
_atom_site_fract_y
_atom_site_fract_z
Si Si1 0.500000 0.164317 0.653802
Si Si2 0.000000 0.000000 0.500000
Si Si3 0.304115 0.108826 0.737521
Si Si4 0.792011 0.202428 0.150430
Si Si5 0.384203 0.057579 0.000000
Si Si6 0.665632 0.416107 0.500000
Si Si7 0.500000 0.729222 0.233253
Si Si8 0.500000 0.333927 0.500000
O O1 0.500000 0.178913 0.500000
O O2 0.404412 0.132020 0.681848
O O3 0.500000 0.213349 0.740419
O O4 0.086512 0.958287 0.500000
O O5 0.239097 0.154070 0.781035
O O6 0.238517 0.082614 0.626865
O O7 0.333139 0.078197 0.867361
O O8 0.750000 0.250000 0.219841
O O9 0.906060 0.211868 0.153998
O O10 0.753062 0.200202 0.000000
O O11 0.500000 0.071453 0.000000
O O12 0.378818 0.000000 0.000000
O O13 0.597616 0.367658 0.500000
O O14 0.500000 0.700407 0.372010
#
# Coordination Sequence:
#
# PCOD9493257 Si02
#       8
#     8   2  16  16   8   8   8   4
#     4  12  24  37  60 102 140 169 218 268 320 389
#     4  10  28  52  68 104 124 168 212 294 342 398
#     4  12  23  42  68  96 133 177 215 273 332 398
#     4  11  23  37  58  91 130 180 226 265 317 388
#     4  11  26  46  69  96 130 168 216 278 353 416
#     4  11  25  44  71  94 131 167 228 272 337 394
#     4  12  22  36  57  90 138 181 220 266 318 385
#     4  11  22  37  60  90 126 176 217 262 321 380
#
# _framework density 18.259008999999999
#
# number of rings (size 3 to 8) (size 9 to 14) (size 15 to 20)
#    0.000    0.571    8.571    0.343    1.600    0.000 
#    2.057    3.429    0.000    3.429    0.000    0.000 
#    0.000    0.000    0.000    0.000    0.000    0.000 
#
# Total GULP energy -195084.318582 kJ/mol
# GULP energy per Si atom -5573.837674 kJ/mol
# Density = 1.821745 g / cm^3
# Si number density = 18.259009 Si / 1000 Ang^3
#
#
#
# Elastic Constant Matrix: (Units=GPa)
#
#
# Indices 1 2 3 4 5 6 
#
# 1 149.2006 56.9326 39.7186 0.0000 0.0000 0.0000
# 2 56.9326 107.8619 46.8614 0.0000 0.0000 0.0000
# 3 39.7186 46.8614 108.4519 0.0000 0.0000 0.0000
# 4 0.0000 0.0000 0.0000 10.6698 0.0000 0.0000
# 5 0.0000 0.0000 0.0000 0.0000 42.0436 0.0000
# 6 0.0000 0.0000 0.0000 0.0000 0.0000 32.5504
#
#
#
# Elastic Compliance Matrix: (Units=1/GPa)
#
#
# Indices 1 2 3 4 5 6 
#
# 1 0.008576 -0.003893 -0.001459 0.000000 0.000000 0.000000
# 2 -0.003893 0.013181 -0.004270 0.000000 0.000000 0.000000
# 3 -0.001459 -0.004270 0.011600 0.000000 0.000000 0.000000
# 4 0.000000 0.000000 0.000000 0.093722 0.000000 0.000000
# 5 0.000000 0.000000 0.000000 0.000000 0.023785 0.000000
# 6 0.000000 0.000000 0.000000 0.000000 0.000000 0.030722
#
#
# Mechanical properties :
#
#
# Convention : Reuss Voigt Hill
#
# Bulk Modulus (GPa) = 70.85090 72.50440 71.67765
# Shear Modulus (GPa) = 24.32699 31.85289 28.08994
#
# Velocity S-wave (km/s) = 3.65407 4.18126 3.92652
# Velocity P-wave (km/s) = 7.52930 7.94390 7.73938
#
# Compressibility (1/GPa) = 0.01411415
#
# Stress axis : x y z
#
# Youngs Moduli (GPa) = 116.60136 75.86715 86.20832
#
# Poissons Ratio (x) = 0.29535 0.12576
# Poissons Ratio (y) = 0.45393 0.36808
# Poissons Ratio (z) = 0.17009 0.32393
#
# Static dielectric constant tensor:
#      x y z
#    x 1.540930 0.000000 0.000000 
#    y 0.000000 1.610570 0.000000 
#    z 0.000000 0.000000 1.639810 
# 
# From -- ./inp_files/7491.got.cif
#   From: 2010.05.17/outbox.cif.g08.bks.cpg/sg65_4_cif.got.tgz:7491.got - 2010.06.03 17:01:31.
