data_PCOD9493963
_publ_section_title
;
Structure prediction by ZEFSAII (Michael W. Deem and Ramdas Pophale) SiO2 
 PCOD9493963
Probable space group: C M M M
;
_chemical_formula_sum "Si O2"
_cell_formula_units_Z 88
_cell_length_a 17.533997
_cell_length_b 9.541088
_cell_length_c 27.399084
_cell_angle_alpha 90.000000
_cell_angle_beta 90.000000
_cell_angle_gamma 90.000000
_cell_volume 4583.686149
_symmetry_space_group_name_H-M "C M M M"
_symmetry_group_IT_number 65
_symmetry_cell_setting 'orthorhombic'
loop_
_space_group_symop_operation_xyz
x,y,z
-x,-y,z
x,-y,-z
-x,y,-z
-x,-y,-z
x,y,-z
-x,y,z
x,-y,z
1/2+x,1/2+y,z
1/2-x,1/2-y,z
1/2+x,1/2-y,-z
1/2-x,1/2+y,-z
1/2-x,1/2-y,-z
1/2+x,1/2+y,-z
1/2-x,1/2+y,z
1/2+x,1/2-y,z
loop_
_atom_site_type_symbol
_atom_site_label
_atom_site_fract_x
_atom_site_fract_y
_atom_site_fract_z
Si Si1 0.876225 0.000000 0.441513
Si Si2 0.407868 0.836717 0.086168
Si Si3 0.414369 0.784615 0.391158
Si Si4 0.087190 0.669764 0.803707
Si Si5 0.671893 0.169248 0.294096
Si Si6 0.804859 0.500000 0.557817
Si Si7 0.669552 0.330609 0.000000
O O1 0.911003 0.866202 0.415466
O O2 0.888461 0.000000 0.500000
O O3 0.784928 0.000000 0.432384
O O4 0.500000 0.835852 0.083989
O O5 0.386376 0.795148 0.141576
O O6 0.384279 0.000000 0.076896
O O7 0.374504 0.729719 0.047195
O O8 0.500000 0.841046 0.397069
O O9 0.390306 0.789902 0.334703
O O10 0.348802 0.870239 0.418849
O O11 0.083942 0.500000 0.802717
O O12 0.141073 0.711499 0.759291
O O13 0.000000 0.720069 0.796710
O O14 0.750000 0.250000 0.304957
O O15 0.682232 0.000000 0.296014
O O16 0.815125 0.500000 0.500000
O O17 0.750000 0.250000 0.000000
O O18 0.675681 0.500000 0.000000
#
# Coordination Sequence:
#
# PCOD9493963 Si02
#       7
#     8  16  16  16  16   8   8
#     4  11  25  45  65  89 123 161 193 240 309 368
#     4   9  18  36  62  89 118 157 200 244 298 364
#     4  12  25  40  63  91 121 158 201 250 297 353
#     4   8  16  34  61  89 118 153 197 245 294 353
#     4  11  23  39  62  89 122 160 201 247 299 358
#     4  11  23  41  65  91 121 157 201 244 293 358
#     4  12  25  38  55  81 119 161 203 256 307 358
#
# _framework density 19.198522000000001
#
# number of rings (size 3 to 8) (size 9 to 14) (size 15 to 20)
#    0.000    1.636    0.909    5.455    1.273    6.545 
#    0.000    2.727    0.000    1.091    0.000    0.000 
#    0.000    0.000    0.000    0.000    0.000    0.000 
#
# Total GULP energy -245694.608113 kJ/mol
# GULP energy per Si atom -5583.968366 kJ/mol
# Density = 1.915482 g / cm^3
# Si number density = 19.198522 Si / 1000 Ang^3
#
#
#
# Elastic Constant Matrix: (Units=GPa)
#
#
# Indices 1 2 3 4 5 6 
#
# 1 79.0119 28.9546 53.8209 0.0000 0.0000 0.0000
# 2 28.9546 109.2583 48.0723 0.0000 0.0000 0.0000
# 3 53.8209 48.0723 117.4280 0.0000 0.0000 0.0000
# 4 0.0000 0.0000 0.0000 19.2646 0.0000 0.0000
# 5 0.0000 0.0000 0.0000 0.0000 21.7144 0.0000
# 6 0.0000 0.0000 0.0000 0.0000 0.0000 9.3419
#
#
#
# Elastic Compliance Matrix: (Units=1/GPa)
#
#
# Indices 1 2 3 4 5 6 
#
# 1 0.018584 -0.001436 -0.007930 0.000000 0.000000 0.000000
# 2 -0.001436 0.011274 -0.003957 0.000000 0.000000 0.000000
# 3 -0.007930 -0.003957 0.013770 0.000000 0.000000 0.000000
# 4 0.000000 0.000000 0.000000 0.051909 0.000000 0.000000
# 5 0.000000 0.000000 0.000000 0.000000 0.046052 0.000000
# 6 0.000000 0.000000 0.000000 0.000000 0.000000 0.107044
#
#
# Mechanical properties :
#
#
# Convention : Reuss Voigt Hill
#
# Bulk Modulus (GPa) = 58.88364 63.04376 60.96370
# Shear Modulus (GPa) = 17.79733 21.72089 19.75911
#
# Velocity S-wave (km/s) = 3.04800 3.36725 3.21159
# Velocity P-wave (km/s) = 6.56693 6.93015 6.75098
#
# Compressibility (1/GPa) = 0.01698265
#
# Stress axis : x y z
#
# Youngs Moduli (GPa) = 53.80927 88.69702 72.61959
#
# Poissons Ratio (x) = 0.12736 0.57586
# Poissons Ratio (y) = 0.07727 0.28738
# Poissons Ratio (z) = 0.42670 0.35100
#
# Static dielectric constant tensor:
#      x y z
#    x 1.659450 0.000000 0.000000 
#    y 0.000000 1.606110 0.000000 
#    z 0.000000 0.000000 1.676970 
# 
# From -- ./inp_files/78008.got.cif
#   From: 2010.05.17/outbox.cif.g08.bks.cpg/sg65_40_cif.got.tgz:78008.got - 2010.06.03 17:01:31.
