data_PCOD9493389
_publ_section_title
;
Structure prediction by ZEFSAII (Michael W. Deem and Ramdas Pophale) SiO2 
 PCOD9493389
Probable space group: C M M M
;
_chemical_formula_sum "Si O2"
_cell_formula_units_Z 64
_cell_length_a 15.372879
_cell_length_b 8.725365
_cell_length_c 22.374301
_cell_angle_alpha 90.000000
_cell_angle_beta 90.000000
_cell_angle_gamma 90.000000
_cell_volume 3001.154051
_symmetry_space_group_name_H-M "C M M M"
_symmetry_group_IT_number 65
_symmetry_cell_setting 'orthorhombic'
loop_
_space_group_symop_operation_xyz
x,y,z
-x,-y,z
x,-y,-z
-x,y,-z
-x,-y,-z
x,y,-z
-x,y,z
x,-y,z
1/2+x,1/2+y,z
1/2-x,1/2-y,z
1/2+x,1/2-y,-z
1/2-x,1/2+y,-z
1/2-x,1/2-y,-z
1/2+x,1/2+y,-z
1/2-x,1/2+y,z
1/2+x,1/2-y,z
loop_
_atom_site_type_symbol
_atom_site_label
_atom_site_fract_x
_atom_site_fract_y
_atom_site_fract_z
Si Si1 0.103552 0.826929 0.128169
Si Si2 0.348919 0.315946 0.370710
Si Si3 0.151750 0.815101 0.500000
Si Si4 0.346540 0.819333 0.749450
Si Si5 0.600607 0.687588 0.000000
O O1 0.115858 0.726250 0.186558
O O2 0.139194 0.767005 0.064376
O O3 0.000000 0.840424 0.119313
O O4 0.137858 0.000000 0.139419
O O5 0.345966 0.500000 0.366685
O O6 0.250000 0.250000 0.371998
O O7 0.387988 0.271902 0.435580
O O8 0.390105 0.252005 0.309897
O O9 0.250000 0.750000 0.500000
O O10 0.156535 0.000000 0.500000
O O11 0.250000 0.750000 0.750963
O O12 0.343930 0.000000 0.742225
O O13 0.600288 0.500000 0.000000
O O14 0.500000 0.740963 0.000000
#
# Coordination Sequence:
#
# PCOD9493389 Si02
#       5
#    16  16   8  16   8
#     4   9  17  32  54  76  96 120 152 190 233 281
#     4   9  15  25  40  60  87 118 152 189 232 276
#     4   8  14  22  36  58  83 112 147 188 229 273
#     4  11  21  32  46  67  97 130 162 194 232 276
#     4   7  12  26  50  75  94 115 147 187 230 277
#
# _framework density 21.325130000000001
#
# number of rings (size 3 to 8) (size 9 to 14) (size 15 to 20)
#    0.000    2.875    0.000    6.000    0.000    1.500 
#    0.000    1.250    0.000    2.250    0.000    0.875 
#    0.000    7.000    0.000    0.000    0.000    0.000 
#
# Total GULP energy -178186.883455 kJ/mol
# GULP energy per Si atom -5568.340108 kJ/mol
# Density = 2.127659 g / cm^3
# Si number density = 21.325130 Si / 1000 Ang^3
#
#
#
# Elastic Constant Matrix: (Units=GPa)
#
#
# Indices 1 2 3 4 5 6 
#
# 1 27.3447 1.4035 16.2297 0.0000 0.0000 0.0000
# 2 1.4035 88.1562 69.3165 0.0000 0.0000 0.0000
# 3 16.2297 69.3165 260.0389 0.0000 0.0000 0.0000
# 4 0.0000 0.0000 0.0000 -12.5555 0.0000 0.0000
# 5 0.0000 0.0000 0.0000 0.0000 13.0682 0.0000
# 6 0.0000 0.0000 0.0000 0.0000 0.0000 6.8357
#
#
#
# Elastic Compliance Matrix: (Units=1/GPa)
#
#
# Indices 1 2 3 4 5 6 
#
# 1 0.038155 0.001600 -0.002808 0.000000 0.000000 0.000000
# 2 0.001600 0.014419 -0.003943 0.000000 0.000000 0.000000
# 3 -0.002808 -0.003943 0.005072 0.000000 0.000000 0.000000
# 4 0.000000 0.000000 0.000000 -0.079647 0.000000 0.000000
# 5 0.000000 0.000000 0.000000 0.000000 0.076521 0.000000
# 6 0.000000 0.000000 0.000000 0.000000 0.000000 0.146292
#
#
# Mechanical properties :
#
#
# Convention : Reuss Voigt Hill
#
# Bulk Modulus (GPa) = 21.12225 61.04879 41.08552
# Shear Modulus (GPa) = 22.03665 20.70902 21.37284
#
# Velocity S-wave (km/s) = 3.21809 3.11964 3.16925
# Velocity P-wave (km/s) = 4.87181 6.45492 5.71841
#
# Compressibility (1/GPa) = 0.04734344
#
# Stress axis : x y z
#
# Youngs Moduli (GPa) = 26.20920 69.35461 197.16178
#
# Poissons Ratio (x) = -0.11100 0.55362
# Poissons Ratio (y) = -0.04195 0.77748
# Poissons Ratio (z) = 0.07359 0.27349
#
# Static dielectric constant tensor:
#      x y z
#    x 1.822130 0.000000 0.000000 
#    y 0.000000 1.726710 0.000000 
#    z 0.000000 0.000000 1.908530 
# 
# From -- ./inp_files/59471.got.cif
#   From: 2010.05.17/outbox.cif.g08.bks.cpg/sg65_30_cif.got.tgz:59471.got - 2010.06.03 17:01:31.
