data_PCOD9493955
_publ_section_title
;
Structure prediction by ZEFSAII (Michael W. Deem and Ramdas Pophale) SiO2 
 PCOD9493955
Probable space group: C M M M
;
_chemical_formula_sum "Si O2"
_cell_formula_units_Z 64
_cell_length_a 8.365172
_cell_length_b 14.970773
_cell_length_c 26.325738
_cell_angle_alpha 90.000000
_cell_angle_beta 90.000000
_cell_angle_gamma 90.000000
_cell_volume 3296.853546
_symmetry_space_group_name_H-M "C M M M"
_symmetry_group_IT_number 65
_symmetry_cell_setting 'orthorhombic'
loop_
_space_group_symop_operation_xyz
x,y,z
-x,-y,z
x,-y,-z
-x,y,-z
-x,-y,-z
x,y,-z
-x,y,z
x,-y,z
1/2+x,1/2+y,z
1/2-x,1/2-y,z
1/2+x,1/2-y,-z
1/2-x,1/2+y,-z
1/2-x,1/2-y,-z
1/2+x,1/2+y,-z
1/2-x,1/2+y,z
1/2+x,1/2-y,z
loop_
_atom_site_type_symbol
_atom_site_label
_atom_site_fract_x
_atom_site_fract_y
_atom_site_fract_z
Si Si1 0.684819 0.000000 0.690976
Si Si2 0.309547 0.500000 0.421756
Si Si3 0.500000 0.890571 0.059053
Si Si4 0.811287 0.150654 0.764468
Si Si5 0.318630 0.392901 0.882793
Si Si6 0.193267 0.148321 0.500000
O O1 0.727130 0.084221 0.725916
O O2 0.500000 0.000000 0.678730
O O3 0.773597 0.000000 0.637431
O O4 0.500000 0.500000 0.428221
O O5 0.252248 0.411152 0.451508
O O6 0.335024 0.859535 0.085736
O O7 0.500000 0.000000 0.062213
O O8 0.500000 0.866092 0.000000
O O9 0.750000 0.250000 0.756869
O O10 0.785204 0.124796 0.823405
O O11 0.000000 0.144478 0.755583
O O12 0.500000 0.359118 0.894693
O O13 0.324601 0.500000 0.890187
O O14 0.250000 0.250000 0.500000
O O15 0.000000 0.150952 0.500000
#
# Coordination Sequence:
#
# PCOD9493955 Si02
#       6
#     8   8   8  16  16   8
#     4  12  25  39  61  90 126 163 201 254 312 361
#     4   9  20  40  60  84 122 164 201 247 305 360
#     4   9  18  30  52  84 114 147 191 245 305 359
#     4  11  23  39  60  88 117 156 204 251 305 370
#     4   9  18  33  55  80 111 151 193 242 304 367
#     4   9  19  37  64  90 116 161 209 249 299 354
#
# _framework density 19.412448000000001
#
# number of rings (size 3 to 8) (size 9 to 14) (size 15 to 20)
#    0.000    2.125    1.250    2.625    3.500    2.500 
#    0.000    6.250    0.000    0.750    0.000    0.000 
#    0.000    0.000    0.000    0.000    0.000    0.000 
#
# Total GULP energy -178627.787708 kJ/mol
# GULP energy per Si atom -5582.118366 kJ/mol
# Density = 1.936826 g / cm^3
# Si number density = 19.412448 Si / 1000 Ang^3
#
#
#
# Elastic Constant Matrix: (Units=GPa)
#
#
# Indices 1 2 3 4 5 6 
#
# 1 63.0324 46.6275 56.4514 0.0000 0.0000 0.0000
# 2 46.6275 83.4157 35.2073 0.0000 0.0000 0.0000
# 3 56.4514 35.2073 97.6205 0.0000 0.0000 0.0000
# 4 0.0000 0.0000 0.0000 -43.4443 0.0000 0.0000
# 5 0.0000 0.0000 0.0000 0.0000 27.6237 0.0000
# 6 0.0000 0.0000 0.0000 0.0000 0.0000 26.9164
#
#
#
# Elastic Compliance Matrix: (Units=1/GPa)
#
#
# Indices 1 2 3 4 5 6 
#
# 1 0.048471 -0.018004 -0.021536 0.000000 0.000000 0.000000
# 2 -0.018004 0.020828 0.002900 0.000000 0.000000 0.000000
# 3 -0.021536 0.002900 0.021652 0.000000 0.000000 0.000000
# 4 0.000000 0.000000 0.000000 -0.023018 0.000000 0.000000
# 5 0.000000 0.000000 0.000000 0.000000 0.036201 0.000000
# 6 0.000000 0.000000 0.000000 0.000000 0.000000 0.037152
#
#
# Mechanical properties :
#
#
# Convention : Reuss Voigt Hill
#
# Bulk Modulus (GPa) = 56.59534 57.84899 57.22216
# Shear Modulus (GPa) = 22.68008 9.27134 15.97571
#
# Velocity S-wave (km/s) = 3.42179 2.18777 2.87184
# Velocity P-wave (km/s) = 6.69544 6.02050 6.36692
#
# Compressibility (1/GPa) = 0.01766930
#
# Stress axis : x y z
#
# Youngs Moduli (GPa) = 20.63086 48.01141 46.18557
#
# Poissons Ratio (x) = 0.86442 0.99466
# Poissons Ratio (y) = 0.37145 -0.13392
# Poissons Ratio (z) = 0.44431 -0.13922
#
# Static dielectric constant tensor:
#      x y z
#    x 1.687640 0.000000 0.000000 
#    y 0.000000 1.673700 0.000000 
#    z 0.000000 0.000000 1.640910 
# 
# From -- ./inp_files/66884.got.cif
#   From: 2010.05.17/outbox.cif.g08.bks.cpg/sg65_34_cif.got.tgz:66884.got - 2010.06.03 17:01:31.
