data_PCOD9493722
_publ_section_title
;
Structure prediction by ZEFSAII (Michael W. Deem and Ramdas Pophale) SiO2 
 PCOD9493722
Probable space group: C M M M
;
_chemical_formula_sum "Si O2"
_cell_formula_units_Z 100
_cell_length_a 23.724661
_cell_length_b 23.999491
_cell_length_c 7.500812
_cell_angle_alpha 90.000000
_cell_angle_beta 90.000000
_cell_angle_gamma 90.000000
_cell_volume 4270.810747
_symmetry_space_group_name_H-M "C M M M"
_symmetry_group_IT_number 65
_symmetry_cell_setting 'orthorhombic'
loop_
_space_group_symop_operation_xyz
x,y,z
-x,-y,z
x,-y,-z
-x,y,-z
-x,-y,-z
x,y,-z
-x,y,z
x,-y,z
1/2+x,1/2+y,z
1/2-x,1/2-y,z
1/2+x,1/2-y,-z
1/2-x,1/2+y,-z
1/2-x,1/2-y,-z
1/2+x,1/2+y,-z
1/2-x,1/2+y,z
1/2+x,1/2-y,z
loop_
_atom_site_type_symbol
_atom_site_label
_atom_site_fract_x
_atom_site_fract_y
_atom_site_fract_z
Si Si1 0.129443 0.728747 0.713654
Si Si2 0.666538 0.408109 0.702483
Si Si3 0.758191 0.329361 0.800672
Si Si4 0.327243 0.060328 0.283809
Si Si5 0.935506 0.837934 0.282944
Si Si6 0.436553 0.881841 0.716898
Si Si7 0.695834 0.500000 0.000000
O O1 0.125450 0.729265 0.500000
O O2 0.195665 0.717423 0.750249
O O3 0.098149 0.783451 0.782057
O O4 0.093185 0.675384 0.776279
O O5 0.667511 0.429815 0.500000
O O6 0.702966 0.350263 0.697870
O O7 0.603386 0.390869 0.757785
O O8 0.690818 0.451029 0.843599
O O9 0.795263 0.386304 0.788945
O O10 0.739679 0.318572 0.000000
O O11 0.321006 0.061965 0.500000
O O12 0.392832 0.069393 0.239652
O O13 0.307896 0.000000 0.217970
O O14 0.936900 0.834821 0.500000
O O15 0.000000 0.839931 0.221503
O O16 0.438589 0.879741 0.500000
O O17 0.500000 0.887903 0.781635
#
# Coordination Sequence:
#
# PCOD9493722 Si02
#       7
#    16  16  16  16  16  16   4
#     4   9  17  33  59  90 123 163 210 259 321 387
#     4  11  24  44  70 100 135 172 218 276 333 397
#     4  11  22  37  55  86 128 166 216 268 320 390
#     4   9  18  30  47  73 103 145 201 259 322 381
#     4   9  19  39  69 101 131 168 217 273 333 399
#     4   8  13  23  43  73 107 142 189 251 311 372
#     4  12  26  48  69 102 132 172 225 264 338 410
#
# _framework density 23.414756000000001
#
# number of rings (size 3 to 8) (size 9 to 14) (size 15 to 20)
#    0.000    2.400    0.800    3.120    1.120    3.200 
#    1.440    6.000    0.000   13.440    0.000    4.480 
#    0.000    0.000    0.000    0.000    0.000    0.000 
#
# Total GULP energy -278824.425066 kJ/mol
# GULP energy per Si atom -5576.488501 kJ/mol
# Density = 2.336146 g / cm^3
# Si number density = 23.414756 Si / 1000 Ang^3
#
#
#
# Elastic Constant Matrix: (Units=GPa)
#
#
# Indices 1 2 3 4 5 6 
#
# 1 166.8554 38.5732 2.6220 0.0000 0.0000 0.0000
# 2 38.5732 76.8547 21.0409 0.0000 0.0000 0.0000
# 3 2.6220 21.0409 97.2677 0.0000 0.0000 0.0000
# 4 0.0000 0.0000 0.0000 7.4294 0.0000 0.0000
# 5 0.0000 0.0000 0.0000 0.0000 23.7447 0.0000
# 6 0.0000 0.0000 0.0000 0.0000 0.0000 19.3400
#
#
#
# Elastic Compliance Matrix: (Units=1/GPa)
#
#
# Indices 1 2 3 4 5 6 
#
# 1 0.006812 -0.003581 0.000591 0.000000 0.000000 0.000000
# 2 -0.003581 0.015713 -0.003302 0.000000 0.000000 0.000000
# 3 0.000591 -0.003302 0.010979 0.000000 0.000000 0.000000
# 4 0.000000 0.000000 0.000000 0.134601 0.000000 0.000000
# 5 0.000000 0.000000 0.000000 0.000000 0.042115 0.000000
# 6 0.000000 0.000000 0.000000 0.000000 0.000000 0.051706
#
#
# Mechanical properties :
#
#
# Convention : Reuss Voigt Hill
#
# Bulk Modulus (GPa) = 47.80200 51.71669 49.75934
# Shear Modulus (GPa) = 17.76309 28.68560 23.22434
#
# Velocity S-wave (km/s) = 2.75731 3.50395 3.15281
# Velocity P-wave (km/s) = 5.53142 6.20527 5.87801
#
# Compressibility (1/GPa) = 0.02091963
#
# Stress axis : x y z
#
# Youngs Moduli (GPa) = 146.80690 63.64256 91.07994
#
# Poissons Ratio (x) = 0.22787 -0.05382
# Poissons Ratio (y) = 0.52565 0.30079
# Poissons Ratio (z) = -0.08675 0.21018
#
# Static dielectric constant tensor:
#      x y z
#    x 1.900120 0.000000 0.000000 
#    y 0.000000 1.885890 0.000000 
#    z 0.000000 0.000000 1.895600 
# 
# From -- ./inp_files/12445.got.cif
#   From: 2010.05.17/outbox.cif.g08.bks.cpg/sg65_7_cif.got.tgz:12445.got - 2010.06.03 17:01:31.
