data_PCOD9493446
_publ_section_title
;
Structure prediction by ZEFSAII (Michael W. Deem and Ramdas Pophale) SiO2 
 PCOD9493446
Probable space group: C M M M
;
_chemical_formula_sum "Si O2"
_cell_formula_units_Z 96
_cell_length_a 29.873060
_cell_length_b 8.123431
_cell_length_c 21.343289
_cell_angle_alpha 90.000000
_cell_angle_beta 90.000000
_cell_angle_gamma 90.000000
_cell_volume 5179.413115
_symmetry_space_group_name_H-M "C M M M"
_symmetry_group_IT_number 65
_symmetry_cell_setting 'orthorhombic'
loop_
_space_group_symop_operation_xyz
x,y,z
-x,-y,z
x,-y,-z
-x,y,-z
-x,-y,-z
x,y,-z
-x,y,z
x,-y,z
1/2+x,1/2+y,z
1/2-x,1/2-y,z
1/2+x,1/2-y,-z
1/2-x,1/2+y,-z
1/2-x,1/2-y,-z
1/2+x,1/2+y,-z
1/2-x,1/2+y,z
1/2+x,1/2-y,z
loop_
_atom_site_type_symbol
_atom_site_label
_atom_site_fract_x
_atom_site_fract_y
_atom_site_fract_z
Si Si1 0.950472 0.698358 0.736473
Si Si2 0.855002 0.298502 0.930949
Si Si3 0.699143 0.300951 0.570781
Si Si4 0.698770 0.196169 0.809487
Si Si5 0.450462 0.799434 0.117389
Si Si6 0.142932 0.195793 0.311902
O O1 0.950096 0.500000 0.736137
O O2 0.944856 0.747739 0.809511
O O3 0.908687 0.757416 0.696676
O O4 0.000000 0.753776 0.715981
O O5 0.854768 0.500000 0.929740
O O6 0.824692 0.240245 0.873171
O O7 0.906496 0.246197 0.919578
O O8 0.839726 0.246781 0.000000
O O9 0.688861 0.242968 0.500000
O O10 0.697481 0.500000 0.570058
O O11 0.750000 0.250000 0.585617
O O12 0.665997 0.239179 0.624717
O O13 0.750000 0.250000 0.804191
O O14 0.670235 0.246122 0.748952
O O15 0.697736 0.000000 0.812699
O O16 0.500000 0.744742 0.096158
O O17 0.450894 0.000000 0.115343
O O18 0.146183 0.000000 0.313525
#
# Coordination Sequence:
#
# PCOD9493446 Si02
#       6
#    16  16  16  16  16  16
#     4   9  17  31  52  77 105 137 171 209 254 299
#     4   9  17  29  46  69  97 130 167 209 256 304
#     4   9  19  35  53  76 106 137 169 207 251 301
#     4  11  22  36  52  72 100 132 170 217 260 304
#     4   8  13  24  44  70  97 124 157 199 249 300
#     4  11  21  33  54  81 106 134 169 208 253 305
#
# _framework density 18.534918999999999
#
# number of rings (size 3 to 8) (size 9 to 14) (size 15 to 20)
#    0.000    2.500    1.667    2.500    0.000    3.667 
#    0.000    1.667    0.000    2.000    0.000    3.500 
#    0.000    2.667    0.000    0.000    0.000    0.000 
#
# Total GULP energy -267735.862400 kJ/mol
# GULP energy per Si atom -5577.830467 kJ/mol
# Density = 1.849273 g / cm^3
# Si number density = 18.534919 Si / 1000 Ang^3
#
#
#
# Elastic Constant Matrix: (Units=GPa)
#
#
# Indices 1 2 3 4 5 6 
#
# 1 141.9683 11.6564 85.3725 0.0000 0.0000 0.0000
# 2 11.6564 14.2697 13.8850 0.0000 0.0000 0.0000
# 3 85.3725 13.8850 125.2405 0.0000 0.0000 0.0000
# 4 0.0000 0.0000 0.0000 10.7163 0.0000 0.0000
# 5 0.0000 0.0000 0.0000 0.0000 27.6768 0.0000
# 6 0.0000 0.0000 0.0000 0.0000 0.0000 20.0994
#
#
#
# Elastic Compliance Matrix: (Units=1/GPa)
#
#
# Indices 1 2 3 4 5 6 
#
# 1 0.011991 -0.002064 -0.007945 0.000000 0.000000 0.000000
# 2 -0.002064 0.078908 -0.007341 0.000000 0.000000 0.000000
# 3 -0.007945 -0.007341 0.014214 0.000000 0.000000 0.000000
# 4 0.000000 0.000000 0.000000 0.093316 0.000000 0.000000
# 5 0.000000 0.000000 0.000000 0.000000 0.036131 0.000000
# 6 0.000000 0.000000 0.000000 0.000000 0.000000 0.049753
#
#
# Mechanical properties :
#
#
# Convention : Reuss Voigt Hill
#
# Bulk Modulus (GPa) = 14.20202 55.92293 35.06247
# Shear Modulus (GPa) = 14.59918 23.06947 18.83432
#
# Velocity S-wave (km/s) = 2.80957 3.53179 3.19117
# Velocity P-wave (km/s) = 4.26660 6.84606 5.70405
#
# Compressibility (1/GPa) = 0.07041254
#
# Stress axis : x y z
#
# Youngs Moduli (GPa) = 83.39530 12.67300 70.35097
#
# Poissons Ratio (x) = 0.02616 0.55894
# Poissons Ratio (y) = 0.17215 0.51646
# Poissons Ratio (z) = 0.66258 0.09303
#
# Static dielectric constant tensor:
#      x y z
#    x 1.626780 0.000000 0.000000 
#    y 0.000000 1.665660 0.000000 
#    z 0.000000 0.000000 1.646930 
# 
# From -- ./inp_files/65775.got.cif
#   From: 2010.05.17/outbox.cif.g08.bks.cpg/sg65_33_cif.got.tgz:65775.got - 2010.06.03 17:01:31.
