data_PCOD9493677
_publ_section_title
;
Structure prediction by ZEFSAII (Michael W. Deem and Ramdas Pophale) SiO2 
 PCOD9493677
Probable space group: C M M M
;
_chemical_formula_sum "Si O2"
_cell_formula_units_Z 104
_cell_length_a 30.461190
_cell_length_b 9.273464
_cell_length_c 23.489363
_cell_angle_alpha 90.000000
_cell_angle_beta 90.000000
_cell_angle_gamma 90.000000
_cell_volume 6635.292851
_symmetry_space_group_name_H-M "C M M M"
_symmetry_group_IT_number 65
_symmetry_cell_setting 'orthorhombic'
loop_
_space_group_symop_operation_xyz
x,y,z
-x,-y,z
x,-y,-z
-x,y,-z
-x,-y,-z
x,y,-z
-x,y,z
x,-y,z
1/2+x,1/2+y,z
1/2-x,1/2-y,z
1/2+x,1/2-y,-z
1/2-x,1/2+y,-z
1/2-x,1/2-y,-z
1/2+x,1/2+y,-z
1/2-x,1/2+y,z
1/2+x,1/2-y,z
loop_
_atom_site_type_symbol
_atom_site_label
_atom_site_fract_x
_atom_site_fract_y
_atom_site_fract_z
Si Si1 0.621379 0.332015 0.273939
Si Si2 0.551066 0.673605 0.178144
Si Si3 0.415751 0.337633 0.599148
Si Si4 0.294273 0.826606 0.319189
Si Si5 0.446823 0.167226 0.062944
Si Si6 0.500000 0.159406 0.567950
Si Si7 0.318018 0.672011 0.564160
O O1 0.634394 0.500000 0.263215
O O2 0.586456 0.285126 0.226150
O O3 0.596625 0.331845 0.334473
O O4 0.664022 0.233167 0.283739
O O5 0.500000 0.718104 0.190097
O O6 0.550812 0.500000 0.175333
O O7 0.565193 0.738727 0.117428
O O8 0.428797 0.500000 0.583953
O O9 0.455898 0.236675 0.586531
O O10 0.370576 0.305078 0.566589
O O11 0.250000 0.750000 0.297647
O O12 0.299927 0.768126 0.384354
O O13 0.291829 0.000000 0.318373
O O14 0.500000 0.169597 0.061535
O O15 0.433727 0.000000 0.070318
O O16 0.431797 0.216370 0.000000
O O17 0.500000 0.154997 0.500000
O O18 0.500000 0.000000 0.592148
O O19 0.302372 0.703491 0.500000
O O20 0.310593 0.500000 0.575956
#
# Coordination Sequence:
#
# PCOD9493677 Si02
#       7
#    16  16  16  16  16   8  16
#     4   9  19  35  52  70  95 123 156 197 239 282
#     4   9  17  28  46  71  98 130 166 203 238 273
#     4   9  18  32  50  65  82 115 153 188 228 278
#     4  11  22  36  54  73  95 121 152 189 237 289
#     4   8  14  25  40  60  92 133 170 202 236 272
#     4  11  23  33  41  59  87 115 148 193 236 273
#     4   9  18  34  54  73  92 114 144 184 232 287
#
# _framework density 15.673762
#
# number of rings (size 3 to 8) (size 9 to 14) (size 15 to 20)
#    0.000    2.692    0.000    3.462    1.077    5.231 
#    0.000    1.538    0.000    0.000    0.000    0.000 
#    0.000    0.615    0.000    2.000    0.000    2.923 
#
# Total GULP energy -289698.712754 kJ/mol
# GULP energy per Si atom -5571.129091 kJ/mol
# Density = 1.563809 g / cm^3
# Si number density = 15.673762 Si / 1000 Ang^3
#
#
#
# Elastic Constant Matrix: (Units=GPa)
#
#
# Indices 1 2 3 4 5 6 
#
# 1 87.6579 62.7215 39.9791 0.0000 0.0000 0.0000
# 2 62.7215 71.9283 25.2329 0.0000 0.0000 0.0000
# 3 39.9791 25.2329 92.5193 0.0000 0.0000 0.0000
# 4 0.0000 0.0000 0.0000 22.6001 0.0000 0.0000
# 5 0.0000 0.0000 0.0000 0.0000 1.5164 0.0000
# 6 0.0000 0.0000 0.0000 0.0000 0.0000 15.5309
#
#
#
# Elastic Compliance Matrix: (Units=1/GPa)
#
#
# Indices 1 2 3 4 5 6 
#
# 1 0.034361 -0.027373 -0.007383 0.000000 0.000000 0.000000
# 2 -0.027373 0.037180 0.001688 0.000000 0.000000 0.000000
# 3 -0.007383 0.001688 0.013538 0.000000 0.000000 0.000000
# 4 0.000000 0.000000 0.000000 0.044248 0.000000 0.000000
# 5 0.000000 0.000000 0.000000 0.000000 0.659446 0.000000
# 6 0.000000 0.000000 0.000000 0.000000 0.000000 0.064388
#
#
# Mechanical properties :
#
#
# Convention : Reuss Voigt Hill
#
# Bulk Modulus (GPa) = 52.78576 56.44138 54.61357
# Shear Modulus (GPa) = 5.40184 16.20762 10.80473
#
# Velocity S-wave (km/s) = 1.85847 3.21917 2.62840
# Velocity P-wave (km/s) = 6.19323 7.06440 6.64311
#
# Compressibility (1/GPa) = 0.01894450
#
# Stress axis : x y z
#
# Youngs Moduli (GPa) = 29.10246 26.89614 73.86494
#
# Poissons Ratio (x) = 0.73624 0.54531
# Poissons Ratio (y) = 0.79663 -0.12471
# Poissons Ratio (z) = 0.21485 -0.04541
#
# Static dielectric constant tensor:
#      x y z
#    x 1.522260 0.000000 0.000000 
#    y 0.000000 1.533960 0.000000 
#    z 0.000000 0.000000 1.524350 
# 
# From -- ./inp_files/68520.got.cif
#   From: 2010.05.17/outbox.cif.g08.bks.cpg/sg65_35_cif.got.tgz:68520.got - 2010.06.03 17:01:31.
