data_PCOD9493622
_publ_section_title
;
Structure prediction by ZEFSAII (Michael W. Deem and Ramdas Pophale) SiO2 
 PCOD9493622
Probable space group: C M M M
;
_chemical_formula_sum "Si O2"
_cell_formula_units_Z 88
_cell_length_a 17.602243
_cell_length_b 15.415105
_cell_length_c 15.720585
_cell_angle_alpha 90.000000
_cell_angle_beta 90.000000
_cell_angle_gamma 90.000000
_cell_volume 4265.630201
_symmetry_space_group_name_H-M "C M M M"
_symmetry_group_IT_number 65
_symmetry_cell_setting 'orthorhombic'
loop_
_space_group_symop_operation_xyz
x,y,z
-x,-y,z
x,-y,-z
-x,y,-z
-x,-y,-z
x,y,-z
-x,y,z
x,-y,z
1/2+x,1/2+y,z
1/2-x,1/2-y,z
1/2+x,1/2-y,-z
1/2-x,1/2+y,-z
1/2-x,1/2-y,-z
1/2+x,1/2+y,-z
1/2-x,1/2+y,z
1/2+x,1/2-y,z
loop_
_atom_site_type_symbol
_atom_site_label
_atom_site_fract_x
_atom_site_fract_y
_atom_site_fract_z
Si Si1 0.584589 0.500000 0.597733
Si Si2 0.162192 0.277262 0.907014
Si Si3 0.409152 0.820015 0.399383
Si Si4 0.410628 0.597832 0.863688
Si Si5 0.671855 0.899494 0.747598
Si Si6 0.660276 0.650274 0.313440
O O1 0.500000 0.500000 0.640220
O O2 0.570778 0.500000 0.500000
O O3 0.636580 0.419014 0.617808
O O4 0.250000 0.250000 0.898160
O O5 0.120392 0.184447 0.907437
O O6 0.144125 0.339590 0.826913
O O7 0.150786 0.319273 0.000000
O O8 0.390047 0.830993 0.500000
O O9 0.500000 0.805694 0.394828
O O10 0.383407 0.894992 0.334309
O O11 0.364527 0.740192 0.355289
O O12 0.500000 0.593942 0.877666
O O13 0.380007 0.500000 0.883751
O O14 0.390691 0.620754 0.766501
O O15 0.753581 0.861372 0.717610
O O16 0.681942 0.000000 0.773665
#
# Coordination Sequence:
#
# PCOD9493622 Si02
#       6
#     8  16  16  16  16  16
#     4  11  22  34  56  94 136 174 214 263 324 398
#     4  11  24  43  67  96 132 175 220 270 330 399
#     4  11  25  44  67  95 130 176 229 281 334 393
#     4  11  22  39  68 101 134 170 210 266 337 407
#     4  12  25  44  68  96 132 179 229 279 332 390
#     4  12  21  39  62  94 132 172 218 269 329 396
#
# _framework density 20.630012000000001
#
# number of rings (size 3 to 8) (size 9 to 14) (size 15 to 20)
#    0.000    0.636    5.455    2.727    0.000    5.455 
#    0.000    3.636    0.000    0.000    0.000    2.545 
#    0.000    0.000    0.000    0.000    0.000    0.000 
#
# Total GULP energy -245352.365378 kJ/mol
# GULP energy per Si atom -5576.190122 kJ/mol
# Density = 2.058306 g / cm^3
# Si number density = 20.630012 Si / 1000 Ang^3
#
#
#
# Elastic Constant Matrix: (Units=GPa)
#
#
# Indices 1 2 3 4 5 6 
#
# 1 67.6247 44.1402 35.6879 0.0000 0.0000 0.0000
# 2 44.1402 128.2689 57.7836 0.0000 0.0000 0.0000
# 3 35.6879 57.7836 148.3505 0.0000 0.0000 0.0000
# 4 0.0000 0.0000 0.0000 8.6877 0.0000 0.0000
# 5 0.0000 0.0000 0.0000 0.0000 27.2454 0.0000
# 6 0.0000 0.0000 0.0000 0.0000 0.0000 29.5545
#
#
#
# Elastic Compliance Matrix: (Units=1/GPa)
#
#
# Indices 1 2 3 4 5 6 
#
# 1 0.019844 -0.005674 -0.002564 0.000000 0.000000 0.000000
# 2 -0.005674 0.011077 -0.002950 0.000000 0.000000 0.000000
# 3 -0.002564 -0.002950 0.008507 0.000000 0.000000 0.000000
# 4 0.000000 0.000000 0.000000 0.115106 0.000000 0.000000
# 5 0.000000 0.000000 0.000000 0.000000 0.036703 0.000000
# 6 0.000000 0.000000 0.000000 0.000000 0.000000 0.033836
#
#
# Mechanical properties :
#
#
# Convention : Reuss Voigt Hill
#
# Bulk Modulus (GPa) = 58.64029 68.82971 63.73500
# Shear Modulus (GPa) = 19.75255 26.87302 23.31278
#
# Velocity S-wave (km/s) = 3.09765 3.61309 3.36526
# Velocity P-wave (km/s) = 6.42498 7.13037 6.78685
#
# Compressibility (1/GPa) = 0.01705312
#
# Stress axis : x y z
#
# Youngs Moduli (GPa) = 50.39329 90.27334 117.55676
#
# Poissons Ratio (x) = 0.51219 0.30139
# Poissons Ratio (y) = 0.28592 0.34677
# Poissons Ratio (z) = 0.12920 0.26629
#
# Static dielectric constant tensor:
#      x y z
#    x 1.738720 0.000000 0.000000 
#    y 0.000000 2.516200 0.000000 
#    z 0.000000 0.000000 1.802410 
# 
# From -- ./inp_files/44024.got.cif
#   From: 2010.05.17/outbox.cif.g08.bks.cpg/sg65_23_cif.got.tgz:44024.got - 2010.06.03 17:01:31.
