data_PCOD9493211
_publ_section_title
;
Structure prediction by ZEFSAII (Michael W. Deem and Ramdas Pophale) SiO2 
 PCOD9493211
Probable space group: C M M M
;
_chemical_formula_sum "Si O2"
_cell_formula_units_Z 104
_cell_length_a 29.163413
_cell_length_b 8.739581
_cell_length_c 23.636131
_cell_angle_alpha 90.000000
_cell_angle_beta 90.000000
_cell_angle_gamma 90.000000
_cell_volume 6024.282765
_symmetry_space_group_name_H-M "C M M M"
_symmetry_group_IT_number 65
_symmetry_cell_setting 'orthorhombic'
loop_
_space_group_symop_operation_xyz
x,y,z
-x,-y,z
x,-y,-z
-x,y,-z
-x,-y,-z
x,y,-z
-x,y,z
x,-y,z
1/2+x,1/2+y,z
1/2-x,1/2-y,z
1/2+x,1/2-y,-z
1/2-x,1/2+y,-z
1/2-x,1/2-y,-z
1/2+x,1/2+y,-z
1/2-x,1/2+y,z
1/2+x,1/2-y,z
loop_
_atom_site_type_symbol
_atom_site_label
_atom_site_fract_x
_atom_site_fract_y
_atom_site_fract_z
Si Si1 0.447885 0.816258 0.781617
Si Si2 0.801047 0.815653 0.500000
Si Si3 0.947878 0.316068 0.647939
Si Si4 0.854575 0.183269 0.613541
Si Si5 0.143410 0.183226 0.826951
Si Si6 0.199715 0.815528 0.935843
Si Si7 0.301105 0.182895 0.278846
O O1 0.500000 0.774616 0.797340
O O2 0.441943 0.779871 0.714827
O O3 0.408586 0.735350 0.817041
O O4 0.443313 0.000000 0.786650
O O5 0.750000 0.750000 0.500000
O O6 0.828577 0.769781 0.443706
O O7 0.798175 0.000000 0.500000
O O8 0.943836 0.500000 0.642550
O O9 0.907367 0.235386 0.614349
O O10 0.000000 0.273309 0.632015
O O11 0.829558 0.259273 0.667050
O O12 0.851956 0.000000 0.619080
O O13 0.163965 0.230450 0.887578
O O14 0.173608 0.258247 0.777398
O O15 0.146671 0.000000 0.821989
O O16 0.250000 0.750000 0.922630
O O17 0.202540 0.000000 0.935308
O O18 0.187652 0.767383 0.000000
O O19 0.250000 0.250000 0.281263
O O20 0.299603 0.000000 0.278756
#
# Coordination Sequence:
#
# PCOD9493211 Si02
#       7
#    16   8  16  16  16  16  16
#     4   9  18  33  53  78 110 144 177 218 268 319
#     4  10  24  42  59  80 107 141 182 225 265 318
#     4   9  18  34  56  82 111 143 178 218 267 320
#     4  11  22  38  58  82 109 140 180 222 269 321
#     4  11  21  33  53  82 110 139 178 221 269 323
#     4   9  19  35  53  75 106 143 182 222 263 312
#     4  12  24  37  53  77 110 142 175 220 271 319
#
# _framework density 17.263466000000001
#
# number of rings (size 3 to 8) (size 9 to 14) (size 15 to 20)
#    0.000    1.846    1.538    4.154    0.000    5.538 
#    0.000    1.923    0.000    2.769    0.000    3.231 
#    0.000    0.000    0.000    0.000    0.000    0.000 
#
# Total GULP energy -290389.470046 kJ/mol
# GULP energy per Si atom -5584.412886 kJ/mol
# Density = 1.722417 g / cm^3
# Si number density = 17.263466 Si / 1000 Ang^3
#
#
#
# Elastic Constant Matrix: (Units=GPa)
#
#
# Indices 1 2 3 4 5 6 
#
# 1 163.4286 52.0246 85.9738 0.0000 0.0000 0.0000
# 2 52.0246 52.9483 42.7030 0.0000 0.0000 0.0000
# 3 85.9738 42.7030 112.1894 0.0000 0.0000 0.0000
# 4 0.0000 0.0000 0.0000 4.8229 0.0000 0.0000
# 5 0.0000 0.0000 0.0000 0.0000 29.7692 0.0000
# 6 0.0000 0.0000 0.0000 0.0000 0.0000 35.4476
#
#
#
# Elastic Compliance Matrix: (Units=1/GPa)
#
#
# Indices 1 2 3 4 5 6 
#
# 1 0.011443 -0.006018 -0.006478 0.000000 0.000000 0.000000
# 2 -0.006018 0.030418 -0.006966 0.000000 0.000000 0.000000
# 3 -0.006478 -0.006966 0.016529 0.000000 0.000000 0.000000
# 4 0.000000 0.000000 0.000000 0.207343 0.000000 0.000000
# 5 0.000000 0.000000 0.000000 0.000000 0.033592 0.000000
# 6 0.000000 0.000000 0.000000 0.000000 0.000000 0.028211
#
#
# Mechanical properties :
#
#
# Convention : Reuss Voigt Hill
#
# Bulk Modulus (GPa) = 51.37437 76.66323 64.01880
# Shear Modulus (GPa) = 13.40669 23.86562 18.63615
#
# Velocity S-wave (km/s) = 2.78977 3.72214 3.28916
# Velocity P-wave (km/s) = 6.34040 7.93578 7.18253
#
# Compressibility (1/GPa) = 0.01946496
#
# Stress axis : x y z
#
# Youngs Moduli (GPa) = 87.39318 32.87546 60.49922
#
# Poissons Ratio (x) = 0.19786 0.39191
# Poissons Ratio (y) = 0.52597 0.42143
# Poissons Ratio (z) = 0.56612 0.22901
#
# Static dielectric constant tensor:
#      x y z
#    x 1.575880 0.000000 0.000000 
#    y 0.000000 1.579290 0.000000 
#    z 0.000000 0.000000 1.573040 
# 
# From -- ./inp_files/60832.got.cif
#   From: 2010.05.17/outbox.cif.g08.bks.cpg/sg65_31_cif.got.tgz:60832.got - 2010.06.03 17:01:31.
