data_PCOD9493922
_publ_section_title
;
Structure prediction by ZEFSAII (Michael W. Deem and Ramdas Pophale) SiO2 
 PCOD9493922
Probable space group: C M M M
;
_chemical_formula_sum "Si O2"
_cell_formula_units_Z 64
_cell_length_a 11.370051
_cell_length_b 17.554083
_cell_length_c 16.946871
_cell_angle_alpha 90.000000
_cell_angle_beta 90.000000
_cell_angle_gamma 90.000000
_cell_volume 3382.439862
_symmetry_space_group_name_H-M "C M M M"
_symmetry_group_IT_number 65
_symmetry_cell_setting 'orthorhombic'
loop_
_space_group_symop_operation_xyz
x,y,z
-x,-y,z
x,-y,-z
-x,y,-z
-x,-y,-z
x,y,-z
-x,y,z
x,-y,z
1/2+x,1/2+y,z
1/2-x,1/2-y,z
1/2+x,1/2-y,-z
1/2-x,1/2+y,-z
1/2-x,1/2-y,-z
1/2+x,1/2+y,-z
1/2-x,1/2+y,z
1/2+x,1/2-y,z
loop_
_atom_site_type_symbol
_atom_site_label
_atom_site_fract_x
_atom_site_fract_y
_atom_site_fract_z
Si Si1 0.000000 0.592701 0.409109
Si Si2 0.740661 0.092669 0.678563
Si Si3 0.244395 0.159794 0.852918
Si Si4 0.500000 0.413028 0.662964
Si Si5 0.861837 0.414840 0.000000
Si Si6 0.500000 0.587255 0.854833
O O1 0.122461 0.616311 0.367558
O O2 0.000000 0.500000 0.407028
O O3 0.000000 0.616782 0.500000
O O4 0.730239 0.121769 0.768180
O O5 0.869003 0.119237 0.644445
O O6 0.745568 0.000000 0.679591
O O7 0.250000 0.250000 0.844717
O O8 0.327358 0.129657 0.921393
O O9 0.115497 0.131964 0.878579
O O10 0.500000 0.500000 0.632527
O O11 0.500000 0.415054 0.758742
O O12 0.807587 0.500000 0.000000
O O13 0.000000 0.422738 0.000000
O O14 0.500000 0.500000 0.882287
#
# Coordination Sequence:
#
# PCOD9493922 Si02
#       6
#     8  16  16   8   8   8
#     4   9  18  31  52  84 115 146 189 241 291 349
#     4   9  17  32  55  78 110 150 192 238 295 361
#     4  11  23  37  58  86 116 149 198 254 299 343
#     4   7  12  26  47  73  98 133 182 229 272 332
#     4  11  25  41  57  79 119 159 197 239 293 361
#     4   9  18  36  59  78 106 147 198 240 289 360
#
# _framework density 18.921253
#
# number of rings (size 3 to 8) (size 9 to 14) (size 15 to 20)
#    0.000    2.500    0.000    4.125    3.500    0.500 
#    0.000    1.875    0.000    4.500    0.000    0.000 
#    0.000    0.000    0.000    0.000    0.000    0.250 
#
# Total GULP energy -178306.752855 kJ/mol
# GULP energy per Si atom -5572.086027 kJ/mol
# Density = 1.887819 g / cm^3
# Si number density = 18.921253 Si / 1000 Ang^3
#
#
#
# Elastic Constant Matrix: (Units=GPa)
#
#
# Indices 1 2 3 4 5 6 
#
# 1 187.8839 33.4295 71.7174 0.0000 0.0000 0.0000
# 2 33.4295 56.6412 12.1127 0.0000 0.0000 0.0000
# 3 71.7174 12.1127 82.7866 0.0000 0.0000 0.0000
# 4 0.0000 0.0000 0.0000 2.5125 0.0000 0.0000
# 5 0.0000 0.0000 0.0000 0.0000 26.7701 0.0000
# 6 0.0000 0.0000 0.0000 0.0000 0.0000 -99.1526
#
#
#
# Elastic Compliance Matrix: (Units=1/GPa)
#
#
# Indices 1 2 3 4 5 6 
#
# 1 0.008608 -0.003598 -0.006931 0.000000 0.000000 0.000000
# 2 -0.003598 0.019729 0.000231 0.000000 0.000000 0.000000
# 3 -0.006931 0.000231 0.018050 0.000000 0.000000 0.000000
# 4 0.000000 0.000000 0.000000 0.398002 0.000000 0.000000
# 5 0.000000 0.000000 0.000000 0.000000 0.037355 0.000000
# 6 0.000000 0.000000 0.000000 0.000000 0.000000 -0.010085
#
#
# Mechanical properties :
#
#
# Convention : Reuss Voigt Hill
#
# Bulk Modulus (GPa) = 38.77448 62.42563 50.60005
# Shear Modulus (GPa) = 9.98297 0.02949 5.00623
#
# Velocity S-wave (km/s) = 2.29946 0.12497 1.62836
# Velocity P-wave (km/s) = 5.25234 5.75194 5.50781
#
# Compressibility (1/GPa) = 0.02579016
#
# Stress axis : x y z
#
# Youngs Moduli (GPa) = 116.16786 50.68565 55.40304
#
# Poissons Ratio (x) = 0.18239 0.38398
# Poissons Ratio (y) = 0.41802 -0.01278
# Poissons Ratio (z) = 0.80513 -0.01169
#
# Static dielectric constant tensor:
#      x y z
#    x 1.676470 0.000000 0.000000 
#    y 0.000000 1.633060 0.000000 
#    z 0.000000 0.000000 1.623420 
# 
# From -- ./inp_files/37846.got.cif
#   From: 2010.05.17/outbox.cif.g08.bks.cpg/sg65_19_cif.got.tgz:37846.got - 2010.06.03 17:01:31.
