data_PCOD9493665
_publ_section_title
;
Structure prediction by ZEFSAII (Michael W. Deem and Ramdas Pophale) SiO2 
 PCOD9493665
Probable space group: C M M M
;
_chemical_formula_sum "Si O2"
_cell_formula_units_Z 112
_cell_length_a 14.094025
_cell_length_b 27.998026
_cell_length_c 15.672005
_cell_angle_alpha 90.000000
_cell_angle_beta 90.000000
_cell_angle_gamma 90.000000
_cell_volume 6184.249627
_symmetry_space_group_name_H-M "C M M M"
_symmetry_group_IT_number 65
_symmetry_cell_setting 'orthorhombic'
loop_
_space_group_symop_operation_xyz
x,y,z
-x,-y,z
x,-y,-z
-x,y,-z
-x,-y,-z
x,y,-z
-x,y,z
x,-y,z
1/2+x,1/2+y,z
1/2-x,1/2-y,z
1/2+x,1/2-y,-z
1/2-x,1/2+y,-z
1/2-x,1/2-y,-z
1/2+x,1/2+y,-z
1/2-x,1/2+y,z
1/2+x,1/2-y,z
loop_
_atom_site_type_symbol
_atom_site_label
_atom_site_fract_x
_atom_site_fract_y
_atom_site_fract_z
Si Si1 0.794594 0.354312 0.594408
Si Si2 0.388034 0.193515 0.755895
Si Si3 0.606928 0.700761 0.826343
Si Si4 0.389164 0.053513 0.663022
Si Si5 0.892872 0.118327 0.317147
Si Si6 0.726287 0.854572 0.096288
Si Si7 0.226846 0.945690 0.802819
O O1 0.806539 0.334116 0.500000
O O2 0.831338 0.320532 0.670616
O O3 0.853958 0.403403 0.604384
O O4 0.685667 0.368538 0.612986
O O5 0.500000 0.186737 0.741350
O O6 0.371889 0.247696 0.786353
O O7 0.350077 0.160626 0.832700
O O8 0.500000 0.702065 0.862619
O O9 0.607527 0.662229 0.749869
O O10 0.686579 0.682374 0.890795
O O11 0.500000 0.059396 0.682819
O O12 0.323856 0.055966 0.747336
O O13 0.375771 0.000000 0.626490
O O14 0.853177 0.073658 0.262547
O O15 0.000000 0.111073 0.347775
O O16 0.763495 0.907115 0.122235
O O17 0.690848 0.853018 0.000000
O O18 0.209683 0.000000 0.829661
#
# Coordination Sequence:
#
# PCOD9493665 Si02
#       7
#    16  16  16  16  16  16  16
#     4  11  22  35  55  84 115 150 190 234 285 340
#     4  11  22  38  57  81 116 151 188 235 284 334
#     4   9  19  37  61  80 107 148 187 231 283 332
#     4   9  17  32  55  78 104 145 192 236 281 328
#     4   9  18  36  58  81 109 146 188 230 278 334
#     4  11  22  36  58  86 115 149 190 235 285 339
#     4   9  18  34  55  82 114 149 187 228 280 340
#
# _framework density 18.110524999999999
#
# number of rings (size 3 to 8) (size 9 to 14) (size 15 to 20)
#    0.000    2.143    4.286    0.857    0.000    4.000 
#    0.000    3.571    0.000    2.571    0.000   11.000 
#    0.000    0.000    0.000    0.000    0.000    0.000 
#
# Total GULP energy -312288.790346 kJ/mol
# GULP energy per Si atom -5576.585542 kJ/mol
# Density = 1.806930 g / cm^3
# Si number density = 18.110525 Si / 1000 Ang^3
#
#
#
# Elastic Constant Matrix: (Units=GPa)
#
#
# Indices 1 2 3 4 5 6 
#
# 1 112.0731 30.8390 25.7081 0.0000 0.0000 0.0000
# 2 30.8390 101.2931 21.8918 0.0000 0.0000 0.0000
# 3 25.7081 21.8918 96.6094 0.0000 0.0000 0.0000
# 4 0.0000 0.0000 0.0000 9.1002 0.0000 0.0000
# 5 0.0000 0.0000 0.0000 0.0000 4.3241 0.0000
# 6 0.0000 0.0000 0.0000 0.0000 0.0000 21.3346
#
#
#
# Elastic Compliance Matrix: (Units=1/GPa)
#
#
# Indices 1 2 3 4 5 6 
#
# 1 0.010128 -0.002630 -0.002099 0.000000 0.000000 0.000000
# 2 -0.002630 0.011064 -0.001807 0.000000 0.000000 0.000000
# 3 -0.002099 -0.001807 0.011319 0.000000 0.000000 0.000000
# 4 0.000000 0.000000 0.000000 0.109888 0.000000 0.000000
# 5 0.000000 0.000000 0.000000 0.000000 0.231264 0.000000
# 6 0.000000 0.000000 0.000000 0.000000 0.000000 0.046872
#
#
# Mechanical properties :
#
#
# Convention : Reuss Voigt Hill
#
# Bulk Modulus (GPa) = 51.44509 51.87261 51.65885
# Shear Modulus (GPa) = 11.36142 22.38755 16.87449
#
# Velocity S-wave (km/s) = 2.50739 3.51972 3.05577
# Velocity P-wave (km/s) = 6.07046 6.72476 6.40597
#
# Compressibility (1/GPa) = 0.01943820
#
# Stress axis : x y z
#
# Youngs Moduli (GPa) = 98.73713 90.38673 88.34652
#
# Poissons Ratio (x) = 0.23770 0.18545
# Poissons Ratio (y) = 0.25966 0.15966
# Poissons Ratio (z) = 0.20726 0.16335
#
# Static dielectric constant tensor:
#      x y z
#    x 1.641610 0.000000 0.000000 
#    y 0.000000 1.640730 0.000000 
#    z 0.000000 0.000000 1.604140 
# 
# From -- ./inp_files/41159.got.cif
#   From: 2010.05.17/outbox.cif.g08.bks.cpg/sg65_21_cif.got.tgz:41159.got - 2010.06.03 17:01:31.
