data_PCOD9493903
_publ_section_title
;
Structure prediction by ZEFSAII (Michael W. Deem and Ramdas Pophale) SiO2 
 PCOD9493903
Probable space group: C M M M
;
_chemical_formula_sum "Si O2"
_cell_formula_units_Z 88
_cell_length_a 9.883368
_cell_length_b 15.358557
_cell_length_c 28.955654
_cell_angle_alpha 90.000000
_cell_angle_beta 90.000000
_cell_angle_gamma 90.000000
_cell_volume 4395.302384
_symmetry_space_group_name_H-M "C M M M"
_symmetry_group_IT_number 65
_symmetry_cell_setting 'orthorhombic'
loop_
_space_group_symop_operation_xyz
x,y,z
-x,-y,z
x,-y,-z
-x,y,-z
-x,-y,-z
x,y,-z
-x,y,z
x,-y,z
1/2+x,1/2+y,z
1/2-x,1/2-y,z
1/2+x,1/2-y,-z
1/2-x,1/2+y,-z
1/2-x,1/2-y,-z
1/2+x,1/2+y,-z
1/2-x,1/2+y,z
1/2+x,1/2-y,z
loop_
_atom_site_type_symbol
_atom_site_label
_atom_site_fract_x
_atom_site_fract_y
_atom_site_fract_z
Si Si1 0.660336 0.333378 0.678429
Si Si2 0.656590 0.393662 0.051374
Si Si3 0.655145 0.104666 0.238529
Si Si4 0.148114 0.101890 0.421985
Si Si5 0.152677 0.607108 0.500000
Si Si6 0.844568 0.606315 0.865713
O O1 0.500000 0.318079 0.686032
O O2 0.750000 0.250000 0.666308
O O3 0.734058 0.368843 0.724075
O O4 0.672767 0.391748 0.632666
O O5 0.500000 0.368324 0.056940
O O6 0.659774 0.500000 0.051905
O O7 0.747225 0.362644 0.093731
O O8 0.703207 0.366985 0.000000
O O9 0.500000 0.134035 0.249324
O O10 0.690125 0.134422 0.186485
O O11 0.650713 0.000000 0.237746
O O12 0.265380 0.136556 0.454728
O O13 0.000000 0.141888 0.431265
O O14 0.139296 0.000000 0.433572
O O15 0.146673 0.500000 0.500000
O O16 0.000000 0.638630 0.500000
O O17 0.839373 0.500000 0.865648
O O18 0.000000 0.630640 0.874767
#
# Coordination Sequence:
#
# PCOD9493903 Si02
#       6
#    16  16  16  16   8  16
#     4  11  23  37  53  74 101 133 169 207 250 299
#     4   8  13  20  30  48  78 115 151 187 230 279
#     4   9  18  33  52  73  98 128 163 206 253 297
#     4   9  18  34  55  77 102 132 165 201 241 287
#     4   9  17  29  50  81 108 129 159 199 240 283
#     4   8  14  24  38  58  84 115 152 192 235 284
#
# _framework density 20.021374999999999
#
# number of rings (size 3 to 8) (size 9 to 14) (size 15 to 20)
#    0.000    3.000    0.000    3.000    0.000    4.727 
#    0.000    5.909    0.000    0.000    0.000    0.000 
#    0.000    0.727    0.000    2.364    0.000    5.273 
#
# Total GULP energy -245206.624908 kJ/mol
# GULP energy per Si atom -5572.877839 kJ/mol
# Density = 1.997581 g / cm^3
# Si number density = 20.021375 Si / 1000 Ang^3
#
#
#
# Elastic Constant Matrix: (Units=GPa)
#
#
# Indices 1 2 3 4 5 6 
#
# 1 158.5543 10.0042 120.6785 0.0000 0.0000 0.0000
# 2 10.0042 17.1295 0.3975 0.0000 0.0000 0.0000
# 3 120.6785 0.3975 156.3020 0.0000 0.0000 0.0000
# 4 0.0000 0.0000 0.0000 -27.5836 0.0000 0.0000
# 5 0.0000 0.0000 0.0000 0.0000 61.4773 0.0000
# 6 0.0000 0.0000 0.0000 0.0000 0.0000 11.7382
#
#
#
# Elastic Compliance Matrix: (Units=1/GPa)
#
#
# Indices 1 2 3 4 5 6 
#
# 1 0.016697 -0.009453 -0.012868 0.000000 0.000000 0.000000
# 2 -0.009453 0.063734 0.007137 0.000000 0.000000 0.000000
# 3 -0.012868 0.007137 0.016315 0.000000 0.000000 0.000000
# 4 0.000000 0.000000 0.000000 -0.036253 0.000000 0.000000
# 5 0.000000 0.000000 0.000000 0.000000 0.016266 0.000000
# 6 0.000000 0.000000 0.000000 0.000000 0.000000 0.085192
#
#
# Mechanical properties :
#
#
# Convention : Reuss Voigt Hill
#
# Bulk Modulus (GPa) = 15.06534 66.01626 40.54080
# Shear Modulus (GPa) = 23.31597 22.52008 22.91803
#
# Velocity S-wave (km/s) = 3.41626 3.35744 3.38698
# Velocity P-wave (km/s) = 4.80646 6.93357 5.96559
#
# Compressibility (1/GPa) = 0.06637751
#
# Stress axis : x y z
#
# Youngs Moduli (GPa) = 59.89003 15.69017 61.29455
#
# Poissons Ratio (x) = 0.14832 0.78872
# Poissons Ratio (y) = 0.56615 -0.43743
# Poissons Ratio (z) = 0.77065 -0.11197
#
# Static dielectric constant tensor:
#      x y z
#    x 1.691730 0.000000 0.000000 
#    y 0.000000 1.742620 0.000000 
#    z 0.000000 0.000000 1.719060 
# 
# From -- ./inp_files/76598.got.cif
#   From: 2010.05.17/outbox.cif.g08.bks.cpg/sg65_39_cif.got.tgz:76598.got - 2010.06.03 17:01:31.
