data_PCOD9493306
_publ_section_title
;
Structure prediction by ZEFSAII (Michael W. Deem and Ramdas Pophale) SiO2 
 PCOD9493306
Probable space group: C M M M
;
_chemical_formula_sum "Si O2"
_cell_formula_units_Z 96
_cell_length_a 24.735840
_cell_length_b 24.801500
_cell_length_c 8.676521
_cell_angle_alpha 90.000000
_cell_angle_beta 90.000000
_cell_angle_gamma 90.000000
_cell_volume 5322.923605
_symmetry_space_group_name_H-M "C M M M"
_symmetry_group_IT_number 65
_symmetry_cell_setting 'orthorhombic'
loop_
_space_group_symop_operation_xyz
x,y,z
-x,-y,z
x,-y,-z
-x,y,-z
-x,-y,-z
x,y,-z
-x,y,z
x,-y,z
1/2+x,1/2+y,z
1/2-x,1/2-y,z
1/2+x,1/2-y,-z
1/2-x,1/2+y,-z
1/2-x,1/2-y,-z
1/2+x,1/2+y,-z
1/2-x,1/2+y,z
1/2+x,1/2-y,z
loop_
_atom_site_type_symbol
_atom_site_label
_atom_site_fract_x
_atom_site_fract_y
_atom_site_fract_z
Si Si1 0.646065 0.060917 0.685761
Si Si2 0.435925 0.563302 0.327948
Si Si3 0.438664 0.270157 0.187973
Si Si4 0.228924 0.061244 0.314556
Si Si5 0.358901 0.360717 0.177015
Si Si6 0.938983 0.645136 0.814289
O O1 0.644798 0.062521 0.500000
O O2 0.708618 0.069437 0.732434
O O3 0.605766 0.105319 0.749807
O O4 0.630647 0.000000 0.733914
O O5 0.417752 0.581499 0.500000
O O6 0.500000 0.570276 0.319863
O O7 0.424374 0.500000 0.318344
O O8 0.406245 0.595301 0.195978
O O9 0.500000 0.286644 0.237234
O O10 0.389215 0.307626 0.242399
O O11 0.430754 0.207707 0.231037
O O12 0.438801 0.273298 0.000000
O O13 0.226831 0.060645 0.500000
O O14 0.191310 0.109549 0.256575
O O15 0.212598 0.000000 0.263677
O O16 0.344776 0.350519 0.000000
O O17 0.000000 0.629648 0.765819
O O18 0.937362 0.643645 0.000000
#
# Coordination Sequence:
#
# PCOD9493306 Si02
#       6
#    16  16  16  16  16  16
#     4   9  19  36  56  77 102 132 163 197 242 294
#     4   9  18  31  44  60  88 126 163 202 253 307
#     4   8  16  32  50  69  99 136 167 199 245 296
#     4   9  19  36  53  68  95 136 172 202 245 300
#     4  11  20  29  47  73  96 124 167 214 253 287
#     4   9  18  34  56  79 103 132 163 195 237 293
#
# _framework density 18.035202000000002
#
# number of rings (size 3 to 8) (size 9 to 14) (size 15 to 20)
#    0.000    2.833    0.000    4.000    0.000    5.333 
#    0.000    6.667    0.000    7.000    0.000    0.000 
#    0.000    0.000    0.000    0.000    0.000    0.000 
#
# Total GULP energy -267388.088465 kJ/mol
# GULP energy per Si atom -5570.585176 kJ/mol
# Density = 1.799415 g / cm^3
# Si number density = 18.035202 Si / 1000 Ang^3
#
#
#
# Elastic Constant Matrix: (Units=GPa)
#
#
# Indices 1 2 3 4 5 6 
#
# 1 121.3674 89.7038 21.4557 0.0000 0.0000 0.0000
# 2 89.7038 112.1942 20.2332 0.0000 0.0000 0.0000
# 3 21.4557 20.2332 9.6281 0.0000 0.0000 0.0000
# 4 0.0000 0.0000 0.0000 47.1463 0.0000 0.0000
# 5 0.0000 0.0000 0.0000 0.0000 34.8814 0.0000
# 6 0.0000 0.0000 0.0000 0.0000 0.0000 39.0149
#
#
#
# Elastic Compliance Matrix: (Units=1/GPa)
#
#
# Indices 1 2 3 4 5 6 
#
# 1 0.022229 -0.014234 -0.019624 0.000000 0.000000 0.000000
# 2 -0.014234 0.023467 -0.017595 0.000000 0.000000 0.000000
# 3 -0.019624 -0.017595 0.184571 0.000000 0.000000 0.000000
# 4 0.000000 0.000000 0.000000 0.021211 0.000000 0.000000
# 5 0.000000 0.000000 0.000000 0.000000 0.028669 0.000000
# 6 0.000000 0.000000 0.000000 0.000000 0.000000 0.025631
#
#
# Mechanical properties :
#
#
# Convention : Reuss Voigt Hill
#
# Bulk Modulus (GPa) = 7.85177 56.21946 32.03562
# Shear Modulus (GPa) = 11.08309 31.66164 21.37236
#
# Velocity S-wave (km/s) = 2.48165 4.19447 3.44617
# Velocity P-wave (km/s) = 3.54605 7.39580 5.79967
#
# Compressibility (1/GPa) = 0.12735980
#
# Stress axis : x y z
#
# Youngs Moduli (GPa) = 44.98569 42.61295 5.41798
#
# Poissons Ratio (x) = 0.60656 0.10632
# Poissons Ratio (y) = 0.64033 0.09533
# Poissons Ratio (z) = 0.88281 0.74978
#
# Static dielectric constant tensor:
#      x y z
#    x 1.623270 0.000000 0.000000 
#    y 0.000000 1.619080 0.000000 
#    z 0.000000 0.000000 1.641300 
# 
# From -- ./inp_files/14324.got.cif
#   From: 2010.05.17/outbox.cif.g08.bks.cpg/sg65_8_cif.got.tgz:14324.got - 2010.06.03 17:01:31.
