data_PCOD9493905
_publ_section_title
;
Structure prediction by ZEFSAII (Michael W. Deem and Ramdas Pophale) SiO2 
 PCOD9493905
Probable space group: C M M M
;
_chemical_formula_sum "Si O2"
_cell_formula_units_Z 80
_cell_length_a 17.620036
_cell_length_b 9.609734
_cell_length_c 26.384978
_cell_angle_alpha 90.000000
_cell_angle_beta 90.000000
_cell_angle_gamma 90.000000
_cell_volume 4467.606295
_symmetry_space_group_name_H-M "C M M M"
_symmetry_group_IT_number 65
_symmetry_cell_setting 'orthorhombic'
loop_
_space_group_symop_operation_xyz
x,y,z
-x,-y,z
x,-y,-z
-x,y,-z
-x,-y,-z
x,y,-z
-x,y,z
x,-y,z
1/2+x,1/2+y,z
1/2-x,1/2-y,z
1/2+x,1/2-y,-z
1/2-x,1/2+y,-z
1/2-x,1/2-y,-z
1/2+x,1/2+y,-z
1/2-x,1/2+y,z
1/2+x,1/2-y,z
loop_
_atom_site_type_symbol
_atom_site_label
_atom_site_fract_x
_atom_site_fract_y
_atom_site_fract_z
Si Si1 0.408564 0.838200 0.289693
Si Si2 0.672070 0.665857 0.796834
Si Si3 0.590689 0.661159 0.095959
Si Si4 0.407287 0.159952 0.000000
Si Si5 0.592901 0.659620 0.500000
Si Si6 0.407600 0.840368 0.595210
O O1 0.500000 0.832283 0.288007
O O2 0.375028 0.733059 0.249070
O O3 0.384210 0.804351 0.347429
O O4 0.387056 0.000000 0.279333
O O5 0.682568 0.500000 0.789949
O O6 0.750000 0.750000 0.798811
O O7 0.629224 0.687674 0.850185
O O8 0.500000 0.678976 0.101753
O O9 0.604161 0.500000 0.081722
O O10 0.617401 0.760501 0.050747
O O11 0.500000 0.163682 0.000000
O O12 0.383425 0.000000 0.000000
O O13 0.616790 0.500000 0.500000
O O14 0.500000 0.662174 0.500000
O O15 0.618195 0.739341 0.449345
O O16 0.500000 0.837786 0.595197
O O17 0.385423 0.000000 0.584753
#
# Coordination Sequence:
#
# PCOD9493905 Si02
#       6
#    16  16  16   8   8  16
#     4   9  18  33  53  76 101 131 169 212 256 302
#     4  11  23  37  53  74 102 136 173 212 256 304
#     4   9  18  34  55  77 102 133 167 203 246 297
#     4   9  17  29  50  81 108 129 159 201 246 291
#     4   9  15  21  33  59  94 127 158 197 244 289
#     4   8  14  25  41  62  91 127 162 196 241 297
#
# _framework density 17.906680999999999
#
# number of rings (size 3 to 8) (size 9 to 14) (size 15 to 20)
#    0.000    2.800    0.000    3.000    0.000    6.000 
#    0.000    4.500    0.000    0.000    0.000    0.700 
#    0.000    0.000    0.000    0.000    0.000    0.000 
#
# Total GULP energy -223019.647448 kJ/mol
# GULP energy per Si atom -5575.491186 kJ/mol
# Density = 1.786592 g / cm^3
# Si number density = 17.906681 Si / 1000 Ang^3
#
#
#
# Elastic Constant Matrix: (Units=GPa)
#
#
# Indices 1 2 3 4 5 6 
#
# 1 17.1842 39.2966 36.4439 0.0000 0.0000 0.0000
# 2 39.2966 153.3593 137.6913 0.0000 0.0000 0.0000
# 3 36.4439 137.6913 174.9738 0.0000 0.0000 0.0000
# 4 0.0000 0.0000 0.0000 38.1783 0.0000 0.0000
# 5 0.0000 0.0000 0.0000 0.0000 -9.3196 0.0000
# 6 0.0000 0.0000 0.0000 0.0000 0.0000 17.4876
#
#
#
# Elastic Compliance Matrix: (Units=1/GPa)
#
#
# Indices 1 2 3 4 5 6 
#
# 1 0.141072 -0.033282 -0.003192 0.000000 0.000000 0.000000
# 2 -0.033282 0.030071 -0.016732 0.000000 0.000000 0.000000
# 3 -0.003192 -0.016732 0.019547 0.000000 0.000000 0.000000
# 4 0.000000 0.000000 0.000000 0.026193 0.000000 0.000000
# 5 0.000000 0.000000 0.000000 0.000000 -0.107301 0.000000
# 6 0.000000 0.000000 0.000000 0.000000 0.000000 0.057183
#
#
# Mechanical properties :
#
#
# Convention : Reuss Voigt Hill
#
# Bulk Modulus (GPa) = 11.86555 85.82009 48.84282
# Shear Modulus (GPa) = 16.59650 18.07496 17.33573
#
# Velocity S-wave (km/s) = 3.04770 3.18055 3.11483
# Velocity P-wave (km/s) = 4.36180 7.84335 6.34600
#
# Compressibility (1/GPa) = 0.08427760
#
# Stress axis : x y z
#
# Youngs Moduli (GPa) = 7.08860 33.25479 51.15995
#
# Poissons Ratio (x) = 1.10678 0.16333
# Poissons Ratio (y) = 0.23592 0.85598
# Poissons Ratio (z) = 0.02263 0.55640
#
# Static dielectric constant tensor:
#      x y z
#    x 1.601080 0.000000 0.000000 
#    y 0.000000 1.597990 0.000000 
#    z 0.000000 0.000000 1.602120 
# 
# From -- ./inp_files/75092.got.cif
#   From: 2010.05.17/outbox.cif.g08.bks.cpg/sg65_38_cif.got.tgz:75092.got - 2010.06.03 17:01:31.
