data_PCOD9493650
_publ_section_title
;
Structure prediction by ZEFSAII (Michael W. Deem and Ramdas Pophale) SiO2 
 PCOD9493650
Probable space group: C M M M
;
_chemical_formula_sum "Si O2"
_cell_formula_units_Z 64
_cell_length_a 19.206221
_cell_length_b 8.079728
_cell_length_c 21.070304
_cell_angle_alpha 90.000000
_cell_angle_beta 90.000000
_cell_angle_gamma 90.000000
_cell_volume 3269.711721
_symmetry_space_group_name_H-M "C M M M"
_symmetry_group_IT_number 65
_symmetry_cell_setting 'orthorhombic'
loop_
_space_group_symop_operation_xyz
x,y,z
-x,-y,z
x,-y,-z
-x,y,-z
-x,-y,-z
x,y,-z
-x,y,z
x,-y,z
1/2+x,1/2+y,z
1/2-x,1/2-y,z
1/2+x,1/2-y,-z
1/2-x,1/2+y,-z
1/2-x,1/2-y,-z
1/2+x,1/2+y,-z
1/2-x,1/2+y,z
1/2+x,1/2-y,z
loop_
_atom_site_type_symbol
_atom_site_label
_atom_site_fract_x
_atom_site_fract_y
_atom_site_fract_z
Si Si1 0.580107 0.297093 0.190288
Si Si2 0.170147 0.196629 0.690128
Si Si3 0.828977 0.800298 0.071751
Si Si4 0.920878 0.300441 0.571953
O O1 0.500000 0.244351 0.194108
O O2 0.580324 0.500000 0.190548
O O3 0.624813 0.238483 0.250590
O O4 0.617723 0.242970 0.125480
O O5 0.250000 0.250000 0.693191
O O6 0.133346 0.245648 0.624593
O O7 0.168768 0.000000 0.694479
O O8 0.750000 0.750000 0.087847
O O9 0.831682 0.000000 0.070680
O O10 0.843949 0.740724 0.000000
O O11 0.904494 0.244801 0.500000
O O12 0.921672 0.500000 0.571234
O O13 0.000000 0.244573 0.587322
#
# Coordination Sequence:
#
# PCOD9493650 Si02
#       4
#    16  16  16  16
#     4   9  18  32  50  74 102 130 166 213 258 300
#     4  11  22  35  53  76 104 138 174 214 258 304
#     4   9  17  30  50  74 100 132 167 204 248 298
#     4   9  19  37  59  81 106 135 167 207 255 306
#
# _framework density 19.573589999999999
#
# number of rings (size 3 to 8) (size 9 to 14) (size 15 to 20)
#    0.000    2.500    0.000    3.000    0.000    3.000 
#    0.000    5.000    0.000    3.750    0.000    3.500 
#    0.000    0.000    0.000    0.000    0.000    0.000 
#
# Total GULP energy -178624.848085 kJ/mol
# GULP energy per Si atom -5582.026503 kJ/mol
# Density = 1.952904 g / cm^3
# Si number density = 19.573590 Si / 1000 Ang^3
#
#
#
# Elastic Constant Matrix: (Units=GPa)
#
#
# Indices 1 2 3 4 5 6 
#
# 1 204.7985 13.9718 147.4928 0.0000 0.0000 0.0000
# 2 13.9718 14.1521 14.2086 0.0000 0.0000 0.0000
# 3 147.4928 14.2086 163.7031 0.0000 0.0000 0.0000
# 4 0.0000 0.0000 0.0000 -60.7621 0.0000 0.0000
# 5 0.0000 0.0000 0.0000 0.0000 40.2218 0.0000
# 6 0.0000 0.0000 0.0000 0.0000 0.0000 3.3434
#
#
#
# Elastic Compliance Matrix: (Units=1/GPa)
#
#
# Indices 1 2 3 4 5 6 
#
# 1 0.013927 -0.001261 -0.012438 0.000000 0.000000 0.000000
# 2 -0.001261 0.077520 -0.005592 0.000000 0.000000 0.000000
# 3 -0.012438 -0.005592 0.017800 0.000000 0.000000 0.000000
# 4 0.000000 0.000000 0.000000 -0.016458 0.000000 0.000000
# 5 0.000000 0.000000 0.000000 0.000000 0.024862 0.000000
# 6 0.000000 0.000000 0.000000 0.000000 0.000000 0.299100
#
#
# Mechanical properties :
#
#
# Convention : Reuss Voigt Hill
#
# Bulk Modulus (GPa) = 14.15139 81.55558 47.85348
# Shear Modulus (GPa) = 10.44083 10.35932 10.40008
#
# Velocity S-wave (km/s) = 2.31208 2.30304 2.30756
# Velocity P-wave (km/s) = 3.79120 6.98774 5.62146
#
# Compressibility (1/GPa) = 0.07066445
#
# Stress axis : x y z
#
# Youngs Moduli (GPa) = 71.80486 12.89987 56.17853
#
# Poissons Ratio (x) = 0.01627 0.69875
# Poissons Ratio (y) = 0.09058 0.31414
# Poissons Ratio (z) = 0.89312 0.07213
#
# Static dielectric constant tensor:
#      x y z
#    x 1.723860 0.000000 0.000000 
#    y 0.000000 1.701240 0.000000 
#    z 0.000000 0.000000 1.691040 
# 
# From -- ./inp_files/49030.got.cif
#   From: 2010.05.17/outbox.cif.g08.bks.cpg/sg65_25_cif.got.tgz:49030.got - 2010.06.03 17:01:31.
