data_PCOD9493792
_publ_section_title
;
Structure prediction by ZEFSAII (Michael W. Deem and Ramdas Pophale) SiO2 
 PCOD9493792
Probable space group: C M M M
;
_chemical_formula_sum "Si O2"
_cell_formula_units_Z 54
_cell_length_a 16.001394
_cell_length_b 15.509625
_cell_length_c 10.904545
_cell_angle_alpha 90.000000
_cell_angle_beta 90.000000
_cell_angle_gamma 90.000000
_cell_volume 2706.242221
_symmetry_space_group_name_H-M "C M M M"
_symmetry_group_IT_number 65
_symmetry_cell_setting 'orthorhombic'
loop_
_space_group_symop_operation_xyz
x,y,z
-x,-y,z
x,-y,-z
-x,y,-z
-x,-y,-z
x,y,-z
-x,y,z
x,-y,z
1/2+x,1/2+y,z
1/2-x,1/2-y,z
1/2+x,1/2-y,-z
1/2-x,1/2+y,-z
1/2-x,1/2-y,-z
1/2+x,1/2+y,-z
1/2-x,1/2+y,z
1/2+x,1/2-y,z
loop_
_atom_site_type_symbol
_atom_site_label
_atom_site_fract_x
_atom_site_fract_y
_atom_site_fract_z
Si Si1 0.159173 0.000000 0.000000
Si Si2 0.363347 0.500000 0.273509
Si Si3 0.792069 0.342925 0.000000
Si Si4 0.254175 0.848276 0.641353
Si Si5 0.905073 0.397676 0.225323
Si Si6 0.500000 0.500000 0.500000
O O1 0.109625 0.000000 0.870081
O O2 0.221401 0.917244 0.000000
O O3 0.304858 0.415578 0.289624
O O4 0.427781 0.500000 0.387723
O O5 0.750000 0.250000 0.000000
O O6 0.852295 0.355687 0.883622
O O7 0.228084 0.848599 0.500000
O O8 0.250000 0.750000 0.686434
O O9 0.349409 0.879134 0.655856
O O10 0.906729 0.500000 0.202992
O O11 0.000000 0.366345 0.232784
#
# Coordination Sequence:
#
# PCOD9493792 Si02
#       6
#     4   8   8  16  16   2
#     4  12  24  41  71 102 134 174 232 278 333 423
#     4  12  24  47  71 102 136 179 235 286 352 420
#     4  12  21  38  66  93 131 189 224 263 337 413
#     4  11  22  41  68  97 131 185 235 279 346 421
#     4  11  22  38  63  98 134 171 222 287 348 404
#     4  12  28  50  80  92 130 192 228 300 348 394
#
# _framework density 19.953866999999999
#
# number of rings (size 3 to 8) (size 9 to 14) (size 15 to 20)
#    0.000    0.593    7.407    1.333    0.000    2.074 
#    2.667    1.481    3.259    0.000    0.000    0.000 
#    0.000    0.000    0.000    0.000    0.000    0.000 
#
# Total GULP energy -150463.169958 kJ/mol
# GULP energy per Si atom -5572.709998 kJ/mol
# Density = 1.990845 g / cm^3
# Si number density = 19.953867 Si / 1000 Ang^3
#
#
#
# Elastic Constant Matrix: (Units=GPa)
#
#
# Indices 1 2 3 4 5 6 
#
# 1 121.5675 45.9984 36.3884 0.0000 0.0000 0.0000
# 2 45.9984 134.4654 27.4358 0.0000 0.0000 0.0000
# 3 36.3884 27.4358 128.9359 0.0000 0.0000 0.0000
# 4 0.0000 0.0000 0.0000 -13.9295 0.0000 0.0000
# 5 0.0000 0.0000 0.0000 0.0000 32.4182 0.0000
# 6 0.0000 0.0000 0.0000 0.0000 0.0000 17.9967
#
#
#
# Elastic Compliance Matrix: (Units=1/GPa)
#
#
# Indices 1 2 3 4 5 6 
#
# 1 0.010008 -0.002977 -0.002191 0.000000 0.000000 0.000000
# 2 -0.002977 0.008660 -0.001003 0.000000 0.000000 0.000000
# 3 -0.002191 -0.001003 0.008588 0.000000 0.000000 0.000000
# 4 0.000000 0.000000 0.000000 -0.071790 0.000000 0.000000
# 5 0.000000 0.000000 0.000000 0.000000 0.030847 0.000000
# 6 0.000000 0.000000 0.000000 0.000000 0.000000 0.055566
#
#
# Mechanical properties :
#
#
# Convention : Reuss Voigt Hill
#
# Bulk Modulus (GPa) = 67.04804 67.17933 67.11368
# Shear Modulus (GPa) = 84.47395 25.64016 55.05706
#
# Velocity S-wave (km/s) = 6.51357 3.58854 5.25852
# Velocity P-wave (km/s) = 9.49964 7.13516 8.40100
#
# Compressibility (1/GPa) = 0.01491468
#
# Stress axis : x y z
#
# Youngs Moduli (GPa) = 99.92026 115.47826 116.44822
#
# Poissons Ratio (x) = 0.34372 0.25515
# Poissons Ratio (y) = 0.29741 0.11675
# Poissons Ratio (z) = 0.21894 0.11578
#
# Static dielectric constant tensor:
#      x y z
#    x 1.669680 0.000000 0.000000 
#    y 0.000000 1.688100 0.000000 
#    z 0.000000 0.000000 1.776160 
# 
# From -- ./inp_files/23566.got.cif
#   From: 2010.05.17/outbox.cif.g08.bks.cpg/sg65_12_cif.got.tgz:23566.got - 2010.06.03 17:01:31.
