data_PCOD9493482
_publ_section_title
;
Structure prediction by ZEFSAII (Michael W. Deem and Ramdas Pophale) SiO2 
 PCOD9493482
Probable space group: C M M M
;
_chemical_formula_sum "Si O2"
_cell_formula_units_Z 88
_cell_length_a 17.519067
_cell_length_b 14.407191
_cell_length_c 18.244049
_cell_angle_alpha 90.000000
_cell_angle_beta 90.000000
_cell_angle_gamma 90.000000
_cell_volume 4604.807900
_symmetry_space_group_name_H-M "C M M M"
_symmetry_group_IT_number 65
_symmetry_cell_setting 'orthorhombic'
loop_
_space_group_symop_operation_xyz
x,y,z
-x,-y,z
x,-y,-z
-x,y,-z
-x,-y,-z
x,y,-z
-x,y,z
x,-y,z
1/2+x,1/2+y,z
1/2-x,1/2-y,z
1/2+x,1/2-y,-z
1/2-x,1/2+y,-z
1/2-x,1/2-y,-z
1/2+x,1/2+y,-z
1/2-x,1/2+y,z
1/2+x,1/2-y,z
loop_
_atom_site_type_symbol
_atom_site_label
_atom_site_fract_x
_atom_site_fract_y
_atom_site_fract_z
Si Si1 0.917262 0.111566 0.126424
Si Si2 0.592999 0.892955 0.500000
Si Si3 0.249636 0.113431 0.080166
Si Si4 0.808653 0.609102 0.765454
Si Si5 0.909523 0.289926 0.647713
Si Si6 0.635544 0.393737 0.291124
O O1 0.838533 0.144095 0.090013
O O2 0.907359 0.124030 0.213881
O O3 0.000000 0.148733 0.102583
O O4 0.918581 0.000000 0.114001
O O5 0.500000 0.892759 0.500000
O O6 0.617389 0.840560 0.426266
O O7 0.617998 0.000000 0.500000
O O8 0.297672 0.142886 0.151020
O O9 0.248647 0.000000 0.083651
O O10 0.278103 0.140597 0.000000
O O11 0.829266 0.500000 0.766058
O O12 0.867704 0.665753 0.717499
O O13 0.725003 0.616449 0.728554
O O14 0.889957 0.181399 0.650275
O O15 0.000000 0.302833 0.653720
O O16 0.621161 0.500000 0.312455
#
# Coordination Sequence:
#
# PCOD9493482 Si02
#       6
#    16   8  16  16  16  16
#     4   8  13  22  39  65  97 134 176 219 258 297
#     4   9  20  38  56  79 111 139 169 216 268 312
#     4   8  14  25  43  69 101 137 175 216 264 314
#     4   9  18  33  53  77 106 141 180 219 260 312
#     4  11  21  34  57  82 103 135 177 219 265 314
#     4   9  18  33  52  76 108 141 173 212 259 314
#
# _framework density 19.110461000000001
#
# number of rings (size 3 to 8) (size 9 to 14) (size 15 to 20)
#    0.000    3.000    0.000    3.818    0.000    2.545 
#    0.000    4.091    0.000   13.091    0.000    2.545 
#    0.000    0.000    0.000    0.000    0.000    0.000 
#
# Total GULP energy -245451.715708 kJ/mol
# GULP energy per Si atom -5578.448084 kJ/mol
# Density = 1.906696 g / cm^3
# Si number density = 19.110461 Si / 1000 Ang^3
#
#
#
# Elastic Constant Matrix: (Units=GPa)
#
#
# Indices 1 2 3 4 5 6 
#
# 1 43.4153 38.8533 46.7313 0.0000 0.0000 0.0000
# 2 38.8533 69.9613 67.5792 0.0000 0.0000 0.0000
# 3 46.7313 67.5792 135.8525 0.0000 0.0000 0.0000
# 4 0.0000 0.0000 0.0000 10.1279 0.0000 0.0000
# 5 0.0000 0.0000 0.0000 0.0000 12.3384 0.0000
# 6 0.0000 0.0000 0.0000 0.0000 0.0000 20.7808
#
#
#
# Elastic Compliance Matrix: (Units=1/GPa)
#
#
# Indices 1 2 3 4 5 6 
#
# 1 0.048453 -0.020807 -0.006317 0.000000 0.000000 0.000000
# 2 -0.020807 0.036450 -0.010974 0.000000 0.000000 0.000000
# 3 -0.006317 -0.010974 0.014993 0.000000 0.000000 0.000000
# 4 0.000000 0.000000 0.000000 0.098737 0.000000 0.000000
# 5 0.000000 0.000000 0.000000 0.000000 0.081048 0.000000
# 6 0.000000 0.000000 0.000000 0.000000 0.000000 0.048121
#
#
# Mechanical properties :
#
#
# Convention : Reuss Voigt Hill
#
# Bulk Modulus (GPa) = 42.19510 61.72852 51.96181
# Shear Modulus (GPa) = 12.13892 15.05378 13.59635
#
# Velocity S-wave (km/s) = 2.52305 2.80969 2.67022
# Velocity P-wave (km/s) = 5.53310 6.54957 6.06267
#
# Compressibility (1/GPa) = 0.02369944
#
# Stress axis : x y z
#
# Youngs Moduli (GPa) = 20.63837 27.43518 66.69783
#
# Poissons Ratio (x) = 0.57084 0.42133
# Poissons Ratio (y) = 0.42942 0.73197
# Poissons Ratio (z) = 0.13037 0.30108
#
# Static dielectric constant tensor:
#      x y z
#    x 1.661500 0.000000 0.000000 
#    y 0.000000 1.701720 0.000000 
#    z 0.000000 0.000000 1.667780 
# 
# From -- ./inp_files/54302.got.cif
#   From: 2010.05.17/outbox.cif.g08.bks.cpg/sg65_28_cif.got.tgz:54302.got - 2010.06.03 17:01:31.
