data_PCOD9493999
_publ_section_title
;
Structure prediction by ZEFSAII (Michael W. Deem and Ramdas Pophale) SiO2 
 PCOD9493999
Probable space group: C M M M
;
_chemical_formula_sum "Si O2"
_cell_formula_units_Z 44
_cell_length_a 19.023760
_cell_length_b 7.780253
_cell_length_c 14.263854
_cell_angle_alpha 90.000000
_cell_angle_beta 90.000000
_cell_angle_gamma 90.000000
_cell_volume 2111.188264
_symmetry_space_group_name_H-M "C M M M"
_symmetry_group_IT_number 65
_symmetry_cell_setting 'orthorhombic'
loop_
_space_group_symop_operation_xyz
x,y,z
-x,-y,z
x,-y,-z
-x,y,-z
-x,-y,-z
x,y,-z
-x,y,z
x,-y,z
1/2+x,1/2+y,z
1/2-x,1/2-y,z
1/2+x,1/2-y,-z
1/2-x,1/2+y,-z
1/2-x,1/2-y,-z
1/2+x,1/2+y,-z
1/2-x,1/2+y,z
1/2+x,1/2-y,z
loop_
_atom_site_type_symbol
_atom_site_label
_atom_site_fract_x
_atom_site_fract_y
_atom_site_fract_z
Si Si1 0.000000 0.299107 0.823520
Si Si2 0.349495 0.706987 0.893654
Si Si3 0.660127 0.500000 0.609404
Si Si4 0.000000 0.000000 0.328769
Si Si5 0.750000 0.750000 0.736412
O O1 0.069375 0.253372 0.881441
O O2 0.000000 0.500000 0.798128
O O3 0.000000 0.170516 0.735328
O O4 0.340834 0.500000 0.876007
O O5 0.306731 0.810017 0.814786
O O6 0.328080 0.743958 0.000000
O O7 0.677975 0.500000 0.500000
O O8 0.575448 0.500000 0.619344
O O9 0.697811 0.653453 0.665560
#
# Coordination Sequence:
#
# PCOD9493999 Si02
#       5
#     8  16   8   4   8
#     4  12  23  40  68 102 139 193 242 285 353 420
#     4  11  23  41  65  96 144 195 234 282 353 429
#     4  12  27  46  76 101 133 188 238 302 370 423
#     4  12  23  54  73  96 146 188 239 300 359 424
#     4  12  22  44  66  98 138 170 232 292 354 418
#
# _framework density 20.841343999999999
#
# number of rings (size 3 to 8) (size 9 to 14) (size 15 to 20)
#    0.000    0.364    7.273    1.909    2.545    2.909 
#    0.000    0.000    0.000    1.091    0.000    0.000 
#    0.000    0.000    0.000    0.000    0.000    0.000 
#
# Total GULP energy -122598.175725 kJ/mol
# GULP energy per Si atom -5572.644351 kJ/mol
# Density = 2.079391 g / cm^3
# Si number density = 20.841344 Si / 1000 Ang^3
#
#
#
# Elastic Constant Matrix: (Units=GPa)
#
#
# Indices 1 2 3 4 5 6 
#
# 1 195.7515 26.5409 74.6525 0.0000 0.0000 0.0000
# 2 26.5409 105.2708 57.1044 0.0000 0.0000 0.0000
# 3 74.6525 57.1044 206.9945 0.0000 0.0000 0.0000
# 4 0.0000 0.0000 0.0000 12.7781 0.0000 0.0000
# 5 0.0000 0.0000 0.0000 0.0000 28.3540 0.0000
# 6 0.0000 0.0000 0.0000 0.0000 0.0000 58.4358
#
#
#
# Elastic Compliance Matrix: (Units=1/GPa)
#
#
# Indices 1 2 3 4 5 6 
#
# 1 0.005937 -0.000394 -0.002032 0.000000 0.000000 0.000000
# 2 -0.000394 0.011197 -0.002947 0.000000 0.000000 0.000000
# 3 -0.002032 -0.002947 0.006377 0.000000 0.000000 0.000000
# 4 0.000000 0.000000 0.000000 0.078259 0.000000 0.000000
# 5 0.000000 0.000000 0.000000 0.000000 0.035268 0.000000
# 6 0.000000 0.000000 0.000000 0.000000 0.000000 0.017113
#
#
# Mechanical properties :
#
#
# Convention : Reuss Voigt Hill
#
# Bulk Modulus (GPa) = 78.34450 91.62359 84.98404
# Shear Modulus (GPa) = 29.55898 43.22816 36.39357
#
# Velocity S-wave (km/s) = 3.77010 4.55923 4.18331
# Velocity P-wave (km/s) = 7.52489 8.47191 8.01241
#
# Compressibility (1/GPa) = 0.01276414
#
# Stress axis : x y z
#
# Youngs Moduli (GPa) = 168.43314 89.30775 156.81407
#
# Poissons Ratio (x) = 0.03522 0.31871
# Poissons Ratio (y) = 0.06643 0.46210
# Poissons Ratio (z) = 0.34232 0.26317
#
# Static dielectric constant tensor:
#      x y z
#    x 1.765150 0.000000 0.000000 
#    y 0.000000 2.165500 0.000000 
#    z 0.000000 0.000000 1.702580 
# 
# From -- ./inp_files/41603.got.cif
#   From: 2010.05.17/outbox.cif.g08.bks.cpg/sg65_21_cif.got.tgz:41603.got - 2010.06.03 17:01:31.
