data_PCOD9493241
_publ_section_title
;
Structure prediction by ZEFSAII (Michael W. Deem and Ramdas Pophale) SiO2 
 PCOD9493241
Probable space group: C M M M
;
_chemical_formula_sum "Si O2"
_cell_formula_units_Z 66
_cell_length_a 9.248497
_cell_length_b 14.645067
_cell_length_c 26.950535
_cell_angle_alpha 90.000000
_cell_angle_beta 90.000000
_cell_angle_gamma 90.000000
_cell_volume 3650.311392
_symmetry_space_group_name_H-M "C M M M"
_symmetry_group_IT_number 65
_symmetry_cell_setting 'orthorhombic'
loop_
_space_group_symop_operation_xyz
x,y,z
-x,-y,z
x,-y,-z
-x,y,-z
-x,-y,-z
x,y,-z
-x,y,z
x,-y,z
1/2+x,1/2+y,z
1/2-x,1/2-y,z
1/2+x,1/2-y,-z
1/2-x,1/2+y,-z
1/2-x,1/2-y,-z
1/2+x,1/2+y,-z
1/2-x,1/2+y,z
1/2+x,1/2-y,z
loop_
_atom_site_type_symbol
_atom_site_label
_atom_site_fract_x
_atom_site_fract_y
_atom_site_fract_z
Si Si1 0.324589 0.500000 0.556395
Si Si2 0.824933 0.152134 0.364429
Si Si3 0.500000 0.500000 0.000000
Si Si4 0.174772 0.000000 0.713708
Si Si5 0.231534 0.360183 0.000000
Si Si6 0.325345 0.500000 0.829012
Si Si7 0.164717 0.654805 0.889990
O O1 0.500000 0.500000 0.555191
O O2 0.271189 0.500000 0.500000
O O3 0.284453 0.410233 0.587963
O O4 0.750000 0.250000 0.364697
O O5 0.000000 0.162009 0.364006
O O6 0.781191 0.090057 0.317007
O O7 0.375819 0.580400 0.000000
O O8 0.215850 0.000000 0.771034
O O9 0.000000 0.000000 0.712140
O O10 0.250000 0.250000 0.000000
O O11 0.160116 0.379655 0.053055
O O12 0.500000 0.500000 0.833863
O O13 0.256062 0.586094 0.856557
O O14 0.250000 0.750000 0.889630
O O15 0.000000 0.664799 0.872296
#
# Coordination Sequence:
#
# PCOD9493241 Si02
#       7
#     8  16   2   8   8   8  16
#     4   8  15  29  49  74 108 149 183 215 263 329
#     4   9  17  32  54  77 104 139 185 228 272 326
#     4  12  24  40  66  94 120 172 190 244 304 350
#     4   8  18  37  55  74 103 145 184 227 276 337
#     4  10  25  38  67  89 125 153 205 237 293 360
#     4  11  23  39  60  83 114 147 189 235 291 350
#     4  11  24  41  62  87 119 151 190 235 288 347
#
# _framework density 18.080649000000001
#
# number of rings (size 3 to 8) (size 9 to 14) (size 15 to 20)
#    0.000    2.303    0.000    3.636   10.182    1.455 
#    0.000    9.091    0.000    0.727    0.000    0.000 
#    0.000    0.000    0.000    0.000    0.000    0.000 
#
# Total GULP energy -183723.513985 kJ/mol
# GULP energy per Si atom -5567.379212 kJ/mol
# Density = 1.803950 g / cm^3
# Si number density = 18.080649 Si / 1000 Ang^3
#
#
#
# Elastic Constant Matrix: (Units=GPa)
#
#
# Indices 1 2 3 4 5 6 
#
# 1 99.4192 61.2389 42.8244 0.0000 0.0000 0.0000
# 2 61.2389 172.2365 88.3469 0.0000 0.0000 0.0000
# 3 42.8244 88.3469 174.3311 0.0000 0.0000 0.0000
# 4 0.0000 0.0000 0.0000 8.2731 0.0000 0.0000
# 5 0.0000 0.0000 0.0000 0.0000 22.2653 0.0000
# 6 0.0000 0.0000 0.0000 0.0000 0.0000 37.5705
#
#
#
# Elastic Compliance Matrix: (Units=1/GPa)
#
#
# Indices 1 2 3 4 5 6 
#
# 1 0.013049 -0.004047 -0.001154 0.000000 0.000000 0.000000
# 2 -0.004047 0.009101 -0.003618 0.000000 0.000000 0.000000
# 3 -0.001154 -0.003618 0.007853 0.000000 0.000000 0.000000
# 4 0.000000 0.000000 0.000000 0.120874 0.000000 0.000000
# 5 0.000000 0.000000 0.000000 0.000000 0.044913 0.000000
# 6 0.000000 0.000000 0.000000 0.000000 0.000000 0.026617
#
#
# Mechanical properties :
#
#
# Convention : Reuss Voigt Hill
#
# Bulk Modulus (GPa) = 80.88230 92.31191 86.59710
# Shear Modulus (GPa) = 20.47786 30.52689 25.50237
#
# Velocity S-wave (km/s) = 3.36904 4.11344 3.75971
# Velocity P-wave (km/s) = 7.74372 8.58644 8.17595
#
# Compressibility (1/GPa) = 0.01236364
#
# Stress axis : x y z
#
# Youngs Moduli (GPa) = 76.63609 109.88119 127.33710
#
# Poissons Ratio (x) = 0.44473 0.14698
# Poissons Ratio (y) = 0.31018 0.46068
# Poissons Ratio (z) = 0.08846 0.39753
#
# Static dielectric constant tensor:
#      x y z
#    x 1.607150 0.000000 0.000000 
#    y 0.000000 1.678160 0.000000 
#    z 0.000000 0.000000 1.636110 
# 
# From -- ./inp_files/72443.got.cif
#   From: 2010.05.17/outbox.cif.g08.bks.cpg/sg65_37_cif.got.tgz:72443.got - 2010.06.03 17:01:31.
