data_PCOD9493893
_publ_section_title
;
Structure prediction by ZEFSAII (Michael W. Deem and Ramdas Pophale) SiO2 
 PCOD9493893
Probable space group: C M M M
;
_chemical_formula_sum "Si O2"
_cell_formula_units_Z 88
_cell_length_a 21.770738
_cell_length_b 7.733704
_cell_length_c 24.767734
_cell_angle_alpha 90.000000
_cell_angle_beta 90.000000
_cell_angle_gamma 90.000000
_cell_volume 4170.104824
_symmetry_space_group_name_H-M "C M M M"
_symmetry_group_IT_number 65
_symmetry_cell_setting 'orthorhombic'
loop_
_space_group_symop_operation_xyz
x,y,z
-x,-y,z
x,-y,-z
-x,y,-z
-x,-y,-z
x,y,-z
-x,y,z
x,-y,z
1/2+x,1/2+y,z
1/2-x,1/2-y,z
1/2+x,1/2-y,-z
1/2-x,1/2+y,-z
1/2-x,1/2-y,-z
1/2+x,1/2+y,-z
1/2-x,1/2+y,z
1/2+x,1/2-y,z
loop_
_atom_site_type_symbol
_atom_site_label
_atom_site_fract_x
_atom_site_fract_y
_atom_site_fract_z
Si Si1 0.318611 0.291975 0.061813
Si Si2 0.932650 0.207550 0.740352
Si Si3 0.184920 0.296967 0.669908
Si Si4 0.865025 0.712899 0.438737
Si Si5 0.500000 0.804605 0.565412
Si Si6 0.431192 0.288708 0.864803
O O1 0.323222 0.500000 0.060113
O O2 0.250000 0.250000 0.082095
O O3 0.374745 0.228095 0.098528
O O4 0.323230 0.227209 0.000000
O O5 0.874807 0.253422 0.704291
O O6 0.924297 0.266023 0.802393
O O7 0.000000 0.269834 0.720868
O O8 0.935295 0.000000 0.741734
O O9 0.185226 0.500000 0.663555
O O10 0.250000 0.250000 0.695387
O O11 0.178397 0.223932 0.609082
O O12 0.850732 0.767976 0.500000
O O13 0.867047 0.500000 0.440195
O O14 0.933908 0.773609 0.422237
O O15 0.500000 0.816073 0.500000
O O16 0.500000 0.000000 0.587517
O O17 0.500000 0.237668 0.883112
O O18 0.430112 0.500000 0.865247
#
# Coordination Sequence:
#
# PCOD9493893 Si02
#       6
#    16  16  16  16   8  16
#     4   9  17  29  47  73 104 136 170 208 248 293
#     4   9  19  37  58  77 102 136 171 212 263 313
#     4  11  23  36  53  77 106 136 172 214 255 306
#     4   8  15  28  47  72 100 129 161 201 251 304
#     4   7  10  20  40  66  93 117 147 189 234 283
#     4   8  15  30  52  76 100 129 167 209 254 301
#
# _framework density 21.102587
#
# number of rings (size 3 to 8) (size 9 to 14) (size 15 to 20)
#    0.000    3.182    0.000    2.727    1.273    1.818 
#    0.000    4.545    0.000    3.273    0.000    3.818 
#    0.000    0.000    0.000    0.000    0.000    0.000 
#
# Total GULP energy -245266.025986 kJ/mol
# GULP energy per Si atom -5574.227863 kJ/mol
# Density = 2.105456 g / cm^3
# Si number density = 21.102587 Si / 1000 Ang^3
#
#
#
# Elastic Constant Matrix: (Units=GPa)
#
#
# Indices 1 2 3 4 5 6 
#
# 1 204.4835 6.6178 98.6525 0.0000 0.0000 0.0000
# 2 6.6178 31.0716 7.4247 0.0000 0.0000 0.0000
# 3 98.6525 7.4247 82.3253 0.0000 0.0000 0.0000
# 4 0.0000 0.0000 0.0000 7.3987 0.0000 0.0000
# 5 0.0000 0.0000 0.0000 0.0000 24.8006 0.0000
# 6 0.0000 0.0000 0.0000 0.0000 0.0000 16.3958
#
#
#
# Elastic Compliance Matrix: (Units=1/GPa)
#
#
# Indices 1 2 3 4 5 6 
#
# 1 0.011615 0.000871 -0.013997 0.000000 0.000000 0.000000
# 2 0.000871 0.032958 -0.004016 0.000000 0.000000 0.000000
# 3 -0.013997 -0.004016 0.029282 0.000000 0.000000 0.000000
# 4 0.000000 0.000000 0.000000 0.135159 0.000000 0.000000
# 5 0.000000 0.000000 0.000000 0.000000 0.040322 0.000000
# 6 0.000000 0.000000 0.000000 0.000000 0.000000 0.060991
#
#
# Mechanical properties :
#
#
# Convention : Reuss Voigt Hill
#
# Bulk Modulus (GPa) = 25.27122 60.36339 42.81730
# Shear Modulus (GPa) = 13.97421 23.39805 18.68613
#
# Velocity S-wave (km/s) = 2.57612 3.33344 2.97895
# Velocity P-wave (km/s) = 4.56618 6.59413 5.67153
#
# Compressibility (1/GPa) = 0.03957071
#
# Stress axis : x y z
#
# Youngs Moduli (GPa) = 86.09472 30.34170 34.15025
#
# Poissons Ratio (x) = -0.02642 0.47801
# Poissons Ratio (y) = -0.07498 0.13715
# Poissons Ratio (z) = 1.20509 0.12185
#
# Static dielectric constant tensor:
#      x y z
#    x 1.761920 0.000000 0.000000 
#    y 0.000000 1.790300 0.000000 
#    z 0.000000 0.000000 1.761700 
# 
# From -- ./inp_files/70935.got.cif
#   From: 2010.05.17/outbox.cif.g08.bks.cpg/sg65_36_cif.got.tgz:70935.got - 2010.06.03 17:01:31.
