data_PCOD9493531
_publ_section_title
;
Structure prediction by ZEFSAII (Michael W. Deem and Ramdas Pophale) SiO2 
 PCOD9493531
Probable space group: C M M M
;
_chemical_formula_sum "Si O2"
_cell_formula_units_Z 80
_cell_length_a 9.834296
_cell_length_b 26.512745
_cell_length_c 17.232933
_cell_angle_alpha 90.000000
_cell_angle_beta 90.000000
_cell_angle_gamma 90.000000
_cell_volume 4493.214691
_symmetry_space_group_name_H-M "C M M M"
_symmetry_group_IT_number 65
_symmetry_cell_setting 'orthorhombic'
loop_
_space_group_symop_operation_xyz
x,y,z
-x,-y,z
x,-y,-z
-x,y,-z
-x,-y,-z
x,y,-z
-x,y,z
x,-y,z
1/2+x,1/2+y,z
1/2-x,1/2-y,z
1/2+x,1/2-y,-z
1/2-x,1/2+y,-z
1/2-x,1/2-y,-z
1/2+x,1/2+y,-z
1/2-x,1/2+y,z
1/2+x,1/2-y,z
loop_
_atom_site_type_symbol
_atom_site_label
_atom_site_fract_x
_atom_site_fract_y
_atom_site_fract_z
Si Si1 0.661619 0.555445 0.350091
Si Si2 0.160087 0.164653 0.411079
Si Si3 0.000000 0.440243 0.913339
Si Si4 0.000000 0.060971 0.093374
Si Si5 0.334561 0.201385 0.731858
Si Si6 0.244630 0.402875 0.188928
O O1 0.500000 0.554952 0.333536
O O2 0.698433 0.500000 0.381085
O O3 0.682848 0.604170 0.403756
O O4 0.735488 0.566406 0.268935
O O5 0.176806 0.180553 0.500000
O O6 0.267240 0.189629 0.352616
O O7 0.000000 0.173984 0.388471
O O8 0.873466 0.423677 0.863667
O O9 0.000000 0.500000 0.919933
O O10 0.000000 0.418442 0.000000
O O11 0.874832 0.087670 0.135761
O O12 0.000000 0.000000 0.108289
O O13 0.000000 0.067157 0.000000
O O14 0.500000 0.206980 0.729358
O O15 0.250000 0.250000 0.760081
O O16 0.291771 0.153649 0.784413
#
# Coordination Sequence:
#
# PCOD9493531 Si02
#       6
#    16  16   8   8  16  16
#     4   9  16  28  51  80 112 154 196 231 271 328
#     4   9  19  35  56  86 121 152 189 240 294 348
#     4  11  22  36  57  87 124 159 187 227 285 345
#     4  11  22  36  61  95 126 159 195 231 281 343
#     4  11  24  41  64  87 109 152 202 249 301 347
#     4  11  21  37  57  87 121 156 195 243 286 342
#
# _framework density 17.804624
#
# number of rings (size 3 to 8) (size 9 to 14) (size 15 to 20)
#    0.000    1.800    2.000    3.000    2.800    2.800 
#    0.000    2.000    0.000    3.600    0.000    2.800 
#    0.000    0.000    0.000    0.000    0.000    0.000 
#
# Total GULP energy -222975.795422 kJ/mol
# GULP energy per Si atom -5574.394886 kJ/mol
# Density = 1.776410 g / cm^3
# Si number density = 17.804624 Si / 1000 Ang^3
#
#
#
# Elastic Constant Matrix: (Units=GPa)
#
#
# Indices 1 2 3 4 5 6 
#
# 1 147.4161 43.4905 47.1381 0.0000 0.0000 0.0000
# 2 43.4905 101.1256 19.6479 0.0000 0.0000 0.0000
# 3 47.1381 19.6479 84.0736 0.0000 0.0000 0.0000
# 4 0.0000 0.0000 0.0000 24.7261 0.0000 0.0000
# 5 0.0000 0.0000 0.0000 0.0000 23.9996 0.0000
# 6 0.0000 0.0000 0.0000 0.0000 0.0000 20.5286
#
#
#
# Elastic Compliance Matrix: (Units=1/GPa)
#
#
# Indices 1 2 3 4 5 6 
#
# 1 0.009086 -0.003056 -0.004380 0.000000 0.000000 0.000000
# 2 -0.003056 0.011387 -0.000947 0.000000 0.000000 0.000000
# 3 -0.004380 -0.000947 0.014571 0.000000 0.000000 0.000000
# 4 0.000000 0.000000 0.000000 0.040443 0.000000 0.000000
# 5 0.000000 0.000000 0.000000 0.000000 0.041667 0.000000
# 6 0.000000 0.000000 0.000000 0.000000 0.000000 0.048713
#
#
# Mechanical properties :
#
#
# Convention : Reuss Voigt Hill
#
# Bulk Modulus (GPa) = 54.71423 61.46316 58.08869
# Shear Modulus (GPa) = 26.49322 28.67343 27.58332
#
# Velocity S-wave (km/s) = 3.86164 4.01739 3.94029
# Velocity P-wave (km/s) = 7.11899 7.49100 7.30737
#
# Compressibility (1/GPa) = 0.01827678
#
# Stress axis : x y z
#
# Youngs Moduli (GPa) = 110.06230 87.81736 68.62723
#
# Poissons Ratio (x) = 0.26841 0.30058
# Poissons Ratio (y) = 0.33640 0.06502
# Poissons Ratio (z) = 0.48206 0.08321
#
# Static dielectric constant tensor:
#      x y z
#    x 1.570500 0.000000 0.000000 
#    y 0.000000 1.645980 0.000000 
#    z 0.000000 0.000000 1.586780 
# 
# From -- ./inp_files/49963.got.cif
#   From: 2010.05.17/outbox.cif.g08.bks.cpg/sg65_25_cif.got.tgz:49963.got - 2010.06.03 17:01:31.
