data_PCOD9493271
_publ_section_title
;
Structure prediction by ZEFSAII (Michael W. Deem and Ramdas Pophale) SiO2 
 PCOD9493271
Probable space group: C M M M
;
_chemical_formula_sum "Si O2"
_cell_formula_units_Z 96
_cell_length_a 30.811232
_cell_length_b 34.046452
_cell_length_c 8.077157
_cell_angle_alpha 90.000000
_cell_angle_beta 90.000000
_cell_angle_gamma 90.000000
_cell_volume 8473.043757
_symmetry_space_group_name_H-M "C M M M"
_symmetry_group_IT_number 65
_symmetry_cell_setting 'orthorhombic'
loop_
_space_group_symop_operation_xyz
x,y,z
-x,-y,z
x,-y,-z
-x,y,-z
-x,-y,-z
x,y,-z
-x,y,z
x,-y,z
1/2+x,1/2+y,z
1/2-x,1/2-y,z
1/2+x,1/2-y,-z
1/2-x,1/2+y,-z
1/2-x,1/2-y,-z
1/2+x,1/2+y,-z
1/2-x,1/2+y,z
1/2+x,1/2-y,z
loop_
_atom_site_type_symbol
_atom_site_label
_atom_site_fract_x
_atom_site_fract_y
_atom_site_fract_z
Si Si1 0.394999 0.618041 0.191596
Si Si2 0.049446 0.807913 0.300237
Si Si3 0.814665 0.839047 0.318203
Si Si4 0.267175 0.685803 0.000000
Si Si5 0.130353 0.757534 0.310158
Si Si6 0.049746 0.045107 0.700164
Si Si7 0.819868 0.268956 0.000000
O O1 0.429950 0.652153 0.230629
O O2 0.351695 0.628183 0.293088
O O3 0.416998 0.576667 0.230572
O O4 0.383153 0.621050 0.000000
O O5 0.049917 0.811658 0.500000
O O6 0.082258 0.772370 0.261459
O O7 0.000000 0.802320 0.245518
O O8 0.794383 0.842585 0.500000
O O9 0.841382 0.797862 0.314433
O O10 0.781901 0.836879 0.165166
O O11 0.217038 0.698007 0.000000
O O12 0.294252 0.726991 0.000000
O O13 0.130409 0.742183 0.500000
O O14 0.151428 0.731275 0.166936
O O15 0.050936 0.047043 0.500000
O O16 0.000000 0.054341 0.750689
O O17 0.058826 0.000000 0.748385
#
# Coordination Sequence:
#
# PCOD9493271 Si02
#       7
#    16  16  16   8  16  16   8
#     4  11  19  26  37  53  69  83 105 133 164 201
#     4   9  17  27  37  49  65  86 112 137 160 190
#     4   9  16  27  39  50  67  84 101 128 155 186
#     4   9  16  26  36  54  65  79 104 122 149 189
#     4   8  15  25  35  48  65  86 107 126 154 186
#     4   9  18  31  42  50  63  85 111 135 161 197
#     4   9  16  24  37  48  68  84  97 126 152 183
#
# _framework density 11.330048
#
# number of rings (size 3 to 8) (size 9 to 14) (size 15 to 20)
#    0.000    2.833    0.833    3.500    3.500    3.667 
#    0.000    4.167    0.000    0.000    0.000    0.000 
#    0.000    0.000    0.000    0.000    0.000    0.000 
#
# Total GULP energy -267270.805385 kJ/mol
# GULP energy per Si atom -5568.141779 kJ/mol
# Density = 1.130426 g / cm^3
# Si number density = 11.330048 Si / 1000 Ang^3
#
#
#
# Elastic Constant Matrix: (Units=GPa)
#
#
# Indices 1 2 3 4 5 6 
#
# 1 50.8328 27.8191 35.8870 0.0000 0.0000 0.0000
# 2 27.8191 25.9280 21.6503 0.0000 0.0000 0.0000
# 3 35.8870 21.6503 67.3237 0.0000 0.0000 0.0000
# 4 0.0000 0.0000 0.0000 11.1247 0.0000 0.0000
# 5 0.0000 0.0000 0.0000 0.0000 12.2244 0.0000
# 6 0.0000 0.0000 0.0000 0.0000 0.0000 16.2844
#
#
#
# Elastic Compliance Matrix: (Units=1/GPa)
#
#
# Indices 1 2 3 4 5 6 
#
# 1 0.056397 -0.048406 -0.014496 0.000000 0.000000 0.000000
# 2 -0.048406 0.094275 -0.004514 0.000000 0.000000 0.000000
# 3 -0.014496 -0.004514 0.024032 0.000000 0.000000 0.000000
# 4 0.000000 0.000000 0.000000 0.089890 0.000000 0.000000
# 5 0.000000 0.000000 0.000000 0.000000 0.081804 0.000000
# 6 0.000000 0.000000 0.000000 0.000000 0.000000 0.061409
#
#
# Mechanical properties :
#
#
# Convention : Reuss Voigt Hill
#
# Bulk Modulus (GPa) = 25.08070 34.97750 30.02910
# Shear Modulus (GPa) = 8.99394 11.84191 10.41793
#
# Velocity S-wave (km/s) = 2.82053 3.23643 3.03561
# Velocity P-wave (km/s) = 5.72640 6.70108 6.23282
#
# Compressibility (1/GPa) = 0.03987130
#
# Stress axis : x y z
#
# Youngs Moduli (GPa) = 17.73133 10.60732 41.61046
#
# Poissons Ratio (x) = 0.51346 0.60318
# Poissons Ratio (y) = 0.85831 0.18784
# Poissons Ratio (z) = 0.25703 0.04788
#
# Static dielectric constant tensor:
#      x y z
#    x 1.362460 0.000000 0.000000 
#    y 0.000000 1.335520 0.000000 
#    z 0.000000 0.000000 1.401890 
# 
# From -- ./inp_files/19177.got.cif
#   From: 2010.05.17/outbox.cif.g08.bks.cpg/sg65_10_cif.got.tgz:19177.got - 2010.06.03 17:01:31.
