data_PCOD9493481
_publ_section_title
;
Structure prediction by ZEFSAII (Michael W. Deem and Ramdas Pophale) SiO2 
 PCOD9493481
Probable space group: C M M M
;
_chemical_formula_sum "Si O2"
_cell_formula_units_Z 108
_cell_length_a 21.361582
_cell_length_b 23.507689
_cell_length_c 12.671251
_cell_angle_alpha 90.000000
_cell_angle_beta 90.000000
_cell_angle_gamma 90.000000
_cell_volume 6363.013474
_symmetry_space_group_name_H-M "C M M M"
_symmetry_group_IT_number 65
_symmetry_cell_setting 'orthorhombic'
loop_
_space_group_symop_operation_xyz
x,y,z
-x,-y,z
x,-y,-z
-x,y,-z
-x,-y,-z
x,y,-z
-x,y,z
x,-y,z
1/2+x,1/2+y,z
1/2-x,1/2-y,z
1/2+x,1/2-y,-z
1/2-x,1/2+y,-z
1/2-x,1/2-y,-z
1/2+x,1/2+y,-z
1/2-x,1/2+y,z
1/2+x,1/2-y,z
loop_
_atom_site_type_symbol
_atom_site_label
_atom_site_fract_x
_atom_site_fract_y
_atom_site_fract_z
Si Si1 0.424781 0.566936 0.500000
Si Si2 0.175675 0.251480 0.372783
Si Si3 0.074650 0.064792 0.124568
Si Si4 0.385577 0.127601 0.670766
Si Si5 0.500000 0.122455 0.500000
Si Si6 0.858535 0.128681 0.303616
Si Si7 0.741166 0.065794 0.377279
Si Si8 0.075525 0.565664 0.880051
O O1 0.407765 0.500000 0.500000
O O2 0.500000 0.571049 0.500000
O O3 0.396995 0.597374 0.396856
O O4 0.169890 0.249220 0.500000
O O5 0.250000 0.250000 0.348863
O O6 0.142426 0.308874 0.334747
O O7 0.143905 0.195554 0.324891
O O8 0.110661 0.109812 0.194786
O O9 0.000000 0.070125 0.140545
O O10 0.092062 0.000000 0.156500
O O11 0.086691 0.070622 0.000000
O O12 0.444719 0.122724 0.592842
O O13 0.329630 0.086547 0.632806
O O14 0.401796 0.107358 0.788786
O O15 0.788093 0.104650 0.311446
O O16 0.759745 0.072192 0.500000
O O17 0.747397 0.000000 0.347698
O O18 0.094742 0.500000 0.857582
O O19 0.000000 0.566256 0.879358
O O20 0.095805 0.579672 0.000000
#
# Coordination Sequence:
#
# PCOD9493481 Si02
#       8
#     8  16  16  16   4  16  16  16
#     4  11  22  34  52  85 123 148 179 238 307 357
#     4  11  22  40  61  79 114 162 201 240 292 354
#     4   9  19  38  62  87 119 157 195 241 298 355
#     4  12  22  41  58  87 123 155 205 245 297 356
#     4  12  24  36  59  88 122 162 195 256 296 354
#     4  12  21  37  58  85 115 152 201 241 289 350
#     4  11  21  34  56  85 117 150 189 240 297 364
#     4   9  19  38  63  88 117 156 199 246 305 362
#
# _framework density 16.973089000000002
#
# number of rings (size 3 to 8) (size 9 to 14) (size 15 to 20)
#    0.000    1.259    5.185    3.111    0.000    1.185 
#    4.000    2.963    0.000    5.333    0.000    0.000 
#    0.000    0.000    0.000    0.000    0.000    0.000 
#
# Total GULP energy -300961.103673 kJ/mol
# GULP energy per Si atom -5573.353772 kJ/mol
# Density = 1.693446 g / cm^3
# Si number density = 16.973089 Si / 1000 Ang^3
#
#
#
# Elastic Constant Matrix: (Units=GPa)
#
#
# Indices 1 2 3 4 5 6 
#
# 1 71.8110 20.4833 41.2769 0.0000 0.0000 0.0000
# 2 20.4833 86.5477 59.8569 0.0000 0.0000 0.0000
# 3 41.2769 59.8569 98.2250 0.0000 0.0000 0.0000
# 4 0.0000 0.0000 0.0000 7.6919 0.0000 0.0000
# 5 0.0000 0.0000 0.0000 0.0000 30.2589 0.0000
# 6 0.0000 0.0000 0.0000 0.0000 0.0000 12.3290
#
#
#
# Elastic Compliance Matrix: (Units=1/GPa)
#
#
# Indices 1 2 3 4 5 6 
#
# 1 0.018508 0.001726 -0.008830 0.000000 0.000000 0.000000
# 2 0.001726 0.020132 -0.012994 0.000000 0.000000 0.000000
# 3 -0.008830 -0.012994 0.021809 0.000000 0.000000 0.000000
# 4 0.000000 0.000000 0.000000 0.130006 0.000000 0.000000
# 5 0.000000 0.000000 0.000000 0.000000 0.033048 0.000000
# 6 0.000000 0.000000 0.000000 0.000000 0.000000 0.081109
#
#
# Mechanical properties :
#
#
# Convention : Reuss Voigt Hill
#
# Bulk Modulus (GPa) = 49.36881 55.53531 52.45206
# Shear Modulus (GPa) = 14.22232 19.05375 16.63804
#
# Velocity S-wave (km/s) = 2.89785 3.35414 3.13431
# Velocity P-wave (km/s) = 6.35188 6.91310 6.63842
#
# Compressibility (1/GPa) = 0.02025570
#
# Stress axis : x y z
#
# Youngs Moduli (GPa) = 54.02968 49.67129 45.85174
#
# Poissons Ratio (x) = -0.08575 0.40486
# Poissons Ratio (y) = -0.09327 0.59579
# Poissons Ratio (z) = 0.47707 0.64542
#
# Static dielectric constant tensor:
#      x y z
#    x 1.577840 0.000000 0.000000 
#    y 0.000000 1.568490 0.000000 
#    z 0.000000 0.000000 1.564880 
# 
# From -- ./inp_files/29409.got.cif
#   From: 2010.05.17/outbox.cif.g08.bks.cpg/sg65_15_cif.got.tgz:29409.got - 2010.06.03 17:01:31.
