data_PCOD9493111
_publ_section_title
;
Structure prediction by ZEFSAII (Michael W. Deem and Ramdas Pophale) SiO2 
 PCOD9493111
Probable space group: C M M M
;
_chemical_formula_sum "Si O2"
_cell_formula_units_Z 68
_cell_length_a 17.784494
_cell_length_b 7.689725
_cell_length_c 23.221424
_cell_angle_alpha 90.000000
_cell_angle_beta 90.000000
_cell_angle_gamma 90.000000
_cell_volume 3175.712441
_symmetry_space_group_name_H-M "C M M M"
_symmetry_group_IT_number 65
_symmetry_cell_setting 'orthorhombic'
loop_
_space_group_symop_operation_xyz
x,y,z
-x,-y,z
x,-y,-z
-x,y,-z
-x,-y,-z
x,y,-z
-x,y,z
x,-y,z
1/2+x,1/2+y,z
1/2-x,1/2-y,z
1/2+x,1/2-y,-z
1/2-x,1/2+y,-z
1/2-x,1/2-y,-z
1/2+x,1/2+y,-z
1/2-x,1/2+y,z
1/2+x,1/2-y,z
loop_
_atom_site_type_symbol
_atom_site_label
_atom_site_fract_x
_atom_site_fract_y
_atom_site_fract_z
Si Si1 0.913548 0.288530 0.702838
Si Si2 0.162179 0.798733 0.414495
Si Si3 0.336688 0.794981 0.181710
Si Si4 0.887555 0.500000 0.500000
Si Si5 0.585604 0.708257 0.063205
O O1 0.909892 0.500000 0.701551
O O2 0.861114 0.219532 0.651972
O O3 0.885679 0.224029 0.765235
O O4 0.000000 0.238156 0.692895
O O5 0.250000 0.750000 0.423025
O O6 0.116601 0.654784 0.450324
O O7 0.151315 0.000000 0.432056
O O8 0.250000 0.750000 0.189914
O O9 0.364485 0.746388 0.118311
O O10 0.344720 0.000000 0.185091
O O11 0.500000 0.773079 0.072058
O O12 0.581735 0.500000 0.059874
O O13 0.612006 0.771335 0.000000
#
# Coordination Sequence:
#
# PCOD9493111 Si02
#       5
#    16  16  16   4  16
#     4  10  22  43  65  90 126 163 204 261 321 372
#     4  12  24  40  68  99 129 169 215 256 314 378
#     4  11  23  38  61  90 123 163 208 259 315 369
#     4  12  24  44  67 100 133 170 206 266 312 366
#     4   9  19  37  60  87 121 162 206 255 313 374
#
# _framework density 21.412517000000001
#
# number of rings (size 3 to 8) (size 9 to 14) (size 15 to 20)
#    0.000    1.412    2.353    3.529    0.000    6.588 
#    0.000    2.353    0.000    1.412    0.000    0.000 
#    0.000    0.000    0.000    0.000    0.000    0.000 
#
# Total GULP energy -189451.362510 kJ/mol
# GULP energy per Si atom -5572.098897 kJ/mol
# Density = 2.136378 g / cm^3
# Si number density = 21.412517 Si / 1000 Ang^3
#
#
#
# Elastic Constant Matrix: (Units=GPa)
#
#
# Indices 1 2 3 4 5 6 
#
# 1 29.0622 6.4164 12.8168 0.0000 0.0000 0.0000
# 2 6.4164 121.2654 26.9822 0.0000 0.0000 0.0000
# 3 12.8168 26.9822 132.8206 0.0000 0.0000 0.0000
# 4 0.0000 0.0000 0.0000 33.3894 0.0000 0.0000
# 5 0.0000 0.0000 0.0000 0.0000 201.0432 0.0000
# 6 0.0000 0.0000 0.0000 0.0000 0.0000 525.6936
#
#
#
# Elastic Compliance Matrix: (Units=1/GPa)
#
#
# Indices 1 2 3 4 5 6 
#
# 1 0.036101 -0.001189 -0.003242 0.000000 0.000000 0.000000
# 2 -0.001189 0.008676 -0.001648 0.000000 0.000000 0.000000
# 3 -0.003242 -0.001648 0.008177 0.000000 0.000000 0.000000
# 4 0.000000 0.000000 0.000000 0.029950 0.000000 0.000000
# 5 0.000000 0.000000 0.000000 0.000000 0.004974 0.000000
# 6 0.000000 0.000000 0.000000 0.000000 0.000000 0.001902
#
#
# Mechanical properties :
#
#
# Convention : Reuss Voigt Hill
#
# Bulk Modulus (GPa) = 24.51208 41.73101 33.12154
# Shear Modulus (GPa) = 43.27661 167.82076 105.54869
#
# Velocity S-wave (km/s) = 4.50053 8.86257 7.02851
# Velocity P-wave (km/s) = 6.20312 11.14712 9.02045
#
# Compressibility (1/GPa) = 0.04079622
#
# Stress axis : x y z
#
# Youngs Moduli (GPa) = 27.69989 115.26161 122.30091
#
# Poissons Ratio (x) = 0.13702 0.39652
# Poissons Ratio (y) = 0.03293 0.20152
# Poissons Ratio (z) = 0.08981 0.18993
#
# Static dielectric constant tensor:
#      x y z
#    x 1.744450 0.000000 0.000000 
#    y 0.000000 1.779590 0.000000 
#    z 0.000000 0.000000 1.805320 
# 
# From -- ./inp_files/63347.got.cif
#   From: 2010.05.17/outbox.cif.g08.bks.cpg/sg65_32_cif.got.tgz:63347.got - 2010.06.03 17:01:31.
