data_PCOD9493474
_publ_section_title
;
Structure prediction by ZEFSAII (Michael W. Deem and Ramdas Pophale) SiO2 
 PCOD9493474
Probable space group: C M M M
;
_chemical_formula_sum "Si O2"
_cell_formula_units_Z 80
_cell_length_a 8.749808
_cell_length_b 18.414334
_cell_length_c 26.573729
_cell_angle_alpha 90.000000
_cell_angle_beta 90.000000
_cell_angle_gamma 90.000000
_cell_volume 4281.609360
_symmetry_space_group_name_H-M "C M M M"
_symmetry_group_IT_number 65
_symmetry_cell_setting 'orthorhombic'
loop_
_space_group_symop_operation_xyz
x,y,z
-x,-y,z
x,-y,-z
-x,y,-z
-x,-y,-z
x,y,-z
-x,y,z
x,-y,z
1/2+x,1/2+y,z
1/2-x,1/2-y,z
1/2+x,1/2-y,-z
1/2-x,1/2+y,-z
1/2-x,1/2-y,-z
1/2+x,1/2+y,-z
1/2-x,1/2+y,z
1/2+x,1/2-y,z
loop_
_atom_site_type_symbol
_atom_site_label
_atom_site_fract_x
_atom_site_fract_y
_atom_site_fract_z
Si Si1 0.318048 0.086078 0.746333
Si Si2 0.818390 0.830451 0.348926
Si Si3 0.182621 0.414109 0.441963
Si Si4 0.816691 0.331883 0.944916
Si Si5 0.317642 0.331610 0.841669
O O1 0.500000 0.098725 0.748878
O O2 0.252584 0.122410 0.696108
O O3 0.239415 0.122121 0.794618
O O4 0.290780 0.000000 0.745361
O O5 0.750000 0.750000 0.346368
O O6 0.771868 0.867144 0.401585
O O7 0.000000 0.827650 0.343603
O O8 0.220096 0.396409 0.500000
O O9 0.212529 0.500000 0.434463
O O10 0.000000 0.403374 0.435326
O O11 0.750000 0.250000 0.946424
O O12 0.744256 0.364120 0.894472
O O13 0.000000 0.328697 0.939687
O O14 0.781611 0.364968 0.000000
O O15 0.500000 0.327171 0.843020
O O16 0.250000 0.250000 0.836809
#
# Coordination Sequence:
#
# PCOD9493474 Si02
#       5
#    16  16  16  16  16
#     4  11  24  42  62  82 109 145 184 228 281 340
#     4  12  25  40  60  86 117 150 188 234 281 331
#     4   9  19  38  63  89 119 155 192 230 276 331
#     4   9  16  27  46  74 108 144 183 226 273 326
#     4  11  21  34  55  82 114 147 184 230 277 329
#
# _framework density 18.684563000000001
#
# number of rings (size 3 to 8) (size 9 to 14) (size 15 to 20)
#    0.000    1.600    0.000    7.800    0.000    6.400 
#    0.000    1.000    0.000    0.600    0.000    4.200 
#    0.000    0.000    0.000    0.000    0.000    0.000 
#
# Total GULP energy -223476.659954 kJ/mol
# GULP energy per Si atom -5586.916499 kJ/mol
# Density = 1.864204 g / cm^3
# Si number density = 18.684563 Si / 1000 Ang^3
#
#
#
# Elastic Constant Matrix: (Units=GPa)
#
#
# Indices 1 2 3 4 5 6 
#
# 1 139.7101 70.0660 85.9605 0.0000 0.0000 0.0000
# 2 70.0660 66.6205 68.5677 0.0000 0.0000 0.0000
# 3 85.9605 68.5677 152.9479 0.0000 0.0000 0.0000
# 4 0.0000 0.0000 0.0000 -138.3529 0.0000 0.0000
# 5 0.0000 0.0000 0.0000 0.0000 114.4739 0.0000
# 6 0.0000 0.0000 0.0000 0.0000 0.0000 24.8399
#
#
#
# Elastic Compliance Matrix: (Units=1/GPa)
#
#
# Indices 1 2 3 4 5 6 
#
# 1 0.015700 -0.013796 -0.002639 0.000000 0.000000 0.000000
# 2 -0.013796 0.039993 -0.010175 0.000000 0.000000 0.000000
# 3 -0.002639 -0.010175 0.012583 0.000000 0.000000 0.000000
# 4 0.000000 0.000000 0.000000 -0.007228 0.000000 0.000000
# 5 0.000000 0.000000 0.000000 0.000000 0.008736 0.000000
# 6 0.000000 0.000000 0.000000 0.000000 0.000000 0.040258
#
#
# Mechanical properties :
#
#
# Convention : Reuss Voigt Hill
#
# Bulk Modulus (GPa) = 66.42235 89.82966 78.12601
# Shear Modulus (GPa) = 29.71215 9.17111 19.44163
#
# Velocity S-wave (km/s) = 3.99205 2.21789 3.22921
# Velocity P-wave (km/s) = 7.54156 7.39865 7.47045
#
# Compressibility (1/GPa) = 0.01505517
#
# Stress axis : x y z
#
# Youngs Moduli (GPa) = 63.69283 25.00447 79.47200
#
# Poissons Ratio (x) = 0.34497 0.20973
# Poissons Ratio (y) = 0.87872 0.80865
# Poissons Ratio (z) = 0.16809 0.25443
#
# Static dielectric constant tensor:
#      x y z
#    x 1.620820 0.000000 0.000000 
#    y 0.000000 1.615810 0.000000 
#    z 0.000000 0.000000 1.662340 
# 
# From -- ./inp_files/72802.got.cif
#   From: 2010.05.17/outbox.cif.g08.bks.cpg/sg65_37_cif.got.tgz:72802.got - 2010.06.03 17:01:31.
