data_PCOD9493605
_publ_section_title
;
Structure prediction by ZEFSAII (Michael W. Deem and Ramdas Pophale) SiO2 
 PCOD9493605
Probable space group: C M M M
;
_chemical_formula_sum "Si O2"
_cell_formula_units_Z 72
_cell_length_a 9.164586
_cell_length_b 18.686146
_cell_length_c 24.173776
_cell_angle_alpha 90.000000
_cell_angle_beta 90.000000
_cell_angle_gamma 90.000000
_cell_volume 4139.778286
_symmetry_space_group_name_H-M "C M M M"
_symmetry_group_IT_number 65
_symmetry_cell_setting 'orthorhombic'
loop_
_space_group_symop_operation_xyz
x,y,z
-x,-y,z
x,-y,-z
-x,y,-z
-x,-y,-z
x,y,-z
-x,y,z
x,-y,z
1/2+x,1/2+y,z
1/2-x,1/2-y,z
1/2+x,1/2-y,-z
1/2-x,1/2+y,-z
1/2-x,1/2-y,-z
1/2+x,1/2+y,-z
1/2-x,1/2+y,z
1/2+x,1/2-y,z
loop_
_atom_site_type_symbol
_atom_site_label
_atom_site_fract_x
_atom_site_fract_y
_atom_site_fract_z
Si Si1 0.174759 0.414458 0.233856
Si Si2 0.322819 0.417645 0.561956
Si Si3 0.832300 0.087385 0.000000
Si Si4 0.176081 0.172838 0.668755
Si Si5 0.831309 0.412946 0.109954
O O1 0.196966 0.500000 0.238809
O O2 0.264736 0.373630 0.280172
O O3 0.218614 0.391652 0.171428
O O4 0.000000 0.401784 0.239505
O O5 0.275010 0.396227 0.500000
O O6 0.500000 0.417928 0.561573
O O7 0.276746 0.500000 0.571598
O O8 0.278479 0.366637 0.611759
O O9 0.756887 0.112027 0.056638
O O10 0.000000 0.107772 0.000000
O O11 0.823842 0.000000 0.000000
O O12 0.250000 0.250000 0.671065
O O13 0.000000 0.177797 0.670392
O O14 0.827082 0.500000 0.109999
O O15 0.000000 0.392267 0.103726
#
# Coordination Sequence:
#
# PCOD9493605 Si02
#       5
#    16  16   8  16  16
#     4   9  18  33  52  73  98 129 166 209 254 299
#     4   8  15  30  52  76 100 127 162 203 246 294
#     4   9  15  21  33  59  94 125 154 195 242 283
#     4  11  22  34  50  73 101 134 170 207 249 295
#     4   8  14  25  41  61  88 124 160 193 238 295
#
# _framework density 17.392237000000002
#
# number of rings (size 3 to 8) (size 9 to 14) (size 15 to 20)
#    0.000    3.000    0.000    3.667    0.000    4.000 
#    0.000    2.222    0.000    2.000    0.000    8.556 
#    0.000    0.000    0.000    0.000    0.000    0.000 
#
# Total GULP energy -200546.503785 kJ/mol
# GULP energy per Si atom -5570.736216 kJ/mol
# Density = 1.735265 g / cm^3
# Si number density = 17.392237 Si / 1000 Ang^3
#
#
#
# Elastic Constant Matrix: (Units=GPa)
#
#
# Indices 1 2 3 4 5 6 
#
# 1 56.2592 37.0119 78.0192 0.0000 0.0000 0.0000
# 2 37.0119 50.1189 68.6129 0.0000 0.0000 0.0000
# 3 78.0192 68.6129 196.4510 0.0000 0.0000 0.0000
# 4 0.0000 0.0000 0.0000 -5.3041 0.0000 0.0000
# 5 0.0000 0.0000 0.0000 0.0000 25.1077 0.0000
# 6 0.0000 0.0000 0.0000 0.0000 0.0000 12.1262
#
#
#
# Elastic Compliance Matrix: (Units=1/GPa)
#
#
# Indices 1 2 3 4 5 6 
#
# 1 0.046231 -0.017256 -0.012333 0.000000 0.000000 0.000000
# 2 -0.017256 0.044675 -0.008750 0.000000 0.000000 0.000000
# 3 -0.012333 -0.008750 0.013044 0.000000 0.000000 0.000000
# 4 0.000000 0.000000 0.000000 -0.188534 0.000000 0.000000
# 5 0.000000 0.000000 0.000000 0.000000 0.039828 0.000000
# 6 0.000000 0.000000 0.000000 0.000000 0.000000 0.082466
#
#
# Mechanical properties :
#
#
# Convention : Reuss Voigt Hill
#
# Bulk Modulus (GPa) = 36.66906 74.45747 55.56326
# Shear Modulus (GPa) = 40.49195 14.33163 27.41179
#
# Velocity S-wave (km/s) = 4.83034 2.87370 3.97431
# Velocity P-wave (km/s) = 7.22765 7.34265 7.28538
#
# Compressibility (1/GPa) = 0.02727095
#
# Stress axis : x y z
#
# Youngs Moduli (GPa) = 21.63034 22.38398 76.66072
#
# Poissons Ratio (x) = 0.38627 0.94549
# Poissons Ratio (y) = 0.37326 0.67078
# Poissons Ratio (z) = 0.26678 0.19586
#
# Static dielectric constant tensor:
#      x y z
#    x 1.577440 0.000000 0.000000 
#    y 0.000000 1.567720 0.000000 
#    z 0.000000 0.000000 1.604630 
# 
# From -- ./inp_files/66978.got.cif
#   From: 2010.05.17/outbox.cif.g08.bks.cpg/sg65_34_cif.got.tgz:66978.got - 2010.06.03 17:01:31.
