data_PCOD9493044
_publ_section_title
;
Structure prediction by ZEFSAII (Michael W. Deem and Ramdas Pophale) SiO2 
 PCOD9493044
Probable space group: C M M M
;
_chemical_formula_sum "Si O2"
_cell_formula_units_Z 58
_cell_length_a 37.398714
_cell_length_b 10.527183
_cell_length_c 8.055078
_cell_angle_alpha 90.000000
_cell_angle_beta 90.000000
_cell_angle_gamma 90.000000
_cell_volume 3171.309230
_symmetry_space_group_name_H-M "C M M M"
_symmetry_group_IT_number 65
_symmetry_cell_setting 'orthorhombic'
loop_
_space_group_symop_operation_xyz
x,y,z
-x,-y,z
x,-y,-z
-x,y,-z
-x,-y,-z
x,y,-z
-x,y,z
x,-y,z
1/2+x,1/2+y,z
1/2-x,1/2-y,z
1/2+x,1/2-y,-z
1/2-x,1/2+y,-z
1/2-x,1/2-y,-z
1/2+x,1/2+y,-z
1/2-x,1/2+y,z
1/2+x,1/2-y,z
loop_
_atom_site_type_symbol
_atom_site_label
_atom_site_fract_x
_atom_site_fract_y
_atom_site_fract_z
Si Si1 0.797719 0.000000 0.801909
Si Si2 0.911358 0.652913 0.304683
Si Si3 0.168121 0.264660 0.302798
Si Si4 0.500000 0.500000 0.000000
Si Si5 0.783181 0.500000 0.803200
Si Si6 0.539378 0.763670 0.000000
O O1 0.818049 0.127348 0.750180
O O2 0.757096 0.000000 0.732758
O O3 0.795712 0.000000 0.000000
O O4 0.918531 0.688698 0.500000
O O5 0.909635 0.500000 0.300584
O O6 0.872552 0.706106 0.251445
O O7 0.939644 0.699017 0.167673
O O8 0.167889 0.270691 0.500000
O O9 0.194716 0.375023 0.243953
O O10 0.530578 0.386266 0.000000
O O11 0.779911 0.500000 0.000000
O O12 0.500000 0.827098 0.000000
#
# Coordination Sequence:
#
# PCOD9493044 Si02
#       6
#     8  16  16   2   8   8
#     4  11  25  40  56  90 127 171 220 274 325 383
#     4  10  22  40  66 100 130 163 212 266 319 379
#     4  11  23  40  62  91 125 168 220 268 323 383
#     4   8  24  48  60  96 132 158 216 238 294 400
#     4  11  23  39  62  88 126 170 218 271 330 380
#     4  10  23  44  68  95 127 167 204 247 312 386
#
# _framework density 18.288976000000002
#
# number of rings (size 3 to 8) (size 9 to 14) (size 15 to 20)
#    0.414    1.103    1.379    2.897    3.862    8.276 
#    0.000    4.138    0.000    0.000    0.000    0.000 
#    0.000    0.000    0.000    0.000    0.000    0.000 
#
# Total GULP energy -161569.977296 kJ/mol
# GULP energy per Si atom -5571.378527 kJ/mol
# Density = 1.824735 g / cm^3
# Si number density = 18.288976 Si / 1000 Ang^3
#
#
#
# Elastic Constant Matrix: (Units=GPa)
#
#
# Indices 1 2 3 4 5 6 
#
# 1 176.5857 82.3523 79.2520 0.0000 0.0000 0.0000
# 2 82.3523 144.8573 36.0765 0.0000 0.0000 0.0000
# 3 79.2520 36.0765 73.5665 0.0000 0.0000 0.0000
# 4 0.0000 0.0000 0.0000 29.6872 0.0000 0.0000
# 5 0.0000 0.0000 0.0000 0.0000 55.2589 0.0000
# 6 0.0000 0.0000 0.0000 0.0000 0.0000 94.1835
#
#
#
# Elastic Compliance Matrix: (Units=1/GPa)
#
#
# Indices 1 2 3 4 5 6 
#
# 1 0.013100 -0.004480 -0.011915 0.000000 0.000000 0.000000
# 2 -0.004480 0.009396 0.000218 0.000000 0.000000 0.000000
# 3 -0.011915 0.000218 0.026322 0.000000 0.000000 0.000000
# 4 0.000000 0.000000 0.000000 0.033685 0.000000 0.000000
# 5 0.000000 0.000000 0.000000 0.000000 0.018097 0.000000
# 6 0.000000 0.000000 0.000000 0.000000 0.000000 0.010618
#
#
# Mechanical properties :
#
#
# Convention : Reuss Voigt Hill
#
# Bulk Modulus (GPa) = 60.73739 87.81903 74.27821
# Shear Modulus (GPa) = 33.54396 48.98115 41.26255
#
# Velocity S-wave (km/s) = 4.28729 5.18073 4.75504
# Velocity P-wave (km/s) = 7.60196 9.16015 8.41719
#
# Compressibility (1/GPa) = 0.01646432
#
# Stress axis : x y z
#
# Youngs Moduli (GPa) = 76.33696 106.43107 37.99072
#
# Poissons Ratio (x) = 0.47679 0.45267
# Poissons Ratio (y) = 0.34198 -0.00830
# Poissons Ratio (z) = 0.90958 -0.02325
#
# Static dielectric constant tensor:
#      x y z
#    x 1.659920 0.000000 0.000000 
#    y 0.000000 1.581990 0.000000 
#    z 0.000000 0.000000 1.630740 
# 
# From -- ./inp_files/17764.got.cif
#   From: 2010.05.17/outbox.cif.g08.bks.cpg/sg65_9_cif.got.tgz:17764.got - 2010.06.03 17:01:31.
