data_PCOD9493511
_publ_section_title
;
Structure prediction by ZEFSAII (Michael W. Deem and Ramdas Pophale) SiO2 
 PCOD9493511
Probable space group: C M M M
;
_chemical_formula_sum "Si O2"
_cell_formula_units_Z 72
_cell_length_a 14.765902
_cell_length_b 14.709049
_cell_length_c 17.415961
_cell_angle_alpha 90.000000
_cell_angle_beta 90.000000
_cell_angle_gamma 90.000000
_cell_volume 3782.613951
_symmetry_space_group_name_H-M "C M M M"
_symmetry_group_IT_number 65
_symmetry_cell_setting 'orthorhombic'
loop_
_space_group_symop_operation_xyz
x,y,z
-x,-y,z
x,-y,-z
-x,y,-z
-x,-y,-z
x,y,-z
-x,y,z
x,-y,z
1/2+x,1/2+y,z
1/2-x,1/2-y,z
1/2+x,1/2-y,-z
1/2-x,1/2+y,-z
1/2-x,1/2-y,-z
1/2+x,1/2+y,-z
1/2-x,1/2+y,z
1/2+x,1/2-y,z
loop_
_atom_site_type_symbol
_atom_site_label
_atom_site_fract_x
_atom_site_fract_y
_atom_site_fract_z
Si Si1 0.000000 0.608426 0.591819
Si Si2 0.348538 0.772790 0.676468
Si Si3 0.896473 0.898010 0.775401
Si Si4 0.739475 0.358238 0.085104
Si Si5 0.395165 0.103319 0.813389
O O1 0.914592 0.666129 0.624360
O O2 0.000000 0.500000 0.614519
O O3 0.000000 0.610345 0.500000
O O4 0.250000 0.750000 0.643170
O O5 0.385486 0.677231 0.709103
O O6 0.342151 0.833320 0.753862
O O7 0.830477 0.883427 0.847757
O O8 0.000000 0.892050 0.802869
O O9 0.879852 0.000000 0.745325
O O10 0.750000 0.250000 0.084277
O O11 0.838593 0.393996 0.108715
O O12 0.712109 0.388702 0.000000
O O13 0.500000 0.133400 0.819457
O O14 0.395318 0.000000 0.784856
#
# Coordination Sequence:
#
# PCOD9493511 Si02
#       5
#     8  16  16  16  16
#     4  11  26  48  75 107 140 173 209 257 325 400
#     4  12  22  39  68  99 132 165 214 266 320 382
#     4  11  22  37  60  88 119 166 221 266 322 390
#     4  11  23  38  55  82 123 167 218 286 345 387
#     4  11  21  35  60  90 119 163 220 271 328 393
#
# _framework density 19.034457
#
# number of rings (size 3 to 8) (size 9 to 14) (size 15 to 20)
#    0.000    0.778    6.667    1.333    0.000    4.000 
#    0.000    4.444    0.000    1.333    0.000    0.000 
#    0.000    0.000    0.000    0.000    0.000    0.000 
#
# Total GULP energy -200857.174894 kJ/mol
# GULP energy per Si atom -5579.365969 kJ/mol
# Density = 1.899113 g / cm^3
# Si number density = 19.034457 Si / 1000 Ang^3
#
#
#
# Elastic Constant Matrix: (Units=GPa)
#
#
# Indices 1 2 3 4 5 6 
#
# 1 124.2406 43.1224 38.9396 0.0000 0.0000 0.0000
# 2 43.1224 149.9952 44.9578 0.0000 0.0000 0.0000
# 3 38.9396 44.9578 84.5636 0.0000 0.0000 0.0000
# 4 0.0000 0.0000 0.0000 9.1572 0.0000 0.0000
# 5 0.0000 0.0000 0.0000 0.0000 21.2107 0.0000
# 6 0.0000 0.0000 0.0000 0.0000 0.0000 -6.5982
#
#
#
# Elastic Compliance Matrix: (Units=1/GPa)
#
#
# Indices 1 2 3 4 5 6 
#
# 1 0.009773 -0.001738 -0.003576 0.000000 0.000000 0.000000
# 2 -0.001738 0.008240 -0.003580 0.000000 0.000000 0.000000
# 3 -0.003576 -0.003580 0.015376 0.000000 0.000000 0.000000
# 4 0.000000 0.000000 0.000000 0.109204 0.000000 0.000000
# 5 0.000000 0.000000 0.000000 0.000000 0.047146 0.000000
# 6 0.000000 0.000000 0.000000 0.000000 0.000000 -0.151557
#
#
# Mechanical properties :
#
#
# Convention : Reuss Voigt Hill
#
# Bulk Modulus (GPa) = 64.10508 68.09322 66.09915
# Shear Modulus (GPa) = 81.73933 20.20590 50.97262
#
# Velocity S-wave (km/s) = 6.56019 3.26167 5.18047
# Velocity P-wave (km/s) = 9.54636 7.07361 8.40146
#
# Compressibility (1/GPa) = 0.01559939
#
# Stress axis : x y z
#
# Youngs Moduli (GPa) = 102.32328 121.36521 65.03751
#
# Poissons Ratio (x) = 0.21090 0.23260
# Poissons Ratio (y) = 0.17781 0.23286
# Poissons Ratio (z) = 0.36595 0.43453
#
# Static dielectric constant tensor:
#      x y z
#    x 1.696330 0.000000 0.000000 
#    y 0.000000 1.705960 0.000000 
#    z 0.000000 0.000000 1.641730 
# 
# From -- ./inp_files/52727.got.cif
#   From: 2010.05.17/outbox.cif.g08.bks.cpg/sg65_27_cif.got.tgz:52727.got - 2010.06.03 17:01:31.
