data_PCOD9493690
_publ_section_title
;
Structure prediction by ZEFSAII (Michael W. Deem and Ramdas Pophale) SiO2 
 PCOD9493690
Probable space group: C M M M
;
_chemical_formula_sum "Si O2"
_cell_formula_units_Z 80
_cell_length_a 8.360368
_cell_length_b 18.516843
_cell_length_c 26.805978
_cell_angle_alpha 90.000000
_cell_angle_beta 90.000000
_cell_angle_gamma 90.000000
_cell_volume 4149.769701
_symmetry_space_group_name_H-M "C M M M"
_symmetry_group_IT_number 65
_symmetry_cell_setting 'orthorhombic'
loop_
_space_group_symop_operation_xyz
x,y,z
-x,-y,z
x,-y,-z
-x,y,-z
-x,-y,-z
x,y,-z
-x,y,z
x,-y,z
1/2+x,1/2+y,z
1/2-x,1/2-y,z
1/2+x,1/2-y,-z
1/2-x,1/2+y,-z
1/2-x,1/2-y,-z
1/2+x,1/2+y,-z
1/2-x,1/2+y,z
1/2+x,1/2-y,z
loop_
_atom_site_type_symbol
_atom_site_label
_atom_site_fract_x
_atom_site_fract_y
_atom_site_fract_z
Si Si1 0.314435 0.087911 0.000000
Si Si2 0.695350 0.416824 0.303651
Si Si3 0.308267 0.332200 0.402613
Si Si4 0.306160 0.083669 0.891350
Si Si5 0.308472 0.668246 0.794876
Si Si6 0.191694 0.583099 0.500000
O O1 0.245411 0.108743 0.946129
O O2 0.500000 0.111459 0.000000
O O3 0.315269 0.000000 0.000000
O O4 0.500000 0.416893 0.303669
O O5 0.747543 0.500000 0.305772
O O6 0.747731 0.372384 0.352255
O O7 0.748180 0.378090 0.252818
O O8 0.500000 0.332213 0.402554
O O9 0.250000 0.250000 0.403863
O O10 0.250216 0.375465 0.450936
O O11 0.500000 0.084210 0.893228
O O12 0.249951 0.132159 0.845951
O O13 0.256725 0.000000 0.883671
O O14 0.500000 0.667620 0.794611
O O15 0.250000 0.750000 0.790682
O O16 0.248749 0.500000 0.500000
O O17 0.000000 0.582934 0.500000
#
# Coordination Sequence:
#
# PCOD9493690 Si02
#       6
#     8  16  16  16  16   8
#     4   7  12  26  50  77 104 135 171 215 266 319
#     4   9  19  36  58  83 109 140 180 225 272 323
#     4  11  22  38  61  86 115 150 187 225 269 324
#     4   9  17  32  55  81 107 137 176 220 268 324
#     4  11  22  36  54  77 109 145 181 223 271 322
#     4  11  24  41  60  85 117 149 186 233 278 321
#
# _framework density 19.278176999999999
#
# number of rings (size 3 to 8) (size 9 to 14) (size 15 to 20)
#    0.000    2.200    0.000    4.800    0.000    2.800 
#    0.000    4.000    0.000    9.000    0.000    0.000 
#    0.000    0.000    0.000    0.000    0.000    0.000 
#
# Total GULP energy -223330.496757 kJ/mol
# GULP energy per Si atom -5583.262419 kJ/mol
# Density = 1.923430 g / cm^3
# Si number density = 19.278177 Si / 1000 Ang^3
#
#
#
# Elastic Constant Matrix: (Units=GPa)
#
#
# Indices 1 2 3 4 5 6 
#
# 1 26.8551 24.2007 27.0438 0.0000 0.0000 0.0000
# 2 24.2007 176.0632 120.7877 0.0000 0.0000 0.0000
# 3 27.0438 120.7877 224.2279 0.0000 0.0000 0.0000
# 4 0.0000 0.0000 0.0000 -38.3472 0.0000 0.0000
# 5 0.0000 0.0000 0.0000 0.0000 12.1067 0.0000
# 6 0.0000 0.0000 0.0000 0.0000 0.0000 -33.5389
#
#
#
# Elastic Compliance Matrix: (Units=1/GPa)
#
#
# Indices 1 2 3 4 5 6 
#
# 1 0.043942 -0.003813 -0.003246 0.000000 0.000000 0.000000
# 2 -0.003813 0.009340 -0.004571 0.000000 0.000000 0.000000
# 3 -0.003246 -0.004571 0.007314 0.000000 0.000000 0.000000
# 4 0.000000 0.000000 0.000000 -0.026078 0.000000 0.000000
# 5 0.000000 0.000000 0.000000 0.000000 0.082599 0.000000
# 6 0.000000 0.000000 0.000000 0.000000 0.000000 -0.029816
#
#
# Mechanical properties :
#
#
# Convention : Reuss Voigt Hill
#
# Bulk Modulus (GPa) = 26.78462 85.69006 56.23734
# Shear Modulus (GPa) = 40.64821 5.05173 22.84997
#
# Velocity S-wave (km/s) = 4.59683 1.62053 3.44652
# Velocity P-wave (km/s) = 6.48833 6.93161 6.71363
#
# Compressibility (1/GPa) = 0.03733486
#
# Stress axis : x y z
#
# Youngs Moduli (GPa) = 22.75742 107.06416 136.72859
#
# Poissons Ratio (x) = 0.40828 0.44376
# Poissons Ratio (y) = 0.08678 0.62505
# Poissons Ratio (z) = 0.07386 0.48944
#
# Static dielectric constant tensor:
#      x y z
#    x 1.668970 0.000000 0.000000 
#    y 0.000000 1.636350 0.000000 
#    z 0.000000 0.000000 1.672870 
# 
# From -- ./inp_files/73007.got.cif
#   From: 2010.05.17/outbox.cif.g08.bks.cpg/sg65_37_cif.got.tgz:73007.got - 2010.06.03 17:01:31.
