data_PCOD9493748
_publ_section_title
;
Structure prediction by ZEFSAII (Michael W. Deem and Ramdas Pophale) SiO2 
 PCOD9493748
Probable space group: C M M M
;
_chemical_formula_sum "Si O2"
_cell_formula_units_Z 56
_cell_length_a 15.546913
_cell_length_b 8.734948
_cell_length_c 20.527255
_cell_angle_alpha 90.000000
_cell_angle_beta 90.000000
_cell_angle_gamma 90.000000
_cell_volume 2787.631540
_symmetry_space_group_name_H-M "C M M M"
_symmetry_group_IT_number 65
_symmetry_cell_setting 'orthorhombic'
loop_
_space_group_symop_operation_xyz
x,y,z
-x,-y,z
x,-y,-z
-x,y,-z
-x,-y,-z
x,y,-z
-x,y,z
x,-y,z
1/2+x,1/2+y,z
1/2-x,1/2-y,z
1/2+x,1/2-y,-z
1/2-x,1/2+y,-z
1/2-x,1/2-y,-z
1/2+x,1/2+y,-z
1/2-x,1/2+y,z
1/2+x,1/2-y,z
loop_
_atom_site_type_symbol
_atom_site_label
_atom_site_fract_x
_atom_site_fract_y
_atom_site_fract_z
Si Si1 0.655182 0.680582 0.795970
Si Si2 0.847422 0.316996 0.337992
Si Si3 0.602629 0.826287 0.928365
Si Si4 0.500000 0.318031 0.577499
O O1 0.655123 0.500000 0.785057
O O2 0.750000 0.750000 0.797846
O O3 0.616207 0.762112 0.732469
O O4 0.619354 0.720888 0.866739
O O5 0.842126 0.500000 0.339382
O O6 0.750000 0.250000 0.345849
O O7 0.914505 0.255336 0.391020
O O8 0.500000 0.837217 0.932968
O O9 0.636016 0.000000 0.916470
O O10 0.634501 0.774862 0.000000
O O11 0.500000 0.500000 0.590975
O O12 0.500000 0.295035 0.500000
#
# Coordination Sequence:
#
# PCOD9493748 Si02
#       4
#    16  16  16   8
#     4  11  22  37  58  84 116 153 199 250 301 361
#     4  11  23  42  67  95 130 169 211 261 313 371
#     4   9  19  36  56  79 111 151 196 246 302 362
#     4  11  25  45  69  99 132 167 210 255 305 371
#
# _framework density 20.088737999999999
#
# number of rings (size 3 to 8) (size 9 to 14) (size 15 to 20)
#    0.000    1.571    0.000    8.143    2.000    3.429 
#    0.000    1.429    0.000    0.000    0.000    0.000 
#    0.000    0.000    0.000    0.000    0.000    0.000 
#
# Total GULP energy -156297.492323 kJ/mol
# GULP energy per Si atom -5582.053297 kJ/mol
# Density = 2.004302 g / cm^3
# Si number density = 20.088738 Si / 1000 Ang^3
#
#
#
# Elastic Constant Matrix: (Units=GPa)
#
#
# Indices 1 2 3 4 5 6 
#
# 1 70.9949 48.6912 53.6429 0.0000 0.0000 0.0000
# 2 48.6912 184.4802 93.0852 0.0000 0.0000 0.0000
# 3 53.6429 93.0852 142.9664 0.0000 0.0000 0.0000
# 4 0.0000 0.0000 0.0000 32.9854 0.0000 0.0000
# 5 0.0000 0.0000 0.0000 0.0000 53.8706 0.0000
# 6 0.0000 0.0000 0.0000 0.0000 0.0000 25.1764
#
#
#
# Elastic Compliance Matrix: (Units=1/GPa)
#
#
# Indices 1 2 3 4 5 6 
#
# 1 0.020268 -0.002252 -0.006139 0.000000 0.000000 0.000000
# 2 -0.002252 0.008323 -0.004574 0.000000 0.000000 0.000000
# 3 -0.006139 -0.004574 0.012276 0.000000 0.000000 0.000000
# 4 0.000000 0.000000 0.000000 0.030316 0.000000 0.000000
# 5 0.000000 0.000000 0.000000 0.000000 0.018563 0.000000
# 6 0.000000 0.000000 0.000000 0.000000 0.000000 0.039720
#
#
# Mechanical properties :
#
#
# Convention : Reuss Voigt Hill
#
# Bulk Modulus (GPa) = 66.94389 87.69777 77.32083
# Shear Modulus (GPa) = 31.17678 35.94129 33.55903
#
# Velocity S-wave (km/s) = 3.94376 4.23440 4.09166
# Velocity P-wave (km/s) = 7.35759 8.22537 7.80355
#
# Compressibility (1/GPa) = 0.01493788
#
# Stress axis : x y z
#
# Youngs Moduli (GPa) = 49.33791 120.14799 81.45907
#
# Poissons Ratio (x) = 0.27059 0.50004
# Poissons Ratio (y) = 0.11112 0.37260
# Poissons Ratio (z) = 0.30286 0.54957
#
# Static dielectric constant tensor:
#      x y z
#    x 1.704710 0.000000 0.000000 
#    y 0.000000 1.694590 0.000000 
#    z 0.000000 0.000000 1.772330 
# 
# From -- ./inp_files/48766.got.cif
#   From: 2010.05.17/outbox.cif.g08.bks.cpg/sg65_25_cif.got.tgz:48766.got - 2010.06.03 17:01:31.
