data_PCOD9493582
_publ_section_title
;
Structure prediction by ZEFSAII (Michael W. Deem and Ramdas Pophale) SiO2 
 PCOD9493582
Probable space group: C M M M
;
_chemical_formula_sum "Si O2"
_cell_formula_units_Z 88
_cell_length_a 7.657210
_cell_length_b 31.547082
_cell_length_c 18.303693
_cell_angle_alpha 90.000000
_cell_angle_beta 90.000000
_cell_angle_gamma 90.000000
_cell_volume 4421.488252
_symmetry_space_group_name_H-M "C M M M"
_symmetry_group_IT_number 65
_symmetry_cell_setting 'orthorhombic'
loop_
_space_group_symop_operation_xyz
x,y,z
-x,-y,z
x,-y,-z
-x,y,-z
-x,-y,-z
x,y,-z
-x,y,z
x,-y,z
1/2+x,1/2+y,z
1/2-x,1/2-y,z
1/2+x,1/2-y,-z
1/2-x,1/2+y,-z
1/2-x,1/2-y,-z
1/2+x,1/2+y,-z
1/2-x,1/2+y,z
1/2+x,1/2-y,z
loop_
_atom_site_type_symbol
_atom_site_label
_atom_site_fract_x
_atom_site_fract_y
_atom_site_fract_z
Si Si1 0.709622 0.000000 0.416579
Si Si2 0.203882 0.089925 0.649997
Si Si3 0.710127 0.202911 0.737684
Si Si4 0.799116 0.618740 0.806986
Si Si5 0.293912 0.175769 0.420292
Si Si6 0.286632 0.952541 0.915033
O O1 0.770824 0.957235 0.378265
O O2 0.500000 0.000000 0.416071
O O3 0.771441 0.000000 0.500000
O O4 0.295985 0.096770 0.727525
O O5 0.273512 0.125411 0.594022
O O6 0.000000 0.098529 0.660748
O O7 0.500000 0.197476 0.734005
O O8 0.750000 0.250000 0.763050
O O9 0.777934 0.165168 0.789530
O O10 0.777760 0.196661 0.654217
O O11 0.720938 0.585690 0.864567
O O12 0.000000 0.625447 0.830179
O O13 0.219291 0.187201 0.500000
O O14 0.500000 0.185513 0.422556
O O15 0.500000 0.952653 0.911255
O O16 0.230524 0.000000 0.891774
O O17 0.239771 0.946921 0.000000
#
# Coordination Sequence:
#
# PCOD9493582 Si02
#       6
#     8  16  16  16  16  16
#     4  11  23  37  51  65  88 129 174 211 251 296
#     4  11  22  33  47  71  99 127 164 209 249 293
#     4   9  18  31  47  69  96 128 169 210 250 297
#     4   9  18  33  52  74 101 134 166 199 245 303
#     4   9  18  34  52  68  91 124 162 206 258 314
#     4   8  14  26  49  82 109 127 158 204 245 286
#
# _framework density 19.902801
#
# number of rings (size 3 to 8) (size 9 to 14) (size 15 to 20)
#    0.000    2.636    0.000    4.091    1.273    6.545 
#    0.000    0.000    0.000    1.091    0.000    1.273 
#    0.000    0.000    0.000    0.000    0.000    0.364 
#
# Total GULP energy -245392.962285 kJ/mol
# GULP energy per Si atom -5577.112779 kJ/mol
# Density = 1.985750 g / cm^3
# Si number density = 19.902801 Si / 1000 Ang^3
#
#
#
# Elastic Constant Matrix: (Units=GPa)
#
#
# Indices 1 2 3 4 5 6 
#
# 1 46.2969 -7.0376 0.9872 0.0000 0.0000 0.0000
# 2 -7.0376 166.4963 73.9327 0.0000 0.0000 0.0000
# 3 0.9872 73.9327 83.0192 0.0000 0.0000 0.0000
# 4 0.0000 0.0000 0.0000 -41.4460 0.0000 0.0000
# 5 0.0000 0.0000 0.0000 0.0000 -26.9042 0.0000
# 6 0.0000 0.0000 0.0000 0.0000 0.0000 15.5310
#
#
#
# Elastic Compliance Matrix: (Units=1/GPa)
#
#
# Indices 1 2 3 4 5 6 
#
# 1 0.021900 0.001722 -0.001794 0.000000 0.000000 0.000000
# 2 0.001722 0.010070 -0.008989 0.000000 0.000000 0.000000
# 3 -0.001794 -0.008989 0.020072 0.000000 0.000000 0.000000
# 4 0.000000 0.000000 0.000000 -0.024128 0.000000 0.000000
# 5 0.000000 0.000000 0.000000 0.000000 -0.037169 0.000000
# 6 0.000000 0.000000 0.000000 0.000000 0.000000 0.064387
#
#
# Mechanical properties :
#
#
# Convention : Reuss Voigt Hill
#
# Bulk Modulus (GPa) = 29.48052 47.95298 38.71675
# Shear Modulus (GPa) = 59.12936 4.63149 31.88043
#
# Velocity S-wave (km/s) = 5.45652 1.52712 4.00660
# Velocity P-wave (km/s) = 7.38529 5.22067 6.39523
#
# Compressibility (1/GPa) = 0.03392070
#
# Stress axis : x y z
#
# Youngs Moduli (GPa) = 45.66249 99.30147 49.82176
#
# Poissons Ratio (x) = -0.17104 0.08940
# Poissons Ratio (y) = -0.07865 0.44783
# Poissons Ratio (z) = 0.08193 0.89258
#
# Static dielectric constant tensor:
#      x y z
#    x 1.756390 0.000000 0.000000 
#    y 0.000000 1.709110 0.000000 
#    z 0.000000 0.000000 1.685880 
# 
# From -- ./inp_files/50405.got.cif
#   From: 2010.05.17/outbox.cif.g08.bks.cpg/sg65_26_cif.got.tgz:50405.got - 2010.06.03 17:01:31.
