data_PCOD9493008
_publ_section_title
;
Structure prediction by ZEFSAII (Michael W. Deem and Ramdas Pophale) SiO2 
 PCOD9493008
Probable space group: C M M M
;
_chemical_formula_sum "Si O2"
_cell_formula_units_Z 88
_cell_length_a 8.681362
_cell_length_b 21.490851
_cell_length_c 24.553849
_cell_angle_alpha 90.000000
_cell_angle_beta 90.000000
_cell_angle_gamma 90.000000
_cell_volume 4581.008102
_symmetry_space_group_name_H-M "C M M M"
_symmetry_group_IT_number 65
_symmetry_cell_setting 'orthorhombic'
loop_
_space_group_symop_operation_xyz
x,y,z
-x,-y,z
x,-y,-z
-x,y,-z
-x,-y,-z
x,y,-z
-x,y,z
x,-y,z
1/2+x,1/2+y,z
1/2-x,1/2-y,z
1/2+x,1/2-y,-z
1/2-x,1/2+y,-z
1/2-x,1/2-y,-z
1/2+x,1/2+y,-z
1/2-x,1/2+y,z
1/2+x,1/2-y,z
loop_
_atom_site_type_symbol
_atom_site_label
_atom_site_fract_x
_atom_site_fract_y
_atom_site_fract_z
Si Si1 0.685875 0.683228 0.936934
Si Si2 0.184160 0.430044 0.737939
Si Si3 0.185306 0.132263 0.561581
Si Si4 0.815974 0.185809 0.672254
Si Si5 0.314436 0.570110 0.859439
Si Si6 0.326575 0.000000 0.565901
O O1 0.500000 0.685779 0.935806
O O2 0.750000 0.750000 0.918259
O O3 0.734427 0.625206 0.899766
O O4 0.733872 0.674423 0.000000
O O5 0.230832 0.500000 0.719650
O O6 0.259492 0.374693 0.704224
O O7 0.235701 0.423853 0.800720
O O8 0.000000 0.425817 0.733890
O O9 0.242144 0.145362 0.500000
O O10 0.237288 0.177659 0.609411
O O11 0.239529 0.063410 0.578951
O O12 0.000000 0.132738 0.559794
O O13 0.750000 0.250000 0.695036
O O14 0.000000 0.187964 0.673498
O O15 0.500000 0.574477 0.852280
O O16 0.281620 0.500000 0.880310
O O17 0.500000 0.000000 0.588355
O O18 0.335978 0.000000 0.500000
#
# Coordination Sequence:
#
# PCOD9493008 Si02
#       6
#    16  16  16  16  16   8
#     4   9  18  32  51  78 112 149 187 226 271 323
#     4  10  22  40  61  84 111 145 185 233 283 333
#     4   9  19  36  56  79 109 144 180 219 269 330
#     4  11  24  40  59  83 112 146 184 227 277 334
#     4   9  18  34  56  81 109 143 185 231 277 327
#     4   9  17  29  49  79 109 137 173 217 260 307
#
# _framework density 19.209745999999999
#
# number of rings (size 3 to 8) (size 9 to 14) (size 15 to 20)
#    0.000    2.455    0.000    1.364    1.273    5.818 
#    0.000    3.636    0.000    0.000    0.000    5.091 
#    0.000    0.000    0.000    0.000    0.000    0.000 
#
# Total GULP energy -245521.460515 kJ/mol
# GULP energy per Si atom -5580.033194 kJ/mol
# Density = 1.916602 g / cm^3
# Si number density = 19.209746 Si / 1000 Ang^3
#
#
#
# Elastic Constant Matrix: (Units=GPa)
#
#
# Indices 1 2 3 4 5 6 
#
# 1 19.2872 35.3232 22.4240 0.0000 0.0000 0.0000
# 2 35.3232 174.9189 80.1037 0.0000 0.0000 0.0000
# 3 22.4240 80.1037 70.7534 0.0000 0.0000 0.0000
# 4 0.0000 0.0000 0.0000 20.2936 0.0000 0.0000
# 5 0.0000 0.0000 0.0000 0.0000 14.7412 0.0000
# 6 0.0000 0.0000 0.0000 0.0000 0.0000 24.9077
#
#
#
# Elastic Compliance Matrix: (Units=1/GPa)
#
#
# Indices 1 2 3 4 5 6 
#
# 1 0.090841 -0.010716 -0.016658 0.000000 0.000000 0.000000
# 2 -0.010716 0.013136 -0.011476 0.000000 0.000000 0.000000
# 3 -0.016658 -0.011476 0.032406 0.000000 0.000000 0.000000
# 4 0.000000 0.000000 0.000000 0.049277 0.000000 0.000000
# 5 0.000000 0.000000 0.000000 0.000000 0.067837 0.000000
# 6 0.000000 0.000000 0.000000 0.000000 0.000000 0.040148
#
#
# Mechanical properties :
#
#
# Convention : Reuss Voigt Hill
#
# Bulk Modulus (GPa) = 17.04090 60.07347 38.55718
# Shear Modulus (GPa) = 12.79077 20.46240 16.62659
#
# Velocity S-wave (km/s) = 2.58320 3.26730 2.94518
# Velocity P-wave (km/s) = 4.21752 6.75084 5.62856
#
# Compressibility (1/GPa) = 0.05868236
#
# Stress axis : x y z
#
# Youngs Moduli (GPa) = 11.00828 76.12417 30.85836
#
# Poissons Ratio (x) = 0.81573 0.51405
# Poissons Ratio (y) = 0.11796 0.35414
# Poissons Ratio (z) = 0.18338 0.87362
#
# Static dielectric constant tensor:
#      x y z
#    x 1.647790 0.000000 0.000000 
#    y 0.000000 1.659440 0.000000 
#    z 0.000000 0.000000 1.678900 
# 
# From -- ./inp_files/67515.got.cif
#   From: 2010.05.17/outbox.cif.g08.bks.cpg/sg65_34_cif.got.tgz:67515.got - 2010.06.03 17:01:31.
