data_PCOD9493353
_publ_section_title
;
Structure prediction by ZEFSAII (Michael W. Deem and Ramdas Pophale) SiO2 
 PCOD9493353
Probable space group: C M M M
;
_chemical_formula_sum "Si O2"
_cell_formula_units_Z 88
_cell_length_a 18.383104
_cell_length_b 17.847638
_cell_length_c 14.754920
_cell_angle_alpha 90.000000
_cell_angle_beta 90.000000
_cell_angle_gamma 90.000000
_cell_volume 4841.015264
_symmetry_space_group_name_H-M "C M M M"
_symmetry_group_IT_number 65
_symmetry_cell_setting 'orthorhombic'
loop_
_space_group_symop_operation_xyz
x,y,z
-x,-y,z
x,-y,-z
-x,y,-z
-x,-y,-z
x,y,-z
-x,y,z
x,-y,z
1/2+x,1/2+y,z
1/2-x,1/2-y,z
1/2+x,1/2-y,-z
1/2-x,1/2+y,-z
1/2-x,1/2-y,-z
1/2+x,1/2+y,-z
1/2-x,1/2+y,z
1/2+x,1/2-y,z
loop_
_atom_site_type_symbol
_atom_site_label
_atom_site_fract_x
_atom_site_fract_y
_atom_site_fract_z
Si Si1 0.846829 0.631999 0.221919
Si Si2 0.087091 0.862558 0.395265
Si Si3 0.913162 0.684348 0.400557
Si Si4 0.835947 0.227554 0.897225
Si Si5 0.177830 0.912509 0.222161
Si Si6 0.587039 0.000000 0.104530
O O1 0.879958 0.636123 0.321150
O O2 0.863819 0.711145 0.173642
O O3 0.761722 0.613167 0.232827
O O4 0.882093 0.570929 0.157183
O O5 0.103903 0.885144 0.500000
O O6 0.101875 0.773113 0.388725
O O7 0.133256 0.900563 0.315528
O O8 0.000000 0.874079 0.382432
O O9 0.885974 0.662338 0.500000
O O10 0.000000 0.676870 0.399064
O O11 0.750000 0.250000 0.901793
O O12 0.848867 0.145522 0.855206
O O13 0.864131 0.233946 0.000000
O O14 0.174828 0.000000 0.196554
O O15 0.500000 0.000000 0.106660
O O16 0.611227 0.000000 0.000000
#
# Coordination Sequence:
#
# PCOD9493353 Si02
#       6
#    16  16  16  16  16   8
#     4  11  20  38  59  86 119 152 191 239 290 339
#     4   9  19  37  60  85 113 148 192 241 292 346
#     4   9  18  34  59  86 112 149 192 233 285 348
#     4   9  19  35  56  81 110 148 192 236 283 340
#     4  11  22  36  55  86 118 150 193 238 291 347
#     4  11  24  40  61  91 124 157 193 237 287 338
#
# _framework density 18.178004999999999
#
# number of rings (size 3 to 8) (size 9 to 14) (size 15 to 20)
#    0.000    2.091    2.727    2.182    0.000    2.545 
#    0.000    3.182    0.000    3.273    0.000    1.273 
#    0.000    0.000    0.000    0.000    0.000    0.000 
#
# Total GULP energy -245324.042589 kJ/mol
# GULP energy per Si atom -5575.546422 kJ/mol
# Density = 1.813663 g / cm^3
# Si number density = 18.178005 Si / 1000 Ang^3
#
#
#
# Elastic Constant Matrix: (Units=GPa)
#
#
# Indices 1 2 3 4 5 6 
#
# 1 33.6055 21.8420 36.7391 0.0000 0.0000 0.0000
# 2 21.8420 99.4643 67.0756 0.0000 0.0000 0.0000
# 3 36.7391 67.0756 155.3319 0.0000 0.0000 0.0000
# 4 0.0000 0.0000 0.0000 43.5613 0.0000 0.0000
# 5 0.0000 0.0000 0.0000 0.0000 28.2868 0.0000
# 6 0.0000 0.0000 0.0000 0.0000 0.0000 19.7225
#
#
#
# Elastic Compliance Matrix: (Units=1/GPa)
#
#
# Indices 1 2 3 4 5 6 
#
# 1 0.040968 -0.003473 -0.008190 0.000000 0.000000 0.000000
# 2 -0.003473 0.014479 -0.005431 0.000000 0.000000 0.000000
# 3 -0.008190 -0.005431 0.010720 0.000000 0.000000 0.000000
# 4 0.000000 0.000000 0.000000 0.022956 0.000000 0.000000
# 5 0.000000 0.000000 0.000000 0.000000 0.035352 0.000000
# 6 0.000000 0.000000 0.000000 0.000000 0.000000 0.050704
#
#
# Mechanical properties :
#
#
# Convention : Reuss Voigt Hill
#
# Bulk Modulus (GPa) = 31.27059 59.96834 45.61947
# Shear Modulus (GPa) = 22.72449 29.16379 25.94414
#
# Velocity S-wave (km/s) = 3.53952 4.00977 3.78196
# Velocity P-wave (km/s) = 5.82616 7.38233 6.64992
#
# Compressibility (1/GPa) = 0.03197893
#
# Stress axis : x y z
#
# Youngs Moduli (GPa) = 24.40920 69.06572 93.28328
#
# Poissons Ratio (x) = 0.23989 0.76398
# Poissons Ratio (y) = 0.08478 0.50660
# Poissons Ratio (z) = 0.19991 0.37508
#
# Static dielectric constant tensor:
#      x y z
#    x 1.607870 0.000000 0.000000 
#    y 0.000000 1.642390 0.000000 
#    z 0.000000 0.000000 1.614080 
# 
# From -- ./inp_files/42522.got.cif
#   From: 2010.05.17/outbox.cif.g08.bks.cpg/sg65_22_cif.got.tgz:42522.got - 2010.06.03 17:01:31.
