data_PCOD9493684
_publ_section_title
;
Structure prediction by ZEFSAII (Michael W. Deem and Ramdas Pophale) SiO2 
 PCOD9493684
Probable space group: C M M M
;
_chemical_formula_sum "Si O2"
_cell_formula_units_Z 88
_cell_length_a 9.019445
_cell_length_b 31.096784
_cell_length_c 17.893824
_cell_angle_alpha 90.000000
_cell_angle_beta 90.000000
_cell_angle_gamma 90.000000
_cell_volume 5018.783402
_symmetry_space_group_name_H-M "C M M M"
_symmetry_group_IT_number 65
_symmetry_cell_setting 'orthorhombic'
loop_
_space_group_symop_operation_xyz
x,y,z
-x,-y,z
x,-y,-z
-x,y,-z
-x,-y,-z
x,y,-z
-x,y,z
x,-y,z
1/2+x,1/2+y,z
1/2-x,1/2-y,z
1/2+x,1/2-y,-z
1/2-x,1/2+y,-z
1/2-x,1/2-y,-z
1/2+x,1/2+y,-z
1/2-x,1/2+y,z
1/2+x,1/2-y,z
loop_
_atom_site_type_symbol
_atom_site_label
_atom_site_fract_x
_atom_site_fract_y
_atom_site_fract_z
Si Si1 0.680334 0.548147 0.587213
Si Si2 0.322991 0.205708 0.238271
Si Si3 0.672873 0.377408 0.302124
Si Si4 0.331143 0.583807 0.136647
Si Si5 0.824393 0.500000 0.915359
Si Si6 0.178305 0.177604 0.083779
O O1 0.719728 0.553057 0.500000
O O2 0.500000 0.548115 0.591703
O O3 0.728519 0.500000 0.611924
O O4 0.729791 0.588447 0.636847
O O5 0.500000 0.207959 0.238089
O O6 0.250000 0.250000 0.264997
O O7 0.265501 0.165721 0.287811
O O8 0.263700 0.198348 0.153220
O O9 0.500000 0.366393 0.318440
O O10 0.673377 0.401773 0.222671
O O11 0.500000 0.572196 0.117252
O O12 0.230643 0.543137 0.123239
O O13 0.291028 0.626464 0.090166
O O14 0.000000 0.500000 0.917279
O O15 0.765659 0.500000 0.000000
O O16 0.000000 0.182967 0.095022
O O17 0.216016 0.192703 0.000000
#
# Coordination Sequence:
#
# PCOD9493684 Si02
#       6
#    16  16  16  16   8  16
#     4   8  14  26  50  85 117 142 170 206 248 297
#     4  11  22  36  54  75 102 134 174 217 263 313
#     4   9  18  33  54  78 106 136 170 211 255 303
#     4   9  18  31  48  68  91 126 169 208 249 299
#     4  11  23  33  41  59  90 127 168 216 261 297
#     4   9  18  34  54  74  97 126 165 214 266 317
#
# _framework density 17.534129
#
# number of rings (size 3 to 8) (size 9 to 14) (size 15 to 20)
#    0.000    2.636    0.000    4.091    1.273    5.091 
#    0.000    0.000    0.000    1.091    0.000    1.273 
#    0.000    0.000    0.000    0.000    0.000    0.000 
#
# Total GULP energy -245316.745526 kJ/mol
# GULP energy per Si atom -5575.380580 kJ/mol
# Density = 1.749422 g / cm^3
# Si number density = 17.534129 Si / 1000 Ang^3
#
#
#
# Elastic Constant Matrix: (Units=GPa)
#
#
# Indices 1 2 3 4 5 6 
#
# 1 60.5419 61.7125 18.6674 0.0000 0.0000 0.0000
# 2 61.7125 137.8584 52.5452 0.0000 0.0000 0.0000
# 3 18.6674 52.5452 62.4353 0.0000 0.0000 0.0000
# 4 0.0000 0.0000 0.0000 8.3780 0.0000 0.0000
# 5 0.0000 0.0000 0.0000 0.0000 12.2985 0.0000
# 6 0.0000 0.0000 0.0000 0.0000 0.0000 26.3878
#
#
#
# Elastic Compliance Matrix: (Units=1/GPa)
#
#
# Indices 1 2 3 4 5 6 
#
# 1 0.030902 -0.015182 0.003537 0.000000 0.000000 0.000000
# 2 -0.015182 0.018138 -0.010726 0.000000 0.000000 0.000000
# 3 0.003537 -0.010726 0.023986 0.000000 0.000000 0.000000
# 4 0.000000 0.000000 0.000000 0.119360 0.000000 0.000000
# 5 0.000000 0.000000 0.000000 0.000000 0.081311 0.000000
# 6 0.000000 0.000000 0.000000 0.000000 0.000000 0.037896
#
#
# Mechanical properties :
#
#
# Convention : Reuss Voigt Hill
#
# Bulk Modulus (GPa) = 35.35346 58.52063 46.93704
# Shear Modulus (GPa) = 13.67013 17.94024 15.80518
#
# Velocity S-wave (km/s) = 2.79521 3.20216 3.00558
# Velocity P-wave (km/s) = 5.53390 6.86436 6.23472
#
# Compressibility (1/GPa) = 0.02828578
#
# Stress axis : x y z
#
# Youngs Moduli (GPa) = 32.36056 55.13286 41.69158
#
# Poissons Ratio (x) = 0.83700 -0.14748
# Poissons Ratio (y) = 0.49128 0.44717
# Poissons Ratio (z) = -0.11447 0.59134
#
# Static dielectric constant tensor:
#      x y z
#    x 1.586390 0.000000 0.000000 
#    y 0.000000 1.588850 0.000000 
#    z 0.000000 0.000000 1.595430 
# 
# From -- ./inp_files/50304.got.cif
#   From: 2010.05.17/outbox.cif.g08.bks.cpg/sg65_26_cif.got.tgz:50304.got - 2010.06.03 17:01:31.
