data_PCOD9493417
_publ_section_title
;
Structure prediction by ZEFSAII (Michael W. Deem and Ramdas Pophale) SiO2 
 PCOD9493417
Probable space group: C M M M
;
_chemical_formula_sum "Si O2"
_cell_formula_units_Z 88
_cell_length_a 28.148615
_cell_length_b 14.412890
_cell_length_c 11.752105
_cell_angle_alpha 90.000000
_cell_angle_beta 90.000000
_cell_angle_gamma 90.000000
_cell_volume 4767.862981
_symmetry_space_group_name_H-M "C M M M"
_symmetry_group_IT_number 65
_symmetry_cell_setting 'orthorhombic'
loop_
_space_group_symop_operation_xyz
x,y,z
-x,-y,z
x,-y,-z
-x,y,-z
-x,-y,-z
x,y,-z
-x,y,z
x,-y,z
1/2+x,1/2+y,z
1/2-x,1/2-y,z
1/2+x,1/2-y,-z
1/2-x,1/2+y,-z
1/2-x,1/2-y,-z
1/2+x,1/2+y,-z
1/2-x,1/2+y,z
1/2+x,1/2-y,z
loop_
_atom_site_type_symbol
_atom_site_label
_atom_site_fract_x
_atom_site_fract_y
_atom_site_fract_z
Si Si1 0.500000 0.606700 0.362402
Si Si2 0.264903 0.857922 0.369394
Si Si3 0.216284 0.886150 0.000000
Si Si4 0.634907 0.891032 0.754625
Si Si5 0.594108 0.722530 0.362639
Si Si6 0.173406 0.612630 0.000000
Si Si7 0.672968 0.396463 0.764626
O O1 0.500000 0.500000 0.320048
O O2 0.500000 0.601119 0.500000
O O3 0.546876 0.665023 0.332314
O O4 0.266853 0.887557 0.500000
O O5 0.250000 0.750000 0.366977
O O6 0.315094 0.876710 0.310943
O O7 0.222661 0.904265 0.300793
O O8 0.271417 0.855086 0.000000
O O9 0.187798 0.857525 0.112352
O O10 0.217344 0.000000 0.000000
O O11 0.597379 0.824126 0.693176
O O12 0.645921 0.862373 0.884767
O O13 0.622500 0.000000 0.751110
O O14 0.598541 0.727679 0.500000
O O15 0.638184 0.666792 0.308492
O O16 0.176346 0.500000 0.000000
O O17 0.652314 0.500000 0.777667
#
# Coordination Sequence:
#
# PCOD9493417 Si02
#       7
#     8  16   8  16  16   8  16
#     4   9  20  42  69  90 113 146 181 230 293 349
#     4  11  21  33  47  75 118 157 192 230 278 338
#     4   9  18  33  51  77 113 155 204 242 275 326
#     4  11  22  37  57  81 116 158 194 238 286 331
#     4  11  23  39  59  88 116 142 189 240 288 357
#     4   9  18  35  55  77 110 157 209 238 262 324
#     4  11  21  34  54  79 112 152 193 240 284 331
#
# _framework density 18.456906
#
# number of rings (size 3 to 8) (size 9 to 14) (size 15 to 20)
#    0.000    1.545    3.636    2.182    0.000    5.091 
#    0.000    2.273    0.000    3.818    0.000    6.364 
#    0.000    0.000    0.000    0.000    0.000    0.000 
#
# Total GULP energy -245746.190250 kJ/mol
# GULP energy per Si atom -5585.140687 kJ/mol
# Density = 1.841490 g / cm^3
# Si number density = 18.456906 Si / 1000 Ang^3
#
#
#
# Elastic Constant Matrix: (Units=GPa)
#
#
# Indices 1 2 3 4 5 6 
#
# 1 86.6048 47.3152 40.1034 0.0000 0.0000 0.0000
# 2 47.3152 125.5807 43.0583 0.0000 0.0000 0.0000
# 3 40.1034 43.0583 146.3673 0.0000 0.0000 0.0000
# 4 0.0000 0.0000 0.0000 20.1295 0.0000 0.0000
# 5 0.0000 0.0000 0.0000 0.0000 -29.8524 0.0000
# 6 0.0000 0.0000 0.0000 0.0000 0.0000 12.8691
#
#
#
# Elastic Compliance Matrix: (Units=1/GPa)
#
#
# Indices 1 2 3 4 5 6 
#
# 1 0.015517 -0.004881 -0.002816 0.000000 0.000000 0.000000
# 2 -0.004881 0.010392 -0.001720 0.000000 0.000000 0.000000
# 3 -0.002816 -0.001720 0.008109 0.000000 0.000000 0.000000
# 4 0.000000 0.000000 0.000000 0.049678 0.000000 0.000000
# 5 0.000000 0.000000 0.000000 0.000000 -0.033498 0.000000
# 6 0.000000 0.000000 0.000000 0.000000 0.000000 0.077706
#
#
# Mechanical properties :
#
#
# Convention : Reuss Voigt Hill
#
# Bulk Modulus (GPa) = 65.85172 68.83408 67.34290
# Shear Modulus (GPa) = 32.93833 15.83429 24.38631
#
# Velocity S-wave (km/s) = 4.22904 2.93218 3.63885
# Velocity P-wave (km/s) = 7.72027 6.98849 7.36348
#
# Compressibility (1/GPa) = 0.01518563
#
# Stress axis : x y z
#
# Youngs Moduli (GPa) = 64.44457 96.23100 123.31229
#
# Poissons Ratio (x) = 0.46970 0.34721
# Poissons Ratio (y) = 0.31455 0.21206
# Poissons Ratio (z) = 0.18146 0.16548
#
# Static dielectric constant tensor:
#      x y z
#    x 1.589140 0.000000 0.000000 
#    y 0.000000 1.723650 0.000000 
#    z 0.000000 0.000000 1.643620 
# 
# From -- ./inp_files/32276.got.cif
#   From: 2010.05.17/outbox.cif.g08.bks.cpg/sg65_17_cif.got.tgz:32276.got - 2010.06.03 17:01:31.
