data_PCOD9493396
_publ_section_title
;
Structure prediction by ZEFSAII (Michael W. Deem and Ramdas Pophale) SiO2 
 PCOD9493396
Probable space group: C M M M
;
_chemical_formula_sum "Si O2"
_cell_formula_units_Z 64
_cell_length_a 15.354248
_cell_length_b 8.716094
_cell_length_c 22.392457
_cell_angle_alpha 90.000000
_cell_angle_beta 90.000000
_cell_angle_gamma 90.000000
_cell_volume 2996.761670
_symmetry_space_group_name_H-M "C M M M"
_symmetry_group_IT_number 65
_symmetry_cell_setting 'orthorhombic'
loop_
_space_group_symop_operation_xyz
x,y,z
-x,-y,z
x,-y,-z
-x,y,-z
-x,-y,-z
x,y,-z
-x,y,z
x,-y,z
1/2+x,1/2+y,z
1/2-x,1/2-y,z
1/2+x,1/2-y,-z
1/2-x,1/2+y,-z
1/2-x,1/2-y,-z
1/2+x,1/2+y,-z
1/2-x,1/2+y,z
1/2+x,1/2-y,z
loop_
_atom_site_type_symbol
_atom_site_label
_atom_site_fract_x
_atom_site_fract_y
_atom_site_fract_z
Si Si1 0.396369 0.826348 0.807999
Si Si2 0.896975 0.686663 0.064121
Si Si3 0.653229 0.318979 0.314880
Si Si4 0.151203 0.683768 0.565091
O O1 0.500000 0.839887 0.816651
O O2 0.361463 0.761901 0.871363
O O3 0.384038 0.727923 0.749022
O O4 0.361706 0.000000 0.797819
O O5 0.892116 0.500000 0.065686
O O6 0.000000 0.725975 0.062297
O O7 0.859531 0.738510 0.000000
O O8 0.655491 0.500000 0.321558
O O9 0.750000 0.250000 0.313666
O O10 0.609618 0.248507 0.374367
O O11 0.112150 0.723241 0.500000
O O12 0.155085 0.500000 0.569471
O O13 0.250000 0.750000 0.563789
#
# Coordination Sequence:
#
# PCOD9493396 Si02
#       4
#    16  16  16  16
#     4   9  17  30  49  72  98 126 155 190 233 281
#     4   7  10  19  39  67  93 116 147 187 228 271
#     4  11  21  32  48  69  96 127 159 195 232 275
#     4   9  16  27  45  68  92 117 149 190 233 276
#
# _framework density 21.356385
#
# number of rings (size 3 to 8) (size 9 to 14) (size 15 to 20)
#    0.000    3.000    0.000    6.750    0.000    2.000 
#    0.000    0.000    0.000    2.250    0.000    8.750 
#    0.000    0.000    0.000    0.000    0.000    0.000 
#
# Total GULP energy -178172.898202 kJ/mol
# GULP energy per Si atom -5567.903069 kJ/mol
# Density = 2.130778 g / cm^3
# Si number density = 21.356385 Si / 1000 Ang^3
#
#
#
# Elastic Constant Matrix: (Units=GPa)
#
#
# Indices 1 2 3 4 5 6 
#
# 1 28.1100 0.7615 16.3755 0.0000 0.0000 0.0000
# 2 0.7615 85.0864 69.7746 0.0000 0.0000 0.0000
# 3 16.3755 69.7746 268.6600 0.0000 0.0000 0.0000
# 4 0.0000 0.0000 0.0000 -22.8270 0.0000 0.0000
# 5 0.0000 0.0000 0.0000 0.0000 10.9569 0.0000
# 6 0.0000 0.0000 0.0000 0.0000 0.0000 7.8312
#
#
#
# Elastic Compliance Matrix: (Units=1/GPa)
#
#
# Indices 1 2 3 4 5 6 
#
# 1 0.037134 0.001936 -0.002766 0.000000 0.000000 0.000000
# 2 0.001936 0.015034 -0.004023 0.000000 0.000000 0.000000
# 3 -0.002766 -0.004023 0.004935 0.000000 0.000000 0.000000
# 4 0.000000 0.000000 0.000000 -0.043808 0.000000 0.000000
# 5 0.000000 0.000000 0.000000 0.000000 0.091266 0.000000
# 6 0.000000 0.000000 0.000000 0.000000 0.000000 0.127694
#
#
# Mechanical properties :
#
#
# Convention : Reuss Voigt Hill
#
# Bulk Modulus (GPa) = 21.09806 61.74217 41.42012
# Shear Modulus (GPa) = 19.39788 18.85523 19.12655
#
# Velocity S-wave (km/s) = 3.01706 2.97456 2.99589
# Velocity P-wave (km/s) = 4.69440 6.38518 5.60392
#
# Compressibility (1/GPa) = 0.04739772
#
# Stress axis : x y z
#
# Youngs Moduli (GPa) = 26.92985 66.51537 202.61373
#
# Poissons Ratio (x) = -0.12878 0.56047
# Poissons Ratio (y) = -0.05214 0.81503
# Poissons Ratio (z) = 0.07449 0.26756
#
# Static dielectric constant tensor:
#      x y z
#    x 1.827900 0.000000 0.000000 
#    y 0.000000 1.728940 0.000000 
#    z 0.000000 0.000000 1.913080 
# 
# From -- ./inp_files/56370.got.cif
#   From: 2010.05.17/outbox.cif.g08.bks.cpg/sg65_29_cif.got.tgz:56370.got - 2010.06.03 17:01:31.
