data_PCOD9493875
_publ_section_title
;
Structure prediction by ZEFSAII (Michael W. Deem and Ramdas Pophale) SiO2 
 PCOD9493875
Probable space group: C M M M
;
_chemical_formula_sum "Si O2"
_cell_formula_units_Z 80
_cell_length_a 18.795207
_cell_length_b 28.413177
_cell_length_c 7.731469
_cell_angle_alpha 90.000000
_cell_angle_beta 90.000000
_cell_angle_gamma 90.000000
_cell_volume 4128.848322
_symmetry_space_group_name_H-M "C M M M"
_symmetry_group_IT_number 65
_symmetry_cell_setting 'orthorhombic'
loop_
_space_group_symop_operation_xyz
x,y,z
-x,-y,z
x,-y,-z
-x,y,-z
-x,-y,-z
x,y,-z
-x,y,z
x,-y,z
1/2+x,1/2+y,z
1/2-x,1/2-y,z
1/2+x,1/2-y,-z
1/2-x,1/2+y,-z
1/2-x,1/2-y,-z
1/2+x,1/2+y,-z
1/2-x,1/2+y,z
1/2+x,1/2-y,z
loop_
_atom_site_type_symbol
_atom_site_label
_atom_site_fract_x
_atom_site_fract_y
_atom_site_fract_z
Si Si1 0.729467 0.448568 0.211681
Si Si2 0.421371 0.206601 0.702306
Si Si3 0.781917 0.650866 0.795174
Si Si4 0.077836 0.089177 0.789616
Si Si5 0.134455 0.808711 0.209212
O O1 0.753810 0.500000 0.270210
O O2 0.772666 0.402511 0.271222
O O3 0.647278 0.439755 0.264107
O O4 0.731056 0.448948 0.000000
O O5 0.425223 0.196535 0.500000
O O6 0.500000 0.198832 0.779265
O O7 0.357595 0.174620 0.770877
O O8 0.399619 0.261029 0.724373
O O9 0.715847 0.682640 0.730111
O O10 0.769197 0.647753 0.000000
O O11 0.092276 0.143769 0.743517
O O12 0.000000 0.073849 0.728643
O O13 0.077286 0.087240 0.000000
O O14 0.133793 0.805154 0.000000
#
# Coordination Sequence:
#
# PCOD9493875 Si02
#       5
#    16  16  16  16  16
#     4   8  14  25  42  65  91 117 148 188 227 262
#     4  11  23  34  45  66  94 121 152 191 232 272
#     4   9  18  32  50  71  93 120 154 187 223 271
#     4   8  13  21  36  62  95 127 154 178 210 257
#     4   9  17  30  48  69  94 125 158 186 215 261
#
# _framework density 19.375862999999999
#
# number of rings (size 3 to 8) (size 9 to 14) (size 15 to 20)
#    0.000    3.000    0.000    4.200    0.000    6.000 
#    0.000    2.000    0.000    1.200    0.000    4.200 
#    0.000    0.000    0.000   21.200    0.000   16.000 
#
# Total GULP energy -223009.823986 kJ/mol
# GULP energy per Si atom -5575.245600 kJ/mol
# Density = 1.933176 g / cm^3
# Si number density = 19.375863 Si / 1000 Ang^3
#
#
#
# Elastic Constant Matrix: (Units=GPa)
#
#
# Indices 1 2 3 4 5 6 
#
# 1 75.9371 8.6885 -6.7879 0.0000 0.0000 0.0000
# 2 8.6885 46.7699 -9.8794 0.0000 0.0000 0.0000
# 3 -6.7879 -9.8794 20.4151 0.0000 0.0000 0.0000
# 4 0.0000 0.0000 0.0000 -104.0812 0.0000 0.0000
# 5 0.0000 0.0000 0.0000 0.0000 43.4602 0.0000
# 6 0.0000 0.0000 0.0000 0.0000 0.0000 4.3997
#
#
#
# Elastic Compliance Matrix: (Units=1/GPa)
#
#
# Indices 1 2 3 4 5 6 
#
# 1 0.013701 -0.001763 0.003702 0.000000 0.000000 0.000000
# 2 -0.001763 0.024043 0.011049 0.000000 0.000000 0.000000
# 3 0.003702 0.011049 0.055561 0.000000 0.000000 0.000000
# 4 0.000000 0.000000 0.000000 -0.009608 0.000000 0.000000
# 5 0.000000 0.000000 0.000000 0.000000 0.023010 0.000000
# 6 0.000000 0.000000 0.000000 0.000000 0.000000 0.227286
#
#
# Mechanical properties :
#
#
# Convention : Reuss Voigt Hill
#
# Bulk Modulus (GPa) = 8.38361 14.12941 11.25651
# Shear Modulus (GPa) = 14.37700 -1.17086 6.60307
#
# Velocity S-wave (km/s) = 2.72693 -0.77820 1.84805
# Velocity P-wave (km/s) = 3.77506 2.54963 3.22116
#
# Compressibility (1/GPa) = 0.11928033
#
# Stress axis : x y z
#
# Youngs Moduli (GPa) = 72.98479 41.59272 17.99825
#
# Poissons Ratio (x) = 0.07334 -0.06664
# Poissons Ratio (y) = 0.12869 -0.19885
# Poissons Ratio (z) = -0.27021 -0.45954
#
# Static dielectric constant tensor:
#      x y z
#    x 1.707700 0.000000 0.000000 
#    y 0.000000 1.666640 0.000000 
#    z 0.000000 0.000000 1.719810 
# 
# From -- ./inp_files/9579.got.cif
#   From: 2010.05.17/outbox.cif.g08.bks.cpg/sg65_5_cif.got.tgz:9579.got - 2010.06.03 17:01:31.
