data_PCOD9493094
_publ_section_title
;
Structure prediction by ZEFSAII (Michael W. Deem and Ramdas Pophale) SiO2 
 PCOD9493094
Probable space group: C M M M
;
_chemical_formula_sum "Si O2"
_cell_formula_units_Z 72
_cell_length_a 15.572322
_cell_length_b 29.324846
_cell_length_c 7.572384
_cell_angle_alpha 90.000000
_cell_angle_beta 90.000000
_cell_angle_gamma 90.000000
_cell_volume 3457.974168
_symmetry_space_group_name_H-M "C M M M"
_symmetry_group_IT_number 65
_symmetry_cell_setting 'orthorhombic'
loop_
_space_group_symop_operation_xyz
x,y,z
-x,-y,z
x,-y,-z
-x,y,-z
-x,-y,-z
x,y,-z
-x,y,z
x,-y,z
1/2+x,1/2+y,z
1/2-x,1/2-y,z
1/2+x,1/2-y,-z
1/2-x,1/2+y,-z
1/2-x,1/2-y,-z
1/2+x,1/2+y,-z
1/2-x,1/2+y,z
1/2+x,1/2-y,z
loop_
_atom_site_type_symbol
_atom_site_label
_atom_site_fract_x
_atom_site_fract_y
_atom_site_fract_z
Si Si1 0.291187 0.946384 0.500000
Si Si2 0.400687 0.691329 0.215356
Si Si3 0.397787 0.139440 0.500000
Si Si4 0.394902 0.792756 0.200669
Si Si5 0.000000 0.945942 0.288310
Si Si6 0.678340 0.401240 0.201513
O O1 0.371904 0.912851 0.500000
O O2 0.236626 0.930989 0.329646
O O3 0.307805 0.000000 0.500000
O O4 0.500000 0.684094 0.273209
O O5 0.371864 0.742074 0.266624
O O6 0.339769 0.650078 0.269596
O O7 0.402471 0.691037 0.000000
O O8 0.500000 0.143208 0.500000
O O9 0.366453 0.167051 0.671538
O O10 0.500000 0.792509 0.195572
O O11 0.364117 0.798844 0.000000
O O12 0.915646 0.923916 0.206755
O O13 0.000000 0.937737 0.500000
O O14 0.000000 0.000000 0.260384
O O15 0.710103 0.400009 0.000000
#
# Coordination Sequence:
#
# PCOD9493094 Si02
#       6
#     8  16   8  16   8  16
#     4  12  28  45  59  81 114 148 193 258 315 351
#     4   8  14  28  53  87 123 159 194 223 262 325
#     4  10  22  42  66  88 105 139 194 244 307 380
#     4   8  15  31  58  90 120 146 179 229 285 347
#     4  11  21  35  55  82 119 163 214 255 273 307
#     4  11  22  38  59  86 122 164 203 235 279 335
#
# _framework density 20.821438000000001
#
# number of rings (size 3 to 8) (size 9 to 14) (size 15 to 20)
#    0.000    2.333    2.222    2.333    0.000    4.222 
#    0.000    3.333    0.000    4.000    0.000    4.667 
#    0.000    0.000    0.000    0.000    0.000    0.000 
#
# Total GULP energy -201195.973635 kJ/mol
# GULP energy per Si atom -5588.777045 kJ/mol
# Density = 2.077405 g / cm^3
# Si number density = 20.821438 Si / 1000 Ang^3
#
#
#
# Elastic Constant Matrix: (Units=GPa)
#
#
# Indices 1 2 3 4 5 6 
#
# 1 25.1626 26.3739 14.5406 0.0000 0.0000 0.0000
# 2 26.3739 186.3884 62.3142 0.0000 0.0000 0.0000
# 3 14.5406 62.3142 97.6889 0.0000 0.0000 0.0000
# 4 0.0000 0.0000 0.0000 27.3991 0.0000 0.0000
# 5 0.0000 0.0000 0.0000 0.0000 642.5411 0.0000
# 6 0.0000 0.0000 0.0000 0.0000 0.0000 28.8126
#
#
#
# Elastic Compliance Matrix: (Units=1/GPa)
#
#
# Indices 1 2 3 4 5 6 
#
# 1 0.047609 -0.005551 -0.003545 0.000000 0.000000 0.000000
# 2 -0.005551 0.007467 -0.003937 0.000000 0.000000 0.000000
# 3 -0.003545 -0.003937 0.013275 0.000000 0.000000 0.000000
# 4 0.000000 0.000000 0.000000 0.036498 0.000000 0.000000
# 5 0.000000 0.000000 0.000000 0.000000 0.001556 0.000000
# 6 0.000000 0.000000 0.000000 0.000000 0.000000 0.034707
#
#
# Mechanical properties :
#
#
# Convention : Reuss Voigt Hill
#
# Bulk Modulus (GPa) = 23.64937 57.29970 40.47454
# Shear Modulus (GPa) = 27.58270 153.48466 90.53368
#
# Velocity S-wave (km/s) = 3.64363 8.59504 6.60117
# Velocity P-wave (km/s) = 5.39298 11.22849 8.80804
#
# Compressibility (1/GPa) = 0.04228443
#
# Stress axis : x y z
#
# Youngs Moduli (GPa) = 21.00454 133.92670 75.32736
#
# Poissons Ratio (x) = 0.74347 0.26705
# Poissons Ratio (y) = 0.11660 0.29654
# Poissons Ratio (z) = 0.07447 0.52722
#
# Static dielectric constant tensor:
#      x y z
#    x 1.750430 0.000000 0.000000 
#    y 0.000000 1.732740 0.000000 
#    z 0.000000 0.000000 1.750300 
# 
# From -- ./inp_files/7379.got.cif
#   From: 2010.05.17/outbox.cif.g08.bks.cpg/sg65_4_cif.got.tgz:7379.got - 2010.06.03 17:01:31.
