data_PCOD9493604
_publ_section_title
;
Structure prediction by ZEFSAII (Michael W. Deem and Ramdas Pophale) SiO2 
 PCOD9493604
Probable space group: C M M M
;
_chemical_formula_sum "Si O2"
_cell_formula_units_Z 88
_cell_length_a 18.288569
_cell_length_b 9.297508
_cell_length_c 29.482185
_cell_angle_alpha 90.000000
_cell_angle_beta 90.000000
_cell_angle_gamma 90.000000
_cell_volume 5013.095210
_symmetry_space_group_name_H-M "C M M M"
_symmetry_group_IT_number 65
_symmetry_cell_setting 'orthorhombic'
loop_
_space_group_symop_operation_xyz
x,y,z
-x,-y,z
x,-y,-z
-x,y,-z
-x,-y,-z
x,y,-z
-x,y,z
x,-y,z
1/2+x,1/2+y,z
1/2-x,1/2-y,z
1/2+x,1/2-y,-z
1/2-x,1/2+y,-z
1/2-x,1/2-y,-z
1/2+x,1/2+y,-z
1/2-x,1/2+y,z
1/2+x,1/2-y,z
loop_
_atom_site_type_symbol
_atom_site_label
_atom_site_fract_x
_atom_site_fract_y
_atom_site_fract_z
Si Si1 0.589273 0.165281 0.500000
Si Si2 0.411021 0.165945 0.321493
Si Si3 0.915595 0.174575 0.050429
Si Si4 0.087876 0.669589 0.780901
Si Si5 0.089335 0.834898 0.410141
Si Si6 0.672277 0.673397 0.139902
O O1 0.500000 0.166530 0.500000
O O2 0.612699 0.246022 0.454302
O O3 0.612566 0.000000 0.500000
O O4 0.500000 0.168904 0.321454
O O5 0.388742 0.208429 0.270553
O O6 0.386005 0.263726 0.363017
O O7 0.389832 0.000000 0.329144
O O8 0.866316 0.217951 0.092604
O O9 0.000000 0.219803 0.056925
O O10 0.915719 0.000000 0.050070
O O11 0.891564 0.221969 0.000000
O O12 0.105466 0.500000 0.787980
O O13 0.124383 0.768673 0.818385
O O14 0.000000 0.682563 0.783427
O O15 0.000000 0.832227 0.409836
O O16 0.112014 0.000000 0.413517
O O17 0.678218 0.500000 0.141161
O O18 0.750000 0.750000 0.142628
#
# Coordination Sequence:
#
# PCOD9493604 Si02
#       6
#     8  16  16  16  16  16
#     4   9  15  21  29  41  63 101 144 181 222 277
#     4   8  14  25  40  57  78 107 143 182 228 282
#     4   8  15  30  52  76 100 127 162 203 244 287
#     4   9  18  33  52  72  95 124 159 202 249 295
#     4   9  15  21  30  47  72 101 137 183 229 272
#     4  11  22  34  50  73 101 133 167 202 243 291
#
# _framework density 17.554026
#
# number of rings (size 3 to 8) (size 9 to 14) (size 15 to 20)
#    0.000    3.000    0.000    3.545    0.000    5.455 
#    0.000    1.818    0.000    1.636    0.000    6.364 
#    0.000    0.000    0.000    0.818    0.000   11.818 
#
# Total GULP energy -245136.323029 kJ/mol
# GULP energy per Si atom -5571.280069 kJ/mol
# Density = 1.751407 g / cm^3
# Si number density = 17.554026 Si / 1000 Ang^3
#
#
#
# Elastic Constant Matrix: (Units=GPa)
#
#
# Indices 1 2 3 4 5 6 
#
# 1 22.3160 27.6089 38.7737 0.0000 0.0000 0.0000
# 2 27.6089 96.4794 93.3317 0.0000 0.0000 0.0000
# 3 38.7737 93.3317 175.2287 0.0000 0.0000 0.0000
# 4 0.0000 0.0000 0.0000 28.0144 0.0000 0.0000
# 5 0.0000 0.0000 0.0000 0.0000 -5.5353 0.0000
# 6 0.0000 0.0000 0.0000 0.0000 0.0000 9.9763
#
#
#
# Elastic Compliance Matrix: (Units=1/GPa)
#
#
# Indices 1 2 3 4 5 6 
#
# 1 0.078731 -0.011712 -0.011183 0.000000 0.000000 0.000000
# 2 -0.011712 0.023124 -0.009725 0.000000 0.000000 0.000000
# 3 -0.011183 -0.009725 0.013361 0.000000 0.000000 0.000000
# 4 0.000000 0.000000 0.000000 0.035696 0.000000 0.000000
# 5 0.000000 0.000000 0.000000 0.000000 -0.180659 0.000000
# 6 0.000000 0.000000 0.000000 0.000000 0.000000 0.100237
#
#
# Mechanical properties :
#
#
# Convention : Reuss Voigt Hill
#
# Bulk Modulus (GPa) = 20.00936 68.16142 44.08539
# Shear Modulus (GPa) = 32.81075 15.44507 24.12791
#
# Velocity S-wave (km/s) = 4.32803 2.96946 3.71144
# Velocity P-wave (km/s) = 6.03318 7.11834 6.59811
#
# Compressibility (1/GPa) = 0.04997661
#
# Stress axis : x y z
#
# Youngs Moduli (GPa) = 12.70146 43.24487 74.84314
#
# Poissons Ratio (x) = 0.50646 0.83700
# Poissons Ratio (y) = 0.14875 0.72786
# Poissons Ratio (z) = 0.14204 0.42056
#
# Static dielectric constant tensor:
#      x y z
#    x 1.576160 0.000000 0.000000 
#    y 0.000000 1.584700 0.000000 
#    z 0.000000 0.000000 1.603720 
# 
# From -- ./inp_files/75380.got.cif
#   From: 2010.05.17/outbox.cif.g08.bks.cpg/sg65_38_cif.got.tgz:75380.got - 2010.06.03 17:01:31.
