data_PCOD9493489
_publ_section_title
;
Structure prediction by ZEFSAII (Michael W. Deem and Ramdas Pophale) SiO2 
 PCOD9493489
Probable space group: C M M M
;
_chemical_formula_sum "Si O2"
_cell_formula_units_Z 88
_cell_length_a 10.325052
_cell_length_b 32.333598
_cell_length_c 18.287682
_cell_angle_alpha 90.000000
_cell_angle_beta 90.000000
_cell_angle_gamma 90.000000
_cell_volume 6105.270961
_symmetry_space_group_name_H-M "C M M M"
_symmetry_group_IT_number 65
_symmetry_cell_setting 'orthorhombic'
loop_
_space_group_symop_operation_xyz
x,y,z
-x,-y,z
x,-y,-z
-x,y,-z
-x,-y,-z
x,y,-z
-x,y,z
x,-y,z
1/2+x,1/2+y,z
1/2-x,1/2-y,z
1/2+x,1/2-y,-z
1/2-x,1/2+y,-z
1/2-x,1/2-y,-z
1/2+x,1/2+y,-z
1/2-x,1/2+y,z
1/2+x,1/2-y,z
loop_
_atom_site_type_symbol
_atom_site_label
_atom_site_fract_x
_atom_site_fract_y
_atom_site_fract_z
Si Si1 0.764418 0.662453 0.087274
Si Si2 0.000000 0.811996 0.164645
Si Si3 0.500000 0.304788 0.334319
Si Si4 0.757976 0.699646 0.583782
Si Si5 0.500000 0.212759 0.150463
Si Si6 0.000000 0.704507 0.319732
Si Si7 0.353655 0.069736 0.088575
Si Si8 0.849152 0.000000 0.910802
O O1 0.629424 0.670572 0.127562
O O2 0.872166 0.695705 0.110961
O O3 0.820181 0.617120 0.106164
O O4 0.745338 0.664240 0.000000
O O5 0.000000 0.820624 0.251472
O O6 0.000000 0.762322 0.153571
O O7 0.626197 0.316104 0.380398
O O8 0.500000 0.254606 0.327084
O O9 0.776818 0.686392 0.500000
O O10 0.750000 0.750000 0.582276
O O11 0.874877 0.688817 0.637379
O O12 0.500000 0.196156 0.233814
O O13 0.500000 0.059036 0.113913
O O14 0.237769 0.039438 0.112316
O O15 0.357020 0.066766 0.000000
O O16 0.000000 0.000000 0.886761
O O17 0.853253 0.000000 0.000000
#
# Coordination Sequence:
#
# PCOD9493489 Si02
#       8
#    16   8   8  16   8   8  16   8
#     4  11  22  34  47  62  81 109 151 200 240 269
#     4  11  23  33  45  60  81 113 153 201 243 264
#     4   9  17  29  39  55  78 105 135 170 220 270
#     4   9  15  24  40  60  79  98 123 163 215 266
#     4  11  21  35  47  58  79 115 155 195 237 274
#     4   9  17  27  41  57  78 101 133 176 218 262
#     4   9  17  31  47  64  86 109 133 168 219 275
#     4   9  17  27  47  73  91 105 123 157 214 279
#
# _framework density 14.413774999999999
#
# number of rings (size 3 to 8) (size 9 to 14) (size 15 to 20)
#    0.000    2.273    0.909    3.000    1.273    8.364 
#    0.000    0.000    0.000    0.000    0.000    0.000 
#    0.000    0.000    0.000    0.000    0.000    0.000 
#
# Total GULP energy -245221.940114 kJ/mol
# GULP energy per Si atom -5573.225912 kJ/mol
# Density = 1.438097 g / cm^3
# Si number density = 14.413775 Si / 1000 Ang^3
#
#
#
# Elastic Constant Matrix: (Units=GPa)
#
#
# Indices 1 2 3 4 5 6 
#
# 1 135.3903 20.6486 34.8759 0.0000 0.0000 0.0000
# 2 20.6486 38.5790 5.7717 0.0000 0.0000 0.0000
# 3 34.8759 5.7717 71.6315 0.0000 0.0000 0.0000
# 4 0.0000 0.0000 0.0000 -0.4447 0.0000 0.0000
# 5 0.0000 0.0000 0.0000 0.0000 21.4688 0.0000
# 6 0.0000 0.0000 0.0000 0.0000 0.0000 11.1959
#
#
#
# Elastic Compliance Matrix: (Units=1/GPa)
#
#
# Indices 1 2 3 4 5 6 
#
# 1 0.009086 -0.004252 -0.004081 0.000000 0.000000 0.000000
# 2 -0.004252 0.028227 -0.000204 0.000000 0.000000 0.000000
# 3 -0.004081 -0.000204 0.015964 0.000000 0.000000 0.000000
# 4 0.000000 0.000000 0.000000 -2.248477 0.000000 0.000000
# 5 0.000000 0.000000 0.000000 0.000000 0.046579 0.000000
# 6 0.000000 0.000000 0.000000 0.000000 0.000000 0.089318
#
#
# Mechanical properties :
#
#
# Convention : Reuss Voigt Hill
#
# Bulk Modulus (GPa) = 27.62278 40.91035 34.26656
# Shear Modulus (GPa) = -2.46286 18.73097 8.13406
#
# Velocity S-wave (km/s) = -1.30858 3.60879 2.37813
# Velocity P-wave (km/s) = 4.11370 6.76823 5.60051
#
# Compressibility (1/GPa) = 0.03620201
#
# Stress axis : x y z
#
# Youngs Moduli (GPa) = 110.06102 35.42656 62.64181
#
# Poissons Ratio (x) = 0.15065 0.25565
# Poissons Ratio (y) = 0.46803 0.01278
# Poissons Ratio (z) = 0.44917 0.00723
#
# Static dielectric constant tensor:
#      x y z
#    x 3.117110 0.000000 0.000000 
#    y 0.000000 1.475710 0.000000 
#    z 0.000000 0.000000 1.454060 
# 
# From -- ./inp_files/50577.got.cif
#   From: 2010.05.17/outbox.cif.g08.bks.cpg/sg65_26_cif.got.tgz:50577.got - 2010.06.03 17:01:31.
