data_PCOD9493499
_publ_section_title
;
Structure prediction by ZEFSAII (Michael W. Deem and Ramdas Pophale) SiO2 
 PCOD9493499
Probable space group: C M M M
;
_chemical_formula_sum "Si O2"
_cell_formula_units_Z 64
_cell_length_a 8.571261
_cell_length_b 18.757772
_cell_length_c 21.688855
_cell_angle_alpha 90.000000
_cell_angle_beta 90.000000
_cell_angle_gamma 90.000000
_cell_volume 3487.085515
_symmetry_space_group_name_H-M "C M M M"
_symmetry_group_IT_number 65
_symmetry_cell_setting 'orthorhombic'
loop_
_space_group_symop_operation_xyz
x,y,z
-x,-y,z
x,-y,-z
-x,y,-z
-x,-y,-z
x,y,-z
-x,y,z
x,-y,z
1/2+x,1/2+y,z
1/2-x,1/2-y,z
1/2+x,1/2-y,-z
1/2-x,1/2+y,-z
1/2-x,1/2-y,-z
1/2+x,1/2+y,-z
1/2-x,1/2+y,z
1/2+x,1/2-y,z
loop_
_atom_site_type_symbol
_atom_site_label
_atom_site_fract_x
_atom_site_fract_y
_atom_site_fract_z
Si Si1 0.812768 0.916895 0.500000
Si Si2 0.311656 0.669446 0.880706
Si Si3 0.687224 0.668907 0.745270
Si Si4 0.314220 0.831007 0.383370
Si Si5 0.190800 0.918224 0.000000
O O1 0.748446 0.877344 0.560301
O O2 0.000000 0.912157 0.500000
O O3 0.767727 0.000000 0.500000
O O4 0.500000 0.672531 0.882181
O O5 0.250000 0.750000 0.886436
O O6 0.268986 0.639359 0.812805
O O7 0.257928 0.622643 0.938321
O O8 0.500000 0.669233 0.739872
O O9 0.750000 0.750000 0.746909
O O10 0.758003 0.638088 0.682614
O O11 0.500000 0.827809 0.384460
O O12 0.250000 0.750000 0.388868
O O13 0.000000 0.917592 0.000000
O O14 0.240954 0.000000 0.000000
#
# Coordination Sequence:
#
# PCOD9493499 Si02
#       5
#     8  16  16  16   8
#     4  11  24  41  58  77 105 139 174 213 256 303
#     4   9  17  29  49  74  98 128 166 209 253 299
#     4   9  16  28  47  74 103 129 165 209 255 302
#     4  11  21  35  57  82 108 137 172 212 255 305
#     4   9  17  30  47  69  98 131 168 208 250 299
#
# _framework density 18.353435999999999
#
# number of rings (size 3 to 8) (size 9 to 14) (size 15 to 20)
#    0.000    2.250    0.000    5.625    0.000    2.000 
#    0.000    1.250    0.000    6.000    0.000    0.000 
#    0.000    0.000    0.000    0.000    0.000    0.000 
#
# Total GULP energy -178459.488425 kJ/mol
# GULP energy per Si atom -5576.859013 kJ/mol
# Density = 1.831166 g / cm^3
# Si number density = 18.353436 Si / 1000 Ang^3
#
#
#
# Elastic Constant Matrix: (Units=GPa)
#
#
# Indices 1 2 3 4 5 6 
#
# 1 68.2706 29.7632 54.0501 0.0000 0.0000 0.0000
# 2 29.7632 80.8432 89.3414 0.0000 0.0000 0.0000
# 3 54.0501 89.3414 239.1446 0.0000 0.0000 0.0000
# 4 0.0000 0.0000 0.0000 -14.0992 0.0000 0.0000
# 5 0.0000 0.0000 0.0000 0.0000 18.4348 0.0000
# 6 0.0000 0.0000 0.0000 0.0000 0.0000 17.4248
#
#
#
# Elastic Compliance Matrix: (Units=1/GPa)
#
#
# Indices 1 2 3 4 5 6 
#
# 1 0.018476 -0.003725 -0.002784 0.000000 0.000000 0.000000
# 2 -0.003725 0.021819 -0.007309 0.000000 0.000000 0.000000
# 3 -0.002784 -0.007309 0.007541 0.000000 0.000000 0.000000
# 4 0.000000 0.000000 0.000000 -0.070926 0.000000 0.000000
# 5 0.000000 0.000000 0.000000 0.000000 0.054245 0.000000
# 6 0.000000 0.000000 0.000000 0.000000 0.000000 0.057389
#
#
# Mechanical properties :
#
#
# Convention : Reuss Voigt Hill
#
# Bulk Modulus (GPa) = 49.50798 81.61864 65.56331
# Shear Modulus (GPa) = 40.67859 18.69233 29.68546
#
# Velocity S-wave (km/s) = 4.71298 3.19480 4.02610
# Velocity P-wave (km/s) = 7.52659 7.62732 7.57712
#
# Compressibility (1/GPa) = 0.02019876
#
# Stress axis : x y z
#
# Youngs Moduli (GPa) = 54.12474 45.83227 132.60068
#
# Poissons Ratio (x) = 0.17074 0.36917
# Poissons Ratio (y) = 0.20163 0.96921
# Poissons Ratio (z) = 0.15069 0.33500
#
# Static dielectric constant tensor:
#      x y z
#    x 1.618710 0.000000 0.000000 
#    y 0.000000 1.569860 0.000000 
#    z 0.000000 0.000000 1.678520 
# 
# From -- ./inp_files/58826.got.cif
#   From: 2010.05.17/outbox.cif.g08.bks.cpg/sg65_30_cif.got.tgz:58826.got - 2010.06.03 17:01:31.
