data_PCOD9493613
_publ_section_title
;
Structure prediction by ZEFSAII (Michael W. Deem and Ramdas Pophale) SiO2 
 PCOD9493613
Probable space group: C M M M
;
_chemical_formula_sum "Si O2"
_cell_formula_units_Z 104
_cell_length_a 13.952569
_cell_length_b 22.582779
_cell_length_c 18.753774
_cell_angle_alpha 90.000000
_cell_angle_beta 90.000000
_cell_angle_gamma 90.000000
_cell_volume 5909.085058
_symmetry_space_group_name_H-M "C M M M"
_symmetry_group_IT_number 65
_symmetry_cell_setting 'orthorhombic'
loop_
_space_group_symop_operation_xyz
x,y,z
-x,-y,z
x,-y,-z
-x,y,-z
-x,-y,-z
x,y,-z
-x,y,z
x,-y,z
1/2+x,1/2+y,z
1/2-x,1/2-y,z
1/2+x,1/2-y,-z
1/2-x,1/2+y,-z
1/2-x,1/2-y,-z
1/2+x,1/2+y,-z
1/2-x,1/2+y,z
1/2+x,1/2-y,z
loop_
_atom_site_type_symbol
_atom_site_label
_atom_site_fract_x
_atom_site_fract_y
_atom_site_fract_z
Si Si1 0.692932 0.340448 0.914271
Si Si2 0.890144 0.000000 0.415019
Si Si3 0.112709 0.645070 0.417308
Si Si4 0.392750 0.212332 0.913501
Si Si5 0.613946 0.713955 0.419308
Si Si6 0.387490 0.570664 0.804470
Si Si7 0.290790 0.390405 0.661138
O O1 0.636600 0.279760 0.895208
O O2 0.803876 0.329279 0.892035
O O3 0.644618 0.395222 0.875324
O O4 0.689789 0.346331 0.000000
O O5 0.839799 0.941717 0.385484
O O6 0.888933 0.000000 0.500000
O O7 0.000000 0.000000 0.389595
O O8 0.136506 0.629775 0.500000
O O9 0.128268 0.715973 0.409805
O O10 0.179974 0.612362 0.361209
O O11 0.000000 0.633882 0.407256
O O12 0.500000 0.198140 0.887587
O O13 0.394473 0.210243 0.000000
O O14 0.646056 0.698628 0.500000
O O15 0.500000 0.703172 0.415740
O O16 0.665784 0.672348 0.363465
O O17 0.500000 0.582705 0.789032
O O18 0.376277 0.500000 0.809956
O O19 0.320687 0.595249 0.741284
#
# Coordination Sequence:
#
# PCOD9493613 Si02
#       7
#    16   8  16  16  16  16  16
#     4   9  18  34  58  86 113 144 185 224 266 326
#     4  11  22  34  53  79 100 130 181 226 261 313
#     4   9  19  36  57  82 110 139 177 226 273 321
#     4   8  14  29  56  88 118 141 167 216 273 321
#     4   9  17  31  54  82 108 134 169 216 268 322
#     4  11  24  40  55  74 107 146 181 227 283 325
#     4  12  21  35  54  74 108 146 177 218 272 326
#
# _framework density 17.600017999999999
#
# number of rings (size 3 to 8) (size 9 to 14) (size 15 to 20)
#    0.000    2.231    0.769    5.538    0.000    3.692 
#    5.538    1.923    0.000    2.769    0.000    2.154 
#    0.000    0.000    0.000    0.000    0.000    0.000 
#
# Total GULP energy -290133.307752 kJ/mol
# GULP energy per Si atom -5579.486688 kJ/mol
# Density = 1.755996 g / cm^3
# Si number density = 17.600018 Si / 1000 Ang^3
#
#
#
# Elastic Constant Matrix: (Units=GPa)
#
#
# Indices 1 2 3 4 5 6 
#
# 1 107.4204 40.8455 35.1207 0.0000 0.0000 0.0000
# 2 40.8455 37.6568 32.6130 0.0000 0.0000 0.0000
# 3 35.1207 32.6130 55.4423 0.0000 0.0000 0.0000
# 4 0.0000 0.0000 0.0000 57.6900 0.0000 0.0000
# 5 0.0000 0.0000 0.0000 0.0000 39.6914 0.0000
# 6 0.0000 0.0000 0.0000 0.0000 0.0000 26.7458
#
#
#
# Elastic Compliance Matrix: (Units=1/GPa)
#
#
# Indices 1 2 3 4 5 6 
#
# 1 0.015844 -0.017314 0.000148 0.000000 0.000000 0.000000
# 2 -0.017314 0.073054 -0.032005 0.000000 0.000000 0.000000
# 3 0.000148 -0.032005 0.036769 0.000000 0.000000 0.000000
# 4 0.000000 0.000000 0.000000 0.017334 0.000000 0.000000
# 5 0.000000 0.000000 0.000000 0.000000 0.025194 0.000000
# 6 0.000000 0.000000 0.000000 0.000000 0.000000 0.037389
#
#
# Mechanical properties :
#
#
# Convention : Reuss Voigt Hill
#
# Bulk Modulus (GPa) = 36.59582 46.40865 41.50224
# Shear Modulus (GPa) = 15.97266 30.95478 23.46372
#
# Velocity S-wave (km/s) = 3.01580 4.19835 3.65521
# Velocity P-wave (km/s) = 5.74151 7.06592 6.43786
#
# Compressibility (1/GPa) = 0.02732552
#
# Stress axis : x y z
#
# Youngs Moduli (GPa) = 63.11388 13.68858 27.19663
#
# Poissons Ratio (x) = 0.23701 -0.00402
# Poissons Ratio (y) = 1.09276 0.87042
# Poissons Ratio (z) = -0.00933 0.43810
#
# Static dielectric constant tensor:
#      x y z
#    x 1.637120 0.000000 0.000000 
#    y 0.000000 1.574930 0.000000 
#    z 0.000000 0.000000 1.600290 
# 
# From -- ./inp_files/53345.got.cif
#   From: 2010.05.17/outbox.cif.g08.bks.cpg/sg65_27_cif.got.tgz:53345.got - 2010.06.03 17:01:31.
