data_PCOD9493755
_publ_section_title
;
Structure prediction by ZEFSAII (Michael W. Deem and Ramdas Pophale) SiO2 
 PCOD9493755
Probable space group: C M M M
;
_chemical_formula_sum "Si O2"
_cell_formula_units_Z 72
_cell_length_a 14.298795
_cell_length_b 18.782790
_cell_length_c 14.126122
_cell_angle_alpha 90.000000
_cell_angle_beta 90.000000
_cell_angle_gamma 90.000000
_cell_volume 3793.870437
_symmetry_space_group_name_H-M "C M M M"
_symmetry_group_IT_number 65
_symmetry_cell_setting 'orthorhombic'
loop_
_space_group_symop_operation_xyz
x,y,z
-x,-y,z
x,-y,-z
-x,y,-z
-x,-y,-z
x,y,-z
-x,y,z
x,-y,z
1/2+x,1/2+y,z
1/2-x,1/2-y,z
1/2+x,1/2-y,-z
1/2-x,1/2+y,-z
1/2-x,1/2-y,-z
1/2+x,1/2+y,-z
1/2-x,1/2+y,z
1/2+x,1/2-y,z
loop_
_atom_site_type_symbol
_atom_site_label
_atom_site_fract_x
_atom_site_fract_y
_atom_site_fract_z
Si Si1 0.176842 0.585100 0.000000
Si Si2 0.889797 0.630448 0.210239
Si Si3 0.108661 0.914531 0.500000
Si Si4 0.665976 0.307844 0.000000
Si Si5 0.787674 0.918172 0.304699
Si Si6 0.396223 0.705379 0.205341
O O1 0.132055 0.612320 0.900583
O O2 0.173532 0.500000 0.000000
O O3 0.281545 0.616559 0.000000
O O4 0.822393 0.587267 0.280801
O O5 0.868361 0.713957 0.229526
O O6 0.000000 0.618545 0.225320
O O7 0.170705 0.897745 0.592594
O O8 0.000000 0.887029 0.500000
O O9 0.100083 0.000000 0.500000
O O10 0.750000 0.250000 0.000000
O O11 0.606262 0.296554 0.092529
O O12 0.831477 0.858685 0.237338
O O13 0.816802 0.000000 0.285616
O O14 0.500000 0.692721 0.243227
#
# Coordination Sequence:
#
# PCOD9493755 Si02
#       6
#     8  16   8   8  16  16
#     4  12  23  36  57  85 119 162 207 246 282 333
#     4  11  23  39  59  86 122 163 204 243 290 349
#     4   9  20  40  64  89 117 153 195 240 300 370
#     4  12  19  35  57  80 118 159 200 237 290 344
#     4  11  22  39  63  89 117 150 195 250 300 354
#     4  11  22  37  59  86 119 160 198 240 297 356
#
# _framework density 18.977979999999999
#
# number of rings (size 3 to 8) (size 9 to 14) (size 15 to 20)
#    0.000    1.000    4.444    2.667    0.000    5.333 
#    0.000    2.778    0.000    6.667    0.000    0.000 
#    0.000    0.000    0.000    0.000    0.000    0.000 
#
# Total GULP energy -200748.280601 kJ/mol
# GULP energy per Si atom -5576.341128 kJ/mol
# Density = 1.893478 g / cm^3
# Si number density = 18.977980 Si / 1000 Ang^3
#
#
#
# Elastic Constant Matrix: (Units=GPa)
#
#
# Indices 1 2 3 4 5 6 
#
# 1 99.4035 40.6845 37.9473 0.0000 0.0000 0.0000
# 2 40.6845 100.1581 9.1601 0.0000 0.0000 0.0000
# 3 37.9473 9.1601 85.7932 0.0000 0.0000 0.0000
# 4 0.0000 0.0000 0.0000 10.6500 0.0000 0.0000
# 5 0.0000 0.0000 0.0000 0.0000 9.0444 0.0000
# 6 0.0000 0.0000 0.0000 0.0000 0.0000 24.4173
#
#
#
# Elastic Compliance Matrix: (Units=1/GPa)
#
#
# Indices 1 2 3 4 5 6 
#
# 1 0.014474 -0.005346 -0.005831 0.000000 0.000000 0.000000
# 2 -0.005346 0.012057 0.001077 0.000000 0.000000 0.000000
# 3 -0.005831 0.001077 0.014120 0.000000 0.000000 0.000000
# 4 0.000000 0.000000 0.000000 0.093896 0.000000 0.000000
# 5 0.000000 0.000000 0.000000 0.000000 0.110565 0.000000
# 6 0.000000 0.000000 0.000000 0.000000 0.000000 0.040955
#
#
# Mechanical properties :
#
#
# Convention : Reuss Voigt Hill
#
# Bulk Modulus (GPa) = 48.89642 51.21540 50.05591
# Shear Modulus (GPa) = 15.97008 21.99321 18.98164
#
# Velocity S-wave (km/s) = 2.90402 3.40793 3.16601
# Velocity P-wave (km/s) = 6.08812 6.52155 6.30856
#
# Compressibility (1/GPa) = 0.02045139
#
# Stress axis : x y z
#
# Youngs Moduli (GPa) = 69.08839 82.93724 70.82076
#
# Poissons Ratio (x) = 0.44340 0.41298
# Poissons Ratio (y) = 0.36936 -0.07630
# Poissons Ratio (z) = 0.40287 -0.08935
#
# Static dielectric constant tensor:
#      x y z
#    x 1.696590 0.000000 0.000000 
#    y 0.000000 1.663210 0.000000 
#    z 0.000000 0.000000 1.665460 
# 
# From -- ./inp_files/39869.got.cif
#   From: 2010.05.17/outbox.cif.g08.bks.cpg/sg65_20_cif.got.tgz:39869.got - 2010.06.03 17:01:31.
