data_PCOD9493842
_publ_section_title
;
Structure prediction by ZEFSAII (Michael W. Deem and Ramdas Pophale) SiO2 
 PCOD9493842
Probable space group: C M M M
;
_chemical_formula_sum "Si O2"
_cell_formula_units_Z 58
_cell_length_a 13.883264
_cell_length_b 26.058652
_cell_length_c 8.638462
_cell_angle_alpha 90.000000
_cell_angle_beta 90.000000
_cell_angle_gamma 90.000000
_cell_volume 3125.215398
_symmetry_space_group_name_H-M "C M M M"
_symmetry_group_IT_number 65
_symmetry_cell_setting 'orthorhombic'
loop_
_space_group_symop_operation_xyz
x,y,z
-x,-y,z
x,-y,-z
-x,y,-z
-x,-y,-z
x,y,-z
-x,y,z
x,-y,z
1/2+x,1/2+y,z
1/2-x,1/2-y,z
1/2+x,1/2-y,-z
1/2-x,1/2+y,-z
1/2-x,1/2-y,-z
1/2+x,1/2+y,-z
1/2-x,1/2+y,z
1/2+x,1/2-y,z
loop_
_atom_site_type_symbol
_atom_site_label
_atom_site_fract_x
_atom_site_fract_y
_atom_site_fract_z
Si Si1 0.179142 0.298531 0.176133
Si Si2 0.706796 0.605202 0.686945
Si Si3 0.798212 0.500000 0.672274
Si Si4 0.500000 0.000000 0.500000
Si Si5 0.000000 0.753773 0.321689
Si Si6 0.000000 0.866939 0.184281
O O1 0.250000 0.250000 0.172265
O O2 0.235730 0.346901 0.242360
O O3 0.091478 0.280852 0.281992
O O4 0.146319 0.308451 0.000000
O O5 0.711121 0.608923 0.500000
O O6 0.759137 0.552855 0.741954
O O7 0.596711 0.609359 0.742780
O O8 0.751537 0.500000 0.500000
O O9 0.912402 0.500000 0.633401
O O10 0.000000 0.805821 0.221309
O O11 0.000000 0.769762 0.500000
O O12 0.000000 0.873866 0.000000
#
# Coordination Sequence:
#
# PCOD9493842 Si02
#       6
#    16  16   8   2   8   8
#     4  11  23  39  60  88 131 170 208 258 325 387
#     4  11  22  40  64  95 125 166 216 267 312 379
#     4   8  20  39  66  94 128 157 207 264 319 366
#     4   8  16  44  68  90 130 160 196 256 342 356
#     4  12  24  39  62  91 121 168 221 267 316 382
#     4  12  24  39  60  89 133 175 207 258 330 384
#
# _framework density 18.558720000000001
#
# number of rings (size 3 to 8) (size 9 to 14) (size 15 to 20)
#    0.414    0.828    2.759    4.138    0.000    2.759 
#    2.483    5.517    0.000    0.000    0.000    5.793 
#    0.000    0.000    0.000    0.000    0.000    0.000 
#
# Total GULP energy -161565.551845 kJ/mol
# GULP energy per Si atom -5571.225926 kJ/mol
# Density = 1.851648 g / cm^3
# Si number density = 18.558720 Si / 1000 Ang^3
#
#
#
# Elastic Constant Matrix: (Units=GPa)
#
#
# Indices 1 2 3 4 5 6 
#
# 1 123.2566 60.5484 1.6245 0.0000 0.0000 0.0000
# 2 60.5484 146.4773 19.9881 0.0000 0.0000 0.0000
# 3 1.6245 19.9881 67.3467 0.0000 0.0000 0.0000
# 4 0.0000 0.0000 0.0000 -93.7695 0.0000 0.0000
# 5 0.0000 0.0000 0.0000 0.0000 118.6582 0.0000
# 6 0.0000 0.0000 0.0000 0.0000 0.0000 16.3947
#
#
#
# Elastic Compliance Matrix: (Units=1/GPa)
#
#
# Indices 1 2 3 4 5 6 
#
# 1 0.010252 -0.004381 0.001053 0.000000 0.000000 0.000000
# 2 -0.004381 0.008988 -0.002562 0.000000 0.000000 0.000000
# 3 0.001053 -0.002562 0.015583 0.000000 0.000000 0.000000
# 4 0.000000 0.000000 0.000000 -0.010664 0.000000 0.000000
# 5 0.000000 0.000000 0.000000 0.000000 0.008428 0.000000
# 6 0.000000 0.000000 0.000000 0.000000 0.000000 0.060995
#
#
# Mechanical properties :
#
#
# Convention : Reuss Voigt Hill
#
# Bulk Modulus (GPa) = 43.39794 55.71140 49.55467
# Shear Modulus (GPa) = 44.23128 25.25132 34.74130
#
# Velocity S-wave (km/s) = 4.88722 3.69266 4.33132
# Velocity P-wave (km/s) = 7.43515 6.94731 7.19536
#
# Compressibility (1/GPa) = 0.02304257
#
# Stress axis : x y z
#
# Youngs Moduli (GPa) = 97.54618 111.26373 64.17062
#
# Poissons Ratio (x) = 0.48748 -0.06758
# Poissons Ratio (y) = 0.42738 0.16439
# Poissons Ratio (z) = -0.10272 0.28504
#
# Static dielectric constant tensor:
#      x y z
#    x 1.582700 0.000000 0.000000 
#    y 0.000000 1.647910 0.000000 
#    z 0.000000 0.000000 1.637590 
# 
# From -- ./inp_files/4546.got.cif
#   From: 2010.05.17/outbox.cif.g08.bks.cpg/sg65_3_cif.got.tgz:4546.got - 2010.06.03 17:01:31.
