data_PCOD9493829
_publ_section_title
;
Structure prediction by ZEFSAII (Michael W. Deem and Ramdas Pophale) SiO2 
 PCOD9493829
Probable space group: C M M M
;
_chemical_formula_sum "Si O2"
_cell_formula_units_Z 72
_cell_length_a 9.035501
_cell_length_b 15.457824
_cell_length_c 25.982362
_cell_angle_alpha 90.000000
_cell_angle_beta 90.000000
_cell_angle_gamma 90.000000
_cell_volume 3628.935304
_symmetry_space_group_name_H-M "C M M M"
_symmetry_group_IT_number 65
_symmetry_cell_setting 'orthorhombic'
loop_
_space_group_symop_operation_xyz
x,y,z
-x,-y,z
x,-y,-z
-x,y,-z
-x,-y,-z
x,y,-z
-x,y,z
x,-y,z
1/2+x,1/2+y,z
1/2-x,1/2-y,z
1/2+x,1/2-y,-z
1/2-x,1/2+y,-z
1/2-x,1/2-y,-z
1/2+x,1/2+y,-z
1/2-x,1/2+y,z
1/2+x,1/2-y,z
loop_
_atom_site_type_symbol
_atom_site_label
_atom_site_fract_x
_atom_site_fract_y
_atom_site_fract_z
Si Si1 0.174547 0.500000 0.438477
Si Si2 0.179901 0.899509 0.729049
Si Si3 0.821851 0.161802 0.617091
Si Si4 0.328225 0.605911 0.159417
Si Si5 0.326464 0.894724 0.944198
O O1 0.187784 0.500000 0.500000
O O2 0.255070 0.417296 0.414454
O O3 0.000000 0.500000 0.425255
O O4 0.221876 0.850962 0.677214
O O5 0.233398 0.866428 0.784740
O O6 0.000000 0.899048 0.731789
O O7 0.224752 0.000000 0.723215
O O8 0.750000 0.250000 0.597994
O O9 0.000000 0.162652 0.613907
O O10 0.500000 0.629952 0.155945
O O11 0.321858 0.500000 0.160457
O O12 0.248529 0.636761 0.107949
O O13 0.500000 0.874285 0.942684
O O14 0.314220 0.000000 0.943750
O O15 0.265517 0.865849 0.000000
#
# Coordination Sequence:
#
# PCOD9493829 Si02
#       5
#     8  16  16  16  16
#     4  11  25  45  67  93 125 159 200 247 290 339
#     4   8  14  28  50  74 102 140 181 225 282 340
#     4  11  22  39  64  92 124 161 200 243 293 349
#     4   8  13  21  36  57  81 115 165 216 262 321
#     4   8  13  20  28  42  73 116 158 204 263 325
#
# _framework density 19.840529
#
# number of rings (size 3 to 8) (size 9 to 14) (size 15 to 20)
#    0.000    3.000    1.111    3.000    0.000    1.778 
#    0.000    4.444    0.000    0.000    0.000    0.000 
#    0.000    0.889    0.000    2.000    0.000    5.333 
#
# Total GULP energy -200685.729859 kJ/mol
# GULP energy per Si atom -5574.603607 kJ/mol
# Density = 1.979537 g / cm^3
# Si number density = 19.840529 Si / 1000 Ang^3
#
#
#
# Elastic Constant Matrix: (Units=GPa)
#
#
# Indices 1 2 3 4 5 6 
#
# 1 57.7451 34.8069 59.5093 0.0000 0.0000 0.0000
# 2 34.8069 90.2639 47.1324 0.0000 0.0000 0.0000
# 3 59.5093 47.1324 128.2444 0.0000 0.0000 0.0000
# 4 0.0000 0.0000 0.0000 -19.3785 0.0000 0.0000
# 5 0.0000 0.0000 0.0000 0.0000 17.6398 0.0000
# 6 0.0000 0.0000 0.0000 0.0000 0.0000 12.9062
#
#
#
# Elastic Compliance Matrix: (Units=1/GPa)
#
#
# Indices 1 2 3 4 5 6 
#
# 1 0.035924 -0.006371 -0.014328 0.000000 0.000000 0.000000
# 2 -0.006371 0.014839 -0.002497 0.000000 0.000000 0.000000
# 3 -0.014328 -0.002497 0.015364 0.000000 0.000000 0.000000
# 4 0.000000 0.000000 0.000000 -0.051604 0.000000 0.000000
# 5 0.000000 0.000000 0.000000 0.000000 0.056690 0.000000
# 6 0.000000 0.000000 0.000000 0.000000 0.000000 0.077482
#
#
# Mechanical properties :
#
#
# Convention : Reuss Voigt Hill
#
# Bulk Modulus (GPa) = 50.67392 62.12785 56.40088
# Shear Modulus (GPa) = 24.79335 11.22050 18.00692
#
# Velocity S-wave (km/s) = 3.53885 2.38068 3.01588
# Velocity P-wave (km/s) = 6.50338 6.24006 6.37308
#
# Compressibility (1/GPa) = 0.01973402
#
# Stress axis : x y z
#
# Youngs Moduli (GPa) = 27.83677 67.38807 65.08624
#
# Poissons Ratio (x) = 0.42933 0.93257
# Poissons Ratio (y) = 0.17735 0.16255
# Poissons Ratio (z) = 0.39885 0.16830
#
# Static dielectric constant tensor:
#      x y z
#    x 1.661200 0.000000 0.000000 
#    y 0.000000 1.753390 0.000000 
#    z 0.000000 0.000000 1.733910 
# 
# From -- ./inp_files/72533.got.cif
#   From: 2010.05.17/outbox.cif.g08.bks.cpg/sg65_37_cif.got.tgz:72533.got - 2010.06.03 17:01:31.
