data_PCOD9493320
_publ_section_title
;
Structure prediction by ZEFSAII (Michael W. Deem and Ramdas Pophale) SiO2 
 PCOD9493320
Probable space group: C M M M
;
_chemical_formula_sum "Si O2"
_cell_formula_units_Z 72
_cell_length_a 28.728700
_cell_length_b 19.805678
_cell_length_c 8.539880
_cell_angle_alpha 90.000000
_cell_angle_beta 90.000000
_cell_angle_gamma 90.000000
_cell_volume 4859.118120
_symmetry_space_group_name_H-M "C M M M"
_symmetry_group_IT_number 65
_symmetry_cell_setting 'orthorhombic'
loop_
_space_group_symop_operation_xyz
x,y,z
-x,-y,z
x,-y,-z
-x,y,-z
-x,-y,-z
x,y,-z
-x,y,z
x,-y,z
1/2+x,1/2+y,z
1/2-x,1/2-y,z
1/2+x,1/2-y,-z
1/2-x,1/2+y,-z
1/2-x,1/2-y,-z
1/2+x,1/2+y,-z
1/2-x,1/2+y,z
1/2+x,1/2-y,z
loop_
_atom_site_type_symbol
_atom_site_label
_atom_site_fract_x
_atom_site_fract_y
_atom_site_fract_z
Si Si1 0.847039 0.500000 0.311405
Si Si2 0.238352 0.000000 0.686381
Si Si3 0.597179 0.128663 0.187682
Si Si4 0.500000 0.921095 0.687220
Si Si5 0.771569 0.855436 0.188873
Si Si6 0.822024 0.278651 0.190533
O O1 0.851207 0.500000 0.500000
O O2 0.792929 0.500000 0.267183
O O3 0.872470 0.435180 0.241735
O O4 0.218172 0.929781 0.749349
O O5 0.235723 0.000000 0.500000
O O6 0.546113 0.117054 0.255829
O O7 0.628002 0.192991 0.240441
O O8 0.593907 0.129757 0.000000
O O9 0.500000 0.923517 0.500000
O O10 0.500000 0.000000 0.743350
O O11 0.807278 0.796579 0.239242
O O12 0.720170 0.828781 0.239373
O O13 0.771266 0.857420 0.000000
O O14 0.821506 0.279166 0.000000
#
# Coordination Sequence:
#
# PCOD9493320 Si02
#       6
#     8   8  16   8  16  16
#     4  11  21  30  40  61  93 125 151 185 228 267
#     4  11  21  29  40  66  97 122 154 188 218 263
#     4  11  20  32  50  67  84 114 158 198 225 260
#     4  11  23  35  45  63  94 123 148 187 230 268
#     4   9  16  30  48  65  87 118 150 184 226 267
#     4   8  16  29  47  68  87 110 150 194 226 261
#
# _framework density 14.817503
#
# number of rings (size 3 to 8) (size 9 to 14) (size 15 to 20)
#    0.000    2.111    3.333    3.000    0.000    1.333 
#    0.000    4.444    0.000    0.000    0.000    0.000 
#    0.000    0.889    0.000   10.222    0.000    4.000 
#
# Total GULP energy -200694.398389 kJ/mol
# GULP energy per Si atom -5574.844400 kJ/mol
# Density = 1.478378 g / cm^3
# Si number density = 14.817503 Si / 1000 Ang^3
#
#
#
# Elastic Constant Matrix: (Units=GPa)
#
#
# Indices 1 2 3 4 5 6 
#
# 1 101.6809 62.1579 22.7780 0.0000 0.0000 0.0000
# 2 62.1579 130.4769 19.7734 0.0000 0.0000 0.0000
# 3 22.7780 19.7734 20.2873 0.0000 0.0000 0.0000
# 4 0.0000 0.0000 0.0000 -9.0668 0.0000 0.0000
# 5 0.0000 0.0000 0.0000 0.0000 15.7126 0.0000
# 6 0.0000 0.0000 0.0000 0.0000 0.0000 22.9925
#
#
#
# Elastic Compliance Matrix: (Units=1/GPa)
#
#
# Indices 1 2 3 4 5 6 
#
# 1 0.016194 -0.005819 -0.012511 0.000000 0.000000 0.000000
# 2 -0.005819 0.011083 -0.004269 0.000000 0.000000 0.000000
# 3 -0.012511 -0.004269 0.067500 0.000000 0.000000 0.000000
# 4 0.000000 0.000000 0.000000 -0.110292 0.000000 0.000000
# 5 0.000000 0.000000 0.000000 0.000000 0.063643 0.000000
# 6 0.000000 0.000000 0.000000 0.000000 0.000000 0.043492
#
#
# Mechanical properties :
#
#
# Convention : Reuss Voigt Hill
#
# Bulk Modulus (GPa) = 20.16975 51.31821 35.74398
# Shear Modulus (GPa) = 32.60593 15.77672 24.19132
#
# Velocity S-wave (km/s) = 4.69604 3.26657 4.04495
# Velocity P-wave (km/s) = 6.56090 6.99543 6.78164
#
# Compressibility (1/GPa) = 0.04957921
#
# Stress axis : x y z
#
# Youngs Moduli (GPa) = 61.74946 90.22655 14.81480
#
# Poissons Ratio (x) = 0.52501 0.18535
# Poissons Ratio (y) = 0.35931 0.06325
# Poissons Ratio (z) = 0.77256 0.38519
#
# Static dielectric constant tensor:
#      x y z
#    x 1.487390 0.000000 0.000000 
#    y 0.000000 1.487000 0.000000 
#    z 0.000000 0.000000 1.501230 
# 
# From -- ./inp_files/16222.got.cif
#   From: 2010.05.17/outbox.cif.g08.bks.cpg/sg65_9_cif.got.tgz:16222.got - 2010.06.03 17:01:31.
