data_PCOD9493596
_publ_section_title
;
Structure prediction by ZEFSAII (Michael W. Deem and Ramdas Pophale) SiO2 
 PCOD9493596
Probable space group: C M M M
;
_chemical_formula_sum "Si O2"
_cell_formula_units_Z 88
_cell_length_a 7.666869
_cell_length_b 19.503348
_cell_length_c 29.660076
_cell_angle_alpha 90.000000
_cell_angle_beta 90.000000
_cell_angle_gamma 90.000000
_cell_volume 4435.059721
_symmetry_space_group_name_H-M "C M M M"
_symmetry_group_IT_number 65
_symmetry_cell_setting 'orthorhombic'
loop_
_space_group_symop_operation_xyz
x,y,z
-x,-y,z
x,-y,-z
-x,y,-z
-x,-y,-z
x,y,-z
-x,y,z
x,-y,z
1/2+x,1/2+y,z
1/2-x,1/2-y,z
1/2+x,1/2-y,-z
1/2-x,1/2+y,-z
1/2-x,1/2-y,-z
1/2+x,1/2+y,-z
1/2-x,1/2+y,z
1/2+x,1/2-y,z
loop_
_atom_site_type_symbol
_atom_site_label
_atom_site_fract_x
_atom_site_fract_y
_atom_site_fract_z
Si Si1 0.785592 0.579597 0.401386
Si Si2 0.294545 0.829898 0.318675
Si Si3 0.209783 0.830039 0.049972
Si Si4 0.201619 0.416689 0.500000
Si Si5 0.712743 0.579380 0.132720
Si Si6 0.709315 0.422203 0.233504
O O1 0.736232 0.500000 0.393572
O O2 0.720928 0.628267 0.361463
O O3 0.723562 0.602417 0.451239
O O4 0.000000 0.580080 0.402754
O O5 0.500000 0.834118 0.323904
O O6 0.250000 0.750000 0.317624
O O7 0.251129 0.869202 0.272606
O O8 0.250000 0.750000 0.056094
O O9 0.277133 0.873765 0.091988
O O10 0.000000 0.837656 0.049269
O O11 0.274579 0.850525 0.000000
O O12 0.200562 0.500000 0.500000
O O13 0.000000 0.393596 0.500000
O O14 0.500000 0.582896 0.132622
O O15 0.759382 0.500000 0.125495
O O16 0.770996 0.598508 0.183348
O O17 0.500000 0.426166 0.231037
O O18 0.773036 0.500000 0.243360
#
# Coordination Sequence:
#
# PCOD9493596 Si02
#       6
#    16  16  16   8  16  16
#     4   8  14  26  46  70  93 119 153 194 237 280
#     4  11  22  34  48  69  99 130 163 201 238 280
#     4   9  17  29  46  68  94 124 156 189 226 270
#     4   7  10  20  41  68  93 115 146 189 234 279
#     4   8  15  29  49  72  95 118 149 191 234 276
#     4   9  18  34  54  73  95 124 157 195 242 292
#
# _framework density 19.841895999999998
#
# number of rings (size 3 to 8) (size 9 to 14) (size 15 to 20)
#    0.000    3.182    0.000    3.273    0.000    2.182 
#    0.000    5.000    0.000    1.636    0.000    4.455 
#    0.000   10.182    0.000    0.000    0.000    0.000 
#
# Total GULP energy -245226.310950 kJ/mol
# GULP energy per Si atom -5573.325249 kJ/mol
# Density = 1.979674 g / cm^3
# Si number density = 19.841896 Si / 1000 Ang^3
#
#
#
# Elastic Constant Matrix: (Units=GPa)
#
#
# Indices 1 2 3 4 5 6 
#
# 1 35.1670 4.2060 10.2339 0.0000 0.0000 0.0000
# 2 4.2060 115.5453 138.1830 0.0000 0.0000 0.0000
# 3 10.2339 138.1830 244.7373 0.0000 0.0000 0.0000
# 4 0.0000 0.0000 0.0000 -47.4253 0.0000 0.0000
# 5 0.0000 0.0000 0.0000 0.0000 5.0547 0.0000
# 6 0.0000 0.0000 0.0000 0.0000 0.0000 -3.5310
#
#
#
# Elastic Compliance Matrix: (Units=1/GPa)
#
#
# Indices 1 2 3 4 5 6 
#
# 1 0.028841 0.001208 -0.001888 0.000000 0.000000 0.000000
# 2 0.001208 0.026700 -0.015126 0.000000 0.000000 0.000000
# 3 -0.001888 -0.015126 0.012705 0.000000 0.000000 0.000000
# 4 0.000000 0.000000 0.000000 -0.021086 0.000000 0.000000
# 5 0.000000 0.000000 0.000000 0.000000 0.197837 0.000000
# 6 0.000000 0.000000 0.000000 0.000000 0.000000 -0.283204
#
#
# Mechanical properties :
#
#
# Convention : Reuss Voigt Hill
#
# Bulk Modulus (GPa) = 27.29667 77.85506 52.57586
# Shear Modulus (GPa) = 890.37797 7.00811 448.69304
#
# Velocity S-wave (km/s) = 21.20638 1.88139 15.05407
# Velocity P-wave (km/s) = 24.76693 6.63645 18.13068
#
# Compressibility (1/GPa) = 0.03663451
#
# Stress axis : x y z
#
# Youngs Moduli (GPa) = 34.67320 37.45356 78.70793
#
# Poissons Ratio (x) = -0.04526 0.14862
# Poissons Ratio (y) = -0.04190 1.19051
# Poissons Ratio (z) = 0.06547 0.56651
#
# Static dielectric constant tensor:
#      x y z
#    x 1.753350 0.000000 0.000000 
#    y 0.000000 1.622600 0.000000 
#    z 0.000000 0.000000 1.745440 
# 
# From -- ./inp_files/76564.got.cif
#   From: 2010.05.17/outbox.cif.g08.bks.cpg/sg65_39_cif.got.tgz:76564.got - 2010.06.03 17:01:31.
