data_PCOD9493575
_publ_section_title
;
Structure prediction by ZEFSAII (Michael W. Deem and Ramdas Pophale) SiO2 
 PCOD9493575
Probable space group: C M M M
;
_chemical_formula_sum "Si O2"
_cell_formula_units_Z 88
_cell_length_a 13.986597
_cell_length_b 17.873806
_cell_length_c 20.048175
_cell_angle_alpha 90.000000
_cell_angle_beta 90.000000
_cell_angle_gamma 90.000000
_cell_volume 5011.917875
_symmetry_space_group_name_H-M "C M M M"
_symmetry_group_IT_number 65
_symmetry_cell_setting 'orthorhombic'
loop_
_space_group_symop_operation_xyz
x,y,z
-x,-y,z
x,-y,-z
-x,y,-z
-x,-y,-z
x,y,-z
-x,y,z
x,-y,z
1/2+x,1/2+y,z
1/2-x,1/2-y,z
1/2+x,1/2-y,-z
1/2-x,1/2+y,-z
1/2-x,1/2-y,-z
1/2+x,1/2+y,-z
1/2-x,1/2+y,z
1/2+x,1/2-y,z
loop_
_atom_site_type_symbol
_atom_site_label
_atom_site_fract_x
_atom_site_fract_y
_atom_site_fract_z
Si Si1 0.887608 0.670438 0.325587
Si Si2 0.883247 0.164489 0.924853
Si Si3 0.385925 0.704256 0.783613
Si Si4 0.797124 0.087072 0.315203
Si Si5 0.392898 0.500000 0.919581
Si Si6 0.115220 0.804511 0.576385
O O1 0.868772 0.722723 0.261016
O O2 0.816052 0.601667 0.322281
O O3 0.862652 0.725667 0.387287
O O4 0.000000 0.652278 0.328405
O O5 0.859327 0.214138 0.860995
O O6 0.848395 0.080543 0.905781
O O7 0.000000 0.160450 0.928278
O O8 0.851264 0.184301 0.000000
O O9 0.500000 0.689866 0.780326
O O10 0.335058 0.634524 0.747955
O O11 0.844048 0.128659 0.378737
O O12 0.820588 0.000000 0.310963
O O13 0.500000 0.500000 0.889730
O O14 0.402234 0.500000 0.000000
O O15 0.147423 0.806609 0.500000
O O16 0.000000 0.810355 0.577818
#
# Coordination Sequence:
#
# PCOD9493575 Si02
#       6
#    16  16  16  16   8  16
#     4   9  19  36  53  68  89 124 169 206 237 273
#     4   8  13  21  36  62  94 125 154 183 226 286
#     4   9  17  29  48  71  97 127 155 191 237 290
#     4  11  22  32  47  72  99 128 160 197 240 279
#     4   7  10  16  26  46  82 122 146 162 200 265
#     4   9  18  34  56  78 100 128 156 183 225 285
#
# _framework density 17.558149
#
# number of rings (size 3 to 8) (size 9 to 14) (size 15 to 20)
#    0.000    3.000    0.000    4.909    1.273    3.636 
#    0.000    0.909    0.000    2.182    0.000    3.818 
#    0.000    0.000    0.000    8.727    0.000    0.000 
#
# Total GULP energy -245050.581701 kJ/mol
# GULP energy per Si atom -5569.331402 kJ/mol
# Density = 1.751819 g / cm^3
# Si number density = 17.558149 Si / 1000 Ang^3
#
#
#
# Elastic Constant Matrix: (Units=GPa)
#
#
# Indices 1 2 3 4 5 6 
#
# 1 47.1326 13.8426 9.2021 0.0000 0.0000 0.0000
# 2 13.8426 30.8559 7.6199 0.0000 0.0000 0.0000
# 3 9.2021 7.6199 130.4445 0.0000 0.0000 0.0000
# 4 0.0000 0.0000 0.0000 4.3985 0.0000 0.0000
# 5 0.0000 0.0000 0.0000 0.0000 -4.7313 0.0000
# 6 0.0000 0.0000 0.0000 0.0000 0.0000 11.9878
#
#
#
# Elastic Compliance Matrix: (Units=1/GPa)
#
#
# Indices 1 2 3 4 5 6 
#
# 1 0.024593 -0.010760 -0.001106 0.000000 0.000000 0.000000
# 2 -0.010760 0.037590 -0.001437 0.000000 0.000000 0.000000
# 3 -0.001106 -0.001437 0.007828 0.000000 0.000000 0.000000
# 4 0.000000 0.000000 0.000000 0.227349 0.000000 0.000000
# 5 0.000000 0.000000 0.000000 0.000000 -0.211359 0.000000
# 6 0.000000 0.000000 0.000000 0.000000 0.000000 0.083418
#
#
# Mechanical properties :
#
#
# Convention : Reuss Voigt Hill
#
# Bulk Modulus (GPa) = 23.03838 29.97357 26.50597
# Shear Modulus (GPa) = 23.75368 14.18224 18.96796
#
# Velocity S-wave (km/s) = 3.68211 2.84514 3.29035
# Velocity P-wave (km/s) = 5.58811 5.28216 5.43728
#
# Compressibility (1/GPa) = 0.04340583
#
# Stress axis : x y z
#
# Youngs Moduli (GPa) = 40.66232 26.60247 127.74538
#
# Poissons Ratio (x) = 0.28623 0.14133
# Poissons Ratio (y) = 0.43751 0.18355
# Poissons Ratio (z) = 0.04499 0.03822
#
# Static dielectric constant tensor:
#      x y z
#    x 1.626910 0.000000 0.000000 
#    y 0.000000 1.581290 0.000000 
#    z 0.000000 0.000000 1.622240 
# 
# From -- ./inp_files/62506.got.cif
#   From: 2010.05.17/outbox.cif.g08.bks.cpg/sg65_32_cif.got.tgz:62506.got - 2010.06.03 17:01:31.
