data_PCOD9493535
_publ_section_title
;
Structure prediction by ZEFSAII (Michael W. Deem and Ramdas Pophale) SiO2 
 PCOD9493535
Probable space group: C M M M
;
_chemical_formula_sum "Si O2"
_cell_formula_units_Z 56
_cell_length_a 13.272438
_cell_length_b 25.105651
_cell_length_c 7.870740
_cell_angle_alpha 90.000000
_cell_angle_beta 90.000000
_cell_angle_gamma 90.000000
_cell_volume 2622.634433
_symmetry_space_group_name_H-M "C M M M"
_symmetry_group_IT_number 65
_symmetry_cell_setting 'orthorhombic'
loop_
_space_group_symop_operation_xyz
x,y,z
-x,-y,z
x,-y,-z
-x,y,-z
-x,-y,-z
x,y,-z
-x,y,z
x,-y,z
1/2+x,1/2+y,z
1/2-x,1/2-y,z
1/2+x,1/2-y,-z
1/2-x,1/2+y,-z
1/2-x,1/2-y,-z
1/2+x,1/2+y,-z
1/2-x,1/2+y,z
1/2+x,1/2-y,z
loop_
_atom_site_type_symbol
_atom_site_label
_atom_site_fract_x
_atom_site_fract_y
_atom_site_fract_z
Si Si1 0.500000 0.248393 0.293893
Si Si2 0.382493 0.000000 0.199524
Si Si3 0.000000 0.124445 0.291645
Si Si4 0.782872 0.913469 0.692478
Si Si5 0.296898 0.197041 0.198969
O O1 0.500000 0.247205 0.500000
O O2 0.500000 0.311908 0.244065
O O3 0.410358 0.213853 0.217823
O O4 0.307429 0.049525 0.238739
O O5 0.500000 0.000000 0.272070
O O6 0.396857 0.000000 0.000000
O O7 0.896839 0.094543 0.233862
O O8 0.000000 0.124432 0.500000
O O9 0.798443 0.931525 0.500000
O O10 0.738255 0.854394 0.703312
O O11 0.250000 0.250000 0.275419
O O12 0.268362 0.190582 0.000000
#
# Coordination Sequence:
#
# PCOD9493535 Si02
#       5
#     8   8   8  16  16
#     4  11  21  37  60  89 128 174 217 259 312 377
#     4  11  27  50  69  90 126 167 210 267 327 384
#     4   9  20  38  64  97 131 163 205 268 319 368
#     4  11  23  43  69  96 126 167 219 266 317 381
#     4  11  23  38  59  93 134 172 210 258 320 379
#
# _framework density 21.352575000000002
#
# number of rings (size 3 to 8) (size 9 to 14) (size 15 to 20)
#    0.000    1.286    2.857    2.571    2.000    2.857 
#    0.000    5.714    0.000    0.000    0.000    0.000 
#    0.000    0.000    0.000    0.000    0.000    0.000 
#
# Total GULP energy -155871.511767 kJ/mol
# GULP energy per Si atom -5566.839706 kJ/mol
# Density = 2.130398 g / cm^3
# Si number density = 21.352575 Si / 1000 Ang^3
#
#
#
# Elastic Constant Matrix: (Units=GPa)
#
#
# Indices 1 2 3 4 5 6 
#
# 1 211.2356 70.6693 -8.0520 0.0000 0.0000 0.0000
# 2 70.6693 116.1208 13.2064 0.0000 0.0000 0.0000
# 3 -8.0520 13.2064 45.1080 0.0000 0.0000 0.0000
# 4 0.0000 0.0000 0.0000 173.7612 0.0000 0.0000
# 5 0.0000 0.0000 0.0000 0.0000 14.6203 0.0000
# 6 0.0000 0.0000 0.0000 0.0000 0.0000 -46.9642
#
#
#
# Elastic Compliance Matrix: (Units=1/GPa)
#
#
# Indices 1 2 3 4 5 6 
#
# 1 0.006162 -0.004009 0.002273 0.000000 0.000000 0.000000
# 2 -0.004009 0.011516 -0.004087 0.000000 0.000000 0.000000
# 3 0.002273 -0.004087 0.023771 0.000000 0.000000 0.000000
# 4 0.000000 0.000000 0.000000 0.005755 0.000000 0.000000
# 5 0.000000 0.000000 0.000000 0.000000 0.068398 0.000000
# 6 0.000000 0.000000 0.000000 0.000000 0.000000 -0.021293
#
#
# Mechanical properties :
#
#
# Convention : Reuss Voigt Hill
#
# Bulk Modulus (GPa) = 33.55147 58.23466 45.89307
# Shear Modulus (GPa) = 43.14480 48.05950 45.60215
#
# Velocity S-wave (km/s) = 4.49997 4.74936 4.62635
# Velocity P-wave (km/s) = 6.53811 7.57677 7.07652
#
# Compressibility (1/GPa) = 0.02980495
#
# Stress axis : x y z
#
# Youngs Moduli (GPa) = 162.29087 86.83508 42.06727
#
# Poissons Ratio (x) = 0.34808 -0.09564
# Poissons Ratio (y) = 0.65055 0.17194
# Poissons Ratio (z) = -0.36897 0.35491
#
# Static dielectric constant tensor:
#      x y z
#    x 1.622280 0.000000 0.000000 
#    y 0.000000 1.741460 0.000000 
#    z 0.000000 0.000000 1.805380 
# 
# From -- ./inp_files/4443.got.cif
#   From: 2010.05.17/outbox.cif.g08.bks.cpg/sg65_3_cif.got.tgz:4443.got - 2010.06.03 17:01:31.
