data_PCOD9493447
_publ_section_title
;
Structure prediction by ZEFSAII (Michael W. Deem and Ramdas Pophale) SiO2 
 PCOD9493447
Probable space group: C M M M
;
_chemical_formula_sum "Si O2"
_cell_formula_units_Z 104
_cell_length_a 14.423478
_cell_length_b 17.456331
_cell_length_c 21.071460
_cell_angle_alpha 90.000000
_cell_angle_beta 90.000000
_cell_angle_gamma 90.000000
_cell_volume 5305.393400
_symmetry_space_group_name_H-M "C M M M"
_symmetry_group_IT_number 65
_symmetry_cell_setting 'orthorhombic'
loop_
_space_group_symop_operation_xyz
x,y,z
-x,-y,z
x,-y,-z
-x,y,-z
-x,-y,-z
x,y,-z
-x,y,z
x,-y,z
1/2+x,1/2+y,z
1/2-x,1/2-y,z
1/2+x,1/2-y,-z
1/2-x,1/2+y,-z
1/2-x,1/2-y,-z
1/2+x,1/2+y,-z
1/2-x,1/2+y,z
1/2+x,1/2-y,z
loop_
_atom_site_type_symbol
_atom_site_label
_atom_site_fract_x
_atom_site_fract_y
_atom_site_fract_z
Si Si1 0.248270 0.584815 0.070850
Si Si2 0.892671 0.183953 0.863809
Si Si3 0.608077 0.137762 0.172180
Si Si4 0.763627 0.087677 0.382792
Si Si5 0.892780 0.906857 0.500000
Si Si6 0.108707 0.144993 0.720620
Si Si7 0.390258 0.177116 0.684716
O O1 0.291366 0.500000 0.073570
O O2 0.323941 0.649128 0.085461
O O3 0.171751 0.590289 0.125515
O O4 0.208839 0.595142 0.000000
O O5 0.880835 0.274053 0.850753
O O6 0.873029 0.144656 0.795631
O O7 0.000000 0.170834 0.879923
O O8 0.500000 0.117298 0.166520
O O9 0.631290 0.137590 0.247015
O O10 0.832399 0.115223 0.438613
O O11 0.826073 0.091138 0.319644
O O12 0.675580 0.140978 0.368238
O O13 0.735404 0.000000 0.396267
O O14 0.000000 0.879347 0.500000
O O15 0.897662 0.000000 0.500000
O O16 0.125461 0.232295 0.696221
O O17 0.000000 0.128118 0.710746
O O18 0.500000 0.166833 0.672318
#
# Coordination Sequence:
#
# PCOD9493447 Si02
#       7
#    16  16  16  16   8  16  16
#     4  11  24  37  49  72 107 142 174 215 269 320
#     4   9  19  36  57  79 102 133 174 216 261 317
#     4   9  19  37  59  79 101 135 177 218 261 312
#     4  11  21  33  54  81 107 140 181 219 256 303
#     4   9  20  38  54  73 109 151 185 218 258 304
#     4   9  18  34  56  81 108 135 167 215 270 317
#     4   9  19  36  56  80 111 140 167 210 269 323
#
# _framework density 19.602694
#
# number of rings (size 3 to 8) (size 9 to 14) (size 15 to 20)
#    0.000    2.385    0.000    4.154    0.000    8.615 
#    0.000    8.077    0.000    3.231    0.000    0.000 
#    0.000    0.000    0.000    0.000    0.000    0.000 
#
# Total GULP energy -290249.320746 kJ/mol
# GULP energy per Si atom -5581.717707 kJ/mol
# Density = 1.955808 g / cm^3
# Si number density = 19.602694 Si / 1000 Ang^3
#
#
#
# Elastic Constant Matrix: (Units=GPa)
#
#
# Indices 1 2 3 4 5 6 
#
# 1 79.5116 28.9916 48.8696 0.0000 0.0000 0.0000
# 2 28.9916 20.3738 20.3066 0.0000 0.0000 0.0000
# 3 48.8696 20.3066 55.2831 0.0000 0.0000 0.0000
# 4 0.0000 0.0000 0.0000 24.5708 0.0000 0.0000
# 5 0.0000 0.0000 0.0000 0.0000 26.8242 0.0000
# 6 0.0000 0.0000 0.0000 0.0000 0.0000 10.6805
#
#
#
# Elastic Compliance Matrix: (Units=1/GPa)
#
#
# Indices 1 2 3 4 5 6 
#
# 1 0.037212 -0.031813 -0.021210 0.000000 0.000000 0.000000
# 2 -0.031813 0.104627 -0.010310 0.000000 0.000000 0.000000
# 3 -0.021210 -0.010310 0.040625 0.000000 0.000000 0.000000
# 4 0.000000 0.000000 0.000000 0.040699 0.000000 0.000000
# 5 0.000000 0.000000 0.000000 0.000000 0.037280 0.000000
# 6 0.000000 0.000000 0.000000 0.000000 0.000000 0.093628
#
#
# Mechanical properties :
#
#
# Convention : Reuss Voigt Hill
#
# Bulk Modulus (GPa) = 17.92116 39.05600 28.48858
# Shear Modulus (GPa) = 10.01331 16.21516 13.11424
#
# Velocity S-wave (km/s) = 2.26257 2.87921 2.58931
# Velocity P-wave (km/s) = 3.99846 5.56958 4.84809
#
# Compressibility (1/GPa) = 0.05579997
#
# Stress axis : x y z
#
# Youngs Moduli (GPa) = 26.87271 9.55777 24.61542
#
# Poissons Ratio (x) = 0.30406 0.52209
# Poissons Ratio (y) = 0.85489 0.25377
# Poissons Ratio (z) = 0.56997 0.09854
#
# Static dielectric constant tensor:
#      x y z
#    x 1.687850 0.000000 0.000000 
#    y 0.000000 1.707370 0.000000 
#    z 0.000000 0.000000 1.684900 
# 
# From -- ./inp_files/62814.got.cif
#   From: 2010.05.17/outbox.cif.g08.bks.cpg/sg65_32_cif.got.tgz:62814.got - 2010.06.03 17:01:31.
