data_PCOD9493379
_publ_section_title
;
Structure prediction by ZEFSAII (Michael W. Deem and Ramdas Pophale) SiO2 
 PCOD9493379
Probable space group: C M M M
;
_chemical_formula_sum "Si O2"
_cell_formula_units_Z 64
_cell_length_a 14.955835
_cell_length_b 28.092108
_cell_length_c 9.007191
_cell_angle_alpha 90.000000
_cell_angle_beta 90.000000
_cell_angle_gamma 90.000000
_cell_volume 3784.289622
_symmetry_space_group_name_H-M "C M M M"
_symmetry_group_IT_number 65
_symmetry_cell_setting 'orthorhombic'
loop_
_space_group_symop_operation_xyz
x,y,z
-x,-y,z
x,-y,-z
-x,y,-z
-x,-y,-z
x,y,-z
-x,y,z
x,-y,z
1/2+x,1/2+y,z
1/2-x,1/2-y,z
1/2+x,1/2-y,-z
1/2-x,1/2+y,-z
1/2-x,1/2-y,-z
1/2+x,1/2+y,-z
1/2-x,1/2+y,z
1/2+x,1/2-y,z
loop_
_atom_site_type_symbol
_atom_site_label
_atom_site_fract_x
_atom_site_fract_y
_atom_site_fract_z
Si Si1 0.649575 0.770967 0.832536
Si Si2 0.895954 0.555856 0.822678
Si Si3 0.216887 0.362270 0.676395
Si Si4 0.901869 0.168376 0.179555
O O1 0.750000 0.750000 0.842403
O O2 0.657265 0.817532 0.733130
O O3 0.597760 0.724461 0.778072
O O4 0.620186 0.783744 0.000000
O O5 0.880056 0.500000 0.791886
O O6 0.829979 0.590330 0.736157
O O7 0.000000 0.566083 0.786418
O O8 0.885195 0.562965 0.000000
O O9 0.222644 0.361704 0.500000
O O10 0.316045 0.355512 0.745592
O O11 0.000000 0.148013 0.214911
O O12 0.890156 0.167184 0.000000
#
# Coordination Sequence:
#
# PCOD9493379 Si02
#       4
#    16  16  16  16
#     4   8  15  29  47  67  93 128 171 210 239 275
#     4   9  19  37  59  78  95 122 164 209 249 293
#     4  11  21  31  48  76 108 137 162 197 252 309
#     4   9  18  33  52  72  97 135 180 217 245 279
#
# _framework density 16.912025
#
# number of rings (size 3 to 8) (size 9 to 14) (size 15 to 20)
#    0.000    2.750    0.000    4.500    0.000    7.000 
#    0.000    3.750    0.000    0.750    0.000    5.250 
#    0.000    0.000    0.000    0.000    0.000    0.000 
#
# Total GULP energy -178304.154596 kJ/mol
# GULP energy per Si atom -5572.004831 kJ/mol
# Density = 1.687353 g / cm^3
# Si number density = 16.912025 Si / 1000 Ang^3
#
#
#
# Elastic Constant Matrix: (Units=GPa)
#
#
# Indices 1 2 3 4 5 6 
#
# 1 112.1950 66.4750 58.7538 0.0000 0.0000 0.0000
# 2 66.4750 85.0867 61.9168 0.0000 0.0000 0.0000
# 3 58.7538 61.9168 79.8952 0.0000 0.0000 0.0000
# 4 0.0000 0.0000 0.0000 -25.2405 0.0000 0.0000
# 5 0.0000 0.0000 0.0000 0.0000 7.6697 0.0000
# 6 0.0000 0.0000 0.0000 0.0000 0.0000 25.5727
#
#
#
# Elastic Compliance Matrix: (Units=1/GPa)
#
#
# Indices 1 2 3 4 5 6 
#
# 1 0.017492 -0.009873 -0.005212 0.000000 0.000000 0.000000
# 2 -0.009873 0.032525 -0.017945 0.000000 0.000000 0.000000
# 3 -0.005212 -0.017945 0.030257 0.000000 0.000000 0.000000
# 4 0.000000 0.000000 0.000000 -0.039619 0.000000 0.000000
# 5 0.000000 0.000000 0.000000 0.000000 0.130383 0.000000
# 6 0.000000 0.000000 0.000000 0.000000 0.000000 0.039104
#
#
# Mechanical properties :
#
#
# Convention : Reuss Voigt Hill
#
# Bulk Modulus (GPa) = 70.36133 72.38535 71.37334
# Shear Modulus (GPa) = 17.79727 7.60246 12.69987
#
# Velocity S-wave (km/s) = 3.24750 2.12251 2.74330
# Velocity P-wave (km/s) = 7.46702 6.99291 7.23385
#
# Compressibility (1/GPa) = 0.01421235
#
# Stress axis : x y z
#
# Youngs Moduli (GPa) = 57.16766 30.74547 33.05075
#
# Poissons Ratio (x) = 0.30356 0.17226
# Poissons Ratio (y) = 0.56444 0.59311
# Poissons Ratio (z) = 0.29796 0.55174
#
# Static dielectric constant tensor:
#      x y z
#    x 1.607070 0.000000 0.000000 
#    y 0.000000 1.562200 0.000000 
#    z 0.000000 0.000000 1.561420 
# 
# From -- ./inp_files/6703.got.cif
#   From: 2010.05.17/outbox.cif.g08.bks.cpg/sg65_4_cif.got.tgz:6703.got - 2010.06.03 17:01:31.
