data_PCOD9493514
_publ_section_title
;
Structure prediction by ZEFSAII (Michael W. Deem and Ramdas Pophale) SiO2 
 PCOD9493514
Probable space group: C M M M
;
_chemical_formula_sum "Si O2"
_cell_formula_units_Z 80
_cell_length_a 27.013364
_cell_length_b 9.809482
_cell_length_c 17.649632
_cell_angle_alpha 90.000000
_cell_angle_beta 90.000000
_cell_angle_gamma 90.000000
_cell_volume 4676.924939
_symmetry_space_group_name_H-M "C M M M"
_symmetry_group_IT_number 65
_symmetry_cell_setting 'orthorhombic'
loop_
_space_group_symop_operation_xyz
x,y,z
-x,-y,z
x,-y,-z
-x,y,-z
-x,-y,-z
x,y,-z
-x,y,z
x,-y,z
1/2+x,1/2+y,z
1/2-x,1/2-y,z
1/2+x,1/2-y,-z
1/2-x,1/2+y,-z
1/2-x,1/2-y,-z
1/2+x,1/2+y,-z
1/2-x,1/2+y,z
1/2+x,1/2-y,z
loop_
_atom_site_type_symbol
_atom_site_label
_atom_site_fract_x
_atom_site_fract_y
_atom_site_fract_z
Si Si1 0.886108 0.840644 0.412794
Si Si2 0.703451 0.500000 0.091774
Si Si3 0.177858 0.500000 0.088226
Si Si4 0.945236 0.162612 0.264775
Si Si5 0.154696 0.247885 0.816273
Si Si6 0.299497 0.165377 0.656106
O O1 0.901422 0.830084 0.500000
O O2 0.929164 0.813712 0.351970
O O3 0.842796 0.733240 0.394382
O O4 0.869587 0.000000 0.399897
O O5 0.762766 0.500000 0.101030
O O6 0.680648 0.372881 0.137182
O O7 0.693403 0.500000 0.000000
O O8 0.153866 0.629084 0.126435
O O9 0.170013 0.500000 0.000000
O O10 0.899883 0.213234 0.213900
O O11 0.000000 0.218572 0.248844
O O12 0.946988 0.000000 0.254555
O O13 0.185855 0.294905 0.742503
O O14 0.250000 0.250000 0.637525
O O15 0.295282 0.000000 0.648749
#
# Coordination Sequence:
#
# PCOD9493514 Si02
#       6
#    16   8   8  16  16  16
#     4   9  19  35  55  82 113 141 178 229 281 332
#     4  11  22  36  57  85 116 151 185 221 273 331
#     4  11  22  36  55  83 118 149 181 223 277 329
#     4   9  18  35  60  84 106 141 187 233 279 324
#     4  11  21  36  56  83 113 148 186 232 272 328
#     4  11  22  34  54  79 109 153 193 227 270 326
#
# _framework density 17.105257000000002
#
# number of rings (size 3 to 8) (size 9 to 14) (size 15 to 20)
#    0.000    1.800    2.000    3.000    2.800    2.800 
#    0.000    2.500    0.000    3.600    0.000    2.800 
#    0.000    0.000    0.000    0.000    0.000    0.000 
#
# Total GULP energy -223011.130189 kJ/mol
# GULP energy per Si atom -5575.278255 kJ/mol
# Density = 1.706632 g / cm^3
# Si number density = 17.105257 Si / 1000 Ang^3
#
#
#
# Elastic Constant Matrix: (Units=GPa)
#
#
# Indices 1 2 3 4 5 6 
#
# 1 85.2551 29.0697 38.4039 0.0000 0.0000 0.0000
# 2 29.0697 101.9837 35.6591 0.0000 0.0000 0.0000
# 3 38.4039 35.6591 104.9109 0.0000 0.0000 0.0000
# 4 0.0000 0.0000 0.0000 30.5526 0.0000 0.0000
# 5 0.0000 0.0000 0.0000 0.0000 5.5891 0.0000
# 6 0.0000 0.0000 0.0000 0.0000 0.0000 16.1182
#
#
#
# Elastic Compliance Matrix: (Units=1/GPa)
#
#
# Indices 1 2 3 4 5 6 
#
# 1 0.014632 -0.002608 -0.004470 0.000000 0.000000 0.000000
# 2 -0.002608 0.011593 -0.002986 0.000000 0.000000 0.000000
# 3 -0.004470 -0.002986 0.012183 0.000000 0.000000 0.000000
# 4 0.000000 0.000000 0.000000 0.032730 0.000000 0.000000
# 5 0.000000 0.000000 0.000000 0.000000 0.178918 0.000000
# 6 0.000000 0.000000 0.000000 0.000000 0.000000 0.062041
#
#
# Mechanical properties :
#
#
# Convention : Reuss Voigt Hill
#
# Bulk Modulus (GPa) = 54.70152 55.37946 55.04049
# Shear Modulus (GPa) = 14.77896 23.05315 18.91605
#
# Velocity S-wave (km/s) = 2.94258 3.67512 3.32906
# Velocity P-wave (km/s) = 6.60256 7.10314 6.85742
#
# Compressibility (1/GPa) = 0.01828103
#
# Stress axis : x y z
#
# Youngs Moduli (GPa) = 68.34240 86.26023 82.08159
#
# Poissons Ratio (x) = 0.22496 0.36689
# Poissons Ratio (y) = 0.17823 0.24507
# Poissons Ratio (z) = 0.30548 0.25755
#
# Static dielectric constant tensor:
#      x y z
#    x 1.571090 0.000000 0.000000 
#    y 0.000000 1.561800 0.000000 
#    z 0.000000 0.000000 1.575470 
# 
# From -- ./inp_files/50237.got.cif
#   From: 2010.05.17/outbox.cif.g08.bks.cpg/sg65_26_cif.got.tgz:50237.got - 2010.06.03 17:01:31.
