data_PCOD9493631
_publ_section_title
;
Structure prediction by ZEFSAII (Michael W. Deem and Ramdas Pophale) SiO2 
 PCOD9493631
Probable space group: C M M M
;
_chemical_formula_sum "Si O2"
_cell_formula_units_Z 72
_cell_length_a 18.972728
_cell_length_b 7.786786
_cell_length_c 24.220120
_cell_angle_alpha 90.000000
_cell_angle_beta 90.000000
_cell_angle_gamma 90.000000
_cell_volume 3578.197521
_symmetry_space_group_name_H-M "C M M M"
_symmetry_group_IT_number 65
_symmetry_cell_setting 'orthorhombic'
loop_
_space_group_symop_operation_xyz
x,y,z
-x,-y,z
x,-y,-z
-x,y,-z
-x,-y,-z
x,y,-z
-x,y,z
x,-y,z
1/2+x,1/2+y,z
1/2-x,1/2-y,z
1/2+x,1/2-y,-z
1/2-x,1/2+y,-z
1/2-x,1/2-y,-z
1/2+x,1/2+y,-z
1/2-x,1/2+y,z
1/2+x,1/2-y,z
loop_
_atom_site_type_symbol
_atom_site_label
_atom_site_fract_x
_atom_site_fract_y
_atom_site_fract_z
Si Si1 0.414151 0.801797 0.000000
Si Si2 0.418787 0.289311 0.332741
Si Si3 0.080193 0.706373 0.119553
Si Si4 0.668154 0.296250 0.226882
Si Si5 0.168671 0.206704 0.438050
O O1 0.394845 0.725100 0.059562
O O2 0.500000 0.804387 0.000000
O O3 0.389292 0.000000 0.000000
O O4 0.500000 0.236576 0.329240
O O5 0.417744 0.500000 0.332847
O O6 0.374489 0.227805 0.279880
O O7 0.381733 0.231328 0.389319
O O8 0.075969 0.500000 0.113760
O O9 0.131101 0.743032 0.170083
O O10 0.000000 0.768489 0.130586
O O11 0.663139 0.500000 0.229768
O O12 0.750000 0.250000 0.228721
O O13 0.152480 0.271295 0.500000
O O14 0.250000 0.250000 0.425787
O O15 0.162904 0.000000 0.439493
#
# Coordination Sequence:
#
# PCOD9493631 Si02
#       5
#     8  16  16  16  16
#     4   7  12  26  50  77 102 129 159 195 242 293
#     4   9  18  32  50  73  99 126 160 205 252 294
#     4   9  17  32  55  80 104 130 163 202 245 296
#     4  11  22  35  51  71  99 134 170 208 252 299
#     4   9  17  30  50  74  99 129 163 198 238 287
#
# _framework density 20.121862
#
# number of rings (size 3 to 8) (size 9 to 14) (size 15 to 20)
#    0.000    2.778    0.000    3.333    0.000    1.778 
#    0.000    4.444    0.000    5.333    0.000    3.111 
#    0.000    0.000    0.000    0.000    0.000    0.000 
#
# Total GULP energy -200803.307876 kJ/mol
# GULP energy per Si atom -5577.869663 kJ/mol
# Density = 2.007606 g / cm^3
# Si number density = 20.121862 Si / 1000 Ang^3
#
#
#
# Elastic Constant Matrix: (Units=GPa)
#
#
# Indices 1 2 3 4 5 6 
#
# 1 154.2161 3.3646 140.4304 0.0000 0.0000 0.0000
# 2 3.3646 28.0496 10.0765 0.0000 0.0000 0.0000
# 3 140.4304 10.0765 222.6438 0.0000 0.0000 0.0000
# 4 0.0000 0.0000 0.0000 12.4332 0.0000 0.0000
# 5 0.0000 0.0000 0.0000 0.0000 85.9508 0.0000
# 6 0.0000 0.0000 0.0000 0.0000 0.0000 -22.7437
#
#
#
# Elastic Compliance Matrix: (Units=1/GPa)
#
#
# Indices 1 2 3 4 5 6 
#
# 1 0.015310 0.001660 -0.009732 0.000000 0.000000 0.000000
# 2 0.001660 0.036420 -0.002695 0.000000 0.000000 0.000000
# 3 -0.009732 -0.002695 0.010752 0.000000 0.000000 0.000000
# 4 0.000000 0.000000 0.000000 0.080430 0.000000 0.000000
# 5 0.000000 0.000000 0.000000 0.000000 0.011635 0.000000
# 6 0.000000 0.000000 0.000000 0.000000 0.000000 -0.043968
#
#
# Mechanical properties :
#
#
# Convention : Reuss Voigt Hill
#
# Bulk Modulus (GPa) = 24.42161 79.18360 51.80260
# Shear Modulus (GPa) = 34.30256 31.86394 33.08325
#
# Velocity S-wave (km/s) = 4.13333 3.98370 4.05920
# Velocity P-wave (km/s) = 5.91121 7.78442 6.91157
#
# Compressibility (1/GPa) = 0.04094735
#
# Stress axis : x y z
#
# Youngs Moduli (GPa) = 65.31684 27.45730 93.00903
#
# Poissons Ratio (x) = -0.04557 0.90514
# Poissons Ratio (y) = -0.10840 0.25066
# Poissons Ratio (z) = 0.63565 0.07400
#
# Static dielectric constant tensor:
#      x y z
#    x 1.640140 0.000000 0.000000 
#    y 0.000000 1.708510 0.000000 
#    z 0.000000 0.000000 1.748170 
# 
# From -- ./inp_files/67068.got.cif
#   From: 2010.05.17/outbox.cif.g08.bks.cpg/sg65_34_cif.got.tgz:67068.got - 2010.06.03 17:01:31.
