data_PCOD9493488
_publ_section_title
;
Structure prediction by ZEFSAII (Michael W. Deem and Ramdas Pophale) SiO2 
 PCOD9493488
Probable space group: C M M M
;
_chemical_formula_sum "Si O2"
_cell_formula_units_Z 84
_cell_length_a 16.776245
_cell_length_b 22.356657
_cell_length_c 11.732825
_cell_angle_alpha 90.000000
_cell_angle_beta 90.000000
_cell_angle_gamma 90.000000
_cell_volume 4400.522205
_symmetry_space_group_name_H-M "C M M M"
_symmetry_group_IT_number 65
_symmetry_cell_setting 'orthorhombic'
loop_
_space_group_symop_operation_xyz
x,y,z
-x,-y,z
x,-y,-z
-x,y,-z
-x,-y,-z
x,y,-z
-x,y,z
x,-y,z
1/2+x,1/2+y,z
1/2-x,1/2-y,z
1/2+x,1/2-y,-z
1/2-x,1/2+y,-z
1/2-x,1/2-y,-z
1/2+x,1/2+y,-z
1/2-x,1/2+y,z
1/2+x,1/2-y,z
loop_
_atom_site_type_symbol
_atom_site_label
_atom_site_fract_x
_atom_site_fract_y
_atom_site_fract_z
Si Si1 0.000000 0.000000 0.159213
Si Si2 0.859950 0.101680 0.137387
Si Si3 0.090619 0.662512 0.635646
Si Si4 0.841836 0.231980 0.766261
Si Si5 0.312564 0.935225 0.226923
Si Si6 0.409642 0.222815 0.000000
Si Si7 0.089488 0.580886 0.000000
O O1 0.069981 0.946797 0.154190
O O2 0.864721 0.162596 0.213224
O O3 0.776250 0.075103 0.180386
O O4 0.856591 0.115399 0.000000
O O5 0.096992 0.657804 0.500000
O O6 0.107237 0.730327 0.675739
O O7 0.153297 0.618314 0.696117
O O8 0.000000 0.646179 0.670795
O O9 0.750000 0.250000 0.741989
O O10 0.862730 0.259053 0.888702
O O11 0.365732 0.936707 0.113894
O O12 0.317558 0.000000 0.285868
O O13 0.500000 0.247990 0.000000
O O14 0.413746 0.152198 0.000000
O O15 0.000000 0.559872 0.000000
#
# Coordination Sequence:
#
# PCOD9493488 Si02
#       7
#     4  16  16  16  16   8   8
#     4  12  29  44  64 100 153 204 231 258 324 423
#     4  12  24  41  63  99 144 185 224 268 325 407
#     4  11  26  47  68  96 131 167 222 286 345 409
#     4  12  23  39  67  99 131 175 222 281 344 397
#     4  12  24  41  65  94 134 176 217 271 329 400
#     4  11  21  34  58  96 133 165 210 265 335 408
#     4  11  21  35  59  93 137 173 206 264 334 415
#
# _framework density 19.088643999999999
#
# number of rings (size 3 to 8) (size 9 to 14) (size 15 to 20)
#    0.000    0.381    6.667    2.571    2.667    2.667 
#    0.000    0.952    0.000    0.000    0.000    2.667 
#    0.000    0.000    0.000    0.000    0.000    0.000 
#
# Total GULP energy -233933.112273 kJ/mol
# GULP energy per Si atom -5569.836006 kJ/mol
# Density = 1.904520 g / cm^3
# Si number density = 19.088644 Si / 1000 Ang^3
#
#
#
# Elastic Constant Matrix: (Units=GPa)
#
#
# Indices 1 2 3 4 5 6 
#
# 1 152.5541 51.4044 36.2395 0.0000 0.0000 0.0000
# 2 51.4044 160.9984 25.7550 0.0000 0.0000 0.0000
# 3 36.2395 25.7550 54.3357 0.0000 0.0000 0.0000
# 4 0.0000 0.0000 0.0000 -18.0576 0.0000 0.0000
# 5 0.0000 0.0000 0.0000 0.0000 22.8856 0.0000
# 6 0.0000 0.0000 0.0000 0.0000 0.0000 43.5704
#
#
#
# Elastic Compliance Matrix: (Units=1/GPa)
#
#
# Indices 1 2 3 4 5 6 
#
# 1 0.008298 -0.001909 -0.004630 0.000000 0.000000 0.000000
# 2 -0.001909 0.007160 -0.002121 0.000000 0.000000 0.000000
# 3 -0.004630 -0.002121 0.022497 0.000000 0.000000 0.000000
# 4 0.000000 0.000000 0.000000 -0.055378 0.000000 0.000000
# 5 0.000000 0.000000 0.000000 0.000000 0.043696 0.000000
# 6 0.000000 0.000000 0.000000 0.000000 0.000000 0.022951
#
#
# Mechanical properties :
#
#
# Convention : Reuss Voigt Hill
#
# Bulk Modulus (GPa) = 48.45729 66.07623 57.26676
# Shear Modulus (GPa) = 68.10062 26.64564 47.37313
#
# Velocity S-wave (km/s) = 5.97942 3.74021 4.98712
# Velocity P-wave (km/s) = 8.55054 7.30362 7.95156
#
# Compressibility (1/GPa) = 0.02063673
#
# Stress axis : x y z
#
# Youngs Moduli (GPa) = 120.51059 139.66569 44.45022
#
# Poissons Ratio (x) = 0.26660 0.20579
# Poissons Ratio (y) = 0.23003 0.09427
# Poissons Ratio (z) = 0.55792 0.29619
#
# Static dielectric constant tensor:
#      x y z
#    x 1.680300 0.000000 0.000000 
#    y 0.000000 1.735980 0.000000 
#    z 0.000000 0.000000 1.608760 
# 
# From -- ./inp_files/24843.got.cif
#   From: 2010.05.17/outbox.cif.g08.bks.cpg/sg65_13_cif.got.tgz:24843.got - 2010.06.03 17:01:31.
