data_PCOD9493762
_publ_section_title
;
Structure prediction by ZEFSAII (Michael W. Deem and Ramdas Pophale) SiO2 
 PCOD9493762
Probable space group: C M M M
;
_chemical_formula_sum "Si O2"
_cell_formula_units_Z 72
_cell_length_a 8.620379
_cell_length_b 15.435786
_cell_length_c 27.778428
_cell_angle_alpha 90.000000
_cell_angle_beta 90.000000
_cell_angle_gamma 90.000000
_cell_volume 3696.262228
_symmetry_space_group_name_H-M "C M M M"
_symmetry_group_IT_number 65
_symmetry_cell_setting 'orthorhombic'
loop_
_space_group_symop_operation_xyz
x,y,z
-x,-y,z
x,-y,-z
-x,y,-z
-x,-y,-z
x,y,-z
-x,y,z
x,-y,z
1/2+x,1/2+y,z
1/2-x,1/2-y,z
1/2+x,1/2-y,-z
1/2-x,1/2+y,-z
1/2-x,1/2-y,-z
1/2+x,1/2+y,-z
1/2-x,1/2+y,z
1/2+x,1/2-y,z
loop_
_atom_site_type_symbol
_atom_site_label
_atom_site_fract_x
_atom_site_fract_y
_atom_site_fract_z
Si Si1 0.185435 0.657989 0.602535
Si Si2 0.685315 0.348480 0.153606
Si Si3 0.186485 0.348478 0.052512
Si Si4 0.311025 0.000000 0.331044
Si Si5 0.680746 0.395930 0.500000
Si Si6 0.687065 0.000000 0.780187
O O1 0.250000 0.750000 0.618089
O O2 0.240324 0.583473 0.638801
O O3 0.241959 0.638528 0.548517
O O4 0.000000 0.658959 0.602437
O O5 0.500000 0.344893 0.154987
O O6 0.750000 0.250000 0.159114
O O7 0.740075 0.384038 0.101287
O O8 0.749833 0.414463 0.193202
O O9 0.250000 0.250000 0.050842
O O10 0.000000 0.347595 0.057268
O O11 0.224217 0.387900 0.000000
O O12 0.500000 0.000000 0.331283
O O13 0.263346 0.000000 0.275646
O O14 0.693138 0.500000 0.500000
O O15 0.500000 0.371314 0.500000
O O16 0.500000 0.000000 0.782677
#
# Coordination Sequence:
#
# PCOD9493762 Si02
#       6
#    16  16  16   8   8   8
#     4  11  22  40  63  91 123 159 199 240 292 349
#     4  11  22  38  60  88 119 156 199 243 297 358
#     4   9  16  28  50  81 115 152 192 236 290 351
#     4   9  22  42  64  86 115 154 196 245 303 356
#     4  11  22  37  60  92 126 162 202 241 287 341
#     4  11  23  43  65  87 117 152 198 254 307 358
#
# _framework density 19.479137000000001
#
# number of rings (size 3 to 8) (size 9 to 14) (size 15 to 20)
#    0.000    1.667    1.111    5.667    0.000    2.667 
#    0.000    7.222    0.000    3.333    0.000    0.000 
#    0.000    0.000    0.000    0.000    0.000    0.000 
#
# Total GULP energy -201105.039179 kJ/mol
# GULP energy per Si atom -5586.251088 kJ/mol
# Density = 1.943480 g / cm^3
# Si number density = 19.479137 Si / 1000 Ang^3
#
#
#
# Elastic Constant Matrix: (Units=GPa)
#
#
# Indices 1 2 3 4 5 6 
#
# 1 109.9602 50.4826 54.8031 0.0000 0.0000 0.0000
# 2 50.4826 130.6808 96.7493 0.0000 0.0000 0.0000
# 3 54.8031 96.7493 196.7422 0.0000 0.0000 0.0000
# 4 0.0000 0.0000 0.0000 -3.4355 0.0000 0.0000
# 5 0.0000 0.0000 0.0000 0.0000 13.5406 0.0000
# 6 0.0000 0.0000 0.0000 0.0000 0.0000 26.9476
#
#
#
# Elastic Compliance Matrix: (Units=1/GPa)
#
#
# Indices 1 2 3 4 5 6 
#
# 1 0.011360 -0.003217 -0.001582 0.000000 0.000000 0.000000
# 2 -0.003217 0.012944 -0.005469 0.000000 0.000000 0.000000
# 3 -0.001582 -0.005469 0.008213 0.000000 0.000000 0.000000
# 4 0.000000 0.000000 0.000000 -0.291078 0.000000 0.000000
# 5 0.000000 0.000000 0.000000 0.000000 0.073852 0.000000
# 6 0.000000 0.000000 0.000000 0.000000 0.000000 0.037109
#
#
# Mechanical properties :
#
#
# Convention : Reuss Voigt Hill
#
# Bulk Modulus (GPa) = 83.47279 93.49481 88.48380
# Shear Modulus (GPa) = -40.62737 23.10040 -8.76349
#
# Velocity S-wave (km/s) = -4.57189 3.44743 -2.12336
# Velocity P-wave (km/s) = 3.88277 7.99675 6.28585
#
# Compressibility (1/GPa) = 0.01197995
#
# Stress axis : x y z
#
# Youngs Moduli (GPa) = 88.03069 77.25550 121.75621
#
# Poissons Ratio (x) = 0.24851 0.19267
# Poissons Ratio (y) = 0.28317 0.66592
# Poissons Ratio (z) = 0.13930 0.42253
#
# Static dielectric constant tensor:
#      x y z
#    x 1.653960 0.000000 0.000000 
#    y 0.000000 1.716070 0.000000 
#    z 0.000000 0.000000 1.681940 
# 
# From -- ./inp_files/72568.got.cif
#   From: 2010.05.17/outbox.cif.g08.bks.cpg/sg65_37_cif.got.tgz:72568.got - 2010.06.03 17:01:31.
