data_PCOD9493153
_publ_section_title
;
Structure prediction by ZEFSAII (Michael W. Deem and Ramdas Pophale) SiO2 
 PCOD9493153
Probable space group: C M M M
;
_chemical_formula_sum "Si O2"
_cell_formula_units_Z 80
_cell_length_a 19.659729
_cell_length_b 22.244333
_cell_length_c 8.018725
_cell_angle_alpha 90.000000
_cell_angle_beta 90.000000
_cell_angle_gamma 90.000000
_cell_volume 3506.729240
_symmetry_space_group_name_H-M "C M M M"
_symmetry_group_IT_number 65
_symmetry_cell_setting 'orthorhombic'
loop_
_space_group_symop_operation_xyz
x,y,z
-x,-y,z
x,-y,-z
-x,y,-z
-x,-y,-z
x,y,-z
-x,y,z
x,-y,z
1/2+x,1/2+y,z
1/2-x,1/2-y,z
1/2+x,1/2-y,-z
1/2-x,1/2+y,-z
1/2-x,1/2-y,-z
1/2+x,1/2+y,-z
1/2-x,1/2+y,z
1/2+x,1/2-y,z
loop_
_atom_site_type_symbol
_atom_site_label
_atom_site_fract_x
_atom_site_fract_y
_atom_site_fract_z
Si Si1 0.075153 0.257373 0.800446
Si Si2 0.780132 0.565142 0.301450
Si Si3 0.924742 0.396890 0.201843
Si Si4 0.920553 0.929321 0.805134
Si Si5 0.317070 0.662656 0.685682
O O1 0.081011 0.326701 0.747695
O O2 0.141485 0.218957 0.756190
O O3 0.000000 0.234933 0.739830
O O4 0.071472 0.256720 0.000000
O O5 0.766156 0.565519 0.500000
O O6 0.755835 0.500000 0.234570
O O7 0.860310 0.569425 0.273628
O O8 0.744851 0.625667 0.229998
O O9 0.000000 0.418367 0.251572
O O10 0.921405 0.399852 0.000000
O O11 0.874177 0.889386 0.689730
O O12 0.000000 0.916895 0.780030
O O13 0.910177 0.000000 0.779691
O O14 0.905103 0.915116 0.000000
O O15 0.295621 0.679738 0.500000
#
# Coordination Sequence:
#
# PCOD9493153 Si02
#       5
#    16  16  16  16  16
#     4   9  19  37  59  83 114 149 183 224 277 333
#     4  10  23  41  57  78 113 153 187 223 275 334
#     4   9  20  40  64  88 111 137 177 231 284 333
#     4   9  18  32  49  70  99 139 187 234 278 324
#     4  11  22  34  51  78 113 149 186 227 267 316
#
# _framework density 22.813279999999999
#
# number of rings (size 3 to 8) (size 9 to 14) (size 15 to 20)
#    0.000    2.400    0.000    3.600    0.000    8.800 
#    0.000    9.000    0.000    0.000    0.000    0.000 
#    0.000    0.000    0.000    0.000    0.000    0.000 
#
# Total GULP energy -223208.098955 kJ/mol
# GULP energy per Si atom -5580.202474 kJ/mol
# Density = 2.276136 g / cm^3
# Si number density = 22.813280 Si / 1000 Ang^3
#
#
#
# Elastic Constant Matrix: (Units=GPa)
#
#
# Indices 1 2 3 4 5 6 
#
# 1 103.0296 32.6043 1.7043 0.0000 0.0000 0.0000
# 2 32.6043 67.1999 6.1948 0.0000 0.0000 0.0000
# 3 1.7043 6.1948 8.7149 0.0000 0.0000 0.0000
# 4 0.0000 0.0000 0.0000 19.1942 0.0000 0.0000
# 5 0.0000 0.0000 0.0000 0.0000 26.8286 0.0000
# 6 0.0000 0.0000 0.0000 0.0000 0.0000 28.4818
#
#
#
# Elastic Compliance Matrix: (Units=1/GPa)
#
#
# Indices 1 2 3 4 5 6 
#
# 1 0.011494 -0.005746 0.001837 0.000000 0.000000 0.000000
# 2 -0.005746 0.018797 -0.012238 0.000000 0.000000 0.000000
# 3 0.001837 -0.012238 0.123086 0.000000 0.000000 0.000000
# 4 0.000000 0.000000 0.000000 0.052099 0.000000 0.000000
# 5 0.000000 0.000000 0.000000 0.000000 0.037274 0.000000
# 6 0.000000 0.000000 0.000000 0.000000 0.000000 0.035110
#
#
# Mechanical properties :
#
#
# Convention : Reuss Voigt Hill
#
# Bulk Modulus (GPa) = 8.25880 28.88347 18.57113
# Shear Modulus (GPa) = 14.26471 24.13032 19.19751
#
# Velocity S-wave (km/s) = 2.50327 3.25581 2.90402
# Velocity P-wave (km/s) = 3.46168 5.17900 4.40484
#
# Compressibility (1/GPa) = 0.12108302
#
# Stress axis : x y z
#
# Youngs Moduli (GPa) = 87.00259 53.20010 8.12437
#
# Poissons Ratio (x) = 0.30569 -0.01492
# Poissons Ratio (y) = 0.49991 0.09942
# Poissons Ratio (z) = -0.15979 0.65105
#
# Static dielectric constant tensor:
#      x y z
#    x 1.870270 0.000000 0.000000 
#    y 0.000000 1.893120 0.000000 
#    z 0.000000 0.000000 1.844980 
# 
# From -- ./inp_files/9641.got.cif
#   From: 2010.05.17/outbox.cif.g08.bks.cpg/sg65_5_cif.got.tgz:9641.got - 2010.06.03 17:01:31.
