data_PCOD9493617
_publ_section_title
;
Structure prediction by ZEFSAII (Michael W. Deem and Ramdas Pophale) SiO2 
 PCOD9493617
Probable space group: C M M M
;
_chemical_formula_sum "Si O2"
_cell_formula_units_Z 64
_cell_length_a 24.892413
_cell_length_b 14.177964
_cell_length_c 10.438930
_cell_angle_alpha 90.000000
_cell_angle_beta 90.000000
_cell_angle_gamma 90.000000
_cell_volume 3684.146169
_symmetry_space_group_name_H-M "C M M M"
_symmetry_group_IT_number 65
_symmetry_cell_setting 'orthorhombic'
loop_
_space_group_symop_operation_xyz
x,y,z
-x,-y,z
x,-y,-z
-x,y,-z
-x,-y,-z
x,y,-z
-x,y,z
x,-y,z
1/2+x,1/2+y,z
1/2-x,1/2-y,z
1/2+x,1/2-y,-z
1/2-x,1/2+y,-z
1/2-x,1/2-y,-z
1/2+x,1/2+y,-z
1/2-x,1/2+y,z
1/2+x,1/2-y,z
loop_
_atom_site_type_symbol
_atom_site_label
_atom_site_fract_x
_atom_site_fract_y
_atom_site_fract_z
Si Si1 0.152996 0.890486 0.152848
Si Si2 0.779775 0.387739 0.147351
Si Si3 0.064504 0.387919 0.500000
Si Si4 0.382543 0.798638 0.249954
Si Si5 0.935697 0.389897 0.000000
O O1 0.216812 0.873762 0.173755
O O2 0.120230 0.813882 0.232519
O O3 0.141649 0.000000 0.182321
O O4 0.143748 0.876836 0.000000
O O5 0.789504 0.500000 0.152600
O O6 0.821348 0.336033 0.238577
O O7 0.789759 0.356459 0.000000
O O8 0.077387 0.500000 0.500000
O O9 0.089161 0.338012 0.624540
O O10 0.000000 0.379464 0.500000
O O11 0.412391 0.841684 0.126409
O O12 0.919983 0.500000 0.000000
O O13 0.000000 0.384104 0.000000
#
# Coordination Sequence:
#
# PCOD9493617 Si02
#       5
#    16  16   8  16   8
#     4   9  18  33  55  88 123 149 178 223 275 328
#     4   9  16  28  52  87 120 145 177 222 276 336
#     4  11  26  44  58  77 111 149 184 232 294 343
#     4  12  20  35  59  81 109 151 190 224 277 336
#     4  11  22  34  54  83 105 127 180 248 288 323
#
# _framework density 17.371732000000002
#
# number of rings (size 3 to 8) (size 9 to 14) (size 15 to 20)
#    0.000    1.750    2.500    5.250    0.000    4.000 
#    0.000    3.125    0.000    7.500    0.000    0.000 
#    0.000    0.000    0.000    0.000    0.000    0.000 
#
# Total GULP energy -178706.495156 kJ/mol
# GULP energy per Si atom -5584.577974 kJ/mol
# Density = 1.733219 g / cm^3
# Si number density = 17.371732 Si / 1000 Ang^3
#
#
#
# Elastic Constant Matrix: (Units=GPa)
#
#
# Indices 1 2 3 4 5 6 
#
# 1 50.4439 70.7759 47.4226 0.0000 0.0000 0.0000
# 2 70.7759 146.8741 76.1780 0.0000 0.0000 0.0000
# 3 47.4226 76.1780 120.1711 0.0000 0.0000 0.0000
# 4 0.0000 0.0000 0.0000 23.9754 0.0000 0.0000
# 5 0.0000 0.0000 0.0000 0.0000 2.9686 0.0000
# 6 0.0000 0.0000 0.0000 0.0000 0.0000 24.3678
#
#
#
# Elastic Compliance Matrix: (Units=1/GPa)
#
#
# Indices 1 2 3 4 5 6 
#
# 1 0.067046 -0.027689 -0.008905 0.000000 0.000000 0.000000
# 2 -0.027689 0.021579 -0.002752 0.000000 0.000000 0.000000
# 3 -0.008905 -0.002752 0.013581 0.000000 0.000000 0.000000
# 4 0.000000 0.000000 0.000000 0.041709 0.000000 0.000000
# 5 0.000000 0.000000 0.000000 0.000000 0.336864 0.000000
# 6 0.000000 0.000000 0.000000 0.000000 0.000000 0.041038
#
#
# Mechanical properties :
#
#
# Convention : Reuss Voigt Hill
#
# Bulk Modulus (GPa) = 42.53275 78.47134 60.50205
# Shear Modulus (GPa) = 8.21899 18.46985 13.34442
#
# Velocity S-wave (km/s) = 2.17750 3.26423 2.77459
# Velocity P-wave (km/s) = 5.55509 7.71212 6.72071
#
# Compressibility (1/GPa) = 0.02351129
#
# Stress axis : x y z
#
# Youngs Moduli (GPa) = 14.91524 46.34148 73.63485
#
# Poissons Ratio (x) = 1.28315 0.65575
# Poissons Ratio (y) = 0.41299 0.20267
# Poissons Ratio (z) = 0.13283 0.12755
#
# Static dielectric constant tensor:
#      x y z
#    x 1.596610 0.000000 0.000000 
#    y 0.000000 1.617060 0.000000 
#    z 0.000000 0.000000 1.557850 
# 
# From -- ./inp_files/6789.got.cif
#   From: 2010.05.17/outbox.cif.g08.bks.cpg/sg65_4_cif.got.tgz:6789.got - 2010.06.03 17:01:31.
