data_PCOD9493449
_publ_section_title
;
Structure prediction by ZEFSAII (Michael W. Deem and Ramdas Pophale) SiO2 
 PCOD9493449
Probable space group: C M M M
;
_chemical_formula_sum "Si O2"
_cell_formula_units_Z 108
_cell_length_a 14.796696
_cell_length_b 28.344445
_cell_length_c 13.499208
_cell_angle_alpha 90.000000
_cell_angle_beta 90.000000
_cell_angle_gamma 90.000000
_cell_volume 5661.623667
_symmetry_space_group_name_H-M "C M M M"
_symmetry_group_IT_number 65
_symmetry_cell_setting 'orthorhombic'
loop_
_space_group_symop_operation_xyz
x,y,z
-x,-y,z
x,-y,-z
-x,y,-z
-x,-y,-z
x,y,-z
-x,y,z
x,-y,z
1/2+x,1/2+y,z
1/2-x,1/2-y,z
1/2+x,1/2-y,-z
1/2-x,1/2+y,-z
1/2-x,1/2-y,-z
1/2+x,1/2+y,-z
1/2-x,1/2+y,z
1/2+x,1/2-y,z
loop_
_atom_site_type_symbol
_atom_site_label
_atom_site_fract_x
_atom_site_fract_y
_atom_site_fract_z
Si Si1 0.896823 0.854823 0.300150
Si Si2 0.817590 0.403723 0.883895
Si Si3 0.500000 0.944359 0.886148
Si Si4 0.632583 0.444151 0.189198
Si Si5 0.390318 0.190072 0.805696
Si Si6 0.890950 0.793319 0.110117
Si Si7 0.274805 0.194553 0.388404
Si Si8 0.000000 0.931003 0.000000
O O1 0.898566 0.910504 0.278812
O O2 0.871311 0.831692 0.193365
O O3 0.816898 0.835506 0.368969
O O4 0.000000 0.839381 0.326101
O O5 0.734017 0.427196 0.830377
O O6 0.837036 0.348558 0.869589
O O7 0.908560 0.426369 0.839937
O O8 0.808790 0.414967 0.000000
O O9 0.500000 0.000000 0.890591
O O10 0.500000 0.925568 0.000000
O O11 0.624687 0.500000 0.207142
O O12 0.577080 0.433093 0.088525
O O13 0.500000 0.184301 0.810088
O O14 0.367763 0.241758 0.848866
O O15 0.349809 0.185324 0.695451
O O16 0.000000 0.794406 0.101731
O O17 0.854435 0.802661 0.000000
O O18 0.307184 0.185582 0.500000
O O19 0.250000 0.250000 0.380341
#
# Coordination Sequence:
#
# PCOD9493449 Si02
#       8
#    16  16   8  16  16  16  16   4
#     4  11  23  39  61  87 119 156 204 248 295 358
#     4  11  21  33  55  86 122 164 205 242 287 346
#     4   9  18  32  48  75 117 159 200 244 282 327
#     4  12  24  37  57  85 122 166 210 253 296 351
#     4  11  21  38  60  88 123 157 199 241 298 368
#     4   9  19  33  53  83 122 162 196 229 273 341
#     4  11  24  43  65  90 117 148 195 254 312 364
#     4  12  25  40  56  84 126 174 216 254 300 350
#
# _framework density 19.075800000000001
#
# number of rings (size 3 to 8) (size 9 to 14) (size 15 to 20)
#    0.000    1.259    5.185    1.556    1.037    1.778 
#    0.000    2.222    0.000    0.444    0.000    1.037 
#    0.000    1.778    0.000    0.000    0.000    0.000 
#
# Total GULP energy -300902.155347 kJ/mol
# GULP energy per Si atom -5572.262136 kJ/mol
# Density = 1.903238 g / cm^3
# Si number density = 19.075800 Si / 1000 Ang^3
#
#
#
# Elastic Constant Matrix: (Units=GPa)
#
#
# Indices 1 2 3 4 5 6 
#
# 1 104.5969 8.4702 -0.3077 0.0000 0.0000 0.0000
# 2 8.4702 67.0475 -13.1738 0.0000 0.0000 0.0000
# 3 -0.3077 -13.1738 40.2908 0.0000 0.0000 0.0000
# 4 0.0000 0.0000 0.0000 -0.1274 0.0000 0.0000
# 5 0.0000 0.0000 0.0000 0.0000 13.0907 0.0000
# 6 0.0000 0.0000 0.0000 0.0000 0.0000 4.9800
#
#
#
# Elastic Compliance Matrix: (Units=1/GPa)
#
#
# Indices 1 2 3 4 5 6 
#
# 1 0.009664 -0.001289 -0.000348 0.000000 0.000000 0.000000
# 2 -0.001289 0.016111 0.005258 0.000000 0.000000 0.000000
# 3 -0.000348 0.005258 0.026536 0.000000 0.000000 0.000000
# 4 0.000000 0.000000 0.000000 -7.847453 0.000000 0.000000
# 5 0.000000 0.000000 0.000000 0.000000 0.076390 0.000000
# 6 0.000000 0.000000 0.000000 0.000000 0.000000 0.200803
#
#
# Mechanical properties :
#
#
# Convention : Reuss Voigt Hill
#
# Bulk Modulus (GPa) = 16.79187 22.43474 19.61330
# Shear Modulus (GPa) = -0.66619 18.05175 8.69278
#
# Velocity S-wave (km/s) = -0.59160 3.07956 2.13702
# Velocity P-wave (km/s) = 2.89053 4.94280 4.04886
#
# Compressibility (1/GPa) = 0.05955263
#
# Stress axis : x y z
#
# Youngs Moduli (GPa) = 103.47801 62.07031 37.68459
#
# Poissons Ratio (x) = 0.08002 0.01310
# Poissons Ratio (y) = 0.13340 -0.19814
# Poissons Ratio (z) = 0.03598 -0.32636
#
# Static dielectric constant tensor:
#      x y z
#    x 1.721430 0.000000 0.000000 
#    y 0.000000 1.718050 0.000000 
#    z 0.000000 0.000000 1.638680 
# 
# From -- ./inp_files/25595.got.cif
#   From: 2010.05.17/outbox.cif.g08.bks.cpg/sg65_13_cif.got.tgz:25595.got - 2010.06.03 17:01:31.
