data_PCOD9493649
_publ_section_title
;
Structure prediction by ZEFSAII (Michael W. Deem and Ramdas Pophale) SiO2 
 PCOD9493649
Probable space group: C M M M
;
_chemical_formula_sum "Si O2"
_cell_formula_units_Z 88
_cell_length_a 7.791187
_cell_length_b 19.297040
_cell_length_c 29.040577
_cell_angle_alpha 90.000000
_cell_angle_beta 90.000000
_cell_angle_gamma 90.000000
_cell_volume 4366.159192
_symmetry_space_group_name_H-M "C M M M"
_symmetry_group_IT_number 65
_symmetry_cell_setting 'orthorhombic'
loop_
_space_group_symop_operation_xyz
x,y,z
-x,-y,z
x,-y,-z
-x,y,-z
-x,-y,-z
x,y,-z
-x,y,z
x,-y,z
1/2+x,1/2+y,z
1/2-x,1/2-y,z
1/2+x,1/2-y,-z
1/2-x,1/2+y,-z
1/2-x,1/2-y,-z
1/2+x,1/2+y,-z
1/2-x,1/2+y,z
1/2+x,1/2-y,z
loop_
_atom_site_type_symbol
_atom_site_label
_atom_site_fract_x
_atom_site_fract_y
_atom_site_fract_z
Si Si1 0.206454 0.578224 0.551997
Si Si2 0.710783 0.420085 0.724641
Si Si3 0.710564 0.579623 0.000000
Si Si4 0.706548 0.670403 0.810593
Si Si5 0.206559 0.829481 0.914338
Si Si6 0.797494 0.169609 0.361428
O O1 0.266937 0.594401 0.500000
O O2 0.266897 0.500000 0.563952
O O3 0.253721 0.633530 0.590328
O O4 0.000000 0.575857 0.550425
O O5 0.500000 0.419864 0.724592
O O6 0.764428 0.500000 0.722126
O O7 0.767462 0.381931 0.771384
O O8 0.773880 0.375798 0.680905
O O9 0.768911 0.619826 0.954262
O O10 0.763676 0.500000 0.000000
O O11 0.500000 0.580986 0.000000
O O12 0.500000 0.665323 0.811892
O O13 0.750000 0.750000 0.798894
O O14 0.771281 0.656224 0.862467
O O15 0.250000 0.750000 0.925582
O O16 0.000000 0.835315 0.912999
O O17 0.750000 0.250000 0.359623
O O18 0.000000 0.166506 0.356479
#
# Coordination Sequence:
#
# PCOD9493649 Si02
#       6
#    16  16   8  16  16  16
#     4   9  19  37  59  81 106 135 166 203 248 297
#     4   9  18  32  50  73  99 126 160 203 247 292
#     4   9  17  28  43  67  96 121 154 202 244 279
#     4   9  17  30  49  71  95 124 158 196 239 288
#     4   9  17  29  47  69  92 123 159 195 238 286
#     4  11  22  35  53  76 103 135 170 209 250 292
#
# _framework density 20.155014999999999
#
# number of rings (size 3 to 8) (size 9 to 14) (size 15 to 20)
#    0.000    2.636    0.000    2.455    0.000    2.545 
#    0.000    5.455    0.000    3.818    0.000    5.091 
#    0.000    0.000    0.000    0.000    0.000    0.000 
#
# Total GULP energy -245580.573892 kJ/mol
# GULP energy per Si atom -5581.376679 kJ/mol
# Density = 2.010914 g / cm^3
# Si number density = 20.155015 Si / 1000 Ang^3
#
#
#
# Elastic Constant Matrix: (Units=GPa)
#
#
# Indices 1 2 3 4 5 6 
#
# 1 25.6963 6.7931 9.0913 0.0000 0.0000 0.0000
# 2 6.7931 203.7334 157.2379 0.0000 0.0000 0.0000
# 3 9.0913 157.2379 175.9043 0.0000 0.0000 0.0000
# 4 0.0000 0.0000 0.0000 -18.9351 0.0000 0.0000
# 5 0.0000 0.0000 0.0000 0.0000 187.9459 0.0000
# 6 0.0000 0.0000 0.0000 0.0000 0.0000 2.1057
#
#
#
# Elastic Compliance Matrix: (Units=1/GPa)
#
#
# Indices 1 2 3 4 5 6 
#
# 1 0.039685 0.000838 -0.002800 0.000000 0.000000 0.000000
# 2 0.000838 0.015845 -0.014207 0.000000 0.000000 0.000000
# 3 -0.002800 -0.014207 0.018529 0.000000 0.000000 0.000000
# 4 0.000000 0.000000 0.000000 -0.052812 0.000000 0.000000
# 5 0.000000 0.000000 0.000000 0.000000 0.005321 0.000000
# 6 0.000000 0.000000 0.000000 0.000000 0.000000 0.474905
#
#
# Mechanical properties :
#
#
# Convention : Reuss Voigt Hill
#
# Bulk Modulus (GPa) = 23.96873 83.50873 53.73873
# Shear Modulus (GPa) = 9.12877 49.70407 29.41642
#
# Velocity S-wave (km/s) = 2.13052 4.97136 3.82450
# Velocity P-wave (km/s) = 4.23912 8.62993 6.79875
#
# Compressibility (1/GPa) = 0.04172103
#
# Stress axis : x y z
#
# Youngs Moduli (GPa) = 25.19830 63.11048 53.96923
#
# Poissons Ratio (x) = -0.05286 0.15110
# Poissons Ratio (y) = -0.02110 0.76674
# Poissons Ratio (z) = 0.07055 0.89662
#
# Static dielectric constant tensor:
#      x y z
#    x 1.744470 0.000000 0.000000 
#    y 0.000000 1.612340 0.000000 
#    z 0.000000 0.000000 1.728610 
# 
# From -- ./inp_files/76484.got.cif
#   From: 2010.05.17/outbox.cif.g08.bks.cpg/sg65_39_cif.got.tgz:76484.got - 2010.06.03 17:01:31.
