data_PCOD9493340
_publ_section_title
;
Structure prediction by ZEFSAII (Michael W. Deem and Ramdas Pophale) SiO2 
 PCOD9493340
Probable space group: C M M M
;
_chemical_formula_sum "Si O2"
_cell_formula_units_Z 88
_cell_length_a 8.629128
_cell_length_b 23.972899
_cell_length_c 23.131270
_cell_angle_alpha 90.000000
_cell_angle_beta 90.000000
_cell_angle_gamma 90.000000
_cell_volume 4785.055119
_symmetry_space_group_name_H-M "C M M M"
_symmetry_group_IT_number 65
_symmetry_cell_setting 'orthorhombic'
loop_
_space_group_symop_operation_xyz
x,y,z
-x,-y,z
x,-y,-z
-x,y,-z
-x,-y,-z
x,y,-z
-x,y,z
x,-y,z
1/2+x,1/2+y,z
1/2-x,1/2-y,z
1/2+x,1/2-y,-z
1/2-x,1/2+y,-z
1/2-x,1/2-y,-z
1/2+x,1/2+y,-z
1/2-x,1/2+y,z
1/2+x,1/2-y,z
loop_
_atom_site_type_symbol
_atom_site_label
_atom_site_fract_x
_atom_site_fract_y
_atom_site_fract_z
Si Si1 0.186740 0.935507 0.433298
Si Si2 0.314980 0.812152 0.000000
Si Si3 0.314199 0.886132 0.678381
Si Si4 0.814005 0.500000 0.126234
Si Si5 0.314268 0.311931 0.222371
Si Si6 0.312245 0.000000 0.260381
Si Si7 0.813983 0.119826 0.108129
O O1 0.227809 0.923664 0.500000
O O2 0.258923 0.893332 0.387327
O O3 0.000000 0.934003 0.428765
O O4 0.235781 0.000000 0.421099
O O5 0.250000 0.750000 0.000000
O O6 0.253113 0.843161 0.943233
O O7 0.500000 0.811719 0.000000
O O8 0.500000 0.883488 0.680483
O O9 0.246509 0.836601 0.717083
O O10 0.259044 0.943749 0.708761
O O11 0.766972 0.500000 0.193756
O O12 0.747815 0.442848 0.101209
O O13 0.000000 0.500000 0.122127
O O14 0.500000 0.310127 0.223134
O O15 0.250000 0.250000 0.212118
O O16 0.265584 0.353175 0.169867
O O17 0.500000 0.000000 0.262784
O O18 0.000000 0.119946 0.106052
#
# Coordination Sequence:
#
# PCOD9493340 Si02
#       7
#    16   8  16   8  16   8  16
#     4   9  18  32  50  77 115 155 193 235 284 340
#     4  12  26  45  68  91 118 158 202 246 296 348
#     4  11  20  34  56  84 117 153 192 238 289 343
#     4  11  21  38  62  90 126 161 194 236 294 355
#     4  11  24  40  60  86 115 151 194 241 291 342
#     4   9  18  31  51  83 119 154 187 228 285 344
#     4  11  24  42  64  92 123 156 196 243 292 349
#
# _framework density 18.390592999999999
#
# number of rings (size 3 to 8) (size 9 to 14) (size 15 to 20)
#    0.000    1.455    2.727    3.818    0.000    4.364 
#    0.000    2.727    0.000    0.545    0.000    0.000 
#    0.000    0.000    0.000    0.000    0.000    0.000 
#
# Total GULP energy -245843.245408 kJ/mol
# GULP energy per Si atom -5587.346487 kJ/mol
# Density = 1.834874 g / cm^3
# Si number density = 18.390593 Si / 1000 Ang^3
#
#
#
# Elastic Constant Matrix: (Units=GPa)
#
#
# Indices 1 2 3 4 5 6 
#
# 1 66.4321 41.9134 42.0502 0.0000 0.0000 0.0000
# 2 41.9134 134.8729 57.5152 0.0000 0.0000 0.0000
# 3 42.0502 57.5152 117.1177 0.0000 0.0000 0.0000
# 4 0.0000 0.0000 0.0000 21.8448 0.0000 0.0000
# 5 0.0000 0.0000 0.0000 0.0000 26.1645 0.0000
# 6 0.0000 0.0000 0.0000 0.0000 0.0000 31.2421
#
#
#
# Elastic Compliance Matrix: (Units=1/GPa)
#
#
# Indices 1 2 3 4 5 6 
#
# 1 0.021234 -0.004234 -0.005544 0.000000 0.000000 0.000000
# 2 -0.004234 0.010223 -0.003500 0.000000 0.000000 0.000000
# 3 -0.005544 -0.003500 0.012248 0.000000 0.000000 0.000000
# 4 0.000000 0.000000 0.000000 0.045778 0.000000 0.000000
# 5 0.000000 0.000000 0.000000 0.000000 0.038220 0.000000
# 6 0.000000 0.000000 0.000000 0.000000 0.000000 0.032008
#
#
# Mechanical properties :
#
#
# Convention : Reuss Voigt Hill
#
# Bulk Modulus (GPa) = 58.31880 66.82003 62.56941
# Shear Modulus (GPa) = 26.04391 27.64654 26.84523
#
# Velocity S-wave (km/s) = 3.76726 3.88144 3.82478
# Velocity P-wave (km/s) = 7.12061 7.51666 7.32131
#
# Compressibility (1/GPa) = 0.01714713
#
# Stress axis : x y z
#
# Youngs Moduli (GPa) = 47.09420 97.82050 81.64652
#
# Poissons Ratio (x) = 0.41421 0.45269
# Poissons Ratio (y) = 0.19941 0.28576
# Poissons Ratio (z) = 0.26111 0.34237
#
# Static dielectric constant tensor:
#      x y z
#    x 1.612920 0.000000 0.000000 
#    y 0.000000 1.611940 0.000000 
#    z 0.000000 0.000000 1.633680 
# 
# From -- ./inp_files/59942.got.cif
#   From: 2010.05.17/outbox.cif.g08.bks.cpg/sg65_30_cif.got.tgz:59942.got - 2010.06.03 17:01:31.
