data_PCOD9493689
_publ_section_title
;
Structure prediction by ZEFSAII (Michael W. Deem and Ramdas Pophale) SiO2 
 PCOD9493689
Probable space group: C M M M
;
_chemical_formula_sum "Si O2"
_cell_formula_units_Z 72
_cell_length_a 8.389803
_cell_length_b 18.446018
_cell_length_c 24.412726
_cell_angle_alpha 90.000000
_cell_angle_beta 90.000000
_cell_angle_gamma 90.000000
_cell_volume 3778.075811
_symmetry_space_group_name_H-M "C M M M"
_symmetry_group_IT_number 65
_symmetry_cell_setting 'orthorhombic'
loop_
_space_group_symop_operation_xyz
x,y,z
-x,-y,z
x,-y,-z
-x,y,-z
-x,-y,-z
x,y,-z
-x,y,z
x,-y,z
1/2+x,1/2+y,z
1/2-x,1/2-y,z
1/2+x,1/2-y,-z
1/2-x,1/2+y,-z
1/2-x,1/2-y,-z
1/2+x,1/2+y,-z
1/2-x,1/2+y,z
1/2+x,1/2-y,z
loop_
_atom_site_type_symbol
_atom_site_label
_atom_site_fract_x
_atom_site_fract_y
_atom_site_fract_z
Si Si1 0.194874 0.584477 0.821906
Si Si2 0.191147 0.916598 0.393077
Si Si3 0.310511 0.832280 0.500000
Si Si4 0.808802 0.667995 0.713555
Si Si5 0.689668 0.912186 0.941154
O O1 0.240804 0.500000 0.814836
O O2 0.247563 0.631679 0.770437
O O3 0.252011 0.611712 0.881757
O O4 0.000000 0.585442 0.823226
O O5 0.250471 0.873448 0.446032
O O6 0.249888 0.878168 0.337993
O O7 0.000000 0.916121 0.393496
O O8 0.246534 0.000000 0.394969
O O9 0.500000 0.831810 0.500000
O O10 0.250000 0.750000 0.500000
O O11 0.750000 0.750000 0.709064
O O12 0.000000 0.667317 0.713550
O O13 0.500000 0.896459 0.941969
O O14 0.703310 0.000000 0.940397
O O15 0.757004 0.886888 0.000000
#
# Coordination Sequence:
#
# PCOD9493689 Si02
#       5
#    16  16   8  16  16
#     4   8  14  25  43  68  96 128 169 217 267 319
#     4  11  24  42  63  87 115 144 178 222 269 316
#     4  12  25  42  65  91 121 153 185 218 257 308
#     4  11  22  36  54  76 106 143 183 225 270 321
#     4   7   9  15  31  58  91 123 157 204 262 317
#
# _framework density 19.057320000000001
#
# number of rings (size 3 to 8) (size 9 to 14) (size 15 to 20)
#    0.000    2.444    0.000    6.000    0.000    4.000 
#    0.000    0.000    0.000    0.667    0.000    0.000 
#    0.000    2.667    0.000   25.111    0.000   20.667 
#
# Total GULP energy -200795.331330 kJ/mol
# GULP energy per Si atom -5577.648093 kJ/mol
# Density = 1.901394 g / cm^3
# Si number density = 19.057320 Si / 1000 Ang^3
#
#
#
# Elastic Constant Matrix: (Units=GPa)
#
#
# Indices 1 2 3 4 5 6 
#
# 1 38.3459 26.5761 34.9173 0.0000 0.0000 0.0000
# 2 26.5761 133.3681 104.9848 0.0000 0.0000 0.0000
# 3 34.9173 104.9848 238.6854 0.0000 0.0000 0.0000
# 4 0.0000 0.0000 0.0000 -20.1691 0.0000 0.0000
# 5 0.0000 0.0000 0.0000 0.0000 -17.7633 0.0000
# 6 0.0000 0.0000 0.0000 0.0000 0.0000 10.9146
#
#
#
# Elastic Compliance Matrix: (Units=1/GPa)
#
#
# Indices 1 2 3 4 5 6 
#
# 1 0.031452 -0.004047 -0.002821 0.000000 0.000000 0.000000
# 2 -0.004047 0.011990 -0.004682 0.000000 0.000000 0.000000
# 3 -0.002821 -0.004682 0.006662 0.000000 0.000000 0.000000
# 4 0.000000 0.000000 0.000000 -0.049581 0.000000 0.000000
# 5 0.000000 0.000000 0.000000 0.000000 -0.056296 0.000000
# 6 0.000000 0.000000 0.000000 0.000000 0.000000 0.091620
#
#
# Mechanical properties :
#
#
# Convention : Reuss Voigt Hill
#
# Bulk Modulus (GPa) = 37.03122 82.59511 59.81316
# Shear Modulus (GPa) = 73.58673 10.85786 42.22230
#
# Velocity S-wave (km/s) = 6.22071 2.38953 4.71206
# Velocity P-wave (km/s) = 8.43030 7.14476 7.81401
#
# Compressibility (1/GPa) = 0.02700424
#
# Stress axis : x y z
#
# Youngs Moduli (GPa) = 31.79457 83.40487 150.11549
#
# Poissons Ratio (x) = 0.33750 0.42351
# Poissons Ratio (y) = 0.12866 0.70279
# Poissons Ratio (z) = 0.08970 0.39047
#
# Static dielectric constant tensor:
#      x y z
#    x 1.661550 0.000000 0.000000 
#    y 0.000000 1.627330 0.000000 
#    z 0.000000 0.000000 1.697820 
# 
# From -- ./inp_files/72557.got.cif
#   From: 2010.05.17/outbox.cif.g08.bks.cpg/sg65_37_cif.got.tgz:72557.got - 2010.06.03 17:01:31.
