data_PCOD9493326
_publ_section_title
;
Structure prediction by ZEFSAII (Michael W. Deem and Ramdas Pophale) SiO2 
 PCOD9493326
Probable space group: C M M M
;
_chemical_formula_sum "Si O2"
_cell_formula_units_Z 96
_cell_length_a 24.624085
_cell_length_b 18.313227
_cell_length_c 11.723577
_cell_angle_alpha 90.000000
_cell_angle_beta 90.000000
_cell_angle_gamma 90.000000
_cell_volume 5286.705526
_symmetry_space_group_name_H-M "C M M M"
_symmetry_group_IT_number 65
_symmetry_cell_setting 'orthorhombic'
loop_
_space_group_symop_operation_xyz
x,y,z
-x,-y,z
x,-y,-z
-x,y,-z
-x,-y,-z
x,y,-z
-x,y,z
x,-y,z
1/2+x,1/2+y,z
1/2-x,1/2-y,z
1/2+x,1/2-y,-z
1/2-x,1/2+y,-z
1/2-x,1/2-y,-z
1/2+x,1/2+y,-z
1/2-x,1/2+y,z
1/2+x,1/2-y,z
loop_
_atom_site_type_symbol
_atom_site_label
_atom_site_fract_x
_atom_site_fract_y
_atom_site_fract_z
Si Si1 0.271968 0.833446 0.713441
Si Si2 0.721511 0.416578 0.500000
Si Si3 0.905879 0.156272 0.735775
Si Si4 0.895336 0.316898 0.360547
Si Si5 0.500000 0.083654 0.362343
Si Si6 0.500000 0.582960 0.134218
Si Si7 0.590937 0.581605 0.500000
Si Si8 0.303938 0.412778 0.134977
O O1 0.250000 0.750000 0.718614
O O2 0.242038 0.873612 0.609417
O O3 0.335560 0.839090 0.683416
O O4 0.252649 0.876391 0.826073
O O5 0.741547 0.500000 0.500000
O O6 0.656626 0.418409 0.500000
O O7 0.905504 0.241045 0.704894
O O8 0.923780 0.119927 0.616823
O O9 0.848908 0.126610 0.785697
O O10 0.948503 0.128579 0.827013
O O11 0.893381 0.306840 0.500000
O O12 0.944742 0.372242 0.333500
O O13 0.500000 0.080222 0.500000
O O14 0.500000 0.000000 0.319454
O O15 0.500000 0.500000 0.182479
O O16 0.500000 0.576088 0.000000
O O17 0.570207 0.500000 0.500000
O O18 0.304840 0.500000 0.157509
O O19 0.314233 0.401985 0.000000
#
# Coordination Sequence:
#
# PCOD9493326 Si02
#       8
#    16   8  16  16   8   8   8  16
#     4  12  22  37  60  90 127 164 204 253 310 376
#     4  11  21  33  56  89 124 159 201 243 300 379
#     4  12  22  39  61  87 121 161 200 248 311 376
#     4  11  22  39  61  91 127 161 197 251 321 372
#     4   9  21  40  60  84 120 163 207 249 294 363
#     4  11  25  43  61  83 115 159 212 256 289 344
#     4  11  20  32  55  87 124 160 197 244 301 378
#     4  11  24  41  60  85 123 168 210 257 311 367
#
# _framework density 18.158757000000001
#
# number of rings (size 3 to 8) (size 9 to 14) (size 15 to 20)
#    0.000    0.833    5.000    3.250    0.000    3.333 
#    0.000    0.833    0.000    0.000    0.000    0.000 
#    0.000    6.667    0.000    0.000    0.000    0.000 
#
# Total GULP energy -267951.215015 kJ/mol
# GULP energy per Si atom -5582.316979 kJ/mol
# Density = 1.811743 g / cm^3
# Si number density = 18.158757 Si / 1000 Ang^3
#
#
#
# Elastic Constant Matrix: (Units=GPa)
#
#
# Indices 1 2 3 4 5 6 
#
# 1 123.0055 54.1854 29.0065 0.0000 0.0000 0.0000
# 2 54.1854 140.5846 47.9109 0.0000 0.0000 0.0000
# 3 29.0065 47.9109 85.5281 0.0000 0.0000 0.0000
# 4 0.0000 0.0000 0.0000 26.5562 0.0000 0.0000
# 5 0.0000 0.0000 0.0000 0.0000 79.6735 0.0000
# 6 0.0000 0.0000 0.0000 0.0000 0.0000 22.4327
#
#
#
# Elastic Compliance Matrix: (Units=1/GPa)
#
#
# Indices 1 2 3 4 5 6 
#
# 1 0.009949 -0.003318 -0.001515 0.000000 0.000000 0.000000
# 2 -0.003318 0.009898 -0.004419 0.000000 0.000000 0.000000
# 3 -0.001515 -0.004419 0.014682 0.000000 0.000000 0.000000
# 4 0.000000 0.000000 0.000000 0.037656 0.000000 0.000000
# 5 0.000000 0.000000 0.000000 0.000000 0.012551 0.000000
# 6 0.000000 0.000000 0.000000 0.000000 0.000000 0.044578
#
#
# Mechanical properties :
#
#
# Convention : Reuss Voigt Hill
#
# Bulk Modulus (GPa) = 62.41097 67.92486 65.16791
# Shear Modulus (GPa) = 32.64556 40.26683 36.45620
#
# Velocity S-wave (km/s) = 4.24463 4.71413 4.48553
# Velocity P-wave (km/s) = 7.64636 8.19256 7.92417
#
# Compressibility (1/GPa) = 0.01602282
#
# Stress axis : x y z
#
# Youngs Moduli (GPa) = 100.51545 101.02872 68.11223
#
# Poissons Ratio (x) = 0.33522 0.10321
# Poissons Ratio (y) = 0.33352 0.30102
# Poissons Ratio (z) = 0.15232 0.44649
#
# Static dielectric constant tensor:
#      x y z
#    x 1.711490 0.000000 0.000000 
#    y 0.000000 1.626510 0.000000 
#    z 0.000000 0.000000 1.621550 
# 
# From -- ./inp_files/30876.got.cif
#   From: 2010.05.17/outbox.cif.g08.bks.cpg/sg65_16_cif.got.tgz:30876.got - 2010.06.03 17:01:31.
