data_PCOD9493843
_publ_section_title
;
Structure prediction by ZEFSAII (Michael W. Deem and Ramdas Pophale) SiO2 
 PCOD9493843
Probable space group: C M M M
;
_chemical_formula_sum "Si O2"
_cell_formula_units_Z 52
_cell_length_a 13.797039
_cell_length_b 17.087999
_cell_length_c 11.400579
_cell_angle_alpha 90.000000
_cell_angle_beta 90.000000
_cell_angle_gamma 90.000000
_cell_volume 2687.843698
_symmetry_space_group_name_H-M "C M M M"
_symmetry_group_IT_number 65
_symmetry_cell_setting 'orthorhombic'
loop_
_space_group_symop_operation_xyz
x,y,z
-x,-y,z
x,-y,-z
-x,y,-z
-x,-y,-z
x,y,-z
-x,y,z
x,-y,z
1/2+x,1/2+y,z
1/2-x,1/2-y,z
1/2+x,1/2-y,-z
1/2-x,1/2+y,-z
1/2-x,1/2-y,-z
1/2+x,1/2+y,-z
1/2-x,1/2+y,z
1/2+x,1/2-y,z
loop_
_atom_site_type_symbol
_atom_site_label
_atom_site_fract_x
_atom_site_fract_y
_atom_site_fract_z
Si Si1 0.828442 0.822430 0.500000
Si Si2 0.109702 0.808833 0.762989
Si Si3 0.609866 0.000000 0.269654
Si Si4 0.807869 0.354276 0.860204
Si Si5 0.758705 0.500000 0.500000
O O1 0.750000 0.750000 0.500000
O O2 0.884317 0.811634 0.377856
O O3 0.793256 0.913909 0.500000
O O4 0.142665 0.723385 0.807548
O O5 0.197024 0.861316 0.814173
O O6 0.000000 0.826919 0.800932
O O7 0.632174 0.925752 0.189686
O O8 0.677979 0.000000 0.382516
O O9 0.500000 0.000000 0.310386
O O10 0.807627 0.349431 0.000000
#
# Coordination Sequence:
#
# PCOD9493843 Si02
#       5
#     8  16   8  16   4
#     4  12  21  42  67  94 130 168 213 276 331 382
#     4  11  22  40  65  92 124 168 215 264 319 378
#     4  12  24  42  67  95 127 165 209 265 331 390
#     4  11  24  41  63  94 131 169 213 265 318 384
#     4  12  23  44  69  92 132 170 209 272 333 382
#
# _framework density 19.346364000000001
#
# number of rings (size 3 to 8) (size 9 to 14) (size 15 to 20)
#    0.000    0.615    6.154    3.923    0.000    4.923 
#    0.000    8.462    0.000    1.846    0.000    0.000 
#    0.000    0.000    0.000    0.000    0.000    0.000 
#
# Total GULP energy -145145.003714 kJ/mol
# GULP energy per Si atom -5582.500143 kJ/mol
# Density = 1.930233 g / cm^3
# Si number density = 19.346364 Si / 1000 Ang^3
#
#
#
# Elastic Constant Matrix: (Units=GPa)
#
#
# Indices 1 2 3 4 5 6 
#
# 1 72.2432 -4.4926 9.3224 0.0000 0.0000 0.0000
# 2 -4.4926 54.2419 5.8819 0.0000 0.0000 0.0000
# 3 9.3224 5.8819 156.3658 0.0000 0.0000 0.0000
# 4 0.0000 0.0000 0.0000 24.5525 0.0000 0.0000
# 5 0.0000 0.0000 0.0000 0.0000 -23.6377 0.0000
# 6 0.0000 0.0000 0.0000 0.0000 0.0000 9.6754
#
#
#
# Elastic Compliance Matrix: (Units=1/GPa)
#
#
# Indices 1 2 3 4 5 6 
#
# 1 0.014034 0.001258 -0.000884 0.000000 0.000000 0.000000
# 2 0.001258 0.018624 -0.000776 0.000000 0.000000 0.000000
# 3 -0.000884 -0.000776 0.006477 0.000000 0.000000 0.000000
# 4 0.000000 0.000000 0.000000 0.040729 0.000000 0.000000
# 5 0.000000 0.000000 0.000000 0.000000 -0.042305 0.000000
# 6 0.000000 0.000000 0.000000 0.000000 0.000000 0.103355
#
#
# Mechanical properties :
#
#
# Convention : Reuss Voigt Hill
#
# Bulk Modulus (GPa) = 26.08711 33.80826 29.94768
# Shear Modulus (GPa) = 32.36348 20.26065 26.31207
#
# Velocity S-wave (km/s) = 4.09448 3.23965 3.69189
# Velocity P-wave (km/s) = 5.98887 5.61311 5.80403
#
# Compressibility (1/GPa) = 0.03833311
#
# Stress axis : x y z
#
# Youngs Moduli (GPa) = 71.25321 53.69343 154.38913
#
# Poissons Ratio (x) = -0.06756 0.13649
# Poissons Ratio (y) = -0.08966 0.11974
# Poissons Ratio (z) = 0.06299 0.04164
#
# Static dielectric constant tensor:
#      x y z
#    x 1.692860 0.000000 0.000000 
#    y 0.000000 1.663870 0.000000 
#    z 0.000000 0.000000 1.641540 
# 
# From -- ./inp_files/23561.got.cif
#   From: 2010.05.17/outbox.cif.g08.bks.cpg/sg65_12_cif.got.tgz:23561.got - 2010.06.03 17:01:31.
