data_PCOD9493992
_publ_section_title
;
Structure prediction by ZEFSAII (Michael W. Deem and Ramdas Pophale) SiO2 
 PCOD9493992
Probable space group: C M M M
;
_chemical_formula_sum "Si O2"
_cell_formula_units_Z 104
_cell_length_a 21.761518
_cell_length_b 8.828456
_cell_length_c 31.320913
_cell_angle_alpha 90.000000
_cell_angle_beta 90.000000
_cell_angle_gamma 90.000000
_cell_volume 6017.392728
_symmetry_space_group_name_H-M "C M M M"
_symmetry_group_IT_number 65
_symmetry_cell_setting 'orthorhombic'
loop_
_space_group_symop_operation_xyz
x,y,z
-x,-y,z
x,-y,-z
-x,y,-z
-x,-y,-z
x,y,-z
-x,y,z
x,-y,z
1/2+x,1/2+y,z
1/2-x,1/2-y,z
1/2+x,1/2-y,-z
1/2-x,1/2+y,-z
1/2-x,1/2-y,-z
1/2+x,1/2+y,-z
1/2-x,1/2+y,z
1/2+x,1/2-y,z
loop_
_atom_site_type_symbol
_atom_site_label
_atom_site_fract_x
_atom_site_fract_y
_atom_site_fract_z
Si Si1 0.425164 0.175005 0.000000
Si Si2 0.682333 0.316390 0.670158
Si Si3 0.574920 0.674875 0.911498
Si Si4 0.624585 0.817664 0.584497
Si Si5 0.074371 0.671581 0.175996
Si Si6 0.816567 0.817843 0.500000
Si Si7 0.570783 0.681756 0.266498
Si Si8 0.500000 0.316932 0.551823
O O1 0.404511 0.252573 0.043891
O O2 0.500000 0.182615 0.000000
O O3 0.407784 0.000000 0.000000
O O4 0.686014 0.500000 0.668703
O O5 0.750000 0.250000 0.681017
O O6 0.660813 0.250288 0.624666
O O7 0.626301 0.272147 0.702165
O O8 0.500000 0.682005 0.911533
O O9 0.592315 0.500000 0.909808
O O10 0.596365 0.758073 0.868585
O O11 0.654260 0.752281 0.541867
O O12 0.556751 0.751335 0.577998
O O13 0.625011 0.000000 0.585957
O O14 0.096390 0.500000 0.180806
O O15 0.087102 0.765383 0.218668
O O16 0.000000 0.668047 0.173024
O O17 0.750000 0.750000 0.500000
O O18 0.820470 0.000000 0.500000
O O19 0.500000 0.735795 0.276378
O O20 0.568293 0.500000 0.267710
O O21 0.500000 0.500000 0.553189
O O22 0.500000 0.277198 0.500000
#
# Coordination Sequence:
#
# PCOD9493992 Si02
#       8
#     8  16  16  16  16   8  16   8
#     4   9  15  21  29  45  73 111 158 209 258 309
#     4  11  24  42  63  86 116 151 187 229 279 334
#     4   9  15  22  33  50  77 116 161 207 254 312
#     4  12  25  41  62  89 118 148 185 228 271 322
#     4   9  16  26  42  65  92 123 161 212 266 316
#     4  12  24  41  62  85 112 148 186 226 270 322
#     4   9  19  36  57  80 104 138 180 223 272 328
#     4  11  23  41  65  91 120 154 186 222 270 321
#
# _framework density 17.283234
#
# number of rings (size 3 to 8) (size 9 to 14) (size 15 to 20)
#    0.000    1.846    0.769    4.385    1.077    6.154 
#    0.000    0.000    0.000    0.000    0.000    0.000 
#    0.000    0.000    0.000    0.692    0.000   10.154 
#
# Total GULP energy -289821.621459 kJ/mol
# GULP energy per Si atom -5573.492720 kJ/mol
# Density = 1.724390 g / cm^3
# Si number density = 17.283234 Si / 1000 Ang^3
#
#
#
# Elastic Constant Matrix: (Units=GPa)
#
#
# Indices 1 2 3 4 5 6 
#
# 1 95.9094 32.3180 51.6002 0.0000 0.0000 0.0000
# 2 32.3180 78.0512 39.1751 0.0000 0.0000 0.0000
# 3 51.6002 39.1751 134.4653 0.0000 0.0000 0.0000
# 4 0.0000 0.0000 0.0000 41.2482 0.0000 0.0000
# 5 0.0000 0.0000 0.0000 0.0000 -12.3371 0.0000
# 6 0.0000 0.0000 0.0000 0.0000 0.0000 21.0732
#
#
#
# Elastic Compliance Matrix: (Units=1/GPa)
#
#
# Indices 1 2 3 4 5 6 
#
# 1 0.013962 -0.003621 -0.004303 0.000000 0.000000 0.000000
# 2 -0.003621 0.015946 -0.003256 0.000000 0.000000 0.000000
# 3 -0.004303 -0.003256 0.010037 0.000000 0.000000 0.000000
# 4 0.000000 0.000000 0.000000 0.024243 0.000000 0.000000
# 5 0.000000 0.000000 0.000000 0.000000 -0.081056 0.000000
# 6 0.000000 0.000000 0.000000 0.000000 0.000000 0.047454
#
#
# Mechanical properties :
#
#
# Convention : Reuss Voigt Hill
#
# Bulk Modulus (GPa) = 56.86985 61.62360 59.24673
# Shear Modulus (GPa) = 85.02482 22.35236 53.68859
#
# Velocity S-wave (km/s) = 7.02152 3.60015 5.57955
# Velocity P-wave (km/s) = 9.93538 7.28107 8.70993
#
# Compressibility (1/GPa) = 0.01758401
#
# Stress axis : x y z
#
# Youngs Moduli (GPa) = 71.62479 62.71241 99.63580
#
# Poissons Ratio (x) = 0.22711 0.42870
# Poissons Ratio (y) = 0.25938 0.32441
# Poissons Ratio (z) = 0.30817 0.20419
#
# Static dielectric constant tensor:
#      x y z
#    x 1.436900 0.000000 0.000000 
#    y 0.000000 1.582040 0.000000 
#    z 0.000000 0.000000 1.527190 
# 
# From -- ./inp_files/78305.got.cif
#   From: 2010.05.17/outbox.cif.g08.bks.cpg/sg65_40_cif.got.tgz:78305.got - 2010.06.03 17:01:31.
