data_PCOD9493703
_publ_section_title
;
Structure prediction by ZEFSAII (Michael W. Deem and Ramdas Pophale) SiO2 
 PCOD9493703
Probable space group: C M M M
;
_chemical_formula_sum "Si O2"
_cell_formula_units_Z 96
_cell_length_a 9.180036
_cell_length_b 28.543947
_cell_length_c 18.955333
_cell_angle_alpha 90.000000
_cell_angle_beta 90.000000
_cell_angle_gamma 90.000000
_cell_volume 4966.950467
_symmetry_space_group_name_H-M "C M M M"
_symmetry_group_IT_number 65
_symmetry_cell_setting 'orthorhombic'
loop_
_space_group_symop_operation_xyz
x,y,z
-x,-y,z
x,-y,-z
-x,y,-z
-x,-y,-z
x,y,-z
-x,y,z
x,-y,z
1/2+x,1/2+y,z
1/2-x,1/2-y,z
1/2+x,1/2-y,-z
1/2-x,1/2+y,-z
1/2-x,1/2-y,-z
1/2+x,1/2+y,-z
1/2-x,1/2+y,z
1/2+x,1/2-y,z
loop_
_atom_site_type_symbol
_atom_site_label
_atom_site_fract_x
_atom_site_fract_y
_atom_site_fract_z
Si Si1 0.830319 0.051243 0.585641
Si Si2 0.826529 0.354379 0.419537
Si Si3 0.674742 0.199969 0.717154
Si Si4 0.334707 0.708287 0.078140
Si Si5 0.827528 0.443769 0.919257
Si Si6 0.668397 0.624395 0.183524
O O1 0.823583 0.050552 0.500000
O O2 0.743927 0.097154 0.607413
O O3 0.000000 0.055373 0.605150
O O4 0.776454 0.000000 0.610092
O O5 0.776023 0.345426 0.500000
O O6 0.797375 0.313167 0.364764
O O7 0.000000 0.361259 0.421485
O O8 0.500000 0.202545 0.729812
O O9 0.750000 0.250000 0.731749
O O10 0.743209 0.155603 0.759545
O O11 0.500000 0.724318 0.073070
O O12 0.250000 0.750000 0.114758
O O13 0.334239 0.660487 0.118537
O O14 0.272150 0.701540 0.000000
O O15 0.812335 0.500000 0.915561
O O16 0.744990 0.420067 0.853255
O O17 0.000000 0.432407 0.914370
O O18 0.779571 0.429990 0.000000
O O19 0.500000 0.615398 0.205781
#
# Coordination Sequence:
#
# PCOD9493703 Si02
#       6
#    16  16  16  16  16  16
#     4   8  14  26  47  77 110 139 167 205 257 317
#     4   9  19  36  57  81 108 140 183 235 290 350
#     4  11  24  41  59  80 109 145 186 235 292 353
#     4   9  18  31  47  71 102 134 170 212 256 303
#     4   9  19  37  61  89 121 157 196 237 281 328
#     4  11  22  36  56  81 111 148 189 231 277 332
#
# _framework density 19.327753999999999
#
# number of rings (size 3 to 8) (size 9 to 14) (size 15 to 20)
#    0.000    2.500    0.000    3.000    0.000    6.000 
#    0.000    5.000    0.000    1.000    0.000    0.000 
#    0.000    0.000    0.000    0.000    0.000    0.000 
#
# Total GULP energy -267279.511671 kJ/mol
# GULP energy per Si atom -5568.323160 kJ/mol
# Density = 1.928376 g / cm^3
# Si number density = 19.327754 Si / 1000 Ang^3
#
#
#
# Elastic Constant Matrix: (Units=GPa)
#
#
# Indices 1 2 3 4 5 6 
#
# 1 58.1635 41.5180 40.6580 0.0000 0.0000 0.0000
# 2 41.5180 76.9613 43.7395 0.0000 0.0000 0.0000
# 3 40.6580 43.7395 81.7129 0.0000 0.0000 0.0000
# 4 0.0000 0.0000 0.0000 40.2762 0.0000 0.0000
# 5 0.0000 0.0000 0.0000 0.0000 24.2878 0.0000
# 6 0.0000 0.0000 0.0000 0.0000 0.0000 32.9631
#
#
#
# Elastic Compliance Matrix: (Units=1/GPa)
#
#
# Indices 1 2 3 4 5 6 
#
# 1 0.032631 -0.012038 -0.009793 0.000000 0.000000 0.000000
# 2 -0.012038 0.023116 -0.006384 0.000000 0.000000 0.000000
# 3 -0.009793 -0.006384 0.020528 0.000000 0.000000 0.000000
# 4 0.000000 0.000000 0.000000 0.024829 0.000000 0.000000
# 5 0.000000 0.000000 0.000000 0.000000 0.041173 0.000000
# 6 0.000000 0.000000 0.000000 0.000000 0.000000 0.030337
#
#
# Mechanical properties :
#
#
# Convention : Reuss Voigt Hill
#
# Bulk Modulus (GPa) = 50.38829 52.07430 51.23130
# Shear Modulus (GPa) = 21.21735 25.56692 23.39213
#
# Velocity S-wave (km/s) = 3.31685 3.64099 3.48269
# Velocity P-wave (km/s) = 6.38715 6.68408 6.53730
#
# Compressibility (1/GPa) = 0.01984588
#
# Stress axis : x y z
#
# Youngs Moduli (GPa) = 30.64564 43.26078 48.71508
#
# Poissons Ratio (x) = 0.52077 0.47705
# Poissons Ratio (y) = 0.36891 0.31098
# Poissons Ratio (z) = 0.30010 0.27616
#
# Static dielectric constant tensor:
#      x y z
#    x 1.674040 0.000000 0.000000 
#    y 0.000000 1.670670 0.000000 
#    z 0.000000 0.000000 1.728870 
# 
# From -- ./inp_files/60242.got.cif
#   From: 2010.05.17/outbox.cif.g08.bks.cpg/sg65_31_cif.got.tgz:60242.got - 2010.06.03 17:01:31.
