data_PCOD9493427
_publ_section_title
;
Structure prediction by ZEFSAII (Michael W. Deem and Ramdas Pophale) SiO2 
 PCOD9493427
Probable space group: C M M M
;
_chemical_formula_sum "Si O2"
_cell_formula_units_Z 88
_cell_length_a 14.722940
_cell_length_b 17.445603
_cell_length_c 19.589810
_cell_angle_alpha 90.000000
_cell_angle_beta 90.000000
_cell_angle_gamma 90.000000
_cell_volume 5031.653791
_symmetry_space_group_name_H-M "C M M M"
_symmetry_group_IT_number 65
_symmetry_cell_setting 'orthorhombic'
loop_
_space_group_symop_operation_xyz
x,y,z
-x,-y,z
x,-y,-z
-x,y,-z
-x,-y,-z
x,y,-z
-x,y,z
x,-y,z
1/2+x,1/2+y,z
1/2-x,1/2-y,z
1/2+x,1/2-y,-z
1/2-x,1/2+y,-z
1/2-x,1/2-y,-z
1/2+x,1/2+y,-z
1/2-x,1/2+y,z
1/2+x,1/2-y,z
loop_
_atom_site_type_symbol
_atom_site_label
_atom_site_fract_x
_atom_site_fract_y
_atom_site_fract_z
Si Si1 0.401535 0.862625 0.352592
Si Si2 0.687407 0.327018 0.500000
Si Si3 0.890269 0.587148 0.000000
Si Si4 0.393997 0.316407 0.651662
Si Si5 0.250915 0.586447 0.735544
Si Si6 0.135420 0.411133 0.500000
Si Si7 0.605784 0.906153 0.150679
O O1 0.500000 0.886128 0.325548
O O2 0.382839 0.774417 0.334811
O O3 0.321862 0.914862 0.325640
O O4 0.401708 0.870095 0.433417
O O5 0.750000 0.250000 0.500000
O O6 0.634362 0.328521 0.427957
O O7 0.756766 0.397869 0.500000
O O8 0.868297 0.620907 0.074083
O O9 0.854131 0.500000 0.000000
O O10 0.000000 0.582291 0.000000
O O11 0.500000 0.335697 0.659262
O O12 0.331797 0.362448 0.705201
O O13 0.281483 0.500000 0.751964
O O14 0.185211 0.616482 0.796621
O O15 0.111347 0.500000 0.500000
O O16 0.500000 0.882865 0.164894
O O17 0.604293 0.000000 0.150747
#
# Coordination Sequence:
#
# PCOD9493427 Si02
#       7
#    16   8   8  16  16   8  16
#     4  11  22  36  53  73  99 131 165 205 257 317
#     4  12  19  37  59  72  94 127 170 219 262 310
#     4   7  10  20  40  68 104 141 169 193 237 310
#     4  11  23  38  55  72  94 134 181 217 252 299
#     4  11  21  33  50  75 106 134 165 211 260 302
#     4  12  23  34  53  79 101 122 153 204 270 317
#     4   8  14  25  44  73 108 140 166 200 253 311
#
# _framework density 17.489280000000001
#
# number of rings (size 3 to 8) (size 9 to 14) (size 15 to 20)
#    0.000    1.727    3.636    3.273    0.000    4.364 
#    0.000    0.000    0.000    1.636    0.000    3.182 
#    0.000    6.545    0.000    0.000    0.000    0.000 
#
# Total GULP energy -245124.774746 kJ/mol
# GULP energy per Si atom -5571.017608 kJ/mol
# Density = 1.744947 g / cm^3
# Si number density = 17.489280 Si / 1000 Ang^3
#
#
#
# Elastic Constant Matrix: (Units=GPa)
#
#
# Indices 1 2 3 4 5 6 
#
# 1 112.2887 44.7193 50.0888 0.0000 0.0000 0.0000
# 2 44.7193 56.4240 17.9201 0.0000 0.0000 0.0000
# 3 50.0888 17.9201 128.0383 0.0000 0.0000 0.0000
# 4 0.0000 0.0000 0.0000 2.0979 0.0000 0.0000
# 5 0.0000 0.0000 0.0000 0.0000 193.7440 0.0000
# 6 0.0000 0.0000 0.0000 0.0000 0.0000 -19.2070
#
#
#
# Elastic Compliance Matrix: (Units=1/GPa)
#
#
# Indices 1 2 3 4 5 6 
#
# 1 0.015078 -0.010546 -0.004423 0.000000 0.000000 0.000000
# 2 -0.010546 0.025923 0.000497 0.000000 0.000000 0.000000
# 3 -0.004423 0.000497 0.009471 0.000000 0.000000 0.000000
# 4 0.000000 0.000000 0.000000 0.476674 0.000000 0.000000
# 5 0.000000 0.000000 0.000000 0.000000 0.005161 0.000000
# 6 0.000000 0.000000 0.000000 0.000000 0.000000 -0.052064
#
#
# Mechanical properties :
#
#
# Convention : Reuss Voigt Hill
#
# Bulk Modulus (GPa) = 46.44696 58.02305 52.23500
# Shear Modulus (GPa) = 9.68313 47.59517 28.63915
#
# Velocity S-wave (km/s) = 2.35555 5.22235 4.05103
# Velocity P-wave (km/s) = 5.83208 8.34340 7.19811
#
# Compressibility (1/GPa) = 0.02152993
#
# Stress axis : x y z
#
# Youngs Moduli (GPa) = 66.32003 38.57545 105.58856
#
# Poissons Ratio (x) = 0.40681 0.46699
# Poissons Ratio (y) = 0.69940 -0.05252
# Poissons Ratio (z) = 0.29331 -0.01919
#
# Static dielectric constant tensor:
#      x y z
#    x 1.616260 0.000000 0.000000 
#    y 0.000000 1.611240 0.000000 
#    z 0.000000 0.000000 1.656470 
# 
# From -- ./inp_files/53096.got.cif
#   From: 2010.05.17/outbox.cif.g08.bks.cpg/sg65_27_cif.got.tgz:53096.got - 2010.06.03 17:01:31.
