data_PCOD9493206
_publ_section_title
;
Structure prediction by ZEFSAII (Michael W. Deem and Ramdas Pophale) SiO2 
 PCOD9493206
Probable space group: C M M M
;
_chemical_formula_sum "Si O2"
_cell_formula_units_Z 90
_cell_length_a 12.125011
_cell_length_b 17.595211
_cell_length_c 21.910981
_cell_angle_alpha 90.000000
_cell_angle_beta 90.000000
_cell_angle_gamma 90.000000
_cell_volume 4674.535289
_symmetry_space_group_name_H-M "C M M M"
_symmetry_group_IT_number 65
_symmetry_cell_setting 'orthorhombic'
loop_
_space_group_symop_operation_xyz
x,y,z
-x,-y,z
x,-y,-z
-x,y,-z
-x,-y,-z
x,y,-z
-x,y,z
x,-y,z
1/2+x,1/2+y,z
1/2-x,1/2-y,z
1/2+x,1/2-y,-z
1/2-x,1/2+y,-z
1/2-x,1/2-y,-z
1/2+x,1/2+y,-z
1/2-x,1/2+y,z
1/2+x,1/2-y,z
loop_
_atom_site_type_symbol
_atom_site_label
_atom_site_fract_x
_atom_site_fract_y
_atom_site_fract_z
Si Si1 0.366440 0.592111 0.000000
Si Si2 0.625232 0.909127 0.433657
Si Si3 0.297409 0.335679 0.353471
Si Si4 0.000000 0.091845 0.573389
Si Si5 0.758560 0.661430 0.118154
Si Si6 0.500000 0.000000 0.000000
Si Si7 0.629391 0.410282 0.771446
Si Si8 0.500000 0.151485 0.067467
O O1 0.309412 0.632038 0.941464
O O2 0.342960 0.500000 0.000000
O O3 0.500000 0.600627 0.000000
O O4 0.670815 0.882984 0.500000
O O5 0.500000 0.881268 0.429422
O O6 0.694604 0.884606 0.376392
O O7 0.623298 0.000000 0.435600
O O8 0.250000 0.250000 0.356623
O O9 0.395318 0.363215 0.398787
O O10 0.338669 0.359653 0.286762
O O11 0.000000 0.094370 0.500000
O O12 0.000000 0.000000 0.590392
O O13 0.750000 0.750000 0.132810
O O14 0.709289 0.612348 0.173221
O O15 0.887613 0.659934 0.103152
O O16 0.500000 0.064593 0.050818
O O17 0.500000 0.397258 0.787687
O O18 0.640359 0.500000 0.756913
O O19 0.500000 0.192879 0.000000
#
# Coordination Sequence:
#
# PCOD9493206 Si02
#       8
#     8  16  16   8  16   2  16   8
#     4  11  24  41  68 100 134 175 229 279 319 391
#     4   9  19  37  62  91 127 169 211 257 321 398
#     4  12  25  42  66  99 135 173 221 286 345 404
#     4  11  24  44  73 103 139 189 241 282 334 417
#     4  12  26  42  67  98 134 172 220 278 346 407
#     4   8  20  40  64  88 130 180 198 260 306 410
#     4  11  25  47  72  92 125 178 231 283 339 412
#     4  10  24  40  67  92 132 175 208 259 336 400
#
# _framework density 19.253252
#
# number of rings (size 3 to 8) (size 9 to 14) (size 15 to 20)
#    0.267    0.889    1.778    4.533    7.467    4.267 
#    1.600    0.000    0.000    0.000    0.000    0.000 
#    0.000    0.000    0.000    0.000    0.000    0.000 
#
# Total GULP energy -250588.914717 kJ/mol
# GULP energy per Si atom -5568.642549 kJ/mol
# Density = 1.920943 g / cm^3
# Si number density = 19.253252 Si / 1000 Ang^3
#
#
#
# Elastic Constant Matrix: (Units=GPa)
#
#
# Indices 1 2 3 4 5 6 
#
# 1 135.6555 35.4005 49.1342 0.0000 0.0000 0.0000
# 2 35.4005 85.7917 12.8028 0.0000 0.0000 0.0000
# 3 49.1342 12.8028 95.7692 0.0000 0.0000 0.0000
# 4 0.0000 0.0000 0.0000 30.5985 0.0000 0.0000
# 5 0.0000 0.0000 0.0000 0.0000 18.1170 0.0000
# 6 0.0000 0.0000 0.0000 0.0000 0.0000 55.9458
#
#
#
# Elastic Compliance Matrix: (Units=1/GPa)
#
#
# Indices 1 2 3 4 5 6 
#
# 1 0.009944 -0.003410 -0.004646 0.000000 0.000000 0.000000
# 2 -0.003410 0.013063 0.000003 0.000000 0.000000 0.000000
# 3 -0.004646 0.000003 0.012825 0.000000 0.000000 0.000000
# 4 0.000000 0.000000 0.000000 0.032681 0.000000 0.000000
# 5 0.000000 0.000000 0.000000 0.000000 0.055197 0.000000
# 6 0.000000 0.000000 0.000000 0.000000 0.000000 0.017874
#
#
# Mechanical properties :
#
#
# Convention : Reuss Voigt Hill
#
# Bulk Modulus (GPa) = 50.69357 56.87680 53.78519
# Shear Modulus (GPa) = 30.43851 35.59086 33.01469
#
# Velocity S-wave (km/s) = 3.98043 4.30416 4.14546
# Velocity P-wave (km/s) = 6.89291 7.36930 7.13508
#
# Compressibility (1/GPa) = 0.01972637
#
# Stress axis : x y z
#
# Youngs Moduli (GPa) = 100.56048 76.55360 77.97291
#
# Poissons Ratio (x) = 0.26105 0.36226
# Poissons Ratio (y) = 0.34291 -0.00025
# Poissons Ratio (z) = 0.46721 -0.00025
#
# Static dielectric constant tensor:
#      x y z
#    x 1.588510 0.000000 0.000000 
#    y 0.000000 1.619010 0.000000 
#    z 0.000000 0.000000 1.679970 
# 
# From -- ./inp_files/61540.got.cif
#   From: 2010.05.17/outbox.cif.g08.bks.cpg/sg65_31_cif.got.tgz:61540.got - 2010.06.03 17:01:31.
