data_PCOD9493134
_publ_section_title
;
Structure prediction by ZEFSAII (Michael W. Deem and Ramdas Pophale) SiO2 
 PCOD9493134
Probable space group: C M M M
;
_chemical_formula_sum "Si O2"
_cell_formula_units_Z 72
_cell_length_a 7.745800
_cell_length_b 26.362722
_cell_length_c 17.839405
_cell_angle_alpha 90.000000
_cell_angle_beta 90.000000
_cell_angle_gamma 90.000000
_cell_volume 3642.813138
_symmetry_space_group_name_H-M "C M M M"
_symmetry_group_IT_number 65
_symmetry_cell_setting 'orthorhombic'
loop_
_space_group_symop_operation_xyz
x,y,z
-x,-y,z
x,-y,-z
-x,y,-z
-x,-y,-z
x,y,-z
-x,y,z
x,-y,z
1/2+x,1/2+y,z
1/2-x,1/2-y,z
1/2+x,1/2-y,-z
1/2-x,1/2+y,-z
1/2-x,1/2-y,-z
1/2+x,1/2+y,-z
1/2-x,1/2+y,z
1/2+x,1/2-y,z
loop_
_atom_site_type_symbol
_atom_site_label
_atom_site_fract_x
_atom_site_fract_y
_atom_site_fract_z
Si Si1 0.707242 0.309368 0.205908
Si Si2 0.205640 0.500000 0.085959
Si Si3 0.500000 0.940135 0.409750
Si Si4 0.206570 0.889298 0.085398
Si Si5 0.700247 0.630023 0.354072
Si Si6 0.706954 0.191308 0.500000
O O1 0.500000 0.312195 0.204606
O O2 0.750000 0.250000 0.202518
O O3 0.773614 0.343830 0.137125
O O4 0.760627 0.336983 0.282760
O O5 0.259891 0.554383 0.118460
O O6 0.000000 0.500000 0.083317
O O7 0.275715 0.500000 0.000000
O O8 0.500000 0.929985 0.500000
O O9 0.668574 0.915266 0.372165
O O10 0.500000 0.000000 0.399673
O O11 0.000000 0.883972 0.080881
O O12 0.275904 0.887687 0.000000
O O13 0.500000 0.614425 0.343171
O O14 0.714389 0.665648 0.426646
O O15 0.500000 0.184659 0.500000
O O16 0.750000 0.250000 0.500000
#
# Coordination Sequence:
#
# PCOD9493134 Si02
#       6
#    16   8   8  16  16   8
#     4  10  23  38  57  86 117 155 198 245 304 364
#     4   9  17  31  53  83 111 140 187 242 295 347
#     4  11  24  44  68  94 125 163 209 252 300 367
#     4   9  18  36  58  80 112 154 198 244 299 362
#     4  11  22  41  62  89 126 159 202 251 302 361
#     4  12  22  36  60  92 121 157 206 248 298 365
#
# _framework density 19.764944
#
# number of rings (size 3 to 8) (size 9 to 14) (size 15 to 20)
#    0.000    1.778    2.222    2.000    1.556    4.889 
#    2.000    1.111    0.000    0.000    0.000    0.000 
#    0.000    0.000    0.000    0.000    0.000    0.000 
#
# Total GULP energy -200945.522570 kJ/mol
# GULP energy per Si atom -5581.820071 kJ/mol
# Density = 1.971996 g / cm^3
# Si number density = 19.764944 Si / 1000 Ang^3
#
#
#
# Elastic Constant Matrix: (Units=GPa)
#
#
# Indices 1 2 3 4 5 6 
#
# 1 78.1395 41.1562 18.8231 0.0000 0.0000 0.0000
# 2 41.1562 202.3914 84.0538 0.0000 0.0000 0.0000
# 3 18.8231 84.0538 114.1839 0.0000 0.0000 0.0000
# 4 0.0000 0.0000 0.0000 -332.2370 0.0000 0.0000
# 5 0.0000 0.0000 0.0000 0.0000 -3.4567 0.0000
# 6 0.0000 0.0000 0.0000 0.0000 0.0000 14.6611
#
#
#
# Elastic Compliance Matrix: (Units=1/GPa)
#
#
# Indices 1 2 3 4 5 6 
#
# 1 0.014340 -0.002786 -0.000313 0.000000 0.000000 0.000000
# 2 -0.002786 0.007658 -0.005178 0.000000 0.000000 0.000000
# 3 -0.000313 -0.005178 0.012621 0.000000 0.000000 0.000000
# 4 0.000000 0.000000 0.000000 -0.003010 0.000000 0.000000
# 5 0.000000 0.000000 0.000000 0.000000 -0.289294 0.000000
# 6 0.000000 0.000000 0.000000 0.000000 0.000000 0.068208
#
#
# Mechanical properties :
#
#
# Convention : Reuss Voigt Hill
#
# Bulk Modulus (GPa) = 55.35500 75.86455 65.60977
# Shear Modulus (GPa) = -29.95793 -47.49441 -38.72617
#
# Velocity S-wave (km/s) = -3.89744 -4.90732 -4.43124
# Velocity P-wave (km/s) = 2.79537 2.52144 2.66193
#
# Compressibility (1/GPa) = 0.01806522
#
# Stress axis : x y z
#
# Youngs Moduli (GPa) = 69.73259 130.58484 79.23319
#
# Poissons Ratio (x) = 0.36382 0.02481
# Poissons Ratio (y) = 0.19428 0.41026
# Poissons Ratio (z) = 0.02183 0.67615
#
# Static dielectric constant tensor:
#      x y z
#    x 1.727310 0.000000 0.000000 
#    y 0.000000 1.679080 0.000000 
#    z 0.000000 0.000000 1.708050 
# 
# From -- ./inp_files/36655.got.cif
#   From: 2010.05.17/outbox.cif.g08.bks.cpg/sg65_19_cif.got.tgz:36655.got - 2010.06.03 17:01:31.
