data_PCOD9493599
_publ_section_title
;
Structure prediction by ZEFSAII (Michael W. Deem and Ramdas Pophale) SiO2 
 PCOD9493599
Probable space group: C M M M
;
_chemical_formula_sum "Si O2"
_cell_formula_units_Z 64
_cell_length_a 7.770298
_cell_length_b 19.115792
_cell_length_c 21.857639
_cell_angle_alpha 90.000000
_cell_angle_beta 90.000000
_cell_angle_gamma 90.000000
_cell_volume 3246.633159
_symmetry_space_group_name_H-M "C M M M"
_symmetry_group_IT_number 65
_symmetry_cell_setting 'orthorhombic'
loop_
_space_group_symop_operation_xyz
x,y,z
-x,-y,z
x,-y,-z
-x,y,-z
-x,-y,-z
x,y,-z
-x,y,z
x,-y,z
1/2+x,1/2+y,z
1/2-x,1/2-y,z
1/2+x,1/2-y,-z
1/2-x,1/2+y,-z
1/2-x,1/2-y,-z
1/2+x,1/2+y,-z
1/2-x,1/2+y,z
1/2+x,1/2-y,z
loop_
_atom_site_type_symbol
_atom_site_label
_atom_site_fract_x
_atom_site_fract_y
_atom_site_fract_z
Si Si1 0.289834 0.419128 0.931297
Si Si2 0.793269 0.420204 0.301805
Si Si3 0.295888 0.668906 0.816661
Si Si4 0.204271 0.584798 0.565758
O O1 0.500000 0.417693 0.931349
O O2 0.240308 0.500000 0.920543
O O3 0.225052 0.369968 0.877035
O O4 0.234805 0.398907 0.000000
O O5 0.730194 0.500000 0.291282
O O6 0.755935 0.371255 0.244818
O O7 0.726461 0.393016 0.367887
O O8 0.000000 0.424409 0.307736
O O9 0.500000 0.663674 0.820571
O O10 0.250000 0.750000 0.814846
O O11 0.277538 0.608628 0.500000
O O12 0.217476 0.500000 0.566757
O O13 0.000000 0.601181 0.564429
#
# Coordination Sequence:
#
# PCOD9493599 Si02
#       4
#    16  16  16  16
#     4   8  15  30  52  75  96 120 154 195 238 286
#     4   9  17  30  50  75 101 128 159 198 242 288
#     4  11  22  34  49  70  98 132 167 202 240 283
#     4   7  10  19  39  68  97 122 151 189 234 284
#
# _framework density 19.712730000000001
#
# number of rings (size 3 to 8) (size 9 to 14) (size 15 to 20)
#    0.000    3.250    0.000    4.500    0.000    2.000 
#    0.000    0.000    0.000    3.750    0.000   12.250 
#    0.000    0.000    0.000    0.000    0.000    0.000 
#
# Total GULP energy -178232.991560 kJ/mol
# GULP energy per Si atom -5569.780986 kJ/mol
# Density = 1.966786 g / cm^3
# Si number density = 19.712730 Si / 1000 Ang^3
#
#
#
# Elastic Constant Matrix: (Units=GPa)
#
#
# Indices 1 2 3 4 5 6 
#
# 1 28.9334 3.7965 11.9402 0.0000 0.0000 0.0000
# 2 3.7965 91.6406 117.1099 0.0000 0.0000 0.0000
# 3 11.9402 117.1099 258.1378 0.0000 0.0000 0.0000
# 4 0.0000 0.0000 0.0000 -3.8880 0.0000 0.0000
# 5 0.0000 0.0000 0.0000 0.0000 12.0065 0.0000
# 6 0.0000 0.0000 0.0000 0.0000 0.0000 -85.6049
#
#
#
# Elastic Compliance Matrix: (Units=1/GPa)
#
#
# Indices 1 2 3 4 5 6 
#
# 1 0.035320 0.001486 -0.002308 0.000000 0.000000 0.000000
# 2 0.001486 0.026029 -0.011877 0.000000 0.000000 0.000000
# 3 -0.002308 -0.011877 0.009369 0.000000 0.000000 0.000000
# 4 0.000000 0.000000 0.000000 -0.257199 0.000000 0.000000
# 5 0.000000 0.000000 0.000000 0.000000 0.083288 0.000000
# 6 0.000000 0.000000 0.000000 0.000000 0.000000 -0.011682
#
#
# Mechanical properties :
#
#
# Convention : Reuss Voigt Hill
#
# Bulk Modulus (GPa) = 22.06561 71.60054 46.83307
# Shear Modulus (GPa) = -67.23210 0.89371 -33.16919
#
# Velocity S-wave (km/s) = -5.84636 0.67406 -4.10644
# Velocity P-wave (km/s) = 5.86135 6.08331 1.15135
#
# Compressibility (1/GPa) = 0.04531940
#
# Stress axis : x y z
#
# Youngs Moduli (GPa) = 28.31291 38.41857 106.73378
#
# Poissons Ratio (x) = -0.05710 0.24633
# Poissons Ratio (y) = -0.04208 1.26772
# Poissons Ratio (z) = 0.06534 0.45631
#
# Static dielectric constant tensor:
#      x y z
#    x 1.738710 0.000000 0.000000 
#    y 0.000000 1.619960 0.000000 
#    z 0.000000 0.000000 1.764140 
# 
# From -- ./inp_files/51032.got.cif
#   From: 2010.05.17/outbox.cif.g08.bks.cpg/sg65_26_cif.got.tgz:51032.got - 2010.06.03 17:01:31.
