data_PCOD9493096
_publ_section_title
;
Structure prediction by ZEFSAII (Michael W. Deem and Ramdas Pophale) SiO2 
 PCOD9493096
Probable space group: C M M M
;
_chemical_formula_sum "Si O2"
_cell_formula_units_Z 64
_cell_length_a 8.524663
_cell_length_b 25.414171
_cell_length_c 15.564675
_cell_angle_alpha 90.000000
_cell_angle_beta 90.000000
_cell_angle_gamma 90.000000
_cell_volume 3372.043930
_symmetry_space_group_name_H-M "C M M M"
_symmetry_group_IT_number 65
_symmetry_cell_setting 'orthorhombic'
loop_
_space_group_symop_operation_xyz
x,y,z
-x,-y,z
x,-y,-z
-x,y,-z
-x,-y,-z
x,y,-z
-x,y,z
x,-y,z
1/2+x,1/2+y,z
1/2-x,1/2-y,z
1/2+x,1/2-y,-z
1/2-x,1/2+y,-z
1/2-x,1/2-y,-z
1/2+x,1/2+y,-z
1/2-x,1/2+y,z
1/2+x,1/2-y,z
loop_
_atom_site_type_symbol
_atom_site_label
_atom_site_fract_x
_atom_site_fract_y
_atom_site_fract_z
Si Si1 0.814702 0.000000 0.102814
Si Si2 0.818279 0.385434 0.854725
Si Si3 0.500000 0.562056 0.597897
Si Si4 0.184227 0.692337 0.500000
Si Si5 0.685226 0.884541 0.343520
Si Si6 0.184920 0.809537 0.000000
O O1 0.745408 0.945228 0.137829
O O2 0.000000 0.000000 0.119607
O O3 0.789240 0.000000 0.000000
O O4 0.807492 0.367914 0.755657
O O5 0.735570 0.344449 0.917895
O O6 0.000000 0.387124 0.879964
O O7 0.500000 0.500000 0.592620
O O8 0.500000 0.583897 0.500000
O O9 0.334553 0.577369 0.642068
O O10 0.250000 0.750000 0.500000
O O11 0.220587 0.660260 0.586471
O O12 0.000000 0.697702 0.500000
O O13 0.500000 0.902538 0.358048
O O14 0.250000 0.750000 0.000000
O O15 0.000000 0.805136 0.000000
#
# Coordination Sequence:
#
# PCOD9493096 Si02
#       6
#     8  16   8   8  16   8
#     4  11  23  39  63  96 130 167 212 262 323 384
#     4  11  24  42  66  95 129 169 214 266 322 386
#     4  11  24  40  66  95 129 177 215 256 322 382
#     4  10  22  42  66  93 125 166 212 266 321 374
#     4  10  24  43  63  95 135 166 213 268 321 384
#     4  12  26  45  66  91 126 170 216 270 326 386
#
# _framework density 18.979586000000001
#
# number of rings (size 3 to 8) (size 9 to 14) (size 15 to 20)
#    0.000    1.250    2.500    2.250    7.000    2.000 
#    0.000    3.750    0.000    0.000    0.000    0.000 
#    0.000    0.000    0.000    0.000    0.000    0.000 
#
# Total GULP energy -178446.374903 kJ/mol
# GULP energy per Si atom -5576.449216 kJ/mol
# Density = 1.893639 g / cm^3
# Si number density = 18.979586 Si / 1000 Ang^3
#
#
#
# Elastic Constant Matrix: (Units=GPa)
#
#
# Indices 1 2 3 4 5 6 
#
# 1 115.2254 64.2247 79.9349 0.0000 0.0000 0.0000
# 2 64.2247 141.4957 72.5913 0.0000 0.0000 0.0000
# 3 79.9349 72.5913 119.8837 0.0000 0.0000 0.0000
# 4 0.0000 0.0000 0.0000 -10.5419 0.0000 0.0000
# 5 0.0000 0.0000 0.0000 0.0000 24.0157 0.0000
# 6 0.0000 0.0000 0.0000 0.0000 0.0000 32.8051
#
#
#
# Elastic Compliance Matrix: (Units=1/GPa)
#
#
# Indices 1 2 3 4 5 6 
#
# 1 0.016846 -0.002733 -0.009578 0.000000 0.000000 0.000000
# 2 -0.002733 0.010695 -0.004654 0.000000 0.000000 0.000000
# 3 -0.009578 -0.004654 0.017546 0.000000 0.000000 0.000000
# 4 0.000000 0.000000 0.000000 -0.094860 0.000000 0.000000
# 5 0.000000 0.000000 0.000000 0.000000 0.041639 0.000000
# 6 0.000000 0.000000 0.000000 0.000000 0.000000 0.030483
#
#
# Mechanical properties :
#
#
# Convention : Reuss Voigt Hill
#
# Bulk Modulus (GPa) = 89.62179 90.01183 89.81681
# Shear Modulus (GPa) = 83.33447 19.91271 51.62359
#
# Velocity S-wave (km/s) = 6.63346 3.24259 5.22098
# Velocity P-wave (km/s) = 10.29529 7.84524 9.15261
#
# Compressibility (1/GPa) = 0.01115800
#
# Stress axis : x y z
#
# Youngs Moduli (GPa) = 59.36040 93.49768 56.99380
#
# Poissons Ratio (x) = 0.25551 0.54588
# Poissons Ratio (y) = 0.16222 0.26526
# Poissons Ratio (z) = 0.56854 0.43515
#
# Static dielectric constant tensor:
#      x y z
#    x 1.719230 0.000000 0.000000 
#    y 0.000000 1.709080 0.000000 
#    z 0.000000 0.000000 1.698290 
# 
# From -- ./inp_files/36124.got.cif
#   From: 2010.05.17/outbox.cif.g08.bks.cpg/sg65_19_cif.got.tgz:36124.got - 2010.06.03 17:01:31.
