data_PCOD9493336
_publ_section_title
;
Structure prediction by ZEFSAII (Michael W. Deem and Ramdas Pophale) SiO2 
 PCOD9493336
Probable space group: C M M M
;
_chemical_formula_sum "Si O2"
_cell_formula_units_Z 80
_cell_length_a 27.904931
_cell_length_b 14.534444
_cell_length_c 12.059012
_cell_angle_alpha 90.000000
_cell_angle_beta 90.000000
_cell_angle_gamma 90.000000
_cell_volume 4890.926127
_symmetry_space_group_name_H-M "C M M M"
_symmetry_group_IT_number 65
_symmetry_cell_setting 'orthorhombic'
loop_
_space_group_symop_operation_xyz
x,y,z
-x,-y,z
x,-y,-z
-x,y,-z
-x,-y,-z
x,y,-z
-x,y,z
x,-y,z
1/2+x,1/2+y,z
1/2-x,1/2-y,z
1/2+x,1/2-y,-z
1/2-x,1/2+y,-z
1/2-x,1/2-y,-z
1/2+x,1/2+y,-z
1/2-x,1/2+y,z
1/2+x,1/2-y,z
loop_
_atom_site_type_symbol
_atom_site_label
_atom_site_fract_x
_atom_site_fract_y
_atom_site_fract_z
Si Si1 0.731394 0.645316 0.125018
Si Si2 0.360371 0.301400 0.264120
Si Si3 0.150233 0.104469 0.500000
Si Si4 0.943953 0.892384 0.132016
Si Si5 0.760351 0.640985 0.500000
Si Si6 0.681998 0.100019 0.276324
O O1 0.750000 0.750000 0.117948
O O2 0.684388 0.648255 0.202079
O O3 0.776109 0.597963 0.184276
O O4 0.721076 0.612903 0.000000
O O5 0.363023 0.339619 0.389149
O O6 0.408092 0.328660 0.199209
O O7 0.349392 0.192105 0.260922
O O8 0.207894 0.098327 0.500000
O O9 0.130747 0.000000 0.500000
O O10 0.000000 0.875201 0.156069
O O11 0.934056 0.000000 0.157612
O O12 0.936996 0.880440 0.000000
O O13 0.750000 0.750000 0.500000
O O14 0.790158 0.614196 0.607917
O O15 0.657309 0.000000 0.276242
#
# Coordination Sequence:
#
# PCOD9493336 Si02
#       6
#    16  16   8  16   8  16
#     4   9  18  31  45  65  96 132 169 209 250 292
#     4  11  20  34  52  74 103 135 171 211 255 305
#     4  12  22  31  49  76 103 135 174 213 254 300
#     4   9  19  37  60  82 101 126 165 213 267 324
#     4  12  18  35  49  68 104 146 184 217 246 287
#     4  11  21  32  48  71 104 143 178 210 246 295
#
# _framework density 16.356821
#
# number of rings (size 3 to 8) (size 9 to 14) (size 15 to 20)
#    0.000    1.600    4.000    3.300    0.000    2.000 
#    0.000    0.500    0.000    2.400    0.000    1.400 
#    0.000    3.200    0.000    0.000    0.000    0.000 
#
# Total GULP energy -223146.555322 kJ/mol
# GULP energy per Si atom -5578.663883 kJ/mol
# Density = 1.631959 g / cm^3
# Si number density = 16.356821 Si / 1000 Ang^3
#
#
#
# Elastic Constant Matrix: (Units=GPa)
#
#
# Indices 1 2 3 4 5 6 
#
# 1 72.7301 52.4817 38.9695 0.0000 0.0000 0.0000
# 2 52.4817 142.9426 47.5254 0.0000 0.0000 0.0000
# 3 38.9695 47.5254 104.9733 0.0000 0.0000 0.0000
# 4 0.0000 0.0000 0.0000 24.6761 0.0000 0.0000
# 5 0.0000 0.0000 0.0000 0.0000 22.3277 0.0000
# 6 0.0000 0.0000 0.0000 0.0000 0.0000 20.4167
#
#
#
# Elastic Compliance Matrix: (Units=1/GPa)
#
#
# Indices 1 2 3 4 5 6 
#
# 1 0.020718 -0.005944 -0.005000 0.000000 0.000000 0.000000
# 2 -0.005944 0.009941 -0.002294 0.000000 0.000000 0.000000
# 3 -0.005000 -0.002294 0.012421 0.000000 0.000000 0.000000
# 4 0.000000 0.000000 0.000000 0.040525 0.000000 0.000000
# 5 0.000000 0.000000 0.000000 0.000000 0.044787 0.000000
# 6 0.000000 0.000000 0.000000 0.000000 0.000000 0.048980
#
#
# Mechanical properties :
#
#
# Convention : Reuss Voigt Hill
#
# Bulk Modulus (GPa) = 60.22850 66.51103 63.36976
# Shear Modulus (GPa) = 23.87976 25.59540 24.73758
#
# Velocity S-wave (km/s) = 3.82504 3.96007 3.89314
# Velocity P-wave (km/s) = 7.51063 7.85241 7.68342
#
# Compressibility (1/GPa) = 0.01660344
#
# Stress axis : x y z
#
# Youngs Moduli (GPa) = 48.26767 100.59417 80.50921
#
# Poissons Ratio (x) = 0.59795 0.40254
# Poissons Ratio (y) = 0.28691 0.18468
# Poissons Ratio (z) = 0.24134 0.23076
#
# Static dielectric constant tensor:
#      x y z
#    x 1.508380 0.000000 0.000000 
#    y 0.000000 1.617100 0.000000 
#    z 0.000000 0.000000 1.564620 
# 
# From -- ./inp_files/30422.got.cif
#   From: 2010.05.17/outbox.cif.g08.bks.cpg/sg65_16_cif.got.tgz:30422.got - 2010.06.03 17:01:31.
