data_PCOD9493187
_publ_section_title
;
Structure prediction by ZEFSAII (Michael W. Deem and Ramdas Pophale) SiO2 
 PCOD9493187
Probable space group: C M M M
;
_chemical_formula_sum "Si O2"
_cell_formula_units_Z 96
_cell_length_a 26.883239
_cell_length_b 21.221482
_cell_length_c 8.631643
_cell_angle_alpha 90.000000
_cell_angle_beta 90.000000
_cell_angle_gamma 90.000000
_cell_volume 4924.371084
_symmetry_space_group_name_H-M "C M M M"
_symmetry_group_IT_number 65
_symmetry_cell_setting 'orthorhombic'
loop_
_space_group_symop_operation_xyz
x,y,z
-x,-y,z
x,-y,-z
-x,y,-z
-x,-y,-z
x,y,-z
-x,y,z
x,-y,z
1/2+x,1/2+y,z
1/2-x,1/2-y,z
1/2+x,1/2-y,-z
1/2-x,1/2+y,-z
1/2-x,1/2-y,-z
1/2+x,1/2+y,-z
1/2-x,1/2+y,z
1/2+x,1/2-y,z
loop_
_atom_site_type_symbol
_atom_site_label
_atom_site_fract_x
_atom_site_fract_y
_atom_site_fract_z
Si Si1 0.223872 0.093116 0.678428
Si Si2 0.943784 0.814591 0.686375
Si Si3 0.883205 0.693877 0.685703
Si Si4 0.381387 0.432221 0.184170
Si Si5 0.301662 0.716650 0.828941
Si Si6 0.165044 0.572833 0.815078
O O1 0.223811 0.073728 0.500000
O O2 0.176911 0.065359 0.770351
O O3 0.209424 0.165894 0.698040
O O4 0.278825 0.082773 0.748489
O O5 0.941856 0.819325 0.500000
O O6 0.928734 0.741825 0.723072
O O7 0.906900 0.868811 0.749701
O O8 0.000000 0.827053 0.739711
O O9 0.878135 0.692679 0.500000
O O10 0.839466 0.732256 0.768111
O O11 0.874386 0.622813 0.745762
O O12 0.403180 0.500000 0.240095
O O13 0.386671 0.430431 0.000000
O O14 0.250000 0.750000 0.851200
O O15 0.316892 0.690736 0.000000
O O16 0.151437 0.500000 0.783633
O O17 0.167722 0.582272 0.000000
#
# Coordination Sequence:
#
# PCOD9493187 Si02
#       6
#    16  16  16  16  16  16
#     4  12  23  35  56  85 119 159 202 241 281 336
#     4  10  23  43  65  89 116 148 191 246 305 359
#     4  11  22  37  61  88 115 150 195 245 295 353
#     4  11  24  40  59  85 120 161 201 243 291 345
#     4  11  21  33  54  82 116 156 194 235 285 342
#     4  11  24  40  58  84 121 162 199 238 290 351
#
# _framework density 19.494875
#
# number of rings (size 3 to 8) (size 9 to 14) (size 15 to 20)
#    0.000    1.000    3.333    4.000    0.000    6.667 
#    0.000    1.667    0.000    0.500    0.000    3.500 
#    0.000    0.000    0.000    0.000    0.000    0.000 
#
# Total GULP energy -267563.436603 kJ/mol
# GULP energy per Si atom -5574.238263 kJ/mol
# Density = 1.945050 g / cm^3
# Si number density = 19.494875 Si / 1000 Ang^3
#
#
#
# Elastic Constant Matrix: (Units=GPa)
#
#
# Indices 1 2 3 4 5 6 
#
# 1 63.3591 35.2935 14.1092 0.0000 0.0000 0.0000
# 2 35.2935 134.6814 35.3274 0.0000 0.0000 0.0000
# 3 14.1092 35.3274 67.5851 0.0000 0.0000 0.0000
# 4 0.0000 0.0000 0.0000 53.2773 0.0000 0.0000
# 5 0.0000 0.0000 0.0000 0.0000 -53.7314 0.0000
# 6 0.0000 0.0000 0.0000 0.0000 0.0000 5.2962
#
#
#
# Elastic Compliance Matrix: (Units=1/GPa)
#
#
# Indices 1 2 3 4 5 6 
#
# 1 0.018620 -0.004473 -0.001549 0.000000 0.000000 0.000000
# 2 -0.004473 0.009679 -0.004126 0.000000 0.000000 0.000000
# 3 -0.001549 -0.004126 0.017276 0.000000 0.000000 0.000000
# 4 0.000000 0.000000 0.000000 0.018770 0.000000 0.000000
# 5 0.000000 0.000000 0.000000 0.000000 -0.018611 0.000000
# 6 0.000000 0.000000 0.000000 0.000000 0.000000 0.188815
#
#
# Mechanical properties :
#
#
# Convention : Reuss Voigt Hill
#
# Bulk Modulus (GPa) = 39.55749 48.34286 43.95018
# Shear Modulus (GPa) = 18.99186 13.02811 16.00998
#
# Velocity S-wave (km/s) = 3.12460 2.58792 2.86884
# Velocity P-wave (km/s) = 5.77519 5.81217 5.79371
#
# Compressibility (1/GPa) = 0.02527966
#
# Stress axis : x y z
#
# Youngs Moduli (GPa) = 53.70675 103.31368 57.88363
#
# Poissons Ratio (x) = 0.46212 0.08966
# Poissons Ratio (y) = 0.24023 0.23881
# Poissons Ratio (z) = 0.08319 0.42624
#
# Static dielectric constant tensor:
#      x y z
#    x 1.676940 0.000000 0.000000 
#    y 0.000000 1.763490 0.000000 
#    z 0.000000 0.000000 1.681640 
# 
# From -- ./inp_files/16341.got.cif
#   From: 2010.05.17/outbox.cif.g08.bks.cpg/sg65_9_cif.got.tgz:16341.got - 2010.06.03 17:01:31.
