data_PCOD9493484
_publ_section_title
;
Structure prediction by ZEFSAII (Michael W. Deem and Ramdas Pophale) SiO2 
 PCOD9493484
Probable space group: C M M M
;
_chemical_formula_sum "Si O2"
_cell_formula_units_Z 96
_cell_length_a 8.859140
_cell_length_b 29.398447
_cell_length_c 20.911836
_cell_angle_alpha 90.000000
_cell_angle_beta 90.000000
_cell_angle_gamma 90.000000
_cell_volume 5446.382244
_symmetry_space_group_name_H-M "C M M M"
_symmetry_group_IT_number 65
_symmetry_cell_setting 'orthorhombic'
loop_
_space_group_symop_operation_xyz
x,y,z
-x,-y,z
x,-y,-z
-x,y,-z
-x,-y,-z
x,y,-z
-x,y,z
x,-y,z
1/2+x,1/2+y,z
1/2-x,1/2-y,z
1/2+x,1/2-y,-z
1/2-x,1/2+y,-z
1/2-x,1/2-y,-z
1/2+x,1/2+y,-z
1/2-x,1/2+y,z
1/2+x,1/2-y,z
loop_
_atom_site_type_symbol
_atom_site_label
_atom_site_fract_x
_atom_site_fract_y
_atom_site_fract_z
Si Si1 0.680086 0.800221 0.688659
Si Si2 0.678650 0.355233 0.427632
Si Si3 0.820851 0.551323 0.237056
Si Si4 0.320814 0.948476 0.390717
Si Si5 0.681737 0.700669 0.927316
Si Si6 0.319593 0.357081 0.805417
O O1 0.500000 0.797879 0.691323
O O2 0.750000 0.750000 0.689491
O O3 0.732123 0.826522 0.624924
O O4 0.741693 0.828476 0.749015
O O5 0.708744 0.339515 0.500000
O O6 0.500000 0.351538 0.415067
O O7 0.729080 0.407751 0.421769
O O8 0.776673 0.500000 0.218672
O O9 0.800381 0.555201 0.313874
O O10 0.731080 0.591011 0.202643
O O11 0.000000 0.556649 0.225468
O O12 0.500000 0.942961 0.403690
O O13 0.278330 0.000000 0.409796
O O14 0.500000 0.704391 0.926469
O O15 0.750000 0.750000 0.911859
O O16 0.725229 0.664521 0.873432
O O17 0.728015 0.688776 0.000000
O O18 0.500000 0.353422 0.798479
#
# Coordination Sequence:
#
# PCOD9493484 Si02
#       6
#    16  16  16  16  16  16
#     4  12  25  41  60  81 108 141 181 227 274 326
#     4  11  24  40  57  80 110 142 180 226 276 329
#     4   9  18  33  54  81 112 145 181 224 273 323
#     4   9  18  34  56  81 109 143 181 222 272 327
#     4   9  19  35  54  80 115 151 185 222 266 320
#     4  11  21  34  57  87 115 144 182 226 273 322
#
# _framework density 17.626379
#
# number of rings (size 3 to 8) (size 9 to 14) (size 15 to 20)
#    0.000    1.833    1.667    4.000    0.000    5.333 
#    0.000    3.333    0.000    0.500    0.000    3.500 
#    0.000    0.000    0.000    0.000    0.000    0.000 
#
# Total GULP energy -268107.077529 kJ/mol
# GULP energy per Si atom -5585.564115 kJ/mol
# Density = 1.758626 g / cm^3
# Si number density = 17.626379 Si / 1000 Ang^3
#
#
#
# Elastic Constant Matrix: (Units=GPa)
#
#
# Indices 1 2 3 4 5 6 
#
# 1 72.1065 56.2309 55.8584 0.0000 0.0000 0.0000
# 2 56.2309 124.2247 67.1527 0.0000 0.0000 0.0000
# 3 55.8584 67.1527 93.7127 0.0000 0.0000 0.0000
# 4 0.0000 0.0000 0.0000 67.4277 0.0000 0.0000
# 5 0.0000 0.0000 0.0000 0.0000 8.4022 0.0000
# 6 0.0000 0.0000 0.0000 0.0000 0.0000 35.9156
#
#
#
# Elastic Compliance Matrix: (Units=1/GPa)
#
#
# Indices 1 2 3 4 5 6 
#
# 1 0.028279 -0.006021 -0.012542 0.000000 0.000000 0.000000
# 2 -0.006021 0.014422 -0.006745 0.000000 0.000000 0.000000
# 3 -0.012542 -0.006745 0.022980 0.000000 0.000000 0.000000
# 4 0.000000 0.000000 0.000000 0.014831 0.000000 0.000000
# 5 0.000000 0.000000 0.000000 0.000000 0.119017 0.000000
# 6 0.000000 0.000000 0.000000 0.000000 0.000000 0.027843
#
#
# Mechanical properties :
#
#
# Convention : Reuss Voigt Hill
#
# Bulk Modulus (GPa) = 66.37910 72.05868 69.21889
# Shear Modulus (GPa) = 17.66724 29.73588 23.70156
#
# Velocity S-wave (km/s) = 3.16938 4.11178 3.67094
# Velocity P-wave (km/s) = 7.15080 7.96945 7.57120
#
# Compressibility (1/GPa) = 0.01506498
#
# Stress axis : x y z
#
# Youngs Moduli (GPa) = 35.36147 69.33917 43.51592
#
# Poissons Ratio (x) = 0.41750 0.54576
# Poissons Ratio (y) = 0.21292 0.29353
# Poissons Ratio (z) = 0.44349 0.46772
#
# Static dielectric constant tensor:
#      x y z
#    x 1.587800 0.000000 0.000000 
#    y 0.000000 1.587530 0.000000 
#    z 0.000000 0.000000 1.598780 
# 
# From -- ./inp_files/60195.got.cif
#   From: 2010.05.17/outbox.cif.g08.bks.cpg/sg65_31_cif.got.tgz:60195.got - 2010.06.03 17:01:31.
