data_PCOD9493196
_publ_section_title
;
Structure prediction by ZEFSAII (Michael W. Deem and Ramdas Pophale) SiO2 
 PCOD9493196
Probable space group: C M M M
;
_chemical_formula_sum "Si O2"
_cell_formula_units_Z 52
_cell_length_a 14.620895
_cell_length_b 19.335064
_cell_length_c 7.379236
_cell_angle_alpha 90.000000
_cell_angle_beta 90.000000
_cell_angle_gamma 90.000000
_cell_volume 2086.080062
_symmetry_space_group_name_H-M "C M M M"
_symmetry_group_IT_number 65
_symmetry_cell_setting 'orthorhombic'
loop_
_space_group_symop_operation_xyz
x,y,z
-x,-y,z
x,-y,-z
-x,y,-z
-x,-y,-z
x,y,-z
-x,y,z
x,-y,z
1/2+x,1/2+y,z
1/2-x,1/2-y,z
1/2+x,1/2-y,-z
1/2-x,1/2+y,-z
1/2-x,1/2-y,-z
1/2+x,1/2+y,-z
1/2-x,1/2+y,z
1/2+x,1/2-y,z
loop_
_atom_site_type_symbol
_atom_site_label
_atom_site_fract_x
_atom_site_fract_y
_atom_site_fract_z
Si Si1 0.145902 0.725001 0.283945
Si Si2 0.500000 0.724309 0.000000
Si Si3 0.805207 0.421946 0.290404
Si Si4 0.401591 0.417041 0.784130
O O1 0.125360 0.729024 0.500000
O O2 0.250000 0.750000 0.260669
O O3 0.140181 0.644313 0.220437
O O4 0.079514 0.768330 0.158997
O O5 0.830954 0.427818 0.500000
O O6 0.813396 0.500000 0.211211
O O7 0.698347 0.398944 0.286028
O O8 0.500000 0.394228 0.708315
O O9 0.402133 0.500000 0.761623
O O10 0.404640 0.403522 0.000000
#
# Coordination Sequence:
#
# PCOD9493196 Si02
#       4
#    16   4  16  16
#     4  10  23  45  68  95 132 170 213 269 327 383
#     4  12  24  44  73  98 125 168 226 270 320 390
#     4   9  18  34  57  85 121 164 206 255 315 377
#     4   8  14  25  42  70 110 152 194 243 299 362
#
# _framework density 24.927135
#
# number of rings (size 3 to 8) (size 9 to 14) (size 15 to 20)
#    0.000    2.769    0.000    1.846    2.154    0.615 
#    2.769    4.615    0.000    3.692    0.000    0.000 
#    0.000    0.000    0.000    0.000    0.000    0.000 
#
# Total GULP energy -144736.573845 kJ/mol
# GULP energy per Si atom -5566.791302 kJ/mol
# Density = 2.487040 g / cm^3
# Si number density = 24.927135 Si / 1000 Ang^3
#
#
#
# Elastic Constant Matrix: (Units=GPa)
#
#
# Indices 1 2 3 4 5 6 
#
# 1 58.0777 18.4029 36.6950 0.0000 0.0000 0.0000
# 2 18.4029 143.2110 10.2741 0.0000 0.0000 0.0000
# 3 36.6950 10.2741 116.8437 0.0000 0.0000 0.0000
# 4 0.0000 0.0000 0.0000 16.0607 0.0000 0.0000
# 5 0.0000 0.0000 0.0000 0.0000 3.0568 0.0000
# 6 0.0000 0.0000 0.0000 0.0000 0.0000 13.7369
#
#
#
# Elastic Compliance Matrix: (Units=1/GPa)
#
#
# Indices 1 2 3 4 5 6 
#
# 1 0.022254 -0.002373 -0.006780 0.000000 0.000000 0.000000
# 2 -0.002373 0.007280 0.000105 0.000000 0.000000 0.000000
# 3 -0.006780 0.000105 0.010679 0.000000 0.000000 0.000000
# 4 0.000000 0.000000 0.000000 0.062264 0.000000 0.000000
# 5 0.000000 0.000000 0.000000 0.000000 0.327138 0.000000
# 6 0.000000 0.000000 0.000000 0.000000 0.000000 0.072796
#
#
# Mechanical properties :
#
#
# Convention : Reuss Voigt Hill
#
# Bulk Modulus (GPa) = 45.21582 49.87516 47.54549
# Shear Modulus (GPa) = 9.47184 23.42158 16.44671
#
# Velocity S-wave (km/s) = 1.95142 3.06862 2.57143
# Velocity P-wave (km/s) = 4.82245 5.71026 5.28503
#
# Compressibility (1/GPa) = 0.02211615
#
# Stress axis : x y z
#
# Youngs Moduli (GPa) = 44.93513 137.36020 93.64556
#
# Poissons Ratio (x) = 0.32600 0.63495
# Poissons Ratio (y) = 0.10664 -0.00985
# Poissons Ratio (z) = 0.30467 -0.01445
#
# Static dielectric constant tensor:
#      x y z
#    x 1.975250 0.000000 0.000000 
#    y 0.000000 2.163580 0.000000 
#    z 0.000000 0.000000 1.939200 
# 
# From -- ./inp_files/6067.got.cif
#   From: 2010.05.17/outbox.cif.g08.bks.cpg/sg65_4_cif.got.tgz:6067.got - 2010.06.03 17:01:31.
