data_PCOD9493305
_publ_section_title
;
Structure prediction by ZEFSAII (Michael W. Deem and Ramdas Pophale) SiO2 
 PCOD9493305
Probable space group: C M M M
;
_chemical_formula_sum "Si O2"
_cell_formula_units_Z 116
_cell_length_a 25.099138
_cell_length_b 13.944958
_cell_length_c 14.453224
_cell_angle_alpha 90.000000
_cell_angle_beta 90.000000
_cell_angle_gamma 90.000000
_cell_volume 5058.721266
_symmetry_space_group_name_H-M "C M M M"
_symmetry_group_IT_number 65
_symmetry_cell_setting 'orthorhombic'
loop_
_space_group_symop_operation_xyz
x,y,z
-x,-y,z
x,-y,-z
-x,y,-z
-x,-y,-z
x,y,-z
-x,y,z
x,-y,z
1/2+x,1/2+y,z
1/2-x,1/2-y,z
1/2+x,1/2-y,-z
1/2-x,1/2+y,-z
1/2-x,1/2-y,-z
1/2+x,1/2+y,-z
1/2-x,1/2+y,z
1/2+x,1/2-y,z
loop_
_atom_site_type_symbol
_atom_site_label
_atom_site_fract_x
_atom_site_fract_y
_atom_site_fract_z
Si Si1 0.159956 0.768455 0.888128
Si Si2 0.785103 0.393331 0.612531
Si Si3 0.244795 0.606167 0.887237
Si Si4 0.062425 0.601777 0.632495
Si Si5 0.671179 0.688865 0.613240
Si Si6 0.416595 0.000000 0.000000
Si Si7 0.937443 0.658950 0.842348
Si Si8 0.440190 0.322017 0.395815
O O1 0.198016 0.678790 0.861700
O O2 0.196753 0.857420 0.859308
O O3 0.101792 0.749511 0.848566
O O4 0.155598 0.770608 0.000000
O O5 0.788232 0.393356 0.500000
O O6 0.799410 0.500000 0.644846
O O7 0.724039 0.369731 0.638031
O O8 0.818293 0.299701 0.643175
O O9 0.233170 0.500000 0.855446
O O10 0.244582 0.606670 0.000000
O O11 0.087043 0.500000 0.601399
O O12 0.068516 0.611427 0.742355
O O13 0.073258 0.708114 0.596186
O O14 0.000000 0.593647 0.612113
O O15 0.669531 0.688506 0.500000
O O16 0.615464 0.643911 0.647415
O O17 0.419929 0.916288 0.920020
O O18 0.000000 0.681346 0.855741
O O19 0.443783 0.361409 0.500000
O O20 0.500000 0.331446 0.354068
#
# Coordination Sequence:
#
# PCOD9493305 Si02
#       8
#    16  16  16  16  16   4  16  16
#     4   9  17  26  42  68  91 120 158 188 224 272
#     4   8  13  22  38  60  86 114 142 180 226 264
#     4   8  15  27  42  62  90 122 157 196 228 259
#     4   9  18  30  41  59  90 123 153 184 220 268
#     4   8  14  24  39  62  87 110 144 184 218 262
#     4  12  21  28  44  70  96 130 152 174 229 278
#     4  11  20  29  43  67  97 122 149 185 229 276
#     4   9  17  29  45  63  85 117 151 183 222 265
#
# _framework density 22.930695
#
# number of rings (size 3 to 8) (size 9 to 14) (size 15 to 20)
#    0.000    3.034    1.379    2.276    0.966    0.828 
#    0.000    2.759    0.000    4.138    0.000    7.724 
#    0.000    3.310    0.000    0.138    0.000    0.000 
#
# Total GULP energy -322987.510322 kJ/mol
# GULP energy per Si atom -5568.750178 kJ/mol
# Density = 2.287850 g / cm^3
# Si number density = 22.930695 Si / 1000 Ang^3
#
#
#
# Elastic Constant Matrix: (Units=GPa)
#
#
# Indices 1 2 3 4 5 6 
#
# 1 144.6389 -6.6649 -2.3286 0.0000 0.0000 0.0000
# 2 -6.6649 28.1900 -3.0762 0.0000 0.0000 0.0000
# 3 -2.3286 -3.0762 93.2895 0.0000 0.0000 0.0000
# 4 0.0000 0.0000 0.0000 6.1108 0.0000 0.0000
# 5 0.0000 0.0000 0.0000 0.0000 28.1812 0.0000
# 6 0.0000 0.0000 0.0000 0.0000 0.0000 -6.3898
#
#
#
# Elastic Compliance Matrix: (Units=1/GPa)
#
#
# Indices 1 2 3 4 5 6 
#
# 1 0.006995 0.001679 0.000230 0.000000 0.000000 0.000000
# 2 0.001679 0.036005 0.001229 0.000000 0.000000 0.000000
# 3 0.000230 0.001229 0.010766 0.000000 0.000000 0.000000
# 4 0.000000 0.000000 0.000000 0.163644 0.000000 0.000000
# 5 0.000000 0.000000 0.000000 0.000000 0.035485 0.000000
# 6 0.000000 0.000000 0.000000 0.000000 0.000000 -0.156499
#
#
# Mechanical properties :
#
#
# Convention : Reuss Voigt Hill
#
# Bulk Modulus (GPa) = 16.65528 26.88656 21.77092
# Shear Modulus (GPa) = 45.39988 24.12632 34.76310
#
# Velocity S-wave (km/s) = 4.45440 3.24719 3.89782
# Velocity P-wave (km/s) = 5.80816 5.08031 5.45639
#
# Compressibility (1/GPa) = 0.06004103
#
# Stress axis : x y z
#
# Youngs Moduli (GPa) = 142.96271 27.77420 92.88853
#
# Poissons Ratio (x) = -0.04663 -0.02136
# Poissons Ratio (y) = -0.24002 -0.11417
# Poissons Ratio (z) = -0.03288 -0.03414
#
# Static dielectric constant tensor:
#      x y z
#    x 1.894370 0.000000 0.000000 
#    y 0.000000 1.852400 0.000000 
#    z 0.000000 0.000000 1.874920 
# 
# From -- ./inp_files/57726.got.cif
#   From: 2010.05.17/outbox.cif.g08.bks.cpg/sg65_29_cif.got.tgz:57726.got - 2010.06.03 17:01:31.
