data_PCOD9493880
_publ_section_title
;
Structure prediction by ZEFSAII (Michael W. Deem and Ramdas Pophale) SiO2 
 PCOD9493880
Probable space group: C M M M
;
_chemical_formula_sum "Si O2"
_cell_formula_units_Z 72
_cell_length_a 7.631402
_cell_length_b 32.934274
_cell_length_c 14.131662
_cell_angle_alpha 90.000000
_cell_angle_beta 90.000000
_cell_angle_gamma 90.000000
_cell_volume 3551.776810
_symmetry_space_group_name_H-M "C M M M"
_symmetry_group_IT_number 65
_symmetry_cell_setting 'orthorhombic'
loop_
_space_group_symop_operation_xyz
x,y,z
-x,-y,z
x,-y,-z
-x,y,-z
-x,-y,-z
x,y,-z
-x,y,z
x,-y,z
1/2+x,1/2+y,z
1/2-x,1/2-y,z
1/2+x,1/2-y,-z
1/2-x,1/2+y,-z
1/2-x,1/2-y,-z
1/2+x,1/2+y,-z
1/2-x,1/2+y,z
1/2+x,1/2-y,z
loop_
_atom_site_type_symbol
_atom_site_label
_atom_site_fract_x
_atom_site_fract_y
_atom_site_fract_z
Si Si1 0.714525 0.377953 0.105142
Si Si2 0.214261 0.168068 0.605333
Si Si3 0.209124 0.085131 0.298846
Si Si4 0.292497 0.000000 0.606158
Si Si5 0.290711 0.295229 0.199970
O O1 0.500000 0.378696 0.103609
O O2 0.773033 0.406263 0.192131
O O3 0.769731 0.332216 0.133956
O O4 0.774338 0.388751 0.000000
O O5 0.274606 0.178848 0.500000
O O6 0.269451 0.122208 0.634043
O O7 0.273056 0.196217 0.692609
O O8 0.000000 0.168943 0.603722
O O9 0.000000 0.089592 0.295226
O O10 0.245611 0.041029 0.339212
O O11 0.500000 0.000000 0.597701
O O12 0.215427 0.000000 0.500000
O O13 0.500000 0.298941 0.203194
O O14 0.250000 0.250000 0.168012
#
# Coordination Sequence:
#
# PCOD9493880 Si02
#       5
#    16  16  16   8  16
#     4   8  15  30  51  72  94 121 155 197 241 277
#     4   8  14  26  44  64  87 117 154 195 234 270
#     4   9  17  31  53  75  91 117 161 202 229 265
#     4  11  23  35  48  71 104 132 147 175 232 287
#     4   9  17  28  43  65  92 121 153 191 234 277
#
# _framework density 20.271543000000001
#
# number of rings (size 3 to 8) (size 9 to 14) (size 15 to 20)
#    0.000    3.222    0.000    3.667    0.000    2.667 
#    0.000    5.000    0.000    6.667    0.000    0.000 
#    0.000    0.000    0.000    0.000    0.000    0.000 
#
# Total GULP energy -200696.623241 kJ/mol
# GULP energy per Si atom -5574.906201 kJ/mol
# Density = 2.022540 g / cm^3
# Si number density = 20.271543 Si / 1000 Ang^3
#
#
#
# Elastic Constant Matrix: (Units=GPa)
#
#
# Indices 1 2 3 4 5 6 
#
# 1 33.1695 -7.1433 5.0538 0.0000 0.0000 0.0000
# 2 -7.1433 95.7138 31.2243 0.0000 0.0000 0.0000
# 3 5.0538 31.2243 128.1877 0.0000 0.0000 0.0000
# 4 0.0000 0.0000 0.0000 10.5811 0.0000 0.0000
# 5 0.0000 0.0000 0.0000 0.0000 -23.1842 0.0000
# 6 0.0000 0.0000 0.0000 0.0000 0.0000 10.1970
#
#
#
# Elastic Compliance Matrix: (Units=1/GPa)
#
#
# Indices 1 2 3 4 5 6 
#
# 1 0.031081 0.002954 -0.001945 0.000000 0.000000 0.000000
# 2 0.002954 0.011630 -0.002949 0.000000 0.000000 0.000000
# 3 -0.001945 -0.002949 0.008596 0.000000 0.000000 0.000000
# 4 0.000000 0.000000 0.000000 0.094508 0.000000 0.000000
# 5 0.000000 0.000000 0.000000 0.000000 -0.043133 0.000000
# 6 0.000000 0.000000 0.000000 0.000000 0.000000 0.098068
#
#
# Mechanical properties :
#
#
# Convention : Reuss Voigt Hill
#
# Bulk Modulus (GPa) = 21.08513 35.03784 28.06148
# Shear Modulus (GPa) = 22.68186 14.71453 18.69819
#
# Velocity S-wave (km/s) = 3.34863 2.69712 3.04038
# Velocity P-wave (km/s) = 5.03736 5.19818 5.11840
#
# Compressibility (1/GPa) = 0.04742680
#
# Stress axis : x y z
#
# Youngs Moduli (GPa) = 32.17430 85.98115 116.33093
#
# Poissons Ratio (x) = -0.25399 0.22625
# Poissons Ratio (y) = -0.09505 0.34311
# Poissons Ratio (z) = 0.06258 0.25360
#
# Static dielectric constant tensor:
#      x y z
#    x 1.763690 0.000000 0.000000 
#    y 0.000000 1.743710 0.000000 
#    z 0.000000 0.000000 1.737290 
# 
# From -- ./inp_files/36933.got.cif
#   From: 2010.05.17/outbox.cif.g08.bks.cpg/sg65_19_cif.got.tgz:36933.got - 2010.06.03 17:01:31.
