data_PCOD9493259
_publ_section_title
;
Structure prediction by ZEFSAII (Michael W. Deem and Ramdas Pophale) SiO2 
 PCOD9493259
Probable space group: C M M M
;
_chemical_formula_sum "Si O2"
_cell_formula_units_Z 72
_cell_length_a 14.561606
_cell_length_b 24.956814
_cell_length_c 12.121956
_cell_angle_alpha 90.000000
_cell_angle_beta 90.000000
_cell_angle_gamma 90.000000
_cell_volume 4405.255697
_symmetry_space_group_name_H-M "C M M M"
_symmetry_group_IT_number 65
_symmetry_cell_setting 'orthorhombic'
loop_
_space_group_symop_operation_xyz
x,y,z
-x,-y,z
x,-y,-z
-x,y,-z
-x,-y,-z
x,y,-z
-x,y,z
x,-y,z
1/2+x,1/2+y,z
1/2-x,1/2-y,z
1/2+x,1/2-y,-z
1/2-x,1/2+y,-z
1/2-x,1/2-y,-z
1/2+x,1/2+y,-z
1/2-x,1/2+y,z
1/2+x,1/2-y,z
loop_
_atom_site_type_symbol
_atom_site_label
_atom_site_fract_x
_atom_site_fract_y
_atom_site_fract_z
Si Si1 0.500000 0.146841 0.871352
Si Si2 0.330593 0.886873 0.724286
Si Si3 0.105035 0.793262 0.500000
Si Si4 0.500000 0.724495 0.130056
Si Si5 0.396204 0.165111 0.500000
Si Si6 0.388528 0.000000 0.633576
Si Si7 0.314770 0.303291 0.259829
O O1 0.588731 0.124242 0.810390
O O2 0.500000 0.211050 0.858239
O O3 0.500000 0.133865 0.000000
O O4 0.351125 0.854610 0.611600
O O5 0.239993 0.857524 0.769963
O O6 0.339810 0.948183 0.686632
O O7 0.101625 0.728822 0.500000
O O8 0.155727 0.808328 0.612214
O O9 0.000000 0.813178 0.500000
O O10 0.592499 0.704362 0.189616
O O11 0.500000 0.711564 0.000000
O O12 0.500000 0.143224 0.500000
O O13 0.500000 0.000000 0.654805
O O14 0.378322 0.000000 0.500000
O O15 0.250000 0.250000 0.246648
#
# Coordination Sequence:
#
# PCOD9493259 Si02
#       7
#     8  16   8   8   8   8  16
#     4  11  22  36  56  85 119 154 193 238 281 333
#     4  12  22  36  56  84 118 153 192 231 286 344
#     4  11  20  32  52  83 120 151 181 223 298 358
#     4  11  24  41  58  85 120 157 197 235 284 344
#     4  11  17  28  54  80 117 147 180 232 275 350
#     4  11  22  36  58  87 118 153 191 234 285 346
#     4  12  22  35  57  86 118 152 187 235 291 348
#
# _framework density 16.344114000000001
#
# number of rings (size 3 to 8) (size 9 to 14) (size 15 to 20)
#    0.000    0.556    8.889    1.000    0.000    1.333 
#    0.000    1.111    0.000    0.667    0.000    2.333 
#    0.000    0.000    0.000    0.000    0.000    0.000 
#
# Total GULP energy -200974.289152 kJ/mol
# GULP energy per Si atom -5582.619143 kJ/mol
# Density = 1.630691 g / cm^3
# Si number density = 16.344114 Si / 1000 Ang^3
#
#
#
# Elastic Constant Matrix: (Units=GPa)
#
#
# Indices 1 2 3 4 5 6 
#
# 1 134.4088 59.7497 59.3868 0.0000 0.0000 0.0000
# 2 59.7497 93.1786 44.2405 0.0000 0.0000 0.0000
# 3 59.3868 44.2405 109.7297 0.0000 0.0000 0.0000
# 4 0.0000 0.0000 0.0000 -10.1994 0.0000 0.0000
# 5 0.0000 0.0000 0.0000 0.0000 -47.5017 0.0000
# 6 0.0000 0.0000 0.0000 0.0000 0.0000 19.7931
#
#
#
# Elastic Compliance Matrix: (Units=1/GPa)
#
#
# Indices 1 2 3 4 5 6 
#
# 1 0.011730 -0.005575 -0.004101 0.000000 0.000000 0.000000
# 2 -0.005575 0.015922 -0.003402 0.000000 0.000000 0.000000
# 3 -0.004101 -0.003402 0.012704 0.000000 0.000000 0.000000
# 4 0.000000 0.000000 0.000000 -0.098045 0.000000 0.000000
# 5 0.000000 0.000000 0.000000 0.000000 -0.021052 0.000000
# 6 0.000000 0.000000 0.000000 0.000000 0.000000 0.050523
#
#
# Mechanical properties :
#
#
# Convention : Reuss Voigt Hill
#
# Bulk Modulus (GPa) = 70.41807 73.78567 72.10187
# Shear Modulus (GPa) = 1871.41056 4.01440 937.71248
#
# Velocity S-wave (km/s) = 33.87464 1.56892 23.97867
# Velocity P-wave (km/s) = 39.66317 6.96600 28.47536
#
# Compressibility (1/GPa) = 0.01420090
#
# Stress axis : x y z
#
# Youngs Moduli (GPa) = 85.25119 62.80532 78.71245
#
# Poissons Ratio (x) = 0.35012 0.32279
# Poissons Ratio (y) = 0.47525 0.26781
# Poissons Ratio (z) = 0.34960 0.21369
#
# Static dielectric constant tensor:
#      x y z
#    x 1.600560 0.000000 0.000000 
#    y 0.000000 1.549470 0.000000 
#    z 0.000000 0.000000 1.537620 
# 
# From -- ./inp_files/24562.got.cif
#   From: 2010.05.17/outbox.cif.g08.bks.cpg/sg65_13_cif.got.tgz:24562.got - 2010.06.03 17:01:31.
