data_PCOD9493328
_publ_section_title
;
Structure prediction by ZEFSAII (Michael W. Deem and Ramdas Pophale) SiO2 
 PCOD9493328
Probable space group: C M M M
;
_chemical_formula_sum "Si O2"
_cell_formula_units_Z 112
_cell_length_a 26.036333
_cell_length_b 17.298992
_cell_length_c 14.780172
_cell_angle_alpha 90.000000
_cell_angle_beta 90.000000
_cell_angle_gamma 90.000000
_cell_volume 6657.023704
_symmetry_space_group_name_H-M "C M M M"
_symmetry_group_IT_number 65
_symmetry_cell_setting 'orthorhombic'
loop_
_space_group_symop_operation_xyz
x,y,z
-x,-y,z
x,-y,-z
-x,y,-z
-x,-y,-z
x,y,-z
-x,y,z
x,-y,z
1/2+x,1/2+y,z
1/2-x,1/2-y,z
1/2+x,1/2-y,-z
1/2-x,1/2+y,-z
1/2-x,1/2-y,-z
1/2+x,1/2+y,-z
1/2-x,1/2+y,z
1/2+x,1/2-y,z
loop_
_atom_site_type_symbol
_atom_site_label
_atom_site_fract_x
_atom_site_fract_y
_atom_site_fract_z
Si Si1 0.557729 0.911609 0.109626
Si Si2 0.266386 0.840002 0.400815
Si Si3 0.843713 0.311955 0.107310
Si Si4 0.846844 0.845543 0.213168
Si Si5 0.345970 0.409208 0.600443
Si Si6 0.231699 0.591113 0.214368
Si Si7 0.443561 0.592994 0.104288
O O1 0.500000 0.890172 0.139305
O O2 0.602713 0.853079 0.133630
O O3 0.568400 0.000000 0.139252
O O4 0.557104 0.913161 0.000000
O O5 0.292506 0.846826 0.500000
O O6 0.250000 0.750000 0.390742
O O7 0.214775 0.891612 0.406092
O O8 0.289956 0.869265 0.306890
O O9 0.836495 0.237592 0.170150
O O10 0.798244 0.371143 0.130979
O O11 0.844224 0.293351 0.000000
O O12 0.862995 0.853821 0.318337
O O13 0.792559 0.890688 0.206776
O O14 0.894199 0.879784 0.157722
O O15 0.367612 0.394221 0.500000
O O16 0.354034 0.500000 0.622541
O O17 0.224064 0.500000 0.218641
O O18 0.500000 0.618709 0.138613
O O19 0.443780 0.500000 0.104611
O O20 0.439524 0.618937 0.000000
#
# Coordination Sequence:
#
# PCOD9493328 Si02
#       7
#    16  16  16  16  16  16  16
#     4   8  15  31  54  74  92 120 159 199 240 287
#     4   9  16  28  47  70  96 123 153 196 249 298
#     4  11  23  35  47  69 102 133 163 205 249 285
#     4  11  20  33  51  71  97 130 165 200 245 302
#     4   9  17  30  49  71  93 120 158 201 243 292
#     4  11  22  34  49  69  96 132 171 205 241 294
#     4   9  18  32  49  70  96 126 163 205 242 279
#
# _framework density 16.824335000000001
#
# number of rings (size 3 to 8) (size 9 to 14) (size 15 to 20)
#    0.000    2.286    0.000    6.429    0.000    4.000 
#    0.000    1.429    0.000    0.429    0.000    2.000 
#    0.000    1.714    0.000    7.857    0.000    0.571 
#
# Total GULP energy -311789.255011 kJ/mol
# GULP energy per Si atom -5567.665268 kJ/mol
# Density = 1.678604 g / cm^3
# Si number density = 16.824335 Si / 1000 Ang^3
#
#
#
# Elastic Constant Matrix: (Units=GPa)
#
#
# Indices 1 2 3 4 5 6 
#
# 1 54.5600 16.5111 25.8086 0.0000 0.0000 0.0000
# 2 16.5111 83.1359 45.8770 0.0000 0.0000 0.0000
# 3 25.8086 45.8770 88.0562 0.0000 0.0000 0.0000
# 4 0.0000 0.0000 0.0000 23.2088 0.0000 0.0000
# 5 0.0000 0.0000 0.0000 0.0000 3.7124 0.0000
# 6 0.0000 0.0000 0.0000 0.0000 0.0000 8.4844
#
#
#
# Elastic Compliance Matrix: (Units=1/GPa)
#
#
# Indices 1 2 3 4 5 6 
#
# 1 0.021351 -0.001105 -0.005682 0.000000 0.000000 0.000000
# 2 -0.001105 0.016939 -0.008502 0.000000 0.000000 0.000000
# 3 -0.005682 -0.008502 0.017451 0.000000 0.000000 0.000000
# 4 0.000000 0.000000 0.000000 0.043087 0.000000 0.000000
# 5 0.000000 0.000000 0.000000 0.000000 0.269368 0.000000
# 6 0.000000 0.000000 0.000000 0.000000 0.000000 0.117863
#
#
# Mechanical properties :
#
#
# Convention : Reuss Voigt Hill
#
# Bulk Modulus (GPa) = 39.73906 44.68283 42.21094
# Shear Modulus (GPa) = 9.52338 16.25148 12.88743
#
# Velocity S-wave (km/s) = 2.38176 3.11135 2.77067
# Velocity P-wave (km/s) = 5.58882 6.28676 5.94804
#
# Compressibility (1/GPa) = 0.02516416
#
# Stress axis : x y z
#
# Youngs Moduli (GPa) = 46.83712 59.03428 57.30314
#
# Poissons Ratio (x) = 0.06522 0.32560
# Poissons Ratio (y) = 0.05174 0.48717
# Poissons Ratio (z) = 0.26614 0.50188
#
# Static dielectric constant tensor:
#      x y z
#    x 1.568270 0.000000 0.000000 
#    y 0.000000 1.589140 0.000000 
#    z 0.000000 0.000000 1.619450 
# 
# From -- ./inp_files/47060.got.cif
#   From: 2010.05.17/outbox.cif.g08.bks.cpg/sg65_24_cif.got.tgz:47060.got - 2010.06.03 17:01:31.
