data_PCOD9493648
_publ_section_title
;
Structure prediction by ZEFSAII (Michael W. Deem and Ramdas Pophale) SiO2 
 PCOD9493648
Probable space group: C M M M
;
_chemical_formula_sum "Si O2"
_cell_formula_units_Z 72
_cell_length_a 7.895828
_cell_length_b 18.942341
_cell_length_c 24.263165
_cell_angle_alpha 90.000000
_cell_angle_beta 90.000000
_cell_angle_gamma 90.000000
_cell_volume 3628.931591
_symmetry_space_group_name_H-M "C M M M"
_symmetry_group_IT_number 65
_symmetry_cell_setting 'orthorhombic'
loop_
_space_group_symop_operation_xyz
x,y,z
-x,-y,z
x,-y,-z
-x,y,-z
-x,-y,-z
x,y,-z
-x,y,z
x,-y,z
1/2+x,1/2+y,z
1/2-x,1/2-y,z
1/2+x,1/2-y,-z
1/2-x,1/2+y,-z
1/2-x,1/2-y,-z
1/2+x,1/2+y,-z
1/2-x,1/2+y,z
1/2+x,1/2-y,z
loop_
_atom_site_type_symbol
_atom_site_label
_atom_site_fract_x
_atom_site_fract_y
_atom_site_fract_z
Si Si1 0.799469 0.168549 0.332343
Si Si2 0.203842 0.167158 0.000000
Si Si3 0.203788 0.580198 0.561838
Si Si4 0.792152 0.081504 0.773098
Si Si5 0.204448 0.832574 0.120105
O O1 0.750000 0.250000 0.329235
O O2 0.752013 0.133343 0.390246
O O3 0.730672 0.123339 0.280893
O O4 0.000000 0.165172 0.327945
O O5 0.250000 0.250000 0.000000
O O6 0.265670 0.141145 0.940260
O O7 0.000000 0.159800 0.000000
O O8 0.263092 0.599359 0.500000
O O9 0.263352 0.500000 0.573926
O O10 0.000000 0.578069 0.560081
O O11 0.735361 0.121622 0.828367
O O12 0.000000 0.082298 0.773125
O O13 0.740001 0.000000 0.771954
O O14 0.250000 0.750000 0.126700
O O15 0.000000 0.836411 0.119570
#
# Coordination Sequence:
#
# PCOD9493648 Si02
#       5
#    16   8  16  16  16
#     4  11  22  35  53  76 102 133 170 210 251 296
#     4   8  14  24  41  67  93 121 157 194 236 284
#     4   9  19  37  59  81 106 135 165 200 245 295
#     4   9  18  32  49  70  97 128 161 201 250 298
#     4   9  16  28  47  69  95 125 159 199 240 286
#
# _framework density 19.84055
#
# number of rings (size 3 to 8) (size 9 to 14) (size 15 to 20)
#    0.000    2.667    0.000    2.667    0.000    2.222 
#    0.000    2.778    0.000    6.667    0.000    0.000 
#    0.000    8.889    0.000    0.000    0.000    0.000 
#
# Total GULP energy -200780.346264 kJ/mol
# GULP energy per Si atom -5577.231841 kJ/mol
# Density = 1.979539 g / cm^3
# Si number density = 19.840550 Si / 1000 Ang^3
#
#
#
# Elastic Constant Matrix: (Units=GPa)
#
#
# Indices 1 2 3 4 5 6 
#
# 1 20.6999 6.6207 12.5943 0.0000 0.0000 0.0000
# 2 6.6207 149.0039 132.2637 0.0000 0.0000 0.0000
# 3 12.5943 132.2637 219.9251 0.0000 0.0000 0.0000
# 4 0.0000 0.0000 0.0000 -27.1422 0.0000 0.0000
# 5 0.0000 0.0000 0.0000 0.0000 22.6935 0.0000
# 6 0.0000 0.0000 0.0000 0.0000 0.0000 -10.8468
#
#
#
# Elastic Compliance Matrix: (Units=1/GPa)
#
#
# Indices 1 2 3 4 5 6 
#
# 1 0.050086 0.000688 -0.003282 0.000000 0.000000 0.000000
# 2 0.000688 0.014406 -0.008703 0.000000 0.000000 0.000000
# 3 -0.003282 -0.008703 0.009969 0.000000 0.000000 0.000000
# 4 0.000000 0.000000 0.000000 -0.036843 0.000000 0.000000
# 5 0.000000 0.000000 0.000000 0.000000 0.044065 0.000000
# 6 0.000000 0.000000 0.000000 0.000000 0.000000 -0.092193
#
#
# Mechanical properties :
#
#
# Convention : Reuss Voigt Hill
#
# Bulk Modulus (GPa) = 19.28028 76.95406 48.11717
# Shear Modulus (GPa) = 170.21440 12.81758 91.51599
#
# Velocity S-wave (km/s) = 9.27240 2.54447 6.79896
# Velocity P-wave (km/s) = 11.15237 6.89223 9.27033
#
# Compressibility (1/GPa) = 0.05186646
#
# Stress axis : x y z
#
# Youngs Moduli (GPa) = 19.96561 69.41457 100.30959
#
# Poissons Ratio (x) = -0.04773 0.32919
# Poissons Ratio (y) = -0.01373 0.87303
# Poissons Ratio (z) = 0.06552 0.60414
#
# Static dielectric constant tensor:
#      x y z
#    x 1.720660 0.000000 0.000000 
#    y 0.000000 1.598880 0.000000 
#    z 0.000000 0.000000 1.737160 
# 
# From -- ./inp_files/70376.got.cif
#   From: 2010.05.17/outbox.cif.g08.bks.cpg/sg65_36_cif.got.tgz:70376.got - 2010.06.03 17:01:31.
