data_PCOD9493035
_publ_section_title
;
Structure prediction by ZEFSAII (Michael W. Deem and Ramdas Pophale) SiO2 
 PCOD9493035
Probable space group: C M M M
;
_chemical_formula_sum "Si O2"
_cell_formula_units_Z 116
_cell_length_a 19.255616
_cell_length_b 16.830409
_cell_length_c 17.207877
_cell_angle_alpha 90.000000
_cell_angle_beta 90.000000
_cell_angle_gamma 90.000000
_cell_volume 5576.726934
_symmetry_space_group_name_H-M "C M M M"
_symmetry_group_IT_number 65
_symmetry_cell_setting 'orthorhombic'
loop_
_space_group_symop_operation_xyz
x,y,z
-x,-y,z
x,-y,-z
-x,y,-z
-x,-y,-z
x,y,-z
-x,y,z
x,-y,z
1/2+x,1/2+y,z
1/2-x,1/2-y,z
1/2+x,1/2-y,-z
1/2-x,1/2+y,-z
1/2-x,1/2-y,-z
1/2+x,1/2+y,-z
1/2-x,1/2+y,z
1/2+x,1/2-y,z
loop_
_atom_site_type_symbol
_atom_site_label
_atom_site_fract_x
_atom_site_fract_y
_atom_site_fract_z
Si Si1 0.679171 0.824322 0.912025
Si Si2 0.213702 0.413195 0.407166
Si Si3 0.172946 0.143355 0.871397
Si Si4 0.352768 0.666721 0.593299
Si Si5 0.581859 0.911313 0.188469
Si Si6 0.917067 0.668499 0.347714
Si Si7 0.657226 0.500000 0.000000
Si Si8 0.921980 0.092687 0.731367
O O1 0.743968 0.850484 0.858730
O O2 0.658253 0.732399 0.903168
O O3 0.617294 0.881333 0.889143
O O4 0.703273 0.836845 0.000000
O O5 0.217598 0.415487 0.500000
O O6 0.234224 0.500000 0.375966
O O7 0.271833 0.348202 0.384860
O O8 0.134433 0.394997 0.386454
O O9 0.130096 0.131826 0.792676
O O10 0.157868 0.071321 0.931367
O O11 0.359624 0.660566 0.500000
O O12 0.385931 0.749082 0.621862
O O13 0.395529 0.603464 0.643641
O O14 0.500000 0.915168 0.178975
O O15 0.594683 0.847446 0.256416
O O16 0.606509 0.000000 0.210537
O O17 0.000000 0.661333 0.363374
O O18 0.000000 0.126549 0.738724
O O19 0.924406 0.000000 0.750299
#
# Coordination Sequence:
#
# PCOD9493035 Si02
#       8
#    16  16  16  16  16  16   4  16
#     4  11  23  41  67  98 133 173 221 278 328 404
#     4  10  22  40  63  93 127 165 215 273 331 399
#     4  11  23  42  67 101 135 172 225 274 336 396
#     4  11  24  43  67  95 132 177 224 280 344 408
#     4  10  24  43  64  95 133 175 221 272 338 407
#     4  11  23  41  65  94 130 172 219 275 339 411
#     4  12  20  42  73  96 141 180 216 286 336 386
#     4  11  25  43  65  95 131 172 225 278 329 405
#
# _framework density 20.800732
#
# number of rings (size 3 to 8) (size 9 to 14) (size 15 to 20)
#    0.000    1.241    2.069    3.310    2.897    6.897 
#    0.000    2.759    0.000    0.000    0.000    0.000 
#    0.000    0.000    0.000    0.000    0.000    0.000 
#
# Total GULP energy -323070.570553 kJ/mol
# GULP energy per Si atom -5570.182251 kJ/mol
# Density = 2.075339 g / cm^3
# Si number density = 20.800732 Si / 1000 Ang^3
#
#
#
# Elastic Constant Matrix: (Units=GPa)
#
#
# Indices 1 2 3 4 5 6 
#
# 1 84.8633 59.6829 45.5559 0.0000 0.0000 0.0000
# 2 59.6829 78.0621 45.7036 0.0000 0.0000 0.0000
# 3 45.5559 45.7036 52.4067 0.0000 0.0000 0.0000
# 4 0.0000 0.0000 0.0000 137.8858 0.0000 0.0000
# 5 0.0000 0.0000 0.0000 0.0000 21.9524 0.0000
# 6 0.0000 0.0000 0.0000 0.0000 0.0000 18.3643
#
#
#
# Elastic Compliance Matrix: (Units=1/GPa)
#
#
# Indices 1 2 3 4 5 6 
#
# 1 0.028702 -0.014991 -0.011876 0.000000 0.000000 0.000000
# 2 -0.014991 0.034005 -0.016624 0.000000 0.000000 0.000000
# 3 -0.011876 -0.016624 0.043903 0.000000 0.000000 0.000000
# 4 0.000000 0.000000 0.000000 0.007252 0.000000 0.000000
# 5 0.000000 0.000000 0.000000 0.000000 0.045553 0.000000
# 6 0.000000 0.000000 0.000000 0.000000 0.000000 0.054453
#
#
# Mechanical properties :
#
#
# Convention : Reuss Voigt Hill
#
# Bulk Modulus (GPa) = 50.95017 57.46855 54.20936
# Shear Modulus (GPa) = 16.26577 39.93316 28.09946
#
# Velocity S-wave (km/s) = 2.79943 4.38630 3.67943
# Velocity P-wave (km/s) = 5.91579 7.30349 6.64596
#
# Compressibility (1/GPa) = 0.01962702
#
# Stress axis : x y z
#
# Youngs Moduli (GPa) = 34.84091 29.40767 22.77732
#
# Poissons Ratio (x) = 0.44085 0.27051
# Poissons Ratio (y) = 0.52229 0.37865
# Poissons Ratio (z) = 0.41379 0.48888
#
# Static dielectric constant tensor:
#      x y z
#    x 1.747540 0.000000 0.000000 
#    y 0.000000 1.793590 0.000000 
#    z 0.000000 0.000000 1.729540 
# 
# From -- ./inp_files/54684.got.cif
#   From: 2010.05.17/outbox.cif.g08.bks.cpg/sg65_28_cif.got.tgz:54684.got - 2010.06.03 17:01:31.
