data_PCOD9493254
_publ_section_title
;
Structure prediction by ZEFSAII (Michael W. Deem and Ramdas Pophale) SiO2 
 PCOD9493254
Probable space group: C M M M
;
_chemical_formula_sum "Si O2"
_cell_formula_units_Z 58
_cell_length_a 9.857347
_cell_length_b 16.119977
_cell_length_c 17.345924
_cell_angle_alpha 90.000000
_cell_angle_beta 90.000000
_cell_angle_gamma 90.000000
_cell_volume 2756.270913
_symmetry_space_group_name_H-M "C M M M"
_symmetry_group_IT_number 65
_symmetry_cell_setting 'orthorhombic'
loop_
_space_group_symop_operation_xyz
x,y,z
-x,-y,z
x,-y,-z
-x,y,-z
-x,-y,-z
x,y,-z
-x,y,z
x,-y,z
1/2+x,1/2+y,z
1/2-x,1/2-y,z
1/2+x,1/2-y,-z
1/2-x,1/2+y,-z
1/2-x,1/2-y,-z
1/2+x,1/2+y,-z
1/2-x,1/2+y,z
1/2+x,1/2-y,z
loop_
_atom_site_type_symbol
_atom_site_label
_atom_site_fract_x
_atom_site_fract_y
_atom_site_fract_z
Si Si1 0.751902 0.356225 0.500000
Si Si2 0.340274 0.666675 0.333739
Si Si3 0.000000 0.187809 0.913084
Si Si4 0.000000 0.500000 0.500000
Si Si5 0.000000 0.615550 0.910913
Si Si6 0.221202 0.090214 0.825072
O O1 0.750000 0.250000 0.500000
O O2 0.679066 0.371469 0.418554
O O3 0.880455 0.422099 0.500000
O O4 0.500000 0.683906 0.320622
O O5 0.250000 0.750000 0.329665
O O6 0.284228 0.609290 0.265417
O O7 0.000000 0.285693 0.915294
O O8 0.868873 0.157581 0.867897
O O9 0.000000 0.154313 0.000000
O O10 0.131603 0.590922 0.862838
O O11 0.000000 0.586899 0.000000
O O12 0.159823 0.000000 0.838810
#
# Coordination Sequence:
#
# PCOD9493254 Si02
#       6
#     8  16   8   2   8  16
#     4  10  27  48  83 115 160 206 267 324 396 473
#     4  11  25  46  76 109 150 200 254 315 381 456
#     4  11  23  43  70  94 128 178 233 290 363 446
#     4  12  28  52  82 126 160 220 264 340 404 482
#     4  11  25  46  70  98 130 181 242 296 367 447
#     4  12  26  42  65 101 142 182 233 301 367 447
#
# _framework density 21.042925
#
# number of rings (size 3 to 8) (size 9 to 14) (size 15 to 20)
#    0.000    0.828    1.379    4.552   11.586    5.517 
#    0.000    0.690    0.000    0.000    0.000    0.000 
#    0.000    0.000    0.000    0.000    0.000    0.000 
#
# Total GULP energy -161529.516781 kJ/mol
# GULP energy per Si atom -5569.983337 kJ/mol
# Density = 2.099503 g / cm^3
# Si number density = 21.042925 Si / 1000 Ang^3
#
#
#
# Elastic Constant Matrix: (Units=GPa)
#
#
# Indices 1 2 3 4 5 6 
#
# 1 166.2214 42.7043 60.7123 0.0000 0.0000 0.0000
# 2 42.7043 122.0756 33.0999 0.0000 0.0000 0.0000
# 3 60.7123 33.0999 178.3008 0.0000 0.0000 0.0000
# 4 0.0000 0.0000 0.0000 325.0321 0.0000 0.0000
# 5 0.0000 0.0000 0.0000 0.0000 21.5700 0.0000
# 6 0.0000 0.0000 0.0000 0.0000 0.0000 33.8346
#
#
#
# Elastic Compliance Matrix: (Units=1/GPa)
#
#
# Indices 1 2 3 4 5 6 
#
# 1 0.007298 -0.001979 -0.002118 0.000000 0.000000 0.000000
# 2 -0.001979 0.009162 -0.001027 0.000000 0.000000 0.000000
# 3 -0.002118 -0.001027 0.006520 0.000000 0.000000 0.000000
# 4 0.000000 0.000000 0.000000 0.003077 0.000000 0.000000
# 5 0.000000 0.000000 0.000000 0.000000 0.046361 0.000000
# 6 0.000000 0.000000 0.000000 0.000000 0.000000 0.029556
#
#
# Mechanical properties :
#
#
# Convention : Reuss Voigt Hill
#
# Bulk Modulus (GPa) = 78.53333 82.18122 80.35728
# Shear Modulus (GPa) = 42.93140 98.09276 70.51208
#
# Velocity S-wave (km/s) = 4.52174 6.83497 5.79495
# Velocity P-wave (km/s) = 8.04133 10.07114 9.11293
#
# Compressibility (1/GPa) = 0.01273345
#
# Stress axis : x y z
#
# Youngs Moduli (GPa) = 137.02560 109.14229 153.36850
#
# Poissons Ratio (x) = 0.21597 0.32478
# Poissons Ratio (y) = 0.27114 0.15753
# Poissons Ratio (z) = 0.29017 0.11210
#
# Static dielectric constant tensor:
#      x y z
#    x 1.637630 0.000000 0.000000 
#    y 0.000000 1.784210 0.000000 
#    z 0.000000 0.000000 1.751460 
# 
# From -- ./inp_files/48913.got.cif
#   From: 2010.05.17/outbox.cif.g08.bks.cpg/sg65_25_cif.got.tgz:48913.got - 2010.06.03 17:01:31.
