data_PCOD9493309
_publ_section_title
;
Structure prediction by ZEFSAII (Michael W. Deem and Ramdas Pophale) SiO2 
 PCOD9493309
Probable space group: C M M M
;
_chemical_formula_sum "Si O2"
_cell_formula_units_Z 88
_cell_length_a 31.278023
_cell_length_b 27.499060
_cell_length_c 8.073407
_cell_angle_alpha 90.000000
_cell_angle_beta 90.000000
_cell_angle_gamma 90.000000
_cell_volume 6944.068401
_symmetry_space_group_name_H-M "C M M M"
_symmetry_group_IT_number 65
_symmetry_cell_setting 'orthorhombic'
loop_
_space_group_symop_operation_xyz
x,y,z
-x,-y,z
x,-y,-z
-x,y,-z
-x,-y,-z
x,y,-z
-x,y,z
x,-y,z
1/2+x,1/2+y,z
1/2-x,1/2-y,z
1/2+x,1/2-y,-z
1/2-x,1/2+y,-z
1/2-x,1/2-y,-z
1/2+x,1/2+y,-z
1/2-x,1/2+y,z
1/2+x,1/2-y,z
loop_
_atom_site_type_symbol
_atom_site_label
_atom_site_fract_x
_atom_site_fract_y
_atom_site_fract_z
Si Si1 0.951569 0.694572 0.300081
Si Si2 0.596305 0.097896 0.193382
Si Si3 0.131690 0.750275 0.309888
Si Si4 0.820765 0.645146 0.317624
Si Si5 0.728121 0.827865 0.000000
Si Si6 0.950703 0.500000 0.301053
Si Si7 0.817191 0.779052 0.000000
O O1 0.950852 0.690173 0.500000
O O2 0.934864 0.643349 0.230477
O O3 0.916617 0.735708 0.259699
O O4 0.000000 0.704595 0.246916
O O5 0.640308 0.107828 0.290236
O O6 0.573279 0.048177 0.240702
O O7 0.606810 0.098521 0.000000
O O8 0.132695 0.769149 0.500000
O O9 0.156391 0.698254 0.314427
O O10 0.154598 0.781075 0.167059
O O11 0.801480 0.638714 0.500000
O O12 0.788187 0.645284 0.165129
O O13 0.778329 0.816863 0.000000
O O14 0.704710 0.774837 0.000000
O O15 0.950878 0.500000 0.500000
O O16 0.000000 0.500000 0.243344
#
# Coordination Sequence:
#
# PCOD9493309 Si02
#       7
#    16  16  16  16   8   8   8
#     4   9  17  28  40  53  69  93 123 149 175 211
#     4  11  20  30  42  56  72  88 115 150 183 221
#     4   8  15  25  36  51  71  93 113 136 169 205
#     4   9  16  28  42  54  70  90 111 136 169 209
#     4   9  16  26  38  57  69  86 110 133 161 209
#     4  11  23  35  43  53  71  95 121 148 185 227
#     4   9  16  24  37  52  74  88 105 134 168 204
#
# _framework density 12.672687
#
# number of rings (size 3 to 8) (size 9 to 14) (size 15 to 20)
#    0.000    2.636    0.909    3.545    3.818    4.000 
#    0.000    3.636    0.000    0.000    0.000    0.000 
#    0.000    0.000    0.000    0.000    0.000    0.000 
#
# Total GULP energy -245070.158371 kJ/mol
# GULP energy per Si atom -5569.776327 kJ/mol
# Density = 1.264384 g / cm^3
# Si number density = 12.672687 Si / 1000 Ang^3
#
#
#
# Elastic Constant Matrix: (Units=GPa)
#
#
# Indices 1 2 3 4 5 6 
#
# 1 86.2919 29.9630 52.7578 0.0000 0.0000 0.0000
# 2 29.9630 19.2368 20.0152 0.0000 0.0000 0.0000
# 3 52.7578 20.0152 86.9469 0.0000 0.0000 0.0000
# 4 0.0000 0.0000 0.0000 7.1982 0.0000 0.0000
# 5 0.0000 0.0000 0.0000 0.0000 13.6100 0.0000
# 6 0.0000 0.0000 0.0000 0.0000 0.0000 22.6460
#
#
#
# Elastic Compliance Matrix: (Units=1/GPa)
#
#
# Indices 1 2 3 4 5 6 
#
# 1 0.030696 -0.037387 -0.010019 0.000000 0.000000 0.000000
# 2 -0.037387 0.113893 -0.003532 0.000000 0.000000 0.000000
# 3 -0.010019 -0.003532 0.018394 0.000000 0.000000 0.000000
# 4 0.000000 0.000000 0.000000 0.138923 0.000000 0.000000
# 5 0.000000 0.000000 0.000000 0.000000 0.073475 0.000000
# 6 0.000000 0.000000 0.000000 0.000000 0.000000 0.044158
#
#
# Mechanical properties :
#
#
# Convention : Reuss Voigt Hill
#
# Bulk Modulus (GPa) = 16.36524 44.21640 30.29082
# Shear Modulus (GPa) = 9.22876 14.67349 11.95113
#
# Velocity S-wave (km/s) = 2.70152 3.40646 3.07426
# Velocity P-wave (km/s) = 4.76159 7.10203 6.04614
#
# Compressibility (1/GPa) = 0.06110513
#
# Stress axis : x y z
#
# Youngs Moduli (GPa) = 32.57727 8.78021 54.36567
#
# Poissons Ratio (x) = 0.32827 0.54471
# Poissons Ratio (y) = 1.21797 0.19203
# Poissons Ratio (z) = 0.32640 0.03101
#
# Static dielectric constant tensor:
#      x y z
#    x 1.419180 0.000000 0.000000 
#    y 0.000000 1.379020 0.000000 
#    z 0.000000 0.000000 1.446450 
# 
# From -- ./inp_files/19017.got.cif
#   From: 2010.05.17/outbox.cif.g08.bks.cpg/sg65_10_cif.got.tgz:19017.got - 2010.06.03 17:01:31.
