data_PCOD9493700
_publ_section_title
;
Structure prediction by ZEFSAII (Michael W. Deem and Ramdas Pophale) SiO2 
 PCOD9493700
Probable space group: C M M M
;
_chemical_formula_sum "Si O2"
_cell_formula_units_Z 80
_cell_length_a 8.441975
_cell_length_b 18.839683
_cell_length_c 26.414680
_cell_angle_alpha 90.000000
_cell_angle_beta 90.000000
_cell_angle_gamma 90.000000
_cell_volume 4201.099876
_symmetry_space_group_name_H-M "C M M M"
_symmetry_group_IT_number 65
_symmetry_cell_setting 'orthorhombic'
loop_
_space_group_symop_operation_xyz
x,y,z
-x,-y,z
x,-y,-z
-x,y,-z
-x,-y,-z
x,y,-z
-x,y,z
x,-y,z
1/2+x,1/2+y,z
1/2-x,1/2-y,z
1/2+x,1/2-y,-z
1/2-x,1/2+y,-z
1/2-x,1/2-y,-z
1/2+x,1/2+y,-z
1/2-x,1/2+y,z
1/2+x,1/2-y,z
loop_
_atom_site_type_symbol
_atom_site_label
_atom_site_fract_x
_atom_site_fract_y
_atom_site_fract_z
Si Si1 0.690128 0.582068 0.000000
Si Si2 0.193577 0.918285 0.500000
Si Si3 0.308809 0.917807 0.307345
Si Si4 0.309766 0.169878 0.903802
Si Si5 0.810726 0.830000 0.598002
Si Si6 0.807090 0.581603 0.807172
O O1 0.751310 0.622668 0.049484
O O2 0.743041 0.500000 0.000000
O O3 0.500000 0.583505 0.000000
O O4 0.246000 0.876732 0.449777
O O5 0.000000 0.918676 0.500000
O O6 0.245820 0.000000 0.500000
O O7 0.500000 0.914923 0.308597
O O8 0.242733 0.866901 0.350151
O O9 0.257535 0.899308 0.249984
O O10 0.262472 0.000000 0.316836
O O11 0.500000 0.170160 0.903978
O O12 0.250000 0.250000 0.908548
O O13 0.253561 0.133939 0.851290
O O14 0.750000 0.750000 0.594339
O O15 0.000000 0.828877 0.596484
O O16 0.758653 0.500000 0.817341
O O17 0.000000 0.581948 0.807260
#
# Coordination Sequence:
#
# PCOD9493700 Si02
#       6
#     8   8  16  16  16  16
#     4  11  24  41  60  83 111 141 178 227 278 325
#     4   9  19  36  57  79 104 137 178 225 274 324
#     4   9  18  35  58  83 112 144 180 224 272 322
#     4  11  22  37  58  83 113 147 184 223 267 322
#     4  11  22  36  55  79 110 145 182 224 271 324
#     4   8  16  33  57  82 108 142 183 225 269 319
#
# _framework density 19.042632999999999
#
# number of rings (size 3 to 8) (size 9 to 14) (size 15 to 20)
#    0.000    2.200    0.000    4.500    0.000    3.600 
#    0.000    5.500    0.000    6.000    0.000    0.000 
#    0.000    0.000    0.000    0.000    0.000    0.000 
#
# Total GULP energy -223394.243783 kJ/mol
# GULP energy per Si atom -5584.856095 kJ/mol
# Density = 1.899929 g / cm^3
# Si number density = 19.042633 Si / 1000 Ang^3
#
#
#
# Elastic Constant Matrix: (Units=GPa)
#
#
# Indices 1 2 3 4 5 6 
#
# 1 28.1315 34.2278 30.5460 0.0000 0.0000 0.0000
# 2 34.2278 193.1773 138.3333 0.0000 0.0000 0.0000
# 3 30.5460 138.3333 181.8551 0.0000 0.0000 0.0000
# 4 0.0000 0.0000 0.0000 0.9921 0.0000 0.0000
# 5 0.0000 0.0000 0.0000 0.0000 726.3735 0.0000
# 6 0.0000 0.0000 0.0000 0.0000 0.0000 -3.2344
#
#
#
# Elastic Compliance Matrix: (Units=1/GPa)
#
#
# Indices 1 2 3 4 5 6 
#
# 1 0.046239 -0.005779 -0.003371 0.000000 0.000000 0.000000
# 2 -0.005779 0.012092 -0.008228 0.000000 0.000000 0.000000
# 3 -0.003371 -0.008228 0.012324 0.000000 0.000000 0.000000
# 4 0.000000 0.000000 0.000000 1.007959 0.000000 0.000000
# 5 0.000000 0.000000 0.000000 0.000000 0.001377 0.000000
# 6 0.000000 0.000000 0.000000 0.000000 0.000000 -0.309177
#
#
# Mechanical properties :
#
#
# Convention : Reuss Voigt Hill
#
# Bulk Modulus (GPa) = 27.85523 89.93090 58.89307
# Shear Modulus (GPa) = 6.11595 158.16336 82.13965
#
# Velocity S-wave (km/s) = 1.79407 9.12348 6.57482
# Velocity P-wave (km/s) = 4.35329 12.58222 9.41444
#
# Compressibility (1/GPa) = 0.03589990
#
# Stress axis : x y z
#
# Youngs Moduli (GPa) = 21.62693 82.69696 81.14442
#
# Poissons Ratio (x) = 0.47790 0.27352
# Poissons Ratio (y) = 0.12498 0.66763
# Poissons Ratio (z) = 0.07290 0.68041
#
# Static dielectric constant tensor:
#      x y z
#    x 1.652750 0.000000 0.000000 
#    y 0.000000 1.628780 0.000000 
#    z 0.000000 0.000000 1.650400 
# 
# From -- ./inp_files/67373.got.cif
#   From: 2010.05.17/outbox.cif.g08.bks.cpg/sg65_34_cif.got.tgz:67373.got - 2010.06.03 17:01:31.
