data_PCOD9493444
_publ_section_title
;
Structure prediction by ZEFSAII (Michael W. Deem and Ramdas Pophale) SiO2 
 PCOD9493444
Probable space group: C M M M
;
_chemical_formula_sum "Si O2"
_cell_formula_units_Z 48
_cell_length_a 7.579325
_cell_length_b 25.858126
_cell_length_c 13.867331
_cell_angle_alpha 90.000000
_cell_angle_beta 90.000000
_cell_angle_gamma 90.000000
_cell_volume 2717.818554
_symmetry_space_group_name_H-M "C M M M"
_symmetry_group_IT_number 65
_symmetry_cell_setting 'orthorhombic'
loop_
_space_group_symop_operation_xyz
x,y,z
-x,-y,z
x,-y,-z
-x,y,-z
-x,-y,-z
x,y,-z
-x,y,z
x,-y,z
1/2+x,1/2+y,z
1/2-x,1/2-y,z
1/2+x,1/2-y,-z
1/2-x,1/2+y,-z
1/2-x,1/2-y,-z
1/2+x,1/2+y,-z
1/2-x,1/2+y,z
1/2+x,1/2-y,z
loop_
_atom_site_type_symbol
_atom_site_label
_atom_site_fract_x
_atom_site_fract_y
_atom_site_fract_z
Si Si1 0.000000 0.937779 0.113202
Si Si2 0.205324 0.401992 0.742649
Si Si3 0.788746 0.690579 0.391185
Si Si4 0.713219 0.500000 0.611947
O O1 0.829147 0.915676 0.167814
O O2 0.000000 0.000000 0.125115
O O3 0.000000 0.926025 0.000000
O O4 0.272374 0.351115 0.686321
O O5 0.219957 0.449401 0.667338
O O6 0.000000 0.395626 0.769895
O O7 0.719446 0.681117 0.500000
O O8 0.750000 0.750000 0.366205
O O9 0.000000 0.684613 0.395431
O O10 0.500000 0.500000 0.616893
O O11 0.765761 0.500000 0.500000
#
# Coordination Sequence:
#
# PCOD9493444 Si02
#       4
#     8  16  16   8
#     4  11  24  42  60  84 112 140 192 249 294 343
#     4  11  21  37  58  83 113 149 189 229 285 339
#     4   9  19  33  52  83 117 151 187 222 266 330
#     4  11  21  33  53  83 119 154 185 220 272 340
#
# _framework density 17.661224000000001
#
# number of rings (size 3 to 8) (size 9 to 14) (size 15 to 20)
#    0.000    1.667    3.333    1.500    2.333    3.333 
#    0.000    1.667    0.000    1.000    0.000    0.000 
#    0.000    0.000    0.000    0.000    0.000    0.000 
#
# Total GULP energy -134050.456027 kJ/mol
# GULP energy per Si atom -5585.435668 kJ/mol
# Density = 1.762103 g / cm^3
# Si number density = 17.661224 Si / 1000 Ang^3
#
#
#
# Elastic Constant Matrix: (Units=GPa)
#
#
# Indices 1 2 3 4 5 6 
#
# 1 93.6217 28.7169 56.1195 0.0000 0.0000 0.0000
# 2 28.7169 117.2804 87.2523 0.0000 0.0000 0.0000
# 3 56.1195 87.2523 156.7711 0.0000 0.0000 0.0000
# 4 0.0000 0.0000 0.0000 22.1284 0.0000 0.0000
# 5 0.0000 0.0000 0.0000 0.0000 -4.2292 0.0000
# 6 0.0000 0.0000 0.0000 0.0000 0.0000 22.8594
#
#
#
# Elastic Compliance Matrix: (Units=1/GPa)
#
#
# Indices 1 2 3 4 5 6 
#
# 1 0.013616 0.000499 -0.005152 0.000000 0.000000 0.000000
# 2 0.000499 0.014570 -0.008288 0.000000 0.000000 0.000000
# 3 -0.005152 -0.008288 0.012836 0.000000 0.000000 0.000000
# 4 0.000000 0.000000 0.000000 0.045191 0.000000 0.000000
# 5 0.000000 0.000000 0.000000 0.000000 -0.236453 0.000000
# 6 0.000000 0.000000 0.000000 0.000000 0.000000 0.043746
#
#
# Mechanical properties :
#
#
# Convention : Reuss Voigt Hill
#
# Bulk Modulus (GPa) = 66.04794 79.09452 72.57123
# Shear Modulus (GPa) = -66.16717 21.19070 -22.48824
#
# Velocity S-wave (km/s) = -6.12748 3.46763 -3.57222
# Velocity P-wave (km/s) = 3.54725 7.80475 4.91585
#
# Compressibility (1/GPa) = 0.01514052
#
# Stress axis : x y z
#
# Youngs Moduli (GPa) = 73.44034 68.63325 77.90870
#
# Poissons Ratio (x) = -0.03423 0.40138
# Poissons Ratio (y) = -0.03663 0.64568
# Poissons Ratio (z) = 0.37836 0.56881
#
# Static dielectric constant tensor:
#      x y z
#    x 1.640680 0.000000 0.000000 
#    y 0.000000 1.593080 0.000000 
#    z 0.000000 0.000000 1.574560 
# 
# From -- ./inp_files/20241.got.cif
#   From: 2010.05.17/outbox.cif.g08.bks.cpg/sg65_11_cif.got.tgz:20241.got - 2010.06.03 17:01:31.
