data_PCOD9493338
_publ_section_title
;
Structure prediction by ZEFSAII (Michael W. Deem and Ramdas Pophale) SiO2 
 PCOD9493338
Probable space group: C M M M
;
_chemical_formula_sum "Si O2"
_cell_formula_units_Z 108
_cell_length_a 14.875132
_cell_length_b 23.359302
_cell_length_c 15.838869
_cell_angle_alpha 90.000000
_cell_angle_beta 90.000000
_cell_angle_gamma 90.000000
_cell_volume 5503.574587
_symmetry_space_group_name_H-M "C M M M"
_symmetry_group_IT_number 65
_symmetry_cell_setting 'orthorhombic'
loop_
_space_group_symop_operation_xyz
x,y,z
-x,-y,z
x,-y,-z
-x,y,-z
-x,-y,-z
x,y,-z
-x,y,z
x,-y,z
1/2+x,1/2+y,z
1/2-x,1/2-y,z
1/2+x,1/2-y,-z
1/2-x,1/2+y,-z
1/2-x,1/2-y,-z
1/2+x,1/2+y,-z
1/2-x,1/2+y,z
1/2+x,1/2-y,z
loop_
_atom_site_type_symbol
_atom_site_label
_atom_site_fract_x
_atom_site_fract_y
_atom_site_fract_z
Si Si1 0.358498 0.686214 0.406113
Si Si2 0.355367 0.266256 0.097041
Si Si3 0.598498 0.366299 0.231961
Si Si4 0.100574 0.349961 0.820009
Si Si5 0.500000 0.137462 0.500000
Si Si6 0.398065 0.431048 0.000000
Si Si7 0.353503 0.180328 0.627235
Si Si8 0.762518 0.067324 0.849021
O O1 0.386528 0.668471 0.500000
O O2 0.403544 0.657414 0.326259
O O3 0.376296 0.754032 0.396349
O O4 0.251400 0.675214 0.396052
O O5 0.250000 0.250000 0.101836
O O6 0.379111 0.313886 0.167318
O O7 0.400785 0.206580 0.122409
O O8 0.376043 0.283565 0.000000
O O9 0.500000 0.389892 0.208837
O O10 0.678646 0.412270 0.230177
O O11 0.131952 0.330341 0.726597
O O12 0.173097 0.395207 0.854083
O O13 0.000000 0.373995 0.815171
O O14 0.420677 0.141613 0.573454
O O15 0.334637 0.417069 0.921437
O O16 0.406391 0.500000 0.000000
O O17 0.500000 0.407891 0.000000
O O18 0.744096 0.000000 0.851169
#
# Coordination Sequence:
#
# PCOD9493338 Si02
#       8
#    16  16  16  16   4   8  16  16
#     4  11  21  36  56  87 131 164 197 249 319 385
#     4  11  23  41  63  90 131 173 205 247 311 387
#     4  12  25  38  63  95 126 165 208 259 318 386
#     4  12  24  39  64  94 132 171 210 258 316 388
#     4  12  20  30  60  92 121 168 209 252 314 374
#     4   9  20  42  71  94 115 151 211 279 326 365
#     4  11  20  34  54  89 126 163 200 251 308 378
#     4  11  25  45  65  90 124 166 218 275 322 365
#
# _framework density 19.623608999999998
#
# number of rings (size 3 to 8) (size 9 to 14) (size 15 to 20)
#    0.000    0.815    6.667    1.333    3.111    2.667 
#    0.000    0.000    0.000    1.778    0.000    1.556 
#    0.000    0.000    0.000    0.000    0.000    0.000 
#
# Total GULP energy -301089.597918 kJ/mol
# GULP energy per Si atom -5575.733295 kJ/mol
# Density = 1.957895 g / cm^3
# Si number density = 19.623609 Si / 1000 Ang^3
#
#
#
# Elastic Constant Matrix: (Units=GPa)
#
#
# Indices 1 2 3 4 5 6 
#
# 1 130.5892 32.6503 25.9318 0.0000 0.0000 0.0000
# 2 32.6503 71.4361 20.9435 0.0000 0.0000 0.0000
# 3 25.9318 20.9435 126.1834 0.0000 0.0000 0.0000
# 4 0.0000 0.0000 0.0000 7.3163 0.0000 0.0000
# 5 0.0000 0.0000 0.0000 0.0000 -63.5093 0.0000
# 6 0.0000 0.0000 0.0000 0.0000 0.0000 14.5684
#
#
#
# Elastic Compliance Matrix: (Units=1/GPa)
#
#
# Indices 1 2 3 4 5 6 
#
# 1 0.008815 -0.003677 -0.001201 0.000000 0.000000 0.000000
# 2 -0.003677 0.016248 -0.001941 0.000000 0.000000 0.000000
# 3 -0.001201 -0.001941 0.008494 0.000000 0.000000 0.000000
# 4 0.000000 0.000000 0.000000 0.136682 0.000000 0.000000
# 5 0.000000 0.000000 0.000000 0.000000 -0.015746 0.000000
# 6 0.000000 0.000000 0.000000 0.000000 0.000000 0.068642
#
#
# Mechanical properties :
#
#
# Convention : Reuss Voigt Hill
#
# Bulk Modulus (GPa) = 50.20397 54.13999 52.17198
# Shear Modulus (GPa) = 20.54112 8.25394 14.39753
#
# Velocity S-wave (km/s) = 3.23887 2.05311 2.71160
# Velocity P-wave (km/s) = 6.29492 5.76797 6.03720
#
# Compressibility (1/GPa) = 0.01991874
#
# Stress axis : x y z
#
# Youngs Moduli (GPa) = 113.43662 61.54520 117.72938
#
# Poissons Ratio (x) = 0.22630 0.14144
# Poissons Ratio (y) = 0.41710 0.22853
# Poissons Ratio (z) = 0.13628 0.11947
#
# Static dielectric constant tensor:
#      x y z
#    x 1.705340 0.000000 0.000000 
#    y 0.000000 1.671350 0.000000 
#    z 0.000000 0.000000 1.766070 
# 
# From -- ./inp_files/40886.got.cif
#   From: 2010.05.17/outbox.cif.g08.bks.cpg/sg65_21_cif.got.tgz:40886.got - 2010.06.03 17:01:31.
