data_PCOD9493568
_publ_section_title
;
Structure prediction by ZEFSAII (Michael W. Deem and Ramdas Pophale) SiO2 
 PCOD9493568
Probable space group: C M M M
;
_chemical_formula_sum "Si O2"
_cell_formula_units_Z 80
_cell_length_a 14.195137
_cell_length_b 21.824622
_cell_length_c 17.284103
_cell_angle_alpha 90.000000
_cell_angle_beta 90.000000
_cell_angle_gamma 90.000000
_cell_volume 5354.675591
_symmetry_space_group_name_H-M "C M M M"
_symmetry_group_IT_number 65
_symmetry_cell_setting 'orthorhombic'
loop_
_space_group_symop_operation_xyz
x,y,z
-x,-y,z
x,-y,-z
-x,y,-z
-x,-y,-z
x,y,-z
-x,y,z
x,-y,z
1/2+x,1/2+y,z
1/2-x,1/2-y,z
1/2+x,1/2-y,-z
1/2-x,1/2+y,-z
1/2-x,1/2-y,-z
1/2+x,1/2+y,-z
1/2-x,1/2+y,z
1/2+x,1/2-y,z
loop_
_atom_site_type_symbol
_atom_site_label
_atom_site_fract_x
_atom_site_fract_y
_atom_site_fract_z
Si Si1 0.889551 0.784261 0.912356
Si Si2 0.110695 0.925442 0.329276
Si Si3 0.890428 0.362983 0.910638
Si Si4 0.210102 0.112180 0.176361
Si Si5 0.614061 0.429896 0.500000
Si Si6 0.109626 0.000000 0.907828
O O1 0.882969 0.711065 0.905181
O O2 0.829111 0.822590 0.852594
O O3 0.000000 0.800618 0.904644
O O4 0.859348 0.800487 0.000000
O O5 0.179438 0.899447 0.264178
O O6 0.138135 0.903562 0.415883
O O7 0.000000 0.909743 0.314321
O O8 0.114961 0.000000 0.328036
O O9 0.818877 0.390790 0.848808
O O10 0.000000 0.379081 0.898663
O O11 0.865554 0.379429 0.000000
O O12 0.156933 0.059967 0.127526
O O13 0.649064 0.500000 0.500000
O O14 0.500000 0.432698 0.500000
O O15 0.000000 0.000000 0.886060
O O16 0.117609 0.000000 0.000000
#
# Coordination Sequence:
#
# PCOD9493568 Si02
#       6
#    16  16  16  16   8   8
#     4   9  17  29  45  64  85 111 146 187 224 255
#     4   9  16  27  42  64  92 116 138 168 209 265
#     4   9  19  34  47  59  79 113 161 204 222 234
#     4  12  19  27  44  65  89 116 145 176 218 261
#     4   7  12  24  42  60  84 117 141 161 202 257
#     4  11  22  30  37  58  94 124 138 158 209 279
#
# _framework density 14.940213999999999
#
# number of rings (size 3 to 8) (size 9 to 14) (size 15 to 20)
#    0.000    2.400    1.000    6.600    0.000    3.200 
#    0.000    0.500    0.000    1.800    0.000    3.500 
#    0.000    5.600    0.000    0.000    0.000    0.000 
#
# Total GULP energy -222922.805974 kJ/mol
# GULP energy per Si atom -5573.070149 kJ/mol
# Density = 1.490621 g / cm^3
# Si number density = 14.940214 Si / 1000 Ang^3
#
#
#
# Elastic Constant Matrix: (Units=GPa)
#
#
# Indices 1 2 3 4 5 6 
#
# 1 82.6476 16.6307 67.5736 0.0000 0.0000 0.0000
# 2 16.6307 10.6984 18.9665 0.0000 0.0000 0.0000
# 3 67.5736 18.9665 114.0890 0.0000 0.0000 0.0000
# 4 0.0000 0.0000 0.0000 43.6796 0.0000 0.0000
# 5 0.0000 0.0000 0.0000 0.0000 192.7504 0.0000
# 6 0.0000 0.0000 0.0000 0.0000 0.0000 17.2329
#
#
#
# Elastic Compliance Matrix: (Units=1/GPa)
#
#
# Indices 1 2 3 4 5 6 
#
# 1 0.025797 -0.018452 -0.012212 0.000000 0.000000 0.000000
# 2 -0.018452 0.145731 -0.013298 0.000000 0.000000 0.000000
# 3 -0.012212 -0.013298 0.018209 0.000000 0.000000 0.000000
# 4 0.000000 0.000000 0.000000 0.022894 0.000000 0.000000
# 5 0.000000 0.000000 0.000000 0.000000 0.005188 0.000000
# 6 0.000000 0.000000 0.000000 0.000000 0.000000 0.058028
#
#
# Mechanical properties :
#
#
# Convention : Reuss Voigt Hill
#
# Bulk Modulus (GPa) = 9.82192 45.97520 27.89856
# Shear Modulus (GPa) = 12.57203 57.68354 35.12778
#
# Velocity S-wave (km/s) = 2.90399 6.22040 4.85420
# Velocity P-wave (km/s) = 4.22287 9.07914 7.08037
#
# Compressibility (1/GPa) = 0.10181310
#
# Stress axis : x y z
#
# Youngs Moduli (GPa) = 38.76411 6.86196 54.91912
#
# Poissons Ratio (x) = 0.12662 0.67066
# Poissons Ratio (y) = 0.71529 0.73030
# Poissons Ratio (z) = 0.47338 0.09125
#
# Static dielectric constant tensor:
#      x y z
#    x 1.513360 0.000000 0.000000 
#    y 0.000000 1.500490 0.000000 
#    z 0.000000 0.000000 1.509160 
# 
# From -- ./inp_files/53134.got.cif
#   From: 2010.05.17/outbox.cif.g08.bks.cpg/sg65_27_cif.got.tgz:53134.got - 2010.06.03 17:01:31.
