data_PCOD9493636
_publ_section_title
;
Structure prediction by ZEFSAII (Michael W. Deem and Ramdas Pophale) SiO2 
 PCOD9493636
Probable space group: C M M M
;
_chemical_formula_sum "Si O2"
_cell_formula_units_Z 72
_cell_length_a 19.310750
_cell_length_b 7.921729
_cell_length_c 25.801101
_cell_angle_alpha 90.000000
_cell_angle_beta 90.000000
_cell_angle_gamma 90.000000
_cell_volume 3946.911255
_symmetry_space_group_name_H-M "C M M M"
_symmetry_group_IT_number 65
_symmetry_cell_setting 'orthorhombic'
loop_
_space_group_symop_operation_xyz
x,y,z
-x,-y,z
x,-y,-z
-x,y,-z
-x,-y,-z
x,y,-z
-x,y,z
x,-y,z
1/2+x,1/2+y,z
1/2-x,1/2-y,z
1/2+x,1/2-y,-z
1/2-x,1/2+y,-z
1/2-x,1/2-y,-z
1/2+x,1/2+y,-z
1/2-x,1/2+y,z
1/2+x,1/2-y,z
loop_
_atom_site_type_symbol
_atom_site_label
_atom_site_fract_x
_atom_site_fract_y
_atom_site_fract_z
Si Si1 0.920512 0.793949 0.749074
Si Si2 0.670268 0.300059 0.844445
Si Si3 0.415458 0.000000 0.440310
Si Si4 0.415666 0.306123 0.367501
Si Si5 0.078556 0.296696 0.941609
O O1 0.871739 0.729917 0.794941
O O2 0.896535 0.750825 0.690939
O O3 0.000000 0.737458 0.756686
O O4 0.921898 0.000000 0.749942
O O5 0.667330 0.500000 0.839697
O O6 0.750000 0.250000 0.844875
O O7 0.631568 0.253801 0.897425
O O8 0.393384 0.168091 0.409384
O O9 0.500000 0.000000 0.440005
O O10 0.393218 0.000000 0.500000
O O11 0.500000 0.309600 0.367618
O O12 0.392956 0.500000 0.376977
O O13 0.076847 0.500000 0.942928
O O14 0.000000 0.237921 0.929694
O O15 0.096389 0.238406 0.000000
#
# Coordination Sequence:
#
# PCOD9493636 Si02
#       5
#    16  16   8  16  16
#     4   8  15  30  51  70  91 126 168 208 250 302
#     4  11  22  35  51  74 105 136 167 211 259 309
#     4   9  16  24  36  62  98 130 163 201 244 301
#     4   8  14  26  42  61  89 126 165 204 249 300
#     4   9  19  37  58  78 101 129 166 211 255 305
#
# _framework density 18.242111999999999
#
# number of rings (size 3 to 8) (size 9 to 14) (size 15 to 20)
#    0.000    3.000    0.000    3.333    0.000    2.667 
#    4.000    3.333    0.000    0.000    0.000    0.000 
#    0.000    0.889    0.444    0.000    0.000    0.000 
#
# Total GULP energy -200641.305387 kJ/mol
# GULP energy per Si atom -5573.369594 kJ/mol
# Density = 1.820059 g / cm^3
# Si number density = 18.242112 Si / 1000 Ang^3
#
#
#
# Elastic Constant Matrix: (Units=GPa)
#
#
# Indices 1 2 3 4 5 6 
#
# 1 73.3214 26.2351 87.7219 0.0000 0.0000 0.0000
# 2 26.2351 58.3903 58.3169 0.0000 0.0000 0.0000
# 3 87.7219 58.3169 190.4877 0.0000 0.0000 0.0000
# 4 0.0000 0.0000 0.0000 18.9976 0.0000 0.0000
# 5 0.0000 0.0000 0.0000 0.0000 -2.2860 0.0000
# 6 0.0000 0.0000 0.0000 0.0000 0.0000 -5.5615
#
#
#
# Elastic Compliance Matrix: (Units=1/GPa)
#
#
# Indices 1 2 3 4 5 6 
#
# 1 0.030381 0.000465 -0.014133 0.000000 0.000000 0.000000
# 2 0.000465 0.024676 -0.007769 0.000000 0.000000 0.000000
# 3 -0.014133 -0.007769 0.014137 0.000000 0.000000 0.000000
# 4 0.000000 0.000000 0.000000 0.052638 0.000000 0.000000
# 5 0.000000 0.000000 0.000000 0.000000 -0.437436 0.000000
# 6 0.000000 0.000000 0.000000 0.000000 0.000000 -0.179807
#
#
# Mechanical properties :
#
#
# Convention : Reuss Voigt Hill
#
# Bulk Modulus (GPa) = 37.99364 74.08302 56.03833
# Shear Modulus (GPa) = -11.26725 12.22503 0.47889
#
# Velocity S-wave (km/s) = -2.48795 2.59154 0.51292
# Velocity P-wave (km/s) = 3.55238 7.04656 5.58003
#
# Compressibility (1/GPa) = 0.02632020
#
# Stress axis : x y z
#
# Youngs Moduli (GPa) = 32.91494 40.52509 70.73834
#
# Poissons Ratio (x) = -0.01885 0.99977
# Poissons Ratio (y) = -0.01531 0.54954
# Poissons Ratio (z) = 0.46520 0.31483
#
# Static dielectric constant tensor:
#      x y z
#    x 1.517330 0.000000 0.000000 
#    y 0.000000 1.651410 0.000000 
#    z 0.000000 0.000000 1.641690 
# 
# From -- ./inp_files/64346.got.cif
#   From: 2010.05.17/outbox.cif.g08.bks.cpg/sg65_33_cif.got.tgz:64346.got - 2010.06.03 17:01:31.
