data_PCOD9493287
_publ_section_title
;
Structure prediction by ZEFSAII (Michael W. Deem and Ramdas Pophale) SiO2 
 PCOD9493287
Probable space group: C M M M
;
_chemical_formula_sum "Si O2"
_cell_formula_units_Z 104
_cell_length_a 8.870608
_cell_length_b 24.331951
_cell_length_c 29.260062
_cell_angle_alpha 90.000000
_cell_angle_beta 90.000000
_cell_angle_gamma 90.000000
_cell_volume 6315.468351
_symmetry_space_group_name_H-M "C M M M"
_symmetry_group_IT_number 65
_symmetry_cell_setting 'orthorhombic'
loop_
_space_group_symop_operation_xyz
x,y,z
-x,-y,z
x,-y,-z
-x,y,-z
-x,-y,-z
x,y,-z
-x,y,z
x,-y,z
1/2+x,1/2+y,z
1/2-x,1/2-y,z
1/2+x,1/2-y,-z
1/2-x,1/2+y,-z
1/2-x,1/2-y,-z
1/2+x,1/2+y,-z
1/2-x,1/2+y,z
1/2+x,1/2-y,z
loop_
_atom_site_type_symbol
_atom_site_label
_atom_site_fract_x
_atom_site_fract_y
_atom_site_fract_z
Si Si1 0.318798 0.936027 0.189750
Si Si2 0.681039 0.889516 0.714803
Si Si3 0.326758 0.433192 0.905924
Si Si4 0.825312 0.000000 0.676686
Si Si5 0.681913 0.689394 0.640431
Si Si6 0.825819 0.566973 0.000000
Si Si7 0.825828 0.000000 0.567457
Si Si8 0.816207 0.878294 0.449946
O O1 0.500000 0.937175 0.187633
O O2 0.275757 0.896888 0.231876
O O3 0.255613 0.917683 0.140924
O O4 0.269966 0.000000 0.198360
O O5 0.500000 0.885029 0.711798
O O6 0.738155 0.946351 0.692957
O O7 0.757704 0.841827 0.685349
O O8 0.500000 0.416301 0.904455
O O9 0.321612 0.500000 0.906934
O O10 0.251621 0.414239 0.953106
O O11 0.828539 0.000000 0.622082
O O12 0.000000 0.000000 0.692682
O O13 0.500000 0.690868 0.641487
O O14 0.750000 0.750000 0.638325
O O15 0.730046 0.655735 0.594730
O O16 0.818060 0.500000 0.000000
O O17 0.000000 0.582384 0.000000
O O18 0.760307 0.058583 0.552769
O O19 0.000000 0.000000 0.551495
O O20 0.774541 0.855361 0.500000
O O21 0.000000 0.880164 0.448020
#
# Coordination Sequence:
#
# PCOD9493287 Si02
#       8
#    16  16  16   8  16   8   8  16
#     4   9  17  29  43  63  92 124 158 194 241 298
#     4  11  21  35  53  75 101 132 164 205 254 301
#     4   9  16  24  35  55  82 115 158 205 245 281
#     4  11  19  30  51  79 104 131 165 199 242 299
#     4  11  23  39  56  76  98 128 169 209 250 300
#     4   9  15  23  35  49  73 117 164 203 242 285
#     4   9  15  27  48  78 106 128 155 193 239 290
#     4   9  17  30  51  78 105 131 161 199 244 294
#
# _framework density 16.467504999999999
#
# number of rings (size 3 to 8) (size 9 to 14) (size 15 to 20)
#    0.000    2.231    2.308    2.077    0.000    5.231 
#    0.000    0.000    0.000    1.385    0.000    1.077 
#    0.000    0.000    0.000    0.692    0.000    9.308 
#
# Total GULP energy -289782.525603 kJ/mol
# GULP energy per Si atom -5572.740877 kJ/mol
# Density = 1.643002 g / cm^3
# Si number density = 16.467505 Si / 1000 Ang^3
#
#
#
# Elastic Constant Matrix: (Units=GPa)
#
#
# Indices 1 2 3 4 5 6 
#
# 1 44.4693 24.2491 49.2578 0.0000 0.0000 0.0000
# 2 24.2491 80.5340 53.1441 0.0000 0.0000 0.0000
# 3 49.2578 53.1441 174.9943 0.0000 0.0000 0.0000
# 4 0.0000 0.0000 0.0000 2.6801 0.0000 0.0000
# 5 0.0000 0.0000 0.0000 0.0000 14.3847 0.0000
# 6 0.0000 0.0000 0.0000 0.0000 0.0000 15.1572
#
#
#
# Elastic Compliance Matrix: (Units=1/GPa)
#
#
# Indices 1 2 3 4 5 6 
#
# 1 0.034172 -0.004930 -0.008122 0.000000 0.000000 0.000000
# 2 -0.004930 0.016240 -0.003544 0.000000 0.000000 0.000000
# 3 -0.008122 -0.003544 0.009077 0.000000 0.000000 0.000000
# 4 0.000000 0.000000 0.000000 0.373120 0.000000 0.000000
# 5 0.000000 0.000000 0.000000 0.000000 0.069518 0.000000
# 6 0.000000 0.000000 0.000000 0.000000 0.000000 0.065975
#
#
# Mechanical properties :
#
#
# Convention : Reuss Voigt Hill
#
# Bulk Modulus (GPa) = 38.02646 61.47774 49.75210
# Shear Modulus (GPa) = 8.19591 18.00086 13.09839
#
# Velocity S-wave (km/s) = 2.23334 3.30981 2.82336
# Velocity P-wave (km/s) = 5.45824 7.21251 6.39581
#
# Compressibility (1/GPa) = 0.02629748
#
# Stress axis : x y z
#
# Youngs Moduli (GPa) = 29.26393 61.57459 110.16910
#
# Poissons Ratio (x) = 0.30355 0.89475
# Poissons Ratio (y) = 0.14427 0.39048
# Poissons Ratio (z) = 0.23767 0.21825
#
# Static dielectric constant tensor:
#      x y z
#    x 1.554970 0.000000 0.000000 
#    y 0.000000 1.539830 0.000000 
#    z 0.000000 0.000000 1.576350 
# 
# From -- ./inp_files/73638.got.cif
#   From: 2010.05.17/outbox.cif.g08.bks.cpg/sg65_37_cif.got.tgz:73638.got - 2010.06.03 17:01:31.
