data_PCOD9493492
_publ_section_title
;
Structure prediction by ZEFSAII (Michael W. Deem and Ramdas Pophale) SiO2 
 PCOD9493492
Probable space group: C M M M
;
_chemical_formula_sum "Si O2"
_cell_formula_units_Z 64
_cell_length_a 11.536068
_cell_length_b 35.743572
_cell_length_c 9.024200
_cell_angle_alpha 90.000000
_cell_angle_beta 90.000000
_cell_angle_gamma 90.000000
_cell_volume 3721.041129
_symmetry_space_group_name_H-M "C M M M"
_symmetry_group_IT_number 65
_symmetry_cell_setting 'orthorhombic'
loop_
_space_group_symop_operation_xyz
x,y,z
-x,-y,z
x,-y,-z
-x,y,-z
-x,-y,-z
x,y,-z
-x,y,z
x,-y,z
1/2+x,1/2+y,z
1/2-x,1/2-y,z
1/2+x,1/2-y,-z
1/2-x,1/2+y,-z
1/2-x,1/2-y,-z
1/2+x,1/2+y,-z
1/2-x,1/2+y,z
1/2+x,1/2-y,z
loop_
_atom_site_type_symbol
_atom_site_label
_atom_site_fract_x
_atom_site_fract_y
_atom_site_fract_z
Si Si1 0.863668 0.140949 0.173635
Si Si2 0.866812 0.771985 0.819745
Si Si3 0.861892 0.000000 0.169873
Si Si4 0.500000 0.956975 0.679874
Si Si5 0.751763 0.571351 0.322679
O O1 0.850593 0.184252 0.218923
O O2 0.793321 0.111002 0.266503
O O3 0.000000 0.131857 0.185829
O O4 0.831884 0.138054 0.000000
O O5 0.750000 0.750000 0.770331
O O6 0.000000 0.760866 0.772344
O O7 0.868865 0.769658 0.000000
O O8 0.819026 0.962866 0.252120
O O9 0.000000 0.000000 0.168073
O O10 0.819555 0.000000 0.000000
O O11 0.500000 0.958608 0.500000
O O12 0.384087 0.935881 0.724158
O O13 0.500000 0.000000 0.732452
O O14 0.743432 0.569162 0.500000
#
# Coordination Sequence:
#
# PCOD9493492 Si02
#       5
#    16  16   8   8  16
#     4   9  18  33  51  74 107 137 161 203 261 302
#     4   8  14  27  48  72 100 135 169 203 250 304
#     4  11  23  36  51  74 104 131 158 205 260 297
#     4   9  18  36  54  68  94 132 166 206 256 296
#     4  11  21  35  55  74  96 131 174 208 244 301
#
# _framework density 17.199487999999999
#
# number of rings (size 3 to 8) (size 9 to 14) (size 15 to 20)
#    0.000    2.500    1.250    3.375    0.000    4.500 
#    2.250    3.125    0.000    0.750    0.000    0.000 
#    0.000    0.000    0.000    0.000    0.000    0.000 
#
# Total GULP energy -178299.613092 kJ/mol
# GULP energy per Si atom -5571.862909 kJ/mol
# Density = 1.716034 g / cm^3
# Si number density = 17.199488 Si / 1000 Ang^3
#
#
#
# Elastic Constant Matrix: (Units=GPa)
#
#
# Indices 1 2 3 4 5 6 
#
# 1 128.5189 81.2028 42.3370 0.0000 0.0000 0.0000
# 2 81.2028 98.4548 36.6280 0.0000 0.0000 0.0000
# 3 42.3370 36.6280 43.5255 0.0000 0.0000 0.0000
# 4 0.0000 0.0000 0.0000 -5.6884 0.0000 0.0000
# 5 0.0000 0.0000 0.0000 0.0000 47.8818 0.0000
# 6 0.0000 0.0000 0.0000 0.0000 0.0000 34.7667
#
#
#
# Elastic Compliance Matrix: (Units=1/GPa)
#
#
# Indices 1 2 3 4 5 6 
#
# 1 0.017660 -0.011900 -0.007163 0.000000 0.000000 0.000000
# 2 -0.011900 0.022805 -0.007616 0.000000 0.000000 0.000000
# 3 -0.007163 -0.007616 0.036351 0.000000 0.000000 0.000000
# 4 0.000000 0.000000 0.000000 -0.175796 0.000000 0.000000
# 5 0.000000 0.000000 0.000000 0.000000 0.020885 0.000000
# 6 0.000000 0.000000 0.000000 0.000000 0.000000 0.028763
#
#
# Mechanical properties :
#
#
# Convention : Reuss Voigt Hill
#
# Bulk Modulus (GPa) = 42.62953 65.64832 54.13893
# Shear Modulus (GPa) = 422.05645 22.74745 222.40195
#
# Velocity S-wave (km/s) = 15.68189 3.64065 11.38367
# Velocity P-wave (km/s) = 18.78123 7.47824 14.29438
#
# Compressibility (1/GPa) = 0.02345792
#
# Stress axis : x y z
#
# Youngs Moduli (GPa) = 56.62609 43.84918 27.50924
#
# Poissons Ratio (x) = 0.52182 0.19705
# Poissons Ratio (y) = 0.67387 0.20951
# Poissons Ratio (z) = 0.40561 0.33395
#
# Static dielectric constant tensor:
#      x y z
#    x 1.579880 0.000000 0.000000 
#    y 0.000000 1.558690 0.000000 
#    z 0.000000 0.000000 1.577120 
# 
# From -- ./inp_files/4944.got.cif
#   From: 2010.05.17/outbox.cif.g08.bks.cpg/sg65_3_cif.got.tgz:4944.got - 2010.06.03 17:01:31.
