data_PCOD9493674
_publ_section_title
;
Structure prediction by ZEFSAII (Michael W. Deem and Ramdas Pophale) SiO2 
 PCOD9493674
Probable space group: C M M M
;
_chemical_formula_sum "Si O2"
_cell_formula_units_Z 88
_cell_length_a 8.692464
_cell_length_b 27.956040
_cell_length_c 22.055259
_cell_angle_alpha 90.000000
_cell_angle_beta 90.000000
_cell_angle_gamma 90.000000
_cell_volume 5359.579485
_symmetry_space_group_name_H-M "C M M M"
_symmetry_group_IT_number 65
_symmetry_cell_setting 'orthorhombic'
loop_
_space_group_symop_operation_xyz
x,y,z
-x,-y,z
x,-y,-z
-x,y,-z
-x,-y,-z
x,y,-z
-x,y,z
x,-y,z
1/2+x,1/2+y,z
1/2-x,1/2-y,z
1/2+x,1/2-y,-z
1/2-x,1/2+y,-z
1/2-x,1/2-y,-z
1/2+x,1/2+y,-z
1/2-x,1/2+y,z
1/2+x,1/2-y,z
loop_
_atom_site_type_symbol
_atom_site_label
_atom_site_fract_x
_atom_site_fract_y
_atom_site_fract_z
Si Si1 0.319216 0.942410 0.000000
Si Si2 0.686030 0.605512 0.749076
Si Si3 0.813442 0.946827 0.626017
Si Si4 0.185443 0.055613 0.872721
Si Si5 0.682970 0.198639 0.312068
Si Si6 0.686247 0.347660 0.431564
O O1 0.246196 0.925365 0.936986
O O2 0.500000 0.933202 0.000000
O O3 0.294171 0.000000 0.000000
O O4 0.500000 0.609413 0.748644
O O5 0.727037 0.568945 0.694575
O O6 0.735377 0.585394 0.814041
O O7 0.755818 0.656376 0.731057
O O8 0.767399 0.902643 0.583322
O O9 0.000000 0.948539 0.623220
O O10 0.755983 0.000000 0.611355
O O11 0.000000 0.055897 0.874282
O O12 0.234209 0.000000 0.865723
O O13 0.500000 0.199777 0.311395
O O14 0.750000 0.250000 0.294932
O O15 0.741663 0.184850 0.379479
O O16 0.729476 0.334772 0.500000
O O17 0.500000 0.345116 0.426323
#
# Coordination Sequence:
#
# PCOD9493674 Si02
#       6
#     8  16  16  16  16  16
#     4   9  17  27  39  61  98 139 172 201 231 265
#     4   9  17  30  48  71  96 121 154 195 235 275
#     4   8  13  23  42  68  95 121 151 187 224 263
#     4   9  16  27  46  71  99 132 167 199 229 264
#     4  11  22  36  53  70  90 116 148 190 239 288
#     4   9  18  32  49  70  95 121 152 190 230 275
#
# _framework density 16.419198000000002
#
# number of rings (size 3 to 8) (size 9 to 14) (size 15 to 20)
#    0.000    2.818    0.000    3.545    0.000    5.091 
#    0.000    1.818    0.000   13.091    0.000    5.727 
#    0.000    0.000    0.000    0.000    0.000    0.000 
#
# Total GULP energy -245227.849996 kJ/mol
# GULP energy per Si atom -5573.360227 kJ/mol
# Density = 1.638183 g / cm^3
# Si number density = 16.419198 Si / 1000 Ang^3
#
#
#
# Elastic Constant Matrix: (Units=GPa)
#
#
# Indices 1 2 3 4 5 6 
#
# 1 17.8386 9.2766 24.0909 0.0000 0.0000 0.0000
# 2 9.2766 60.9894 18.2791 0.0000 0.0000 0.0000
# 3 24.0909 18.2791 111.3144 0.0000 0.0000 0.0000
# 4 0.0000 0.0000 0.0000 9.6512 0.0000 0.0000
# 5 0.0000 0.0000 0.0000 0.0000 16.0381 0.0000
# 6 0.0000 0.0000 0.0000 0.0000 0.0000 18.6014
#
#
#
# Elastic Compliance Matrix: (Units=1/GPa)
#
#
# Indices 1 2 3 4 5 6 
#
# 1 0.082395 -0.007560 -0.016591 0.000000 0.000000 0.000000
# 2 -0.007560 0.017939 -0.001310 0.000000 0.000000 0.000000
# 3 -0.016591 -0.001310 0.012789 0.000000 0.000000 0.000000
# 4 0.000000 0.000000 0.000000 0.103614 0.000000 0.000000
# 5 0.000000 0.000000 0.000000 0.000000 0.062352 0.000000
# 6 0.000000 0.000000 0.000000 0.000000 0.000000 0.053759
#
#
# Mechanical properties :
#
#
# Convention : Reuss Voigt Hill
#
# Bulk Modulus (GPa) = 16.07654 32.60397 24.34026
# Shear Modulus (GPa) = 12.36084 18.09119 15.22602
#
# Velocity S-wave (km/s) = 2.74675 3.32299 3.04851
# Velocity P-wave (km/s) = 4.45781 5.88416 5.21993
#
# Compressibility (1/GPa) = 0.06220244
#
# Stress axis : x y z
#
# Youngs Moduli (GPa) = 12.13661 55.74549 78.19081
#
# Poissons Ratio (x) = 0.42144 1.29724
# Poissons Ratio (y) = 0.09175 0.10240
# Poissons Ratio (z) = 0.20136 0.07300
#
# Static dielectric constant tensor:
#      x y z
#    x 1.555370 0.000000 0.000000 
#    y 0.000000 1.543770 0.000000 
#    z 0.000000 0.000000 1.550270 
# 
# From -- ./inp_files/59788.got.cif
#   From: 2010.05.17/outbox.cif.g08.bks.cpg/sg65_30_cif.got.tgz:59788.got - 2010.06.03 17:01:31.
