data_PCOD9493949
_publ_section_title
;
Structure prediction by ZEFSAII (Michael W. Deem and Ramdas Pophale) SiO2 
 PCOD9493949
Probable space group: C M M M
;
_chemical_formula_sum "Si O2"
_cell_formula_units_Z 64
_cell_length_a 8.826182
_cell_length_b 18.152419
_cell_length_c 21.229810
_cell_angle_alpha 90.000000
_cell_angle_beta 90.000000
_cell_angle_gamma 90.000000
_cell_volume 3401.366997
_symmetry_space_group_name_H-M "C M M M"
_symmetry_group_IT_number 65
_symmetry_cell_setting 'orthorhombic'
loop_
_space_group_symop_operation_xyz
x,y,z
-x,-y,z
x,-y,-z
-x,y,-z
-x,-y,-z
x,y,-z
-x,y,z
x,-y,z
1/2+x,1/2+y,z
1/2-x,1/2-y,z
1/2+x,1/2-y,-z
1/2-x,1/2+y,-z
1/2-x,1/2-y,-z
1/2+x,1/2+y,-z
1/2-x,1/2+y,z
1/2+x,1/2-y,z
loop_
_atom_site_type_symbol
_atom_site_label
_atom_site_fract_x
_atom_site_fract_y
_atom_site_fract_z
Si Si1 0.181420 0.331778 0.000000
Si Si2 0.320034 0.412215 0.878975
Si Si3 0.176160 0.910601 0.500000
Si Si4 0.182016 0.585676 0.630969
Si Si5 0.317384 0.831480 0.758808
O O1 0.250000 0.250000 0.000000
O O2 0.241153 0.373977 0.938402
O O3 0.000000 0.328570 0.000000
O O4 0.500000 0.396642 0.880373
O O5 0.299025 0.500000 0.881957
O O6 0.248227 0.380204 0.815387
O O7 0.251819 0.885684 0.565056
O O8 0.000000 0.891981 0.500000
O O9 0.191545 0.000000 0.500000
O O10 0.229370 0.500000 0.639499
O O11 0.226412 0.632542 0.691813
O O12 0.000000 0.586360 0.626511
O O13 0.500000 0.829493 0.762720
O O14 0.250000 0.750000 0.763914
#
# Coordination Sequence:
#
# PCOD9493949 Si02
#       5
#     8  16   8  16  16
#     4  12  25  42  65  91 123 159 195 236 283 338
#     4  11  24  42  64  90 120 153 192 239 288 339
#     4   9  17  29  50  81 112 141 179 231 286 339
#     4   9  18  34  56  80 108 145 188 233 282 340
#     4  11  23  39  59  84 116 153 194 238 288 345
#
# _framework density 18.815964999999998
#
# number of rings (size 3 to 8) (size 9 to 14) (size 15 to 20)
#    0.000    1.625    0.000    4.875    0.000    8.000 
#    0.000    3.125    0.000    0.000    0.000    0.000 
#    0.000    0.000    0.000    0.000    0.000    0.000 
#
# Total GULP energy -178868.820408 kJ/mol
# GULP energy per Si atom -5589.650638 kJ/mol
# Density = 1.877314 g / cm^3
# Si number density = 18.815965 Si / 1000 Ang^3
#
#
#
# Elastic Constant Matrix: (Units=GPa)
#
#
# Indices 1 2 3 4 5 6 
#
# 1 102.9096 67.4875 86.0719 0.0000 0.0000 0.0000
# 2 67.4875 91.8973 74.4672 0.0000 0.0000 0.0000
# 3 86.0719 74.4672 199.2759 0.0000 0.0000 0.0000
# 4 0.0000 0.0000 0.0000 -205.7753 0.0000 0.0000
# 5 0.0000 0.0000 0.0000 0.0000 78.0839 0.0000
# 6 0.0000 0.0000 0.0000 0.0000 0.0000 23.9031
#
#
#
# Elastic Compliance Matrix: (Units=1/GPa)
#
#
# Indices 1 2 3 4 5 6 
#
# 1 0.021618 -0.011918 -0.004883 0.000000 0.000000 0.000000
# 2 -0.011918 0.022179 -0.003140 0.000000 0.000000 0.000000
# 3 -0.004883 -0.003140 0.008301 0.000000 0.000000 0.000000
# 4 0.000000 0.000000 0.000000 -0.004860 0.000000 0.000000
# 5 0.000000 0.000000 0.000000 0.000000 0.012807 0.000000
# 6 0.000000 0.000000 0.000000 0.000000 0.000000 0.041836
#
#
# Mechanical properties :
#
#
# Convention : Reuss Voigt Hill
#
# Bulk Modulus (GPa) = 81.87664 94.45956 88.16810
# Shear Modulus (GPa) = 34.28525 -9.68725 12.29900
#
# Velocity S-wave (km/s) = 4.27328 -2.27147 2.55943
# Velocity P-wave (km/s) = 8.24359 6.59025 7.46285
#
# Compressibility (1/GPa) = 0.01221350
#
# Stress axis : x y z
#
# Youngs Moduli (GPa) = 46.25839 45.08783 120.46934
#
# Poissons Ratio (x) = 0.53738 0.58830
# Poissons Ratio (y) = 0.55133 0.37829
# Poissons Ratio (z) = 0.22590 0.14158
#
# Static dielectric constant tensor:
#      x y z
#    x 1.631750 0.000000 0.000000 
#    y 0.000000 1.628960 0.000000 
#    z 0.000000 0.000000 1.625900 
# 
# From -- ./inp_files/66757.got.cif
#   From: 2010.05.17/outbox.cif.g08.bks.cpg/sg65_34_cif.got.tgz:66757.got - 2010.06.03 17:01:31.
