data_PCOD9493717
_publ_section_title
;
Structure prediction by ZEFSAII (Michael W. Deem and Ramdas Pophale) SiO2 
 PCOD9493717
Probable space group: C M M M
;
_chemical_formula_sum "Si O2"
_cell_formula_units_Z 88
_cell_length_a 13.255987
_cell_length_b 31.544677
_cell_length_c 11.843557
_cell_angle_alpha 90.000000
_cell_angle_beta 90.000000
_cell_angle_gamma 90.000000
_cell_volume 4952.452387
_symmetry_space_group_name_H-M "C M M M"
_symmetry_group_IT_number 65
_symmetry_cell_setting 'orthorhombic'
loop_
_space_group_symop_operation_xyz
x,y,z
-x,-y,z
x,-y,-z
-x,y,-z
-x,-y,-z
x,y,-z
-x,y,z
x,-y,z
1/2+x,1/2+y,z
1/2-x,1/2-y,z
1/2+x,1/2-y,-z
1/2-x,1/2+y,-z
1/2-x,1/2-y,-z
1/2+x,1/2+y,-z
1/2-x,1/2+y,z
1/2+x,1/2-y,z
loop_
_atom_site_type_symbol
_atom_site_label
_atom_site_fract_x
_atom_site_fract_y
_atom_site_fract_z
Si Si1 0.000000 0.448986 0.374773
Si Si2 0.781923 0.373933 0.135000
Si Si3 0.382419 0.328755 0.500000
Si Si4 0.229768 0.549277 0.709415
Si Si5 0.500000 0.254512 0.136077
Si Si6 0.000000 0.657312 0.865707
Si Si7 0.688358 0.706654 0.260845
Si Si8 0.121891 0.930844 0.500000
O O1 0.887215 0.440356 0.325844
O O2 0.000000 0.500000 0.381169
O O3 0.000000 0.429877 0.500000
O O4 0.743298 0.416520 0.194626
O O5 0.737255 0.331739 0.191202
O O6 0.900642 0.368688 0.160551
O O7 0.766660 0.374383 0.000000
O O8 0.500000 0.317149 0.500000
O O9 0.335611 0.310429 0.385551
O O10 0.374636 0.379675 0.500000
O O11 0.230998 0.500000 0.745759
O O12 0.311466 0.554088 0.607878
O O13 0.500000 0.205505 0.178398
O O14 0.406214 0.278861 0.187355
O O15 0.500000 0.255118 0.000000
O O16 0.000000 0.662965 0.000000
O O17 0.750000 0.750000 0.271621
O O18 0.000000 0.942543 0.500000
#
# Coordination Sequence:
#
# PCOD9493717 Si02
#       8
#     8  16   8  16   8   8  16   8
#     4   9  17  32  59  91 118 151 194 242 297 358
#     4  11  23  39  61  90 122 158 201 249 300 356
#     4  11  23  42  62  85 122 160 192 252 313 357
#     4  11  22  39  63  89 122 159 200 251 307 367
#     4  11  22  36  60  91 119 160 207 245 290 348
#     4   9  19  37  59  86 123 158 195 245 292 347
#     4  12  23  39  63  88 121 159 203 247 297 364
#     4  11  23  40  64  90 115 157 207 251 306 366
#
# _framework density 17.768975999999999
#
# number of rings (size 3 to 8) (size 9 to 14) (size 15 to 20)
#    0.000    1.182    5.455    1.636    0.000    1.818 
#    0.000    0.000    0.000    3.273    0.000    1.273 
#    0.000    0.000    0.000    0.000    0.000    0.000 
#
# Total GULP energy -245152.970496 kJ/mol
# GULP energy per Si atom -5571.658420 kJ/mol
# Density = 1.772853 g / cm^3
# Si number density = 17.768976 Si / 1000 Ang^3
#
#
#
# Elastic Constant Matrix: (Units=GPa)
#
#
# Indices 1 2 3 4 5 6 
#
# 1 96.7848 40.8838 42.9951 0.0000 0.0000 0.0000
# 2 40.8838 132.9684 69.2402 0.0000 0.0000 0.0000
# 3 42.9951 69.2402 116.7724 0.0000 0.0000 0.0000
# 4 0.0000 0.0000 0.0000 3.7702 0.0000 0.0000
# 5 0.0000 0.0000 0.0000 0.0000 23.8236 0.0000
# 6 0.0000 0.0000 0.0000 0.0000 0.0000 25.6427
#
#
#
# Elastic Compliance Matrix: (Units=1/GPa)
#
#
# Indices 1 2 3 4 5 6 
#
# 1 0.012759 -0.002136 -0.003431 0.000000 0.000000 0.000000
# 2 -0.002136 0.011238 -0.005877 0.000000 0.000000 0.000000
# 3 -0.003431 -0.005877 0.013312 0.000000 0.000000 0.000000
# 4 0.000000 0.000000 0.000000 0.265240 0.000000 0.000000
# 5 0.000000 0.000000 0.000000 0.000000 0.041975 0.000000
# 6 0.000000 0.000000 0.000000 0.000000 0.000000 0.038998
#
#
# Mechanical properties :
#
#
# Convention : Reuss Voigt Hill
#
# Bulk Modulus (GPa) = 69.34902 72.52930 70.93916
# Shear Modulus (GPa) = 12.15908 23.54106 17.85007
#
# Velocity S-wave (km/s) = 2.61873 3.64378 3.17292
# Velocity P-wave (km/s) = 6.94669 7.65568 7.30979
#
# Compressibility (1/GPa) = 0.01441981
#
# Stress axis : x y z
#
# Youngs Moduli (GPa) = 78.37730 88.98672 75.12261
#
# Poissons Ratio (x) = 0.19011 0.25774
# Poissons Ratio (y) = 0.16744 0.44148
# Poissons Ratio (z) = 0.26891 0.52295
#
# Static dielectric constant tensor:
#      x y z
#    x 1.618740 0.000000 0.000000 
#    y 0.000000 1.621630 0.000000 
#    z 0.000000 0.000000 1.593830 
# 
# From -- ./inp_files/23071.got.cif
#   From: 2010.05.17/outbox.cif.g08.bks.cpg/sg65_12_cif.got.tgz:23071.got - 2010.06.03 17:01:31.
