data_PCOD9493219
_publ_section_title
;
Structure prediction by ZEFSAII (Michael W. Deem and Ramdas Pophale) SiO2 
 PCOD9493219
Probable space group: C M M M
;
_chemical_formula_sum "Si O2"
_cell_formula_units_Z 64
_cell_length_a 24.333300
_cell_length_b 8.603674
_cell_length_c 15.824151
_cell_angle_alpha 90.000000
_cell_angle_beta 90.000000
_cell_angle_gamma 90.000000
_cell_volume 3312.877484
_symmetry_space_group_name_H-M "C M M M"
_symmetry_group_IT_number 65
_symmetry_cell_setting 'orthorhombic'
loop_
_space_group_symop_operation_xyz
x,y,z
-x,-y,z
x,-y,-z
-x,y,-z
-x,-y,-z
x,y,-z
-x,y,z
x,-y,z
1/2+x,1/2+y,z
1/2-x,1/2-y,z
1/2+x,1/2-y,-z
1/2-x,1/2+y,-z
1/2-x,1/2-y,-z
1/2+x,1/2+y,-z
1/2-x,1/2+y,z
1/2+x,1/2-y,z
loop_
_atom_site_type_symbol
_atom_site_label
_atom_site_fract_x
_atom_site_fract_y
_atom_site_fract_z
Si Si1 0.500000 0.314205 0.399597
Si Si2 0.311455 0.812508 0.500000
Si Si3 0.116340 0.686483 0.339157
Si Si4 0.500000 0.688857 0.097787
Si Si5 0.119654 0.186911 0.842011
Si Si6 0.188311 0.314307 0.000000
O O1 0.500000 0.500000 0.388547
O O2 0.500000 0.278944 0.500000
O O3 0.554966 0.245818 0.358712
O O4 0.250000 0.750000 0.500000
O O5 0.344926 0.762848 0.416707
O O6 0.310103 0.000000 0.500000
O O7 0.116044 0.500000 0.335684
O O8 0.136167 0.753881 0.250097
O O9 0.500000 0.500000 0.098004
O O10 0.443587 0.737979 0.141617
O O11 0.500000 0.738974 0.000000
O O12 0.121616 0.000000 0.845015
O O13 0.156491 0.253266 0.917277
O O14 0.250000 0.250000 0.000000
O O15 0.188864 0.500000 0.000000
#
# Coordination Sequence:
#
# PCOD9493219 Si02
#       6
#     8   8  16   8  16   8
#     4  11  22  37  62  95 127 165 210 259 318 380
#     4  10  24  43  64  87 119 162 208 258 313 366
#     4  11  23  41  63  92 128 167 207 257 316 378
#     4   9  17  34  61  90 124 160 196 239 300 365
#     4  11  22  40  66  96 128 166 207 256 311 374
#     4  12  26  45  66  91 123 166 216 266 316 372
#
# _framework density 19.318552
#
# number of rings (size 3 to 8) (size 9 to 14) (size 15 to 20)
#    0.000    1.250    2.500    3.750    0.000    4.500 
#    0.000    5.000    0.000    0.000    0.000    0.000 
#    0.000    0.000    0.000    0.000    0.000    0.000 
#
# Total GULP energy -178975.186992 kJ/mol
# GULP energy per Si atom -5592.974594 kJ/mol
# Density = 1.927458 g / cm^3
# Si number density = 19.318552 Si / 1000 Ang^3
#
#
#
# Elastic Constant Matrix: (Units=GPa)
#
#
# Indices 1 2 3 4 5 6 
#
# 1 156.8132 41.0353 95.0781 0.0000 0.0000 0.0000
# 2 41.0353 74.9287 61.5649 0.0000 0.0000 0.0000
# 3 95.0781 61.5649 205.9623 0.0000 0.0000 0.0000
# 4 0.0000 0.0000 0.0000 35.9371 0.0000 0.0000
# 5 0.0000 0.0000 0.0000 0.0000 -5.2675 0.0000
# 6 0.0000 0.0000 0.0000 0.0000 0.0000 33.1561
#
#
#
# Elastic Compliance Matrix: (Units=1/GPa)
#
#
# Indices 1 2 3 4 5 6 
#
# 1 0.009082 -0.002027 -0.003587 0.000000 0.000000 0.000000
# 2 -0.002027 0.018143 -0.004488 0.000000 0.000000 0.000000
# 3 -0.003587 -0.004488 0.007852 0.000000 0.000000 0.000000
# 4 0.000000 0.000000 0.000000 0.027826 0.000000 0.000000
# 5 0.000000 0.000000 0.000000 0.000000 -0.189842 0.000000
# 6 0.000000 0.000000 0.000000 0.000000 0.000000 0.030160
#
#
# Mechanical properties :
#
#
# Convention : Reuss Voigt Hill
#
# Bulk Modulus (GPa) = 67.22514 92.56233 79.89373
# Shear Modulus (GPa) = -69.81599 28.76685 -20.52457
#
# Velocity S-wave (km/s) = -6.01812 3.86305 -3.26303
# Velocity P-wave (km/s) = 3.66287 8.24107 5.22008
#
# Compressibility (1/GPa) = 0.01487539
#
# Stress axis : x y z
#
# Youngs Moduli (GPa) = 110.10703 55.11685 127.34997
#
# Poissons Ratio (x) = 0.11172 0.45676
# Poissons Ratio (y) = 0.22317 0.57150
# Poissons Ratio (z) = 0.39492 0.24734
#
# Static dielectric constant tensor:
#      x y z
#    x 1.353910 0.000000 0.000000 
#    y 0.000000 1.654220 0.000000 
#    z 0.000000 0.000000 1.667180 
# 
# From -- ./inp_files/45170.got.cif
#   From: 2010.05.17/outbox.cif.g08.bks.cpg/sg65_23_cif.got.tgz:45170.got - 2010.06.03 17:01:31.
