data_PCOD9493456
_publ_section_title
;
Structure prediction by ZEFSAII (Michael W. Deem and Ramdas Pophale) SiO2 
 PCOD9493456
Probable space group: C M M M
;
_chemical_formula_sum "Si O2"
_cell_formula_units_Z 104
_cell_length_a 29.749740
_cell_length_b 9.215511
_cell_length_c 23.424738
_cell_angle_alpha 90.000000
_cell_angle_beta 90.000000
_cell_angle_gamma 90.000000
_cell_volume 6422.104062
_symmetry_space_group_name_H-M "C M M M"
_symmetry_group_IT_number 65
_symmetry_cell_setting 'orthorhombic'
loop_
_space_group_symop_operation_xyz
x,y,z
-x,-y,z
x,-y,-z
-x,y,-z
-x,-y,-z
x,y,-z
-x,y,z
x,-y,z
1/2+x,1/2+y,z
1/2-x,1/2-y,z
1/2+x,1/2-y,-z
1/2-x,1/2+y,-z
1/2-x,1/2-y,-z
1/2+x,1/2+y,-z
1/2-x,1/2+y,z
1/2+x,1/2-y,z
loop_
_atom_site_type_symbol
_atom_site_label
_atom_site_fract_x
_atom_site_fract_y
_atom_site_fract_z
Si Si1 0.946587 0.825803 0.292228
Si Si2 0.104389 0.324955 0.394274
Si Si3 0.293152 0.835183 0.930662
Si Si4 0.446148 0.666545 0.838459
Si Si5 0.946099 0.174068 0.500000
Si Si6 0.295925 0.173342 0.567395
Si Si7 0.392695 0.824649 0.065475
O O1 0.916832 0.736222 0.336245
O O2 0.934520 0.790993 0.226515
O O3 0.000000 0.796143 0.300603
O O4 0.940864 0.000000 0.300214
O O5 0.100118 0.500000 0.398351
O O6 0.076783 0.248337 0.445189
O O7 0.157367 0.288509 0.401545
O O8 0.250000 0.750000 0.909557
O O9 0.342355 0.773448 0.918293
O O10 0.291044 0.000000 0.910173
O O11 0.291094 0.838946 0.000000
O O12 0.500000 0.668927 0.841286
O O13 0.431412 0.500000 0.847292
O O14 0.426210 0.765173 0.887728
O O15 0.000000 0.197240 0.500000
O O16 0.938432 0.000000 0.500000
O O17 0.301955 0.209201 0.500000
O O18 0.250000 0.250000 0.587148
O O19 0.290084 0.000000 0.571616
O O20 0.391922 0.000000 0.065536
O O21 0.402708 0.779647 0.000000
#
# Coordination Sequence:
#
# PCOD9493456 Si02
#       7
#    16  16  16  16   8  16  16
#     4   9  19  36  54  72  97 130 168 206 245 296
#     4  11  21  34  52  77 105 130 162 207 253 292
#     4   8  14  25  41  63  92 123 153 187 230 281
#     4   9  19  35  52  70  95 128 167 209 246 287
#     4  11  23  35  48  71 104 139 170 199 238 291
#     4   9  18  33  50  72 102 132 164 203 245 291
#     4   9  18  31  47  71 102 130 158 199 250 300
#
# _framework density 16.194068999999999
#
# number of rings (size 3 to 8) (size 9 to 14) (size 15 to 20)
#    0.000    2.692    0.769    3.000    0.000    6.154 
#    0.000    4.615    0.000    0.923    0.000    0.000 
#    0.000    0.000    0.000    0.000    0.000    0.000 
#
# Total GULP energy -289693.939080 kJ/mol
# GULP energy per Si atom -5571.037290 kJ/mol
# Density = 1.615721 g / cm^3
# Si number density = 16.194069 Si / 1000 Ang^3
#
#
#
# Elastic Constant Matrix: (Units=GPa)
#
#
# Indices 1 2 3 4 5 6 
#
# 1 98.8735 48.6343 63.9326 0.0000 0.0000 0.0000
# 2 48.6343 46.6454 46.5384 0.0000 0.0000 0.0000
# 3 63.9326 46.5384 93.7393 0.0000 0.0000 0.0000
# 4 0.0000 0.0000 0.0000 24.1908 0.0000 0.0000
# 5 0.0000 0.0000 0.0000 0.0000 -1.7254 0.0000
# 6 0.0000 0.0000 0.0000 0.0000 0.0000 32.9017
#
#
#
# Elastic Compliance Matrix: (Units=1/GPa)
#
#
# Indices 1 2 3 4 5 6 
#
# 1 0.023177 -0.016633 -0.007550 0.000000 0.000000 0.000000
# 2 -0.016633 0.054416 -0.015672 0.000000 0.000000 0.000000
# 3 -0.007550 -0.015672 0.023597 0.000000 0.000000 0.000000
# 4 0.000000 0.000000 0.000000 0.041338 0.000000 0.000000
# 5 0.000000 0.000000 0.000000 0.000000 -0.579585 0.000000
# 6 0.000000 0.000000 0.000000 0.000000 0.000000 0.030394
#
#
# Mechanical properties :
#
#
# Convention : Reuss Voigt Hill
#
# Bulk Modulus (GPa) = 46.55047 61.94099 54.24573
# Shear Modulus (GPa) = -15.63510 16.41695 0.39092
#
# Velocity S-wave (km/s) = -3.11059 3.18742 0.49186
# Velocity P-wave (km/s) = 3.98832 7.20267 5.82173
#
# Compressibility (1/GPa) = 0.02148206
#
# Stress axis : x y z
#
# Youngs Moduli (GPa) = 43.14594 18.37685 42.37749
#
# Poissons Ratio (x) = 0.30566 0.31994
# Poissons Ratio (y) = 0.71765 0.66413
# Poissons Ratio (z) = 0.32574 0.28800
#
# Static dielectric constant tensor:
#      x y z
#    x 1.547400 0.000000 0.000000 
#    y 0.000000 1.515380 0.000000 
#    z 0.000000 0.000000 1.523770 
# 
# From -- ./inp_files/71850.got.cif
#   From: 2010.05.17/outbox.cif.g08.bks.cpg/sg65_36_cif.got.tgz:71850.got - 2010.06.03 17:01:31.
