data_PCOD9493732
_publ_section_title
;
Structure prediction by ZEFSAII (Michael W. Deem and Ramdas Pophale) SiO2 
 PCOD9493732
Probable space group: C M M M
;
_chemical_formula_sum "Si O2"
_cell_formula_units_Z 88
_cell_length_a 18.834065
_cell_length_b 8.433631
_cell_length_c 29.840301
_cell_angle_alpha 90.000000
_cell_angle_beta 90.000000
_cell_angle_gamma 90.000000
_cell_volume 4739.820115
_symmetry_space_group_name_H-M "C M M M"
_symmetry_group_IT_number 65
_symmetry_cell_setting 'orthorhombic'
loop_
_space_group_symop_operation_xyz
x,y,z
-x,-y,z
x,-y,-z
-x,y,-z
-x,-y,-z
x,y,-z
-x,y,z
x,-y,z
1/2+x,1/2+y,z
1/2-x,1/2-y,z
1/2+x,1/2-y,-z
1/2-x,1/2+y,-z
1/2-x,1/2-y,-z
1/2+x,1/2+y,-z
1/2-x,1/2+y,z
1/2+x,1/2-y,z
loop_
_atom_site_type_symbol
_atom_site_label
_atom_site_fract_x
_atom_site_fract_y
_atom_site_fract_z
Si Si1 0.417568 0.693793 0.672480
Si Si2 0.913820 0.814887 0.229304
Si Si3 0.582155 0.809711 0.500000
Si Si4 0.330512 0.191779 0.950510
Si Si5 0.581247 0.809569 0.865414
Si Si6 0.830473 0.809612 0.585529
O O1 0.500000 0.741741 0.665602
O O2 0.417787 0.500000 0.673757
O O3 0.391835 0.747877 0.721762
O O4 0.368277 0.744556 0.631589
O O5 0.889099 0.734616 0.183516
O O6 0.000000 0.802940 0.230143
O O7 0.895414 0.000000 0.226608
O O8 0.500000 0.755852 0.500000
O O9 0.623292 0.749410 0.543741
O O10 0.582938 0.000000 0.500000
O O11 0.250000 0.250000 0.946861
O O12 0.374987 0.250156 0.908013
O O13 0.330886 0.000000 0.949504
O O14 0.357761 0.240218 0.000000
O O15 0.500000 0.750897 0.868003
O O16 0.579395 0.000000 0.867909
O O17 0.750000 0.750000 0.582422
O O18 0.830156 0.000000 0.585142
#
# Coordination Sequence:
#
# PCOD9493732 Si02
#       6
#    16  16   8  16  16  16
#     4   8  15  30  53  77  98 127 170 211 244 288
#     4   8  14  27  48  72  97 126 161 200 242 288
#     4  11  24  41  60  83 109 135 170 215 258 303
#     4   9  18  32  48  65  88 121 158 195 237 286
#     4   9  17  29  46  70  97 122 153 196 244 291
#     4  11  22  37  57  80 109 142 175 211 254 301
#
# _framework density 18.566105
#
# number of rings (size 3 to 8) (size 9 to 14) (size 15 to 20)
#    0.000    2.818    0.000    2.727    0.000    2.545 
#    0.000    4.545    0.000    8.727    0.000    5.091 
#    0.000    0.000    0.000    0.000    0.000    0.000 
#
# Total GULP energy -245221.656664 kJ/mol
# GULP energy per Si atom -5573.219470 kJ/mol
# Density = 1.852385 g / cm^3
# Si number density = 18.566105 Si / 1000 Ang^3
#
#
#
# Elastic Constant Matrix: (Units=GPa)
#
#
# Indices 1 2 3 4 5 6 
#
# 1 92.4984 15.7901 94.9613 0.0000 0.0000 0.0000
# 2 15.7901 14.6406 28.9761 0.0000 0.0000 0.0000
# 3 94.9613 28.9761 227.1979 0.0000 0.0000 0.0000
# 4 0.0000 0.0000 0.0000 17.6090 0.0000 0.0000
# 5 0.0000 0.0000 0.0000 0.0000 -10.5876 0.0000
# 6 0.0000 0.0000 0.0000 0.0000 0.0000 12.3333
#
#
#
# Elastic Compliance Matrix: (Units=1/GPa)
#
#
# Indices 1 2 3 4 5 6 
#
# 1 0.019391 -0.006518 -0.007273 0.000000 0.000000 0.000000
# 2 -0.006518 0.093556 -0.009208 0.000000 0.000000 0.000000
# 3 -0.007273 -0.009208 0.008616 0.000000 0.000000 0.000000
# 4 0.000000 0.000000 0.000000 0.056789 0.000000 0.000000
# 5 0.000000 0.000000 0.000000 0.000000 -0.094450 0.000000
# 6 0.000000 0.000000 0.000000 0.000000 0.000000 0.081082
#
#
# Mechanical properties :
#
#
# Convention : Reuss Voigt Hill
#
# Bulk Modulus (GPa) = 13.23370 68.19909 40.71639
# Shear Modulus (GPa) = 21.17127 16.84489 19.00808
#
# Velocity S-wave (km/s) = 3.38052 3.01540 3.20317
# Velocity P-wave (km/s) = 4.73081 6.99545 5.97147
#
# Compressibility (1/GPa) = 0.07556468
#
# Stress axis : x y z
#
# Youngs Moduli (GPa) = 51.57103 10.68879 116.06593
#
# Poissons Ratio (x) = 0.06967 0.84420
# Poissons Ratio (y) = 0.33614 1.06868
# Poissons Ratio (z) = 0.37510 0.09842
#
# Static dielectric constant tensor:
#      x y z
#    x 1.615460 0.000000 0.000000 
#    y 0.000000 1.645250 0.000000 
#    z 0.000000 0.000000 1.670200 
# 
# From -- ./inp_files/77932.got.cif
#   From: 2010.05.17/outbox.cif.g08.bks.cpg/sg65_39_cif.got.tgz:77932.got - 2010.06.03 17:01:31.
