data_PCOD9493089
_publ_section_title
;
Structure prediction by ZEFSAII (Michael W. Deem and Ramdas Pophale) SiO2 
 PCOD9493089
Probable space group: C M M M
;
_chemical_formula_sum "Si O2"
_cell_formula_units_Z 56
_cell_length_a 33.628770
_cell_length_b 11.919154
_cell_length_c 7.323719
_cell_angle_alpha 90.000000
_cell_angle_beta 90.000000
_cell_angle_gamma 90.000000
_cell_volume 2935.540569
_symmetry_space_group_name_H-M "C M M M"
_symmetry_group_IT_number 65
_symmetry_cell_setting 'orthorhombic'
loop_
_space_group_symop_operation_xyz
x,y,z
-x,-y,z
x,-y,-z
-x,y,-z
-x,-y,-z
x,y,-z
-x,y,z
x,-y,z
1/2+x,1/2+y,z
1/2-x,1/2-y,z
1/2+x,1/2-y,-z
1/2-x,1/2+y,-z
1/2-x,1/2-y,-z
1/2+x,1/2+y,-z
1/2-x,1/2+y,z
1/2+x,1/2-y,z
loop_
_atom_site_type_symbol
_atom_site_label
_atom_site_fract_x
_atom_site_fract_y
_atom_site_fract_z
Si Si1 0.345181 0.371460 0.784746
Si Si2 0.546193 0.000000 0.222527
Si Si3 0.275231 0.632717 0.500000
Si Si4 0.500000 0.372170 0.222672
Si Si5 0.578050 0.237726 0.222600
O O1 0.359535 0.500000 0.761765
O O2 0.304671 0.360380 0.673590
O O3 0.380119 0.289548 0.719840
O O4 0.338287 0.353245 0.000000
O O5 0.568973 0.111426 0.279773
O O6 0.500000 0.000000 0.280559
O O7 0.545113 0.000000 0.000000
O O8 0.258830 0.500000 0.500000
O O9 0.250000 0.750000 0.500000
O O10 0.500000 0.500000 0.280600
O O11 0.540106 0.310464 0.280803
O O12 0.500000 0.369523 0.000000
O O13 0.578553 0.240490 0.000000
#
# Coordination Sequence:
#
# PCOD9493089 Si02
#       5
#    16   8   8   8  16
#     4   9  18  34  57  83 110 141 178 221 268 317
#     4   9  14  22  36  61 103 147 182 221 263 304
#     4  10  22  42  64  85 112 141 171 216 275 336
#     4   9  14  19  33  60  94 132 175 220 256 296
#     4   9  15  24  40  66 101 139 180 219 259 307
#
# _framework density 19.076556
#
# number of rings (size 3 to 8) (size 9 to 14) (size 15 to 20)
#    0.000    2.857    1.429    0.857    0.000    4.000 
#    2.571    0.000    0.000    0.857    0.000    5.000 
#    0.000    0.000    0.000    0.000    0.000    0.000 
#
# Total GULP energy -156141.106496 kJ/mol
# GULP energy per Si atom -5576.468089 kJ/mol
# Density = 1.903314 g / cm^3
# Si number density = 19.076556 Si / 1000 Ang^3
#
#
#
# Elastic Constant Matrix: (Units=GPa)
#
#
# Indices 1 2 3 4 5 6 
#
# 1 84.2472 81.2699 24.1092 0.0000 0.0000 0.0000
# 2 81.2699 185.5479 30.3743 0.0000 0.0000 0.0000
# 3 24.1092 30.3743 77.4800 0.0000 0.0000 0.0000
# 4 0.0000 0.0000 0.0000 2.1100 0.0000 0.0000
# 5 0.0000 0.0000 0.0000 0.0000 35.5452 0.0000
# 6 0.0000 0.0000 0.0000 0.0000 0.0000 45.7435
#
#
#
# Elastic Compliance Matrix: (Units=1/GPa)
#
#
# Indices 1 2 3 4 5 6 
#
# 1 0.021258 -0.008792 -0.003168 0.000000 0.000000 0.000000
# 2 -0.008792 0.009396 -0.000947 0.000000 0.000000 0.000000
# 3 -0.003168 -0.000947 0.014264 0.000000 0.000000 0.000000
# 4 0.000000 0.000000 0.000000 0.473931 0.000000 0.000000
# 5 0.000000 0.000000 0.000000 0.000000 0.028133 0.000000
# 6 0.000000 0.000000 0.000000 0.000000 0.000000 0.021861
#
#
# Mechanical properties :
#
#
# Convention : Reuss Voigt Hill
#
# Bulk Modulus (GPa) = 52.35094 68.75354 60.55224
# Shear Modulus (GPa) = 8.31912 30.78118 19.55015
#
# Velocity S-wave (km/s) = 2.09055 4.02127 3.20476
# Velocity P-wave (km/s) = 5.77315 7.59473 6.74571
#
# Compressibility (1/GPa) = 0.01910186
#
# Stress axis : x y z
#
# Youngs Moduli (GPa) = 47.04072 106.43229 70.10790
#
# Poissons Ratio (x) = 0.93580 0.22210
# Poissons Ratio (y) = 0.41360 0.06642
# Poissons Ratio (z) = 0.14902 0.10084
#
# Static dielectric constant tensor:
#      x y z
#    x 1.607810 0.000000 0.000000 
#    y 0.000000 1.673000 0.000000 
#    z 0.000000 0.000000 1.753890 
# 
# From -- ./inp_files/4500.got.cif
#   From: 2010.05.17/outbox.cif.g08.bks.cpg/sg65_3_cif.got.tgz:4500.got - 2010.06.03 17:01:31.
