data_PCOD9493550
_publ_section_title
;
Structure prediction by ZEFSAII (Michael W. Deem and Ramdas Pophale) SiO2 
 PCOD9493550
Probable space group: C M M M
;
_chemical_formula_sum "Si O2"
_cell_formula_units_Z 88
_cell_length_a 19.053088
_cell_length_b 8.037500
_cell_length_c 29.163417
_cell_angle_alpha 90.000000
_cell_angle_beta 90.000000
_cell_angle_gamma 90.000000
_cell_volume 4466.062197
_symmetry_space_group_name_H-M "C M M M"
_symmetry_group_IT_number 65
_symmetry_cell_setting 'orthorhombic'
loop_
_space_group_symop_operation_xyz
x,y,z
-x,-y,z
x,-y,-z
-x,y,-z
-x,-y,-z
x,y,-z
-x,y,z
x,-y,z
1/2+x,1/2+y,z
1/2-x,1/2-y,z
1/2+x,1/2-y,-z
1/2-x,1/2+y,-z
1/2-x,1/2-y,-z
1/2+x,1/2+y,-z
1/2-x,1/2+y,z
1/2+x,1/2-y,z
loop_
_atom_site_type_symbol
_atom_site_label
_atom_site_fract_x
_atom_site_fract_y
_atom_site_fract_z
Si Si1 0.581577 0.000000 0.945033
Si Si2 0.330377 0.193776 0.361444
Si Si3 0.325498 0.808175 0.804356
Si Si4 0.580965 0.701228 0.552557
Si Si5 0.669674 0.307500 0.905382
Si Si6 0.920108 0.194508 0.723534
O O1 0.619667 0.832467 0.927213
O O2 0.500000 0.000000 0.930493
O O3 0.584698 0.000000 0.000000
O O4 0.250000 0.250000 0.361889
O O5 0.366561 0.226106 0.410349
O O6 0.375222 0.284752 0.322462
O O7 0.332977 0.000000 0.350332
O O8 0.250000 0.750000 0.785444
O O9 0.339962 0.704634 0.850304
O O10 0.382942 0.787383 0.765319
O O11 0.319847 0.000000 0.818680
O O12 0.596603 0.749843 0.500000
O O13 0.500000 0.748767 0.562534
O O14 0.584384 0.500000 0.554890
O O15 0.659260 0.500000 0.919969
O O16 0.750000 0.250000 0.914555
O O17 0.000000 0.250893 0.716024
O O18 0.920922 0.000000 0.735666
#
# Coordination Sequence:
#
# PCOD9493550 Si02
#       6
#     8  16  16  16  16  16
#     4  11  26  46  66  98 141 179 223 283 343 397
#     4  12  25  40  59  83 115 153 196 246 299 353
#     4  11  21  38  64  93 128 164 206 260 311 370
#     4   9  19  38  63  88 115 149 187 232 292 358
#     4  11  21  42  70 100 133 175 229 277 333 398
#     4  11  24  41  60  86 120 159 202 246 302 369
#
# _framework density 19.704159000000001
#
# number of rings (size 3 to 8) (size 9 to 14) (size 15 to 20)
#    0.000    1.182    1.818    6.545    0.000    6.545 
#    0.000    1.818    0.000    0.000    0.000    0.000 
#    0.000    0.000    0.000    0.000    0.000    0.000 
#
# Total GULP energy -245992.532666 kJ/mol
# GULP energy per Si atom -5590.739379 kJ/mol
# Density = 1.965931 g / cm^3
# Si number density = 19.704159 Si / 1000 Ang^3
#
#
#
# Elastic Constant Matrix: (Units=GPa)
#
#
# Indices 1 2 3 4 5 6 
#
# 1 147.1168 38.7358 64.3739 0.0000 0.0000 0.0000
# 2 38.7358 115.6429 19.4430 0.0000 0.0000 0.0000
# 3 64.3739 19.4430 56.7979 0.0000 0.0000 0.0000
# 4 0.0000 0.0000 0.0000 35.0709 0.0000 0.0000
# 5 0.0000 0.0000 0.0000 0.0000 43.9702 0.0000
# 6 0.0000 0.0000 0.0000 0.0000 0.0000 27.4820
#
#
#
# Elastic Compliance Matrix: (Units=1/GPa)
#
#
# Indices 1 2 3 4 5 6 
#
# 1 0.013967 -0.002140 -0.015097 0.000000 0.000000 0.000000
# 2 -0.002140 0.009503 -0.000828 0.000000 0.000000 0.000000
# 3 -0.015097 -0.000828 0.035001 0.000000 0.000000 0.000000
# 4 0.000000 0.000000 0.000000 0.028514 0.000000 0.000000
# 5 0.000000 0.000000 0.000000 0.000000 0.022743 0.000000
# 6 0.000000 0.000000 0.000000 0.000000 0.000000 0.036388
#
#
# Mechanical properties :
#
#
# Convention : Reuss Voigt Hill
#
# Bulk Modulus (GPa) = 44.76109 62.74034 53.75071
# Shear Modulus (GPa) = 26.35856 34.43828 30.39842
#
# Velocity S-wave (km/s) = 3.66145 4.18517 3.93204
# Velocity P-wave (km/s) = 6.37501 7.43401 6.92478
#
# Compressibility (1/GPa) = 0.02234083
#
# Stress axis : x y z
#
# Youngs Moduli (GPa) = 71.59768 105.22668 28.57090
#
# Poissons Ratio (x) = 0.22519 0.43134
# Poissons Ratio (y) = 0.15322 0.02365
# Poissons Ratio (z) = 1.08093 0.08709
#
# Static dielectric constant tensor:
#      x y z
#    x 1.664490 0.000000 0.000000 
#    y 0.000000 1.707600 0.000000 
#    z 0.000000 0.000000 1.662390 
# 
# From -- ./inp_files/77874.got.cif
#   From: 2010.05.17/outbox.cif.g08.bks.cpg/sg65_39_cif.got.tgz:77874.got - 2010.06.03 17:01:31.
