data_PCOD9493073
_publ_section_title
;
Structure prediction by ZEFSAII (Michael W. Deem and Ramdas Pophale) SiO2 
 PCOD9493073
Probable space group: C M M M
;
_chemical_formula_sum "Si O2"
_cell_formula_units_Z 66
_cell_length_a 22.492645
_cell_length_b 17.802990
_cell_length_c 8.794587
_cell_angle_alpha 90.000000
_cell_angle_beta 90.000000
_cell_angle_gamma 90.000000
_cell_volume 3521.672177
_symmetry_space_group_name_H-M "C M M M"
_symmetry_group_IT_number 65
_symmetry_cell_setting 'orthorhombic'
loop_
_space_group_symop_operation_xyz
x,y,z
-x,-y,z
x,-y,-z
-x,y,-z
-x,-y,-z
x,y,-z
-x,y,z
x,-y,z
1/2+x,1/2+y,z
1/2-x,1/2-y,z
1/2+x,1/2-y,-z
1/2-x,1/2+y,-z
1/2-x,1/2-y,-z
1/2+x,1/2+y,-z
1/2-x,1/2+y,z
1/2+x,1/2-y,z
loop_
_atom_site_type_symbol
_atom_site_label
_atom_site_fract_x
_atom_site_fract_y
_atom_site_fract_z
Si Si1 0.622307 0.793666 0.817615
Si Si2 0.276587 0.914027 0.182264
Si Si3 0.570057 0.500000 0.817830
Si Si4 0.500000 0.000000 0.500000
Si Si5 0.500000 0.155785 0.331896
Si Si6 0.349965 0.630954 0.681345
O O1 0.672191 0.855315 0.775541
O O2 0.558805 0.820529 0.756848
O O3 0.638454 0.713804 0.745694
O O4 0.621468 0.787059 0.000000
O O5 0.215262 0.895290 0.265244
O O6 0.294298 0.000000 0.215626
O O7 0.266734 0.908127 0.000000
O O8 0.500000 0.500000 0.783371
O O9 0.602511 0.427227 0.749752
O O10 0.577583 0.500000 0.000000
O O11 0.500000 0.067292 0.369983
O O12 0.500000 0.193436 0.500000
O O13 0.353479 0.630527 0.500000
#
# Coordination Sequence:
#
# PCOD9493073 Si02
#       6
#    16  16   8   2   8  16
#     4  11  24  42  67  96 130 174 222 270 322 387
#     4  10  22  41  66  94 128 172 220 270 322 385
#     4  11  25  45  70  95 127 172 220 270 323 392
#     4   8  24  44  66  88 136 170 206 268 334 368
#     4  10  23  43  65  96 130 173 210 270 328 385
#     4  12  25  42  65  98 133 171 214 270 331 391
#
# _framework density 18.741097
#
# number of rings (size 3 to 8) (size 9 to 14) (size 15 to 20)
#    0.364    0.848    1.212    4.364    3.394    5.818 
#    0.000    0.606    0.000    0.000    0.000    0.000 
#    0.000    0.000    0.000    0.000    0.000    0.000 
#
# Total GULP energy -184225.177230 kJ/mol
# GULP energy per Si atom -5582.581128 kJ/mol
# Density = 1.869844 g / cm^3
# Si number density = 18.741097 Si / 1000 Ang^3
#
#
#
# Elastic Constant Matrix: (Units=GPa)
#
#
# Indices 1 2 3 4 5 6 
#
# 1 171.7430 103.4267 86.8331 0.0000 0.0000 0.0000
# 2 103.4267 202.2042 80.7127 0.0000 0.0000 0.0000
# 3 86.8331 80.7127 94.5580 0.0000 0.0000 0.0000
# 4 0.0000 0.0000 0.0000 29.3618 0.0000 0.0000
# 5 0.0000 0.0000 0.0000 0.0000 -168.8318 0.0000
# 6 0.0000 0.0000 0.0000 0.0000 0.0000 46.5976
#
#
#
# Elastic Compliance Matrix: (Units=1/GPa)
#
#
# Indices 1 2 3 4 5 6 
#
# 1 0.011688 -0.002570 -0.008540 0.000000 0.000000 0.000000
# 2 -0.002570 0.008066 -0.004526 0.000000 0.000000 0.000000
# 3 -0.008540 -0.004526 0.022280 0.000000 0.000000 0.000000
# 4 0.000000 0.000000 0.000000 0.034058 0.000000 0.000000
# 5 0.000000 0.000000 0.000000 0.000000 -0.005923 0.000000
# 6 0.000000 0.000000 0.000000 0.000000 0.000000 0.021460
#
#
# Mechanical properties :
#
#
# Convention : Reuss Voigt Hill
#
# Bulk Modulus (GPa) = 92.89373 112.27222 102.58298
# Shear Modulus (GPa) = 39.52976 -5.40564 17.06206
#
# Velocity S-wave (km/s) = 4.59765 -1.70019 3.02057
# Velocity P-wave (km/s) = 8.82377 7.49552 8.18663
#
# Compressibility (1/GPa) = 0.01076499
#
# Stress axis : x y z
#
# Youngs Moduli (GPa) = 85.56045 123.97352 44.88253
#
# Poissons Ratio (x) = 0.31855 0.38328
# Poissons Ratio (y) = 0.21985 0.20312
# Poissons Ratio (z) = 0.73065 0.56105
#
# Static dielectric constant tensor:
#      x y z
#    x 1.611200 0.000000 0.000000 
#    y 0.000000 1.624790 0.000000 
#    z 0.000000 0.000000 1.631870 
# 
# From -- ./inp_files/10953.got.cif
#   From: 2010.05.17/outbox.cif.g08.bks.cpg/sg65_6_cif.got.tgz:10953.got - 2010.06.03 17:01:31.
