data_PCOD9493579
_publ_section_title
;
Structure prediction by ZEFSAII (Michael W. Deem and Ramdas Pophale) SiO2 
 PCOD9493579
Probable space group: C M M M
;
_chemical_formula_sum "Si O2"
_cell_formula_units_Z 104
_cell_length_a 33.354410
_cell_length_b 21.262315
_cell_length_c 7.875855
_cell_angle_alpha 90.000000
_cell_angle_beta 90.000000
_cell_angle_gamma 90.000000
_cell_volume 5585.493139
_symmetry_space_group_name_H-M "C M M M"
_symmetry_group_IT_number 65
_symmetry_cell_setting 'orthorhombic'
loop_
_space_group_symop_operation_xyz
x,y,z
-x,-y,z
x,-y,-z
-x,y,-z
-x,-y,-z
x,y,-z
-x,y,z
x,-y,z
1/2+x,1/2+y,z
1/2-x,1/2-y,z
1/2+x,1/2-y,-z
1/2-x,1/2+y,-z
1/2-x,1/2-y,-z
1/2+x,1/2+y,-z
1/2-x,1/2+y,z
1/2+x,1/2-y,z
loop_
_atom_site_type_symbol
_atom_site_label
_atom_site_fract_x
_atom_site_fract_y
_atom_site_fract_z
Si Si1 0.805839 0.071112 0.292453
Si Si2 0.500000 0.070515 0.292134
Si Si3 0.133174 0.176077 0.701306
Si Si4 0.713897 0.070847 0.295903
Si Si5 0.955830 0.197826 0.705215
Si Si6 0.656886 0.814452 0.807765
Si Si7 0.569577 0.160377 0.295956
O O1 0.805494 0.073693 0.500000
O O2 0.836564 0.123746 0.229669
O O3 0.759806 0.081227 0.237688
O O4 0.817565 0.000000 0.245167
O O5 0.500000 0.071839 0.500000
O O6 0.539522 0.106971 0.238917
O O7 0.500000 0.000000 0.233388
O O8 0.129454 0.165319 0.500000
O O9 0.087312 0.172432 0.769864
O O10 0.151911 0.246103 0.720014
O O11 0.714517 0.067649 0.500000
O O12 0.686753 0.130874 0.252582
O O13 0.701192 0.000000 0.236581
O O14 0.956251 0.188919 0.500000
O O15 0.951233 0.272470 0.735007
O O16 0.000000 0.176743 0.768156
O O17 0.612279 0.842252 0.791333
O O18 0.667444 0.799930 0.000000
O O19 0.576157 0.156265 0.500000
#
# Coordination Sequence:
#
# PCOD9493579 Si02
#       7
#    16   8  16  16  16  16  16
#     4   8  15  30  53  78  98 120 158 206 249 290
#     4   9  16  26  45  71  91 113 154 203 242 283
#     4   9  17  30  51  75  98 127 163 202 244 290
#     4   9  18  34  54  71  90 123 167 207 244 294
#     4   8  12  21  41  66  90 120 155 189 224 269
#     4  11  22  33  46  69 102 131 160 203 247 289
#     4   9  16  29  47  65  89 123 161 200 239 280
#
# _framework density 18.619662999999999
#
# number of rings (size 3 to 8) (size 9 to 14) (size 15 to 20)
#    0.000    3.000    0.769    3.231    0.000    1.538 
#    0.000    5.769    0.000    2.308    0.000    3.231 
#    0.000    0.000    0.000    4.000    0.000    5.231 
#
# Total GULP energy -289488.497946 kJ/mol
# GULP energy per Si atom -5567.086499 kJ/mol
# Density = 1.857728 g / cm^3
# Si number density = 18.619663 Si / 1000 Ang^3
#
#
#
# Elastic Constant Matrix: (Units=GPa)
#
#
# Indices 1 2 3 4 5 6 
#
# 1 136.9876 90.9490 5.3527 0.0000 0.0000 0.0000
# 2 90.9490 105.3419 -3.3747 0.0000 0.0000 0.0000
# 3 5.3527 -3.3747 14.2330 0.0000 0.0000 0.0000
# 4 0.0000 0.0000 0.0000 -8.9235 0.0000 0.0000
# 5 0.0000 0.0000 0.0000 0.0000 -42.0855 0.0000
# 6 0.0000 0.0000 0.0000 0.0000 0.0000 10.5407
#
#
#
# Elastic Compliance Matrix: (Units=1/GPa)
#
#
# Indices 1 2 3 4 5 6 
#
# 1 0.018647 -0.016449 -0.010913 0.000000 0.000000 0.000000
# 2 -0.016449 0.024076 0.011894 0.000000 0.000000 0.000000
# 3 -0.010913 0.011894 0.077184 0.000000 0.000000 0.000000
# 4 0.000000 0.000000 0.000000 -0.112064 0.000000 0.000000
# 5 0.000000 0.000000 0.000000 0.000000 -0.023761 0.000000
# 6 0.000000 0.000000 0.000000 0.000000 0.000000 0.094870
#
#
# Mechanical properties :
#
#
# Convention : Reuss Voigt Hill
#
# Bulk Modulus (GPa) = 11.23955 49.15741 30.19848
# Shear Modulus (GPa) = 35.83113 2.81539 19.32326
#
# Velocity S-wave (km/s) = 4.39152 1.23099 3.22497
# Velocity P-wave (km/s) = 5.63591 5.33653 5.48826
#
# Compressibility (1/GPa) = 0.08897151
#
# Stress axis : x y z
#
# Youngs Moduli (GPa) = 53.62737 41.53597 12.95611
#
# Poissons Ratio (x) = 0.68323 0.14139
# Poissons Ratio (y) = 0.88212 -0.15411
# Poissons Ratio (z) = 0.58523 -0.49405
#
# Static dielectric constant tensor:
#      x y z
#    x 1.661160 0.000000 0.000000 
#    y 0.000000 1.639900 0.000000 
#    z 0.000000 0.000000 1.667640 
# 
# From -- ./inp_files/18859.got.cif
#   From: 2010.05.17/outbox.cif.g08.bks.cpg/sg65_10_cif.got.tgz:18859.got - 2010.06.03 17:01:31.
