data_PCOD9493302
_publ_section_title
;
Structure prediction by ZEFSAII (Michael W. Deem and Ramdas Pophale) SiO2 
 PCOD9493302
Probable space group: C M M M
;
_chemical_formula_sum "Si O2"
_cell_formula_units_Z 96
_cell_length_a 13.659700
_cell_length_b 31.999887
_cell_length_c 14.156203
_cell_angle_alpha 90.000000
_cell_angle_beta 90.000000
_cell_angle_gamma 90.000000
_cell_volume 6187.801705
_symmetry_space_group_name_H-M "C M M M"
_symmetry_group_IT_number 65
_symmetry_cell_setting 'orthorhombic'
loop_
_space_group_symop_operation_xyz
x,y,z
-x,-y,z
x,-y,-z
-x,y,-z
-x,-y,-z
x,y,-z
-x,y,z
x,-y,z
1/2+x,1/2+y,z
1/2-x,1/2-y,z
1/2+x,1/2-y,-z
1/2-x,1/2+y,-z
1/2-x,1/2-y,-z
1/2+x,1/2+y,-z
1/2-x,1/2+y,z
1/2+x,1/2-y,z
loop_
_atom_site_type_symbol
_atom_site_label
_atom_site_fract_x
_atom_site_fract_y
_atom_site_fract_z
Si Si1 0.211062 0.820858 0.886516
Si Si2 0.887030 0.880308 0.254680
Si Si3 0.609320 0.785662 0.614233
Si Si4 0.608265 0.765749 0.114339
Si Si5 0.174096 0.192063 0.386732
Si Si6 0.881082 0.048538 0.393706
O O1 0.176065 0.861452 0.830891
O O2 0.316197 0.801773 0.858156
O O3 0.141691 0.781193 0.861770
O O4 0.208320 0.826839 0.000000
O O5 0.881803 0.844397 0.334252
O O6 0.849047 0.921518 0.308735
O O7 0.000000 0.886426 0.224982
O O8 0.608414 0.786875 0.500000
O O9 0.500000 0.798833 0.644870
O O10 0.710233 0.809023 0.640331
O O11 0.630181 0.737279 0.639757
O O12 0.500000 0.773613 0.148722
O O13 0.609353 0.766181 0.000000
O O14 0.166508 0.188337 0.500000
O O15 0.849374 0.061684 0.500000
O O16 0.000000 0.050514 0.393944
O O17 0.853926 0.000000 0.380747
#
# Coordination Sequence:
#
# PCOD9493302 Si02
#       6
#    16  16  16  16  16  16
#     4   9  18  30  42  60  86 114 147 183 213 245
#     4  11  20  27  41  63  83 106 137 172 208 246
#     4   8  14  25  38  51  76 113 139 159 197 244
#     4   8  14  27  45  60  80 115 153 185 215 243
#     4   9  17  27  38  55  78 103 136 172 200 235
#     4   8  15  29  47  65  85 108 133 164 206 255
#
# _framework density 15.514395
#
# number of rings (size 3 to 8) (size 9 to 14) (size 15 to 20)
#    0.000    3.167    0.000    4.000    0.000    5.333 
#    0.000    2.500    0.000    0.500    0.000    2.333 
#    0.000    2.667    0.000   16.000    0.000    0.667 
#
# Total GULP energy -267358.681388 kJ/mol
# GULP energy per Si atom -5569.972529 kJ/mol
# Density = 1.547908 g / cm^3
# Si number density = 15.514395 Si / 1000 Ang^3
#
#
#
# Elastic Constant Matrix: (Units=GPa)
#
#
# Indices 1 2 3 4 5 6 
#
# 1 80.6892 18.0872 18.5637 0.0000 0.0000 0.0000
# 2 18.0872 59.5442 31.9882 0.0000 0.0000 0.0000
# 3 18.5637 31.9882 76.8456 0.0000 0.0000 0.0000
# 4 0.0000 0.0000 0.0000 50.7314 0.0000 0.0000
# 5 0.0000 0.0000 0.0000 0.0000 6.7093 0.0000
# 6 0.0000 0.0000 0.0000 0.0000 0.0000 11.9246
#
#
#
# Elastic Compliance Matrix: (Units=1/GPa)
#
#
# Indices 1 2 3 4 5 6 
#
# 1 0.013535 -0.003033 -0.002007 0.000000 0.000000 0.000000
# 2 -0.003033 0.022311 -0.008555 0.000000 0.000000 0.000000
# 3 -0.002007 -0.008555 0.017059 0.000000 0.000000 0.000000
# 4 0.000000 0.000000 0.000000 0.019712 0.000000 0.000000
# 5 0.000000 0.000000 0.000000 0.000000 0.149047 0.000000
# 6 0.000000 0.000000 0.000000 0.000000 0.000000 0.083860
#
#
# Mechanical properties :
#
#
# Convention : Reuss Voigt Hill
#
# Bulk Modulus (GPa) = 38.88723 39.37302 39.13012
# Shear Modulus (GPa) = 14.65048 23.76906 19.20977
#
# Velocity S-wave (km/s) = 3.07630 3.91841 3.52261
# Velocity P-wave (km/s) = 6.14312 6.77535 6.46696
#
# Compressibility (1/GPa) = 0.02571539
#
# Stress axis : x y z
#
# Youngs Moduli (GPa) = 73.88310 44.82029 58.62017
#
# Poissons Ratio (x) = 0.13595 0.11765
# Poissons Ratio (y) = 0.22410 0.50148
# Poissons Ratio (z) = 0.14829 0.38342
#
# Static dielectric constant tensor:
#      x y z
#    x 1.558630 0.000000 0.000000 
#    y 0.000000 1.484150 0.000000 
#    z 0.000000 0.000000 1.575970 
# 
# From -- ./inp_files/41270.got.cif
#   From: 2010.05.17/outbox.cif.g08.bks.cpg/sg65_21_cif.got.tgz:41270.got - 2010.06.03 17:01:31.
