data_PCOD9493965
_publ_section_title
;
Structure prediction by ZEFSAII (Michael W. Deem and Ramdas Pophale) SiO2 
 PCOD9493965
Probable space group: C M M M
;
_chemical_formula_sum "Si O2"
_cell_formula_units_Z 64
_cell_length_a 16.924476
_cell_length_b 12.699090
_cell_length_c 15.236148
_cell_angle_alpha 90.000000
_cell_angle_beta 90.000000
_cell_angle_gamma 90.000000
_cell_volume 3274.635873
_symmetry_space_group_name_H-M "C M M M"
_symmetry_group_IT_number 65
_symmetry_cell_setting 'orthorhombic'
loop_
_space_group_symop_operation_xyz
x,y,z
-x,-y,z
x,-y,-z
-x,y,-z
-x,-y,-z
x,y,-z
-x,y,z
x,-y,z
1/2+x,1/2+y,z
1/2-x,1/2-y,z
1/2+x,1/2-y,-z
1/2-x,1/2+y,-z
1/2-x,1/2-y,-z
1/2+x,1/2+y,-z
1/2-x,1/2+y,z
1/2+x,1/2-y,z
loop_
_atom_site_type_symbol
_atom_site_label
_atom_site_fract_x
_atom_site_fract_y
_atom_site_fract_z
Si Si1 0.906148 0.380721 0.500000
Si Si2 0.403505 0.880779 0.000000
Si Si3 0.903746 0.772904 0.153602
Si Si4 0.091475 0.000000 0.644591
Si Si5 0.157229 0.771307 0.351400
Si Si6 0.409511 0.500000 0.858143
O O1 0.873298 0.500000 0.500000
O O2 0.881002 0.313770 0.415575
O O3 0.000000 0.387858 0.500000
O O4 0.379616 0.817663 0.086819
O O5 0.500000 0.881685 0.000000
O O6 0.375450 0.000000 0.000000
O O7 0.873463 0.757475 0.252005
O O8 0.000000 0.777303 0.157128
O O9 0.874852 0.886878 0.118291
O O10 0.133840 0.109417 0.619753
O O11 0.089325 0.000000 0.751433
O O12 0.000000 0.000000 0.614783
O O13 0.250000 0.750000 0.353750
O O14 0.500000 0.500000 0.890288
#
# Coordination Sequence:
#
# PCOD9493965 Si02
#       6
#     8   8  16   8  16   8
#     4  11  25  43  63  89 123 161 205 245 295 373
#     4   9  18  31  50  81 115 156 207 248 281 351
#     4   9  17  33  56  82 115 152 198 247 300 357
#     4   9  18  37  63  87 116 155 206 252 296 366
#     4  11  23  39  62  91 124 158 202 256 315 362
#     4   7  12  25  49  79 104 135 183 242 292 338
#
# _framework density 19.544157999999999
#
# number of rings (size 3 to 8) (size 9 to 14) (size 15 to 20)
#    0.000    2.500    0.000    4.125    1.750    2.000 
#    0.000    6.875    0.000    0.000    0.000    0.000 
#    0.000    0.000    0.000    0.000    0.000    0.000 
#
# Total GULP energy -178526.698209 kJ/mol
# GULP energy per Si atom -5578.959319 kJ/mol
# Density = 1.949967 g / cm^3
# Si number density = 19.544158 Si / 1000 Ang^3
#
#
#
# Elastic Constant Matrix: (Units=GPa)
#
#
# Indices 1 2 3 4 5 6 
#
# 1 72.9971 53.7094 22.2980 0.0000 0.0000 0.0000
# 2 53.7094 240.3501 94.7077 0.0000 0.0000 0.0000
# 3 22.2980 94.7077 105.3814 0.0000 0.0000 0.0000
# 4 0.0000 0.0000 0.0000 28.5937 0.0000 0.0000
# 5 0.0000 0.0000 0.0000 0.0000 5.9287 0.0000
# 6 0.0000 0.0000 0.0000 0.0000 0.0000 8.6344
#
#
#
# Elastic Compliance Matrix: (Units=1/GPa)
#
#
# Indices 1 2 3 4 5 6 
#
# 1 0.016400 -0.003557 -0.000273 0.000000 0.000000 0.000000
# 2 -0.003557 0.007213 -0.005730 0.000000 0.000000 0.000000
# 3 -0.000273 -0.005730 0.014697 0.000000 0.000000 0.000000
# 4 0.000000 0.000000 0.000000 0.034973 0.000000 0.000000
# 5 0.000000 0.000000 0.000000 0.000000 0.168671 0.000000
# 6 0.000000 0.000000 0.000000 0.000000 0.000000 0.115816
#
#
# Mechanical properties :
#
#
# Convention : Reuss Voigt Hill
#
# Bulk Modulus (GPa) = 52.11278 84.46209 68.28743
# Shear Modulus (GPa) = 13.04503 25.16559 19.10531
#
# Velocity S-wave (km/s) = 2.58634 3.59224 3.12996
# Velocity P-wave (km/s) = 5.97000 7.77917 6.93384
#
# Compressibility (1/GPa) = 0.01918915
#
# Stress axis : x y z
#
# Youngs Moduli (GPa) = 60.97614 138.63157 68.04164
#
# Poissons Ratio (x) = 0.49312 0.01860
# Poissons Ratio (y) = 0.21690 0.38989
# Poissons Ratio (z) = 0.01667 0.79437
#
# Static dielectric constant tensor:
#      x y z
#    x 1.673570 0.000000 0.000000 
#    y 0.000000 1.707720 0.000000 
#    z 0.000000 0.000000 1.670600 
# 
# From -- ./inp_files/37847.got.cif
#   From: 2010.05.17/outbox.cif.g08.bks.cpg/sg65_19_cif.got.tgz:37847.got - 2010.06.03 17:01:31.
