data_PCOD9493323
_publ_section_title
;
Structure prediction by ZEFSAII (Michael W. Deem and Ramdas Pophale) SiO2 
 PCOD9493323
Probable space group: C M M M
;
_chemical_formula_sum "Si O2"
_cell_formula_units_Z 88
_cell_length_a 25.404595
_cell_length_b 23.342978
_cell_length_c 8.575740
_cell_angle_alpha 90.000000
_cell_angle_beta 90.000000
_cell_angle_gamma 90.000000
_cell_volume 5085.575920
_symmetry_space_group_name_H-M "C M M M"
_symmetry_group_IT_number 65
_symmetry_cell_setting 'orthorhombic'
loop_
_space_group_symop_operation_xyz
x,y,z
-x,-y,z
x,-y,-z
-x,y,-z
-x,-y,-z
x,y,-z
-x,y,z
x,-y,z
1/2+x,1/2+y,z
1/2-x,1/2-y,z
1/2+x,1/2-y,-z
1/2-x,1/2+y,-z
1/2-x,1/2-y,-z
1/2+x,1/2+y,-z
1/2-x,1/2+y,z
1/2+x,1/2-y,z
loop_
_atom_site_type_symbol
_atom_site_label
_atom_site_fract_x
_atom_site_fract_y
_atom_site_fract_z
Si Si1 0.560867 0.784104 0.688044
Si Si2 0.353288 0.433564 0.188235
Si Si3 0.264474 0.933467 0.810521
Si Si4 0.939912 0.153040 0.311902
Si Si5 0.124487 0.609702 0.186996
Si Si6 0.061324 0.500000 0.312725
O O1 0.563957 0.786933 0.500000
O O2 0.500000 0.796429 0.730969
O O3 0.572461 0.718588 0.735684
O O4 0.598826 0.831220 0.759114
O O5 0.361589 0.500000 0.235020
O O6 0.294165 0.416246 0.240744
O O7 0.397934 0.391880 0.250229
O O8 0.353979 0.432160 0.000000
O O9 0.315005 0.897784 0.758465
O O10 0.272623 0.000000 0.766113
O O11 0.263839 0.932083 0.000000
O O12 0.939507 0.151911 0.500000
O O13 0.000000 0.140144 0.261473
O O14 0.090747 0.556435 0.251259
O O15 0.123863 0.606459 0.000000
O O16 0.063004 0.500000 0.500000
O O17 0.000000 0.500000 0.264191
#
# Coordination Sequence:
#
# PCOD9493323 Si02
#       6
#    16  16  16  16  16   8
#     4   9  19  36  53  69  98 139 173 205 255 311
#     4   9  18  33  55  79 103 132 165 204 251 303
#     4   8  15  31  51  71 100 135 165 202 254 302
#     4   9  19  36  55  74 101 137 170 203 250 306
#     4  11  20  32  53  77  99 130 174 219 256 294
#     4  11  23  35  47  69 105 141 170 209 260 307
#
# _framework density 17.303840999999998
#
# number of rings (size 3 to 8) (size 9 to 14) (size 15 to 20)
#    0.000    2.636    0.909    3.545    0.000    5.091 
#    0.000    6.364    0.000    5.455    0.000    0.000 
#    0.000    0.000    0.000    0.000    0.000    0.000 
#
# Total GULP energy -245332.529334 kJ/mol
# GULP energy per Si atom -5575.739303 kJ/mol
# Density = 1.726446 g / cm^3
# Si number density = 17.303841 Si / 1000 Ang^3
#
#
#
# Elastic Constant Matrix: (Units=GPa)
#
#
# Indices 1 2 3 4 5 6 
#
# 1 185.0789 125.0434 34.5595 0.0000 0.0000 0.0000
# 2 125.0434 124.1928 28.9058 0.0000 0.0000 0.0000
# 3 34.5595 28.9058 17.3370 0.0000 0.0000 0.0000
# 4 0.0000 0.0000 0.0000 36.2732 0.0000 0.0000
# 5 0.0000 0.0000 0.0000 0.0000 50.2630 0.0000
# 6 0.0000 0.0000 0.0000 0.0000 0.0000 22.4877
#
#
#
# Elastic Compliance Matrix: (Units=1/GPa)
#
#
# Indices 1 2 3 4 5 6 
#
# 1 0.017739 -0.015737 -0.009122 0.000000 0.000000 0.000000
# 2 -0.015737 0.027120 -0.013846 0.000000 0.000000 0.000000
# 3 -0.009122 -0.013846 0.098949 0.000000 0.000000 0.000000
# 4 0.000000 0.000000 0.000000 0.027569 0.000000 0.000000
# 5 0.000000 0.000000 0.000000 0.000000 0.019895 0.000000
# 6 0.000000 0.000000 0.000000 0.000000 0.000000 0.044469
#
#
# Mechanical properties :
#
#
# Convention : Reuss Voigt Hill
#
# Bulk Modulus (GPa) = 15.06088 78.18068 46.62078
# Shear Modulus (GPa) = 14.91281 31.01145 22.96213
#
# Velocity S-wave (km/s) = 2.93886 4.23800 3.64675
# Velocity P-wave (km/s) = 4.49873 8.32026 6.68825
#
# Compressibility (1/GPa) = 0.06639720
#
# Stress axis : x y z
#
# Youngs Moduli (GPa) = 56.37347 36.87374 10.10624
#
# Poissons Ratio (x) = 0.58029 0.09219
# Poissons Ratio (y) = 0.88716 0.13993
# Poissons Ratio (z) = 0.51424 0.51054
#
# Static dielectric constant tensor:
#      x y z
#    x 1.594490 0.000000 0.000000 
#    y 0.000000 1.559050 0.000000 
#    z 0.000000 0.000000 1.595130 
# 
# From -- ./inp_files/11743.got.cif
#   From: 2010.05.17/outbox.cif.g08.bks.cpg/sg65_6_cif.got.tgz:11743.got - 2010.06.03 17:01:31.
