data_PCOD9493853
_publ_section_title
;
Structure prediction by ZEFSAII (Michael W. Deem and Ramdas Pophale) SiO2 
 PCOD9493853
Probable space group: C M M M
;
_chemical_formula_sum "Si O2"
_cell_formula_units_Z 56
_cell_length_a 15.258009
_cell_length_b 8.846610
_cell_length_c 22.021667
_cell_angle_alpha 90.000000
_cell_angle_beta 90.000000
_cell_angle_gamma 90.000000
_cell_volume 2972.521058
_symmetry_space_group_name_H-M "C M M M"
_symmetry_group_IT_number 65
_symmetry_cell_setting 'orthorhombic'
loop_
_space_group_symop_operation_xyz
x,y,z
-x,-y,z
x,-y,-z
-x,y,-z
-x,-y,-z
x,y,-z
-x,y,z
x,-y,z
1/2+x,1/2+y,z
1/2-x,1/2-y,z
1/2+x,1/2-y,-z
1/2-x,1/2+y,-z
1/2-x,1/2-y,-z
1/2+x,1/2+y,-z
1/2-x,1/2+y,z
1/2+x,1/2-y,z
loop_
_atom_site_type_symbol
_atom_site_label
_atom_site_fract_x
_atom_site_fract_y
_atom_site_fract_z
Si Si1 0.500000 0.181692 0.232873
Si Si2 0.848435 0.316812 0.000000
Si Si3 0.393973 0.176365 0.431411
Si Si4 0.158695 0.178728 0.692225
Si Si5 0.000000 0.316675 0.907220
O O1 0.583057 0.245268 0.268470
O O2 0.500000 0.230667 0.162609
O O3 0.500000 0.000000 0.235429
O O4 0.750000 0.250000 0.000000
O O5 0.911181 0.271485 0.056955
O O6 0.840946 0.500000 0.000000
O O7 0.367528 0.218402 0.500000
O O8 0.500000 0.184345 0.428743
O O9 0.356317 0.277943 0.378261
O O10 0.370147 0.000000 0.421069
O O11 0.250000 0.250000 0.711738
O O12 0.157653 0.000000 0.699436
O O13 0.000000 0.500000 0.908913
#
# Coordination Sequence:
#
# PCOD9493853 Si02
#       5
#     8   8  16  16   8
#     4  11  22  41  63  85 118 157 196 244 293 342
#     4   9  17  35  60  90 122 153 191 231 276 332
#     4   9  18  35  60  86 113 147 187 237 298 358
#     4  12  25  40  59  85 115 154 198 244 295 352
#     4   8  18  36  60  85 117 159 192 225 282 344
#
# _framework density 18.839227000000001
#
# number of rings (size 3 to 8) (size 9 to 14) (size 15 to 20)
#    0.000    2.000    1.429    4.714    0.000    2.286 
#    0.000    8.571    0.000    0.000    0.000    0.000 
#    0.000    0.000    0.000    0.000    0.000    0.000 
#
# Total GULP energy -156363.801334 kJ/mol
# GULP energy per Si atom -5584.421476 kJ/mol
# Density = 1.879635 g / cm^3
# Si number density = 18.839227 Si / 1000 Ang^3
#
#
#
# Elastic Constant Matrix: (Units=GPa)
#
#
# Indices 1 2 3 4 5 6 
#
# 1 166.7058 59.0452 78.9765 0.0000 0.0000 0.0000
# 2 59.0452 92.6880 60.1711 0.0000 0.0000 0.0000
# 3 78.9765 60.1711 134.4577 0.0000 0.0000 0.0000
# 4 0.0000 0.0000 0.0000 12.0164 0.0000 0.0000
# 5 0.0000 0.0000 0.0000 0.0000 -244.5507 0.0000
# 6 0.0000 0.0000 0.0000 0.0000 0.0000 32.8064
#
#
#
# Elastic Compliance Matrix: (Units=1/GPa)
#
#
# Indices 1 2 3 4 5 6 
#
# 1 0.008947 -0.003225 -0.003812 0.000000 0.000000 0.000000
# 2 -0.003225 0.016369 -0.005431 0.000000 0.000000 0.000000
# 3 -0.003812 -0.005431 0.012107 0.000000 0.000000 0.000000
# 4 0.000000 0.000000 0.000000 0.083220 0.000000 0.000000
# 5 0.000000 0.000000 0.000000 0.000000 -0.004089 0.000000
# 6 0.000000 0.000000 0.000000 0.000000 0.000000 0.030482
#
#
# Mechanical properties :
#
#
# Convention : Reuss Voigt Hill
#
# Bulk Modulus (GPa) = 80.08448 87.80414 83.94431
# Shear Modulus (GPa) = 28.38772 -26.90168 0.74302
#
# Velocity S-wave (km/s) = 3.88602 -3.78294 0.62869
# Velocity P-wave (km/s) = 7.92064 5.25618 6.72176
#
# Compressibility (1/GPa) = 0.01248681
#
# Stress axis : x y z
#
# Youngs Moduli (GPa) = 111.77408 61.09148 82.59829
#
# Poissons Ratio (x) = 0.19700 0.31486
# Poissons Ratio (y) = 0.36043 0.44860
# Poissons Ratio (z) = 0.42607 0.33180
#
# Static dielectric constant tensor:
#      x y z
#    x 1.642300 0.000000 0.000000 
#    y 0.000000 1.624740 0.000000 
#    z 0.000000 0.000000 1.652080 
# 
# From -- ./inp_files/62208.got.cif
#   From: 2010.05.17/outbox.cif.g08.bks.cpg/sg65_32_cif.got.tgz:62208.got - 2010.06.03 17:01:31.
