data_PCOD9493705
_publ_section_title
;
Structure prediction by ZEFSAII (Michael W. Deem and Ramdas Pophale) SiO2 
 PCOD9493705
Probable space group: C M M M
;
_chemical_formula_sum "Si O2"
_cell_formula_units_Z 56
_cell_length_a 8.612043
_cell_length_b 28.409787
_cell_length_c 11.629696
_cell_angle_alpha 90.000000
_cell_angle_beta 90.000000
_cell_angle_gamma 90.000000
_cell_volume 2845.394775
_symmetry_space_group_name_H-M "C M M M"
_symmetry_group_IT_number 65
_symmetry_cell_setting 'orthorhombic'
loop_
_space_group_symop_operation_xyz
x,y,z
-x,-y,z
x,-y,-z
-x,y,-z
-x,-y,-z
x,y,-z
-x,y,z
x,-y,z
1/2+x,1/2+y,z
1/2-x,1/2-y,z
1/2+x,1/2-y,-z
1/2-x,1/2+y,-z
1/2-x,1/2-y,-z
1/2+x,1/2+y,-z
1/2-x,1/2+y,z
1/2+x,1/2-y,z
loop_
_atom_site_type_symbol
_atom_site_label
_atom_site_fract_x
_atom_site_fract_y
_atom_site_fract_z
Si Si1 0.328407 0.446566 0.636818
Si Si2 0.676210 0.882732 0.205074
Si Si3 0.684870 0.444885 0.000000
Si Si4 0.188214 0.302939 0.370278
O O1 0.325452 0.447602 0.500000
O O2 0.500000 0.427753 0.671408
O O3 0.319624 0.500000 0.679926
O O4 0.188879 0.416767 0.685158
O O5 0.500000 0.874643 0.167110
O O6 0.741254 0.834756 0.262147
O O7 0.761683 0.913254 0.108312
O O8 0.742977 0.500000 0.000000
O O9 0.500000 0.447841 0.000000
O O10 0.235514 0.319797 0.500000
O O11 0.250000 0.250000 0.359335
O O12 0.000000 0.303256 0.368122
#
# Coordination Sequence:
#
# PCOD9493705 Si02
#       4
#    16  16   8  16
#     4   9  18  32  50  75 108 144 181 221 269 331
#     4  11  22  36  56  82 111 143 184 234 285 333
#     4  11  25  43  60  79 108 149 196 239 278 331
#     4   9  19  36  58  86 118 148 180 223 276 334
#
# _framework density 19.680924999999998
#
# number of rings (size 3 to 8) (size 9 to 14) (size 15 to 20)
#    0.000    2.143    0.000    3.857    0.000    9.143 
#    0.000    5.000    0.000    0.000    0.000    0.000 
#    0.000    0.000    0.000    0.000    0.000    0.000 
#
# Total GULP energy -155915.785694 kJ/mol
# GULP energy per Si atom -5568.420918 kJ/mol
# Density = 1.963613 g / cm^3
# Si number density = 19.680925 Si / 1000 Ang^3
#
#
#
# Elastic Constant Matrix: (Units=GPa)
#
#
# Indices 1 2 3 4 5 6 
#
# 1 23.1942 19.6862 19.5974 0.0000 0.0000 0.0000
# 2 19.6862 106.4990 64.8065 0.0000 0.0000 0.0000
# 3 19.5974 64.8065 90.3746 0.0000 0.0000 0.0000
# 4 0.0000 0.0000 0.0000 -6.9671 0.0000 0.0000
# 5 0.0000 0.0000 0.0000 0.0000 25.8431 0.0000
# 6 0.0000 0.0000 0.0000 0.0000 0.0000 25.1975
#
#
#
# Elastic Compliance Matrix: (Units=1/GPa)
#
#
# Indices 1 2 3 4 5 6 
#
# 1 0.054301 -0.005096 -0.008121 0.000000 0.000000 0.000000
# 2 -0.005096 0.017137 -0.011184 0.000000 0.000000 0.000000
# 3 -0.008121 -0.011184 0.020846 0.000000 0.000000 0.000000
# 4 0.000000 0.000000 0.000000 -0.143531 0.000000 0.000000
# 5 0.000000 0.000000 0.000000 0.000000 0.038695 0.000000
# 6 0.000000 0.000000 0.000000 0.000000 0.000000 0.039687
#
#
# Mechanical properties :
#
#
# Convention : Reuss Voigt Hill
#
# Bulk Modulus (GPa) = 22.99757 47.58311 35.29034
# Shear Modulus (GPa) = 55.29184 16.54656 35.91920
#
# Velocity S-wave (km/s) = 5.30614 2.90270 4.27673
# Velocity P-wave (km/s) = 7.01789 5.95516 6.50825
#
# Compressibility (1/GPa) = 0.04348286
#
# Stress axis : x y z
#
# Youngs Moduli (GPa) = 18.41598 58.35218 47.97110
#
# Poissons Ratio (x) = 0.29735 0.38956
# Poissons Ratio (y) = 0.09384 0.53651
# Poissons Ratio (z) = 0.14955 0.65261
#
# Static dielectric constant tensor:
#      x y z
#    x 1.733340 0.000000 0.000000 
#    y 0.000000 1.710680 0.000000 
#    z 0.000000 0.000000 1.746120 
# 
# From -- ./inp_files/20433.got.cif
#   From: 2010.05.17/outbox.cif.g08.bks.cpg/sg65_11_cif.got.tgz:20433.got - 2010.06.03 17:01:31.
