data_PCOD9493208
_publ_section_title
;
Structure prediction by ZEFSAII (Michael W. Deem and Ramdas Pophale) SiO2 
 PCOD9493208
Probable space group: C M M M
;
_chemical_formula_sum "Si O2"
_cell_formula_units_Z 60
_cell_length_a 29.119969
_cell_length_b 10.241352
_cell_length_c 11.420246
_cell_angle_alpha 90.000000
_cell_angle_beta 90.000000
_cell_angle_gamma 90.000000
_cell_volume 3405.835443
_symmetry_space_group_name_H-M "C M M M"
_symmetry_group_IT_number 65
_symmetry_cell_setting 'orthorhombic'
loop_
_space_group_symop_operation_xyz
x,y,z
-x,-y,z
x,-y,-z
-x,y,-z
-x,-y,-z
x,y,-z
-x,y,z
x,-y,z
1/2+x,1/2+y,z
1/2-x,1/2-y,z
1/2+x,1/2-y,-z
1/2-x,1/2+y,-z
1/2-x,1/2-y,-z
1/2+x,1/2+y,-z
1/2-x,1/2+y,z
1/2+x,1/2-y,z
loop_
_atom_site_type_symbol
_atom_site_label
_atom_site_fract_x
_atom_site_fract_y
_atom_site_fract_z
Si Si1 0.644673 0.252196 0.743261
Si Si2 0.947638 0.155131 0.359941
Si Si3 0.198571 0.000000 0.358757
Si Si4 0.680205 0.250733 0.000000
Si Si5 0.750403 0.500000 0.000000
Si Si6 0.194730 0.500000 0.640920
O O1 0.592176 0.266897 0.704182
O O2 0.672726 0.374254 0.689959
O O3 0.650766 0.251764 0.881828
O O4 0.668952 0.125744 0.689297
O O5 0.942469 0.171932 0.500000
O O6 0.000000 0.190660 0.328834
O O7 0.941776 0.000000 0.336587
O O8 0.251862 0.000000 0.319063
O O9 0.197331 0.000000 0.500000
O O10 0.710933 0.382457 0.000000
O O11 0.710223 0.117745 0.000000
O O12 0.194759 0.500000 0.500000
#
# Coordination Sequence:
#
# PCOD9493208 Si02
#       6
#    16  16   8   8   4   8
#     4  12  23  38  61  86 123 155 203 247 293 357
#     4   9  18  36  63  90 115 151 198 248 303 356
#     4  11  23  38  58  83 115 159 199 242 300 354
#     4  11  26  38  61  85 116 165 210 240 294 339
#     4  10  24  42  56  78 114 166 216 244 268 336
#     4  11  25  38  56  89 123 157 193 246 310 358
#
# _framework density 17.616824000000001
#
# number of rings (size 3 to 8) (size 9 to 14) (size 15 to 20)
#    0.000    1.333    1.333    5.600   11.200    2.133 
#    0.000    1.333    0.000    4.000    0.000    2.800 
#    0.000    0.000    0.000    0.000    0.000    0.000 
#
# Total GULP energy -167148.055876 kJ/mol
# GULP energy per Si atom -5571.601863 kJ/mol
# Density = 1.757673 g / cm^3
# Si number density = 17.616824 Si / 1000 Ang^3
#
#
#
# Elastic Constant Matrix: (Units=GPa)
#
#
# Indices 1 2 3 4 5 6 
#
# 1 159.8111 60.3372 61.6380 0.0000 0.0000 0.0000
# 2 60.3372 147.6729 35.9765 0.0000 0.0000 0.0000
# 3 61.6380 35.9765 81.1682 0.0000 0.0000 0.0000
# 4 0.0000 0.0000 0.0000 14.9546 0.0000 0.0000
# 5 0.0000 0.0000 0.0000 0.0000 -3.8489 0.0000
# 6 0.0000 0.0000 0.0000 0.0000 0.0000 14.6187
#
#
#
# Elastic Compliance Matrix: (Units=1/GPa)
#
#
# Indices 1 2 3 4 5 6 
#
# 1 0.009549 -0.002393 -0.006190 0.000000 0.000000 0.000000
# 2 -0.002393 0.008191 -0.001813 0.000000 0.000000 0.000000
# 3 -0.006190 -0.001813 0.017825 0.000000 0.000000 0.000000
# 4 0.000000 0.000000 0.000000 0.066869 0.000000 0.000000
# 5 0.000000 0.000000 0.000000 0.000000 -0.259816 0.000000
# 6 0.000000 0.000000 0.000000 0.000000 0.000000 0.068405
#
#
# Mechanical properties :
#
#
# Convention : Reuss Voigt Hill
#
# Bulk Modulus (GPa) = 67.70076 78.28395 72.99235
# Shear Modulus (GPa) = -79.03870 20.52491 -29.25690
#
# Velocity S-wave (km/s) = -6.70544 3.41702 -4.07963
# Velocity P-wave (km/s) = 4.63006 7.75252 4.39682
#
# Compressibility (1/GPa) = 0.01477088
#
# Stress axis : x y z
#
# Youngs Moduli (GPa) = 104.72838 122.08002 56.10246
#
# Poissons Ratio (x) = 0.29218 0.34729
# Poissons Ratio (y) = 0.25065 0.10173
# Poissons Ratio (z) = 0.64829 0.22136
#
# Static dielectric constant tensor:
#      x y z
#    x 1.587250 0.000000 0.000000 
#    y 0.000000 1.728710 0.000000 
#    z 0.000000 0.000000 1.581890 
# 
# From -- ./inp_files/31821.got.cif
#   From: 2010.05.17/outbox.cif.g08.bks.cpg/sg65_16_cif.got.tgz:31821.got - 2010.06.03 17:01:31.
