data_PCOD9493615
_publ_section_title
;
Structure prediction by ZEFSAII (Michael W. Deem and Ramdas Pophale) SiO2 
 PCOD9493615
Probable space group: C M M M
;
_chemical_formula_sum "Si O2"
_cell_formula_units_Z 112
_cell_length_a 15.613085
_cell_length_b 14.939606
_cell_length_c 24.491913
_cell_angle_alpha 90.000000
_cell_angle_beta 90.000000
_cell_angle_gamma 90.000000
_cell_volume 5712.820470
_symmetry_space_group_name_H-M "C M M M"
_symmetry_group_IT_number 65
_symmetry_cell_setting 'orthorhombic'
loop_
_space_group_symop_operation_xyz
x,y,z
-x,-y,z
x,-y,-z
-x,y,-z
-x,-y,-z
x,y,-z
-x,y,z
x,-y,z
1/2+x,1/2+y,z
1/2-x,1/2-y,z
1/2+x,1/2-y,-z
1/2-x,1/2+y,-z
1/2-x,1/2-y,-z
1/2+x,1/2+y,-z
1/2-x,1/2+y,z
1/2+x,1/2-y,z
loop_
_atom_site_type_symbol
_atom_site_label
_atom_site_fract_x
_atom_site_fract_y
_atom_site_fract_z
Si Si1 0.876613 0.602629 0.060976
Si Si2 0.399286 0.892898 0.359732
Si Si3 0.100828 0.893780 0.351794
Si Si4 0.896699 0.257951 0.266593
Si Si5 0.329272 0.397441 0.939073
Si Si6 0.097536 0.242518 0.144846
Si Si7 0.245740 0.108657 0.561987
O O1 0.903399 0.500000 0.069025
O O2 0.773483 0.602984 0.060055
O O3 0.903496 0.667401 0.109183
O O4 0.903954 0.631601 0.000000
O O5 0.500000 0.872170 0.370877
O O6 0.370356 0.839668 0.305698
O O7 0.334390 0.866627 0.408018
O O8 0.393180 0.000000 0.351776
O O9 0.121715 0.833337 0.299296
O O10 0.164721 0.866438 0.400440
O O11 0.000000 0.879261 0.365241
O O12 0.112025 0.000000 0.341432
O O13 0.863663 0.257577 0.204852
O O14 0.000000 0.266240 0.262978
O O15 0.357678 0.500000 0.930318
O O16 0.357085 0.331176 0.892027
O O17 0.358709 0.369071 0.000000
O O18 0.000000 0.211550 0.152390
O O19 0.240195 0.141388 0.500000
O O20 0.245010 0.000000 0.559980
#
# Coordination Sequence:
#
# PCOD9493615 Si02
#       7
#    16  16  16  16  16  16  16
#     4   9  19  37  57  76 105 144 181 220 270 329
#     4   9  18  35  56  75 105 147 180 217 271 320
#     4   9  18  35  56  75 105 147 180 217 271 320
#     4   9  20  37  53  73 104 142 181 215 256 318
#     4   9  19  37  57  76 105 144 181 220 270 329
#     4  11  22  34  53  82 111 138 176 230 280 322
#     4   9  18  33  55  85 112 135 177 226 266 322
#
# _framework density 19.605027
#
# number of rings (size 3 to 8) (size 9 to 14) (size 15 to 20)
#    0.000    2.714    0.000    1.714    0.000    5.143 
#    5.143    8.571    0.000    2.571    0.000    0.000 
#    0.000    0.000    0.000    0.000    0.000    0.000 
#
# Total GULP energy -312402.212584 kJ/mol
# GULP energy per Si atom -5578.610939 kJ/mol
# Density = 1.956041 g / cm^3
# Si number density = 19.605027 Si / 1000 Ang^3
#
#
#
# Elastic Constant Matrix: (Units=GPa)
#
#
# Indices 1 2 3 4 5 6 
#
# 1 66.0288 28.7614 53.7637 0.0000 0.0000 0.0000
# 2 28.7614 70.9176 62.9441 0.0000 0.0000 0.0000
# 3 53.7637 62.9441 190.4662 0.0000 0.0000 0.0000
# 4 0.0000 0.0000 0.0000 -12.9696 0.0000 0.0000
# 5 0.0000 0.0000 0.0000 0.0000 23.4327 0.0000
# 6 0.0000 0.0000 0.0000 0.0000 0.0000 23.3394
#
#
#
# Elastic Compliance Matrix: (Units=1/GPa)
#
#
# Indices 1 2 3 4 5 6 
#
# 1 0.020644 -0.004529 -0.004331 0.000000 0.000000 0.000000
# 2 -0.004529 0.020947 -0.005644 0.000000 0.000000 0.000000
# 3 -0.004331 -0.005644 0.008338 0.000000 0.000000 0.000000
# 4 0.000000 0.000000 0.000000 -0.077103 0.000000 0.000000
# 5 0.000000 0.000000 0.000000 0.000000 0.042675 0.000000
# 6 0.000000 0.000000 0.000000 0.000000 0.000000 0.042846
#
#
# Mechanical properties :
#
#
# Convention : Reuss Voigt Hill
#
# Bulk Modulus (GPa) = 47.79654 68.70565 58.25110
# Shear Modulus (GPa) = 53.00693 18.89006 35.94849
#
# Velocity S-wave (km/s) = 5.20539 3.10745 4.28674
# Velocity P-wave (km/s) = 7.78208 6.92791 7.36739
#
# Compressibility (1/GPa) = 0.02092202
#
# Stress axis : x y z
#
# Youngs Moduli (GPa) = 48.44100 47.73942 119.93369
#
# Poissons Ratio (x) = 0.21619 0.51939
# Poissons Ratio (y) = 0.21937 0.67692
# Poissons Ratio (z) = 0.20978 0.26945
#
# Static dielectric constant tensor:
#      x y z
#    x 1.713100 0.000000 0.000000 
#    y 0.000000 1.685630 0.000000 
#    z 0.000000 0.000000 1.673840 
# 
# From -- ./inp_files/69959.got.cif
#   From: 2010.05.17/outbox.cif.g08.bks.cpg/sg65_35_cif.got.tgz:69959.got - 2010.06.03 17:01:31.
