data_PCOD9493066
_publ_section_title
;
Structure prediction by ZEFSAII (Michael W. Deem and Ramdas Pophale) SiO2 
 PCOD9493066
Probable space group: C M M M
;
_chemical_formula_sum "Si O2"
_cell_formula_units_Z 112
_cell_length_a 13.760465
_cell_length_b 35.181626
_cell_length_c 11.082333
_cell_angle_alpha 90.000000
_cell_angle_beta 90.000000
_cell_angle_gamma 90.000000
_cell_volume 5365.129550
_symmetry_space_group_name_H-M "C M M M"
_symmetry_group_IT_number 65
_symmetry_cell_setting 'orthorhombic'
loop_
_space_group_symop_operation_xyz
x,y,z
-x,-y,z
x,-y,-z
-x,y,-z
-x,-y,-z
x,y,-z
-x,y,z
x,-y,z
1/2+x,1/2+y,z
1/2-x,1/2-y,z
1/2+x,1/2-y,-z
1/2-x,1/2+y,-z
1/2-x,1/2-y,-z
1/2+x,1/2+y,-z
1/2-x,1/2+y,z
1/2+x,1/2-y,z
loop_
_atom_site_type_symbol
_atom_site_label
_atom_site_fract_x
_atom_site_fract_y
_atom_site_fract_z
Si Si1 0.885199 0.216060 0.359994
Si Si2 0.749961 0.660489 0.780288
Si Si3 0.887467 0.604733 0.634202
Si Si4 0.886507 0.273778 0.135254
Si Si5 0.191916 0.084627 0.872999
Si Si6 0.888977 0.455156 0.180947
Si Si7 0.882982 0.043917 0.365700
O O1 0.862846 0.227409 0.500000
O O2 0.819207 0.181259 0.315936
O O3 0.870654 0.247362 0.253462
O O4 0.000000 0.206588 0.357319
O O5 0.826901 0.633705 0.713031
O O6 0.811142 0.691877 0.852061
O O7 0.692401 0.630139 0.860775
O O8 0.850736 0.606387 0.500000
O O9 0.883915 0.561858 0.684276
O O10 0.000000 0.616314 0.638048
O O11 0.000000 0.286123 0.141507
O O12 0.874289 0.256127 0.000000
O O13 0.301947 0.068122 0.878444
O O14 0.150654 0.067709 0.749125
O O15 0.143605 0.073262 0.000000
O O16 0.873080 0.500000 0.171551
O O17 0.000000 0.447279 0.139071
O O18 0.851979 0.057174 0.500000
O O19 0.000000 0.044002 0.365938
O O20 0.850896 0.000000 0.351504
#
# Coordination Sequence:
#
# PCOD9493066 Si02
#       7
#    16  16  16  16  16  16  16
#     4  10  23  42  63  89 119 151 191 238 286 339
#     4  11  22  37  58  83 117 158 195 231 282 349
#     4   9  18  32  51  79 113 148 192 246 297 343
#     4  10  22  41  65  90 116 150 192 236 284 341
#     4  11  24  38  56  88 123 154 194 244 292 339
#     4   9  19  35  53  76 111 156 201 242 288 345
#     4   9  20  41  66  88 113 151 198 246 299 357
#
# _framework density 20.875544999999999
#
# number of rings (size 3 to 8) (size 9 to 14) (size 15 to 20)
#    0.000    2.143    0.000    2.571    0.000    9.429 
#    0.000    5.714    0.000    0.000    0.000    0.000 
#    0.000    0.000    0.000    0.000    0.000    0.000 
#
# Total GULP energy -312208.014106 kJ/mol
# GULP energy per Si atom -5575.143109 kJ/mol
# Density = 2.082803 g / cm^3
# Si number density = 20.875545 Si / 1000 Ang^3
#
#
#
# Elastic Constant Matrix: (Units=GPa)
#
#
# Indices 1 2 3 4 5 6 
#
# 1 61.0917 31.8849 32.5097 0.0000 0.0000 0.0000
# 2 31.8849 86.3987 56.0963 0.0000 0.0000 0.0000
# 3 32.5097 56.0963 188.2688 0.0000 0.0000 0.0000
# 4 0.0000 0.0000 0.0000 39.1444 0.0000 0.0000
# 5 0.0000 0.0000 0.0000 0.0000 6.5432 0.0000
# 6 0.0000 0.0000 0.0000 0.0000 0.0000 29.5260
#
#
#
# Elastic Compliance Matrix: (Units=1/GPa)
#
#
# Indices 1 2 3 4 5 6 
#
# 1 0.020658 -0.006581 -0.001606 0.000000 0.000000 0.000000
# 2 -0.006581 0.016447 -0.003764 0.000000 0.000000 0.000000
# 3 -0.001606 -0.003764 0.006710 0.000000 0.000000 0.000000
# 4 0.000000 0.000000 0.000000 0.025546 0.000000 0.000000
# 5 0.000000 0.000000 0.000000 0.000000 0.152829 0.000000
# 6 0.000000 0.000000 0.000000 0.000000 0.000000 0.033868
#
#
# Mechanical properties :
#
#
# Convention : Reuss Voigt Hill
#
# Bulk Modulus (GPa) = 50.21860 64.08233 57.15047
# Shear Modulus (GPa) = 17.44589 29.39395 23.41992
#
# Velocity S-wave (km/s) = 2.89400 3.75648 3.35309
# Velocity P-wave (km/s) = 5.93931 7.04122 6.51361
#
# Compressibility (1/GPa) = 0.01991294
#
# Stress axis : x y z
#
# Youngs Moduli (GPa) = 48.40654 60.80205 149.02037
#
# Poissons Ratio (x) = 0.40013 0.23939
# Poissons Ratio (y) = 0.31856 0.56093
# Poissons Ratio (z) = 0.07776 0.22887
#
# Static dielectric constant tensor:
#      x y z
#    x 1.768720 0.000000 0.000000 
#    y 0.000000 1.724490 0.000000 
#    z 0.000000 0.000000 1.791750 
# 
# From -- ./inp_files/25575.got.cif
#   From: 2010.05.17/outbox.cif.g08.bks.cpg/sg65_13_cif.got.tgz:25575.got - 2010.06.03 17:01:31.
