data_PCOD9493397
_publ_section_title
;
Structure prediction by ZEFSAII (Michael W. Deem and Ramdas Pophale) SiO2 
 PCOD9493397
Probable space group: C M M M
;
_chemical_formula_sum "Si O2"
_cell_formula_units_Z 72
_cell_length_a 19.476916
_cell_length_b 28.149761
_cell_length_c 8.654233
_cell_angle_alpha 90.000000
_cell_angle_beta 90.000000
_cell_angle_gamma 90.000000
_cell_volume 4744.860917
_symmetry_space_group_name_H-M "C M M M"
_symmetry_group_IT_number 65
_symmetry_cell_setting 'orthorhombic'
loop_
_space_group_symop_operation_xyz
x,y,z
-x,-y,z
x,-y,-z
-x,y,-z
-x,-y,-z
x,y,-z
-x,y,z
x,-y,z
1/2+x,1/2+y,z
1/2-x,1/2-y,z
1/2+x,1/2-y,-z
1/2-x,1/2+y,-z
1/2-x,1/2-y,-z
1/2+x,1/2+y,-z
1/2-x,1/2+y,z
1/2+x,1/2-y,z
loop_
_atom_site_type_symbol
_atom_site_label
_atom_site_fract_x
_atom_site_fract_y
_atom_site_fract_z
Si Si1 0.500000 0.349335 0.680958
Si Si2 0.867687 0.099063 0.815883
Si Si3 0.581237 0.500000 0.685647
Si Si4 0.647309 0.230083 0.815394
Si Si5 0.223730 0.822163 0.684966
Si Si6 0.500000 0.235226 0.680237
O O1 0.500000 0.363739 0.500000
O O2 0.566309 0.370499 0.763306
O O3 0.500000 0.292659 0.688318
O O4 0.803615 0.127466 0.744567
O O5 0.881844 0.046779 0.750219
O O6 0.862505 0.097894 0.000000
O O7 0.500000 0.500000 0.731333
O O8 0.583371 0.500000 0.500000
O O9 0.702212 0.192301 0.751278
O O10 0.672547 0.280657 0.745851
O O11 0.570309 0.219407 0.760913
O O12 0.651399 0.232772 0.000000
O O13 0.223945 0.820621 0.500000
O O14 0.500000 0.221739 0.500000
#
# Coordination Sequence:
#
# PCOD9493397 Si02
#       6
#     8  16   8  16  16   8
#     4  11  21  32  48  69  96 132 170 206 248 297
#     4  12  23  35  52  72  97 128 169 213 252 292
#     4  11  23  37  53  71  98 131 168 209 252 296
#     4  11  21  33  50  73  98 127 166 209 248 290
#     4  11  21  35  51  69  97 132 166 202 249 301
#     4  11  21  33  50  72 100 133 169 205 248 298
#
# _framework density 15.174313
#
# number of rings (size 3 to 8) (size 9 to 14) (size 15 to 20)
#    0.000    0.778    3.333    8.333    0.000    1.333 
#    0.000    0.000    0.000    0.000    0.000    0.000 
#    0.000    0.889    0.000    8.889    0.000    5.333 
#
# Total GULP energy -201227.440874 kJ/mol
# GULP energy per Si atom -5589.651135 kJ/mol
# Density = 1.513978 g / cm^3
# Si number density = 15.174313 Si / 1000 Ang^3
#
#
#
# Elastic Constant Matrix: (Units=GPa)
#
#
# Indices 1 2 3 4 5 6 
#
# 1 126.1045 54.6991 59.9646 0.0000 0.0000 0.0000
# 2 54.6991 88.3301 48.9385 0.0000 0.0000 0.0000
# 3 59.9646 48.9385 160.1033 0.0000 0.0000 0.0000
# 4 0.0000 0.0000 0.0000 31.6548 0.0000 0.0000
# 5 0.0000 0.0000 0.0000 0.0000 27.4096 0.0000
# 6 0.0000 0.0000 0.0000 0.0000 0.0000 28.9322
#
#
#
# Elastic Compliance Matrix: (Units=1/GPa)
#
#
# Indices 1 2 3 4 5 6 
#
# 1 0.011680 -0.005790 -0.002605 0.000000 0.000000 0.000000
# 2 -0.005790 0.016499 -0.002875 0.000000 0.000000 0.000000
# 3 -0.002605 -0.002875 0.008100 0.000000 0.000000 0.000000
# 4 0.000000 0.000000 0.000000 0.031591 0.000000 0.000000
# 5 0.000000 0.000000 0.000000 0.000000 0.036484 0.000000
# 6 0.000000 0.000000 0.000000 0.000000 0.000000 0.034564
#
#
# Mechanical properties :
#
#
# Convention : Reuss Voigt Hill
#
# Bulk Modulus (GPa) = 72.77622 77.97138 75.37380
# Shear Modulus (GPa) = 30.11388 31.66170 30.88779
#
# Velocity S-wave (km/s) = 4.45964 4.57281 4.51658
# Velocity P-wave (km/s) = 8.63609 8.90933 8.77378
#
# Compressibility (1/GPa) = 0.01374075
#
# Stress axis : x y z
#
# Youngs Moduli (GPa) = 85.61718 60.60878 123.45189
#
# Poissons Ratio (x) = 0.35091 0.32157
# Poissons Ratio (y) = 0.49570 0.35491
# Poissons Ratio (z) = 0.22302 0.17424
#
# Static dielectric constant tensor:
#      x y z
#    x 1.448600 0.000000 0.000000 
#    y 0.000000 1.491300 0.000000 
#    z 0.000000 0.000000 1.504960 
# 
# From -- ./inp_files/9549.got.cif
#   From: 2010.05.17/outbox.cif.g08.bks.cpg/sg65_5_cif.got.tgz:9549.got - 2010.06.03 17:01:31.
