data_PCOD9493920
_publ_section_title
;
Structure prediction by ZEFSAII (Michael W. Deem and Ramdas Pophale) SiO2 
 PCOD9493920
Probable space group: C M M M
;
_chemical_formula_sum "Si O2"
_cell_formula_units_Z 72
_cell_length_a 14.146327
_cell_length_b 29.529596
_cell_length_c 9.051785
_cell_angle_alpha 90.000000
_cell_angle_beta 90.000000
_cell_angle_gamma 90.000000
_cell_volume 3781.250314
_symmetry_space_group_name_H-M "C M M M"
_symmetry_group_IT_number 65
_symmetry_cell_setting 'orthorhombic'
loop_
_space_group_symop_operation_xyz
x,y,z
-x,-y,z
x,-y,-z
-x,y,-z
-x,-y,-z
x,y,-z
-x,y,z
x,-y,z
1/2+x,1/2+y,z
1/2-x,1/2-y,z
1/2+x,1/2-y,-z
1/2-x,1/2+y,-z
1/2-x,1/2-y,-z
1/2+x,1/2+y,-z
1/2-x,1/2+y,z
1/2+x,1/2-y,z
loop_
_atom_site_type_symbol
_atom_site_label
_atom_site_fract_x
_atom_site_fract_y
_atom_site_fract_z
Si Si1 0.607554 0.366894 0.322740
Si Si2 0.886050 0.326919 0.825758
Si Si3 0.115020 0.226152 0.170373
Si Si4 0.293367 0.086973 0.323384
Si Si5 0.888470 0.500000 0.176876
O O1 0.606199 0.363856 0.500000
O O2 0.500000 0.375346 0.271366
O O3 0.640738 0.318319 0.260774
O O4 0.683408 0.405019 0.282587
O O5 0.854019 0.276236 0.779936
O O6 0.844485 0.367213 0.729925
O O7 0.000000 0.328376 0.815547
O O8 0.862442 0.332791 0.000000
O O9 0.000000 0.227623 0.172926
O O10 0.143919 0.220453 0.000000
O O11 0.301104 0.082012 0.500000
O O12 0.339804 0.044390 0.243982
O O13 0.000000 0.500000 0.213482
O O14 0.879683 0.500000 0.000000
#
# Coordination Sequence:
#
# PCOD9493920 Si02
#       5
#    16  16  16  16   8
#     4   9  19  36  55  77 110 149 184 220 265 315
#     4   9  18  33  52  77 112 150 185 223 270 323
#     4   8  15  29  50  76 107 146 189 227 264 310
#     4  11  23  37  57  84 109 138 180 226 271 320
#     4  11  25  45  66  85 108 138 169 209 268 331
#
# _framework density 19.041322000000001
#
# number of rings (size 3 to 8) (size 9 to 14) (size 15 to 20)
#    0.000    2.556    0.000    3.000    0.000    7.556 
#    0.000    7.222    0.000    3.333    0.000    0.000 
#    0.000    0.000    0.000    0.000    0.000    0.000 
#
# Total GULP energy -200959.803973 kJ/mol
# GULP energy per Si atom -5582.216777 kJ/mol
# Density = 1.899798 g / cm^3
# Si number density = 19.041322 Si / 1000 Ang^3
#
#
#
# Elastic Constant Matrix: (Units=GPa)
#
#
# Indices 1 2 3 4 5 6 
#
# 1 110.2451 87.6879 48.1188 0.0000 0.0000 0.0000
# 2 87.6879 147.8918 54.4561 0.0000 0.0000 0.0000
# 3 48.1188 54.4561 39.4030 0.0000 0.0000 0.0000
# 4 0.0000 0.0000 0.0000 35.4446 0.0000 0.0000
# 5 0.0000 0.0000 0.0000 0.0000 16.1778 0.0000
# 6 0.0000 0.0000 0.0000 0.0000 0.0000 37.1255
#
#
#
# Elastic Compliance Matrix: (Units=1/GPa)
#
#
# Indices 1 2 3 4 5 6 
#
# 1 0.022074 -0.006439 -0.018058 0.000000 0.000000 0.000000
# 2 -0.006439 0.015646 -0.013761 0.000000 0.000000 0.000000
# 3 -0.018058 -0.013761 0.066448 0.000000 0.000000 0.000000
# 4 0.000000 0.000000 0.000000 0.028213 0.000000 0.000000
# 5 0.000000 0.000000 0.000000 0.000000 0.061813 0.000000
# 6 0.000000 0.000000 0.000000 0.000000 0.000000 0.026936
#
#
# Mechanical properties :
#
#
# Convention : Reuss Voigt Hill
#
# Bulk Modulus (GPa) = 36.16097 75.34061 55.75079
# Shear Modulus (GPa) = 16.29394 24.90138 20.59766
#
# Velocity S-wave (km/s) = 2.92843 3.62021 3.29254
# Velocity P-wave (km/s) = 5.51963 7.55827 6.61792
#
# Compressibility (1/GPa) = 0.02765412
#
# Stress axis : x y z
#
# Youngs Moduli (GPa) = 45.30275 63.91309 15.04929
#
# Poissons Ratio (x) = 0.41152 0.27176
# Poissons Ratio (y) = 0.29169 0.20709
# Poissons Ratio (z) = 0.81806 0.87948
#
# Static dielectric constant tensor:
#      x y z
#    x 1.730740 0.000000 0.000000 
#    y 0.000000 1.628670 0.000000 
#    z 0.000000 0.000000 1.629460 
# 
# From -- ./inp_files/7300.got.cif
#   From: 2010.05.17/outbox.cif.g08.bks.cpg/sg65_4_cif.got.tgz:7300.got - 2010.06.03 17:01:31.
