data_PCOD9493270
_publ_section_title
;
Structure prediction by ZEFSAII (Michael W. Deem and Ramdas Pophale) SiO2 
 PCOD9493270
Probable space group: C M M M
;
_chemical_formula_sum "Si O2"
_cell_formula_units_Z 72
_cell_length_a 23.267280
_cell_length_b 19.861202
_cell_length_c 11.793430
_cell_angle_alpha 90.000000
_cell_angle_beta 90.000000
_cell_angle_gamma 90.000000
_cell_volume 5449.934444
_symmetry_space_group_name_H-M "C M M M"
_symmetry_group_IT_number 65
_symmetry_cell_setting 'orthorhombic'
loop_
_space_group_symop_operation_xyz
x,y,z
-x,-y,z
x,-y,-z
-x,y,-z
-x,-y,-z
x,y,-z
-x,y,z
x,-y,z
1/2+x,1/2+y,z
1/2-x,1/2-y,z
1/2+x,1/2-y,-z
1/2-x,1/2+y,-z
1/2-x,1/2-y,-z
1/2+x,1/2+y,-z
1/2-x,1/2+y,z
1/2+x,1/2-y,z
loop_
_atom_site_type_symbol
_atom_site_label
_atom_site_fract_x
_atom_site_fract_y
_atom_site_fract_z
Si Si1 0.724870 0.853972 0.363280
Si Si2 0.843033 0.225884 0.636617
Si Si3 0.388707 0.500000 0.635567
Si Si4 0.568073 0.366245 0.243097
Si Si5 0.930202 0.077964 0.000000
Si Si6 0.753136 0.000000 0.361869
O O1 0.720478 0.856025 0.500000
O O2 0.787319 0.821251 0.340718
O O3 0.676391 0.800811 0.326985
O O4 0.724653 0.930511 0.321315
O O5 0.852543 0.224710 0.500000
O O6 0.896216 0.194299 0.702219
O O7 0.392795 0.500000 0.500000
O O8 0.418014 0.433534 0.685386
O O9 0.320949 0.500000 0.666143
O O10 0.500000 0.353598 0.244811
O O11 0.586644 0.383896 0.114634
O O12 0.000000 0.075151 0.000000
O O13 0.910253 0.000000 0.000000
O O14 0.750557 0.000000 0.500000
#
# Coordination Sequence:
#
# PCOD9493270 Si02
#       6
#    16  16   8  16   8   8
#     4   8  14  24  39  57  83 111 135 162 196 241
#     4   9  16  26  39  60  85 108 131 164 207 241
#     4  11  19  25  37  64  90 106 131 163 198 241
#     4  11  20  29  41  56  81 113 140 167 199 238
#     4   9  18  32  42  51  72 111 155 174 184 223
#     4   9  14  23  39  61  83 108 139 163 188 233
#
# _framework density 13.211168000000001
#
# number of rings (size 3 to 8) (size 9 to 14) (size 15 to 20)
#    0.000    2.556    3.333    2.333    0.000    2.222 
#    0.000    0.000    0.000    2.667    0.000    0.778 
#    0.000    4.444    0.000    4.000    0.000    0.889 
#
# Total GULP energy -200408.377141 kJ/mol
# GULP energy per Si atom -5566.899365 kJ/mol
# Density = 1.318110 g / cm^3
# Si number density = 13.211168 Si / 1000 Ang^3
#
#
#
# Elastic Constant Matrix: (Units=GPa)
#
#
# Indices 1 2 3 4 5 6 
#
# 1 64.5168 52.3564 32.0601 0.0000 0.0000 0.0000
# 2 52.3564 115.4900 30.0189 0.0000 0.0000 0.0000
# 3 32.0601 30.0189 57.5027 0.0000 0.0000 0.0000
# 4 0.0000 0.0000 0.0000 9.1372 0.0000 0.0000
# 5 0.0000 0.0000 0.0000 0.0000 -8.5216 0.0000
# 6 0.0000 0.0000 0.0000 0.0000 0.0000 23.4676
#
#
#
# Elastic Compliance Matrix: (Units=1/GPa)
#
#
# Indices 1 2 3 4 5 6 
#
# 1 0.029471 -0.010517 -0.010941 0.000000 0.000000 0.000000
# 2 -0.010517 0.013771 -0.001326 0.000000 0.000000 0.000000
# 3 -0.010941 -0.001326 0.024183 0.000000 0.000000 0.000000
# 4 0.000000 0.000000 0.000000 0.109443 0.000000 0.000000
# 5 0.000000 0.000000 0.000000 0.000000 -0.117348 0.000000
# 6 0.000000 0.000000 0.000000 0.000000 0.000000 0.042612
#
#
# Mechanical properties :
#
#
# Convention : Reuss Voigt Hill
#
# Bulk Modulus (GPa) = 45.75001 51.82002 48.78502
# Shear Modulus (GPa) = 32.26120 13.02155 22.64138
#
# Velocity S-wave (km/s) = 4.94698 3.14291 4.14430
# Velocity P-wave (km/s) = 8.20580 7.24431 7.74000
#
# Compressibility (1/GPa) = 0.02185792
#
# Stress axis : x y z
#
# Youngs Moduli (GPa) = 33.93135 72.61673 41.35185
#
# Poissons Ratio (x) = 0.76368 0.45244
# Poissons Ratio (y) = 0.35684 0.05482
# Poissons Ratio (z) = 0.37125 0.09626
#
# Static dielectric constant tensor:
#      x y z
#    x 1.421600 0.000000 0.000000 
#    y 0.000000 1.452990 0.000000 
#    z 0.000000 0.000000 1.424340 
# 
# From -- ./inp_files/26566.got.cif
#   From: 2010.05.17/outbox.cif.g08.bks.cpg/sg65_14_cif.got.tgz:26566.got - 2010.06.03 17:01:31.
