data_PCOD9493598
_publ_section_title
;
Structure prediction by ZEFSAII (Michael W. Deem and Ramdas Pophale) SiO2 
 PCOD9493598
Probable space group: C M M M
;
_chemical_formula_sum "Si O2"
_cell_formula_units_Z 72
_cell_length_a 19.021206
_cell_length_b 7.673429
_cell_length_c 24.793186
_cell_angle_alpha 90.000000
_cell_angle_beta 90.000000
_cell_angle_gamma 90.000000
_cell_volume 3618.760712
_symmetry_space_group_name_H-M "C M M M"
_symmetry_group_IT_number 65
_symmetry_cell_setting 'orthorhombic'
loop_
_space_group_symop_operation_xyz
x,y,z
-x,-y,z
x,-y,-z
-x,y,-z
-x,-y,-z
x,y,-z
-x,y,z
x,-y,z
1/2+x,1/2+y,z
1/2-x,1/2-y,z
1/2+x,1/2-y,-z
1/2-x,1/2+y,-z
1/2-x,1/2-y,-z
1/2+x,1/2+y,-z
1/2-x,1/2+y,z
1/2+x,1/2-y,z
loop_
_atom_site_type_symbol
_atom_site_label
_atom_site_fract_x
_atom_site_fract_y
_atom_site_fract_z
Si Si1 0.083482 0.787397 0.500000
Si Si2 0.579906 0.291169 0.267407
Si Si3 0.581408 0.212799 0.939623
Si Si4 0.414516 0.293929 0.615929
Si Si5 0.668301 0.206257 0.837906
O O1 0.111053 0.722840 0.441951
O O2 0.000000 0.748689 0.500000
O O3 0.088844 0.000000 0.500000
O O4 0.500000 0.226207 0.257765
O O5 0.575084 0.500000 0.273405
O O6 0.607046 0.222485 0.325544
O O7 0.628969 0.257775 0.216793
O O8 0.500000 0.262567 0.930886
O O9 0.629633 0.278841 0.891132
O O10 0.582981 0.000000 0.939738
O O11 0.602646 0.268638 0.000000
O O12 0.500000 0.281116 0.616114
O O13 0.397448 0.500000 0.615092
O O14 0.750000 0.250000 0.836538
O O15 0.661935 0.000000 0.841560
#
# Coordination Sequence:
#
# PCOD9493598 Si02
#       5
#     8  16  16  16  16
#     4   7   8  12  26  52  86 117 144 177 219 269
#     4   9  17  30  48  70  97 127 158 194 236 280
#     4   8  15  30  52  75  96 119 150 188 229 275
#     4   7  10  17  32  57  88 119 148 181 224 272
#     4  11  22  34  49  70  96 127 162 197 235 277
#
# _framework density 19.896315000000001
#
# number of rings (size 3 to 8) (size 9 to 14) (size 15 to 20)
#    0.000    3.444    0.000    4.667    0.000    1.778 
#    0.000    0.000    0.000    2.000    0.000    9.333 
#    0.000    4.444    0.000    0.000    0.000    0.000 
#
# Total GULP energy -200413.013220 kJ/mol
# GULP energy per Si atom -5567.028145 kJ/mol
# Density = 1.985103 g / cm^3
# Si number density = 19.896315 Si / 1000 Ang^3
#
#
#
# Elastic Constant Matrix: (Units=GPa)
#
#
# Indices 1 2 3 4 5 6 
#
# 1 71.0442 1.7738 104.7975 0.0000 0.0000 0.0000
# 2 1.7738 35.6875 10.8930 0.0000 0.0000 0.0000
# 3 104.7975 10.8930 271.2749 0.0000 0.0000 0.0000
# 4 0.0000 0.0000 0.0000 9.6715 0.0000 0.0000
# 5 0.0000 0.0000 0.0000 0.0000 -4.4001 0.0000
# 6 0.0000 0.0000 0.0000 0.0000 0.0000 195.7003
#
#
#
# Elastic Compliance Matrix: (Units=1/GPa)
#
#
# Indices 1 2 3 4 5 6 
#
# 1 0.032904 0.002272 -0.012803 0.000000 0.000000 0.000000
# 2 0.002272 0.028526 -0.002023 0.000000 0.000000 0.000000
# 3 -0.012803 -0.002023 0.008713 0.000000 0.000000 0.000000
# 4 0.000000 0.000000 0.000000 0.103396 0.000000 0.000000
# 5 0.000000 0.000000 0.000000 0.000000 -0.227267 0.000000
# 6 0.000000 0.000000 0.000000 0.000000 0.000000 0.005110
#
#
# Mechanical properties :
#
#
# Convention : Reuss Voigt Hill
#
# Bulk Modulus (GPa) = 22.20445 68.10391 45.15418
# Shear Modulus (GPa) = -588.37286 57.56382 -265.40452
#
# Velocity S-wave (km/s) = -17.21515 5.38467 -11.56215
# Velocity P-wave (km/s) = 19.59501 8.54186 12.46998
#
# Compressibility (1/GPa) = 0.04503603
#
# Stress axis : x y z
#
# Youngs Moduli (GPa) = 30.39130 35.05615 114.76611
#
# Poissons Ratio (x) = -0.07966 1.46930
# Poissons Ratio (y) = -0.06906 0.23220
# Poissons Ratio (z) = 0.38909 0.07093
#
# Static dielectric constant tensor:
#      x y z
#    x 1.629430 0.000000 0.000000 
#    y 0.000000 1.762430 0.000000 
#    z 0.000000 0.000000 1.790180 
# 
# From -- ./inp_files/70370.got.cif
#   From: 2010.05.17/outbox.cif.g08.bks.cpg/sg65_36_cif.got.tgz:70370.got - 2010.06.03 17:01:31.
