data_PCOD9493279
_publ_section_title
;
Structure prediction by ZEFSAII (Michael W. Deem and Ramdas Pophale) SiO2 
 PCOD9493279
Probable space group: C M M M
;
_chemical_formula_sum "Si O2"
_cell_formula_units_Z 80
_cell_length_a 34.471688
_cell_length_b 19.651935
_cell_length_c 8.647087
_cell_angle_alpha 90.000000
_cell_angle_beta 90.000000
_cell_angle_gamma 90.000000
_cell_volume 5857.842598
_symmetry_space_group_name_H-M "C M M M"
_symmetry_group_IT_number 65
_symmetry_cell_setting 'orthorhombic'
loop_
_space_group_symop_operation_xyz
x,y,z
-x,-y,z
x,-y,-z
-x,y,-z
-x,-y,-z
x,y,-z
-x,y,z
x,-y,z
1/2+x,1/2+y,z
1/2-x,1/2-y,z
1/2+x,1/2-y,-z
1/2-x,1/2+y,-z
1/2-x,1/2-y,-z
1/2+x,1/2+y,-z
1/2-x,1/2+y,z
1/2+x,1/2-y,z
loop_
_atom_site_type_symbol
_atom_site_label
_atom_site_fract_x
_atom_site_fract_y
_atom_site_fract_z
Si Si1 0.746449 0.000000 0.816710
Si Si2 0.733273 0.857577 0.686615
Si Si3 0.543379 0.420943 0.188149
Si Si4 0.833172 0.000000 0.315403
Si Si5 0.688793 0.722788 0.686086
Si Si6 0.124095 0.133062 0.814573
O O1 0.726410 0.069677 0.762325
O O2 0.788630 0.000000 0.736650
O O3 0.751191 0.000000 0.000000
O O4 0.733221 0.864168 0.500000
O O5 0.702870 0.798398 0.729157
O O6 0.775875 0.828137 0.731057
O O7 0.500000 0.401648 0.240161
O O8 0.550375 0.500000 0.233294
O O9 0.579359 0.374527 0.237559
O O10 0.542987 0.420432 0.000000
O O11 0.854060 0.933489 0.249136
O O12 0.835111 0.000000 0.500000
O O13 0.686460 0.720033 0.500000
O O14 0.648759 0.696951 0.756146
O O15 0.124991 0.131484 0.000000
#
# Coordination Sequence:
#
# PCOD9493279 Si02
#       6
#     8  16  16   8  16  16
#     4  12  22  30  44  65  83 102 137 182 216 238
#     4   9  18  32  46  59  80 112 141 164 202 255
#     4   8  14  25  40  58  82 109 136 169 209 250
#     4  12  22  30  39  55  82 113 142 171 209 254
#     4   9  18  31  45  60  81 111 140 166 205 252
#     4  11  19  28  44  64  81 102 141 184 215 240
#
# _framework density 13.656905999999999
#
# number of rings (size 3 to 8) (size 9 to 14) (size 15 to 20)
#    0.000    2.200    3.000    4.200    0.000    0.800 
#    0.000    2.000    0.000    3.000    0.000    0.000 
#    0.000    0.000    0.000    0.900    0.000   18.200 
#
# Total GULP energy -222992.179628 kJ/mol
# GULP energy per Si atom -5574.804491 kJ/mol
# Density = 1.362582 g / cm^3
# Si number density = 13.656906 Si / 1000 Ang^3
#
#
#
# Elastic Constant Matrix: (Units=GPa)
#
#
# Indices 1 2 3 4 5 6 
#
# 1 106.3953 49.9513 21.2378 0.0000 0.0000 0.0000
# 2 49.9513 92.6753 24.7460 0.0000 0.0000 0.0000
# 3 21.2378 24.7460 26.5327 0.0000 0.0000 0.0000
# 4 0.0000 0.0000 0.0000 14.5474 0.0000 0.0000
# 5 0.0000 0.0000 0.0000 0.0000 -5.3910 0.0000
# 6 0.0000 0.0000 0.0000 0.0000 0.0000 17.6115
#
#
#
# Elastic Compliance Matrix: (Units=1/GPa)
#
#
# Indices 1 2 3 4 5 6 
#
# 1 0.013099 -0.005674 -0.005194 0.000000 0.000000 0.000000
# 2 -0.005674 0.016826 -0.011152 0.000000 0.000000 0.000000
# 3 -0.005194 -0.011152 0.052247 0.000000 0.000000 0.000000
# 4 0.000000 0.000000 0.000000 0.068741 0.000000 0.000000
# 5 0.000000 0.000000 0.000000 0.000000 -0.185494 0.000000
# 6 0.000000 0.000000 0.000000 0.000000 0.000000 0.056781
#
#
# Mechanical properties :
#
#
# Convention : Reuss Voigt Hill
#
# Bulk Modulus (GPa) = 26.22270 46.38593 36.30431
# Shear Modulus (GPa) = 63.33117 13.99812 38.66464
#
# Velocity S-wave (km/s) = 6.81716 3.20501 5.32662
# Velocity P-wave (km/s) = 9.01153 6.90906 8.02940
#
# Compressibility (1/GPa) = 0.03813490
#
# Stress axis : x y z
#
# Youngs Moduli (GPa) = 76.33982 59.43142 19.13973
#
# Poissons Ratio (x) = 0.33719 0.09940
# Poissons Ratio (y) = 0.43313 0.21344
# Poissons Ratio (z) = 0.39648 0.66276
#
# Static dielectric constant tensor:
#      x y z
#    x 1.456700 0.000000 0.000000 
#    y 0.000000 1.446180 0.000000 
#    z 0.000000 0.000000 1.459580 
# 
# From -- ./inp_files/18451.got.cif
#   From: 2010.05.17/outbox.cif.g08.bks.cpg/sg65_10_cif.got.tgz:18451.got - 2010.06.03 17:01:31.
