data_PCOD9493682
_publ_section_title
;
Structure prediction by ZEFSAII (Michael W. Deem and Ramdas Pophale) SiO2 
 PCOD9493682
Probable space group: C M M M
;
_chemical_formula_sum "Si O2"
_cell_formula_units_Z 72
_cell_length_a 8.482501
_cell_length_b 26.160880
_cell_length_c 17.407305
_cell_angle_alpha 90.000000
_cell_angle_beta 90.000000
_cell_angle_gamma 90.000000
_cell_volume 3862.849670
_symmetry_space_group_name_H-M "C M M M"
_symmetry_group_IT_number 65
_symmetry_cell_setting 'orthorhombic'
loop_
_space_group_symop_operation_xyz
x,y,z
-x,-y,z
x,-y,-z
-x,y,-z
-x,-y,-z
x,y,-z
-x,y,z
x,-y,z
1/2+x,1/2+y,z
1/2-x,1/2-y,z
1/2+x,1/2-y,-z
1/2-x,1/2+y,-z
1/2-x,1/2-y,-z
1/2+x,1/2+y,-z
1/2-x,1/2+y,z
1/2+x,1/2-y,z
loop_
_atom_site_type_symbol
_atom_site_label
_atom_site_fract_x
_atom_site_fract_y
_atom_site_fract_z
Si Si1 0.813461 0.696304 0.249492
Si Si2 0.807122 0.000000 0.588250
Si Si3 0.809039 0.055190 0.125702
Si Si4 0.308930 0.667299 0.917017
Si Si5 0.310256 0.588474 0.297756
O O1 0.750000 0.750000 0.280727
O O2 0.755555 0.691278 0.160959
O O3 0.754475 0.645903 0.293948
O O4 0.000000 0.696917 0.249722
O O5 0.756869 0.949275 0.634695
O O6 0.756448 0.000000 0.500000
O O7 0.000000 0.000000 0.589550
O O8 0.759208 0.107544 0.086035
O O9 0.771189 0.062512 0.215770
O O10 0.000000 0.054226 0.118925
O O11 0.750169 0.000000 0.098507
O O12 0.500000 0.669444 0.912920
O O13 0.259303 0.688554 0.000000
O O14 0.500000 0.591894 0.300822
#
# Coordination Sequence:
#
# PCOD9493682 Si02
#       5
#    16   8  16  16  16
#     4  11  22  36  54  74  97 133 179 225 268 311
#     4   9  16  28  55  93 122 143 168 201 245 298
#     4   8  12  21  41  67  94 129 169 205 241 286
#     4   9  18  31  47  70 100 132 170 217 267 316
#     4   9  16  30  52  79 110 140 171 209 248 299
#
# _framework density 18.639088000000001
#
# number of rings (size 3 to 8) (size 9 to 14) (size 15 to 20)
#    0.000    2.778    1.111    3.333    0.000    1.333 
#    0.000    2.778    0.000    2.000    0.000    3.111 
#    0.000    0.000    0.000    0.000    0.000    0.000 
#
# Total GULP energy -200671.978535 kJ/mol
# GULP energy per Si atom -5574.221626 kJ/mol
# Density = 1.859666 g / cm^3
# Si number density = 18.639088 Si / 1000 Ang^3
#
#
#
# Elastic Constant Matrix: (Units=GPa)
#
#
# Indices 1 2 3 4 5 6 
#
# 1 28.5191 24.3775 24.9532 0.0000 0.0000 0.0000
# 2 24.3775 162.5915 49.6637 0.0000 0.0000 0.0000
# 3 24.9532 49.6637 103.7131 0.0000 0.0000 0.0000
# 4 0.0000 0.0000 0.0000 -81.5322 0.0000 0.0000
# 5 0.0000 0.0000 0.0000 0.0000 9.0925 0.0000
# 6 0.0000 0.0000 0.0000 0.0000 0.0000 22.0766
#
#
#
# Elastic Compliance Matrix: (Units=1/GPa)
#
#
# Indices 1 2 3 4 5 6 
#
# 1 0.046723 -0.004183 -0.009238 0.000000 0.000000 0.000000
# 2 -0.004183 0.007579 -0.002623 0.000000 0.000000 0.000000
# 3 -0.009238 -0.002623 0.013121 0.000000 0.000000 0.000000
# 4 0.000000 0.000000 0.000000 -0.012265 0.000000 0.000000
# 5 0.000000 0.000000 0.000000 0.000000 0.109981 0.000000
# 6 0.000000 0.000000 0.000000 0.000000 0.000000 0.045297
#
#
# Mechanical properties :
#
#
# Convention : Reuss Voigt Hill
#
# Bulk Modulus (GPa) = 28.30138 54.75694 41.52916
# Shear Modulus (GPa) = 19.66167 2.98265 11.32216
#
# Velocity S-wave (km/s) = 3.25139 1.26637 2.46731
# Velocity P-wave (km/s) = 5.41408 5.61956 5.51778
#
# Compressibility (1/GPa) = 0.03533396
#
# Stress axis : x y z
#
# Youngs Moduli (GPa) = 21.40255 131.94917 76.21628
#
# Poissons Ratio (x) = 0.55200 0.70411
# Poissons Ratio (y) = 0.08954 0.19988
# Poissons Ratio (z) = 0.19772 0.34605
#
# Static dielectric constant tensor:
#      x y z
#    x 1.638660 0.000000 0.000000 
#    y 0.000000 1.689930 0.000000 
#    z 0.000000 0.000000 1.634760 
# 
# From -- ./inp_files/49730.got.cif
#   From: 2010.05.17/outbox.cif.g08.bks.cpg/sg65_25_cif.got.tgz:49730.got - 2010.06.03 17:01:31.
