data_PCOD9493846
_publ_section_title
;
Structure prediction by ZEFSAII (Michael W. Deem and Ramdas Pophale) SiO2 
 PCOD9493846
Probable space group: C M M M
;
_chemical_formula_sum "Si O2"
_cell_formula_units_Z 64
_cell_length_a 16.622506
_cell_length_b 7.720980
_cell_length_c 24.479456
_cell_angle_alpha 90.000000
_cell_angle_beta 90.000000
_cell_angle_gamma 90.000000
_cell_volume 3141.743232
_symmetry_space_group_name_H-M "C M M M"
_symmetry_group_IT_number 65
_symmetry_cell_setting 'orthorhombic'
loop_
_space_group_symop_operation_xyz
x,y,z
-x,-y,z
x,-y,-z
-x,y,-z
-x,-y,-z
x,y,-z
-x,y,z
x,-y,z
1/2+x,1/2+y,z
1/2-x,1/2-y,z
1/2+x,1/2-y,-z
1/2-x,1/2+y,-z
1/2-x,1/2-y,-z
1/2+x,1/2+y,-z
1/2-x,1/2+y,z
1/2+x,1/2-y,z
loop_
_atom_site_type_symbol
_atom_site_label
_atom_site_fract_x
_atom_site_fract_y
_atom_site_fract_z
Si Si1 0.500000 0.705551 0.561398
Si Si2 0.661343 0.795470 0.627890
Si Si3 0.408257 0.789158 0.261205
Si Si4 0.343870 0.792823 0.142366
Si Si5 0.404121 0.500000 0.061976
O O1 0.500000 0.500000 0.557598
O O2 0.500000 0.779917 0.500000
O O3 0.582559 0.751846 0.592519
O O4 0.750000 0.750000 0.606241
O O5 0.647018 0.723204 0.689284
O O6 0.661209 0.000000 0.632766
O O7 0.500000 0.736309 0.272304
O O8 0.382724 0.739785 0.200378
O O9 0.406108 0.000000 0.261550
O O10 0.250000 0.750000 0.146594
O O11 0.377533 0.671331 0.094697
O O12 0.356152 0.000000 0.133867
O O13 0.500000 0.500000 0.059931
O O14 0.371941 0.500000 0.000000
#
# Coordination Sequence:
#
# PCOD9493846 Si02
#       5
#     8  16  16  16   8
#     4  11  25  45  65  91 129 169 221 272 317 382
#     4  11  22  40  65  95 130 168 215 265 325 389
#     4   9  18  35  61  93 130 167 205 263 325 388
#     4  11  22  41  65  96 132 170 215 270 331 391
#     4  11  26  46  66  94 129 169 223 275 323 394
#
# _framework density 20.370856
#
# number of rings (size 3 to 8) (size 9 to 14) (size 15 to 20)
#    0.000    1.500    2.500    2.625    0.000    4.000 
#    4.500    1.250    0.000    0.000    0.000    0.000 
#    0.000    0.000    0.000    0.000    0.000    0.000 
#
# Total GULP energy -178688.392431 kJ/mol
# GULP energy per Si atom -5584.012263 kJ/mol
# Density = 2.032449 g / cm^3
# Si number density = 20.370856 Si / 1000 Ang^3
#
#
#
# Elastic Constant Matrix: (Units=GPa)
#
#
# Indices 1 2 3 4 5 6 
#
# 1 143.0029 17.6902 61.6791 0.0000 0.0000 0.0000
# 2 17.6902 85.8344 39.4236 0.0000 0.0000 0.0000
# 3 61.6791 39.4236 146.8952 0.0000 0.0000 0.0000
# 4 0.0000 0.0000 0.0000 26.5132 0.0000 0.0000
# 5 0.0000 0.0000 0.0000 0.0000 7.2451 0.0000
# 6 0.0000 0.0000 0.0000 0.0000 0.0000 12.5606
#
#
#
# Elastic Compliance Matrix: (Units=1/GPa)
#
#
# Indices 1 2 3 4 5 6 
#
# 1 0.008541 -0.000129 -0.003551 0.000000 0.000000 0.000000
# 2 -0.000129 0.013290 -0.003513 0.000000 0.000000 0.000000
# 3 -0.003551 -0.003513 0.009242 0.000000 0.000000 0.000000
# 4 0.000000 0.000000 0.000000 0.037717 0.000000 0.000000
# 5 0.000000 0.000000 0.000000 0.000000 0.138024 0.000000
# 6 0.000000 0.000000 0.000000 0.000000 0.000000 0.079614
#
#
# Mechanical properties :
#
#
# Convention : Reuss Voigt Hill
#
# Bulk Modulus (GPa) = 59.92996 68.14646 64.03821
# Shear Modulus (GPa) = 16.31980 26.39308 21.35644
#
# Velocity S-wave (km/s) = 2.83350 3.60339 3.24139
# Velocity P-wave (km/s) = 6.33943 7.13008 6.74635
#
# Compressibility (1/GPa) = 0.01668615
#
# Stress axis : x y z
#
# Youngs Moduli (GPa) = 117.08753 75.24292 108.20749
#
# Poissons Ratio (x) = 0.00971 0.38429
# Poissons Ratio (y) = 0.01511 0.38010
# Poissons Ratio (z) = 0.41583 0.26430
#
# Static dielectric constant tensor:
#      x y z
#    x 1.693060 0.000000 0.000000 
#    y 0.000000 1.739890 0.000000 
#    z 0.000000 0.000000 1.754300 
# 
# From -- ./inp_files/69521.got.cif
#   From: 2010.05.17/outbox.cif.g08.bks.cpg/sg65_35_cif.got.tgz:69521.got - 2010.06.03 17:01:31.
