data_PCOD9493265
_publ_section_title
;
Structure prediction by ZEFSAII (Michael W. Deem and Ramdas Pophale) SiO2 
 PCOD9493265
Probable space group: C M M M
;
_chemical_formula_sum "Si O2"
_cell_formula_units_Z 64
_cell_length_a 18.848834
_cell_length_b 22.651812
_cell_length_c 10.438994
_cell_angle_alpha 90.000000
_cell_angle_beta 90.000000
_cell_angle_gamma 90.000000
_cell_volume 4457.035427
_symmetry_space_group_name_H-M "C M M M"
_symmetry_group_IT_number 65
_symmetry_cell_setting 'orthorhombic'
loop_
_space_group_symop_operation_xyz
x,y,z
-x,-y,z
x,-y,-z
-x,y,-z
-x,-y,-z
x,y,-z
-x,y,z
x,-y,z
1/2+x,1/2+y,z
1/2-x,1/2-y,z
1/2+x,1/2-y,-z
1/2-x,1/2+y,-z
1/2-x,1/2-y,-z
1/2+x,1/2+y,-z
1/2-x,1/2+y,z
1/2+x,1/2-y,z
loop_
_atom_site_type_symbol
_atom_site_label
_atom_site_fract_x
_atom_site_fract_y
_atom_site_fract_z
Si Si1 0.917840 0.929470 0.000000
Si Si2 0.417915 0.755492 0.153522
Si Si3 0.414784 0.570433 0.500000
Si Si4 0.356504 0.366656 0.247935
Si Si5 0.719506 0.182939 0.852610
O O1 0.880704 0.904723 0.126054
O O2 0.000000 0.909326 0.000000
O O3 0.916818 0.000000 0.000000
O O4 0.500000 0.769435 0.175855
O O5 0.395063 0.696726 0.229071
O O6 0.362393 0.807670 0.184292
O O7 0.408802 0.743202 0.000000
O O8 0.401913 0.500000 0.500000
O O9 0.500000 0.579097 0.500000
O O10 0.381354 0.600952 0.624723
O O11 0.272381 0.354266 0.235224
O O12 0.750000 0.250000 0.852706
O O13 0.724257 0.161677 0.000000
#
# Coordination Sequence:
#
# PCOD9493265 Si02
#       5
#     8  16   8  16  16
#     4  11  20  28  43  64  81 105 152 197 216 244
#     4   9  15  25  46  72  95 117 143 174 216 269
#     4  11  24  36  43  58  89 123 154 189 224 254
#     4  11  18  31  46  61  87 122 151 180 221 259
#     4   8  14  26  43  67  91 113 142 180 217 260
#
# _framework density 14.35932
#
# number of rings (size 3 to 8) (size 9 to 14) (size 15 to 20)
#    0.000    2.250    2.500    4.500    0.000    2.000 
#    0.000    5.625    0.000    0.000    0.000    0.000 
#    0.000    6.000    0.000    0.000    0.000    0.000 
#
# Total GULP energy -178293.761340 kJ/mol
# GULP energy per Si atom -5571.680042 kJ/mol
# Density = 1.432664 g / cm^3
# Si number density = 14.359320 Si / 1000 Ang^3
#
#
#
# Elastic Constant Matrix: (Units=GPa)
#
#
# Indices 1 2 3 4 5 6 
#
# 1 141.1837 51.8956 53.0140 0.0000 0.0000 0.0000
# 2 51.8956 53.8968 46.7952 0.0000 0.0000 0.0000
# 3 53.0140 46.7952 104.0898 0.0000 0.0000 0.0000
# 4 0.0000 0.0000 0.0000 0.7003 0.0000 0.0000
# 5 0.0000 0.0000 0.0000 0.0000 14.4647 0.0000
# 6 0.0000 0.0000 0.0000 0.0000 0.0000 24.1055
#
#
#
# Elastic Compliance Matrix: (Units=1/GPa)
#
#
# Indices 1 2 3 4 5 6 
#
# 1 0.011084 -0.009466 -0.001390 0.000000 0.000000 0.000000
# 2 -0.009466 0.038517 -0.012495 0.000000 0.000000 0.000000
# 3 -0.001390 -0.012495 0.015932 0.000000 0.000000 0.000000
# 4 0.000000 0.000000 0.000000 1.427903 0.000000 0.000000
# 5 0.000000 0.000000 0.000000 0.000000 0.069134 0.000000
# 6 0.000000 0.000000 0.000000 0.000000 0.000000 0.041484
#
#
# Mechanical properties :
#
#
# Convention : Reuss Voigt Hill
#
# Bulk Modulus (GPa) = 53.10038 66.95334 60.02686
# Shear Modulus (GPa) = 3.01744 17.68514 10.35129
#
# Velocity S-wave (km/s) = 1.45119 3.51324 2.68783
# Velocity P-wave (km/s) = 6.31411 7.94893 7.17821
#
# Compressibility (1/GPa) = 0.01883226
#
# Stress axis : x y z
#
# Youngs Moduli (GPa) = 90.21749 25.96254 62.76650
#
# Poissons Ratio (x) = 0.24577 0.08723
# Poissons Ratio (y) = 0.85401 0.78425
# Poissons Ratio (z) = 0.12537 0.32439
#
# Static dielectric constant tensor:
#      x y z
#    x 1.514760 0.000000 0.000000 
#    y 0.000000 1.456140 0.000000 
#    z 0.000000 0.000000 1.462210 
# 
# From -- ./inp_files/11130.got.cif
#   From: 2010.05.17/outbox.cif.g08.bks.cpg/sg65_6_cif.got.tgz:11130.got - 2010.06.03 17:01:31.
