data_PCOD9493967
_publ_section_title
;
Structure prediction by ZEFSAII (Michael W. Deem and Ramdas Pophale) SiO2 
 PCOD9493967
Probable space group: C M M M
;
_chemical_formula_sum "Si O2"
_cell_formula_units_Z 68
_cell_length_a 21.126272
_cell_length_b 21.126278
_cell_length_c 8.738947
_cell_angle_alpha 90.000000
_cell_angle_beta 90.000000
_cell_angle_gamma 90.000000
_cell_volume 3900.362415
_symmetry_space_group_name_H-M "C M M M"
_symmetry_group_IT_number 65
_symmetry_cell_setting 'orthorhombic'
loop_
_space_group_symop_operation_xyz
x,y,z
-x,-y,z
x,-y,-z
-x,y,-z
-x,-y,-z
x,y,-z
-x,y,z
x,-y,z
1/2+x,1/2+y,z
1/2-x,1/2-y,z
1/2+x,1/2-y,-z
1/2-x,1/2+y,-z
1/2-x,1/2-y,-z
1/2+x,1/2+y,-z
1/2-x,1/2+y,z
1/2+x,1/2-y,z
loop_
_atom_site_type_symbol
_atom_site_label
_atom_site_fract_x
_atom_site_fract_y
_atom_site_fract_z
Si Si1 0.500000 0.000000 0.197190
Si Si2 0.742896 0.928252 0.316450
Si Si3 0.892026 0.392027 0.179169
Si Si4 0.197163 0.802837 0.816523
Si Si5 0.571748 0.757104 0.683550
O O1 0.554807 0.054807 0.191447
O O2 0.744720 0.923929 0.500000
O O3 0.671627 0.916071 0.258870
O O4 0.783334 0.871447 0.245544
O O5 0.761835 0.000000 0.272300
O O6 0.916070 0.328373 0.258868
O O7 0.879036 0.379037 0.000000
O O8 0.250000 0.750000 0.768395
O O9 0.128553 0.783334 0.754455
O O10 0.196695 0.803304 0.000000
O O11 0.576071 0.755280 0.500000
O O12 0.500000 0.738165 0.727700
#
# Coordination Sequence:
#
# PCOD9493967 Si02
#       5
#     4  16  16  16  16
#     4  12  25  36  53  82 125 172 205 242 289 344
#     4  11  24  40  59  87 120 157 199 248 304 356
#     4  12  22  36  55  81 117 162 207 243 286 345
#     4  11  23  39  63  92 118 157 206 252 301 357
#     4  11  24  40  59  87 120 157 199 248 304 356
#
# _framework density 17.434277000000002
#
# number of rings (size 3 to 8) (size 9 to 14) (size 15 to 20)
#    0.000    0.706    4.706    3.882    0.000    3.765 
#    0.000    2.353    0.000    0.706    0.000    4.941 
#    0.000    0.000    0.000    0.000    0.000    0.000 
#
# Total GULP energy -189521.756858 kJ/mol
# GULP energy per Si atom -5574.169319 kJ/mol
# Density = 1.739460 g / cm^3
# Si number density = 17.434277 Si / 1000 Ang^3
#
#
#
# Elastic Constant Matrix: (Units=GPa)
#
#
# Indices 1 2 3 4 5 6 
#
# 1 135.4210 99.6496 52.4603 0.0000 0.0000 0.0000
# 2 99.6496 135.4245 52.4625 0.0000 0.0000 0.0000
# 3 52.4603 52.4625 66.5159 0.0000 0.0000 0.0000
# 4 0.0000 0.0000 0.0000 61.8856 0.0000 0.0000
# 5 0.0000 0.0000 0.0000 0.0000 61.8895 0.0000
# 6 0.0000 0.0000 0.0000 0.0000 0.0000 51.4592
#
#
#
# Elastic Compliance Matrix: (Units=1/GPa)
#
#
# Indices 1 2 3 4 5 6 
#
# 1 0.017260 -0.010694 -0.005178 0.000000 0.000000 0.000000
# 2 -0.010694 0.017260 -0.005178 0.000000 0.000000 0.000000
# 3 -0.005178 -0.005178 0.023202 0.000000 0.000000 0.000000
# 4 0.000000 0.000000 0.000000 0.016159 0.000000 0.000000
# 5 0.000000 0.000000 0.000000 0.000000 0.016158 0.000000
# 6 0.000000 0.000000 0.000000 0.000000 0.000000 0.019433
#
#
# Mechanical properties :
#
#
# Convention : Reuss Voigt Hill
#
# Bulk Modulus (GPa) = 64.01963 82.94516 73.48239
# Shear Modulus (GPa) = 31.89226 43.89947 37.89586
#
# Velocity S-wave (km/s) = 4.28165 5.02341 4.66729
# Velocity P-wave (km/s) = 7.82583 9.01806 8.44302
#
# Compressibility (1/GPa) = 0.01562021
#
# Stress axis : x y z
#
# Youngs Moduli (GPa) = 57.93892 57.93888 43.10012
#
# Poissons Ratio (x) = 0.61962 0.22315
# Poissons Ratio (y) = 0.61962 0.22319
# Poissons Ratio (z) = 0.29998 0.30003
#
# Static dielectric constant tensor:
#      x y z
#    x 1.576880 0.000000 0.000000 
#    y 0.000000 1.576880 0.000000 
#    z 0.000000 0.000000 1.604170 
# 
# From -- ./inp_files/8935.got.cif
#   From: 2010.05.17/outbox.cif.g08.bks.cpg/sg65_5_cif.got.tgz:8935.got - 2010.06.03 17:01:31.
