data_PCOD9493504
_publ_section_title
;
Structure prediction by ZEFSAII (Michael W. Deem and Ramdas Pophale) SiO2 
 PCOD9493504
Probable space group: C M M M
;
_chemical_formula_sum "Si O2"
_cell_formula_units_Z 116
_cell_length_a 29.610754
_cell_length_b 23.696275
_cell_length_c 7.643981
_cell_angle_alpha 90.000000
_cell_angle_beta 90.000000
_cell_angle_gamma 90.000000
_cell_volume 5363.510639
_symmetry_space_group_name_H-M "C M M M"
_symmetry_group_IT_number 65
_symmetry_cell_setting 'orthorhombic'
loop_
_space_group_symop_operation_xyz
x,y,z
-x,-y,z
x,-y,-z
-x,y,-z
-x,-y,-z
x,y,-z
-x,y,z
x,-y,z
1/2+x,1/2+y,z
1/2-x,1/2-y,z
1/2+x,1/2-y,-z
1/2-x,1/2+y,-z
1/2-x,1/2-y,-z
1/2+x,1/2+y,-z
1/2-x,1/2+y,z
1/2+x,1/2-y,z
loop_
_atom_site_type_symbol
_atom_site_label
_atom_site_fract_x
_atom_site_fract_y
_atom_site_fract_z
Si Si1 0.050121 0.327416 0.788546
Si Si2 0.701603 0.273495 0.204773
Si Si3 0.285994 0.937036 0.285872
Si Si4 0.063559 0.000000 0.500000
Si Si5 0.949860 0.800596 0.789041
Si Si6 0.589934 0.585426 0.199933
Si Si7 0.187101 0.901244 0.701697
Si Si8 0.149515 0.662672 0.293938
O O1 0.055329 0.262727 0.723066
O O2 0.097435 0.354316 0.735331
O O3 0.000000 0.347621 0.731480
O O4 0.049202 0.327478 0.000000
O O5 0.750000 0.250000 0.271506
O O6 0.689506 0.333093 0.290030
O O7 0.664634 0.223631 0.220180
O O8 0.707201 0.286336 0.000000
O O9 0.286506 0.935640 0.500000
O O10 0.234759 0.924280 0.231728
O O11 0.318102 0.886637 0.224066
O O12 0.299733 0.000000 0.232368
O O13 0.065871 0.951783 0.655421
O O14 0.915452 0.849160 0.743667
O O15 0.000000 0.820502 0.740638
O O16 0.948269 0.795504 0.000000
O O17 0.643389 0.574929 0.202849
O O18 0.572917 0.578604 0.000000
O O19 0.182005 0.918962 0.500000
O O20 0.157216 0.667708 0.500000
#
# Coordination Sequence:
#
# PCOD9493504 Si02
#       8
#    16  16  16   4  16  16  16  16
#     4   9  18  35  61  89 117 149 183 226 289 357
#     4  11  22  35  53  81 120 159 196 237 293 363
#     4   9  20  36  56  80 111 155 198 241 296 352
#     4  12  26  44  57  84 118 152 204 252 303 362
#     4   8  16  35  61  85 111 147 188 234 296 363
#     4  11  23  40  62  85 113 153 201 255 307 358
#     4  11  21  36  61  84 116 151 200 254 305 358
#     4  11  21  35  57  85 118 152 191 243 295 349
#
# _framework density 21.627624999999998
#
# number of rings (size 3 to 8) (size 9 to 14) (size 15 to 20)
#    0.000    1.931    2.069    3.103    0.966    1.931 
#    1.241    1.034    0.000    7.034    0.000    2.897 
#    0.000    0.000    0.000    0.000    0.000    0.000 
#
# Total GULP energy -323364.309141 kJ/mol
# GULP energy per Si atom -5575.246709 kJ/mol
# Density = 2.157840 g / cm^3
# Si number density = 21.627625 Si / 1000 Ang^3
#
#
#
# Elastic Constant Matrix: (Units=GPa)
#
#
# Indices 1 2 3 4 5 6 
#
# 1 75.9035 -5.0059 -10.2010 0.0000 0.0000 0.0000
# 2 -5.0059 53.3203 0.7903 0.0000 0.0000 0.0000
# 3 -10.2010 0.7903 73.0694 0.0000 0.0000 0.0000
# 4 0.0000 0.0000 0.0000 -0.0715 0.0000 0.0000
# 5 0.0000 0.0000 0.0000 0.0000 -138.2539 0.0000
# 6 0.0000 0.0000 0.0000 0.0000 0.0000 -29.0564
#
#
#
# Elastic Compliance Matrix: (Units=1/GPa)
#
#
# Indices 1 2 3 4 5 6 
#
# 1 0.013508 0.001240 0.001872 0.000000 0.000000 0.000000
# 2 0.001240 0.018872 -0.000031 0.000000 0.000000 0.000000
# 3 0.001872 -0.000031 0.013947 0.000000 0.000000 0.000000
# 4 0.000000 0.000000 0.000000-13.986571 0.000000 0.000000
# 5 0.000000 0.000000 0.000000 0.000000 -0.007233 0.000000
# 6 0.000000 0.000000 0.000000 0.000000 0.000000 -0.034416
#
#
# Mechanical properties :
#
#
# Convention : Reuss Voigt Hill
#
# Bulk Modulus (GPa) = 19.05096 19.27332 19.16214
# Shear Modulus (GPa) = -0.35790 -19.02904 -9.69347
#
# Velocity S-wave (km/s) = -0.40723 -2.96944 -2.11937
# Velocity P-wave (km/s) = 2.93371 1.68107 1.70009
#
# Compressibility (1/GPa) = 0.05249078
#
# Stress axis : x y z
#
# Youngs Moduli (GPa) = 74.02979 52.98993 71.69820
#
# Poissons Ratio (x) = -0.06573 -0.13425
# Poissons Ratio (y) = -0.09183 0.00222
# Poissons Ratio (z) = -0.13861 0.00164
#
# Static dielectric constant tensor:
#      x y z
#    x 1.828180 0.000000 0.000000 
#    y 0.000000 1.768820 0.000000 
#    z 0.000000 0.000000 1.832260 
# 
# From -- ./inp_files/18952.got.cif
#   From: 2010.05.17/outbox.cif.g08.bks.cpg/sg65_10_cif.got.tgz:18952.got - 2010.06.03 17:01:31.
