data_PCOD9493524
_publ_section_title
;
Structure prediction by ZEFSAII (Michael W. Deem and Ramdas Pophale) SiO2 
 PCOD9493524
Probable space group: C M M M
;
_chemical_formula_sum "Si O2"
_cell_formula_units_Z 72
_cell_length_a 8.480692
_cell_length_b 27.763260
_cell_length_c 14.569355
_cell_angle_alpha 90.000000
_cell_angle_beta 90.000000
_cell_angle_gamma 90.000000
_cell_volume 3430.378776
_symmetry_space_group_name_H-M "C M M M"
_symmetry_group_IT_number 65
_symmetry_cell_setting 'orthorhombic'
loop_
_space_group_symop_operation_xyz
x,y,z
-x,-y,z
x,-y,-z
-x,y,-z
-x,-y,-z
x,y,-z
-x,y,z
x,-y,z
1/2+x,1/2+y,z
1/2-x,1/2-y,z
1/2+x,1/2-y,-z
1/2-x,1/2+y,-z
1/2-x,1/2-y,-z
1/2+x,1/2+y,-z
1/2-x,1/2+y,z
1/2+x,1/2-y,z
loop_
_atom_site_type_symbol
_atom_site_label
_atom_site_fract_x
_atom_site_fract_y
_atom_site_fract_z
Si Si1 0.688786 0.056802 0.105148
Si Si2 0.312171 0.596825 0.292823
Si Si3 0.310154 0.304310 0.901615
Si Si4 0.684332 0.196058 0.299139
Si Si5 0.307510 0.500000 0.393992
O O1 0.500000 0.064744 0.108795
O O2 0.768517 0.086914 0.185864
O O3 0.717631 0.000000 0.122742
O O4 0.741068 0.065731 0.000000
O O5 0.500000 0.599167 0.297370
O O6 0.251139 0.646237 0.339835
O O7 0.253465 0.548902 0.344746
O O8 0.500000 0.306172 0.888705
O O9 0.250000 0.250000 0.912376
O O10 0.223908 0.315628 0.807385
O O11 0.272314 0.328399 0.000000
O O12 0.500000 0.198647 0.314314
O O13 0.750000 0.250000 0.319905
O O14 0.500000 0.500000 0.388982
O O15 0.262229 0.500000 0.500000
#
# Coordination Sequence:
#
# PCOD9493524 Si02
#       5
#    16  16  16  16   8
#     4   9  18  33  53  79 116 160 201 242 290 343
#     4  11  21  36  60  89 119 154 195 242 291 345
#     4   9  16  27  44  67  98 139 189 241 285 328
#     4  11  22  36  54  78 111 152 194 239 287 343
#     4   9  20  40  66  95 122 148 183 231 292 355
#
# _framework density 20.988935999999999
#
# number of rings (size 3 to 8) (size 9 to 14) (size 15 to 20)
#    0.000    2.111    1.111    5.333    0.000    2.667 
#    0.000    1.111    0.000    6.000    0.000    0.000 
#    0.000    0.000    0.000    0.000    0.000    0.000 
#
# Total GULP energy -200533.584962 kJ/mol
# GULP energy per Si atom -5570.377360 kJ/mol
# Density = 2.094116 g / cm^3
# Si number density = 20.988936 Si / 1000 Ang^3
#
#
#
# Elastic Constant Matrix: (Units=GPa)
#
#
# Indices 1 2 3 4 5 6 
#
# 1 64.5295 55.4891 2.7582 0.0000 0.0000 0.0000
# 2 55.4891 203.4969 33.3527 0.0000 0.0000 0.0000
# 3 2.7582 33.3527 38.7770 0.0000 0.0000 0.0000
# 4 0.0000 0.0000 0.0000 -0.9839 0.0000 0.0000
# 5 0.0000 0.0000 0.0000 0.0000 -123.2310 0.0000
# 6 0.0000 0.0000 0.0000 0.0000 0.0000 24.9617
#
#
#
# Elastic Compliance Matrix: (Units=1/GPa)
#
#
# Indices 1 2 3 4 5 6 
#
# 1 0.020750 -0.006305 0.003947 0.000000 0.000000 0.000000
# 2 -0.006305 0.007636 -0.006120 0.000000 0.000000 0.000000
# 3 0.003947 -0.006120 0.030771 0.000000 0.000000 0.000000
# 4 0.000000 0.000000 0.000000 -1.016313 0.000000 0.000000
# 5 0.000000 0.000000 0.000000 0.000000 -0.008115 0.000000
# 6 0.000000 0.000000 0.000000 0.000000 0.000000 0.040061
#
#
# Mechanical properties :
#
#
# Convention : Reuss Voigt Hill
#
# Bulk Modulus (GPa) = 23.69539 54.44483 39.07011
# Shear Modulus (GPa) = -5.59167 -5.50377 -5.54772
#
# Velocity S-wave (km/s) = -1.63398 -1.62109 -1.62754
# Velocity P-wave (km/s) = 2.78462 4.74259 3.88885
#
# Compressibility (1/GPa) = 0.04220229
#
# Stress axis : x y z
#
# Youngs Moduli (GPa) = 48.19351 130.95385 32.49777
#
# Poissons Ratio (x) = 0.82565 -0.12827
# Poissons Ratio (y) = 0.30385 0.19887
# Poissons Ratio (z) = -0.19022 0.80139
#
# Static dielectric constant tensor:
#      x y z
#    x 1.724300 0.000000 0.000000 
#    y 0.000000 1.750580 0.000000 
#    z 0.000000 0.000000 1.972070 
# 
# From -- ./inp_files/36948.got.cif
#   From: 2010.05.17/outbox.cif.g08.bks.cpg/sg65_19_cif.got.tgz:36948.got - 2010.06.03 17:01:31.
