data_PCOD9493794
_publ_section_title
;
Structure prediction by ZEFSAII (Michael W. Deem and Ramdas Pophale) SiO2 
 PCOD9493794
Probable space group: C M M M
;
_chemical_formula_sum "Si O2"
_cell_formula_units_Z 44
_cell_length_a 7.615790
_cell_length_b 14.934943
_cell_length_c 17.094995
_cell_angle_alpha 90.000000
_cell_angle_beta 90.000000
_cell_angle_gamma 90.000000
_cell_volume 1944.408486
_symmetry_space_group_name_H-M "C M M M"
_symmetry_group_IT_number 65
_symmetry_cell_setting 'orthorhombic'
loop_
_space_group_symop_operation_xyz
x,y,z
-x,-y,z
x,-y,-z
-x,y,-z
-x,-y,-z
x,y,-z
-x,y,z
x,-y,z
1/2+x,1/2+y,z
1/2-x,1/2-y,z
1/2+x,1/2-y,-z
1/2-x,1/2+y,-z
1/2-x,1/2-y,-z
1/2+x,1/2+y,-z
1/2-x,1/2+y,z
1/2+x,1/2-y,z
loop_
_atom_site_type_symbol
_atom_site_label
_atom_site_fract_x
_atom_site_fract_y
_atom_site_fract_z
Si Si1 0.696550 0.393982 0.387739
Si Si2 0.000000 0.671446 0.500000
Si Si3 0.291016 0.146989 0.211873
Si Si4 0.285502 0.000000 0.089110
O O1 0.500000 0.367027 0.412597
O O2 0.720381 0.500000 0.405063
O O3 0.846019 0.340761 0.432349
O O4 0.710590 0.381174 0.294831
O O5 0.500000 0.134633 0.220141
O O6 0.250000 0.250000 0.197241
O O7 0.230747 0.085455 0.140314
O O8 0.500000 0.000000 0.086439
O O9 0.223342 0.000000 0.000000
#
# Coordination Sequence:
#
# PCOD9493794 Si02
#       4
#    16   4  16   8
#     4  11  22  38  64  96 133 176 232 285 337 401
#     4  12  23  38  66  98 134 181 232 287 342 400
#     4  11  22  40  67  96 136 183 227 276 340 410
#     4   9  20  40  69 101 134 178 226 278 341 408
#
# _framework density 22.628989000000001
#
# number of rings (size 3 to 8) (size 9 to 14) (size 15 to 20)
#    0.000    1.273    3.636    3.273    0.000    2.182 
#    0.000    0.909    0.000    7.636    0.000    0.000 
#    0.000    0.000    0.000    0.000    0.000    0.000 
#
# Total GULP energy -122769.210403 kJ/mol
# GULP energy per Si atom -5580.418655 kJ/mol
# Density = 2.257748 g / cm^3
# Si number density = 22.628989 Si / 1000 Ang^3
#
#
#
# Elastic Constant Matrix: (Units=GPa)
#
#
# Indices 1 2 3 4 5 6 
#
# 1 156.7665 24.9500 45.0822 0.0000 0.0000 0.0000
# 2 24.9500 112.2388 55.7845 0.0000 0.0000 0.0000
# 3 45.0822 55.7845 235.4550 0.0000 0.0000 0.0000
# 4 0.0000 0.0000 0.0000 -6.5018 0.0000 0.0000
# 5 0.0000 0.0000 0.0000 0.0000 0.8059 0.0000
# 6 0.0000 0.0000 0.0000 0.0000 0.0000 16.5818
#
#
#
# Elastic Compliance Matrix: (Units=1/GPa)
#
#
# Indices 1 2 3 4 5 6 
#
# 1 0.006846 -0.000986 -0.001077 0.000000 0.000000 0.000000
# 2 -0.000986 0.010241 -0.002237 0.000000 0.000000 0.000000
# 3 -0.001077 -0.002237 0.004983 0.000000 0.000000 0.000000
# 4 0.000000 0.000000 0.000000 -0.153804 0.000000 0.000000
# 5 0.000000 0.000000 0.000000 0.000000 1.240835 0.000000
# 6 0.000000 0.000000 0.000000 0.000000 0.000000 0.060307
#
#
# Mechanical properties :
#
#
# Convention : Reuss Voigt Hill
#
# Bulk Modulus (GPa) = 74.24914 84.01039 79.12977
# Shear Modulus (GPa) = 4.22833 27.42010 15.82421
#
# Velocity S-wave (km/s) = 1.36843 3.48476 2.64728
# Velocity P-wave (km/s) = 5.94807 7.30733 6.66246
#
# Compressibility (1/GPa) = 0.01346817
#
# Stress axis : x y z
#
# Youngs Moduli (GPa) = 146.07852 97.64776 200.66605
#
# Poissons Ratio (x) = 0.09632 0.21612
# Poissons Ratio (y) = 0.14410 0.44897
# Poissons Ratio (z) = 0.15733 0.21848
#
# Static dielectric constant tensor:
#      x y z
#    x 1.832360 0.000000 0.000000 
#    y 0.000000 1.873910 0.000000 
#    z 0.000000 0.000000 1.783690 
# 
# From -- ./inp_files/34934.got.cif
#   From: 2010.05.17/outbox.cif.g08.bks.cpg/sg65_18_cif.got.tgz:34934.got - 2010.06.03 17:01:31.
