data_PCOD9493266
_publ_section_title
;
Structure prediction by ZEFSAII (Michael W. Deem and Ramdas Pophale) SiO2 
 PCOD9493266
Probable space group: C M M M
;
_chemical_formula_sum "Si O2"
_cell_formula_units_Z 80
_cell_length_a 23.322361
_cell_length_b 21.638111
_cell_length_c 10.245630
_cell_angle_alpha 90.000000
_cell_angle_beta 90.000000
_cell_angle_gamma 90.000000
_cell_volume 5170.475992
_symmetry_space_group_name_H-M "C M M M"
_symmetry_group_IT_number 65
_symmetry_cell_setting 'orthorhombic'
loop_
_space_group_symop_operation_xyz
x,y,z
-x,-y,z
x,-y,-z
-x,y,-z
-x,-y,-z
x,y,-z
-x,y,z
x,-y,z
1/2+x,1/2+y,z
1/2-x,1/2-y,z
1/2+x,1/2-y,-z
1/2-x,1/2+y,-z
1/2-x,1/2-y,-z
1/2+x,1/2+y,-z
1/2-x,1/2+y,z
1/2+x,1/2-y,z
loop_
_atom_site_type_symbol
_atom_site_label
_atom_site_fract_x
_atom_site_fract_y
_atom_site_fract_z
Si Si1 0.614241 0.072537 0.500000
Si Si2 0.247268 0.926932 0.500000
Si Si3 0.434117 0.147101 0.747567
Si Si4 0.229010 0.149244 0.239529
Si Si5 0.765767 0.427286 0.000000
Si Si6 0.598614 0.073349 0.000000
Si Si7 0.163405 0.734484 0.159492
O O1 0.683268 0.073322 0.500000
O O2 0.591615 0.109209 0.373952
O O3 0.596230 0.000000 0.500000
O O4 0.227708 0.887872 0.625975
O O5 0.230139 0.000000 0.500000
O O6 0.500000 0.163220 0.722259
O O7 0.429125 0.102265 0.872234
O O8 0.395438 0.205804 0.787613
O O9 0.234955 0.099719 0.125413
O O10 0.177875 0.197193 0.211612
O O11 0.286612 0.190637 0.219135
O O12 0.764236 0.500000 0.000000
O O13 0.833458 0.409921 0.000000
O O14 0.593623 0.000000 0.000000
O O15 0.166631 0.734248 0.000000
#
# Coordination Sequence:
#
# PCOD9493266 Si02
#       7
#     8   8  16  16   8   8  16
#     4  11  23  39  51  69 107 148 186 221 257 301
#     4  11  22  35  53  81 111 136 173 220 264 310
#     4  12  23  36  52  72 102 139 186 226 258 297
#     4  11  19  34  54  75 102 137 172 211 268 324
#     4  11  18  31  53  75 101 136 175 216 260 312
#     4  11  21  33  49  71  99 136 184 225 259 295
#     4  11  20  35  55  76 103 134 181 221 266 313
#
# _framework density 15.472462999999999
#
# number of rings (size 3 to 8) (size 9 to 14) (size 15 to 20)
#    0.000    0.800    7.000    2.400    0.000    8.000 
#    0.000    0.000    0.000    0.000    0.000    0.000 
#    0.000    4.800    0.000    0.000    0.000    0.000 
#
# Total GULP energy -223268.013769 kJ/mol
# GULP energy per Si atom -5581.700344 kJ/mol
# Density = 1.543725 g / cm^3
# Si number density = 15.472463 Si / 1000 Ang^3
#
#
#
# Elastic Constant Matrix: (Units=GPa)
#
#
# Indices 1 2 3 4 5 6 
#
# 1 64.2579 47.4410 19.2615 0.0000 0.0000 0.0000
# 2 47.4410 108.2458 55.5568 0.0000 0.0000 0.0000
# 3 19.2615 55.5568 134.3430 0.0000 0.0000 0.0000
# 4 0.0000 0.0000 0.0000 32.4487 0.0000 0.0000
# 5 0.0000 0.0000 0.0000 0.0000 2.3338 0.0000
# 6 0.0000 0.0000 0.0000 0.0000 0.0000 19.6061
#
#
#
# Elastic Compliance Matrix: (Units=1/GPa)
#
#
# Indices 1 2 3 4 5 6 
#
# 1 0.023137 -0.010711 0.001112 0.000000 0.000000 0.000000
# 2 -0.010711 0.016686 -0.005365 0.000000 0.000000 0.000000
# 3 0.001112 -0.005365 0.009503 0.000000 0.000000 0.000000
# 4 0.000000 0.000000 0.000000 0.030818 0.000000 0.000000
# 5 0.000000 0.000000 0.000000 0.000000 0.428490 0.000000
# 6 0.000000 0.000000 0.000000 0.000000 0.000000 0.051004
#
#
# Mechanical properties :
#
#
# Convention : Reuss Voigt Hill
#
# Bulk Modulus (GPa) = 51.55042 61.26279 56.40661
# Shear Modulus (GPa) = 8.38883 23.18354 15.78619
#
# Velocity S-wave (km/s) = 2.33100 3.87508 3.19764
# Velocity P-wave (km/s) = 6.37453 7.72673 7.08297
#
# Compressibility (1/GPa) = 0.01939848
#
# Stress axis : x y z
#
# Youngs Moduli (GPa) = 43.22130 59.93060 105.23322
#
# Poissons Ratio (x) = 0.64192 -0.11704
# Poissons Ratio (y) = 0.46294 0.56454
# Poissons Ratio (z) = -0.04807 0.32151
#
# Static dielectric constant tensor:
#      x y z
#    x 1.515740 0.000000 0.000000 
#    y 0.000000 1.511020 0.000000 
#    z 0.000000 0.000000 1.517860 
# 
# From -- ./inp_files/13900.got.cif
#   From: 2010.05.17/outbox.cif.g08.bks.cpg/sg65_7_cif.got.tgz:13900.got - 2010.06.03 17:01:31.
