data_PCOD9493692
_publ_section_title
;
Structure prediction by ZEFSAII (Michael W. Deem and Ramdas Pophale) SiO2 
 PCOD9493692
Probable space group: C M M M
;
_chemical_formula_sum "Si O2"
_cell_formula_units_Z 56
_cell_length_a 8.845913
_cell_length_b 15.357208
_cell_length_c 22.329622
_cell_angle_alpha 90.000000
_cell_angle_beta 90.000000
_cell_angle_gamma 90.000000
_cell_volume 3033.446232
_symmetry_space_group_name_H-M "C M M M"
_symmetry_group_IT_number 65
_symmetry_cell_setting 'orthorhombic'
loop_
_space_group_symop_operation_xyz
x,y,z
-x,-y,z
x,-y,-z
-x,y,-z
-x,-y,-z
x,y,-z
-x,y,z
x,-y,z
1/2+x,1/2+y,z
1/2-x,1/2-y,z
1/2+x,1/2-y,-z
1/2-x,1/2+y,-z
1/2-x,1/2-y,-z
1/2+x,1/2+y,-z
1/2-x,1/2+y,z
1/2+x,1/2-y,z
loop_
_atom_site_type_symbol
_atom_site_label
_atom_site_fract_x
_atom_site_fract_y
_atom_site_fract_z
Si Si1 0.680096 0.339801 0.690035
Si Si2 0.815541 0.000000 0.228232
Si Si3 0.816885 0.151848 0.000000
Si Si4 0.322229 0.105125 0.433515
Si Si5 0.316198 0.500000 0.091210
O O1 0.500000 0.336336 0.691252
O O2 0.750000 0.250000 0.710899
O O3 0.732654 0.416654 0.733576
O O4 0.732699 0.357265 0.622173
O O5 0.763952 0.000000 0.159714
O O6 0.000000 0.000000 0.227104
O O7 0.750000 0.250000 0.000000
O O8 0.772556 0.088692 0.944027
O O9 0.000000 0.159716 0.000000
O O10 0.270546 0.132776 0.500000
O O11 0.500000 0.127080 0.427738
O O12 0.310601 0.000000 0.431230
O O13 0.500000 0.500000 0.090463
#
# Coordination Sequence:
#
# PCOD9493692 Si02
#       5
#    16   8   8  16   8
#     4  11  22  36  54  78 104 138 179 221 268 318
#     4   9  19  36  55  75 106 142 181 220 256 310
#     4   9  17  31  56  84 110 141 177 215 258 304
#     4   9  18  34  56  79 103 133 170 218 274 324
#     4   8  16  33  54  77 107 147 181 208 255 316
#
# _framework density 18.460853
#
# number of rings (size 3 to 8) (size 9 to 14) (size 15 to 20)
#    0.000    2.571    1.429    2.571    0.000    2.286 
#    0.000    2.857    0.000    5.143    0.000    0.000 
#    0.000    0.000    0.000    0.000    0.000    0.000 
#
# Total GULP energy -156145.723263 kJ/mol
# GULP energy per Si atom -5576.632974 kJ/mol
# Density = 1.841884 g / cm^3
# Si number density = 18.460853 Si / 1000 Ang^3
#
#
#
# Elastic Constant Matrix: (Units=GPa)
#
#
# Indices 1 2 3 4 5 6 
#
# 1 26.8148 39.6971 32.8626 0.0000 0.0000 0.0000
# 2 39.6971 170.7103 96.7626 0.0000 0.0000 0.0000
# 3 32.8626 96.7626 161.8972 0.0000 0.0000 0.0000
# 4 0.0000 0.0000 0.0000 -60.6641 0.0000 0.0000
# 5 0.0000 0.0000 0.0000 0.0000 9.7058 0.0000
# 6 0.0000 0.0000 0.0000 0.0000 0.0000 29.2171
#
#
#
# Elastic Compliance Matrix: (Units=1/GPa)
#
#
# Indices 1 2 3 4 5 6 
#
# 1 0.060311 -0.010716 -0.005837 0.000000 0.000000 0.000000
# 2 -0.010716 0.010763 -0.004258 0.000000 0.000000 0.000000
# 3 -0.005837 -0.004258 0.009906 0.000000 0.000000 0.000000
# 4 0.000000 0.000000 0.000000 -0.016484 0.000000 0.000000
# 5 0.000000 0.000000 0.000000 0.000000 0.103031 0.000000
# 6 0.000000 0.000000 0.000000 0.000000 0.000000 0.034227
#
#
# Mechanical properties :
#
#
# Convention : Reuss Voigt Hill
#
# Bulk Modulus (GPa) = 25.40766 77.56296 51.48531
# Shear Modulus (GPa) = 19.49352 8.32509 13.90931
#
# Velocity S-wave (km/s) = 3.25305 2.12588 2.74788
# Velocity P-wave (km/s) = 5.28229 6.93771 6.16581
#
# Compressibility (1/GPa) = 0.03935821
#
# Stress axis : x y z
#
# Youngs Moduli (GPa) = 16.58075 92.90946 100.94441
#
# Poissons Ratio (x) = 0.99561 0.58926
# Poissons Ratio (y) = 0.17768 0.42980
# Poissons Ratio (z) = 0.09679 0.39559
#
# Static dielectric constant tensor:
#      x y z
#    x 1.627770 0.000000 0.000000 
#    y 0.000000 1.640880 0.000000 
#    z 0.000000 0.000000 1.634020 
# 
# From -- ./inp_files/58643.got.cif
#   From: 2010.05.17/outbox.cif.g08.bks.cpg/sg65_30_cif.got.tgz:58643.got - 2010.06.03 17:01:31.
