data_PCOD9493318
_publ_section_title
;
Structure prediction by ZEFSAII (Michael W. Deem and Ramdas Pophale) SiO2 
 PCOD9493318
Probable space group: C M M M
;
_chemical_formula_sum "Si O2"
_cell_formula_units_Z 96
_cell_length_a 29.188696
_cell_length_b 20.898918
_cell_length_c 8.663631
_cell_angle_alpha 90.000000
_cell_angle_beta 90.000000
_cell_angle_gamma 90.000000
_cell_volume 5284.920296
_symmetry_space_group_name_H-M "C M M M"
_symmetry_group_IT_number 65
_symmetry_cell_setting 'orthorhombic'
loop_
_space_group_symop_operation_xyz
x,y,z
-x,-y,z
x,-y,-z
-x,y,-z
-x,-y,-z
x,y,-z
-x,y,z
x,-y,z
1/2+x,1/2+y,z
1/2-x,1/2-y,z
1/2+x,1/2-y,-z
1/2-x,1/2+y,-z
1/2-x,1/2-y,-z
1/2+x,1/2+y,-z
1/2-x,1/2+y,z
1/2+x,1/2-y,z
loop_
_atom_site_type_symbol
_atom_site_label
_atom_site_fract_x
_atom_site_fract_y
_atom_site_fract_z
Si Si1 0.052789 0.335581 0.184953
Si Si2 0.217259 0.650988 0.819966
Si Si3 0.554775 0.568067 0.681832
Si Si4 0.867265 0.425858 0.315466
Si Si5 0.812926 0.200440 0.181455
Si Si6 0.088950 0.202071 0.317499
O O1 0.090014 0.385801 0.248368
O O2 0.068414 0.265056 0.238911
O O3 0.000000 0.347693 0.234649
O O4 0.054220 0.337911 0.000000
O O5 0.180483 0.607688 0.733064
O O6 0.201468 0.725005 0.812691
O O7 0.270330 0.655759 0.768916
O O8 0.216788 0.632122 0.000000
O O9 0.568161 0.568948 0.500000
O O10 0.500000 0.566855 0.686300
O O11 0.571619 0.500000 0.748013
O O12 0.569563 0.635618 0.748828
O O13 0.870600 0.424083 0.500000
O O14 0.868338 0.500000 0.264462
O O15 0.857186 0.196489 0.286571
O O16 0.822981 0.186867 0.000000
O O17 0.078887 0.206838 0.500000
#
# Coordination Sequence:
#
# PCOD9493318 Si02
#       6
#    16  16  16  16  16  16
#     4  11  24  40  58  81 111 149 193 238 283 338
#     4   9  18  35  58  81 107 144 185 222 263 323
#     4   8  15  29  48  71 103 143 182 217 260 320
#     4  11  24  40  59  85 116 147 184 237 294 342
#     4   9  18  33  55  82 111 142 179 222 267 320
#     4  11  20  31  54  87 115 144 181 231 286 331
#
# _framework density 18.164891000000001
#
# number of rings (size 3 to 8) (size 9 to 14) (size 15 to 20)
#    0.000    2.167    1.667    3.500    0.000    4.333 
#    0.000    4.167    0.000    5.000    0.000    5.833 
#    0.000    0.000    0.000    0.000    0.000    0.000 
#
# Total GULP energy -267504.467101 kJ/mol
# GULP energy per Si atom -5573.009731 kJ/mol
# Density = 1.812355 g / cm^3
# Si number density = 18.164891 Si / 1000 Ang^3
#
#
#
# Elastic Constant Matrix: (Units=GPa)
#
#
# Indices 1 2 3 4 5 6 
#
# 1 74.0114 48.5239 18.4729 0.0000 0.0000 0.0000
# 2 48.5239 132.6036 28.2345 0.0000 0.0000 0.0000
# 3 18.4729 28.2345 28.1536 0.0000 0.0000 0.0000
# 4 0.0000 0.0000 0.0000 -6.9910 0.0000 0.0000
# 5 0.0000 0.0000 0.0000 0.0000 13.2327 0.0000
# 6 0.0000 0.0000 0.0000 0.0000 0.0000 13.7783
#
#
#
# Elastic Compliance Matrix: (Units=1/GPa)
#
#
# Indices 1 2 3 4 5 6 
#
# 1 0.018775 -0.005401 -0.006903 0.000000 0.000000 0.000000
# 2 -0.005401 0.011142 -0.007631 0.000000 0.000000 0.000000
# 3 -0.006903 -0.007631 0.047702 0.000000 0.000000 0.000000
# 4 0.000000 0.000000 0.000000 -0.143041 0.000000 0.000000
# 5 0.000000 0.000000 0.000000 0.000000 0.075570 0.000000
# 6 0.000000 0.000000 0.000000 0.000000 0.000000 0.072578
#
#
# Mechanical properties :
#
#
# Convention : Reuss Voigt Hill
#
# Bulk Modulus (GPa) = 26.48998 47.24790 36.86894
# Shear Modulus (GPa) = 36.98822 13.30650 25.14736
#
# Velocity S-wave (km/s) = 4.51738 2.70948 3.72478
# Velocity P-wave (km/s) = 6.46712 5.98794 6.23214
#
# Compressibility (1/GPa) = 0.03775012
#
# Stress axis : x y z
#
# Youngs Moduli (GPa) = 53.26170 89.74817 20.96363
#
# Poissons Ratio (x) = 0.48469 0.14472
# Poissons Ratio (y) = 0.28764 0.15997
# Poissons Ratio (z) = 0.36768 0.68484
#
# Static dielectric constant tensor:
#      x y z
#    x -0.602780 0.000000 0.000000 
#    y 0.000000 1.639560 0.000000 
#    z 0.000000 0.000000 1.620570 
# 
# From -- ./inp_files/16357.got.cif
#   From: 2010.05.17/outbox.cif.g08.bks.cpg/sg65_9_cif.got.tgz:16357.got - 2010.06.03 17:01:31.
