data_PCOD9493594
_publ_section_title
;
Structure prediction by ZEFSAII (Michael W. Deem and Ramdas Pophale) SiO2 
 PCOD9493594
Probable space group: C M M M
;
_chemical_formula_sum "Si O2"
_cell_formula_units_Z 64
_cell_length_a 19.037938
_cell_length_b 7.767033
_cell_length_c 21.880523
_cell_angle_alpha 90.000000
_cell_angle_beta 90.000000
_cell_angle_gamma 90.000000
_cell_volume 3235.435579
_symmetry_space_group_name_H-M "C M M M"
_symmetry_group_IT_number 65
_symmetry_cell_setting 'orthorhombic'
loop_
_space_group_symop_operation_xyz
x,y,z
-x,-y,z
x,-y,-z
-x,y,-z
-x,-y,-z
x,y,-z
-x,y,z
x,-y,z
1/2+x,1/2+y,z
1/2-x,1/2-y,z
1/2+x,1/2-y,-z
1/2-x,1/2+y,-z
1/2-x,1/2-y,-z
1/2+x,1/2+y,-z
1/2-x,1/2+y,z
1/2+x,1/2-y,z
loop_
_atom_site_type_symbol
_atom_site_label
_atom_site_fract_x
_atom_site_fract_y
_atom_site_fract_z
Si Si1 0.914552 0.700310 0.000000
Si Si2 0.168543 0.295826 0.750695
Si Si3 0.918349 0.288652 0.866749
Si Si4 0.079797 0.793200 0.367785
Si Si5 0.085597 0.801117 0.500000
O O1 0.893915 0.773363 0.066035
O O2 0.892642 0.500000 0.000000
O O3 0.000000 0.702371 0.000000
O O4 0.162651 0.500000 0.754254
O O5 0.250000 0.250000 0.750194
O O6 0.128572 0.226290 0.810649
O O7 0.129830 0.242638 0.688650
O O8 0.917029 0.500000 0.868562
O O9 0.000000 0.240608 0.857610
O O10 0.105076 0.724453 0.434073
O O11 0.000000 0.730352 0.355894
O O12 0.075504 0.000000 0.374397
O O13 0.000000 0.803001 0.500000
O O14 0.110103 0.000000 0.500000
#
# Coordination Sequence:
#
# PCOD9493594 Si02
#       5
#     8  16  16  16   8
#     4   7  10  20  41  68  93 115 146 191 240 287
#     4  11  22  34  47  67  99 134 168 204 241 282
#     4   8  14  26  46  70  93 119 154 197 242 287
#     4   9  17  32  55  79 100 124 156 194 239 291
#     4   7  12  26  50  77 100 121 149 189 236 287
#
# _framework density 19.780954999999999
#
# number of rings (size 3 to 8) (size 9 to 14) (size 15 to 20)
#    0.000    3.250    0.000    4.500    0.000    1.500 
#    0.000    1.875    0.000    2.250    0.000    2.625 
#    0.000   14.000    0.000    0.000    0.000    0.000 
#
# Total GULP energy -178243.745723 kJ/mol
# GULP energy per Si atom -5570.117054 kJ/mol
# Density = 1.973593 g / cm^3
# Si number density = 19.780955 Si / 1000 Ang^3
#
#
#
# Elastic Constant Matrix: (Units=GPa)
#
#
# Indices 1 2 3 4 5 6 
#
# 1 94.4920 2.6103 110.0518 0.0000 0.0000 0.0000
# 2 2.6103 29.3447 10.9168 0.0000 0.0000 0.0000
# 3 110.0518 10.9168 261.3600 0.0000 0.0000 0.0000
# 4 0.0000 0.0000 0.0000 11.0653 0.0000 0.0000
# 5 0.0000 0.0000 0.0000 0.0000 -4.8162 0.0000
# 6 0.0000 0.0000 0.0000 0.0000 0.0000 -84.2295
#
#
#
# Elastic Compliance Matrix: (Units=1/GPa)
#
#
# Indices 1 2 3 4 5 6 
#
# 1 0.020827 0.001432 -0.008829 0.000000 0.000000 0.000000
# 2 0.001432 0.034714 -0.002053 0.000000 0.000000 0.000000
# 3 -0.008829 -0.002053 0.007630 0.000000 0.000000 0.000000
# 4 0.000000 0.000000 0.000000 0.090373 0.000000 0.000000
# 5 0.000000 0.000000 0.000000 0.000000 -0.207630 0.000000
# 6 0.000000 0.000000 0.000000 0.000000 0.000000 -0.011872
#
#
# Mechanical properties :
#
#
# Convention : Reuss Voigt Hill
#
# Bulk Modulus (GPa) = 22.58873 70.26163 46.42518
# Shear Modulus (GPa) = -154.78754 1.84508 -76.47123
#
# Velocity S-wave (km/s) = -8.85554 0.96684 -6.22438
# Velocity P-wave (km/s) = 9.64970 6.06987 5.30440
#
# Compressibility (1/GPa) = 0.04426987
#
# Stress axis : x y z
#
# Youngs Moduli (GPa) = 48.01547 28.80679 131.06666
#
# Poissons Ratio (x) = -0.04126 1.15723
# Poissons Ratio (y) = -0.06876 0.26908
# Poissons Ratio (z) = 0.42395 0.05914
#
# Static dielectric constant tensor:
#      x y z
#    x 1.622630 0.000000 0.000000 
#    y 0.000000 1.740830 0.000000 
#    z 0.000000 0.000000 1.766640 
# 
# From -- ./inp_files/63242.got.cif
#   From: 2010.05.17/outbox.cif.g08.bks.cpg/sg65_32_cif.got.tgz:63242.got - 2010.06.03 17:01:31.
