data_PCOD9493473
_publ_section_title
;
Structure prediction by ZEFSAII (Michael W. Deem and Ramdas Pophale) SiO2 
 PCOD9493473
Probable space group: C M M M
;
_chemical_formula_sum "Si O2"
_cell_formula_units_Z 72
_cell_length_a 8.642524
_cell_length_b 18.306618
_cell_length_c 24.171908
_cell_angle_alpha 90.000000
_cell_angle_beta 90.000000
_cell_angle_gamma 90.000000
_cell_volume 3824.367741
_symmetry_space_group_name_H-M "C M M M"
_symmetry_group_IT_number 65
_symmetry_cell_setting 'orthorhombic'
loop_
_space_group_symop_operation_xyz
x,y,z
-x,-y,z
x,-y,-z
-x,y,-z
-x,-y,-z
x,y,-z
-x,y,z
x,-y,z
1/2+x,1/2+y,z
1/2-x,1/2-y,z
1/2+x,1/2-y,-z
1/2-x,1/2+y,-z
1/2-x,1/2-y,-z
1/2+x,1/2+y,-z
1/2-x,1/2+y,z
1/2+x,1/2-y,z
loop_
_atom_site_type_symbol
_atom_site_label
_atom_site_fract_x
_atom_site_fract_y
_atom_site_fract_z
Si Si1 0.314383 0.832922 0.560408
Si Si2 0.188379 0.083841 0.000000
Si Si3 0.186196 0.168137 0.888921
Si Si4 0.314753 0.914184 0.781674
Si Si5 0.815533 0.167348 0.325012
O O1 0.275763 0.865914 0.500000
O O2 0.500000 0.830715 0.565383
O O3 0.250000 0.750000 0.559016
O O4 0.243450 0.864943 0.616372
O O5 0.236478 0.125898 0.944571
O O6 0.000000 0.082866 0.000000
O O7 0.241520 0.000000 0.000000
O O8 0.250000 0.250000 0.889647
O O9 0.247651 0.126465 0.835116
O O10 0.000000 0.169721 0.887430
O O11 0.500000 0.905647 0.780646
O O12 0.244910 0.878792 0.726512
O O13 0.277616 0.000000 0.784434
O O14 0.750000 0.250000 0.320125
O O15 0.000000 0.170901 0.325218
#
# Coordination Sequence:
#
# PCOD9493473 Si02
#       5
#    16   8  16  16  16
#     4   9  16  27  46  74 108 143 180 224 274 326
#     4   9  19  36  59  87 118 153 190 229 274 324
#     4  11  22  38  61  87 117 150 188 231 275 327
#     4  11  24  41  59  80 109 144 184 231 283 337
#     4  11  21  34  55  81 111 145 184 229 276 330
#
# _framework density 18.826640999999999
#
# number of rings (size 3 to 8) (size 9 to 14) (size 15 to 20)
#    0.000    1.667    0.000    7.000    0.000    4.000 
#    0.000    1.667    0.000    4.667    0.000    4.667 
#    0.000    0.000    0.000    0.000    0.000    0.000 
#
# Total GULP energy -201086.974024 kJ/mol
# GULP energy per Si atom -5585.749278 kJ/mol
# Density = 1.878379 g / cm^3
# Si number density = 18.826641 Si / 1000 Ang^3
#
#
#
# Elastic Constant Matrix: (Units=GPa)
#
#
# Indices 1 2 3 4 5 6 
#
# 1 93.3259 61.7120 73.9184 0.0000 0.0000 0.0000
# 2 61.7120 119.8277 103.7456 0.0000 0.0000 0.0000
# 3 73.9184 103.7456 243.4722 0.0000 0.0000 0.0000
# 4 0.0000 0.0000 0.0000 -39.4668 0.0000 0.0000
# 5 0.0000 0.0000 0.0000 0.0000 40.3494 0.0000
# 6 0.0000 0.0000 0.0000 0.0000 0.0000 12.6267
#
#
#
# Elastic Compliance Matrix: (Units=1/GPa)
#
#
# Indices 1 2 3 4 5 6 
#
# 1 0.017003 -0.006794 -0.002267 0.000000 0.000000 0.000000
# 2 -0.006794 0.015938 -0.004729 0.000000 0.000000 0.000000
# 3 -0.002267 -0.004729 0.006811 0.000000 0.000000 0.000000
# 4 0.000000 0.000000 0.000000 -0.025338 0.000000 0.000000
# 5 0.000000 0.000000 0.000000 0.000000 0.024784 0.000000
# 6 0.000000 0.000000 0.000000 0.000000 0.000000 0.079197
#
#
# Mechanical properties :
#
#
# Convention : Reuss Voigt Hill
#
# Bulk Modulus (GPa) = 82.15340 103.93086 93.04213
# Shear Modulus (GPa) = 33.32604 17.18517 25.25561
#
# Velocity S-wave (km/s) = 4.21188 3.02455 3.66660
# Velocity P-wave (km/s) = 8.20882 8.21713 8.21298
#
# Compressibility (1/GPa) = 0.01217235
#
# Stress axis : x y z
#
# Youngs Moduli (GPa) = 58.81167 62.74157 146.82938
#
# Poissons Ratio (x) = 0.42626 0.33291
# Poissons Ratio (y) = 0.39956 0.69434
# Poissons Ratio (z) = 0.13335 0.29670
#
# Static dielectric constant tensor:
#      x y z
#    x 1.625210 0.000000 0.000000 
#    y 0.000000 1.618430 0.000000 
#    z 0.000000 0.000000 1.666390 
# 
# From -- ./inp_files/67117.got.cif
#   From: 2010.05.17/outbox.cif.g08.bks.cpg/sg65_34_cif.got.tgz:67117.got - 2010.06.03 17:01:31.
