data_PCOD9493784
_publ_section_title
;
Structure prediction by ZEFSAII (Michael W. Deem and Ramdas Pophale) SiO2 
 PCOD9493784
Probable space group: C M M M
;
_chemical_formula_sum "Si O2"
_cell_formula_units_Z 70
_cell_length_a 24.023723
_cell_length_b 13.914721
_cell_length_c 10.884880
_cell_angle_alpha 90.000000
_cell_angle_beta 90.000000
_cell_angle_gamma 90.000000
_cell_volume 3638.634727
_symmetry_space_group_name_H-M "C M M M"
_symmetry_group_IT_number 65
_symmetry_cell_setting 'orthorhombic'
loop_
_space_group_symop_operation_xyz
x,y,z
-x,-y,z
x,-y,-z
-x,y,-z
-x,-y,-z
x,y,-z
-x,y,z
x,-y,z
1/2+x,1/2+y,z
1/2-x,1/2-y,z
1/2+x,1/2-y,-z
1/2-x,1/2+y,-z
1/2-x,1/2-y,-z
1/2+x,1/2+y,-z
1/2-x,1/2+y,z
1/2+x,1/2-y,z
loop_
_atom_site_type_symbol
_atom_site_label
_atom_site_fract_x
_atom_site_fract_y
_atom_site_fract_z
Si Si1 0.119397 0.500000 0.351154
Si Si2 0.123563 0.883761 0.000000
Si Si3 0.000000 0.000000 0.500000
Si Si4 0.000000 0.152191 0.275878
Si Si5 0.301986 0.314460 0.227340
Si Si6 0.751055 0.500000 0.647109
Si Si7 0.401633 0.788575 0.647409
Si Si8 0.500000 0.638438 0.000000
O O1 0.118638 0.500000 0.500000
O O2 0.184221 0.500000 0.314315
O O3 0.092402 0.399548 0.312628
O O4 0.160033 0.854510 0.882453
O O5 0.064741 0.827048 0.000000
O O6 0.112347 0.000000 0.000000
O O7 0.000000 0.918096 0.391166
O O8 0.053501 0.220217 0.290256
O O9 0.000000 0.102495 0.142397
O O10 0.250000 0.250000 0.183745
O O11 0.278580 0.405474 0.301231
O O12 0.340932 0.249449 0.314378
O O13 0.748635 0.500000 0.500000
O O14 0.408052 0.783219 0.500000
#
# Coordination Sequence:
#
# PCOD9493784 Si02
#       8
#     8   8   2   8  16   8  16   4
#     4   9  20  37  66  96 133 172 222 264 330 406
#     4  12  26  45  65  92 123 176 232 271 331 403
#     4  12  28  46  72 106 140 170 228 304 344 406
#     4  12  26  46  70  98 141 176 231 280 348 399
#     4  12  24  41  66  94 134 173 220 273 335 400
#     4  11  22  38  61  96 134 173 209 259 327 404
#     4  11  22  41  67 100 133 175 218 281 339 404
#     4  12  27  46  72  93 130 190 220 275 340 415
#
# _framework density 19.237984000000001
#
# number of rings (size 3 to 8) (size 9 to 14) (size 15 to 20)
#    0.000    0.686    6.857    1.200    1.600    2.286 
#    2.057    1.714    0.000    2.743    0.000    0.000 
#    0.000    0.000    0.000    0.000    0.000    0.000 
#
# Total GULP energy -194964.372433 kJ/mol
# GULP energy per Si atom -5570.410641 kJ/mol
# Density = 1.919420 g / cm^3
# Si number density = 19.237984 Si / 1000 Ang^3
#
#
#
# Elastic Constant Matrix: (Units=GPa)
#
#
# Indices 1 2 3 4 5 6 
#
# 1 105.1234 38.5919 25.4673 0.0000 0.0000 0.0000
# 2 38.5919 144.3900 35.7741 0.0000 0.0000 0.0000
# 3 25.4673 35.7741 123.0186 0.0000 0.0000 0.0000
# 4 0.0000 0.0000 0.0000 7.5917 0.0000 0.0000
# 5 0.0000 0.0000 0.0000 0.0000 34.6887 0.0000
# 6 0.0000 0.0000 0.0000 0.0000 0.0000-2733.2265
#
#
#
# Elastic Compliance Matrix: (Units=1/GPa)
#
#
# Indices 1 2 3 4 5 6 
#
# 1 0.010800 -0.002514 -0.001505 0.000000 0.000000 0.000000
# 2 -0.002514 0.008049 -0.001820 0.000000 0.000000 0.000000
# 3 -0.001505 -0.001820 0.008970 0.000000 0.000000 0.000000
# 4 0.000000 0.000000 0.000000 0.131722 0.000000 0.000000
# 5 0.000000 0.000000 0.000000 0.000000 0.028828 0.000000
# 6 0.000000 0.000000 0.000000 0.000000 0.000000 -0.000366
#
#
# Mechanical properties :
#
#
# Convention : Reuss Voigt Hill
#
# Bulk Modulus (GPa) = 61.95473 63.57761 62.76617
# Shear Modulus (GPa) = 24.38310 -520.00930 -247.81310
#
# Velocity S-wave (km/s) = 3.56398 -16.45874 -11.36196
# Velocity P-wave (km/s) = 7.01500 18.11263 11.80798
#
# Compressibility (1/GPa) = 0.01614082
#
# Stress axis : x y z
#
# Youngs Moduli (GPa) = 92.59254 124.24672 111.48668
#
# Poissons Ratio (x) = 0.31232 0.16777
# Poissons Ratio (y) = 0.23275 0.20292
# Poissons Ratio (z) = 0.13933 0.22615
#
# Static dielectric constant tensor:
#      x y z
#    x 1.687470 0.000000 0.000000 
#    y 0.000000 1.666100 0.000000 
#    z 0.000000 0.000000 1.634230 
# 
# From -- ./inp_files/32058.got.cif
#   From: 2010.05.17/outbox.cif.g08.bks.cpg/sg65_17_cif.got.tgz:32058.got - 2010.06.03 17:01:31.
