data_PCOD9493399
_publ_section_title
;
Structure prediction by ZEFSAII (Michael W. Deem and Ramdas Pophale) SiO2 
 PCOD9493399
Probable space group: C M M M
;
_chemical_formula_sum "Si O2"
_cell_formula_units_Z 88
_cell_length_a 28.321509
_cell_length_b 19.245691
_cell_length_c 7.528316
_cell_angle_alpha 90.000000
_cell_angle_beta 90.000000
_cell_angle_gamma 90.000000
_cell_volume 4103.436699
_symmetry_space_group_name_H-M "C M M M"
_symmetry_group_IT_number 65
_symmetry_cell_setting 'orthorhombic'
loop_
_space_group_symop_operation_xyz
x,y,z
-x,-y,z
x,-y,-z
-x,y,-z
-x,-y,-z
x,y,-z
-x,y,z
x,-y,z
1/2+x,1/2+y,z
1/2-x,1/2-y,z
1/2+x,1/2-y,-z
1/2-x,1/2+y,-z
1/2-x,1/2-y,-z
1/2+x,1/2+y,-z
1/2-x,1/2+y,z
1/2+x,1/2-y,z
loop_
_atom_site_type_symbol
_atom_site_label
_atom_site_fract_x
_atom_site_fract_y
_atom_site_fract_z
Si Si1 0.749967 0.076779 0.216990
Si Si2 0.184020 0.800448 0.203229
Si Si3 0.500000 0.421623 0.212987
Si Si4 0.948212 0.662188 0.793494
Si Si5 0.843787 0.647709 0.217297
Si Si6 0.080677 0.815790 0.293365
O O1 0.781311 0.141783 0.281742
O O2 0.695466 0.091475 0.263227
O O3 0.764992 0.000000 0.276250
O O4 0.753061 0.077198 0.000000
O O5 0.176699 0.722814 0.278363
O O6 0.130998 0.829984 0.206184
O O7 0.199820 0.789931 0.000000
O O8 0.500000 0.500000 0.278685
O O9 0.545447 0.379107 0.273410
O O10 0.500000 0.422142 0.000000
O O11 0.897610 0.636428 0.719628
O O12 0.942132 0.745889 0.785981
O O13 0.000000 0.644670 0.715808
O O14 0.949570 0.641002 0.000000
O O15 0.846539 0.651724 0.000000
O O16 0.088792 0.801446 0.500000
#
# Coordination Sequence:
#
# PCOD9493399 Si02
#       6
#    16  16   8  16  16  16
#     4   9  16  26  44  70  96 122 160 209 252 288
#     4   9  17  30  48  68  92 126 164 200 241 293
#     4  11  23  37  51  65  89 129 168 197 230 283
#     4   9  16  28  49  71  94 124 158 194 235 288
#     4   8  14  25  43  68  94 123 160 203 245 289
#     4  11  21  32  48  71  97 122 153 201 249 283
#
# _framework density 21.445440000000001
#
# number of rings (size 3 to 8) (size 9 to 14) (size 15 to 20)
#    0.000    2.636    0.909    3.545    0.000    3.636 
#    0.000    1.818    0.000    9.273    0.000    3.818 
#    0.000    0.000    0.000    6.545    0.000    7.273 
#
# Total GULP energy -245354.326099 kJ/mol
# GULP energy per Si atom -5576.234684 kJ/mol
# Density = 2.139663 g / cm^3
# Si number density = 21.445440 Si / 1000 Ang^3
#
#
#
# Elastic Constant Matrix: (Units=GPa)
#
#
# Indices 1 2 3 4 5 6 
#
# 1 133.8274 21.6331 0.0923 0.0000 0.0000 0.0000
# 2 21.6331 22.0359 -0.9658 0.0000 0.0000 0.0000
# 3 0.0923 -0.9658 66.4870 0.0000 0.0000 0.0000
# 4 0.0000 0.0000 0.0000 -24.5094 0.0000 0.0000
# 5 0.0000 0.0000 0.0000 0.0000 -32.4230 0.0000
# 6 0.0000 0.0000 0.0000 0.0000 0.0000 63.7417
#
#
#
# Elastic Compliance Matrix: (Units=1/GPa)
#
#
# Indices 1 2 3 4 5 6 
#
# 1 0.008883 -0.008727 -0.000139 0.000000 0.000000 0.000000
# 2 -0.008727 0.053982 0.000796 0.000000 0.000000 0.000000
# 3 -0.000139 0.000796 0.015052 0.000000 0.000000 0.000000
# 4 0.000000 0.000000 0.000000 -0.040801 0.000000 0.000000
# 5 0.000000 0.000000 0.000000 0.000000 -0.030842 0.000000
# 6 0.000000 0.000000 0.000000 0.000000 0.000000 0.015688
#
#
# Mechanical properties :
#
#
# Convention : Reuss Voigt Hill
#
# Bulk Modulus (GPa) = 16.18679 29.31883 22.75281
# Shear Modulus (GPa) = 85.18571 14.80123 49.99347
#
# Velocity S-wave (km/s) = 6.30938 2.62998 4.83348
# Velocity P-wave (km/s) = 7.78730 4.78784 6.46396
#
# Compressibility (1/GPa) = 0.06177875
#
# Stress axis : x y z
#
# Youngs Moduli (GPa) = 112.57360 18.52452 66.43507
#
# Poissons Ratio (x) = 0.16166 0.00924
# Poissons Ratio (y) = 0.98240 -0.05290
# Poissons Ratio (z) = 0.01566 -0.01475
#
# Static dielectric constant tensor:
#      x y z
#    x 1.436430 0.000000 0.000000 
#    y 0.000000 1.739610 0.000000 
#    z 0.000000 0.000000 1.822570 
# 
# From -- ./inp_files/10037.got.cif
#   From: 2010.05.17/outbox.cif.g08.bks.cpg/sg65_6_cif.got.tgz:10037.got - 2010.06.03 17:01:31.
