data_PCOD9493454
_publ_section_title
;
Structure prediction by ZEFSAII (Michael W. Deem and Ramdas Pophale) SiO2 
 PCOD9493454
Probable space group: C M M M
;
_chemical_formula_sum "Si O2"
_cell_formula_units_Z 72
_cell_length_a 20.183880
_cell_length_b 17.939701
_cell_length_c 11.127221
_cell_angle_alpha 90.000000
_cell_angle_beta 90.000000
_cell_angle_gamma 90.000000
_cell_volume 4029.086299
_symmetry_space_group_name_H-M "C M M M"
_symmetry_group_IT_number 65
_symmetry_cell_setting 'orthorhombic'
loop_
_space_group_symop_operation_xyz
x,y,z
-x,-y,z
x,-y,-z
-x,y,-z
-x,-y,-z
x,y,-z
-x,y,z
x,-y,z
1/2+x,1/2+y,z
1/2-x,1/2-y,z
1/2+x,1/2-y,-z
1/2-x,1/2+y,-z
1/2-x,1/2-y,-z
1/2+x,1/2+y,-z
1/2-x,1/2+y,z
1/2+x,1/2-y,z
loop_
_atom_site_type_symbol
_atom_site_label
_atom_site_fract_x
_atom_site_fract_y
_atom_site_fract_z
Si Si1 0.764368 0.413526 0.862764
Si Si2 0.580456 0.582643 0.500000
Si Si3 0.604760 0.581327 0.861071
Si Si4 0.075322 0.797168 0.309019
Si Si5 0.807309 0.687168 0.639327
O O1 0.785284 0.500000 0.857762
O O2 0.684460 0.412964 0.851412
O O3 0.792960 0.369391 0.748606
O O4 0.779901 0.385639 0.000000
O O5 0.607943 0.500000 0.500000
O O6 0.500000 0.578145 0.500000
O O7 0.600576 0.633156 0.611017
O O8 0.584235 0.500000 0.804862
O O9 0.576166 0.659524 0.816091
O O10 0.587960 0.575626 0.000000
O O11 0.124102 0.729420 0.330745
O O12 0.000000 0.778387 0.342907
O O13 0.808578 0.658721 0.500000
O O14 0.750000 0.750000 0.643668
#
# Coordination Sequence:
#
# PCOD9493454 Si02
#       5
#    16   8  16  16  16
#     4   9  19  37  60  83 109 145 188 233 285 340
#     4   9  18  32  49  70 103 149 185 208 251 319
#     4   9  18  33  52  77 110 146 183 223 269 324
#     4  11  21  34  51  76 111 148 182 219 270 329
#     4  11  22  36  55  83 114 144 184 235 280 327
#
# _framework density 17.870056999999999
#
# number of rings (size 3 to 8) (size 9 to 14) (size 15 to 20)
#    0.000    2.111    3.333    2.000    0.000    3.556 
#    0.000    1.111    0.000    0.667    0.000    3.111 
#    0.000    0.000    0.000    0.000    0.000    0.000 
#
# Total GULP energy -200435.001222 kJ/mol
# GULP energy per Si atom -5567.638923 kJ/mol
# Density = 1.782938 g / cm^3
# Si number density = 17.870057 Si / 1000 Ang^3
#
#
#
# Elastic Constant Matrix: (Units=GPa)
#
#
# Indices 1 2 3 4 5 6 
#
# 1 66.0931 28.8854 31.7560 0.0000 0.0000 0.0000
# 2 28.8854 60.3033 56.8180 0.0000 0.0000 0.0000
# 3 31.7560 56.8180 125.9775 0.0000 0.0000 0.0000
# 4 0.0000 0.0000 0.0000 145.5931 0.0000 0.0000
# 5 0.0000 0.0000 0.0000 0.0000 10.7002 0.0000
# 6 0.0000 0.0000 0.0000 0.0000 0.0000 4.8624
#
#
#
# Elastic Compliance Matrix: (Units=1/GPa)
#
#
# Indices 1 2 3 4 5 6 
#
# 1 0.019241 -0.008080 -0.001206 0.000000 0.000000 0.000000
# 2 -0.008080 0.032231 -0.012500 0.000000 0.000000 0.000000
# 3 -0.001206 -0.012500 0.013879 0.000000 0.000000 0.000000
# 4 0.000000 0.000000 0.000000 0.006868 0.000000 0.000000
# 5 0.000000 0.000000 0.000000 0.000000 0.093456 0.000000
# 6 0.000000 0.000000 0.000000 0.000000 0.000000 0.205659
#
#
# Mechanical properties :
#
#
# Convention : Reuss Voigt Hill
#
# Bulk Modulus (GPa) = 45.91511 54.14365 50.02938
# Shear Modulus (GPa) = 11.84367 41.22543 26.53455
#
# Velocity S-wave (km/s) = 2.57722 4.80829 3.85757
# Velocity P-wave (km/s) = 5.88266 7.82244 6.92085
#
# Compressibility (1/GPa) = 0.02177932
#
# Stress axis : x y z
#
# Youngs Moduli (GPa) = 51.97238 31.02644 72.04896
#
# Poissons Ratio (x) = 0.25070 0.08688
# Poissons Ratio (y) = 0.41995 0.90059
# Poissons Ratio (z) = 0.06267 0.38782
#
# Static dielectric constant tensor:
#      x y z
#    x 1.619100 0.000000 0.000000 
#    y 0.000000 1.599080 0.000000 
#    z 0.000000 0.000000 2.001590 
# 
# From -- ./inp_files/28488.got.cif
#   From: 2010.05.17/outbox.cif.g08.bks.cpg/sg65_15_cif.got.tgz:28488.got - 2010.06.03 17:01:31.
