data_PCOD9493983
_publ_section_title
;
Structure prediction by ZEFSAII (Michael W. Deem and Ramdas Pophale) SiO2 
 PCOD9493983
Probable space group: C M M M
;
_chemical_formula_sum "Si O2"
_cell_formula_units_Z 58
_cell_length_a 7.755859
_cell_length_b 20.098675
_cell_length_c 18.833494
_cell_angle_alpha 90.000000
_cell_angle_beta 90.000000
_cell_angle_gamma 90.000000
_cell_volume 2935.811929
_symmetry_space_group_name_H-M "C M M M"
_symmetry_group_IT_number 65
_symmetry_cell_setting 'orthorhombic'
loop_
_space_group_symop_operation_xyz
x,y,z
-x,-y,z
x,-y,-z
-x,y,-z
-x,-y,-z
x,y,-z
-x,y,z
x,-y,z
1/2+x,1/2+y,z
1/2-x,1/2-y,z
1/2+x,1/2-y,-z
1/2-x,1/2+y,-z
1/2-x,1/2-y,-z
1/2+x,1/2+y,-z
1/2-x,1/2+y,z
1/2+x,1/2-y,z
loop_
_atom_site_type_symbol
_atom_site_label
_atom_site_fract_x
_atom_site_fract_y
_atom_site_fract_z
Si Si1 0.292480 0.577832 0.423607
Si Si2 0.206866 0.325509 0.145934
Si Si3 0.000000 0.500000 0.000000
Si Si4 0.294549 0.075941 0.268644
Si Si5 0.306976 0.610707 0.000000
O O1 0.233478 0.606191 0.500000
O O2 0.500000 0.579059 0.423916
O O3 0.238051 0.500000 0.423046
O O4 0.235584 0.604748 0.347591
O O5 0.250000 0.250000 0.164980
O O6 0.270494 0.376680 0.206388
O O7 0.000000 0.332120 0.140440
O O8 0.285714 0.345065 0.070481
O O9 0.152810 0.442468 0.000000
O O10 0.500000 0.071019 0.259467
O O11 0.224389 0.000000 0.264893
O O12 0.500000 0.581617 0.000000
#
# Coordination Sequence:
#
# PCOD9493983 Si02
#       5
#    16  16   2  16   8
#     4   8  14  26  45  72 108 145 182 231 290 354
#     4  11  23  41  63  86 122 161 205 256 302 363
#     4  12  26  48  68 102 136 152 194 276 288 358
#     4   9  19  33  54  81 113 150 188 244 305 353
#     4  12  26  44  70  97 125 168 204 242 312 363
#
# _framework density 19.756034
#
# number of rings (size 3 to 8) (size 9 to 14) (size 15 to 20)
#    0.000    2.207    1.379    2.276    1.931    2.759 
#    0.000    2.759    0.000    0.828    0.000    0.000 
#    0.000    0.000    0.000    0.000    0.000    0.000 
#
# Total GULP energy -161440.304197 kJ/mol
# GULP energy per Si atom -5566.907041 kJ/mol
# Density = 1.971107 g / cm^3
# Si number density = 19.756034 Si / 1000 Ang^3
#
#
#
# Elastic Constant Matrix: (Units=GPa)
#
#
# Indices 1 2 3 4 5 6 
#
# 1 81.2346 15.8696 11.7607 0.0000 0.0000 0.0000
# 2 15.8696 84.9557 68.0396 0.0000 0.0000 0.0000
# 3 11.7607 68.0396 203.2803 0.0000 0.0000 0.0000
# 4 0.0000 0.0000 0.0000 -3.8698 0.0000 0.0000
# 5 0.0000 0.0000 0.0000 0.0000 33.7432 0.0000
# 6 0.0000 0.0000 0.0000 0.0000 0.0000 13.8068
#
#
#
# Elastic Compliance Matrix: (Units=1/GPa)
#
#
# Indices 1 2 3 4 5 6 
#
# 1 0.012777 -0.002452 0.000081 0.000000 0.000000 0.000000
# 2 -0.002452 0.016552 -0.005398 0.000000 0.000000 0.000000
# 3 0.000081 -0.005398 0.006721 0.000000 0.000000 0.000000
# 4 0.000000 0.000000 0.000000 -0.258408 0.000000 0.000000
# 5 0.000000 0.000000 0.000000 0.000000 0.029636 0.000000
# 6 0.000000 0.000000 0.000000 0.000000 0.000000 0.072428
#
#
# Mechanical properties :
#
#
# Convention : Reuss Voigt Hill
#
# Bulk Modulus (GPa) = 48.74892 62.31227 55.53059
# Shear Modulus (GPa) = -51.06323 26.98940 -12.03691
#
# Velocity S-wave (km/s) = -5.08950 3.70014 -2.47103
# Velocity P-wave (km/s) = 3.13182 7.06145 4.47525
#
# Compressibility (1/GPa) = 0.02051327
#
# Stress axis : x y z
#
# Youngs Moduli (GPa) = 78.26409 60.41446 148.77695
#
# Poissons Ratio (x) = 0.14814 -0.01213
# Poissons Ratio (y) = 0.19191 0.80315
# Poissons Ratio (z) = -0.00638 0.32614
#
# Static dielectric constant tensor:
#      x y z
#    x 1.720120 0.000000 0.000000 
#    y 0.000000 1.660210 0.000000 
#    z 0.000000 0.000000 1.729880 
# 
# From -- ./inp_files/48860.got.cif
#   From: 2010.05.17/outbox.cif.g08.bks.cpg/sg65_25_cif.got.tgz:48860.got - 2010.06.03 17:01:31.
