data_PCOD9493818
_publ_section_title
;
Structure prediction by ZEFSAII (Michael W. Deem and Ramdas Pophale) SiO2 
 PCOD9493818
Probable space group: C M M M
;
_chemical_formula_sum "Si O2"
_cell_formula_units_Z 58
_cell_length_a 19.727405
_cell_length_b 7.626112
_cell_length_c 18.194693
_cell_angle_alpha 90.000000
_cell_angle_beta 90.000000
_cell_angle_gamma 90.000000
_cell_volume 2737.271477
_symmetry_space_group_name_H-M "C M M M"
_symmetry_group_IT_number 65
_symmetry_cell_setting 'orthorhombic'
loop_
_space_group_symop_operation_xyz
x,y,z
-x,-y,z
x,-y,-z
-x,y,-z
-x,-y,-z
x,y,-z
-x,y,z
x,-y,z
1/2+x,1/2+y,z
1/2-x,1/2-y,z
1/2+x,1/2-y,-z
1/2-x,1/2+y,-z
1/2-x,1/2-y,-z
1/2+x,1/2+y,-z
1/2-x,1/2+y,z
1/2+x,1/2-y,z
loop_
_atom_site_type_symbol
_atom_site_label
_atom_site_fract_x
_atom_site_fract_y
_atom_site_fract_z
Si Si1 0.077980 0.785164 0.215209
Si Si2 0.672503 0.289455 0.916794
Si Si3 0.173873 0.209028 0.347499
Si Si4 0.113854 0.306968 0.500000
Si Si5 0.000000 0.000000 0.500000
O O1 0.119040 0.725719 0.143215
O O2 0.119203 0.729933 0.287449
O O3 0.000000 0.729016 0.215920
O O4 0.078107 0.000000 0.214923
O O5 0.666053 0.500000 0.919493
O O6 0.750000 0.250000 0.895073
O O7 0.662132 0.222060 0.000000
O O8 0.250000 0.250000 0.322694
O O9 0.158849 0.288601 0.426842
O O10 0.166814 0.000000 0.354046
O O11 0.082552 0.500000 0.500000
O O12 0.058946 0.153395 0.500000
#
# Coordination Sequence:
#
# PCOD9493818 Si02
#       5
#    16  16  16   8   2
#     4   9  19  33  54  82 116 157 197 250 314 370
#     4   9  17  31  53  81 111 148 196 245 299 367
#     4  11  22  39  63  88 122 162 212 265 318 378
#     4  12  26  44  70  99 129 170 216 258 314 381
#     4  12  26  48  68 102 136 168 202 268 320 374
#
# _framework density 21.188984999999999
#
# number of rings (size 3 to 8) (size 9 to 14) (size 15 to 20)
#    0.000    1.931    1.379    2.276    1.931    0.552 
#    0.000    4.138    0.000    4.138    0.000    3.862 
#    0.000    0.000    0.000    0.000    0.000    0.000 
#
# Total GULP energy -161830.053726 kJ/mol
# GULP energy per Si atom -5580.346680 kJ/mol
# Density = 2.114076 g / cm^3
# Si number density = 21.188985 Si / 1000 Ang^3
#
#
#
# Elastic Constant Matrix: (Units=GPa)
#
#
# Indices 1 2 3 4 5 6 
#
# 1 196.4174 11.7981 119.5555 0.0000 0.0000 0.0000
# 2 11.7981 90.6779 9.5556 0.0000 0.0000 0.0000
# 3 119.5555 9.5556 163.8152 0.0000 0.0000 0.0000
# 4 0.0000 0.0000 0.0000 -26.3816 0.0000 0.0000
# 5 0.0000 0.0000 0.0000 0.0000 -42.7559 0.0000
# 6 0.0000 0.0000 0.0000 0.0000 0.0000 9.8149
#
#
#
# Elastic Compliance Matrix: (Units=1/GPa)
#
#
# Indices 1 2 3 4 5 6 
#
# 1 0.009182 -0.000492 -0.006673 0.000000 0.000000 0.000000
# 2 -0.000492 0.011123 -0.000290 0.000000 0.000000 0.000000
# 3 -0.006673 -0.000290 0.010991 0.000000 0.000000 0.000000
# 4 0.000000 0.000000 0.000000 -0.037905 0.000000 0.000000
# 5 0.000000 0.000000 0.000000 0.000000 -0.023389 0.000000
# 6 0.000000 0.000000 0.000000 0.000000 0.000000 0.101886
#
#
# Mechanical properties :
#
#
# Convention : Reuss Voigt Hill
#
# Bulk Modulus (GPa) = 61.02237 81.41430 71.21834
# Shear Modulus (GPa) = 54.19514 8.80225 31.49869
#
# Velocity S-wave (km/s) = 5.06286 2.04039 3.85978
# Velocity P-wave (km/s) = 7.93967 6.63756 7.31764
#
# Compressibility (1/GPa) = 0.01638743
#
# Stress axis : x y z
#
# Youngs Moduli (GPa) = 108.90520 89.90733 90.98140
#
# Poissons Ratio (x) = 0.04419 0.60710
# Poissons Ratio (y) = 0.05353 0.02639
# Poissons Ratio (z) = 0.72670 0.02608
#
# Static dielectric constant tensor:
#      x y z
#    x 1.711260 0.000000 0.000000 
#    y 0.000000 1.844500 0.000000 
#    z 0.000000 0.000000 1.754930 
# 
# From -- ./inp_files/48859.got.cif
#   From: 2010.05.17/outbox.cif.g08.bks.cpg/sg65_25_cif.got.tgz:48859.got - 2010.06.03 17:01:31.
