data_PCOD9493802
_publ_section_title
;
Structure prediction by ZEFSAII (Michael W. Deem and Ramdas Pophale) SiO2 
 PCOD9493802
Probable space group: C M M M
;
_chemical_formula_sum "Si O2"
_cell_formula_units_Z 72
_cell_length_a 29.314008
_cell_length_b 15.082874
_cell_length_c 8.839004
_cell_angle_alpha 90.000000
_cell_angle_beta 90.000000
_cell_angle_gamma 90.000000
_cell_volume 3908.072713
_symmetry_space_group_name_H-M "C M M M"
_symmetry_group_IT_number 65
_symmetry_cell_setting 'orthorhombic'
loop_
_space_group_symop_operation_xyz
x,y,z
-x,-y,z
x,-y,-z
-x,y,-z
-x,-y,-z
x,y,-z
-x,y,z
x,-y,z
1/2+x,1/2+y,z
1/2-x,1/2-y,z
1/2+x,1/2-y,-z
1/2-x,1/2+y,-z
1/2-x,1/2-y,-z
1/2+x,1/2+y,-z
1/2-x,1/2+y,z
1/2+x,1/2-y,z
loop_
_atom_site_type_symbol
_atom_site_label
_atom_site_fract_x
_atom_site_fract_y
_atom_site_fract_z
Si Si1 0.136746 0.335207 0.825050
Si Si2 0.948404 0.393519 0.668033
Si Si3 0.629993 0.642109 0.682728
Si Si4 0.809258 0.500000 0.317779
Si Si5 0.704489 0.500000 0.316773
Si Si6 0.553385 0.500000 0.684012
O O1 0.084536 0.364046 0.799154
O O2 0.137529 0.238348 0.751624
O O3 0.166043 0.411458 0.742430
O O4 0.149319 0.332456 0.000000
O O5 0.931664 0.364676 0.500000
O O6 0.949228 0.500000 0.665547
O O7 0.000000 0.361368 0.685107
O O8 0.628629 0.648011 0.500000
O O9 0.673919 0.583789 0.727621
O O10 0.584252 0.586300 0.727903
O O11 0.811637 0.500000 0.500000
O O12 0.756558 0.500000 0.266106
O O13 0.705916 0.500000 0.500000
O O14 0.500000 0.500000 0.734050
O O15 0.552506 0.500000 0.500000
#
# Coordination Sequence:
#
# PCOD9493802 Si02
#       6
#    16  16  16   8   8   8
#     4  12  24  36  52  83 120 151 183 223 280 344
#     4   9  18  34  56  78 102 140 188 228 264 312
#     4   9  18  36  60  84 112 145 185 233 279 328
#     4  11  22  39  61  80 104 142 192 244 286 331
#     4   8  18  38  63  85 102 135 192 247 288 326
#     4   8  15  31  59  91 115 140 181 230 272 315
#
# _framework density 18.423403
#
# number of rings (size 3 to 8) (size 9 to 14) (size 15 to 20)
#    0.000    2.333    1.111    4.333    0.000    2.222 
#    0.000   12.222    0.000    0.667    0.000    0.000 
#    0.000    0.000    0.000    0.000    0.000    0.000 
#
# Total GULP energy -200628.953444 kJ/mol
# GULP energy per Si atom -5573.026485 kJ/mol
# Density = 1.838147 g / cm^3
# Si number density = 18.423403 Si / 1000 Ang^3
#
#
#
# Elastic Constant Matrix: (Units=GPa)
#
#
# Indices 1 2 3 4 5 6 
#
# 1 132.5610 78.6454 37.2889 0.0000 0.0000 0.0000
# 2 78.6454 152.3332 47.2676 0.0000 0.0000 0.0000
# 3 37.2889 47.2676 57.1184 0.0000 0.0000 0.0000
# 4 0.0000 0.0000 0.0000 -16.3728 0.0000 0.0000
# 5 0.0000 0.0000 0.0000 0.0000 0.4431 0.0000
# 6 0.0000 0.0000 0.0000 0.0000 0.0000 -12.0629
#
#
#
# Elastic Compliance Matrix: (Units=1/GPa)
#
#
# Indices 1 2 3 4 5 6 
#
# 1 0.011358 -0.004794 -0.003448 0.000000 0.000000 0.000000
# 2 -0.004794 0.010856 -0.005854 0.000000 0.000000 0.000000
# 3 -0.003448 -0.005854 0.024603 0.000000 0.000000 0.000000
# 4 0.000000 0.000000 0.000000 -0.061077 0.000000 0.000000
# 5 0.000000 0.000000 0.000000 0.000000 2.257000 0.000000
# 6 0.000000 0.000000 0.000000 0.000000 0.000000 -0.082899
#
#
# Mechanical properties :
#
#
# Convention : Reuss Voigt Hill
#
# Bulk Modulus (GPa) = 53.69074 74.26850 63.97962
# Shear Modulus (GPa) = 2.27869 6.32219 4.30044
#
# Velocity S-wave (km/s) = 1.11334 1.85447 1.52948
# Velocity P-wave (km/s) = 5.55506 6.70708 6.15807
#
# Compressibility (1/GPa) = 0.01862519
#
# Stress axis : x y z
#
# Youngs Moduli (GPa) = 88.04711 92.11512 40.64601
#
# Poissons Ratio (x) = 0.44159 0.14013
# Poissons Ratio (y) = 0.42209 0.23795
# Poissons Ratio (z) = 0.30354 0.53925
#
# Static dielectric constant tensor:
#      x y z
#    x 1.654230 0.000000 0.000000 
#    y 0.000000 1.408170 0.000000 
#    z 0.000000 0.000000 1.631940 
# 
# From -- ./inp_files/18061.got.cif
#   From: 2010.05.17/outbox.cif.g08.bks.cpg/sg65_10_cif.got.tgz:18061.got - 2010.06.03 17:01:31.
