data_PCOD9493942
_publ_section_title
;
Structure prediction by ZEFSAII (Michael W. Deem and Ramdas Pophale) SiO2 
 PCOD9493942
Probable space group: C M M M
;
_chemical_formula_sum "Si O2"
_cell_formula_units_Z 80
_cell_length_a 18.065255
_cell_length_b 8.795580
_cell_length_c 27.027585
_cell_angle_alpha 90.000000
_cell_angle_beta 90.000000
_cell_angle_gamma 90.000000
_cell_volume 4294.531782
_symmetry_space_group_name_H-M "C M M M"
_symmetry_group_IT_number 65
_symmetry_cell_setting 'orthorhombic'
loop_
_space_group_symop_operation_xyz
x,y,z
-x,-y,z
x,-y,-z
-x,y,-z
-x,-y,-z
x,y,-z
-x,y,z
x,-y,z
1/2+x,1/2+y,z
1/2-x,1/2-y,z
1/2+x,1/2-y,-z
1/2-x,1/2+y,-z
1/2-x,1/2-y,-z
1/2+x,1/2+y,-z
1/2-x,1/2+y,z
1/2+x,1/2-y,z
loop_
_atom_site_type_symbol
_atom_site_label
_atom_site_fract_x
_atom_site_fract_y
_atom_site_fract_z
Si Si1 0.168172 0.183227 0.690328
Si Si2 0.587096 0.814592 0.000000
Si Si3 0.167840 0.181777 0.500000
Si Si4 0.914370 0.817396 0.790196
Si Si5 0.411757 0.820146 0.404451
Si Si6 0.090007 0.678722 0.892960
O O1 0.250000 0.250000 0.685531
O O2 0.132833 0.231060 0.742872
O O3 0.119129 0.246143 0.645524
O O4 0.170028 0.000000 0.688324
O O5 0.617887 0.764162 0.946685
O O6 0.500000 0.773332 0.000000
O O7 0.589604 0.000000 0.000000
O O8 0.250000 0.250000 0.500000
O O9 0.125859 0.241395 0.548553
O O10 0.170832 0.000000 0.500000
O O11 0.885085 0.760073 0.843046
O O12 0.000000 0.765510 0.784583
O O13 0.915101 0.000000 0.791075
O O14 0.500000 0.802112 0.407088
O O15 0.394480 0.000000 0.404990
O O16 0.106685 0.500000 0.889077
O O17 0.000000 0.693085 0.894331
#
# Coordination Sequence:
#
# PCOD9493942 Si02
#       6
#    16   8   8  16  16  16
#     4  11  23  39  58  80 109 144 183 226 274 327
#     4   7  10  18  33  57  90 125 160 201 251 305
#     4  12  25  42  65  91 123 159 193 228 269 318
#     4   9  18  32  49  71 101 135 170 212 264 320
#     4  11  24  42  64  90 119 149 185 229 273 320
#     4   8  13  22  39  63  92 127 166 207 252 307
#
# _framework density 18.628340999999999
#
# number of rings (size 3 to 8) (size 9 to 14) (size 15 to 20)
#    0.000    2.300    0.000    4.800    0.000    5.200 
#    0.000    2.500    0.000    3.000    0.000    0.700 
#    0.000    0.000    0.000    0.000    0.000    0.000 
#
# Total GULP energy -223155.100592 kJ/mol
# GULP energy per Si atom -5578.877515 kJ/mol
# Density = 1.858594 g / cm^3
# Si number density = 18.628341 Si / 1000 Ang^3
#
#
#
# Elastic Constant Matrix: (Units=GPa)
#
#
# Indices 1 2 3 4 5 6 
#
# 1 54.2720 43.5869 51.3621 0.0000 0.0000 0.0000
# 2 43.5869 72.3178 64.1639 0.0000 0.0000 0.0000
# 3 51.3621 64.1639 197.3547 0.0000 0.0000 0.0000
# 4 0.0000 0.0000 0.0000 39.7305 0.0000 0.0000
# 5 0.0000 0.0000 0.0000 0.0000 -27.7210 0.0000
# 6 0.0000 0.0000 0.0000 0.0000 0.0000 18.4410
#
#
#
# Elastic Compliance Matrix: (Units=1/GPa)
#
#
# Indices 1 2 3 4 5 6 
#
# 1 0.037237 -0.019458 -0.003365 0.000000 0.000000 0.000000
# 2 -0.019458 0.029601 -0.004560 0.000000 0.000000 0.000000
# 3 -0.003365 -0.004560 0.007425 0.000000 0.000000 0.000000
# 4 0.000000 0.000000 0.000000 0.025170 0.000000 0.000000
# 5 0.000000 0.000000 0.000000 0.000000 -0.036074 0.000000
# 6 0.000000 0.000000 0.000000 0.000000 0.000000 0.054227
#
#
# Mechanical properties :
#
#
# Convention : Reuss Voigt Hill
#
# Bulk Modulus (GPa) = 51.28687 71.35226 61.31957
# Shear Modulus (GPa) = 27.95613 17.07885 22.51749
#
# Velocity S-wave (km/s) = 3.87813 3.03119 3.48052
# Velocity P-wave (km/s) = 6.90251 7.11597 7.01005
#
# Compressibility (1/GPa) = 0.01949817
#
# Stress axis : x y z
#
# Youngs Moduli (GPa) = 26.85487 33.78240 134.67468
#
# Poissons Ratio (x) = 0.65733 0.45318
# Poissons Ratio (y) = 0.52254 0.61411
# Poissons Ratio (z) = 0.09037 0.15405
#
# Static dielectric constant tensor:
#      x y z
#    x 1.620360 0.000000 0.000000 
#    y 0.000000 1.628470 0.000000 
#    z 0.000000 0.000000 1.657700 
# 
# From -- ./inp_files/75126.got.cif
#   From: 2010.05.17/outbox.cif.g08.bks.cpg/sg65_38_cif.got.tgz:75126.got - 2010.06.03 17:01:31.
