data_PCOD9493616
_publ_section_title
;
Structure prediction by ZEFSAII (Michael W. Deem and Ramdas Pophale) SiO2 
 PCOD9493616
Probable space group: C M M M
;
_chemical_formula_sum "Si O2"
_cell_formula_units_Z 64
_cell_length_a 33.301939
_cell_length_b 14.130944
_cell_length_c 7.781332
_cell_angle_alpha 90.000000
_cell_angle_beta 90.000000
_cell_angle_gamma 90.000000
_cell_volume 3661.800180
_symmetry_space_group_name_H-M "C M M M"
_symmetry_group_IT_number 65
_symmetry_cell_setting 'orthorhombic'
loop_
_space_group_symop_operation_xyz
x,y,z
-x,-y,z
x,-y,-z
-x,y,-z
-x,-y,-z
x,y,-z
-x,y,z
x,-y,z
1/2+x,1/2+y,z
1/2-x,1/2-y,z
1/2+x,1/2-y,-z
1/2-x,1/2+y,-z
1/2-x,1/2-y,-z
1/2+x,1/2+y,-z
1/2-x,1/2+y,z
1/2+x,1/2-y,z
loop_
_atom_site_type_symbol
_atom_site_label
_atom_site_fract_x
_atom_site_fract_y
_atom_site_fract_z
Si Si1 0.045833 0.109244 0.207980
Si Si2 0.175158 0.113423 0.000000
Si Si3 0.327359 0.890152 0.699565
Si Si4 0.733188 0.114606 0.000000
Si Si5 0.874356 0.792884 0.304827
O O1 0.079529 0.178328 0.279470
O O2 0.000000 0.130513 0.259699
O O3 0.054639 0.000000 0.257848
O O4 0.047512 0.112661 0.000000
O O5 0.151655 0.150246 0.166518
O O6 0.221147 0.148930 0.000000
O O7 0.174710 0.000000 0.000000
O O8 0.314389 0.883862 0.500000
O O9 0.363978 0.817518 0.722909
O O10 0.337761 0.000000 0.734000
O O11 0.292322 0.860818 0.830718
O O12 0.735755 0.000000 0.000000
O O13 0.862388 0.816448 0.500000
#
# Coordination Sequence:
#
# PCOD9493616 Si02
#       5
#    16   8  16   8  16
#     4   9  18  34  55  77 105 140 172 206 252 307
#     4  11  23  37  51  75 112 141 169 216 264 309
#     4   9  19  36  55  76 103 135 177 224 261 300
#     4   9  19  35  55  74  98 141 181 211 261 315
#     4  11  22  34  54  81 105 137 177 214 259 311
#
# _framework density 17.477741000000002
#
# number of rings (size 3 to 8) (size 9 to 14) (size 15 to 20)
#    0.000    2.250    1.250    2.250    0.000    5.500 
#    0.000    6.250    0.000    0.750    0.000    5.250 
#    0.000    0.000    0.000    0.000    0.000    0.000 
#
# Total GULP energy -178539.041022 kJ/mol
# GULP energy per Si atom -5579.345032 kJ/mol
# Density = 1.743796 g / cm^3
# Si number density = 17.477741 Si / 1000 Ang^3
#
#
#
# Elastic Constant Matrix: (Units=GPa)
#
#
# Indices 1 2 3 4 5 6 
#
# 1 136.0196 68.5752 59.7236 0.0000 0.0000 0.0000
# 2 68.5752 98.2872 56.9728 0.0000 0.0000 0.0000
# 3 59.7236 56.9728 90.2596 0.0000 0.0000 0.0000
# 4 0.0000 0.0000 0.0000 22.1596 0.0000 0.0000
# 5 0.0000 0.0000 0.0000 0.0000 -2.2974 0.0000
# 6 0.0000 0.0000 0.0000 0.0000 0.0000 32.1670
#
#
#
# Elastic Compliance Matrix: (Units=1/GPa)
#
#
# Indices 1 2 3 4 5 6 
#
# 1 0.012315 -0.006101 -0.004297 0.000000 0.000000 0.000000
# 2 -0.006101 0.019067 -0.007999 0.000000 0.000000 0.000000
# 3 -0.004297 -0.007999 0.018972 0.000000 0.000000 0.000000
# 4 0.000000 0.000000 0.000000 0.045127 0.000000 0.000000
# 5 0.000000 0.000000 0.000000 0.000000 -0.435272 0.000000
# 6 0.000000 0.000000 0.000000 0.000000 0.000000 0.031088
#
#
# Mechanical properties :
#
#
# Convention : Reuss Voigt Hill
#
# Bulk Modulus (GPa) = 73.74887 77.23441 75.49164
# Shear Modulus (GPa) = -18.69929 19.69215 0.49643
#
# Velocity S-wave (km/s) = -3.27447 3.36027 0.53353
# Velocity P-wave (km/s) = 5.29068 7.70333 6.60805
#
# Compressibility (1/GPa) = 0.01355953
#
# Stress axis : x y z
#
# Youngs Moduli (GPa) = 81.20428 52.44574 52.71040
#
# Poissons Ratio (x) = 0.31996 0.22652
# Poissons Ratio (y) = 0.49542 0.42161
# Poissons Ratio (z) = 0.34898 0.41949
#
# Static dielectric constant tensor:
#      x y z
#    x 1.576770 0.000000 0.000000 
#    y 0.000000 1.610950 0.000000 
#    z 0.000000 0.000000 1.610930 
# 
# From -- ./inp_files/17946.got.cif
#   From: 2010.05.17/outbox.cif.g08.bks.cpg/sg65_9_cif.got.tgz:17946.got - 2010.06.03 17:01:31.
