data_PCOD9493025
_publ_section_title
;
Structure prediction by ZEFSAII (Michael W. Deem and Ramdas Pophale) SiO2 
 PCOD9493025
Probable space group: C M M M
;
_chemical_formula_sum "Si O2"
_cell_formula_units_Z 64
_cell_length_a 24.602386
_cell_length_b 18.030836
_cell_length_c 7.610324
_cell_angle_alpha 90.000000
_cell_angle_beta 90.000000
_cell_angle_gamma 90.000000
_cell_volume 3375.951805
_symmetry_space_group_name_H-M "C M M M"
_symmetry_group_IT_number 65
_symmetry_cell_setting 'orthorhombic'
loop_
_space_group_symop_operation_xyz
x,y,z
-x,-y,z
x,-y,-z
-x,y,-z
-x,-y,-z
x,y,-z
-x,y,z
x,-y,z
1/2+x,1/2+y,z
1/2-x,1/2-y,z
1/2+x,1/2-y,-z
1/2-x,1/2+y,-z
1/2-x,1/2-y,-z
1/2+x,1/2+y,-z
1/2-x,1/2+y,z
1/2+x,1/2-y,z
loop_
_atom_site_type_symbol
_atom_site_label
_atom_site_fract_x
_atom_site_fract_y
_atom_site_fract_z
Si Si1 0.313005 0.088638 0.500000
Si Si2 0.612881 0.838541 0.790275
Si Si3 0.684656 0.411701 0.500000
Si Si4 0.500000 0.915136 0.786632
Si Si5 0.886190 0.162560 0.200994
Si Si6 0.000000 0.086237 0.711785
O O1 0.341361 0.124010 0.670978
O O2 0.248741 0.103684 0.500000
O O3 0.321341 0.000000 0.500000
O O4 0.554899 0.873172 0.735671
O O5 0.611528 0.750321 0.761958
O O6 0.620676 0.851920 0.000000
O O7 0.676338 0.500000 0.500000
O O8 0.654958 0.376867 0.332281
O O9 0.500000 0.000000 0.724786
O O10 0.500000 0.916270 0.000000
O O11 0.945867 0.127326 0.224563
O O12 0.868890 0.152392 0.000000
O O13 0.000000 0.087877 0.500000
O O14 0.000000 0.000000 0.767129
#
# Coordination Sequence:
#
# PCOD9493025 Si02
#       6
#     8  16   8   8  16   8
#     4  11  25  42  63  88 117 159 205 251 306 361
#     4  10  22  40  62  91 124 157 199 249 300 360
#     4  11  25  44  61  86 121 155 205 261 300 353
#     4   9  17  33  59  88 121 156 189 235 294 354
#     4  11  23  40  64  91 122 162 202 246 304 362
#     4  11  22  37  61  93 128 162 197 245 302 358
#
# _framework density 18.957616999999999
#
# number of rings (size 3 to 8) (size 9 to 14) (size 15 to 20)
#    0.000    1.500    1.250    3.375    0.000    9.500 
#    0.000    6.250    0.000    0.000    0.000    0.000 
#    0.000    0.000    0.000    0.000    0.000    0.000 
#
# Total GULP energy -178954.661298 kJ/mol
# GULP energy per Si atom -5592.333166 kJ/mol
# Density = 1.891447 g / cm^3
# Si number density = 18.957617 Si / 1000 Ang^3
#
#
#
# Elastic Constant Matrix: (Units=GPa)
#
#
# Indices 1 2 3 4 5 6 
#
# 1 176.0204 120.9560 90.9918 0.0000 0.0000 0.0000
# 2 120.9560 154.3342 91.1183 0.0000 0.0000 0.0000
# 3 90.9918 91.1183 111.1549 0.0000 0.0000 0.0000
# 4 0.0000 0.0000 0.0000 12.5216 0.0000 0.0000
# 5 0.0000 0.0000 0.0000 0.0000 612.0810 0.0000
# 6 0.0000 0.0000 0.0000 0.0000 0.0000 127.5656
#
#
#
# Elastic Compliance Matrix: (Units=1/GPa)
#
#
# Indices 1 2 3 4 5 6 
#
# 1 0.013416 -0.007810 -0.004579 0.000000 0.000000 0.000000
# 2 -0.007810 0.017104 -0.007627 0.000000 0.000000 0.000000
# 3 -0.004579 -0.007627 0.018997 0.000000 0.000000 0.000000
# 4 0.000000 0.000000 0.000000 0.079862 0.000000 0.000000
# 5 0.000000 0.000000 0.000000 0.000000 0.001634 0.000000
# 6 0.000000 0.000000 0.000000 0.000000 0.000000 0.007839
#
#
# Mechanical properties :
#
#
# Convention : Reuss Voigt Hill
#
# Bulk Modulus (GPa) = 105.45337 116.40462 110.92899
# Shear Modulus (GPa) = 27.46564 159.66320 93.56442
#
# Velocity S-wave (km/s) = 3.81043 9.18716 7.03290
# Velocity P-wave (km/s) = 8.66636 13.19373 11.16199
#
# Compressibility (1/GPa) = 0.00948286
#
# Stress axis : x y z
#
# Youngs Moduli (GPa) = 74.54006 58.46732 52.63911
#
# Poissons Ratio (x) = 0.45666 0.24106
# Poissons Ratio (y) = 0.58219 0.40147
# Poissons Ratio (z) = 0.34136 0.44592
#
# Static dielectric constant tensor:
#      x y z
#    x 1.611780 0.000000 0.000000 
#    y 0.000000 1.633880 0.000000 
#    z 0.000000 0.000000 1.666090 
# 
# From -- ./inp_files/13437.got.cif
#   From: 2010.05.17/outbox.cif.g08.bks.cpg/sg65_7_cif.got.tgz:13437.got - 2010.06.03 17:01:31.
