data_PCOD9493343
_publ_section_title
;
Structure prediction by ZEFSAII (Michael W. Deem and Ramdas Pophale) SiO2 
 PCOD9493343
Probable space group: C M M M
;
_chemical_formula_sum "Si O2"
_cell_formula_units_Z 80
_cell_length_a 24.249276
_cell_length_b 8.039200
_cell_length_c 21.429494
_cell_angle_alpha 90.000000
_cell_angle_beta 90.000000
_cell_angle_gamma 90.000000
_cell_volume 4177.567985
_symmetry_space_group_name_H-M "C M M M"
_symmetry_group_IT_number 65
_symmetry_cell_setting 'orthorhombic'
loop_
_space_group_symop_operation_xyz
x,y,z
-x,-y,z
x,-y,-z
-x,y,-z
-x,-y,-z
x,y,-z
-x,y,z
x,-y,z
1/2+x,1/2+y,z
1/2-x,1/2-y,z
1/2+x,1/2-y,-z
1/2-x,1/2+y,-z
1/2-x,1/2-y,-z
1/2+x,1/2+y,-z
1/2-x,1/2+y,z
1/2+x,1/2-y,z
loop_
_atom_site_type_symbol
_atom_site_label
_atom_site_fract_x
_atom_site_fract_y
_atom_site_fract_z
Si Si1 0.436067 0.702945 0.429401
Si Si2 0.500000 0.298154 0.239618
Si Si3 0.500000 0.700107 0.903793
Si Si4 0.122491 0.697227 0.067227
Si Si5 0.613591 0.296506 0.695993
Si Si6 0.312861 0.302902 0.191365
O O1 0.423403 0.757270 0.500000
O O2 0.500000 0.750332 0.415217
O O3 0.435969 0.500000 0.429228
O O4 0.393484 0.757732 0.375859
O O5 0.500000 0.500000 0.240656
O O6 0.500000 0.246441 0.168299
O O7 0.444336 0.246056 0.272952
O O8 0.500000 0.500000 0.907909
O O9 0.557433 0.763422 0.930771
O O10 0.129994 0.500000 0.067617
O O11 0.151409 0.761468 0.129932
O O12 0.144068 0.762649 0.000000
O O13 0.616142 0.500000 0.695075
O O14 0.660294 0.235756 0.744016
O O15 0.314197 0.500000 0.196990
O O16 0.250000 0.250000 0.183397
#
# Coordination Sequence:
#
# PCOD9493343 Si02
#       6
#    16   8   8  16  16  16
#     4   8  12  18  34  66 106 140 166 200 253 312
#     4   9  14  24  45  75 103 130 167 210 256 306
#     4  11  20  34  57  85 114 145 177 212 259 317
#     4  11  24  40  57  80 111 142 172 215 268 321
#     4   9  15  26  46  71 102 136 171 214 263 313
#     4  11  23  39  58  77  99 135 182 230 275 319
#
# _framework density 19.149898
#
# number of rings (size 3 to 8) (size 9 to 14) (size 15 to 20)
#    0.000    2.200    3.000    2.400    0.000    3.200 
#    0.000    0.000    0.000    0.600    0.000    0.000 
#    0.000    2.400    0.000   11.000    0.000   10.800 
#
# Total GULP energy -222981.718319 kJ/mol
# GULP energy per Si atom -5574.542958 kJ/mol
# Density = 1.910631 g / cm^3
# Si number density = 19.149898 Si / 1000 Ang^3
#
#
#
# Elastic Constant Matrix: (Units=GPa)
#
#
# Indices 1 2 3 4 5 6 
#
# 1 103.9342 4.3683 68.4011 0.0000 0.0000 0.0000
# 2 4.3683 18.0900 12.1899 0.0000 0.0000 0.0000
# 3 68.4011 12.1899 181.6005 0.0000 0.0000 0.0000
# 4 0.0000 0.0000 0.0000 -74.9973 0.0000 0.0000
# 5 0.0000 0.0000 0.0000 0.0000 -31.3719 0.0000
# 6 0.0000 0.0000 0.0000 0.0000 0.0000 14.9210
#
#
#
# Elastic Compliance Matrix: (Units=1/GPa)
#
#
# Indices 1 2 3 4 5 6 
#
# 1 0.012793 0.000165 -0.004830 0.000000 0.000000 0.000000
# 2 0.000165 0.057900 -0.003949 0.000000 0.000000 0.000000
# 3 -0.004830 -0.003949 0.007591 0.000000 0.000000 0.000000
# 4 0.000000 0.000000 0.000000 -0.013334 0.000000 0.000000
# 5 0.000000 0.000000 0.000000 0.000000 -0.031876 0.000000
# 6 0.000000 0.000000 0.000000 0.000000 0.000000 0.067020
#
#
# Mechanical properties :
#
#
# Convention : Reuss Voigt Hill
#
# Bulk Modulus (GPa) = 16.37803 52.61593 34.49698
# Shear Modulus (GPa) = 36.31796 -3.71196 16.30300
#
# Velocity S-wave (km/s) = 4.35962 -1.39376 2.92093
# Velocity P-wave (km/s) = 5.82347 4.99453 5.42486
#
# Compressibility (1/GPa) = 0.06105740
#
# Stress axis : x y z
#
# Youngs Moduli (GPa) = 78.16753 17.27116 131.73864
#
# Poissons Ratio (x) = -0.00285 0.63626
# Poissons Ratio (y) = -0.01292 0.52020
# Poissons Ratio (z) = 0.37752 0.06820
#
# Static dielectric constant tensor:
#      x y z
#    x 1.582960 0.000000 0.000000 
#    y 0.000000 1.686340 0.000000 
#    z 0.000000 0.000000 1.733310 
# 
# From -- ./inp_files/65065.got.cif
#   From: 2010.05.17/outbox.cif.g08.bks.cpg/sg65_33_cif.got.tgz:65065.got - 2010.06.03 17:01:31.
