data_PCOD9493693
_publ_section_title
;
Structure prediction by ZEFSAII (Michael W. Deem and Ramdas Pophale) SiO2 
 PCOD9493693
Probable space group: C M M M
;
_chemical_formula_sum "Si O2"
_cell_formula_units_Z 64
_cell_length_a 18.486518
_cell_length_b 8.466221
_cell_length_c 21.461034
_cell_angle_alpha 90.000000
_cell_angle_beta 90.000000
_cell_angle_gamma 90.000000
_cell_volume 3358.886753
_symmetry_space_group_name_H-M "C M M M"
_symmetry_group_IT_number 65
_symmetry_cell_setting 'orthorhombic'
loop_
_space_group_symop_operation_xyz
x,y,z
-x,-y,z
x,-y,-z
-x,y,-z
-x,-y,-z
x,y,-z
-x,y,z
x,-y,z
1/2+x,1/2+y,z
1/2-x,1/2-y,z
1/2+x,1/2-y,-z
1/2-x,1/2+y,-z
1/2-x,1/2-y,-z
1/2+x,1/2+y,-z
1/2-x,1/2+y,z
1/2+x,1/2-y,z
loop_
_atom_site_type_symbol
_atom_site_label
_atom_site_fract_x
_atom_site_fract_y
_atom_site_fract_z
Si Si1 0.088081 0.183340 0.000000
Si Si2 0.083708 0.689603 0.620930
Si Si3 0.083996 0.806790 0.135665
Si Si4 0.331867 0.311941 0.500000
Si Si5 0.831528 0.189701 0.741366
O O1 0.109084 0.251616 0.067273
O O2 0.000000 0.182878 0.000000
O O3 0.111489 0.000000 0.000000
O O4 0.085723 0.500000 0.620076
O O5 0.126696 0.752035 0.561193
O O6 0.121364 0.749696 0.683665
O O7 0.000000 0.740896 0.618576
O O8 0.132688 0.756538 0.193457
O O9 0.000000 0.761131 0.145260
O O10 0.084749 0.000000 0.133465
O O11 0.330754 0.500000 0.500000
O O12 0.250000 0.250000 0.500000
O O13 0.750000 0.250000 0.735832
O O14 0.831733 0.000000 0.740476
#
# Coordination Sequence:
#
# PCOD9493693 Si02
#       5
#     8  16  16   8  16
#     4   7  10  20  41  70 101 131 170 223 278 327
#     4  11  24  42  63  87 115 146 183 228 276 326
#     4   8  14  26  47  74 102 135 178 228 278 329
#     4  12  25  42  65  91 121 153 185 222 267 320
#     4  11  22  36  54  78 111 148 188 231 277 330
#
# _framework density 19.053932
#
# number of rings (size 3 to 8) (size 9 to 14) (size 15 to 20)
#    0.000    2.125    0.000    6.000    0.000    4.500 
#    0.000    0.625    0.000    0.000    0.000    2.625 
#    0.000   14.000    0.000    0.000    0.000    0.000 
#
# Total GULP energy -178653.181342 kJ/mol
# GULP energy per Si atom -5582.911917 kJ/mol
# Density = 1.901056 g / cm^3
# Si number density = 19.053932 Si / 1000 Ang^3
#
#
#
# Elastic Constant Matrix: (Units=GPa)
#
#
# Indices 1 2 3 4 5 6 
#
# 1 159.7084 37.9586 113.7915 0.0000 0.0000 0.0000
# 2 37.9586 47.4782 41.4052 0.0000 0.0000 0.0000
# 3 113.7915 41.4052 221.2501 0.0000 0.0000 0.0000
# 4 0.0000 0.0000 0.0000 -20.2996 0.0000 0.0000
# 5 0.0000 0.0000 0.0000 0.0000 -35.4874 0.0000
# 6 0.0000 0.0000 0.0000 0.0000 0.0000 14.4365
#
#
#
# Elastic Compliance Matrix: (Units=1/GPa)
#
#
# Indices 1 2 3 4 5 6 
#
# 1 0.010616 -0.004453 -0.004627 0.000000 0.000000 0.000000
# 2 -0.004453 0.027038 -0.002770 0.000000 0.000000 0.000000
# 3 -0.004627 -0.002770 0.007418 0.000000 0.000000 0.000000
# 4 0.000000 0.000000 0.000000 -0.049262 0.000000 0.000000
# 5 0.000000 0.000000 0.000000 0.000000 -0.028179 0.000000
# 6 0.000000 0.000000 0.000000 0.000000 0.000000 0.069269
#
#
# Mechanical properties :
#
#
# Convention : Reuss Voigt Hill
#
# Bulk Modulus (GPa) = 46.78769 90.52745 68.65757
# Shear Modulus (GPa) = 73.83059 7.41532 40.62296
#
# Velocity S-wave (km/s) = 6.23156 1.97489 4.62237
# Velocity P-wave (km/s) = 8.73986 7.26736 8.03740
#
# Compressibility (1/GPa) = 0.02137314
#
# Stress axis : x y z
#
# Youngs Moduli (GPa) = 94.19510 36.98533 134.81211
#
# Poissons Ratio (x) = 0.16468 0.62375
# Poissons Ratio (y) = 0.41942 0.37341
# Poissons Ratio (z) = 0.43582 0.10244
#
# Static dielectric constant tensor:
#      x y z
#    x 1.626830 0.000000 0.000000 
#    y 0.000000 1.658820 0.000000 
#    z 0.000000 0.000000 1.670350 
# 
# From -- ./inp_files/63232.got.cif
#   From: 2010.05.17/outbox.cif.g08.bks.cpg/sg65_32_cif.got.tgz:63232.got - 2010.06.03 17:01:31.
