data_PCOD9493050
_publ_section_title
;
Structure prediction by ZEFSAII (Michael W. Deem and Ramdas Pophale) SiO2 
 PCOD9493050
Probable space group: C M M M
;
_chemical_formula_sum "Si O2"
_cell_formula_units_Z 80
_cell_length_a 18.850047
_cell_length_b 30.044228
_cell_length_c 7.311815
_cell_angle_alpha 90.000000
_cell_angle_beta 90.000000
_cell_angle_gamma 90.000000
_cell_volume 4140.937551
_symmetry_space_group_name_H-M "C M M M"
_symmetry_group_IT_number 65
_symmetry_cell_setting 'orthorhombic'
loop_
_space_group_symop_operation_xyz
x,y,z
-x,-y,z
x,-y,-z
-x,y,-z
-x,-y,-z
x,y,-z
-x,y,z
x,-y,z
1/2+x,1/2+y,z
1/2-x,1/2-y,z
1/2+x,1/2-y,-z
1/2-x,1/2+y,-z
1/2-x,1/2-y,-z
1/2+x,1/2+y,-z
1/2-x,1/2+y,z
1/2+x,1/2-y,z
loop_
_atom_site_type_symbol
_atom_site_label
_atom_site_fract_x
_atom_site_fract_y
_atom_site_fract_z
Si Si1 0.173863 0.447601 0.500000
Si Si2 0.915892 0.362922 0.500000
Si Si3 0.332955 0.297135 0.221258
Si Si4 0.670425 0.805253 0.779740
Si Si5 0.796385 0.052183 0.784427
Si Si6 0.580046 0.618987 0.777050
O O1 0.155277 0.500000 0.500000
O O2 0.108898 0.414063 0.500000
O O3 0.225265 0.438385 0.327433
O O4 0.880341 0.338429 0.326315
O O5 0.000000 0.358339 0.500000
O O6 0.345585 0.246078 0.273854
O O7 0.253238 0.311951 0.272186
O O8 0.390366 0.332968 0.281563
O O9 0.332984 0.296863 0.000000
O O10 0.664509 0.809360 0.000000
O O11 0.862079 0.082344 0.723143
O O12 0.813157 0.000000 0.757930
O O13 0.784815 0.060127 0.000000
O O14 0.500000 0.610604 0.715787
O O15 0.578969 0.618757 0.000000
#
# Coordination Sequence:
#
# PCOD9493050 Si02
#       6
#     8   8  16  16  16  16
#     4  10  22  41  62  80 101 131 170 220 269 315
#     4  12  26  38  55  85 110 136 174 213 271 337
#     4   8  15  30  54  80 105 144 190 221 257 306
#     4   9  19  37  58  79 107 142 182 227 263 301
#     4   9  18  34  57  81 103 135 180 221 259 308
#     4   9  16  26  45  76 112 146 177 213 260 312
#
# _framework density 19.319296000000001
#
# number of rings (size 3 to 8) (size 9 to 14) (size 15 to 20)
#    0.000    2.800    0.000    2.400    0.000    5.800 
#    0.000    5.500    0.000    1.800    0.000    4.200 
#    0.000    0.000    0.000    0.000    0.000    0.000 
#
# Total GULP energy -223345.780591 kJ/mol
# GULP energy per Si atom -5583.644515 kJ/mol
# Density = 1.927532 g / cm^3
# Si number density = 19.319296 Si / 1000 Ang^3
#
#
#
# Elastic Constant Matrix: (Units=GPa)
#
#
# Indices 1 2 3 4 5 6 
#
# 1 91.1795 58.0585 25.7269 0.0000 0.0000 0.0000
# 2 58.0585 73.3870 26.7315 0.0000 0.0000 0.0000
# 3 25.7269 26.7315 82.0170 0.0000 0.0000 0.0000
# 4 0.0000 0.0000 0.0000 12.1197 0.0000 0.0000
# 5 0.0000 0.0000 0.0000 0.0000 12.0612 0.0000
# 6 0.0000 0.0000 0.0000 0.0000 0.0000 7.3917
#
#
#
# Elastic Compliance Matrix: (Units=1/GPa)
#
#
# Indices 1 2 3 4 5 6 
#
# 1 0.022243 -0.017084 -0.001409 0.000000 0.000000 0.000000
# 2 -0.017084 0.028583 -0.003957 0.000000 0.000000 0.000000
# 3 -0.001409 -0.003957 0.013924 0.000000 0.000000 0.000000
# 4 0.000000 0.000000 0.000000 0.082510 0.000000 0.000000
# 5 0.000000 0.000000 0.000000 0.000000 0.082910 0.000000
# 6 0.000000 0.000000 0.000000 0.000000 0.000000 0.135287
#
#
# Mechanical properties :
#
#
# Convention : Reuss Voigt Hill
#
# Bulk Modulus (GPa) = 50.37676 51.95750 51.16713
# Shear Modulus (GPa) = 11.99110 15.38562 13.68836
#
# Velocity S-wave (km/s) = 2.49405 2.82509 2.66472
# Velocity P-wave (km/s) = 5.86738 6.13140 6.00084
#
# Compressibility (1/GPa) = 0.01985042
#
# Stress axis : x y z
#
# Youngs Moduli (GPa) = 44.95769 34.98537 71.81656
#
# Poissons Ratio (x) = 0.59769 0.10120
# Poissons Ratio (y) = 0.76805 0.28420
# Poissons Ratio (z) = 0.06335 0.13845
#
# Static dielectric constant tensor:
#      x y z
#    x 1.620150 0.000000 0.000000 
#    y 0.000000 1.672210 0.000000 
#    z 0.000000 0.000000 1.751170 
# 
# From -- ./inp_files/9957.got.cif
#   From: 2010.05.17/outbox.cif.g08.bks.cpg/sg65_5_cif.got.tgz:9957.got - 2010.06.03 17:01:31.
