data_PCOD9493180
_publ_section_title
;
Structure prediction by ZEFSAII (Michael W. Deem and Ramdas Pophale) SiO2 
 PCOD9493180
Probable space group: C M M M
;
_chemical_formula_sum "Si O2"
_cell_formula_units_Z 88
_cell_length_a 20.020342
_cell_length_b 7.959229
_cell_length_c 25.507079
_cell_angle_alpha 90.000000
_cell_angle_beta 90.000000
_cell_angle_gamma 90.000000
_cell_volume 4064.463423
_symmetry_space_group_name_H-M "C M M M"
_symmetry_group_IT_number 65
_symmetry_cell_setting 'orthorhombic'
loop_
_space_group_symop_operation_xyz
x,y,z
-x,-y,z
x,-y,-z
-x,y,-z
-x,-y,-z
x,y,-z
-x,y,z
x,-y,z
1/2+x,1/2+y,z
1/2-x,1/2-y,z
1/2+x,1/2-y,-z
1/2-x,1/2+y,-z
1/2-x,1/2-y,-z
1/2+x,1/2+y,-z
1/2-x,1/2+y,z
1/2+x,1/2-y,z
loop_
_atom_site_type_symbol
_atom_site_label
_atom_site_fract_x
_atom_site_fract_y
_atom_site_fract_z
Si Si1 0.500000 0.311670 0.937074
Si Si2 0.575521 0.295101 0.439659
Si Si3 0.819660 0.300229 0.830061
Si Si4 0.643131 0.701866 0.058382
Si Si5 0.672169 0.700879 0.348323
Si Si6 0.923853 0.297889 0.252380
O O1 0.500000 0.500000 0.913303
O O2 0.569972 0.225127 0.927331
O O3 0.500000 0.331912 0.000000
O O4 0.585347 0.242490 0.500000
O O5 0.500000 0.244030 0.423071
O O6 0.575846 0.500000 0.439291
O O7 0.633667 0.237203 0.400747
O O8 0.822896 0.500000 0.831084
O O9 0.750000 0.250000 0.803004
O O10 0.817118 0.237340 0.889551
O O11 0.884090 0.234033 0.798934
O O12 0.636777 0.500000 0.054023
O O13 0.664316 0.761922 0.000000
O O14 0.670471 0.500000 0.348715
O O15 0.750000 0.750000 0.344951
O O16 0.625232 0.758928 0.300538
O O17 0.928140 0.500000 0.248300
O O18 0.000000 0.233705 0.257791
#
# Coordination Sequence:
#
# PCOD9493180 Si02
#       6
#     8  16  16  16  16  16
#     4   7  12  26  49  77 107 137 169 209 258 313
#     4   8  15  30  53  82 117 156 199 247 293 338
#     4  11  24  40  59  82 113 149 186 229 280 339
#     4   9  18  34  57  84 114 147 183 225 275 332
#     4  11  22  36  58  88 120 157 200 242 289 346
#     4  10  23  43  64  86 114 147 186 239 298 350
#
# _framework density 21.651076
#
# number of rings (size 3 to 8) (size 9 to 14) (size 15 to 20)
#    0.000    2.455    0.000    3.818    1.273    5.091 
#    0.000    0.000    0.000    3.273    0.000    6.364 
#    0.000    0.000    0.000    0.000    0.000    0.000 
#
# Total GULP energy -245304.272118 kJ/mol
# GULP energy per Si atom -5575.097094 kJ/mol
# Density = 2.160180 g / cm^3
# Si number density = 21.651076 Si / 1000 Ang^3
#
#
#
# Elastic Constant Matrix: (Units=GPa)
#
#
# Indices 1 2 3 4 5 6 
#
# 1 213.5206 10.3587 96.5672 0.0000 0.0000 0.0000
# 2 10.3587 26.9724 7.2785 0.0000 0.0000 0.0000
# 3 96.5672 7.2785 130.4314 0.0000 0.0000 0.0000
# 4 0.0000 0.0000 0.0000 18.7023 0.0000 0.0000
# 5 0.0000 0.0000 0.0000 0.0000 36.2335 0.0000
# 6 0.0000 0.0000 0.0000 0.0000 0.0000 -193.0148
#
#
#
# Elastic Compliance Matrix: (Units=1/GPa)
#
#
# Indices 1 2 3 4 5 6 
#
# 1 0.007087 -0.001326 -0.005173 0.000000 0.000000 0.000000
# 2 -0.001326 0.037890 -0.001133 0.000000 0.000000 0.000000
# 3 -0.005173 -0.001133 0.011560 0.000000 0.000000 0.000000
# 4 0.000000 0.000000 0.000000 0.053469 0.000000 0.000000
# 5 0.000000 0.000000 0.000000 0.000000 0.027599 0.000000
# 6 0.000000 0.000000 0.000000 0.000000 0.000000 -0.005181
#
#
# Mechanical properties :
#
#
# Convention : Reuss Voigt Hill
#
# Bulk Modulus (GPa) = 24.22858 66.59258 45.41058
# Shear Modulus (GPa) = 30.97006 -10.50114 10.23446
#
# Velocity S-wave (km/s) = 3.78619 -2.20470 2.17652
# Velocity P-wave (km/s) = 5.50712 4.93386 5.22836
#
# Compressibility (1/GPa) = 0.04127357
#
# Stress axis : x y z
#
# Youngs Moduli (GPa) = 141.09548 26.39235 86.50354
#
# Poissons Ratio (x) = 0.03499 0.44751
# Poissons Ratio (y) = 0.18708 0.09799
# Poissons Ratio (z) = 0.72993 0.02990
#
# Static dielectric constant tensor:
#      x y z
#    x 1.905700 0.000000 0.000000 
#    y 0.000000 1.795120 0.000000 
#    z 0.000000 0.000000 1.795930 
# 
# From -- ./inp_files/70954.got.cif
#   From: 2010.05.17/outbox.cif.g08.bks.cpg/sg65_36_cif.got.tgz:70954.got - 2010.06.03 17:01:31.
