data_PCOD9493904
_publ_section_title
;
Structure prediction by ZEFSAII (Michael W. Deem and Ramdas Pophale) SiO2 
 PCOD9493904
Probable space group: C M M M
;
_chemical_formula_sum "Si O2"
_cell_formula_units_Z 72
_cell_length_a 18.564230
_cell_length_b 9.200947
_cell_length_c 24.200965
_cell_angle_alpha 90.000000
_cell_angle_beta 90.000000
_cell_angle_gamma 90.000000
_cell_volume 4133.730441
_symmetry_space_group_name_H-M "C M M M"
_symmetry_group_IT_number 65
_symmetry_cell_setting 'orthorhombic'
loop_
_space_group_symop_operation_xyz
x,y,z
-x,-y,z
x,-y,-z
-x,y,-z
-x,-y,-z
x,y,-z
-x,y,z
x,-y,z
1/2+x,1/2+y,z
1/2-x,1/2-y,z
1/2+x,1/2-y,-z
1/2-x,1/2+y,-z
1/2-x,1/2-y,-z
1/2+x,1/2+y,-z
1/2-x,1/2+y,z
1/2+x,1/2-y,z
loop_
_atom_site_type_symbol
_atom_site_label
_atom_site_fract_x
_atom_site_fract_y
_atom_site_fract_z
Si Si1 0.587848 0.669493 0.880083
Si Si2 0.085974 0.171393 0.436107
Si Si3 0.083782 0.674191 0.231154
Si Si4 0.672796 0.825612 0.659631
Si Si5 0.415942 0.322734 0.000000
O O1 0.500000 0.677044 0.882107
O O2 0.606722 0.500000 0.873903
O O3 0.610648 0.756772 0.826090
O O4 0.614563 0.722763 0.940381
O O5 0.104346 0.204262 0.500000
O O6 0.128324 0.268453 0.392839
O O7 0.000000 0.191475 0.429818
O O8 0.101208 0.000000 0.426692
O O9 0.085338 0.500000 0.226131
O O10 0.129961 0.715374 0.284467
O O11 0.000000 0.718021 0.239251
O O12 0.750000 0.750000 0.659759
O O13 0.679406 0.000000 0.657860
O O14 0.415223 0.500000 0.000000
O O15 0.500000 0.278538 0.000000
#
# Coordination Sequence:
#
# PCOD9493904 Si02
#       5
#    16  16  16  16   8
#     4   8  13  22  39  63  90 122 158 194 235 286
#     4   9  19  37  60  84 108 133 163 201 244 292
#     4   9  18  32  48  68  96 127 160 201 248 296
#     4  11  23  37  53  74 102 136 172 210 252 296
#     4   7  10  18  33  57  90 121 150 189 235 283
#
# _framework density 17.417681000000002
#
# number of rings (size 3 to 8) (size 9 to 14) (size 15 to 20)
#    0.000    3.000    0.000    3.333    0.000    4.000 
#    0.000    3.889    0.000    3.333    0.000    0.778 
#    0.000    0.000    0.000    0.000    0.000    0.000 
#
# Total GULP energy -200538.179011 kJ/mol
# GULP energy per Si atom -5570.504973 kJ/mol
# Density = 1.737804 g / cm^3
# Si number density = 17.417681 Si / 1000 Ang^3
#
#
#
# Elastic Constant Matrix: (Units=GPa)
#
#
# Indices 1 2 3 4 5 6 
#
# 1 41.5206 33.3747 64.0112 0.0000 0.0000 0.0000
# 2 33.3747 39.5952 69.0571 0.0000 0.0000 0.0000
# 3 64.0112 69.0571 181.9431 0.0000 0.0000 0.0000
# 4 0.0000 0.0000 0.0000 29.4526 0.0000 0.0000
# 5 0.0000 0.0000 0.0000 0.0000 -6.0435 0.0000
# 6 0.0000 0.0000 0.0000 0.0000 0.0000 12.6352
#
#
#
# Elastic Compliance Matrix: (Units=1/GPa)
#
#
# Indices 1 2 3 4 5 6 
#
# 1 0.077872 -0.052823 -0.007348 0.000000 0.000000 0.000000
# 2 -0.052823 0.110546 -0.023374 0.000000 0.000000 0.000000
# 3 -0.007348 -0.023374 0.016953 0.000000 0.000000 0.000000
# 4 0.000000 0.000000 0.000000 0.033953 0.000000 0.000000
# 5 0.000000 0.000000 0.000000 0.000000 -0.165466 0.000000
# 6 0.000000 0.000000 0.000000 0.000000 0.000000 0.079144
#
#
# Mechanical properties :
#
#
# Convention : Reuss Voigt Hill
#
# Bulk Modulus (GPa) = 26.12242 66.21612 46.16927
# Shear Modulus (GPa) = 15.02168 13.64991 14.33580
#
# Velocity S-wave (km/s) = 2.93992 2.80247 2.87201
# Velocity P-wave (km/s) = 5.15309 6.96928 6.12884
#
# Compressibility (1/GPa) = 0.03828129
#
# Stress axis : x y z
#
# Youngs Moduli (GPa) = 12.84156 9.04601 58.98712
#
# Poissons Ratio (x) = 0.47784 0.43342
# Poissons Ratio (y) = 0.67834 1.37875
# Poissons Ratio (z) = 0.09436 0.21144
#
# Static dielectric constant tensor:
#      x y z
#    x 1.573260 0.000000 0.000000 
#    y 0.000000 1.577330 0.000000 
#    z 0.000000 0.000000 1.610910 
# 
# From -- ./inp_files/66979.got.cif
#   From: 2010.05.17/outbox.cif.g08.bks.cpg/sg65_34_cif.got.tgz:66979.got - 2010.06.03 17:01:31.
