data_PCOD9493751
_publ_section_title
;
Structure prediction by ZEFSAII (Michael W. Deem and Ramdas Pophale) SiO2 
 PCOD9493751
Probable space group: C M M M
;
_chemical_formula_sum "Si O2"
_cell_formula_units_Z 68
_cell_length_a 15.185585
_cell_length_b 23.391160
_cell_length_c 11.219788
_cell_angle_alpha 90.000000
_cell_angle_beta 90.000000
_cell_angle_gamma 90.000000
_cell_volume 3985.363487
_symmetry_space_group_name_H-M "C M M M"
_symmetry_group_IT_number 65
_symmetry_cell_setting 'orthorhombic'
loop_
_space_group_symop_operation_xyz
x,y,z
-x,-y,z
x,-y,-z
-x,y,-z
-x,-y,-z
x,y,-z
-x,y,z
x,-y,z
1/2+x,1/2+y,z
1/2-x,1/2-y,z
1/2+x,1/2-y,-z
1/2-x,1/2+y,-z
1/2-x,1/2-y,-z
1/2+x,1/2+y,-z
1/2-x,1/2+y,z
1/2+x,1/2-y,z
loop_
_atom_site_type_symbol
_atom_site_label
_atom_site_fract_x
_atom_site_fract_y
_atom_site_fract_z
Si Si1 0.895910 0.000000 0.643190
Si Si2 0.500000 0.669720 0.141412
Si Si3 0.804149 0.308341 0.858192
Si Si4 0.000000 0.705389 0.236941
Si Si5 0.167203 0.121418 0.269543
Si Si6 0.000000 0.283208 0.500000
Si Si7 0.329661 0.704004 0.500000
O O1 0.848572 0.056908 0.689739
O O2 0.893742 0.000000 0.500000
O O3 0.000000 0.000000 0.677931
O O4 0.500000 0.726066 0.222887
O O5 0.587272 0.636705 0.180408
O O6 0.500000 0.683433 0.000000
O O7 0.750000 0.250000 0.820548
O O8 0.755583 0.361781 0.798966
O O9 0.906537 0.309420 0.822375
O O10 0.797277 0.310144 0.000000
O O11 0.000000 0.684895 0.373744
O O12 0.167491 0.162949 0.384946
O O13 0.084611 0.243023 0.500000
O O14 0.250000 0.750000 0.500000
#
# Coordination Sequence:
#
# PCOD9493751 Si02
#       7
#     8   8  16   8  16   4   8
#     4  11  24  40  62  89 124 165 205 247 303 361
#     4  12  22  35  56  85 122 160 199 246 293 361
#     4  11  22  37  58  87 124 162 201 248 304 368
#     4  12  22  36  57  89 127 160 199 242 311 376
#     4  12  22  39  58  87 120 162 203 244 296 359
#     4  12  20  32  52  85 120 153 186 242 282 346
#     4  12  22  35  56  87 123 154 192 241 295 353
#
# _framework density 17.062432999999999
#
# number of rings (size 3 to 8) (size 9 to 14) (size 15 to 20)
#    0.000    0.353    7.059    3.882    0.000    0.000 
#    0.000    2.941    0.000    0.706    0.000    2.471 
#    0.000    0.000    0.000    0.000    0.000    0.000 
#
# Total GULP energy -189811.565238 kJ/mol
# GULP energy per Si atom -5582.693095 kJ/mol
# Density = 1.702360 g / cm^3
# Si number density = 17.062433 Si / 1000 Ang^3
#
#
#
# Elastic Constant Matrix: (Units=GPa)
#
#
# Indices 1 2 3 4 5 6 
#
# 1 148.8174 52.0023 27.6916 0.0000 0.0000 0.0000
# 2 52.0023 89.5990 16.5551 0.0000 0.0000 0.0000
# 3 27.6916 16.5551 89.9146 0.0000 0.0000 0.0000
# 4 0.0000 0.0000 0.0000 18.7839 0.0000 0.0000
# 5 0.0000 0.0000 0.0000 0.0000 -5.6494 0.0000
# 6 0.0000 0.0000 0.0000 0.0000 0.0000 16.0469
#
#
#
# Elastic Compliance Matrix: (Units=1/GPa)
#
#
# Indices 1 2 3 4 5 6 
#
# 1 0.008705 -0.004718 -0.001812 0.000000 0.000000 0.000000
# 2 -0.004718 0.014111 -0.001145 0.000000 0.000000 0.000000
# 3 -0.001812 -0.001145 0.011891 0.000000 0.000000 0.000000
# 4 0.000000 0.000000 0.000000 0.053237 0.000000 0.000000
# 5 0.000000 0.000000 0.000000 0.000000 -0.177011 0.000000
# 6 0.000000 0.000000 0.000000 0.000000 0.000000 0.062317
#
#
# Mechanical properties :
#
#
# Convention : Reuss Voigt Hill
#
# Bulk Modulus (GPa) = 51.66304 57.86991 54.76647
# Shear Modulus (GPa) = -1010.64061 21.30841 -494.66610
#
# Velocity S-wave (km/s) = -24.36401 3.53774 -17.04537
# Velocity P-wave (km/s) = 27.58856 7.11882 18.84743
#
# Compressibility (1/GPa) = 0.01935620
#
# Stress axis : x y z
#
# Youngs Moduli (GPa) = 114.87091 70.86920 84.09936
#
# Poissons Ratio (x) = 0.33434 0.15243
# Poissons Ratio (y) = 0.54192 0.09630
# Poissons Ratio (z) = 0.20820 0.08115
#
# Static dielectric constant tensor:
#      x y z
#    x 1.433820 0.000000 0.000000 
#    y 0.000000 1.556490 0.000000 
#    z 0.000000 0.000000 1.604970 
# 
# From -- ./inp_files/24346.got.cif
#   From: 2010.05.17/outbox.cif.g08.bks.cpg/sg65_13_cif.got.tgz:24346.got - 2010.06.03 17:01:31.
