data_PCOD9493715
_publ_section_title
;
Structure prediction by ZEFSAII (Michael W. Deem and Ramdas Pophale) SiO2 
 PCOD9493715
Probable space group: C M M M
;
_chemical_formula_sum "Si O2"
_cell_formula_units_Z 104
_cell_length_a 8.873057
_cell_length_b 29.288738
_cell_length_c 20.876824
_cell_angle_alpha 90.000000
_cell_angle_beta 90.000000
_cell_angle_gamma 90.000000
_cell_volume 5425.482418
_symmetry_space_group_name_H-M "C M M M"
_symmetry_group_IT_number 65
_symmetry_cell_setting 'orthorhombic'
loop_
_space_group_symop_operation_xyz
x,y,z
-x,-y,z
x,-y,-z
-x,y,-z
-x,-y,-z
x,y,-z
-x,y,z
x,-y,z
1/2+x,1/2+y,z
1/2-x,1/2-y,z
1/2+x,1/2-y,-z
1/2-x,1/2+y,-z
1/2-x,1/2-y,-z
1/2+x,1/2+y,-z
1/2-x,1/2+y,z
1/2+x,1/2-y,z
loop_
_atom_site_type_symbol
_atom_site_label
_atom_site_fract_x
_atom_site_fract_y
_atom_site_fract_z
Si Si1 0.822537 0.640495 0.800388
Si Si2 0.179434 0.800120 0.690173
Si Si3 0.181522 0.403354 0.073550
Si Si4 0.825067 0.051030 0.404496
Si Si5 0.327699 0.500000 0.077687
Si Si6 0.673333 0.448177 0.750008
Si Si7 0.678923 0.854016 0.428798
O O1 0.733553 0.674989 0.755119
O O2 0.776493 0.635310 0.874895
O O3 0.787337 0.590008 0.773283
O O4 0.000000 0.650554 0.796251
O O5 0.250000 0.750000 0.687013
O O6 0.237002 0.828960 0.629058
O O7 0.000000 0.798005 0.688839
O O8 0.248539 0.452327 0.094447
O O9 0.000000 0.407286 0.074706
O O10 0.227932 0.394265 0.000000
O O11 0.823064 0.051767 0.327142
O O12 0.725230 0.092840 0.427242
O O13 0.000000 0.057750 0.423631
O O14 0.778284 0.000000 0.424430
O O15 0.500000 0.500000 0.099596
O O16 0.327138 0.500000 0.000000
O O17 0.500000 0.436692 0.768630
O O18 0.706170 0.500000 0.771274
O O19 0.717509 0.835979 0.500000
O O20 0.500000 0.849437 0.419409
#
# Coordination Sequence:
#
# PCOD9493715 Si02
#       7
#    16  16  16  16   8  16  16
#     4  11  22  36  59  89 118 152 198 245 295 350
#     4  12  26  46  70  92 117 147 186 239 299 360
#     4   9  19  35  53  77 116 163 204 242 288 344
#     4   9  18  34  56  83 118 162 206 244 286 339
#     4   9  17  29  47  75 113 159 208 251 288 333
#     4   9  18  32  51  79 116 157 198 243 292 342
#     4  11  24  41  62  91 125 158 196 241 289 345
#
# _framework density 19.168800999999998
#
# number of rings (size 3 to 8) (size 9 to 14) (size 15 to 20)
#    0.000    1.923    1.538    3.462    1.077    4.615 
#    0.000    3.077    0.000    0.462    0.000    0.000 
#    0.000    0.000    0.000    0.000    0.000    0.000 
#
# Total GULP energy -290433.605949 kJ/mol
# GULP energy per Si atom -5585.261653 kJ/mol
# Density = 1.912517 g / cm^3
# Si number density = 19.168801 Si / 1000 Ang^3
#
#
#
# Elastic Constant Matrix: (Units=GPa)
#
#
# Indices 1 2 3 4 5 6 
#
# 1 78.9226 45.7176 53.3114 0.0000 0.0000 0.0000
# 2 45.7176 98.6653 57.0509 0.0000 0.0000 0.0000
# 3 53.3114 57.0509 134.2240 0.0000 0.0000 0.0000
# 4 0.0000 0.0000 0.0000 -6.4291 0.0000 0.0000
# 5 0.0000 0.0000 0.0000 0.0000 -2.7269 0.0000
# 6 0.0000 0.0000 0.0000 0.0000 0.0000 33.4969
#
#
#
# Elastic Compliance Matrix: (Units=1/GPa)
#
#
# Indices 1 2 3 4 5 6 
#
# 1 0.019761 -0.006123 -0.005246 0.000000 0.000000 0.000000
# 2 -0.006123 0.015335 -0.004086 0.000000 0.000000 0.000000
# 3 -0.005246 -0.004086 0.011271 0.000000 0.000000 0.000000
# 4 0.000000 0.000000 0.000000 -0.155543 0.000000 0.000000
# 5 0.000000 0.000000 0.000000 0.000000 -0.366716 0.000000
# 6 0.000000 0.000000 0.000000 0.000000 0.000000 0.029853
#
#
# Mechanical properties :
#
#
# Convention : Reuss Voigt Hill
#
# Bulk Modulus (GPa) = 64.69861 69.33020 67.01441
# Shear Modulus (GPa) = -12.19586 15.25031 1.52723
#
# Velocity S-wave (km/s) = -2.52511 2.82366 0.89356
# Velocity P-wave (km/s) = 5.03227 6.84672 6.00838
#
# Compressibility (1/GPa) = 0.01545628
#
# Stress axis : x y z
#
# Youngs Moduli (GPa) = 50.60370 65.20953 88.72526
#
# Poissons Ratio (x) = 0.39928 0.46548
# Poissons Ratio (y) = 0.30985 0.36254
# Poissons Ratio (z) = 0.26548 0.26645
#
# Static dielectric constant tensor:
#      x y z
#    x 1.639860 0.000000 0.000000 
#    y 0.000000 1.637600 0.000000 
#    z 0.000000 0.000000 1.738820 
# 
# From -- ./inp_files/60367.got.cif
#   From: 2010.05.17/outbox.cif.g08.bks.cpg/sg65_31_cif.got.tgz:60367.got - 2010.06.03 17:01:31.
