data_PCOD9493850
_publ_section_title
;
Structure prediction by ZEFSAII (Michael W. Deem and Ramdas Pophale) SiO2 
 PCOD9493850
Probable space group: C M M M
;
_chemical_formula_sum "Si O2"
_cell_formula_units_Z 88
_cell_length_a 22.181055
_cell_length_b 18.432221
_cell_length_c 11.673704
_cell_angle_alpha 90.000000
_cell_angle_beta 90.000000
_cell_angle_gamma 90.000000
_cell_volume 4772.748444
_symmetry_space_group_name_H-M "C M M M"
_symmetry_group_IT_number 65
_symmetry_cell_setting 'orthorhombic'
loop_
_space_group_symop_operation_xyz
x,y,z
-x,-y,z
x,-y,-z
-x,y,-z
-x,-y,-z
x,y,-z
-x,y,z
x,-y,z
1/2+x,1/2+y,z
1/2-x,1/2-y,z
1/2+x,1/2-y,-z
1/2-x,1/2+y,-z
1/2-x,1/2-y,-z
1/2+x,1/2+y,-z
1/2-x,1/2+y,z
1/2+x,1/2-y,z
loop_
_atom_site_type_symbol
_atom_site_label
_atom_site_fract_x
_atom_site_fract_y
_atom_site_fract_z
Si Si1 0.500000 0.416341 0.363474
Si Si2 0.428882 0.586853 0.000000
Si Si3 0.429702 0.813225 0.135326
Si Si4 0.931819 0.587888 0.500000
Si Si5 0.647511 0.913158 0.720006
Si Si6 0.891959 0.159514 0.766302
Si Si7 0.733476 0.335190 0.365381
O O1 0.500000 0.500000 0.322881
O O2 0.500000 0.415722 0.500000
O O3 0.441958 0.375920 0.314790
O O4 0.397247 0.617657 0.113073
O O5 0.427748 0.500000 0.000000
O O6 0.500000 0.610050 0.000000
O O7 0.500000 0.829998 0.160227
O O8 0.385544 0.877990 0.171569
O O9 0.409224 0.742428 0.205343
O O10 0.425077 0.797753 0.000000
O O11 0.934669 0.500000 0.500000
O O12 0.894887 0.608662 0.612370
O O13 0.000000 0.616100 0.500000
O O14 0.712701 0.880163 0.692946
O O15 0.650247 0.000000 0.726961
O O16 0.827943 0.154105 0.704454
O O17 0.727533 0.355768 0.500000
O O18 0.750000 0.250000 0.361632
#
# Coordination Sequence:
#
# PCOD9493850 Si02
#       7
#     8   8  16   8  16  16  16
#     4  11  24  41  63  99 138 166 210 276 334 390
#     4  11  22  40  67  96 129 169 217 276 327 379
#     4  11  23  42  67  96 130 169 215 274 336 388
#     4   9  18  36  63  94 126 163 210 269 324 376
#     4  11  23  42  65  95 133 170 215 267 323 393
#     4  12  22  41  67  96 129 171 222 267 323 394
#     4  11  24  43  66  93 130 174 216 263 326 395
#
# _framework density 18.438013999999999
#
# number of rings (size 3 to 8) (size 9 to 14) (size 15 to 20)
#    0.000    1.000    5.455    1.636    0.000    2.909 
#    3.273    2.273    0.000    0.000    0.000    0.000 
#    0.000    0.000    0.000    0.000    0.000    0.000 
#
# Total GULP energy -245933.162424 kJ/mol
# GULP energy per Si atom -5589.390055 kJ/mol
# Density = 1.839605 g / cm^3
# Si number density = 18.438014 Si / 1000 Ang^3
#
#
#
# Elastic Constant Matrix: (Units=GPa)
#
#
# Indices 1 2 3 4 5 6 
#
# 1 196.2358 62.0491 75.2454 0.0000 0.0000 0.0000
# 2 62.0491 104.2500 38.3517 0.0000 0.0000 0.0000
# 3 75.2454 38.3517 84.0470 0.0000 0.0000 0.0000
# 4 0.0000 0.0000 0.0000 30.8685 0.0000 0.0000
# 5 0.0000 0.0000 0.0000 0.0000 19.5972 0.0000
# 6 0.0000 0.0000 0.0000 0.0000 0.0000 28.9309
#
#
#
# Elastic Compliance Matrix: (Units=1/GPa)
#
#
# Indices 1 2 3 4 5 6 
#
# 1 0.008332 -0.002662 -0.006245 0.000000 0.000000 0.000000
# 2 -0.002662 0.012378 -0.003265 0.000000 0.000000 0.000000
# 3 -0.006245 -0.003265 0.018979 0.000000 0.000000 0.000000
# 4 0.000000 0.000000 0.000000 0.032396 0.000000 0.000000
# 5 0.000000 0.000000 0.000000 0.000000 0.051028 0.000000
# 6 0.000000 0.000000 0.000000 0.000000 0.000000 0.034565
#
#
# Mechanical properties :
#
#
# Convention : Reuss Voigt Hill
#
# Bulk Modulus (GPa) = 65.16695 81.75835 73.46265
# Shear Modulus (GPa) = 26.71851 29.80507 28.26179
#
# Velocity S-wave (km/s) = 3.81083 4.02494 3.91935
# Velocity P-wave (km/s) = 7.40161 8.12642 7.77247
#
# Compressibility (1/GPa) = 0.01534520
#
# Stress axis : x y z
#
# Youngs Moduli (GPa) = 120.01664 80.78979 52.68992
#
# Poissons Ratio (x) = 0.21505 0.32905
# Poissons Ratio (y) = 0.31947 0.17203
# Poissons Ratio (z) = 0.74950 0.26378
#
# Static dielectric constant tensor:
#      x y z
#    x 1.605740 0.000000 0.000000 
#    y 0.000000 1.626280 0.000000 
#    z 0.000000 0.000000 1.630110 
# 
# From -- ./inp_files/28764.got.cif
#   From: 2010.05.17/outbox.cif.g08.bks.cpg/sg65_15_cif.got.tgz:28764.got - 2010.06.03 17:01:31.
