data_PCOD9493113
_publ_section_title
;
Structure prediction by ZEFSAII (Michael W. Deem and Ramdas Pophale) SiO2 
 PCOD9493113
Probable space group: C M M M
;
_chemical_formula_sum "Si O2"
_cell_formula_units_Z 72
_cell_length_a 10.008997
_cell_length_b 15.079827
_cell_length_c 23.209673
_cell_angle_alpha 90.000000
_cell_angle_beta 90.000000
_cell_angle_gamma 90.000000
_cell_volume 3503.127466
_symmetry_space_group_name_H-M "C M M M"
_symmetry_group_IT_number 65
_symmetry_cell_setting 'orthorhombic'
loop_
_space_group_symop_operation_xyz
x,y,z
-x,-y,z
x,-y,-z
-x,y,-z
-x,-y,-z
x,y,-z
-x,y,z
x,-y,z
1/2+x,1/2+y,z
1/2-x,1/2-y,z
1/2+x,1/2-y,-z
1/2-x,1/2+y,-z
1/2-x,1/2-y,-z
1/2+x,1/2+y,-z
1/2-x,1/2+y,z
1/2+x,1/2-y,z
loop_
_atom_site_type_symbol
_atom_site_label
_atom_site_fract_x
_atom_site_fract_y
_atom_site_fract_z
Si Si1 0.500000 0.272778 0.225001
Si Si2 0.250000 0.250000 0.301545
Si Si3 0.000000 0.599490 0.845011
Si Si4 0.500000 0.404863 0.881455
Si Si5 0.728348 0.144252 0.064450
Si Si6 0.846330 0.892634 0.500000
Si Si7 0.343778 0.894372 0.392865
O O1 0.367646 0.288807 0.261892
O O2 0.500000 0.170537 0.205452
O O3 0.500000 0.328989 0.166505
O O4 0.310565 0.171385 0.340582
O O5 0.126072 0.615510 0.886596
O O6 0.000000 0.500000 0.822733
O O7 0.500000 0.500000 0.851451
O O8 0.370829 0.396474 0.921054
O O9 0.750000 0.250000 0.066806
O O10 0.682322 0.120935 0.000000
O O11 0.758839 0.869431 0.556009
O O12 0.000000 0.859018 0.500000
O O13 0.854133 0.000000 0.500000
O O14 0.500000 0.883537 0.409769
O O15 0.325430 0.000000 0.379868
#
# Coordination Sequence:
#
# PCOD9493113 Si02
#       7
#     8   8   8   8  16   8  16
#     4  12  26  46  63  89 130 166 224 280 330 372
#     4  12  26  43  68  92 127 172 224 286 322 374
#     4  12  25  43  69  94 125 170 219 268 324 394
#     4  12  25  43  67  94 127 170 213 264 330 394
#     4  11  22  41  68  98 134 168 202 259 331 400
#     4   9  19  36  67 106 144 174 208 266 323 387
#     4  10  22  43  68  99 135 176 219 262 326 392
#
# _framework density 20.553063000000002
#
# number of rings (size 3 to 8) (size 9 to 14) (size 15 to 20)
#    0.000    1.000    3.333    3.000    1.556    8.000 
#    0.000    0.000    0.000    0.000    0.000    0.000 
#    0.000    0.000    0.000    0.000    0.000    0.000 
#
# Total GULP energy -201350.127996 kJ/mol
# GULP energy per Si atom -5593.059111 kJ/mol
# Density = 2.050628 g / cm^3
# Si number density = 20.553063 Si / 1000 Ang^3
#
#
#
# Elastic Constant Matrix: (Units=GPa)
#
#
# Indices 1 2 3 4 5 6 
#
# 1 131.1296 7.2377 14.7676 0.0000 0.0000 0.0000
# 2 7.2377 95.1620 15.1668 0.0000 0.0000 0.0000
# 3 14.7676 15.1668 58.1735 0.0000 0.0000 0.0000
# 4 0.0000 0.0000 0.0000 -3.8716 0.0000 0.0000
# 5 0.0000 0.0000 0.0000 0.0000 -73.9691 0.0000
# 6 0.0000 0.0000 0.0000 0.0000 0.0000 33.2399
#
#
#
# Elastic Compliance Matrix: (Units=1/GPa)
#
#
# Indices 1 2 3 4 5 6 
#
# 1 0.007858 -0.000292 -0.001919 0.000000 0.000000 0.000000
# 2 -0.000292 0.010975 -0.002787 0.000000 0.000000 0.000000
# 3 -0.001919 -0.002787 0.018404 0.000000 0.000000 0.000000
# 4 0.000000 0.000000 0.000000 -0.258293 0.000000 0.000000
# 5 0.000000 0.000000 0.000000 0.000000 -0.013519 0.000000
# 6 0.000000 0.000000 0.000000 0.000000 0.000000 0.030084
#
#
# Mechanical properties :
#
#
# Convention : Reuss Voigt Hill
#
# Bulk Modulus (GPa) = 36.70925 39.86769 38.28847
# Shear Modulus (GPa) = -26.96655 7.56604 -9.70025
#
# Velocity S-wave (km/s) = -3.62615 1.92073 -2.17482
# Velocity P-wave (km/s) = 0.60628 4.93543 3.51611
#
# Compressibility (1/GPa) = 0.02724109
#
# Stress axis : x y z
#
# Youngs Moduli (GPa) = 127.25494 91.11763 54.33684
#
# Poissons Ratio (x) = 0.02659 0.10426
# Poissons Ratio (y) = 0.03714 0.15145
# Poissons Ratio (z) = 0.24417 0.25397
#
# Static dielectric constant tensor:
#      x y z
#    x 1.708320 0.000000 0.000000 
#    y 0.000000 1.771960 0.000000 
#    z 0.000000 0.000000 1.685670 
# 
# From -- ./inp_files/72674.got.cif
#   From: 2010.05.17/outbox.cif.g08.bks.cpg/sg65_37_cif.got.tgz:72674.got - 2010.06.03 17:01:31.
