data_PCOD9493795
_publ_section_title
;
Structure prediction by ZEFSAII (Michael W. Deem and Ramdas Pophale) SiO2 
 PCOD9493795
Probable space group: C M M M
;
_chemical_formula_sum "Si O2"
_cell_formula_units_Z 84
_cell_length_a 11.941021
_cell_length_b 15.948258
_cell_length_c 22.270653
_cell_angle_alpha 90.000000
_cell_angle_beta 90.000000
_cell_angle_gamma 90.000000
_cell_volume 4241.189388
_symmetry_space_group_name_H-M "C M M M"
_symmetry_group_IT_number 65
_symmetry_cell_setting 'orthorhombic'
loop_
_space_group_symop_operation_xyz
x,y,z
-x,-y,z
x,-y,-z
-x,y,-z
-x,-y,-z
x,y,-z
-x,y,z
x,-y,z
1/2+x,1/2+y,z
1/2-x,1/2-y,z
1/2+x,1/2-y,-z
1/2-x,1/2+y,-z
1/2-x,1/2-y,-z
1/2+x,1/2+y,-z
1/2-x,1/2+y,z
1/2+x,1/2-y,z
loop_
_atom_site_type_symbol
_atom_site_label
_atom_site_fract_x
_atom_site_fract_y
_atom_site_fract_z
Si Si1 0.628839 0.399021 0.932068
Si Si2 0.000000 0.899587 0.610873
Si Si3 0.500000 0.399328 0.748405
Si Si4 0.188611 0.500000 0.500000
Si Si5 0.770553 0.847661 0.811396
Si Si6 0.245278 0.152429 0.586769
Si Si7 0.871033 0.401272 0.702997
O O1 0.500000 0.371347 0.918800
O O2 0.626272 0.500000 0.931666
O O3 0.714685 0.372042 0.880808
O O4 0.656402 0.371712 0.000000
O O5 0.000000 0.870094 0.679770
O O6 0.114600 0.870424 0.581845
O O7 0.000000 0.000000 0.610051
O O8 0.500000 0.500000 0.748277
O O9 0.388727 0.370336 0.781202
O O10 0.193041 0.423311 0.551254
O O11 0.750000 0.750000 0.807322
O O12 0.676266 0.890057 0.770156
O O13 0.250000 0.250000 0.567945
O O14 0.292813 0.145725 0.654778
O O15 0.865712 0.500000 0.689019
O O16 0.000000 0.372991 0.698277
#
# Coordination Sequence:
#
# PCOD9493795 Si02
#       7
#    16   8   8   4  16  16  16
#     4   9  18  35  61  91 124 167 220 271 320 385
#     4  11  22  42  74 101 134 171 217 285 346 381
#     4  11  22  38  65  96 124 168 222 268 326 396
#     4  12  26  53  69  98 138 176 225 265 336 400
#     4  12  24  35  62  96 133 167 214 272 334 380
#     4  12  26  44  72 101 133 175 222 278 334 399
#     4  11  24  43  65  93 131 172 219 273 327 393
#
# _framework density 19.805765000000001
#
# number of rings (size 3 to 8) (size 9 to 14) (size 15 to 20)
#    0.000    0.952    4.762    3.143    2.667    1.143 
#    0.000    0.952    0.000    0.571    0.000    2.667 
#    0.000    0.000    0.000    0.000    0.000    0.000 
#
# Total GULP energy -233995.632932 kJ/mol
# GULP energy per Si atom -5571.324594 kJ/mol
# Density = 1.976069 g / cm^3
# Si number density = 19.805765 Si / 1000 Ang^3
#
#
#
# Elastic Constant Matrix: (Units=GPa)
#
#
# Indices 1 2 3 4 5 6 
#
# 1 71.3308 11.2050 15.2019 0.0000 0.0000 0.0000
# 2 11.2050 96.2174 26.3002 0.0000 0.0000 0.0000
# 3 15.2019 26.3002 108.3604 0.0000 0.0000 0.0000
# 4 0.0000 0.0000 0.0000 13.9370 0.0000 0.0000
# 5 0.0000 0.0000 0.0000 0.0000 54.7565 0.0000
# 6 0.0000 0.0000 0.0000 0.0000 0.0000 37.7493
#
#
#
# Elastic Compliance Matrix: (Units=1/GPa)
#
#
# Indices 1 2 3 4 5 6 
#
# 1 0.014584 -0.001220 -0.001750 0.000000 0.000000 0.000000
# 2 -0.001220 0.011234 -0.002555 0.000000 0.000000 0.000000
# 3 -0.001750 -0.002555 0.010094 0.000000 0.000000 0.000000
# 4 0.000000 0.000000 0.000000 0.071752 0.000000 0.000000
# 5 0.000000 0.000000 0.000000 0.000000 0.018263 0.000000
# 6 0.000000 0.000000 0.000000 0.000000 0.000000 0.026491
#
#
# Mechanical properties :
#
#
# Convention : Reuss Voigt Hill
#
# Bulk Modulus (GPa) = 40.22348 42.36920 41.29634
# Shear Modulus (GPa) = 29.11141 36.16866 32.64003
#
# Velocity S-wave (km/s) = 3.83802 4.27800 4.06397
# Velocity P-wave (km/s) = 6.32405 6.77057 6.55111
#
# Compressibility (1/GPa) = 0.02486110
#
# Stress axis : x y z
#
# Youngs Moduli (GPa) = 68.56935 89.01784 99.06710
#
# Poissons Ratio (x) = 0.10861 0.17335
# Poissons Ratio (y) = 0.08366 0.25315
# Poissons Ratio (z) = 0.11999 0.22747
#
# Static dielectric constant tensor:
#      x y z
#    x 1.681840 0.000000 0.000000 
#    y 0.000000 1.691190 0.000000 
#    z 0.000000 0.000000 1.748390 
# 
# From -- ./inp_files/68969.got.cif
#   From: 2010.05.17/outbox.cif.g08.bks.cpg/sg65_35_cif.got.tgz:68969.got - 2010.06.03 17:01:31.
