data_PCOD9493288
_publ_section_title
;
Structure prediction by ZEFSAII (Michael W. Deem and Ramdas Pophale) SiO2 
 PCOD9493288
Probable space group: C M M M
;
_chemical_formula_sum "Si O2"
_cell_formula_units_Z 84
_cell_length_a 21.085775
_cell_length_b 14.429813
_cell_length_c 15.063408
_cell_angle_alpha 90.000000
_cell_angle_beta 90.000000
_cell_angle_gamma 90.000000
_cell_volume 4583.249612
_symmetry_space_group_name_H-M "C M M M"
_symmetry_group_IT_number 65
_symmetry_cell_setting 'orthorhombic'
loop_
_space_group_symop_operation_xyz
x,y,z
-x,-y,z
x,-y,-z
-x,y,-z
-x,-y,-z
x,y,-z
-x,y,z
x,-y,z
1/2+x,1/2+y,z
1/2-x,1/2-y,z
1/2+x,1/2-y,-z
1/2-x,1/2+y,-z
1/2-x,1/2-y,-z
1/2+x,1/2+y,-z
1/2-x,1/2+y,z
1/2+x,1/2-y,z
loop_
_atom_site_type_symbol
_atom_site_label
_atom_site_fract_x
_atom_site_fract_y
_atom_site_fract_z
Si Si1 0.666640 0.150887 0.898938
Si Si2 0.073081 0.605115 0.741705
Si Si3 0.155191 0.701509 0.397896
Si Si4 0.288248 0.606918 0.651934
Si Si5 0.691165 0.366424 0.859375
Si Si6 0.862399 0.000000 0.000000
O O1 0.617928 0.112021 0.827617
O O2 0.677796 0.258291 0.873915
O O3 0.737513 0.109736 0.892044
O O4 0.644538 0.141096 0.000000
O O5 0.078001 0.500000 0.706661
O O6 0.098536 0.674763 0.667214
O O7 0.000000 0.623304 0.764746
O O8 0.144600 0.675558 0.500000
O O9 0.216150 0.643752 0.361191
O O10 0.171552 0.810913 0.393442
O O11 0.294090 0.500000 0.621319
O O12 0.307658 0.611002 0.755434
O O13 0.643304 0.420869 0.921557
#
# Coordination Sequence:
#
# PCOD9493288 Si02
#       6
#    16  16  16  16  16   4
#     4  11  20  35  55  79 118 152 185 230 280 339
#     4  11  25  41  58  81 110 151 201 240 281 340
#     4  11  23  39  59  85 118 150 188 238 292 347
#     4  11  20  34  60  90 121 150 179 225 293 353
#     4  11  19  31  52  87 119 151 182 222 277 344
#     4  12  20  26  52 100 114 142 200 216 272 358
#
# _framework density 18.327607
#
# number of rings (size 3 to 8) (size 9 to 14) (size 15 to 20)
#    0.000    0.952    6.667    3.429    1.333    3.810 
#    0.000    1.905    0.000    0.571    0.000    2.000 
#    0.000    0.000    0.000    0.000    0.000    0.000 
#
# Total GULP energy -233928.015771 kJ/mol
# GULP energy per Si atom -5569.714661 kJ/mol
# Density = 1.828589 g / cm^3
# Si number density = 18.327607 Si / 1000 Ang^3
#
#
#
# Elastic Constant Matrix: (Units=GPa)
#
#
# Indices 1 2 3 4 5 6 
#
# 1 47.2560 10.6063 11.2031 0.0000 0.0000 0.0000
# 2 10.6063 106.6293 2.6111 0.0000 0.0000 0.0000
# 3 11.2031 2.6111 114.5190 0.0000 0.0000 0.0000
# 4 0.0000 0.0000 0.0000 -76.8193 0.0000 0.0000
# 5 0.0000 0.0000 0.0000 0.0000 0.9174 0.0000
# 6 0.0000 0.0000 0.0000 0.0000 0.0000 23.2153
#
#
#
# Elastic Compliance Matrix: (Units=1/GPa)
#
#
# Indices 1 2 3 4 5 6 
#
# 1 0.022146 -0.002151 -0.002117 0.000000 0.000000 0.000000
# 2 -0.002151 0.009592 -0.000008 0.000000 0.000000 0.000000
# 3 -0.002117 -0.000008 0.008940 0.000000 0.000000 0.000000
# 4 0.000000 0.000000 0.000000 -0.013018 0.000000 0.000000
# 5 0.000000 0.000000 0.000000 0.000000 1.090016 0.000000
# 6 0.000000 0.000000 0.000000 0.000000 0.000000 0.043075
#
#
# Mechanical properties :
#
#
# Convention : Reuss Voigt Hill
#
# Bulk Modulus (GPa) = 31.12881 35.24948 33.18915
# Shear Modulus (GPa) = 4.23724 5.72826 4.98275
#
# Velocity S-wave (km/s) = 1.52216 1.76982 1.65064
# Velocity P-wave (km/s) = 4.48451 4.84263 4.66701
#
# Compressibility (1/GPa) = 0.03212458
#
# Stress axis : x y z
#
# Youngs Moduli (GPa) = 45.15462 104.24874 111.86290
#
# Poissons Ratio (x) = 0.22424 0.23687
# Poissons Ratio (y) = 0.09713 0.00093
# Poissons Ratio (z) = 0.09561 0.00086
#
# Static dielectric constant tensor:
#      x y z
#    x 1.618030 0.000000 0.000000 
#    y 0.000000 1.692220 0.000000 
#    z 0.000000 0.000000 1.627300 
# 
# From -- ./inp_files/43967.got.cif
#   From: 2010.05.17/outbox.cif.g08.bks.cpg/sg65_22_cif.got.tgz:43967.got - 2010.06.03 17:01:31.
