data_PCOD9493528
_publ_section_title
;
Structure prediction by ZEFSAII (Michael W. Deem and Ramdas Pophale) SiO2 
 PCOD9493528
Probable space group: C M M M
;
_chemical_formula_sum "Si O2"
_cell_formula_units_Z 72
_cell_length_a 23.099783
_cell_length_b 19.423000
_cell_length_c 8.720670
_cell_angle_alpha 90.000000
_cell_angle_beta 90.000000
_cell_angle_gamma 90.000000
_cell_volume 3912.677590
_symmetry_space_group_name_H-M "C M M M"
_symmetry_group_IT_number 65
_symmetry_cell_setting 'orthorhombic'
loop_
_space_group_symop_operation_xyz
x,y,z
-x,-y,z
x,-y,-z
-x,y,-z
-x,-y,-z
x,y,-z
-x,y,z
x,-y,z
1/2+x,1/2+y,z
1/2-x,1/2-y,z
1/2+x,1/2-y,-z
1/2-x,1/2+y,-z
1/2-x,1/2-y,-z
1/2+x,1/2+y,-z
1/2-x,1/2+y,z
1/2+x,1/2-y,z
loop_
_atom_site_type_symbol
_atom_site_label
_atom_site_fract_x
_atom_site_fract_y
_atom_site_fract_z
Si Si1 0.567875 0.821120 0.816774
Si Si2 0.336732 0.919704 0.683871
Si Si3 0.500000 0.578796 0.686703
Si Si4 0.266746 0.328836 0.183779
Si Si5 0.392889 0.325751 0.315605
O O1 0.500000 0.830655 0.783320
O O2 0.607004 0.882127 0.751447
O O3 0.589215 0.749664 0.743416
O O4 0.575583 0.816865 0.000000
O O5 0.337525 0.914187 0.500000
O O6 0.281062 0.879515 0.747664
O O7 0.335033 0.000000 0.726123
O O8 0.500000 0.500000 0.739972
O O9 0.500000 0.577883 0.500000
O O10 0.442807 0.620768 0.733277
O O11 0.250000 0.250000 0.224656
O O12 0.330327 0.343725 0.248543
O O13 0.266767 0.333904 0.000000
O O14 0.390157 0.324986 0.500000
#
# Coordination Sequence:
#
# PCOD9493528 Si02
#       5
#    16  16   8  16  16
#     4  11  23  39  62  91 124 162 204 250 304 370
#     4  11  25  43  64  92 124 159 204 257 308 361
#     4   9  20  38  59  89 126 159 196 247 305 358
#     4  11  23  39  62  92 124 162 204 249 305 367
#     4  11  21  36  63  93 121 160 208 256 303 356
#
# _framework density 18.401721999999999
#
# number of rings (size 3 to 8) (size 9 to 14) (size 15 to 20)
#    0.000    1.222    3.333    2.667    0.000    5.333 
#    0.000    4.444    0.000    4.667    0.000    0.000 
#    0.000    0.000    0.000    0.000    0.000    0.000 
#
# Total GULP energy -201297.406706 kJ/mol
# GULP energy per Si atom -5591.594631 kJ/mol
# Density = 1.835984 g / cm^3
# Si number density = 18.401722 Si / 1000 Ang^3
#
#
#
# Elastic Constant Matrix: (Units=GPa)
#
#
# Indices 1 2 3 4 5 6 
#
# 1 134.6262 59.6203 40.2266 0.0000 0.0000 0.0000
# 2 59.6203 136.7225 38.0455 0.0000 0.0000 0.0000
# 3 40.2266 38.0455 44.6775 0.0000 0.0000 0.0000
# 4 0.0000 0.0000 0.0000 -3.1211 0.0000 0.0000
# 5 0.0000 0.0000 0.0000 0.0000 32.8084 0.0000
# 6 0.0000 0.0000 0.0000 0.0000 0.0000 34.1517
#
#
#
# Elastic Compliance Matrix: (Units=1/GPa)
#
#
# Indices 1 2 3 4 5 6 
#
# 1 0.010841 -0.002636 -0.007517 0.000000 0.000000 0.000000
# 2 -0.002636 0.010226 -0.006335 0.000000 0.000000 0.000000
# 3 -0.007517 -0.006335 0.034545 0.000000 0.000000 0.000000
# 4 0.000000 0.000000 0.000000 -0.320402 0.000000 0.000000
# 5 0.000000 0.000000 0.000000 0.000000 0.030480 0.000000
# 6 0.000000 0.000000 0.000000 0.000000 0.000000 0.029281
#
#
# Mechanical properties :
#
#
# Convention : Reuss Voigt Hill
#
# Bulk Modulus (GPa) = 44.17432 65.75679 54.96555
# Shear Modulus (GPa) = -30.39388 24.64338 -2.87525
#
# Velocity S-wave (km/s) = -4.06850 3.66346 -1.25135
# Velocity P-wave (km/s) = 1.40974 7.32845 5.27701
#
# Compressibility (1/GPa) = 0.02263759
#
# Stress axis : x y z
#
# Youngs Moduli (GPa) = 92.24002 97.78650 28.94773
#
# Poissons Ratio (x) = 0.25776 0.21759
# Poissons Ratio (y) = 0.24314 0.18338
# Poissons Ratio (z) = 0.69333 0.61948
#
# Static dielectric constant tensor:
#      x y z
#    x 1.609960 0.000000 0.000000 
#    y 0.000000 1.604100 0.000000 
#    z 0.000000 0.000000 1.619480 
# 
# From -- ./inp_files/11271.got.cif
#   From: 2010.05.17/outbox.cif.g08.bks.cpg/sg65_6_cif.got.tgz:11271.got - 2010.06.03 17:01:31.
