data_PCOD9493823
_publ_section_title
;
Structure prediction by ZEFSAII (Michael W. Deem and Ramdas Pophale) SiO2 
 PCOD9493823
Probable space group: C M M M
;
_chemical_formula_sum "Si O2"
_cell_formula_units_Z 64
_cell_length_a 8.681093
_cell_length_b 15.076993
_cell_length_c 26.850512
_cell_angle_alpha 90.000000
_cell_angle_beta 90.000000
_cell_angle_gamma 90.000000
_cell_volume 3514.323313
_symmetry_space_group_name_H-M "C M M M"
_symmetry_group_IT_number 65
_symmetry_cell_setting 'orthorhombic'
loop_
_space_group_symop_operation_xyz
x,y,z
-x,-y,z
x,-y,-z
-x,y,-z
-x,-y,-z
x,y,-z
-x,y,z
x,-y,z
1/2+x,1/2+y,z
1/2-x,1/2-y,z
1/2+x,1/2-y,-z
1/2-x,1/2+y,-z
1/2-x,1/2-y,-z
1/2+x,1/2+y,-z
1/2-x,1/2+y,z
1/2+x,1/2-y,z
loop_
_atom_site_type_symbol
_atom_site_label
_atom_site_fract_x
_atom_site_fract_y
_atom_site_fract_z
Si Si1 0.316681 0.844138 0.606317
Si Si2 0.185259 0.000000 0.673412
Si Si3 0.187536 0.000000 0.056876
Si Si4 0.822699 0.106664 0.500000
Si Si5 0.687255 0.500000 0.787983
Si Si6 0.686255 0.349885 0.865368
O O1 0.500000 0.845805 0.607556
O O2 0.250000 0.750000 0.621638
O O3 0.247977 0.916543 0.643218
O O4 0.260140 0.862528 0.550056
O O5 0.236931 0.000000 0.730833
O O6 0.000000 0.000000 0.672091
O O7 0.232859 0.911445 0.087381
O O8 0.000000 0.000000 0.056745
O O9 0.241298 0.000000 0.000000
O O10 0.000000 0.138380 0.500000
O O11 0.823926 0.000000 0.500000
O O12 0.500000 0.500000 0.788731
O O13 0.734019 0.411365 0.818197
O O14 0.500000 0.344514 0.865226
O O15 0.750000 0.250000 0.865444
#
# Coordination Sequence:
#
# PCOD9493823 Si02
#       6
#    16   8   8   8   8  16
#     4  12  25  41  61  86 116 148 184 224 273 329
#     4  11  22  40  61  83 111 142 182 231 282 330
#     4   8  15  29  49  73 106 147 184 216 261 325
#     4  11  22  39  64  88 115 149 183 221 272 326
#     4   8  18  36  56  75 103 142 178 219 270 329
#     4   9  17  32  53  77 104 139 182 223 268 319
#
# _framework density 18.211186999999999
#
# number of rings (size 3 to 8) (size 9 to 14) (size 15 to 20)
#    0.000    2.000    1.250    4.875    0.000    2.000 
#    0.000    7.500    0.000    0.750    0.000    0.000 
#    0.000    0.000    0.000    0.000    0.000    0.000 
#
# Total GULP energy -178628.971499 kJ/mol
# GULP energy per Si atom -5582.155359 kJ/mol
# Density = 1.816974 g / cm^3
# Si number density = 18.211187 Si / 1000 Ang^3
#
#
#
# Elastic Constant Matrix: (Units=GPa)
#
#
# Indices 1 2 3 4 5 6 
#
# 1 85.1294 48.5256 48.7738 0.0000 0.0000 0.0000
# 2 48.5256 202.1294 107.5863 0.0000 0.0000 0.0000
# 3 48.7738 107.5863 186.5850 0.0000 0.0000 0.0000
# 4 0.0000 0.0000 0.0000 30.9973 0.0000 0.0000
# 5 0.0000 0.0000 0.0000 0.0000 -0.1297 0.0000
# 6 0.0000 0.0000 0.0000 0.0000 0.0000 36.7223
#
#
#
# Elastic Compliance Matrix: (Units=1/GPa)
#
#
# Indices 1 2 3 4 5 6 
#
# 1 0.014407 -0.002098 -0.002556 0.000000 0.000000 0.000000
# 2 -0.002098 0.007444 -0.003744 0.000000 0.000000 0.000000
# 3 -0.002556 -0.003744 0.008186 0.000000 0.000000 0.000000
# 4 0.000000 0.000000 0.000000 0.032261 0.000000 0.000000
# 5 0.000000 0.000000 0.000000 0.000000 -7.708654 0.000000
# 6 0.000000 0.000000 0.000000 0.000000 0.000000 0.027231
#
#
# Mechanical properties :
#
#
# Convention : Reuss Voigt Hill
#
# Bulk Modulus (GPa) = 75.52190 98.17948 86.85069
# Shear Modulus (GPa) = -0.65808 31.44852 15.39522
#
# Velocity S-wave (km/s) = -0.60178 4.16008 2.91068
# Velocity P-wave (km/s) = 6.40915 8.78087 7.68703
#
# Compressibility (1/GPa) = 0.01324119
#
# Stress axis : x y z
#
# Youngs Moduli (GPa) = 69.40860 134.34329 122.15550
#
# Poissons Ratio (x) = 0.28188 0.31227
# Poissons Ratio (y) = 0.14563 0.45730
# Poissons Ratio (z) = 0.17743 0.50292
#
# Static dielectric constant tensor:
#      x y z
#    x 1.613750 0.000000 0.000000 
#    y 0.000000 1.605610 0.000000 
#    z 0.000000 0.000000 1.621700 
# 
# From -- ./inp_files/66892.got.cif
#   From: 2010.05.17/outbox.cif.g08.bks.cpg/sg65_34_cif.got.tgz:66892.got - 2010.06.03 17:01:31.
