data_PCOD9493162
_publ_section_title
;
Structure prediction by ZEFSAII (Michael W. Deem and Ramdas Pophale) SiO2 
 PCOD9493162
Probable space group: C M M M
;
_chemical_formula_sum "Si O2"
_cell_formula_units_Z 56
_cell_length_a 24.428113
_cell_length_b 10.884835
_cell_length_c 11.698455
_cell_angle_alpha 90.000000
_cell_angle_beta 90.000000
_cell_angle_gamma 90.000000
_cell_volume 3110.572149
_symmetry_space_group_name_H-M "C M M M"
_symmetry_group_IT_number 65
_symmetry_cell_setting 'orthorhombic'
loop_
_space_group_symop_operation_xyz
x,y,z
-x,-y,z
x,-y,-z
-x,y,-z
-x,-y,-z
x,y,-z
-x,y,z
x,-y,z
1/2+x,1/2+y,z
1/2-x,1/2-y,z
1/2+x,1/2-y,-z
1/2-x,1/2+y,-z
1/2-x,1/2-y,-z
1/2+x,1/2+y,-z
1/2-x,1/2+y,z
1/2+x,1/2-y,z
loop_
_atom_site_type_symbol
_atom_site_label
_atom_site_fract_x
_atom_site_fract_y
_atom_site_fract_z
Si Si1 0.000000 0.356304 0.372993
Si Si2 0.204587 0.642908 0.134967
Si Si3 0.934108 0.000000 0.636776
Si Si4 0.899665 0.755907 0.241079
Si Si5 0.934779 0.138779 0.000000
O O1 0.946577 0.321221 0.302492
O O2 0.000000 0.500000 0.387022
O O3 0.000000 0.296175 0.500000
O O4 0.221990 0.500000 0.154954
O O5 0.250000 0.750000 0.147265
O O6 0.156076 0.681363 0.221216
O O7 0.187474 0.647556 0.000000
O O8 0.902595 0.117751 0.687147
O O9 0.933496 0.000000 0.500000
O O10 0.000000 0.000000 0.672409
O O11 0.916972 0.793500 0.113723
O O12 0.000000 0.131283 0.000000
O O13 0.911993 0.000000 0.000000
#
# Coordination Sequence:
#
# PCOD9493162 Si02
#       5
#     8  16   8  16   8
#     4  11  24  40  59  84 118 166 210 249 306 367
#     4  10  23  41  62  91 126 163 204 251 311 378
#     4  11  22  37  61  93 127 166 210 251 298 363
#     4  12  21  37  60  90 124 158 201 253 308 367
#     4  11  20  32  51  90 129 158 190 240 307 372
#
# _framework density 18.003119000000002
#
# number of rings (size 3 to 8) (size 9 to 14) (size 15 to 20)
#    0.000    1.000    5.714    1.714    2.000    0.000 
#    0.000    0.714    0.000    3.429    0.000    0.000 
#    0.000    0.000    0.000    0.000    0.000    0.000 
#
# Total GULP energy -156123.695265 kJ/mol
# GULP energy per Si atom -5575.846259 kJ/mol
# Density = 1.796214 g / cm^3
# Si number density = 18.003119 Si / 1000 Ang^3
#
#
#
# Elastic Constant Matrix: (Units=GPa)
#
#
# Indices 1 2 3 4 5 6 
#
# 1 85.1335 58.7408 37.6618 0.0000 0.0000 0.0000
# 2 58.7408 148.7886 46.2442 0.0000 0.0000 0.0000
# 3 37.6618 46.2442 111.6974 0.0000 0.0000 0.0000
# 4 0.0000 0.0000 0.0000 30.4063 0.0000 0.0000
# 5 0.0000 0.0000 0.0000 0.0000 13.4692 0.0000
# 6 0.0000 0.0000 0.0000 0.0000 0.0000 30.9129
#
#
#
# Elastic Compliance Matrix: (Units=1/GPa)
#
#
# Indices 1 2 3 4 5 6 
#
# 1 0.017219 -0.005731 -0.003433 0.000000 0.000000 0.000000
# 2 -0.005731 0.009621 -0.002051 0.000000 0.000000 0.000000
# 3 -0.003433 -0.002051 0.010959 0.000000 0.000000 0.000000
# 4 0.000000 0.000000 0.000000 0.032888 0.000000 0.000000
# 5 0.000000 0.000000 0.000000 0.000000 0.074244 0.000000
# 6 0.000000 0.000000 0.000000 0.000000 0.000000 0.032349
#
#
# Mechanical properties :
#
#
# Convention : Reuss Voigt Hill
#
# Bulk Modulus (GPa) = 65.06374 70.10144 67.58259
# Shear Modulus (GPa) = 24.41005 28.48919 26.44962
#
# Velocity S-wave (km/s) = 3.68622 3.98233 3.83713
# Velocity P-wave (km/s) = 7.37132 7.75682 7.56653
#
# Compressibility (1/GPa) = 0.01536954
#
# Stress axis : x y z
#
# Youngs Moduli (GPa) = 58.07397 103.94016 91.24548
#
# Poissons Ratio (x) = 0.59568 0.31327
# Poissons Ratio (y) = 0.33282 0.18713
# Poissons Ratio (z) = 0.19938 0.21316
#
# Static dielectric constant tensor:
#      x y z
#    x 1.658970 0.000000 0.000000 
#    y 0.000000 1.665590 0.000000 
#    z 0.000000 0.000000 1.589320 
# 
# From -- ./inp_files/30073.got.cif
#   From: 2010.05.17/outbox.cif.g08.bks.cpg/sg65_16_cif.got.tgz:30073.got - 2010.06.03 17:01:31.
