data_PCOD9493561
_publ_section_title
;
Structure prediction by ZEFSAII (Michael W. Deem and Ramdas Pophale) SiO2 
 PCOD9493561
Probable space group: C M M M
;
_chemical_formula_sum "Si O2"
_cell_formula_units_Z 72
_cell_length_a 28.050302
_cell_length_b 10.269124
_cell_length_c 13.853651
_cell_angle_alpha 90.000000
_cell_angle_beta 90.000000
_cell_angle_gamma 90.000000
_cell_volume 3990.572286
_symmetry_space_group_name_H-M "C M M M"
_symmetry_group_IT_number 65
_symmetry_cell_setting 'orthorhombic'
loop_
_space_group_symop_operation_xyz
x,y,z
-x,-y,z
x,-y,-z
-x,y,-z
-x,-y,-z
x,y,-z
-x,y,z
x,-y,z
1/2+x,1/2+y,z
1/2-x,1/2-y,z
1/2+x,1/2-y,-z
1/2-x,1/2+y,-z
1/2-x,1/2-y,-z
1/2+x,1/2+y,-z
1/2-x,1/2+y,z
1/2+x,1/2-y,z
loop_
_atom_site_type_symbol
_atom_site_label
_atom_site_fract_x
_atom_site_fract_y
_atom_site_fract_z
Si Si1 0.097378 0.270733 0.500000
Si Si2 0.185577 0.000000 0.280645
Si Si3 0.945691 0.656737 0.294424
Si Si4 0.148988 0.270164 0.802180
Si Si5 0.674909 0.000000 0.500000
Si Si6 0.298090 0.159258 0.000000
Si Si7 0.793804 0.500000 0.705686
Si Si8 0.152375 0.000000 0.500000
O O1 0.068135 0.293675 0.401554
O O2 0.140074 0.375917 0.500000
O O3 0.119953 0.128503 0.500000
O O4 0.162142 0.872371 0.235061
O O5 0.241169 0.000000 0.252324
O O6 0.179804 0.000000 0.397111
O O7 0.942458 0.500000 0.297358
O O8 0.906793 0.706218 0.217645
O O9 0.000000 0.693525 0.271550
O O10 0.170161 0.302028 0.907160
O O11 0.176772 0.374000 0.736086
O O12 0.708006 0.000000 0.591828
O O13 0.250000 0.250000 0.000000
O O14 0.289057 0.000000 0.000000
#
# Coordination Sequence:
#
# PCOD9493561 Si02
#       8
#     8   8  16  16   4   8   8   4
#     4  12  19  37  57  91 123 169 210 272 314 373
#     4  12  25  39  62  91 133 181 210 257 328 389
#     4  11  21  39  67  93 122 168 219 271 329 381
#     4  12  24  43  63  93 132 163 218 272 317 385
#     4  12  19  34  63  82 128 160 225 252 313 378
#     4  12  26  44  71 101 130 168 217 272 328 382
#     4  12  21  39  60  89 123 173 212 261 314 385
#     4  12  23  38  57  90 140 170 215 256 323 392
#
# _framework density 18.042525999999999
#
# number of rings (size 3 to 8) (size 9 to 14) (size 15 to 20)
#    0.000    0.222    7.778    2.667    1.556    0.889 
#    0.000    6.667    0.000    2.000    0.000    1.556 
#    0.000    0.000    0.000    0.000    0.000    0.000 
#
# Total GULP energy -201140.005561 kJ/mol
# GULP energy per Si atom -5587.222377 kJ/mol
# Density = 1.800146 g / cm^3
# Si number density = 18.042526 Si / 1000 Ang^3
#
#
#
# Elastic Constant Matrix: (Units=GPa)
#
#
# Indices 1 2 3 4 5 6 
#
# 1 167.4401 61.3464 44.8796 0.0000 0.0000 0.0000
# 2 61.3464 156.8092 33.4077 0.0000 0.0000 0.0000
# 3 44.8796 33.4077 125.5488 0.0000 0.0000 0.0000
# 4 0.0000 0.0000 0.0000 -22.6614 0.0000 0.0000
# 5 0.0000 0.0000 0.0000 0.0000 15.3759 0.0000
# 6 0.0000 0.0000 0.0000 0.0000 0.0000 -5.1812
#
#
#
# Elastic Compliance Matrix: (Units=1/GPa)
#
#
# Indices 1 2 3 4 5 6 
#
# 1 0.007413 -0.002476 -0.001991 0.000000 0.000000 0.000000
# 2 -0.002476 0.007587 -0.001134 0.000000 0.000000 0.000000
# 3 -0.001991 -0.001134 0.008979 0.000000 0.000000 0.000000
# 4 0.000000 0.000000 0.000000 -0.044128 0.000000 0.000000
# 5 0.000000 0.000000 0.000000 0.000000 0.065037 0.000000
# 6 0.000000 0.000000 0.000000 0.000000 0.000000 -0.193005
#
#
# Mechanical properties :
#
#
# Convention : Reuss Voigt Hill
#
# Bulk Modulus (GPa) = 78.26488 81.00728 79.63608
# Shear Modulus (GPa) = -37.69153 18.18428 -9.75363
#
# Velocity S-wave (km/s) = -4.57556 3.17812 -2.32758
# Velocity P-wave (km/s) = 3.94435 7.64609 6.08361
#
# Compressibility (1/GPa) = 0.01277712
#
# Stress axis : x y z
#
# Youngs Moduli (GPa) = 134.89645 131.79795 111.37708
#
# Poissons Ratio (x) = 0.32632 0.22176
# Poissons Ratio (y) = 0.33399 0.12629
# Poissons Ratio (z) = 0.26859 0.14944
#
# Static dielectric constant tensor:
#      x y z
#    x 1.605870 0.000000 0.000000 
#    y 0.000000 1.592050 0.000000 
#    z 0.000000 0.000000 1.645230 
# 
# From -- ./inp_files/46630.got.cif
#   From: 2010.05.17/outbox.cif.g08.bks.cpg/sg65_24_cif.got.tgz:46630.got - 2010.06.03 17:01:31.
