data_PCOD9493879
_publ_section_title
;
Structure prediction by ZEFSAII (Michael W. Deem and Ramdas Pophale) SiO2 
 PCOD9493879
Probable space group: C M M M
;
_chemical_formula_sum "Si O2"
_cell_formula_units_Z 88
_cell_length_a 28.344811
_cell_length_b 7.665018
_cell_length_c 22.108831
_cell_angle_alpha 90.000000
_cell_angle_beta 90.000000
_cell_angle_gamma 90.000000
_cell_volume 4803.441706
_symmetry_space_group_name_H-M "C M M M"
_symmetry_group_IT_number 65
_symmetry_cell_setting 'orthorhombic'
loop_
_space_group_symop_operation_xyz
x,y,z
-x,-y,z
x,-y,-z
-x,y,-z
-x,-y,-z
x,y,-z
-x,y,z
x,-y,z
1/2+x,1/2+y,z
1/2-x,1/2-y,z
1/2+x,1/2-y,-z
1/2-x,1/2+y,-z
1/2-x,1/2-y,-z
1/2+x,1/2+y,-z
1/2-x,1/2+y,z
1/2+x,1/2-y,z
loop_
_atom_site_type_symbol
_atom_site_label
_atom_site_fract_x
_atom_site_fract_y
_atom_site_fract_z
Si Si1 0.303809 0.290959 0.312108
Si Si2 0.352603 0.286615 0.189136
Si Si3 0.897254 0.790885 0.625515
Si Si4 0.052698 0.786933 0.252511
Si Si5 0.053215 0.293956 0.500000
Si Si6 0.305173 0.709801 0.067074
O O1 0.307251 0.500000 0.310809
O O2 0.250000 0.250000 0.326907
O O3 0.318911 0.230174 0.244748
O O4 0.344392 0.227086 0.358267
O O5 0.351637 0.500000 0.188417
O O6 0.405580 0.233898 0.207228
O O7 0.334505 0.224238 0.124361
O O8 0.931105 0.730900 0.680272
O O9 0.918119 0.750811 0.560387
O O10 0.895884 0.000000 0.629841
O O11 0.000000 0.727084 0.238407
O O12 0.052171 0.000000 0.252404
O O13 0.048245 0.500000 0.500000
O O14 0.000000 0.216705 0.500000
O O15 0.310109 0.500000 0.066029
O O16 0.250000 0.750000 0.076293
O O17 0.318478 0.775587 0.000000
#
# Coordination Sequence:
#
# PCOD9493879 Si02
#       6
#    16  16  16  16   8  16
#     4   9  17  29  46  67  89 113 143 179 216 253
#     4   8  14  24  38  59  86 112 140 175 212 251
#     4   9  18  32  49  68  87 111 146 179 207 250
#     4   8  13  23  42  65  84 105 138 178 214 246
#     4  11  23  35  48  69  94 115 136 169 216 261
#     4   9  16  25  38  57  83 114 143 171 206 248
#
# _framework density 18.320197
#
# number of rings (size 3 to 8) (size 9 to 14) (size 15 to 20)
#    0.000    3.182    0.000    3.545    0.000    2.182 
#    0.000    0.455    0.000    1.636    0.000    3.818 
#    0.000    0.000    0.000    4.545    0.000    4.727 
#
# Total GULP energy -245189.353715 kJ/mol
# GULP energy per Si atom -5572.485312 kJ/mol
# Density = 1.827850 g / cm^3
# Si number density = 18.320197 Si / 1000 Ang^3
#
#
#
# Elastic Constant Matrix: (Units=GPa)
#
#
# Indices 1 2 3 4 5 6 
#
# 1 163.3374 4.1292 105.2013 0.0000 0.0000 0.0000
# 2 4.1292 31.2735 5.9877 0.0000 0.0000 0.0000
# 3 105.2013 5.9877 175.8035 0.0000 0.0000 0.0000
# 4 0.0000 0.0000 0.0000 -5.6969 0.0000 0.0000
# 5 0.0000 0.0000 0.0000 0.0000 22.0003 0.0000
# 6 0.0000 0.0000 0.0000 0.0000 0.0000 13.7583
#
#
#
# Elastic Compliance Matrix: (Units=1/GPa)
#
#
# Indices 1 2 3 4 5 6 
#
# 1 0.009963 -0.000175 -0.005956 0.000000 0.000000 0.000000
# 2 -0.000175 0.032189 -0.000992 0.000000 0.000000 0.000000
# 3 -0.005956 -0.000992 0.009286 0.000000 0.000000 0.000000
# 4 0.000000 0.000000 0.000000 -0.175535 0.000000 0.000000
# 5 0.000000 0.000000 0.000000 0.000000 0.045454 0.000000
# 6 0.000000 0.000000 0.000000 0.000000 0.000000 0.072684
#
#
# Mechanical properties :
#
#
# Convention : Reuss Voigt Hill
#
# Bulk Modulus (GPa) = 26.88699 66.78340 46.83520
# Shear Modulus (GPa) = 241.75078 23.01875 132.38477
#
# Velocity S-wave (km/s) = 11.49979 3.54852 8.50991
# Velocity P-wave (km/s) = 13.82153 7.30218 11.05343
#
# Compressibility (1/GPa) = 0.03719271
#
# Stress axis : x y z
#
# Youngs Moduli (GPa) = 100.37501 31.06659 107.69072
#
# Poissons Ratio (x) = 0.00544 0.64137
# Poissons Ratio (y) = 0.01758 0.10678
# Poissons Ratio (z) = 0.59780 0.03080
#
# Static dielectric constant tensor:
#      x y z
#    x 1.639760 0.000000 0.000000 
#    y 0.000000 1.694750 0.000000 
#    z 0.000000 0.000000 1.640640 
# 
# From -- ./inp_files/60665.got.cif
#   From: 2010.05.17/outbox.cif.g08.bks.cpg/sg65_31_cif.got.tgz:60665.got - 2010.06.03 17:01:31.
