data_PCOD9493176
_publ_section_title
;
Structure prediction by ZEFSAII (Michael W. Deem and Ramdas Pophale) SiO2 
 PCOD9493176
Probable space group: C M M M
;
_chemical_formula_sum "Si O2"
_cell_formula_units_Z 68
_cell_length_a 22.137321
_cell_length_b 17.473805
_cell_length_c 9.363040
_cell_angle_alpha 90.000000
_cell_angle_beta 90.000000
_cell_angle_gamma 90.000000
_cell_volume 3621.841379
_symmetry_space_group_name_H-M "C M M M"
_symmetry_group_IT_number 65
_symmetry_cell_setting 'orthorhombic'
loop_
_space_group_symop_operation_xyz
x,y,z
-x,-y,z
x,-y,-z
-x,y,-z
-x,-y,-z
x,y,-z
-x,y,z
x,-y,z
1/2+x,1/2+y,z
1/2-x,1/2-y,z
1/2+x,1/2-y,-z
1/2-x,1/2+y,-z
1/2-x,1/2-y,-z
1/2+x,1/2+y,-z
1/2-x,1/2+y,z
1/2+x,1/2-y,z
loop_
_atom_site_type_symbol
_atom_site_label
_atom_site_fract_x
_atom_site_fract_y
_atom_site_fract_z
Si Si1 0.000000 0.500000 0.000000
Si Si2 0.881985 0.708978 0.669839
Si Si3 0.842520 0.139745 0.835423
Si Si4 0.000000 0.000000 0.500000
Si Si5 0.225511 0.411974 0.333737
Si Si6 0.567400 0.500000 0.207600
Si Si7 0.000000 0.341628 0.158703
O O1 0.000000 0.568440 0.122010
O O2 0.892675 0.716998 0.500000
O O3 0.861437 0.788680 0.738738
O O4 0.829047 0.646612 0.690636
O O5 0.941429 0.681776 0.752367
O O6 0.781010 0.106016 0.769657
O O7 0.893704 0.074436 0.829825
O O8 0.833753 0.163167 0.000000
O O9 0.052244 0.000000 0.375232
O O10 0.244897 0.403142 0.500000
O O11 0.205912 0.500000 0.314203
O O12 0.500000 0.500000 0.144397
O O13 0.000000 0.303371 0.000000
#
# Coordination Sequence:
#
# PCOD9493176 Si02
#       7
#     2  16  16   2  16   8   8
#     4   8  24  44  70  92 132 170 218 260 330 376
#     4  11  25  43  67  98 132 172 220 274 328 384
#     4  12  25  42  65  97 134 174 217 269 329 393
#     4   8  24  40  66 100 116 176 208 262 324 368
#     4  10  23  42  67  94 128 171 220 270 325 388
#     4  10  25  42  67  95 131 170 223 266 327 394
#     4  10  23  44  68  99 129 173 210 269 326 389
#
# _framework density 18.774981
#
# number of rings (size 3 to 8) (size 9 to 14) (size 15 to 20)
#    0.706    0.706    1.176    2.824    6.588    5.647 
#    0.000    0.588    0.000    0.000    0.000    0.000 
#    0.000    0.000    0.000    0.000    0.000    0.000 
#
# Total GULP energy -189311.105672 kJ/mol
# GULP energy per Si atom -5567.973696 kJ/mol
# Density = 1.873225 g / cm^3
# Si number density = 18.774981 Si / 1000 Ang^3
#
#
#
# Elastic Constant Matrix: (Units=GPa)
#
#
# Indices 1 2 3 4 5 6 
#
# 1 121.1452 56.7933 76.6312 0.0000 0.0000 0.0000
# 2 56.7933 142.5085 63.9330 0.0000 0.0000 0.0000
# 3 76.6312 63.9330 157.4920 0.0000 0.0000 0.0000
# 4 0.0000 0.0000 0.0000 9.0668 0.0000 0.0000
# 5 0.0000 0.0000 0.0000 0.0000 118.4302 0.0000
# 6 0.0000 0.0000 0.0000 0.0000 0.0000 22.1669
#
#
#
# Elastic Compliance Matrix: (Units=1/GPa)
#
#
# Indices 1 2 3 4 5 6 
#
# 1 0.012788 -0.002818 -0.005078 0.000000 0.000000 0.000000
# 2 -0.002818 0.009201 -0.002364 0.000000 0.000000 0.000000
# 3 -0.005078 -0.002364 0.009780 0.000000 0.000000 0.000000
# 4 0.000000 0.000000 0.000000 0.110292 0.000000 0.000000
# 5 0.000000 0.000000 0.000000 0.000000 0.008444 0.000000
# 6 0.000000 0.000000 0.000000 0.000000 0.000000 0.045112
#
#
# Mechanical properties :
#
#
# Convention : Reuss Voigt Hill
#
# Bulk Modulus (GPa) = 88.90143 90.65119 89.77631
# Shear Modulus (GPa) = 22.73900 44.85199 33.79549
#
# Velocity S-wave (km/s) = 3.48391 4.89296 4.24728
# Velocity P-wave (km/s) = 7.97730 8.96154 8.48371
#
# Compressibility (1/GPa) = 0.01124841
#
# Stress axis : x y z
#
# Youngs Moduli (GPa) = 78.19828 108.68802 102.24917
#
# Poissons Ratio (x) = 0.30629 0.51925
# Poissons Ratio (y) = 0.22037 0.24169
# Poissons Ratio (z) = 0.39711 0.25691
#
# Static dielectric constant tensor:
#      x y z
#    x 1.621150 0.000000 0.000000 
#    y 0.000000 1.633420 0.000000 
#    z 0.000000 0.000000 1.639770 
# 
# From -- ./inp_files/11017.got.cif
#   From: 2010.05.17/outbox.cif.g08.bks.cpg/sg65_6_cif.got.tgz:11017.got - 2010.06.03 17:01:31.
