data_PCOD9493158
_publ_section_title
;
Structure prediction by ZEFSAII (Michael W. Deem and Ramdas Pophale) SiO2 
 PCOD9493158
Probable space group: C M M M
;
_chemical_formula_sum "Si O2"
_cell_formula_units_Z 64
_cell_length_a 8.878984
_cell_length_b 15.522689
_cell_length_c 24.431902
_cell_angle_alpha 90.000000
_cell_angle_beta 90.000000
_cell_angle_gamma 90.000000
_cell_volume 3367.344173
_symmetry_space_group_name_H-M "C M M M"
_symmetry_group_IT_number 65
_symmetry_cell_setting 'orthorhombic'
loop_
_space_group_symop_operation_xyz
x,y,z
-x,-y,z
x,-y,-z
-x,y,-z
-x,-y,-z
x,y,-z
-x,y,z
x,-y,z
1/2+x,1/2+y,z
1/2-x,1/2-y,z
1/2+x,1/2-y,-z
1/2-x,1/2+y,-z
1/2-x,1/2-y,-z
1/2+x,1/2+y,-z
1/2-x,1/2+y,z
1/2+x,1/2-y,z
loop_
_atom_site_type_symbol
_atom_site_label
_atom_site_fract_x
_atom_site_fract_y
_atom_site_fract_z
Si Si1 0.672447 0.100951 0.387876
Si Si2 0.181340 0.500000 0.917050
Si Si3 0.181134 0.000000 0.202961
Si Si4 0.819962 0.162471 0.722555
Si Si5 0.820127 0.844827 0.500000
Si Si6 0.317602 0.152311 0.000000
O O1 0.500000 0.132159 0.393696
O O2 0.754537 0.147547 0.338069
O O3 0.758422 0.111843 0.444923
O O4 0.669121 0.000000 0.374345
O O5 0.245345 0.500000 0.856317
O O6 0.225270 0.588460 0.949205
O O7 0.000000 0.500000 0.916552
O O8 0.223049 0.916730 0.238648
O O9 0.000000 0.000000 0.196988
O O10 0.750000 0.250000 0.744807
O O11 0.000000 0.167452 0.719536
O O12 0.750000 0.750000 0.500000
O O13 0.000000 0.843243 0.500000
O O14 0.250000 0.250000 0.000000
O O15 0.500000 0.161052 0.000000
#
# Coordination Sequence:
#
# PCOD9493158 Si02
#       6
#    16   8   8  16   8   8
#     4  11  23  40  62  87 115 149 193 244 300 364
#     4   9  20  38  60  86 123 163 203 246 297 353
#     4  10  23  41  61  87 123 160 203 252 298 352
#     4  11  23  41  62  87 119 157 201 249 302 361
#     4  12  25  40  59  83 115 151 191 241 300 363
#     4   9  19  37  60  90 124 163 203 247 296 350
#
# _framework density 19.006074999999999
#
# number of rings (size 3 to 8) (size 9 to 14) (size 15 to 20)
#    0.000    1.500    1.250    4.500    0.000    7.000 
#    0.000    6.250    0.000    0.000    0.000    0.000 
#    0.000    0.000    0.000    0.000    0.000    0.000 
#
# Total GULP energy -178755.560173 kJ/mol
# GULP energy per Si atom -5586.111255 kJ/mol
# Density = 1.896282 g / cm^3
# Si number density = 19.006075 Si / 1000 Ang^3
#
#
#
# Elastic Constant Matrix: (Units=GPa)
#
#
# Indices 1 2 3 4 5 6 
#
# 1 93.7464 56.4527 56.9966 0.0000 0.0000 0.0000
# 2 56.4527 167.1851 72.5570 0.0000 0.0000 0.0000
# 3 56.9966 72.5570 146.8333 0.0000 0.0000 0.0000
# 4 0.0000 0.0000 0.0000 -165.2993 0.0000 0.0000
# 5 0.0000 0.0000 0.0000 0.0000 37.1603 0.0000
# 6 0.0000 0.0000 0.0000 0.0000 0.0000 34.4434
#
#
#
# Elastic Compliance Matrix: (Units=1/GPa)
#
#
# Indices 1 2 3 4 5 6 
#
# 1 0.015260 -0.003287 -0.004299 0.000000 0.000000 0.000000
# 2 -0.003287 0.008322 -0.002837 0.000000 0.000000 0.000000
# 3 -0.004299 -0.002837 0.009881 0.000000 0.000000 0.000000
# 4 0.000000 0.000000 0.000000 -0.006050 0.000000 0.000000
# 5 0.000000 0.000000 0.000000 0.000000 0.026910 0.000000
# 6 0.000000 0.000000 0.000000 0.000000 0.000000 0.029033
#
#
# Mechanical properties :
#
#
# Convention : Reuss Voigt Hill
#
# Bulk Modulus (GPa) = 79.25252 86.64194 82.94723
# Shear Modulus (GPa) = 46.12137 -3.95522 21.08307
#
# Velocity S-wave (km/s) = 4.93146 -1.44414 3.33420
# Velocity P-wave (km/s) = 8.61480 6.55017 7.65243
#
# Compressibility (1/GPa) = 0.01261790
#
# Stress axis : x y z
#
# Youngs Moduli (GPa) = 65.52879 120.15859 101.20425
#
# Poissons Ratio (x) = 0.39496 0.43512
# Poissons Ratio (y) = 0.21539 0.28707
# Poissons Ratio (z) = 0.28174 0.34083
#
# Static dielectric constant tensor:
#      x y z
#    x 1.647820 0.000000 0.000000 
#    y 0.000000 1.688050 0.000000 
#    z 0.000000 0.000000 1.644980 
# 
# From -- ./inp_files/66895.got.cif
#   From: 2010.05.17/outbox.cif.g08.bks.cpg/sg65_34_cif.got.tgz:66895.got - 2010.06.03 17:01:31.
