data_PCOD9493181
_publ_section_title
;
Structure prediction by ZEFSAII (Michael W. Deem and Ramdas Pophale) SiO2 
 PCOD9493181
Probable space group: C M M M
;
_chemical_formula_sum "Si O2"
_cell_formula_units_Z 76
_cell_length_a 16.371600
_cell_length_b 21.832163
_cell_length_c 10.874987
_cell_angle_alpha 90.000000
_cell_angle_beta 90.000000
_cell_angle_gamma 90.000000
_cell_volume 3887.018761
_symmetry_space_group_name_H-M "C M M M"
_symmetry_group_IT_number 65
_symmetry_cell_setting 'orthorhombic'
loop_
_space_group_symop_operation_xyz
x,y,z
-x,-y,z
x,-y,-z
-x,y,-z
-x,-y,-z
x,y,-z
-x,y,z
x,-y,z
1/2+x,1/2+y,z
1/2-x,1/2-y,z
1/2+x,1/2-y,-z
1/2-x,1/2+y,-z
1/2-x,1/2-y,-z
1/2+x,1/2+y,-z
1/2-x,1/2+y,z
1/2+x,1/2-y,z
loop_
_atom_site_type_symbol
_atom_site_label
_atom_site_fract_x
_atom_site_fract_y
_atom_site_fract_z
Si Si1 0.650834 0.593203 0.357939
Si Si2 0.401143 0.265777 0.363716
Si Si3 0.097851 0.317578 0.135755
Si Si4 0.321253 0.070826 0.245568
Si Si5 0.408181 0.925801 0.500000
Si Si6 0.000000 0.000000 0.322288
O O1 0.674496 0.579122 0.500000
O O2 0.630674 0.665056 0.351026
O O3 0.725038 0.576862 0.268769
O O4 0.571511 0.553154 0.329198
O O5 0.376332 0.242445 0.500000
O O6 0.500000 0.267744 0.361671
O O7 0.374323 0.225099 0.248496
O O8 0.143355 0.382087 0.148091
O O9 0.000000 0.327055 0.148364
O O10 0.112351 0.290612 0.000000
O O11 0.362915 0.090391 0.374940
O O12 0.341849 0.000000 0.220541
O O13 0.500000 0.900529 0.500000
O O14 0.412147 0.000000 0.500000
#
# Coordination Sequence:
#
# PCOD9493181 Si02
#       6
#    16  16  16  16   8   4
#     4  11  20  34  57  95 132 164 201 249 306 371
#     4   9  19  36  60  90 123 159 205 255 304 362
#     4  10  23  43  64  86 116 162 212 255 312 373
#     4  11  22  35  56  89 125 156 199 256 306 360
#     4   9  18  32  50  77 118 158 192 233 299 360
#     4  12  21  32  64  96 137 176 195 238 317 378
#
# _framework density 19.552258999999999
#
# number of rings (size 3 to 8) (size 9 to 14) (size 15 to 20)
#    0.000    1.789    3.158    1.579    1.474    2.526 
#    0.000    5.263    0.000    0.000    0.000    2.947 
#    0.000    0.000    0.000    0.000    0.000    0.000 
#
# Total GULP energy -211711.074195 kJ/mol
# GULP energy per Si atom -5571.344058 kJ/mol
# Density = 1.950776 g / cm^3
# Si number density = 19.552259 Si / 1000 Ang^3
#
#
#
# Elastic Constant Matrix: (Units=GPa)
#
#
# Indices 1 2 3 4 5 6 
#
# 1 57.2308 15.8622 27.0050 0.0000 0.0000 0.0000
# 2 15.8622 107.8362 57.8343 0.0000 0.0000 0.0000
# 3 27.0050 57.8343 101.7429 0.0000 0.0000 0.0000
# 4 0.0000 0.0000 0.0000 9.1092 0.0000 0.0000
# 5 0.0000 0.0000 0.0000 0.0000 10.8780 0.0000
# 6 0.0000 0.0000 0.0000 0.0000 0.0000 25.8082
#
#
#
# Elastic Compliance Matrix: (Units=1/GPa)
#
#
# Indices 1 2 3 4 5 6 
#
# 1 0.019976 -0.000136 -0.005225 0.000000 0.000000 0.000000
# 2 -0.000136 0.013341 -0.007547 0.000000 0.000000 0.000000
# 3 -0.005225 -0.007547 0.015506 0.000000 0.000000 0.000000
# 4 0.000000 0.000000 0.000000 0.109779 0.000000 0.000000
# 5 0.000000 0.000000 0.000000 0.000000 0.091929 0.000000
# 6 0.000000 0.000000 0.000000 0.000000 0.000000 0.038747
#
#
# Mechanical properties :
#
#
# Convention : Reuss Voigt Hill
#
# Bulk Modulus (GPa) = 43.46648 52.02366 47.74507
# Shear Modulus (GPa) = 15.49121 20.23297 17.86209
#
# Velocity S-wave (km/s) = 2.81783 3.22034 3.02579
# Velocity P-wave (km/s) = 5.73290 6.36339 6.05635
#
# Compressibility (1/GPa) = 0.02300623
#
# Stress axis : x y z
#
# Youngs Moduli (GPa) = 50.05948 74.95592 64.49256
#
# Poissons Ratio (x) = 0.01022 0.33695
# Poissons Ratio (y) = 0.00682 0.48675
# Poissons Ratio (z) = 0.26155 0.56572
#
# Static dielectric constant tensor:
#      x y z
#    x 1.670210 0.000000 0.000000 
#    y 0.000000 1.682430 0.000000 
#    z 0.000000 0.000000 1.700130 
# 
# From -- ./inp_files/24682.got.cif
#   From: 2010.05.17/outbox.cif.g08.bks.cpg/sg65_13_cif.got.tgz:24682.got - 2010.06.03 17:01:31.
