data_PCOD9493314
_publ_section_title
;
Structure prediction by ZEFSAII (Michael W. Deem and Ramdas Pophale) SiO2 
 PCOD9493314
Probable space group: C M M M
;
_chemical_formula_sum "Si O2"
_cell_formula_units_Z 72
_cell_length_a 10.365109
_cell_length_b 22.993967
_cell_length_c 19.806079
_cell_angle_alpha 90.000000
_cell_angle_beta 90.000000
_cell_angle_gamma 90.000000
_cell_volume 4720.481329
_symmetry_space_group_name_H-M "C M M M"
_symmetry_group_IT_number 65
_symmetry_cell_setting 'orthorhombic'
loop_
_space_group_symop_operation_xyz
x,y,z
-x,-y,z
x,-y,-z
-x,y,-z
-x,-y,-z
x,y,-z
-x,y,z
x,-y,z
1/2+x,1/2+y,z
1/2-x,1/2-y,z
1/2+x,1/2-y,-z
1/2-x,1/2+y,-z
1/2-x,1/2-y,-z
1/2+x,1/2+y,-z
1/2-x,1/2+y,z
1/2+x,1/2-y,z
loop_
_atom_site_type_symbol
_atom_site_label
_atom_site_fract_x
_atom_site_fract_y
_atom_site_fract_z
Si Si1 0.648141 0.000000 0.080406
Si Si2 0.653649 0.929892 0.427484
Si Si3 0.000000 0.828409 0.079992
Si Si4 0.760367 0.620137 0.140451
Si Si5 0.843688 0.430392 0.721851
Si Si6 0.500000 0.188943 0.079434
O O1 0.716630 0.057799 0.105623
O O2 0.500000 0.000000 0.106580
O O3 0.643752 0.000000 0.000000
O O4 0.706660 0.908462 0.500000
O O5 0.500000 0.918269 0.427929
O O6 0.700043 0.911425 0.353447
O O7 0.666958 0.000000 0.427590
O O8 0.126017 0.853480 0.116460
O O9 0.000000 0.758445 0.083994
O O10 0.000000 0.843786 0.000000
O O11 0.777277 0.606567 0.219615
O O12 0.874585 0.661793 0.114418
O O13 0.818417 0.500000 0.730153
O O14 0.000000 0.423999 0.726736
O O15 0.500000 0.172393 0.000000
#
# Coordination Sequence:
#
# PCOD9493314 Si02
#       6
#     8  16   8  16  16   8
#     4  11  20  31  51  75  96 124 161 198 243 304
#     4   7  10  17  33  60  96 130 154 182 226 279
#     4  11  26  41  51  69  96 128 168 214 259 290
#     4  12  21  35  54  75  99 126 162 204 252 302
#     4   9  15  26  44  70 100 129 159 194 237 287
#     4  11  22  39  59  71  88 124 170 214 251 296
#
# _framework density 15.252682
#
# number of rings (size 3 to 8) (size 9 to 14) (size 15 to 20)
#    0.000    2.111    3.333    4.667    0.000    2.222 
#    0.000    1.111    0.000    0.000    0.000    0.778 
#    0.000    8.889    0.000    0.000    0.000    0.000 
#
# Total GULP energy -200535.726427 kJ/mol
# GULP energy per Si atom -5570.436845 kJ/mol
# Density = 1.521797 g / cm^3
# Si number density = 15.252682 Si / 1000 Ang^3
#
#
#
# Elastic Constant Matrix: (Units=GPa)
#
#
# Indices 1 2 3 4 5 6 
#
# 1 90.3472 36.1272 52.6086 0.0000 0.0000 0.0000
# 2 36.1272 57.0860 45.3407 0.0000 0.0000 0.0000
# 3 52.6086 45.3407 184.8073 0.0000 0.0000 0.0000
# 4 0.0000 0.0000 0.0000 -80.7156 0.0000 0.0000
# 5 0.0000 0.0000 0.0000 0.0000 11.1765 0.0000
# 6 0.0000 0.0000 0.0000 0.0000 0.0000 -12.2109
#
#
#
# Elastic Compliance Matrix: (Units=1/GPa)
#
#
# Indices 1 2 3 4 5 6 
#
# 1 0.015713 -0.007938 -0.002525 0.000000 0.000000 0.000000
# 2 -0.007938 0.025768 -0.004062 0.000000 0.000000 0.000000
# 3 -0.002525 -0.004062 0.007127 0.000000 0.000000 0.000000
# 4 0.000000 0.000000 0.000000 -0.012389 0.000000 0.000000
# 5 0.000000 0.000000 0.000000 0.000000 0.089473 0.000000
# 6 0.000000 0.000000 0.000000 0.000000 0.000000 -0.081894
#
#
# Mechanical properties :
#
#
# Convention : Reuss Voigt Hill
#
# Bulk Modulus (GPa) = 51.13613 66.71039 58.92326
# Shear Modulus (GPa) = 62.99797 -3.13906 29.92946
#
# Velocity S-wave (km/s) = 6.43370 -1.43614 4.43453
# Velocity P-wave (km/s) = 9.42278 6.40951 8.05824
#
# Compressibility (1/GPa) = 0.01955564
#
# Stress axis : x y z
#
# Youngs Moduli (GPa) = 63.64033 38.80849 140.32073
#
# Poissons Ratio (x) = 0.30808 0.35437
# Poissons Ratio (y) = 0.50520 0.56999
# Poissons Ratio (z) = 0.16072 0.15764
#
# Static dielectric constant tensor:
#      x y z
#    x 1.450520 0.000000 0.000000 
#    y 0.000000 1.481800 0.000000 
#    z 0.000000 0.000000 1.563330 
# 
# From -- ./inp_files/59545.got.cif
#   From: 2010.05.17/outbox.cif.g08.bks.cpg/sg65_30_cif.got.tgz:59545.got - 2010.06.03 17:01:31.
