data_PCOD9493530
_publ_section_title
;
Structure prediction by ZEFSAII (Michael W. Deem and Ramdas Pophale) SiO2 
 PCOD9493530
Probable space group: C M M M
;
_chemical_formula_sum "Si O2"
_cell_formula_units_Z 56
_cell_length_a 14.947028
_cell_length_b 11.169026
_cell_length_c 19.297763
_cell_angle_alpha 90.000000
_cell_angle_beta 90.000000
_cell_angle_gamma 90.000000
_cell_volume 3221.640813
_symmetry_space_group_name_H-M "C M M M"
_symmetry_group_IT_number 65
_symmetry_cell_setting 'orthorhombic'
loop_
_space_group_symop_operation_xyz
x,y,z
-x,-y,z
x,-y,-z
-x,y,-z
-x,-y,-z
x,y,-z
-x,y,z
x,-y,z
1/2+x,1/2+y,z
1/2-x,1/2-y,z
1/2+x,1/2-y,-z
1/2-x,1/2+y,-z
1/2-x,1/2-y,-z
1/2+x,1/2+y,-z
1/2-x,1/2+y,z
1/2+x,1/2-y,z
loop_
_atom_site_type_symbol
_atom_site_label
_atom_site_fract_x
_atom_site_fract_y
_atom_site_fract_z
Si Si1 0.500000 0.143757 0.738932
Si Si2 0.835301 0.651100 0.000000
Si Si3 0.500000 0.855990 0.101967
Si Si4 0.152649 0.750377 0.643750
Si Si5 0.602373 0.858554 0.500000
Si Si6 0.894088 0.000000 0.578166
O O1 0.500000 0.184681 0.818538
O O2 0.583687 0.192623 0.696085
O O3 0.500000 0.000000 0.737299
O O4 0.750000 0.750000 0.000000
O O5 0.905917 0.675587 0.936535
O O6 0.814696 0.500000 0.000000
O O7 0.500000 0.000000 0.100779
O O8 0.250000 0.750000 0.675344
O O9 0.149660 0.680866 0.570317
O O10 0.130347 0.883955 0.621125
O O11 0.500000 0.807451 0.500000
O O12 0.595675 0.000000 0.500000
O O13 0.854207 0.000000 0.500000
O O14 0.000000 0.000000 0.570290
#
# Coordination Sequence:
#
# PCOD9493530 Si02
#       6
#     8   8   8  16   8   8
#     4  11  23  42  59  80 118 156 194 236 278 341
#     4   9  17  35  68 100 124 155 193 233 274 330
#     4   8  18  37  62  88 120 162 194 221 274 341
#     4  12  25  37  57  81 106 146 194 242 300 347
#     4  11  21  37  57  80 103 133 192 254 292 342
#     4  11  22  40  56  73 107 145 189 245 305 358
#
# _framework density 17.382446000000002
#
# number of rings (size 3 to 8) (size 9 to 14) (size 15 to 20)
#    0.000    1.429    4.286    2.143    4.000    1.143 
#    0.000    1.429    6.286    0.000    0.000    0.000 
#    0.000    0.000    0.000    0.000    0.000    0.000 
#
# Total GULP energy -155983.110529 kJ/mol
# GULP energy per Si atom -5570.825376 kJ/mol
# Density = 1.734288 g / cm^3
# Si number density = 17.382446 Si / 1000 Ang^3
#
#
#
# Elastic Constant Matrix: (Units=GPa)
#
#
# Indices 1 2 3 4 5 6 
#
# 1 145.2185 40.4463 58.8557 0.0000 0.0000 0.0000
# 2 40.4463 104.5660 41.5491 0.0000 0.0000 0.0000
# 3 58.8557 41.5491 136.9823 0.0000 0.0000 0.0000
# 4 0.0000 0.0000 0.0000 13.5129 0.0000 0.0000
# 5 0.0000 0.0000 0.0000 0.0000 -179.7056 0.0000
# 6 0.0000 0.0000 0.0000 0.0000 0.0000 33.0117
#
#
#
# Elastic Compliance Matrix: (Units=1/GPa)
#
#
# Indices 1 2 3 4 5 6 
#
# 1 0.008743 -0.002148 -0.003105 0.000000 0.000000 0.000000
# 2 -0.002148 0.011402 -0.002535 0.000000 0.000000 0.000000
# 3 -0.003105 -0.002535 0.009403 0.000000 0.000000 0.000000
# 4 0.000000 0.000000 0.000000 0.074003 0.000000 0.000000
# 5 0.000000 0.000000 0.000000 0.000000 -0.005565 0.000000
# 6 0.000000 0.000000 0.000000 0.000000 0.000000 0.030292
#
#
# Mechanical properties :
#
#
# Convention : Reuss Voigt Hill
#
# Bulk Modulus (GPa) = 71.57624 74.27434 72.92529
# Shear Modulus (GPa) = 33.66720 -10.24182 11.71269
#
# Velocity S-wave (km/s) = 4.40574 -2.42999 2.59863
# Velocity P-wave (km/s) = 8.19435 5.91178 7.14481
#
# Compressibility (1/GPa) = 0.01397112
#
# Stress axis : x y z
#
# Youngs Moduli (GPa) = 114.37943 87.70674 106.34571
#
# Poissons Ratio (x) = 0.18840 0.33019
# Poissons Ratio (y) = 0.24569 0.26963
# Poissons Ratio (z) = 0.35514 0.22237
#
# Static dielectric constant tensor:
#      x y z
#    x 1.631320 0.000000 0.000000 
#    y 0.000000 1.501620 0.000000 
#    z 0.000000 0.000000 1.589960 
# 
# From -- ./inp_files/52502.got.cif
#   From: 2010.05.17/outbox.cif.g08.bks.cpg/sg65_27_cif.got.tgz:52502.got - 2010.06.03 17:01:31.
