data_PCOD9493468
_publ_section_title
;
Structure prediction by ZEFSAII (Michael W. Deem and Ramdas Pophale) SiO2 
 PCOD9493468
Probable space group: C M M M
;
_chemical_formula_sum "Si O2"
_cell_formula_units_Z 104
_cell_length_a 8.831052
_cell_length_b 29.257003
_cell_length_c 23.441179
_cell_angle_alpha 90.000000
_cell_angle_beta 90.000000
_cell_angle_gamma 90.000000
_cell_volume 6056.500111
_symmetry_space_group_name_H-M "C M M M"
_symmetry_group_IT_number 65
_symmetry_cell_setting 'orthorhombic'
loop_
_space_group_symop_operation_xyz
x,y,z
-x,-y,z
x,-y,-z
-x,y,-z
-x,-y,-z
x,y,-z
-x,y,z
x,-y,z
1/2+x,1/2+y,z
1/2-x,1/2-y,z
1/2+x,1/2-y,-z
1/2-x,1/2+y,-z
1/2-x,1/2-y,-z
1/2+x,1/2+y,-z
1/2-x,1/2+y,z
1/2+x,1/2-y,z
loop_
_atom_site_type_symbol
_atom_site_label
_atom_site_fract_x
_atom_site_fract_y
_atom_site_fract_z
Si Si1 0.318062 0.298004 0.851795
Si Si2 0.817879 0.896822 0.890088
Si Si3 0.181857 0.797977 0.281357
Si Si4 0.818036 0.553236 0.433896
Si Si5 0.181721 0.553631 0.000000
Si Si6 0.319541 0.945746 0.779636
Si Si7 0.818334 0.104884 0.328893
O O1 0.500000 0.294866 0.853077
O O2 0.250000 0.250000 0.871806
O O3 0.273268 0.343351 0.885931
O O4 0.272526 0.304520 0.785185
O O5 0.747117 0.921885 0.944174
O O6 0.760514 0.921131 0.832630
O O7 0.000000 0.899229 0.892461
O O8 0.250000 0.750000 0.301232
O O9 0.227045 0.842572 0.316835
O O10 0.000000 0.794832 0.282433
O O11 0.779988 0.562730 0.500000
O O12 0.779436 0.500000 0.422218
O O13 0.737073 0.585769 0.389136
O O14 0.000000 0.557319 0.427918
O O15 0.223519 0.500000 0.000000
O O16 0.000000 0.556579 0.000000
O O17 0.500000 0.938127 0.782569
O O18 0.255001 0.925333 0.721145
O O19 0.292175 0.000000 0.782189
O O20 0.000000 0.102040 0.324565
#
# Coordination Sequence:
#
# PCOD9493468 Si02
#       7
#    16  16  16  16   8  16  16
#     4   9  18  34  55  81 111 140 175 219 268 324
#     4  11  22  39  60  83 110 142 182 227 274 324
#     4   9  18  33  51  77 110 141 175 218 268 322
#     4   9  19  36  55  76 107 147 188 227 268 321
#     4  11  25  43  60  81 110 145 188 229 266 323
#     4  11  23  36  52  78 111 145 181 222 270 324
#     4  11  21  34  53  81 113 141 178 227 275 323
#
# _framework density 17.171633
#
# number of rings (size 3 to 8) (size 9 to 14) (size 15 to 20)
#    0.000    1.923    1.538    3.000    0.000    8.615 
#    0.000    1.154    0.000    0.462    0.000    0.000 
#    0.000    0.000    0.000    0.000    0.000    0.000 
#
# Total GULP energy -290347.571978 kJ/mol
# GULP energy per Si atom -5583.607153 kJ/mol
# Density = 1.713255 g / cm^3
# Si number density = 17.171633 Si / 1000 Ang^3
#
#
#
# Elastic Constant Matrix: (Units=GPa)
#
#
# Indices 1 2 3 4 5 6 
#
# 1 41.5825 60.7405 35.6057 0.0000 0.0000 0.0000
# 2 60.7405 170.0580 79.6655 0.0000 0.0000 0.0000
# 3 35.6057 79.6655 92.2611 0.0000 0.0000 0.0000
# 4 0.0000 0.0000 0.0000 27.4148 0.0000 0.0000
# 5 0.0000 0.0000 0.0000 0.0000 35.8947 0.0000
# 6 0.0000 0.0000 0.0000 0.0000 0.0000 32.8554
#
#
#
# Elastic Compliance Matrix: (Units=1/GPa)
#
#
# Indices 1 2 3 4 5 6 
#
# 1 0.052752 -0.015625 -0.006866 0.000000 0.000000 0.000000
# 2 -0.015625 0.014503 -0.006493 0.000000 0.000000 0.000000
# 3 -0.006866 -0.006493 0.019095 0.000000 0.000000 0.000000
# 4 0.000000 0.000000 0.000000 0.036477 0.000000 0.000000
# 5 0.000000 0.000000 0.000000 0.000000 0.027859 0.000000
# 6 0.000000 0.000000 0.000000 0.000000 0.000000 0.030436
#
#
# Mechanical properties :
#
#
# Convention : Reuss Voigt Hill
#
# Bulk Modulus (GPa) = 35.23423 72.88056 54.05740
# Shear Modulus (GPa) = 20.11658 27.75897 23.93778
#
# Velocity S-wave (km/s) = 3.42643 4.02501 3.73772
# Velocity P-wave (km/s) = 6.01808 8.00846 7.08353
#
# Compressibility (1/GPa) = 0.02838149
#
# Stress axis : x y z
#
# Youngs Moduli (GPa) = 18.95665 68.95171 52.36956
#
# Poissons Ratio (x) = 1.07738 0.35958
# Poissons Ratio (y) = 0.29620 0.34003
# Poissons Ratio (z) = 0.13016 0.44769
#
# Static dielectric constant tensor:
#      x y z
#    x 1.576060 0.000000 0.000000 
#    y 0.000000 1.578150 0.000000 
#    z 0.000000 0.000000 1.555490 
# 
# From -- ./inp_files/60456.got.cif
#   From: 2010.05.17/outbox.cif.g08.bks.cpg/sg65_31_cif.got.tgz:60456.got - 2010.06.03 17:01:31.
