data_PCOD9493131
_publ_section_title
;
Structure prediction by ZEFSAII (Michael W. Deem and Ramdas Pophale) SiO2 
 PCOD9493131
Probable space group: C M M M
;
_chemical_formula_sum "Si O2"
_cell_formula_units_Z 58
_cell_length_a 11.063253
_cell_length_b 28.302071
_cell_length_c 9.579688
_cell_angle_alpha 90.000000
_cell_angle_beta 90.000000
_cell_angle_gamma 90.000000
_cell_volume 2999.524580
_symmetry_space_group_name_H-M "C M M M"
_symmetry_group_IT_number 65
_symmetry_cell_setting 'orthorhombic'
loop_
_space_group_symop_operation_xyz
x,y,z
-x,-y,z
x,-y,-z
-x,y,-z
-x,-y,-z
x,y,-z
-x,y,z
x,-y,z
1/2+x,1/2+y,z
1/2-x,1/2-y,z
1/2+x,1/2-y,-z
1/2-x,1/2+y,-z
1/2-x,1/2-y,-z
1/2+x,1/2+y,-z
1/2-x,1/2+y,z
1/2+x,1/2-y,z
loop_
_atom_site_type_symbol
_atom_site_label
_atom_site_fract_x
_atom_site_fract_y
_atom_site_fract_z
Si Si1 0.000000 0.000000 0.000000
Si Si2 0.283591 0.377715 0.659861
Si Si3 0.139751 0.786586 0.165389
Si Si4 0.144321 0.552591 0.841116
Si Si5 0.000000 0.948123 0.290334
O O1 0.000000 0.040783 0.875429
O O2 0.252769 0.366542 0.500000
O O3 0.332493 0.332187 0.741144
O O4 0.178332 0.403886 0.744672
O O5 0.386308 0.417531 0.665748
O O6 0.250000 0.750000 0.191635
O O7 0.000000 0.770164 0.192489
O O8 0.145080 0.798313 0.000000
O O9 0.188711 0.500000 0.795048
O O10 0.000000 0.549954 0.847536
O O11 0.190664 0.559116 0.000000
O O12 0.000000 0.000000 0.353276
#
# Coordination Sequence:
#
# PCOD9493131 Si02
#       5
#     2  16  16  16   8
#     4   8  24  36  58  92 118 176 210 256 300 362
#     4  12  24  37  59  90 127 164 199 249 315 385
#     4  10  23  43  68  92 119 158 214 274 328 383
#     4   9  20  38  60  86 119 164 215 260 301 360
#     4  10  23  36  58  91 127 162 208 251 304 363
#
# _framework density 19.336397000000002
#
# number of rings (size 3 to 8) (size 9 to 14) (size 15 to 20)
#    0.414    1.379    1.379    2.897    3.862    4.966 
#    0.000    4.138    0.000    0.000    0.000    0.000 
#    0.000    0.000    0.000    0.000    0.000    0.000 
#
# Total GULP energy -161463.027586 kJ/mol
# GULP energy per Si atom -5567.690606 kJ/mol
# Density = 1.929239 g / cm^3
# Si number density = 19.336397 Si / 1000 Ang^3
#
#
#
# Elastic Constant Matrix: (Units=GPa)
#
#
# Indices 1 2 3 4 5 6 
#
# 1 90.8426 53.9524 39.3912 0.0000 0.0000 0.0000
# 2 53.9524 115.4901 58.1470 0.0000 0.0000 0.0000
# 3 39.3912 58.1470 106.9730 0.0000 0.0000 0.0000
# 4 0.0000 0.0000 0.0000 -24.9739 0.0000 0.0000
# 5 0.0000 0.0000 0.0000 0.0000 32.8950 0.0000
# 6 0.0000 0.0000 0.0000 0.0000 0.0000 69.8944
#
#
#
# Elastic Compliance Matrix: (Units=1/GPa)
#
#
# Indices 1 2 3 4 5 6 
#
# 1 0.015695 -0.006089 -0.002470 0.000000 0.000000 0.000000
# 2 -0.006089 0.014283 -0.005522 0.000000 0.000000 0.000000
# 3 -0.002470 -0.005522 0.013259 0.000000 0.000000 0.000000
# 4 0.000000 0.000000 0.000000 -0.040042 0.000000 0.000000
# 5 0.000000 0.000000 0.000000 0.000000 0.030400 0.000000
# 6 0.000000 0.000000 0.000000 0.000000 0.000000 0.014307
#
#
# Mechanical properties :
#
#
# Convention : Reuss Voigt Hill
#
# Bulk Modulus (GPa) = 66.32722 68.47634 67.40178
# Shear Modulus (GPa) = 61.66041 26.35076 44.00558
#
# Velocity S-wave (km/s) = 5.65310 3.69556 4.77570
# Velocity P-wave (km/s) = 8.77418 7.32800 8.08349
#
# Compressibility (1/GPa) = 0.01507677
#
# Stress axis : x y z
#
# Youngs Moduli (GPa) = 63.71393 70.01209 75.41945
#
# Poissons Ratio (x) = 0.42627 0.18628
# Poissons Ratio (y) = 0.38793 0.41646
# Poissons Ratio (z) = 0.15737 0.38660
#
# Static dielectric constant tensor:
#      x y z
#    x 1.676590 0.000000 0.000000 
#    y 0.000000 1.645860 0.000000 
#    z 0.000000 0.000000 1.687140 
# 
# From -- ./inp_files/4476.got.cif
#   From: 2010.05.17/outbox.cif.g08.bks.cpg/sg65_3_cif.got.tgz:4476.got - 2010.06.03 17:01:31.
