data_PCOD9493713
_publ_section_title
;
Structure prediction by ZEFSAII (Michael W. Deem and Ramdas Pophale) SiO2 
 PCOD9493713
Probable space group: C M M M
;
_chemical_formula_sum "Si O2"
_cell_formula_units_Z 64
_cell_length_a 34.155694
_cell_length_b 11.055290
_cell_length_c 8.675798
_cell_angle_alpha 90.000000
_cell_angle_beta 90.000000
_cell_angle_gamma 90.000000
_cell_volume 3275.990888
_symmetry_space_group_name_H-M "C M M M"
_symmetry_group_IT_number 65
_symmetry_cell_setting 'orthorhombic'
loop_
_space_group_symop_operation_xyz
x,y,z
-x,-y,z
x,-y,-z
-x,y,-z
-x,-y,-z
x,y,-z
-x,y,z
x,-y,z
1/2+x,1/2+y,z
1/2-x,1/2-y,z
1/2+x,1/2-y,-z
1/2-x,1/2+y,-z
1/2-x,1/2-y,-z
1/2+x,1/2+y,-z
1/2-x,1/2+y,z
1/2+x,1/2-y,z
loop_
_atom_site_type_symbol
_atom_site_label
_atom_site_fract_x
_atom_site_fract_y
_atom_site_fract_z
Si Si1 0.000000 0.141828 0.830152
Si Si2 0.804240 0.500000 0.312177
Si Si3 0.786888 0.000000 0.688031
Si Si4 0.576173 0.248014 0.684049
Si Si5 0.546118 0.000000 0.184135
Si Si6 0.835733 0.235848 0.311929
O O1 0.960475 0.176570 0.743971
O O2 0.000000 0.000000 0.846700
O O3 0.000000 0.202106 0.000000
O O4 0.806401 0.500000 0.500000
O O5 0.758581 0.500000 0.267638
O O6 0.823236 0.371766 0.261879
O O7 0.808338 0.875899 0.738311
O O8 0.788061 0.000000 0.500000
O O9 0.575705 0.246787 0.500000
O O10 0.567610 0.115422 0.747744
O O11 0.619360 0.288943 0.733988
O O12 0.500000 0.000000 0.229338
O O13 0.547888 0.000000 0.000000
O O14 0.834112 0.237285 0.500000
#
# Coordination Sequence:
#
# PCOD9493713 Si02
#       6
#     8   8   8  16   8  16
#     4  11  25  42  57  76 109 151 195 237 278 335
#     4   9  15  27  45  68 105 152 184 209 266 342
#     4   9  16  27  45  70 106 150 184 214 268 339
#     4  11  22  36  58  84 113 145 185 235 286 332
#     4  11  22  37  57  79 109 144 184 231 278 333
#     4   9  18  29  45  74 110 143 181 228 274 328
#
# _framework density 19.536072999999998
#
# number of rings (size 3 to 8) (size 9 to 14) (size 15 to 20)
#    0.000    2.000    1.250    3.000    1.750    6.500 
#    0.000    0.000    0.000    0.000    0.000    0.000 
#    0.000   42.000    0.000    0.000    0.000    0.000 
#
# Total GULP energy -178560.936727 kJ/mol
# GULP energy per Si atom -5580.029273 kJ/mol
# Density = 1.949161 g / cm^3
# Si number density = 19.536073 Si / 1000 Ang^3
#
#
#
# Elastic Constant Matrix: (Units=GPa)
#
#
# Indices 1 2 3 4 5 6 
#
# 1 160.4270 60.8909 25.5318 0.0000 0.0000 0.0000
# 2 60.8909 122.8014 10.3793 0.0000 0.0000 0.0000
# 3 25.5318 10.3793 26.2479 0.0000 0.0000 0.0000
# 4 0.0000 0.0000 0.0000 10.8509 0.0000 0.0000
# 5 0.0000 0.0000 0.0000 0.0000 -14.2644 0.0000
# 6 0.0000 0.0000 0.0000 0.0000 0.0000 -877.3411
#
#
#
# Elastic Compliance Matrix: (Units=1/GPa)
#
#
# Indices 1 2 3 4 5 6 
#
# 1 0.008783 -0.003759 -0.007057 0.000000 0.000000 0.000000
# 2 -0.003759 0.010033 -0.000311 0.000000 0.000000 0.000000
# 3 -0.007057 -0.000311 0.045086 0.000000 0.000000 0.000000
# 4 0.000000 0.000000 0.000000 0.092158 0.000000 0.000000
# 5 0.000000 0.000000 0.000000 0.000000 -0.070105 0.000000
# 6 0.000000 0.000000 0.000000 0.000000 0.000000 -0.001140
#
#
# Mechanical properties :
#
#
# Convention : Reuss Voigt Hill
#
# Bulk Modulus (GPa) = 24.01076 55.89780 39.95428
# Shear Modulus (GPa) = 41.33832 -161.97262 -60.31715
#
# Velocity S-wave (km/s) = 4.60499 -9.11534 -5.56253
# Velocity P-wave (km/s) = 6.37116 9.06153 4.55629
#
# Compressibility (1/GPa) = 0.04164799
#
# Stress axis : x y z
#
# Youngs Moduli (GPa) = 113.85486 99.66856 22.17978
#
# Poissons Ratio (x) = 0.37462 0.15653
# Poissons Ratio (y) = 0.42794 0.00691
# Poissons Ratio (z) = 0.80350 0.03104
#
# Static dielectric constant tensor:
#      x y z
#    x 1.711630 0.000000 0.000000 
#    y 0.000000 1.625390 0.000000 
#    z 0.000000 0.000000 1.659730 
# 
# From -- ./inp_files/5021.got.cif
#   From: 2010.05.17/outbox.cif.g08.bks.cpg/sg65_3_cif.got.tgz:5021.got - 2010.06.03 17:01:31.
