data_PCOD9493220
_publ_section_title
;
Structure prediction by ZEFSAII (Michael W. Deem and Ramdas Pophale) SiO2 
 PCOD9493220
Probable space group: C M M M
;
_chemical_formula_sum "Si O2"
_cell_formula_units_Z 104
_cell_length_a 8.524676
_cell_length_b 23.753099
_cell_length_c 29.359231
_cell_angle_alpha 90.000000
_cell_angle_beta 90.000000
_cell_angle_gamma 90.000000
_cell_volume 5944.876494
_symmetry_space_group_name_H-M "C M M M"
_symmetry_group_IT_number 65
_symmetry_cell_setting 'orthorhombic'
loop_
_space_group_symop_operation_xyz
x,y,z
-x,-y,z
x,-y,-z
-x,y,-z
-x,-y,-z
x,y,-z
-x,y,z
x,-y,z
1/2+x,1/2+y,z
1/2-x,1/2-y,z
1/2+x,1/2-y,-z
1/2-x,1/2+y,-z
1/2-x,1/2-y,-z
1/2+x,1/2+y,-z
1/2-x,1/2+y,z
1/2+x,1/2-y,z
loop_
_atom_site_type_symbol
_atom_site_label
_atom_site_fract_x
_atom_site_fract_y
_atom_site_fract_z
Si Si1 0.310519 0.185814 0.451102
Si Si2 0.188143 0.382700 0.737237
Si Si3 0.187177 0.187037 0.822312
Si Si4 0.187794 0.000000 0.774498
Si Si5 0.189951 0.314162 0.649046
Si Si6 0.810722 0.313805 0.000000
Si Si7 0.188714 0.380505 0.090788
Si Si8 0.188611 0.000000 0.881395
O O1 0.259461 0.160233 0.500000
O O2 0.500000 0.185944 0.451141
O O3 0.250000 0.250000 0.451485
O O4 0.260766 0.164130 0.401340
O O5 0.242963 0.341616 0.777441
O O6 0.253179 0.444128 0.749299
O O7 0.241702 0.355170 0.689568
O O8 0.000000 0.385615 0.736783
O O9 0.250000 0.250000 0.826538
O O10 0.242395 0.151770 0.865812
O O11 0.000000 0.186654 0.819652
O O12 0.239491 0.000000 0.827851
O O13 0.000000 0.000000 0.774986
O O14 0.250000 0.250000 0.655288
O O15 0.000000 0.311690 0.650080
O O16 0.750000 0.250000 0.000000
O O17 0.761490 0.347931 0.954950
O O18 0.000000 0.311677 0.000000
O O19 0.247955 0.444259 0.094314
O O20 0.000000 0.379852 0.093041
O O21 0.000000 0.000000 0.881945
#
# Coordination Sequence:
#
# PCOD9493220 Si02
#       8
#    16  16  16   8  16   8  16   8
#     4   8  13  23  40  63  95 134 172 211 256 307
#     4  11  22  36  55  78 105 140 178 221 273 322
#     4  12  24  38  56  82 112 144 183 221 263 321
#     4  11  23  39  58  80 107 138 180 226 269 321
#     4   9  18  30  46  73 106 139 176 216 261 317
#     4  10  24  43  64  91 119 148 182 220 267 320
#     4  11  23  41  64  88 115 148 183 223 269 317
#     4  11  23  40  62  89 115 144 183 228 270 318
#
# _framework density 17.494056
#
# number of rings (size 3 to 8) (size 9 to 14) (size 15 to 20)
#    0.000    1.692    1.538    3.692    0.000    5.846 
#    0.000    1.538    0.000    0.000    0.000    0.538 
#    0.000    4.308    0.000    0.000    0.000    0.000 
#
# Total GULP energy -290206.903268 kJ/mol
# GULP energy per Si atom -5580.901986 kJ/mol
# Density = 1.745424 g / cm^3
# Si number density = 17.494056 Si / 1000 Ang^3
#
#
#
# Elastic Constant Matrix: (Units=GPa)
#
#
# Indices 1 2 3 4 5 6 
#
# 1 35.8566 17.8701 19.6795 0.0000 0.0000 0.0000
# 2 17.8701 129.1321 65.2232 0.0000 0.0000 0.0000
# 3 19.6795 65.2232 165.0391 0.0000 0.0000 0.0000
# 4 0.0000 0.0000 0.0000 -0.7212 0.0000 0.0000
# 5 0.0000 0.0000 0.0000 0.0000 2.5909 0.0000
# 6 0.0000 0.0000 0.0000 0.0000 0.0000 30.3505
#
#
#
# Elastic Compliance Matrix: (Units=1/GPa)
#
#
# Indices 1 2 3 4 5 6 
#
# 1 0.030746 -0.003002 -0.002480 0.000000 0.000000 0.000000
# 2 -0.003002 0.009968 -0.003582 0.000000 0.000000 0.000000
# 3 -0.002480 -0.003582 0.007770 0.000000 0.000000 0.000000
# 4 0.000000 0.000000 0.000000 -1.386510 0.000000 0.000000
# 5 0.000000 0.000000 0.000000 0.000000 0.385962 0.000000
# 6 0.000000 0.000000 0.000000 0.000000 0.000000 0.032948
#
#
# Mechanical properties :
#
#
# Convention : Reuss Voigt Hill
#
# Bulk Modulus (GPa) = 32.94057 59.50814 46.22436
# Shear Modulus (GPa) = -5.61250 21.59439 7.99094
#
# Velocity S-wave (km/s) = -1.79310 3.51719 2.13956
# Velocity P-wave (km/s) = 3.81884 7.11226 5.70823
#
# Compressibility (1/GPa) = 0.03035770
#
# Stress axis : x y z
#
# Youngs Moduli (GPa) = 32.52446 100.31622 128.69580
#
# Poissons Ratio (x) = 0.30119 0.31912
# Poissons Ratio (y) = 0.09765 0.46093
# Poissons Ratio (z) = 0.08065 0.35928
#
# Static dielectric constant tensor:
#      x y z
#    x 1.590330 0.000000 0.000000 
#    y 0.000000 1.557060 0.000000 
#    z 0.000000 0.000000 1.631130 
# 
# From -- ./inp_files/76955.got.cif
#   From: 2010.05.17/outbox.cif.g08.bks.cpg/sg65_39_cif.got.tgz:76955.got - 2010.06.03 17:01:31.
