data_PCOD9493478
_publ_section_title
;
Structure prediction by ZEFSAII (Michael W. Deem and Ramdas Pophale) SiO2 
 PCOD9493478
Probable space group: C M M M
;
_chemical_formula_sum "Si O2"
_cell_formula_units_Z 68
_cell_length_a 23.338719
_cell_length_b 15.097934
_cell_length_c 10.722522
_cell_angle_alpha 90.000000
_cell_angle_beta 90.000000
_cell_angle_gamma 90.000000
_cell_volume 3778.256895
_symmetry_space_group_name_H-M "C M M M"
_symmetry_group_IT_number 65
_symmetry_cell_setting 'orthorhombic'
loop_
_space_group_symop_operation_xyz
x,y,z
-x,-y,z
x,-y,-z
-x,y,-z
-x,-y,-z
x,y,-z
-x,y,z
x,-y,z
1/2+x,1/2+y,z
1/2-x,1/2-y,z
1/2+x,1/2-y,-z
1/2-x,1/2+y,-z
1/2-x,1/2-y,-z
1/2+x,1/2+y,-z
1/2-x,1/2+y,z
1/2+x,1/2-y,z
loop_
_atom_site_type_symbol
_atom_site_label
_atom_site_fract_x
_atom_site_fract_y
_atom_site_fract_z
Si Si1 0.312547 0.803102 0.500000
Si Si2 0.293946 0.500000 0.764956
Si Si3 0.379809 0.176782 0.247218
Si Si4 0.263994 0.000000 0.500000
Si Si5 0.328733 0.000000 0.859172
Si Si6 0.803225 0.811043 0.857929
Si Si7 0.500000 0.892063 0.848167
O O1 0.250000 0.750000 0.500000
O O2 0.353220 0.788883 0.621431
O O3 0.298452 0.908065 0.500000
O O4 0.273629 0.500000 0.623518
O O5 0.239040 0.500000 0.855583
O O6 0.318829 0.402929 0.791093
O O7 0.347809 0.085969 0.214111
O O8 0.358102 0.248765 0.149069
O O9 0.445258 0.151082 0.221001
O O10 0.351927 0.000000 0.000000
O O11 0.750000 0.750000 0.806540
O O12 0.787055 0.831151 0.000000
O O13 0.500000 0.000000 0.832505
O O14 0.500000 0.876890 0.000000
#
# Coordination Sequence:
#
# PCOD9493478 Si02
#       7
#     8   8  16   4   8  16   8
#     4  12  24  41  60  87 127 164 206 249 305 389
#     4  12  22  34  53  85 119 156 199 248 316 386
#     4  12  23  39  59  87 122 167 204 254 310 367
#     4  12  20  36  52  77 122 157 190 234 298 366
#     4  12  20  33  57  86 120 155 201 253 308 378
#     4  11  21  34  55  85 117 152 199 256 319 375
#     4  11  24  41  63  92 124 164 217 264 311 370
#
# _framework density 17.997717000000002
#
# number of rings (size 3 to 8) (size 9 to 14) (size 15 to 20)
#    0.000    0.353    5.882    5.294    0.000    0.471 
#    0.000    0.588    0.000    0.706    0.000    2.471 
#    0.000    5.647    0.000    0.000    0.000    0.000 
#
# Total GULP energy -189454.131500 kJ/mol
# GULP energy per Si atom -5572.180338 kJ/mol
# Density = 1.795675 g / cm^3
# Si number density = 17.997717 Si / 1000 Ang^3
#
#
#
# Elastic Constant Matrix: (Units=GPa)
#
#
# Indices 1 2 3 4 5 6 
#
# 1 110.3631 40.9394 25.1238 0.0000 0.0000 0.0000
# 2 40.9394 118.4509 14.4920 0.0000 0.0000 0.0000
# 3 25.1238 14.4920 116.2681 0.0000 0.0000 0.0000
# 4 0.0000 0.0000 0.0000 21.9845 0.0000 0.0000
# 5 0.0000 0.0000 0.0000 0.0000 20.4217 0.0000
# 6 0.0000 0.0000 0.0000 0.0000 0.0000 31.3020
#
#
#
# Elastic Compliance Matrix: (Units=1/GPa)
#
#
# Indices 1 2 3 4 5 6 
#
# 1 0.010790 -0.003497 -0.001896 0.000000 0.000000 0.000000
# 2 -0.003497 0.009707 -0.000454 0.000000 0.000000 0.000000
# 3 -0.001896 -0.000454 0.009067 0.000000 0.000000 0.000000
# 4 0.000000 0.000000 0.000000 0.045487 0.000000 0.000000
# 5 0.000000 0.000000 0.000000 0.000000 0.048967 0.000000
# 6 0.000000 0.000000 0.000000 0.000000 0.000000 0.031947
#
#
# Mechanical properties :
#
#
# Convention : Reuss Voigt Hill
#
# Bulk Modulus (GPa) = 55.96161 56.24360 56.10261
# Shear Modulus (GPa) = 28.79933 32.37676 30.58805
#
# Velocity S-wave (km/s) = 4.00455 4.24599 4.12703
# Velocity P-wave (km/s) = 7.24866 7.44017 7.34504
#
# Compressibility (1/GPa) = 0.01786939
#
# Stress axis : x y z
#
# Youngs Moduli (GPa) = 92.67957 103.02235 110.28968
#
# Poissons Ratio (x) = 0.36030 0.20907
# Poissons Ratio (y) = 0.32413 0.05009
# Poissons Ratio (z) = 0.17568 0.04679
#
# Static dielectric constant tensor:
#      x y z
#    x 1.645580 0.000000 0.000000 
#    y 0.000000 1.655570 0.000000 
#    z 0.000000 0.000000 1.660940 
# 
# From -- ./inp_files/30352.got.cif
#   From: 2010.05.17/outbox.cif.g08.bks.cpg/sg65_16_cif.got.tgz:30352.got - 2010.06.03 17:01:31.
