data_PCOD9493015
_publ_section_title
;
Structure prediction by ZEFSAII (Michael W. Deem and Ramdas Pophale) SiO2 
 PCOD9493015
Probable space group: C M M M
;
_chemical_formula_sum "Si O2"
_cell_formula_units_Z 66
_cell_length_a 20.555073
_cell_length_b 18.717547
_cell_length_c 8.787403
_cell_angle_alpha 90.000000
_cell_angle_beta 90.000000
_cell_angle_gamma 90.000000
_cell_volume 3380.870219
_symmetry_space_group_name_H-M "C M M M"
_symmetry_group_IT_number 65
_symmetry_cell_setting 'orthorhombic'
loop_
_space_group_symop_operation_xyz
x,y,z
-x,-y,z
x,-y,-z
-x,y,-z
-x,-y,-z
x,y,-z
-x,y,z
x,-y,z
1/2+x,1/2+y,z
1/2-x,1/2-y,z
1/2+x,1/2-y,-z
1/2-x,1/2+y,-z
1/2-x,1/2-y,-z
1/2+x,1/2+y,-z
1/2-x,1/2+y,z
1/2+x,1/2-y,z
loop_
_atom_site_type_symbol
_atom_site_label
_atom_site_fract_x
_atom_site_fract_y
_atom_site_fract_z
Si Si1 0.258771 0.419556 0.317424
Si Si2 0.500000 0.084850 0.681897
Si Si3 0.133754 0.802477 0.682595
Si Si4 0.500000 0.500000 0.000000
Si Si5 0.367402 0.146939 0.181124
Si Si6 0.500000 0.351687 0.168389
O O1 0.249278 0.414416 0.500000
O O2 0.281442 0.500000 0.282618
O O3 0.311911 0.360628 0.272988
O O4 0.190759 0.403742 0.236975
O O5 0.500000 0.094847 0.500000
O O6 0.564378 0.120289 0.750905
O O7 0.500000 0.000000 0.713778
O O8 0.133410 0.796314 0.500000
O O9 0.147653 0.725660 0.754670
O O10 0.064116 0.828754 0.742358
O O11 0.500000 0.435830 0.130070
O O12 0.370846 0.148233 0.000000
O O13 0.500000 0.315619 0.000000
#
# Coordination Sequence:
#
# PCOD9493015 Si02
#       6
#    16   8  16   2  16   8
#     4  10  23  42  64  90 123 162 208 257 307 363
#     4  11  24  43  69  93 121 161 205 254 308 366
#     4  11  23  41  66  92 123 165 212 259 303 360
#     4   8  24  40  62  88 132 172 188 258 320 364
#     4  12  25  41  62  94 128 163 202 252 312 373
#     4  10  22  40  61  91 125 162 202 247 313 366
#
# _framework density 19.521601
#
# number of rings (size 3 to 8) (size 9 to 14) (size 15 to 20)
#    0.364    0.848    0.000    5.818    1.697    9.212 
#    0.000    0.606    0.000    0.000    0.000    0.000 
#    0.000    0.000    0.000    0.000    0.000    0.000 
#
# Total GULP energy -184300.612265 kJ/mol
# GULP energy per Si atom -5584.867038 kJ/mol
# Density = 1.947717 g / cm^3
# Si number density = 19.521601 Si / 1000 Ang^3
#
#
#
# Elastic Constant Matrix: (Units=GPa)
#
#
# Indices 1 2 3 4 5 6 
#
# 1 123.1606 40.2068 45.4720 0.0000 0.0000 0.0000
# 2 40.2068 130.2088 52.8276 0.0000 0.0000 0.0000
# 3 45.4720 52.8276 72.7056 0.0000 0.0000 0.0000
# 4 0.0000 0.0000 0.0000 18.9954 0.0000 0.0000
# 5 0.0000 0.0000 0.0000 0.0000 252.9560 0.0000
# 6 0.0000 0.0000 0.0000 0.0000 0.0000 23.4209
#
#
#
# Elastic Compliance Matrix: (Units=1/GPa)
#
#
# Indices 1 2 3 4 5 6 
#
# 1 0.010620 -0.000829 -0.006040 0.000000 0.000000 0.000000
# 2 -0.000829 0.010955 -0.007441 0.000000 0.000000 0.000000
# 3 -0.006040 -0.007441 0.022938 0.000000 0.000000 0.000000
# 4 0.000000 0.000000 0.000000 0.052644 0.000000 0.000000
# 5 0.000000 0.000000 0.000000 0.000000 0.003953 0.000000
# 6 0.000000 0.000000 0.000000 0.000000 0.000000 0.042697
#
#
# Mechanical properties :
#
#
# Convention : Reuss Voigt Hill
#
# Bulk Modulus (GPa) = 62.91977 67.00976 64.96476
# Shear Modulus (GPa) = 28.13320 71.57903 49.85611
#
# Velocity S-wave (km/s) = 3.80034 6.06186 5.05909
# Velocity P-wave (km/s) = 7.18036 9.13211 8.21441
#
# Compressibility (1/GPa) = 0.01589326
#
# Stress axis : x y z
#
# Youngs Moduli (GPa) = 94.16179 91.28220 43.59487
#
# Poissons Ratio (x) = 0.07566 0.26330
# Poissons Ratio (y) = 0.07805 0.32441
# Poissons Ratio (z) = 0.56871 0.67927
#
# Static dielectric constant tensor:
#      x y z
#    x 1.645640 0.000000 0.000000 
#    y 0.000000 1.689170 0.000000 
#    z 0.000000 0.000000 1.658560 
# 
# From -- ./inp_files/10966.got.cif
#   From: 2010.05.17/outbox.cif.g08.bks.cpg/sg65_6_cif.got.tgz:10966.got - 2010.06.03 17:01:31.
