data_PCOD9493209
_publ_section_title
;
Structure prediction by ZEFSAII (Michael W. Deem and Ramdas Pophale) SiO2 
 PCOD9493209
Probable space group: C M M M
;
_chemical_formula_sum "Si O2"
_cell_formula_units_Z 72
_cell_length_a 9.446164
_cell_length_b 29.248931
_cell_length_c 14.902005
_cell_angle_alpha 90.000000
_cell_angle_beta 90.000000
_cell_angle_gamma 90.000000
_cell_volume 4117.277928
_symmetry_space_group_name_H-M "C M M M"
_symmetry_group_IT_number 65
_symmetry_cell_setting 'orthorhombic'
loop_
_space_group_symop_operation_xyz
x,y,z
-x,-y,z
x,-y,-z
-x,y,-z
-x,-y,-z
x,y,-z
-x,y,z
x,-y,z
1/2+x,1/2+y,z
1/2-x,1/2-y,z
1/2+x,1/2-y,-z
1/2-x,1/2+y,-z
1/2-x,1/2-y,-z
1/2+x,1/2+y,-z
1/2-x,1/2+y,z
1/2+x,1/2-y,z
loop_
_atom_site_type_symbol
_atom_site_label
_atom_site_fract_x
_atom_site_fract_y
_atom_site_fract_z
Si Si1 0.670781 0.798463 0.000000
Si Si2 0.334576 0.703715 0.500000
Si Si3 0.669196 0.627852 0.647858
Si Si4 0.331830 0.865078 0.833509
Si Si5 0.157714 0.948629 0.107438
Si Si6 0.827899 0.053288 0.500000
O O1 0.750000 0.750000 0.000000
O O2 0.707249 0.828059 0.089323
O O3 0.500000 0.792079 0.000000
O O4 0.500000 0.714676 0.500000
O O5 0.250000 0.750000 0.500000
O O6 0.305896 0.671396 0.415400
O O7 0.500000 0.623823 0.663422
O O8 0.751341 0.637675 0.739182
O O9 0.712993 0.583033 0.588673
O O10 0.500000 0.862717 0.821510
O O11 0.280586 0.914253 0.868363
O O12 0.000000 0.933116 0.137886
O O13 0.179651 0.000000 0.142281
O O14 0.152191 0.950917 0.000000
O O15 0.000000 0.053294 0.500000
O O16 0.781800 0.000000 0.500000
#
# Coordination Sequence:
#
# PCOD9493209 Si02
#       6
#     8   8  16  16  16   8
#     4  10  24  42  57  76 105 145 190 233 281 334
#     4   9  19  36  57  79 107 138 174 223 280 334
#     4   9  19  35  55  82 110 140 180 223 270 328
#     4  11  22  37  55  80 114 147 182 228 281 331
#     4   9  18  33  54  79 105 139 184 224 259 308
#     4   8  15  32  58  83 109 142 179 221 265 313
#
# _framework density 17.487282
#
# number of rings (size 3 to 8) (size 9 to 14) (size 15 to 20)
#    0.000    2.556    1.111    2.667    0.000    4.889 
#    0.000    9.444    0.000    0.667    0.000    0.000 
#    0.000    0.000    0.000    0.000    0.000    0.000 
#
# Total GULP energy -200530.130029 kJ/mol
# GULP energy per Si atom -5570.281390 kJ/mol
# Density = 1.744748 g / cm^3
# Si number density = 17.487282 Si / 1000 Ang^3
#
#
#
# Elastic Constant Matrix: (Units=GPa)
#
#
# Indices 1 2 3 4 5 6 
#
# 1 47.1158 59.5753 62.0722 0.0000 0.0000 0.0000
# 2 59.5753 141.8451 76.1461 0.0000 0.0000 0.0000
# 3 62.0722 76.1461 144.5096 0.0000 0.0000 0.0000
# 4 0.0000 0.0000 0.0000 -53.3706 0.0000 0.0000
# 5 0.0000 0.0000 0.0000 0.0000 29.7084 0.0000
# 6 0.0000 0.0000 0.0000 0.0000 0.0000 31.0287
#
#
#
# Elastic Compliance Matrix: (Units=1/GPa)
#
#
# Indices 1 2 3 4 5 6 
#
# 1 0.074868 -0.019775 -0.021739 0.000000 0.000000 0.000000
# 2 -0.019775 0.015054 0.000562 0.000000 0.000000 0.000000
# 3 -0.021739 0.000562 0.015961 0.000000 0.000000 0.000000
# 4 0.000000 0.000000 0.000000 -0.018737 0.000000 0.000000
# 5 0.000000 0.000000 0.000000 0.000000 0.033661 0.000000
# 6 0.000000 0.000000 0.000000 0.000000 0.000000 0.032228
#
#
# Mechanical properties :
#
#
# Convention : Reuss Voigt Hill
#
# Bulk Modulus (GPa) = 41.70186 81.00642 61.35414
# Shear Modulus (GPa) = 20.58192 10.51841 15.55017
#
# Velocity S-wave (km/s) = 3.43441 2.45519 2.98523
# Velocity P-wave (km/s) = 6.29489 7.37976 6.85881
#
# Compressibility (1/GPa) = 0.02397974
#
# Stress axis : x y z
#
# Youngs Moduli (GPa) = 13.35689 66.42802 62.65076
#
# Poissons Ratio (x) = 1.31360 1.36194
# Poissons Ratio (y) = 0.26413 -0.03519
# Poissons Ratio (z) = 0.29036 -0.03731
#
# Static dielectric constant tensor:
#      x y z
#    x 1.580260 0.000000 0.000000 
#    y 0.000000 1.536690 0.000000 
#    z 0.000000 0.000000 1.405020 
# 
# From -- ./inp_files/36640.got.cif
#   From: 2010.05.17/outbox.cif.g08.bks.cpg/sg65_19_cif.got.tgz:36640.got - 2010.06.03 17:01:31.
