data_PCOD9493996
_publ_section_title
;
Structure prediction by ZEFSAII (Michael W. Deem and Ramdas Pophale) SiO2 
 PCOD9493996
Probable space group: C M M M
;
_chemical_formula_sum "Si O2"
_cell_formula_units_Z 72
_cell_length_a 9.491822
_cell_length_b 15.084680
_cell_length_c 25.056550
_cell_angle_alpha 90.000000
_cell_angle_beta 90.000000
_cell_angle_gamma 90.000000
_cell_volume 3587.624328
_symmetry_space_group_name_H-M "C M M M"
_symmetry_group_IT_number 65
_symmetry_cell_setting 'orthorhombic'
loop_
_space_group_symop_operation_xyz
x,y,z
-x,-y,z
x,-y,-z
-x,y,-z
-x,-y,-z
x,y,-z
-x,y,z
x,-y,z
1/2+x,1/2+y,z
1/2-x,1/2-y,z
1/2+x,1/2-y,-z
1/2-x,1/2+y,-z
1/2-x,1/2-y,-z
1/2+x,1/2+y,-z
1/2-x,1/2+y,z
1/2+x,1/2-y,z
loop_
_atom_site_type_symbol
_atom_site_label
_atom_site_fract_x
_atom_site_fract_y
_atom_site_fract_z
Si Si1 0.339208 0.108654 0.838642
Si Si2 0.336911 0.608193 0.940742
Si Si3 0.668006 0.338245 0.615569
Si Si4 0.335144 0.000000 0.563935
Si Si5 0.838825 0.106633 0.737369
O O1 0.500000 0.137472 0.840243
O O2 0.256234 0.138224 0.891263
O O3 0.264507 0.136784 0.783982
O O4 0.336499 0.000000 0.838650
O O5 0.500000 0.634348 0.934201
O O6 0.334706 0.500000 0.940214
O O7 0.288062 0.635504 0.000000
O O8 0.500000 0.336895 0.604122
O O9 0.750000 0.250000 0.599949
O O10 0.749139 0.416914 0.586354
O O11 0.683734 0.352097 0.679383
O O12 0.500000 0.000000 0.581375
O O13 0.333840 0.000000 0.500000
O O14 0.000000 0.123263 0.754189
O O15 0.823454 0.000000 0.731004
#
# Coordination Sequence:
#
# PCOD9493996 Si02
#       5
#    16  16  16   8  16
#     4   9  16  23  35  60  90 125 172 225 284 342
#     4   8  13  21  32  47  74 118 169 219 275 339
#     4  11  23  41  65  95 127 164 207 253 305 359
#     4  11  25  45  69  97 129 167 208 251 300 353
#     4   9  17  32  52  74 105 145 189 234 287 351
#
# _framework density 20.068989999999999
#
# number of rings (size 3 to 8) (size 9 to 14) (size 15 to 20)
#    0.000    2.556    1.111    2.333    0.000    6.222 
#    0.000    2.222    0.000    0.000    0.000    0.000 
#    0.000    0.889    0.000    2.889    0.000    5.778 
#
# Total GULP energy -201044.456170 kJ/mol
# GULP energy per Si atom -5584.568227 kJ/mol
# Density = 2.002331 g / cm^3
# Si number density = 20.068990 Si / 1000 Ang^3
#
#
#
# Elastic Constant Matrix: (Units=GPa)
#
#
# Indices 1 2 3 4 5 6 
#
# 1 159.1094 66.6702 84.6569 0.0000 0.0000 0.0000
# 2 66.6702 88.1327 38.9040 0.0000 0.0000 0.0000
# 3 84.6569 38.9040 79.7829 0.0000 0.0000 0.0000
# 4 0.0000 0.0000 0.0000 -63.2582 0.0000 0.0000
# 5 0.0000 0.0000 0.0000 0.0000 21.3243 0.0000
# 6 0.0000 0.0000 0.0000 0.0000 0.0000 14.7076
#
#
#
# Elastic Compliance Matrix: (Units=1/GPa)
#
#
# Indices 1 2 3 4 5 6 
#
# 1 0.016678 -0.006122 -0.014711 0.000000 0.000000 0.000000
# 2 -0.006122 0.016706 -0.001650 0.000000 0.000000 0.000000
# 3 -0.014711 -0.001650 0.028948 0.000000 0.000000 0.000000
# 4 0.000000 0.000000 0.000000 -0.015808 0.000000 0.000000
# 5 0.000000 0.000000 0.000000 0.000000 0.046895 0.000000
# 6 0.000000 0.000000 0.000000 0.000000 0.000000 0.067992
#
#
# Mechanical properties :
#
#
# Convention : Reuss Voigt Hill
#
# Bulk Modulus (GPa) = 57.58571 78.60969 68.09770
# Shear Modulus (GPa) = 23.56641 3.67434 13.62038
#
# Velocity S-wave (km/s) = 3.43048 1.35456 2.60797
# Velocity P-wave (km/s) = 6.66686 6.45765 6.56309
#
# Compressibility (1/GPa) = 0.01736542
#
# Stress axis : x y z
#
# Youngs Moduli (GPa) = 59.96036 59.85767 34.54424
#
# Poissons Ratio (x) = 0.36647 0.50818
# Poissons Ratio (y) = 0.36710 0.05700
# Poissons Ratio (z) = 0.88208 0.09876
#
# Static dielectric constant tensor:
#      x y z
#    x 1.669810 0.000000 0.000000 
#    y 0.000000 1.747150 0.000000 
#    z 0.000000 0.000000 1.679700 
# 
# From -- ./inp_files/67072.got.cif
#   From: 2010.05.17/outbox.cif.g08.bks.cpg/sg65_34_cif.got.tgz:67072.got - 2010.06.03 17:01:31.
