data_PCOD9493845
_publ_section_title
;
Structure prediction by ZEFSAII (Michael W. Deem and Ramdas Pophale) SiO2 
 PCOD9493845
Probable space group: C M M M
;
_chemical_formula_sum "Si O2"
_cell_formula_units_Z 64
_cell_length_a 21.142891
_cell_length_b 8.550280
_cell_length_c 16.078956
_cell_angle_alpha 90.000000
_cell_angle_beta 90.000000
_cell_angle_gamma 90.000000
_cell_volume 2906.715688
_symmetry_space_group_name_H-M "C M M M"
_symmetry_group_IT_number 65
_symmetry_cell_setting 'orthorhombic'
loop_
_space_group_symop_operation_xyz
x,y,z
-x,-y,z
x,-y,-z
-x,y,-z
-x,-y,-z
x,y,-z
-x,y,z
x,-y,z
1/2+x,1/2+y,z
1/2-x,1/2-y,z
1/2+x,1/2-y,-z
1/2-x,1/2+y,-z
1/2-x,1/2-y,-z
1/2+x,1/2+y,-z
1/2-x,1/2+y,z
1/2+x,1/2-y,z
loop_
_atom_site_type_symbol
_atom_site_label
_atom_site_fract_x
_atom_site_fract_y
_atom_site_fract_z
Si Si1 0.573217 0.811063 0.500000
Si Si2 0.223198 0.000000 0.902509
Si Si3 0.123544 0.319010 0.321244
Si Si4 0.925805 0.174161 0.834945
Si Si5 0.250000 0.250000 0.226930
Si Si6 0.123721 0.500000 0.091972
O O1 0.500000 0.753933 0.500000
O O2 0.611337 0.771408 0.416198
O O3 0.569420 0.000000 0.500000
O O4 0.212616 0.856967 0.839459
O O5 0.300225 0.000000 0.909285
O O6 0.201454 0.000000 0.000000
O O7 0.100862 0.500000 0.310914
O O8 0.086136 0.198606 0.263002
O O9 0.195722 0.317595 0.286985
O O10 0.897823 0.336010 0.869942
O O11 0.000000 0.178098 0.853029
O O12 0.903974 0.000000 0.863972
O O13 0.097709 0.500000 0.000000
#
# Coordination Sequence:
#
# PCOD9493845 Si02
#       6
#     8   8  16  16   8   8
#     4   9  20  39  67  99 127 168 224 275 330 406
#     4  11  24  41  62  93 126 169 228 273 325 397
#     4  11  22  40  65  94 130 173 223 274 334 399
#     4  11  23  39  63  95 129 172 222 274 337 402
#     4  12  21  39  64  92 124 170 216 273 329 390
#     4  11  23  44  67  92 128 174 223 278 338 401
#
# _framework density 22.017976000000001
#
# number of rings (size 3 to 8) (size 9 to 14) (size 15 to 20)
#    0.000    1.125    5.000    1.500    1.750    3.000 
#    0.000    1.875    0.000    2.250    0.000    0.000 
#    0.000    0.000    0.000    0.000    0.000    0.000 
#
# Total GULP energy -178389.111190 kJ/mol
# GULP energy per Si atom -5574.659725 kJ/mol
# Density = 2.196786 g / cm^3
# Si number density = 22.017976 Si / 1000 Ang^3
#
#
#
# Elastic Constant Matrix: (Units=GPa)
#
#
# Indices 1 2 3 4 5 6 
#
# 1 74.0270 33.0623 35.8632 0.0000 0.0000 0.0000
# 2 33.0623 138.3558 61.9715 0.0000 0.0000 0.0000
# 3 35.8632 61.9715 193.4476 0.0000 0.0000 0.0000
# 4 0.0000 0.0000 0.0000 -13.6234 0.0000 0.0000
# 5 0.0000 0.0000 0.0000 0.0000 21.5911 0.0000
# 6 0.0000 0.0000 0.0000 0.0000 0.0000 23.3652
#
#
#
# Elastic Compliance Matrix: (Units=1/GPa)
#
#
# Indices 1 2 3 4 5 6 
#
# 1 0.015760 -0.002869 -0.002003 0.000000 0.000000 0.000000
# 2 -0.002869 0.008961 -0.002339 0.000000 0.000000 0.000000
# 3 -0.002003 -0.002339 0.006290 0.000000 0.000000 0.000000
# 4 0.000000 0.000000 0.000000 -0.073403 0.000000 0.000000
# 5 0.000000 0.000000 0.000000 0.000000 0.046315 0.000000
# 6 0.000000 0.000000 0.000000 0.000000 0.000000 0.042799
#
#
# Mechanical properties :
#
#
# Convention : Reuss Voigt Hill
#
# Bulk Modulus (GPa) = 60.27751 74.18046 67.22898
# Shear Modulus (GPa) = 74.99314 24.59548 49.79431
#
# Velocity S-wave (km/s) = 5.84242 3.34588 4.76071
# Velocity P-wave (km/s) = 8.54095 6.97786 7.79866
#
# Compressibility (1/GPa) = 0.01658994
#
# Stress axis : x y z
#
# Youngs Moduli (GPa) = 63.45088 111.59562 158.98620
#
# Poissons Ratio (x) = 0.32018 0.31839
# Poissons Ratio (y) = 0.18205 0.37183
# Poissons Ratio (z) = 0.12707 0.26099
#
# Static dielectric constant tensor:
#      x y z
#    x 1.875630 0.000000 0.000000 
#    y 0.000000 1.894020 0.000000 
#    z 0.000000 0.000000 1.819090 
# 
# From -- ./inp_files/45164.got.cif
#   From: 2010.05.17/outbox.cif.g08.bks.cpg/sg65_23_cif.got.tgz:45164.got - 2010.06.03 17:01:31.
