data_PCOD9493493
_publ_section_title
;
Structure prediction by ZEFSAII (Michael W. Deem and Ramdas Pophale) SiO2 
 PCOD9493493
Probable space group: C M M M
;
_chemical_formula_sum "Si O2"
_cell_formula_units_Z 88
_cell_length_a 19.660140
_cell_length_b 18.440660
_cell_length_c 12.252744
_cell_angle_alpha 90.000000
_cell_angle_beta 90.000000
_cell_angle_gamma 90.000000
_cell_volume 4442.182803
_symmetry_space_group_name_H-M "C M M M"
_symmetry_group_IT_number 65
_symmetry_cell_setting 'orthorhombic'
loop_
_space_group_symop_operation_xyz
x,y,z
-x,-y,z
x,-y,-z
-x,y,-z
-x,-y,-z
x,y,-z
-x,y,z
x,-y,z
1/2+x,1/2+y,z
1/2-x,1/2-y,z
1/2+x,1/2-y,-z
1/2-x,1/2+y,-z
1/2-x,1/2-y,-z
1/2+x,1/2+y,-z
1/2-x,1/2+y,z
1/2+x,1/2-y,z
loop_
_atom_site_type_symbol
_atom_site_label
_atom_site_fract_x
_atom_site_fract_y
_atom_site_fract_z
Si Si1 0.582925 0.416708 0.500000
Si Si2 0.731991 0.915682 0.123928
Si Si3 0.875401 0.652376 0.727555
Si Si4 0.000000 0.412480 0.868832
Si Si5 0.079475 0.586711 0.500000
Si Si6 0.576813 0.688842 0.692365
Si Si7 0.895403 0.080261 0.126722
O O1 0.607323 0.500000 0.500000
O O2 0.500000 0.420165 0.500000
O O3 0.603692 0.369070 0.395649
O O4 0.694367 0.869151 0.214109
O O5 0.813434 0.914022 0.133127
O O6 0.710722 0.000000 0.135540
O O7 0.714000 0.892742 0.000000
O O8 0.886286 0.615461 0.610223
O O9 0.882079 0.737979 0.708524
O O10 0.934744 0.622723 0.808766
O O11 0.000000 0.500000 0.851887
O O12 0.000000 0.399706 0.000000
O O13 0.081211 0.500000 0.500000
O O14 0.000000 0.609798 0.500000
O O15 0.500000 0.710007 0.658743
O O16 0.574527 0.644454 0.803973
O O17 0.915022 0.000000 0.168410
O O18 0.914070 0.084130 0.000000
#
# Coordination Sequence:
#
# PCOD9493493 Si02
#       7
#     8  16  16   8   8  16  16
#     4   9  19  37  62  83 105 146 198 237 279 340
#     4   9  19  38  61  82 110 152 201 245 279 328
#     4  12  22  36  55  84 118 154 188 234 289 337
#     4  11  22  35  53  79 111 151 198 234 264 318
#     4  11  21  35  56  79 112 155 196 234 281 338
#     4  11  22  37  56  86 120 151 181 236 294 349
#     4   9  20  39  61  84 111 148 193 239 291 348
#
# _framework density 19.810081
#
# number of rings (size 3 to 8) (size 9 to 14) (size 15 to 20)
#    0.000    1.727    1.818    4.364    0.000    5.818 
#    0.000    3.636    0.000    5.455    0.000    0.000 
#    0.000    0.000    0.000    0.000    0.000    0.000 
#
# Total GULP energy -245828.169672 kJ/mol
# GULP energy per Si atom -5587.003856 kJ/mol
# Density = 1.976499 g / cm^3
# Si number density = 19.810081 Si / 1000 Ang^3
#
#
#
# Elastic Constant Matrix: (Units=GPa)
#
#
# Indices 1 2 3 4 5 6 
#
# 1 44.9691 27.6868 28.7304 0.0000 0.0000 0.0000
# 2 27.6868 137.5100 65.6901 0.0000 0.0000 0.0000
# 3 28.7304 65.6901 115.6509 0.0000 0.0000 0.0000
# 4 0.0000 0.0000 0.0000 -97.5838 0.0000 0.0000
# 5 0.0000 0.0000 0.0000 0.0000 8.1592 0.0000
# 6 0.0000 0.0000 0.0000 0.0000 0.0000 35.0515
#
#
#
# Elastic Compliance Matrix: (Units=1/GPa)
#
#
# Indices 1 2 3 4 5 6 
#
# 1 0.027366 -0.003105 -0.005035 0.000000 0.000000 0.000000
# 2 -0.003105 0.010332 -0.005098 0.000000 0.000000 0.000000
# 3 -0.005035 -0.005098 0.012793 0.000000 0.000000 0.000000
# 4 0.000000 0.000000 0.000000 -0.010248 0.000000 0.000000
# 5 0.000000 0.000000 0.000000 0.000000 0.122561 0.000000
# 6 0.000000 0.000000 0.000000 0.000000 0.000000 0.028529
#
#
# Mechanical properties :
#
#
# Convention : Reuss Voigt Hill
#
# Bulk Modulus (GPa) = 41.63741 60.26053 50.94897
# Shear Modulus (GPa) = 22.14211 0.86024 11.50117
#
# Velocity S-wave (km/s) = 3.34686 0.65969 2.41212
# Velocity P-wave (km/s) = 5.99993 5.57363 5.79071
#
# Compressibility (1/GPa) = 0.02401686
#
# Stress axis : x y z
#
# Youngs Moduli (GPa) = 36.54211 96.78202 78.16821
#
# Poissons Ratio (x) = 0.30048 0.39356
# Poissons Ratio (y) = 0.11345 0.39847
# Poissons Ratio (z) = 0.18398 0.49336
#
# Static dielectric constant tensor:
#      x y z
#    x 1.710870 0.000000 0.000000 
#    y 0.000000 1.673480 0.000000 
#    z 0.000000 0.000000 1.696470 
# 
# From -- ./inp_files/30553.got.cif
#   From: 2010.05.17/outbox.cif.g08.bks.cpg/sg65_16_cif.got.tgz:30553.got - 2010.06.03 17:01:31.
