data_PCOD9493277
_publ_section_title
;
Structure prediction by ZEFSAII (Michael W. Deem and Ramdas Pophale) SiO2 
 PCOD9493277
Probable space group: C M M M
;
_chemical_formula_sum "Si O2"
_cell_formula_units_Z 88
_cell_length_a 14.601553
_cell_length_b 26.125568
_cell_length_c 14.164175
_cell_angle_alpha 90.000000
_cell_angle_beta 90.000000
_cell_angle_gamma 90.000000
_cell_volume 5403.262593
_symmetry_space_group_name_H-M "C M M M"
_symmetry_group_IT_number 65
_symmetry_cell_setting 'orthorhombic'
loop_
_space_group_symop_operation_xyz
x,y,z
-x,-y,z
x,-y,-z
-x,y,-z
-x,-y,-z
x,y,-z
-x,y,z
x,-y,z
1/2+x,1/2+y,z
1/2-x,1/2-y,z
1/2+x,1/2-y,-z
1/2-x,1/2+y,-z
1/2-x,1/2-y,-z
1/2+x,1/2+y,-z
1/2-x,1/2+y,z
1/2+x,1/2-y,z
loop_
_atom_site_type_symbol
_atom_site_label
_atom_site_fract_x
_atom_site_fract_y
_atom_site_fract_z
Si Si1 0.109565 0.805907 0.607820
Si Si2 0.105043 0.296301 0.271410
Si Si3 0.394305 0.281828 0.109972
Si Si4 0.000000 0.558087 0.113816
Si Si5 0.797253 0.561792 0.110493
Si Si6 0.781703 0.141774 0.238790
O O1 0.142025 0.806055 0.500000
O O2 0.128275 0.751248 0.658645
O O3 0.152708 0.850446 0.671616
O O4 0.000000 0.811077 0.608652
O O5 0.108989 0.271044 0.167303
O O6 0.183331 0.338205 0.274573
O O7 0.000000 0.312549 0.289871
O O8 0.500000 0.300709 0.121040
O O9 0.324125 0.319761 0.160534
O O10 0.375107 0.275638 0.000000
O O11 0.099177 0.580724 0.135750
O O12 0.000000 0.500000 0.151792
O O13 0.000000 0.554458 0.000000
O O14 0.796306 0.500000 0.115827
O O15 0.730493 0.588485 0.184659
O O16 0.778979 0.575074 0.000000
#
# Coordination Sequence:
#
# PCOD9493277 Si02
#       6
#    16  16  16   8  16  16
#     4   9  18  34  53  71  94 123 154 191 237 288
#     4   9  19  30  41  67  99 123 151 188 229 279
#     4   9  17  29  42  59  90 126 154 184 228 282
#     4   7  12  26  44  60  85 123 161 191 222 262
#     4   9  18  31  46  67  96 129 164 199 232 269
#     4  11  19  27  48  71  91 120 159 199 234 277
#
# _framework density 16.286456999999999
#
# number of rings (size 3 to 8) (size 9 to 14) (size 15 to 20)
#    0.000    2.818    0.000    5.455    1.273    3.636 
#    0.000    0.000    0.000    2.727    0.000    7.636 
#    0.000    2.182    0.000    0.000    0.000    0.000 
#
# Total GULP energy -244961.079556 kJ/mol
# GULP energy per Si atom -5567.297263 kJ/mol
# Density = 1.624939 g / cm^3
# Si number density = 16.286457 Si / 1000 Ang^3
#
#
#
# Elastic Constant Matrix: (Units=GPa)
#
#
# Indices 1 2 3 4 5 6 
#
# 1 42.6732 16.5168 23.8714 0.0000 0.0000 0.0000
# 2 16.5168 29.8981 21.5552 0.0000 0.0000 0.0000
# 3 23.8714 21.5552 107.7820 0.0000 0.0000 0.0000
# 4 0.0000 0.0000 0.0000 10.0690 0.0000 0.0000
# 5 0.0000 0.0000 0.0000 0.0000 19.0383 0.0000
# 6 0.0000 0.0000 0.0000 0.0000 0.0000 12.3899
#
#
#
# Elastic Compliance Matrix: (Units=1/GPa)
#
#
# Indices 1 2 3 4 5 6 
#
# 1 0.031253 -0.014343 -0.004053 0.000000 0.000000 0.000000
# 2 -0.014343 0.045664 -0.005956 0.000000 0.000000 0.000000
# 3 -0.004053 -0.005956 0.011367 0.000000 0.000000 0.000000
# 4 0.000000 0.000000 0.000000 0.099315 0.000000 0.000000
# 5 0.000000 0.000000 0.000000 0.000000 0.052526 0.000000
# 6 0.000000 0.000000 0.000000 0.000000 0.000000 0.080711
#
#
# Mechanical properties :
#
#
# Convention : Reuss Voigt Hill
#
# Bulk Modulus (GPa) = 25.26535 33.80448 29.53491
# Shear Modulus (GPa) = 13.06396 16.19344 14.62870
#
# Velocity S-wave (km/s) = 2.83527 3.15666 3.00027
# Velocity P-wave (km/s) = 5.12495 5.83843 5.49329
#
# Compressibility (1/GPa) = 0.03957991
#
# Stress axis : x y z
#
# Youngs Moduli (GPa) = 31.99707 21.89895 87.97547
#
# Poissons Ratio (x) = 0.31409 0.35660
# Poissons Ratio (y) = 0.45893 0.52396
# Poissons Ratio (z) = 0.12970 0.13042
#
# Static dielectric constant tensor:
#      x y z
#    x 1.603190 0.000000 0.000000 
#    y 0.000000 1.537200 0.000000 
#    z 0.000000 0.000000 1.547790 
# 
# From -- ./inp_files/40593.got.cif
#   From: 2010.05.17/outbox.cif.g08.bks.cpg/sg65_21_cif.got.tgz:40593.got - 2010.06.03 17:01:31.
