data_PCOD9493517
_publ_section_title
;
Structure prediction by ZEFSAII (Michael W. Deem and Ramdas Pophale) SiO2 
 PCOD9493517
Probable space group: C M M M
;
_chemical_formula_sum "Si O2"
_cell_formula_units_Z 80
_cell_length_a 8.306162
_cell_length_b 24.451594
_cell_length_c 21.110610
_cell_angle_alpha 90.000000
_cell_angle_beta 90.000000
_cell_angle_gamma 90.000000
_cell_volume 4287.541689
_symmetry_space_group_name_H-M "C M M M"
_symmetry_group_IT_number 65
_symmetry_cell_setting 'orthorhombic'
loop_
_space_group_symop_operation_xyz
x,y,z
-x,-y,z
x,-y,-z
-x,y,-z
-x,-y,-z
x,y,-z
-x,y,z
x,-y,z
1/2+x,1/2+y,z
1/2-x,1/2-y,z
1/2+x,1/2-y,-z
1/2-x,1/2+y,-z
1/2-x,1/2-y,-z
1/2+x,1/2+y,-z
1/2-x,1/2+y,z
1/2+x,1/2-y,z
loop_
_atom_site_type_symbol
_atom_site_label
_atom_site_fract_x
_atom_site_fract_y
_atom_site_fract_z
Si Si1 0.692674 0.617090 0.310713
Si Si2 0.192969 0.687811 0.809004
Si Si3 0.805410 0.811396 0.571875
Si Si4 0.303607 0.000000 0.876856
Si Si5 0.192373 0.500000 0.269628
Si Si6 0.803337 0.617637 0.928975
O O1 0.500000 0.617384 0.311659
O O2 0.749115 0.652185 0.250403
O O3 0.751583 0.646446 0.374885
O O4 0.750600 0.555232 0.302821
O O5 0.250000 0.750000 0.804317
O O6 0.249965 0.658957 0.874034
O O7 0.000000 0.686868 0.809000
O O8 0.750738 0.823696 0.500000
O O9 0.750000 0.750000 0.587751
O O10 0.000000 0.811890 0.571810
O O11 0.250418 0.000000 0.803687
O O12 0.253022 0.944053 0.910721
O O13 0.500000 0.000000 0.877097
O O14 0.000000 0.500000 0.267644
O O15 0.000000 0.617918 0.928718
O O16 0.750485 0.631739 0.000000
#
# Coordination Sequence:
#
# PCOD9493517 Si02
#       6
#    16  16  16   8   8  16
#     4  11  22  37  58  84 112 145 183 226 276 327
#     4  11  22  36  54  79 110 145 186 229 277 329
#     4   9  19  36  58  84 113 145 183 225 270 320
#     4   9  15  29  52  79 103 131 173 224 273 320
#     4  11  21  36  58  84 112 146 183 225 275 325
#     4   9  17  30  51  78 106 138 180 228 277 329
#
# _framework density 18.658709999999999
#
# number of rings (size 3 to 8) (size 9 to 14) (size 15 to 20)
#    0.000    2.000    2.000    2.400    0.000    4.800 
#    0.000    0.500    0.000    4.800    0.000    1.400 
#    0.000    0.000    0.000    0.000    0.000    0.000 
#
# Total GULP energy -223356.082828 kJ/mol
# GULP energy per Si atom -5583.902071 kJ/mol
# Density = 1.861624 g / cm^3
# Si number density = 18.658710 Si / 1000 Ang^3
#
#
#
# Elastic Constant Matrix: (Units=GPa)
#
#
# Indices 1 2 3 4 5 6 
#
# 1 23.6251 20.6868 22.1722 0.0000 0.0000 0.0000
# 2 20.6868 176.9470 107.7150 0.0000 0.0000 0.0000
# 3 22.1722 107.7150 163.0246 0.0000 0.0000 0.0000
# 4 0.0000 0.0000 0.0000 37.4567 0.0000 0.0000
# 5 0.0000 0.0000 0.0000 0.0000 19.0287 0.0000
# 6 0.0000 0.0000 0.0000 0.0000 0.0000 19.2988
#
#
#
# Elastic Compliance Matrix: (Units=1/GPa)
#
#
# Indices 1 2 3 4 5 6 
#
# 1 0.049346 -0.002816 -0.004851 0.000000 0.000000 0.000000
# 2 -0.002816 0.009615 -0.005970 0.000000 0.000000 0.000000
# 3 -0.004851 -0.005970 0.010738 0.000000 0.000000 0.000000
# 4 0.000000 0.000000 0.000000 0.026698 0.000000 0.000000
# 5 0.000000 0.000000 0.000000 0.000000 0.052552 0.000000
# 6 0.000000 0.000000 0.000000 0.000000 0.000000 0.051817
#
#
# Mechanical properties :
#
#
# Convention : Reuss Voigt Hill
#
# Bulk Modulus (GPa) = 23.57049 73.86054 48.71551
# Shear Modulus (GPa) = 20.64579 29.35835 25.00207
#
# Velocity S-wave (km/s) = 3.33001 3.97096 3.66453
# Velocity P-wave (km/s) = 5.23881 7.79074 6.63856
#
# Compressibility (1/GPa) = 0.04242594
#
# Stress axis : x y z
#
# Youngs Moduli (GPa) = 20.26497 104.00828 93.12692
#
# Poissons Ratio (x) = 0.29292 0.45171
# Poissons Ratio (y) = 0.05707 0.55593
# Poissons Ratio (z) = 0.09830 0.62089
#
# Static dielectric constant tensor:
#      x y z
#    x 1.652140 0.000000 0.000000 
#    y 0.000000 1.603450 0.000000 
#    z 0.000000 0.000000 1.651300 
# 
# From -- ./inp_files/59649.got.cif
#   From: 2010.05.17/outbox.cif.g08.bks.cpg/sg65_30_cif.got.tgz:59649.got - 2010.06.03 17:01:31.
