data_PCOD9493698
_publ_section_title
;
Structure prediction by ZEFSAII (Michael W. Deem and Ramdas Pophale) SiO2 
 PCOD9493698
Probable space group: C M M M
;
_chemical_formula_sum "Si O2"
_cell_formula_units_Z 104
_cell_length_a 8.683235
_cell_length_b 23.628195
_cell_length_c 29.098168
_cell_angle_alpha 90.000000
_cell_angle_beta 90.000000
_cell_angle_gamma 90.000000
_cell_volume 5970.046972
_symmetry_space_group_name_H-M "C M M M"
_symmetry_group_IT_number 65
_symmetry_cell_setting 'orthorhombic'
loop_
_space_group_symop_operation_xyz
x,y,z
-x,-y,z
x,-y,-z
-x,y,-z
-x,-y,-z
x,y,-z
-x,y,z
x,-y,z
1/2+x,1/2+y,z
1/2-x,1/2-y,z
1/2+x,1/2-y,-z
1/2-x,1/2+y,-z
1/2-x,1/2-y,-z
1/2+x,1/2+y,-z
1/2-x,1/2+y,z
1/2+x,1/2-y,z
loop_
_atom_site_type_symbol
_atom_site_label
_atom_site_fract_x
_atom_site_fract_y
_atom_site_fract_z
Si Si1 0.314066 0.186106 0.450659
Si Si2 0.184261 0.384494 0.739023
Si Si3 0.181974 0.188061 0.821413
Si Si4 0.183376 0.000000 0.777554
Si Si5 0.186244 0.313833 0.650431
Si Si6 0.816436 0.313494 0.000000
Si Si7 0.317955 0.382972 0.085214
Si Si8 0.316326 0.000000 0.881413
O O1 0.265815 0.159881 0.500000
O O2 0.500000 0.187717 0.450696
O O3 0.250000 0.250000 0.451037
O O4 0.267265 0.163788 0.400421
O O5 0.231195 0.342039 0.779703
O O6 0.261546 0.444161 0.750893
O O7 0.234441 0.355437 0.691275
O O8 0.000000 0.391807 0.738191
O O9 0.250000 0.250000 0.828855
O O10 0.201625 0.151118 0.867224
O O11 0.000000 0.191227 0.811058
O O12 0.253310 0.000000 0.829048
O O13 0.000000 0.000000 0.782211
O O14 0.250000 0.250000 0.656580
O O15 0.000000 0.310002 0.651809
O O16 0.750000 0.250000 0.000000
O O17 0.758430 0.347549 0.955503
O O18 0.000000 0.310372 0.000000
O O19 0.500000 0.388799 0.076292
O O20 0.243946 0.444202 0.092956
O O21 0.500000 0.000000 0.879754
#
# Coordination Sequence:
#
# PCOD9493698 Si02
#       8
#    16  16  16   8  16   8  16   8
#     4   8  13  23  40  63  95 135 176 217 263 318
#     4  11  22  36  55  78 107 142 182 228 279 330
#     4  11  23  37  57  83 114 148 187 226 271 330
#     4  12  24  40  59  81 109 143 186 231 276 330
#     4   9  18  30  46  73 107 142 179 221 271 326
#     4  12  26  45  68  95 126 158 196 236 282 336
#     4  11  24  43  66  91 121 155 193 235 280 329
#     4  12  24  41  67  94 120 149 188 234 281 331
#
# _framework density 17.420297999999999
#
# number of rings (size 3 to 8) (size 9 to 14) (size 15 to 20)
#    0.000    1.538    1.538    4.385    0.000    5.846 
#    0.000    1.538    0.000    0.000    0.000    0.538 
#    0.000    4.308    0.000    0.000    0.000    0.000 
#
# Total GULP energy -290299.033566 kJ/mol
# GULP energy per Si atom -5582.673722 kJ/mol
# Density = 1.738065 g / cm^3
# Si number density = 17.420298 Si / 1000 Ang^3
#
#
#
# Elastic Constant Matrix: (Units=GPa)
#
#
# Indices 1 2 3 4 5 6 
#
# 1 89.5180 57.9543 65.4217 0.0000 0.0000 0.0000
# 2 57.9543 134.3886 63.7007 0.0000 0.0000 0.0000
# 3 65.4217 63.7007 145.3622 0.0000 0.0000 0.0000
# 4 0.0000 0.0000 0.0000 50.9566 0.0000 0.0000
# 5 0.0000 0.0000 0.0000 0.0000 14.7952 0.0000
# 6 0.0000 0.0000 0.0000 0.0000 0.0000 16.0348
#
#
#
# Elastic Compliance Matrix: (Units=1/GPa)
#
#
# Indices 1 2 3 4 5 6 
#
# 1 0.019224 -0.005287 -0.006335 0.000000 0.000000 0.000000
# 2 -0.005287 0.010846 -0.002373 0.000000 0.000000 0.000000
# 3 -0.006335 -0.002373 0.010770 0.000000 0.000000 0.000000
# 4 0.000000 0.000000 0.000000 0.019625 0.000000 0.000000
# 5 0.000000 0.000000 0.000000 0.000000 0.067589 0.000000
# 6 0.000000 0.000000 0.000000 0.000000 0.000000 0.062365
#
#
# Mechanical properties :
#
#
# Convention : Reuss Voigt Hill
#
# Bulk Modulus (GPa) = 77.82552 82.60245 80.21398
# Shear Modulus (GPa) = 22.45247 28.50346 25.47797
#
# Velocity S-wave (km/s) = 3.59398 4.04941 3.82847
# Velocity P-wave (km/s) = 7.87365 8.32970 8.10489
#
# Compressibility (1/GPa) = 0.01284926
#
# Stress axis : x y z
#
# Youngs Moduli (GPa) = 52.01958 92.19767 92.84663
#
# Poissons Ratio (x) = 0.48748 0.58816
# Poissons Ratio (y) = 0.27505 0.22036
# Poissons Ratio (z) = 0.32953 0.21882
#
# Static dielectric constant tensor:
#      x y z
#    x 1.588100 0.000000 0.000000 
#    y 0.000000 1.558050 0.000000 
#    z 0.000000 0.000000 1.621150 
# 
# From -- ./inp_files/76956.got.cif
#   From: 2010.05.17/outbox.cif.g08.bks.cpg/sg65_39_cif.got.tgz:76956.got - 2010.06.03 17:01:31.
