data_PCOD9493643
_publ_section_title
;
Structure prediction by ZEFSAII (Michael W. Deem and Ramdas Pophale) SiO2 
 PCOD9493643
Probable space group: C M M M
;
_chemical_formula_sum "Si O2"
_cell_formula_units_Z 72
_cell_length_a 8.976790
_cell_length_b 32.419770
_cell_length_c 13.847963
_cell_angle_alpha 90.000000
_cell_angle_beta 90.000000
_cell_angle_gamma 90.000000
_cell_volume 4030.109901
_symmetry_space_group_name_H-M "C M M M"
_symmetry_group_IT_number 65
_symmetry_cell_setting 'orthorhombic'
loop_
_space_group_symop_operation_xyz
x,y,z
-x,-y,z
x,-y,-z
-x,y,-z
-x,-y,-z
x,y,-z
-x,y,z
x,-y,z
1/2+x,1/2+y,z
1/2-x,1/2-y,z
1/2+x,1/2-y,-z
1/2-x,1/2+y,-z
1/2-x,1/2-y,-z
1/2+x,1/2+y,-z
1/2-x,1/2+y,z
1/2+x,1/2-y,z
loop_
_atom_site_type_symbol
_atom_site_label
_atom_site_fract_x
_atom_site_fract_y
_atom_site_fract_z
Si Si1 0.822700 0.207001 0.202076
Si Si2 0.821883 0.330008 0.388992
Si Si3 0.821811 0.627571 0.109691
Si Si4 0.322055 0.500000 0.388322
Si Si5 0.322866 0.080843 0.699323
O O1 0.750000 0.250000 0.171458
O O2 0.766326 0.196461 0.310519
O O3 0.762698 0.169437 0.137162
O O4 0.000000 0.209320 0.199173
O O5 0.784571 0.321059 0.500000
O O6 0.792447 0.378184 0.364433
O O7 0.000000 0.323654 0.375195
O O8 0.783760 0.593981 0.191192
O O9 0.000000 0.635199 0.118999
O O10 0.790609 0.615035 0.000000
O O11 0.500000 0.500000 0.386062
O O12 0.272162 0.500000 0.500000
O O13 0.261686 0.541050 0.337659
O O14 0.500000 0.073108 0.694512
#
# Coordination Sequence:
#
# PCOD9493643 Si02
#       5
#    16  16  16   8  16
#     4  11  22  35  52  76 107 140 176 218 262 312
#     4   9  18  34  55  77 103 137 177 220 266 316
#     4   9  19  38  61  81 103 133 171 217 267 317
#     4  11  23  35  50  77 112 146 177 211 252 299
#     4   9  18  34  56  80 104 134 173 214 258 309
#
# _framework density 17.865517000000001
#
# number of rings (size 3 to 8) (size 9 to 14) (size 15 to 20)
#    0.000    2.333    0.000    4.333    0.000    7.111 
#    0.000    0.556    0.000    3.333    0.000    0.000 
#    0.000    0.000    0.000    0.000    0.000    0.000 
#
# Total GULP energy -200978.079650 kJ/mol
# GULP energy per Si atom -5582.724435 kJ/mol
# Density = 1.782485 g / cm^3
# Si number density = 17.865517 Si / 1000 Ang^3
#
#
#
# Elastic Constant Matrix: (Units=GPa)
#
#
# Indices 1 2 3 4 5 6 
#
# 1 52.9259 45.8235 33.8893 0.0000 0.0000 0.0000
# 2 45.8235 95.8891 32.1313 0.0000 0.0000 0.0000
# 3 33.8893 32.1313 106.5269 0.0000 0.0000 0.0000
# 4 0.0000 0.0000 0.0000 5.1960 0.0000 0.0000
# 5 0.0000 0.0000 0.0000 0.0000 23.1658 0.0000
# 6 0.0000 0.0000 0.0000 0.0000 0.0000 29.5642
#
#
#
# Elastic Compliance Matrix: (Units=1/GPa)
#
#
# Indices 1 2 3 4 5 6 
#
# 1 0.036443 -0.015052 -0.007053 0.000000 0.000000 0.000000
# 2 -0.015052 0.017818 -0.000586 0.000000 0.000000 0.000000
# 3 -0.007053 -0.000586 0.011808 0.000000 0.000000 0.000000
# 4 0.000000 0.000000 0.000000 0.192457 0.000000 0.000000
# 5 0.000000 0.000000 0.000000 0.000000 0.043167 0.000000
# 6 0.000000 0.000000 0.000000 0.000000 0.000000 0.033825
#
#
# Mechanical properties :
#
#
# Convention : Reuss Voigt Hill
#
# Bulk Modulus (GPa) = 48.34122 53.22555 50.78338
# Shear Modulus (GPa) = 12.89341 21.15172 17.02256
#
# Velocity S-wave (km/s) = 2.68935 3.44458 3.09012
# Velocity P-wave (km/s) = 6.06305 6.75849 6.42019
#
# Compressibility (1/GPa) = 0.02068628
#
# Stress axis : x y z
#
# Youngs Moduli (GPa) = 27.44042 56.12320 84.68854
#
# Poissons Ratio (x) = 0.84475 0.59735
# Poissons Ratio (y) = 0.41302 0.04963
# Poissons Ratio (z) = 0.19355 0.03289
#
# Static dielectric constant tensor:
#      x y z
#    x 1.593810 0.000000 0.000000 
#    y 0.000000 1.581050 0.000000 
#    z 0.000000 0.000000 1.617630 
# 
# From -- ./inp_files/36965.got.cif
#   From: 2010.05.17/outbox.cif.g08.bks.cpg/sg65_19_cif.got.tgz:36965.got - 2010.06.03 17:01:31.
