data_PCOD9493549
_publ_section_title
;
Structure prediction by ZEFSAII (Michael W. Deem and Ramdas Pophale) SiO2 
 PCOD9493549
Probable space group: C M M M
;
_chemical_formula_sum "Si O2"
_cell_formula_units_Z 64
_cell_length_a 10.884435
_cell_length_b 24.786460
_cell_length_c 12.599849
_cell_angle_alpha 90.000000
_cell_angle_beta 90.000000
_cell_angle_gamma 90.000000
_cell_volume 3399.270583
_symmetry_space_group_name_H-M "C M M M"
_symmetry_group_IT_number 65
_symmetry_cell_setting 'orthorhombic'
loop_
_space_group_symop_operation_xyz
x,y,z
-x,-y,z
x,-y,-z
-x,y,-z
-x,-y,-z
x,y,-z
-x,y,z
x,-y,z
1/2+x,1/2+y,z
1/2-x,1/2-y,z
1/2+x,1/2-y,-z
1/2-x,1/2+y,-z
1/2-x,1/2-y,-z
1/2+x,1/2+y,-z
1/2-x,1/2+y,z
1/2+x,1/2-y,z
loop_
_atom_site_type_symbol
_atom_site_label
_atom_site_fract_x
_atom_site_fract_y
_atom_site_fract_z
Si Si1 0.239662 0.062087 0.282183
Si Si2 0.146881 0.149729 0.874151
Si Si3 0.500000 0.086002 0.373698
Si Si4 0.000000 0.283665 0.623496
Si Si5 0.144230 0.061452 0.500000
Si Si6 0.250000 0.250000 0.744604
O O1 0.198340 0.096228 0.182100
O O2 0.382352 0.064646 0.310981
O O3 0.182758 0.087662 0.389987
O O4 0.198301 0.000000 0.271959
O O5 0.215315 0.199307 0.818107
O O6 0.000000 0.153614 0.856070
O O7 0.168169 0.149561 0.000000
O O8 0.500000 0.070659 0.500000
O O9 0.500000 0.151072 0.370148
O O10 0.126588 0.263115 0.677354
O O11 0.000000 0.267896 0.500000
O O12 0.000000 0.056987 0.500000
O O13 0.198044 0.000000 0.500000
#
# Coordination Sequence:
#
# PCOD9493549 Si02
#       6
#    16  16   8   8   8   8
#     4  11  22  38  61  92 127 165 211 261 317 384
#     4  11  25  44  66  92 122 169 224 270 322 379
#     4  11  21  38  63  94 132 171 207 251 315 397
#     4  11  24  41  68 102 138 170 209 266 330 394
#     4   9  18  33  55  84 119 157 199 248 308 375
#     4  12  22  46  68  96 130 169 221 268 324 390
#
# _framework density 18.827567999999999
#
# number of rings (size 3 to 8) (size 9 to 14) (size 15 to 20)
#    0.000    1.125    5.000    1.875    0.000    2.500 
#    2.250    3.125    0.000    1.500    0.000    0.000 
#    0.000    0.000    0.000    0.000    0.000    0.000 
#
# Total GULP energy -178678.672379 kJ/mol
# GULP energy per Si atom -5583.708512 kJ/mol
# Density = 1.878472 g / cm^3
# Si number density = 18.827568 Si / 1000 Ang^3
#
#
#
# Elastic Constant Matrix: (Units=GPa)
#
#
# Indices 1 2 3 4 5 6 
#
# 1 128.5496 29.5745 78.6497 0.0000 0.0000 0.0000
# 2 29.5745 92.2968 62.6105 0.0000 0.0000 0.0000
# 3 78.6497 62.6105 150.6879 0.0000 0.0000 0.0000
# 4 0.0000 0.0000 0.0000 53.4701 0.0000 0.0000
# 5 0.0000 0.0000 0.0000 0.0000 19.3386 0.0000
# 6 0.0000 0.0000 0.0000 0.0000 0.0000 0.6722
#
#
#
# Elastic Compliance Matrix: (Units=1/GPa)
#
#
# Indices 1 2 3 4 5 6 
#
# 1 0.011448 0.000536 -0.006198 0.000000 0.000000 0.000000
# 2 0.000536 0.015112 -0.006559 0.000000 0.000000 0.000000
# 3 -0.006198 -0.006559 0.012596 0.000000 0.000000 0.000000
# 4 0.000000 0.000000 0.000000 0.018702 0.000000 0.000000
# 5 0.000000 0.000000 0.000000 0.000000 0.051710 0.000000
# 6 0.000000 0.000000 0.000000 0.000000 0.000000 1.487593
#
#
# Mechanical properties :
#
#
# Convention : Reuss Voigt Hill
#
# Bulk Modulus (GPa) = 67.95742 79.24485 73.60113
# Shear Modulus (GPa) = 3.07407 28.07615 15.57511
#
# Velocity S-wave (km/s) = 1.27918 3.86583 2.87932
# Velocity P-wave (km/s) = 6.19312 7.88082 7.08739
#
# Compressibility (1/GPa) = 0.01471510
#
# Stress axis : x y z
#
# Youngs Moduli (GPa) = 87.35393 66.17209 79.38849
#
# Poissons Ratio (x) = -0.03548 0.49203
# Poissons Ratio (y) = -0.04684 0.52070
# Poissons Ratio (z) = 0.54140 0.43402
#
# Static dielectric constant tensor:
#      x y z
#    x 1.784020 0.000000 0.000000 
#    y 0.000000 1.665230 0.000000 
#    z 0.000000 0.000000 1.633740 
# 
# From -- ./inp_files/22301.got.cif
#   From: 2010.05.17/outbox.cif.g08.bks.cpg/sg65_12_cif.got.tgz:22301.got - 2010.06.03 17:01:31.
