data_PCOD9493881
_publ_section_title
;
Structure prediction by ZEFSAII (Michael W. Deem and Ramdas Pophale) SiO2 
 PCOD9493881
Probable space group: C M M M
;
_chemical_formula_sum "Si O2"
_cell_formula_units_Z 72
_cell_length_a 28.054263
_cell_length_b 7.683711
_cell_length_c 16.615990
_cell_angle_alpha 90.000000
_cell_angle_beta 90.000000
_cell_angle_gamma 90.000000
_cell_volume 3581.756915
_symmetry_space_group_name_H-M "C M M M"
_symmetry_group_IT_number 65
_symmetry_cell_setting 'orthorhombic'
loop_
_space_group_symop_operation_xyz
x,y,z
-x,-y,z
x,-y,-z
-x,y,-z
-x,-y,-z
x,y,-z
-x,y,z
x,-y,z
1/2+x,1/2+y,z
1/2-x,1/2-y,z
1/2+x,1/2-y,-z
1/2-x,1/2+y,-z
1/2-x,1/2-y,-z
1/2+x,1/2+y,-z
1/2-x,1/2+y,z
1/2+x,1/2-y,z
loop_
_atom_site_type_symbol
_atom_site_label
_atom_site_fract_x
_atom_site_fract_y
_atom_site_fract_z
Si Si1 0.803415 0.208602 0.246124
Si Si2 0.399710 0.291480 0.169080
Si Si3 0.053400 0.294194 0.000000
Si Si4 0.052914 0.787590 0.666386
Si Si5 0.348151 0.287473 0.411049
O O1 0.750000 0.250000 0.221206
O O2 0.846304 0.272762 0.189191
O O3 0.815311 0.271439 0.336851
O O4 0.807029 0.000000 0.248299
O O5 0.398682 0.500000 0.175524
O O6 0.433616 0.232038 0.242523
O O7 0.419027 0.251461 0.081392
O O8 0.048828 0.500000 0.000000
O O9 0.000000 0.216421 0.000000
O O10 0.097465 0.736240 0.610842
O O11 0.000000 0.728084 0.643722
O O12 0.052235 0.000000 0.665193
O O13 0.334491 0.227543 0.500000
O O14 0.347158 0.500000 0.411394
#
# Coordination Sequence:
#
# PCOD9493881 Si02
#       5
#    16  16   8  16  16
#     4   9  18  32  50  71  94 124 162 200 239 283
#     4   9  18  33  51  70  94 126 163 197 231 279
#     4  11  23  35  50  77 106 125 148 187 232 277
#     4   8  13  22  39  63  89 120 158 194 229 274
#     4   8  14  24  38  61  94 125 154 193 236 277
#
# _framework density 20.101866000000001
#
# number of rings (size 3 to 8) (size 9 to 14) (size 15 to 20)
#    0.000    3.222    0.000    3.667    0.000    3.556 
#    0.000    2.778    0.000    0.000    0.000    0.000 
#    0.000    0.000    0.000   23.556    0.000   17.778 
#
# Total GULP energy -200686.661737 kJ/mol
# GULP energy per Si atom -5574.629493 kJ/mol
# Density = 2.005611 g / cm^3
# Si number density = 20.101866 Si / 1000 Ang^3
#
#
#
# Elastic Constant Matrix: (Units=GPa)
#
#
# Indices 1 2 3 4 5 6 
#
# 1 110.5718 2.4379 28.5383 0.0000 0.0000 0.0000
# 2 2.4379 31.5416 1.7223 0.0000 0.0000 0.0000
# 3 28.5383 1.7223 102.6068 0.0000 0.0000 0.0000
# 4 0.0000 0.0000 0.0000 -20.6653 0.0000 0.0000
# 5 0.0000 0.0000 0.0000 0.0000 9.9496 0.0000
# 6 0.0000 0.0000 0.0000 0.0000 0.0000 11.4689
#
#
#
# Elastic Compliance Matrix: (Units=1/GPa)
#
#
# Indices 1 2 3 4 5 6 
#
# 1 0.009755 -0.000606 -0.002703 0.000000 0.000000 0.000000
# 2 -0.000606 0.031771 -0.000365 0.000000 0.000000 0.000000
# 3 -0.002703 -0.000365 0.010504 0.000000 0.000000 0.000000
# 4 0.000000 0.000000 0.000000 -0.048390 0.000000 0.000000
# 5 0.000000 0.000000 0.000000 0.000000 0.100507 0.000000
# 6 0.000000 0.000000 0.000000 0.000000 0.000000 0.087192
#
#
# Mechanical properties :
#
#
# Convention : Reuss Voigt Hill
#
# Bulk Modulus (GPa) = 22.38053 34.45747 28.41900
# Shear Modulus (GPa) = 23.41042 14.28543 18.84792
#
# Velocity S-wave (km/s) = 3.41631 2.66870 3.06538
# Velocity P-wave (km/s) = 5.16907 5.16474 5.16691
#
# Compressibility (1/GPa) = 0.04468170
#
# Stress axis : x y z
#
# Youngs Moduli (GPa) = 102.51264 31.47529 95.20319
#
# Poissons Ratio (x) = 0.01909 0.25733
# Poissons Ratio (y) = 0.06216 0.03472
# Poissons Ratio (z) = 0.27709 0.01148
#
# Static dielectric constant tensor:
#      x y z
#    x 1.725590 0.000000 0.000000 
#    y 0.000000 1.764300 0.000000 
#    z 0.000000 0.000000 1.717750 
# 
# From -- ./inp_files/37013.got.cif
#   From: 2010.05.17/outbox.cif.g08.bks.cpg/sg65_19_cif.got.tgz:37013.got - 2010.06.03 17:01:31.
