data_PCOD9493130
_publ_section_title
;
Structure prediction by ZEFSAII (Michael W. Deem and Ramdas Pophale) SiO2 
 PCOD9493130
Probable space group: C M M M
;
_chemical_formula_sum "Si O2"
_cell_formula_units_Z 88
_cell_length_a 17.166723
_cell_length_b 18.004768
_cell_length_c 17.003468
_cell_angle_alpha 90.000000
_cell_angle_beta 90.000000
_cell_angle_gamma 90.000000
_cell_volume 5255.480603
_symmetry_space_group_name_H-M "C M M M"
_symmetry_group_IT_number 65
_symmetry_cell_setting 'orthorhombic'
loop_
_space_group_symop_operation_xyz
x,y,z
-x,-y,z
x,-y,-z
-x,y,-z
-x,-y,-z
x,y,-z
-x,y,z
x,-y,z
1/2+x,1/2+y,z
1/2-x,1/2-y,z
1/2+x,1/2-y,-z
1/2-x,1/2+y,-z
1/2-x,1/2-y,-z
1/2+x,1/2+y,-z
1/2-x,1/2+y,z
1/2+x,1/2-y,z
loop_
_atom_site_type_symbol
_atom_site_label
_atom_site_fract_x
_atom_site_fract_y
_atom_site_fract_z
Si Si1 0.408148 0.664102 0.745644
Si Si2 0.094311 0.084967 0.588876
Si Si3 0.906274 0.766696 0.000000
Si Si4 0.866195 0.309073 0.160718
Si Si5 0.228144 0.084366 0.829703
Si Si6 0.000000 0.412775 0.904234
Si Si7 0.332800 0.580331 0.000000
O O1 0.500000 0.649158 0.755541
O O2 0.385145 0.644021 0.655976
O O3 0.392935 0.747691 0.776006
O O4 0.355506 0.608930 0.797067
O O5 0.121431 0.101518 0.500000
O O6 0.000000 0.083788 0.586447
O O7 0.118690 0.000000 0.609221
O O8 0.864018 0.735262 0.922329
O O9 0.894032 0.854168 0.000000
O O10 0.000000 0.751513 0.000000
O O11 0.789442 0.351167 0.189718
O O12 0.927093 0.373184 0.136983
O O13 0.221040 0.085066 0.923717
O O14 0.248071 0.000000 0.804810
O O15 0.000000 0.500000 0.890012
O O16 0.000000 0.403316 0.000000
O O17 0.371885 0.500000 0.000000
#
# Coordination Sequence:
#
# PCOD9493130 Si02
#       7
#    16  16   8  16  16   8   8
#     4  11  21  34  56  83 111 139 175 216 266 328
#     4   8  15  30  53  81 112 143 173 210 261 321
#     4  12  21  36  55  75 101 141 184 233 284 315
#     4  12  21  37  53  77 107 142 186 228 277 321
#     4  11  24  37  52  75 106 146 187 225 269 317
#     4  11  22  36  56  78 103 140 191 245 278 309
#     4  10  23  36  49  72 103 144 188 224 263 323
#
# _framework density 16.744425
#
# number of rings (size 3 to 8) (size 9 to 14) (size 15 to 20)
#    0.000    1.364    4.545    2.727    0.000    2.000 
#    0.000    1.818    0.000    2.182    0.000    0.000 
#    0.000    2.909    0.000    0.000    0.000    0.182 
#
# Total GULP energy -245251.197016 kJ/mol
# GULP energy per Si atom -5573.890841 kJ/mol
# Density = 1.670631 g / cm^3
# Si number density = 16.744425 Si / 1000 Ang^3
#
#
#
# Elastic Constant Matrix: (Units=GPa)
#
#
# Indices 1 2 3 4 5 6 
#
# 1 51.5984 26.8150 15.2463 0.0000 0.0000 0.0000
# 2 26.8150 129.3252 48.3344 0.0000 0.0000 0.0000
# 3 15.2463 48.3344 93.3069 0.0000 0.0000 0.0000
# 4 0.0000 0.0000 0.0000 19.2146 0.0000 0.0000
# 5 0.0000 0.0000 0.0000 0.0000 -2.3701 0.0000
# 6 0.0000 0.0000 0.0000 0.0000 0.0000 44.3548
#
#
#
# Elastic Compliance Matrix: (Units=1/GPa)
#
#
# Indices 1 2 3 4 5 6 
#
# 1 0.021894 -0.003971 -0.001520 0.000000 0.000000 0.000000
# 2 -0.003971 0.010309 -0.004691 0.000000 0.000000 0.000000
# 3 -0.001520 -0.004691 0.013396 0.000000 0.000000 0.000000
# 4 0.000000 0.000000 0.000000 0.052044 0.000000 0.000000
# 5 0.000000 0.000000 0.000000 0.000000 -0.421918 0.000000
# 6 0.000000 0.000000 0.000000 0.000000 0.000000 0.022545
#
#
# Mechanical properties :
#
#
# Convention : Reuss Voigt Hill
#
# Bulk Modulus (GPa) = 39.63095 50.55797 45.09446
# Shear Modulus (GPa) = -18.31817 24.49551 3.08867
#
# Velocity S-wave (km/s) = -3.31113 3.82894 1.35963
# Velocity P-wave (km/s) = 3.01685 7.05742 5.42718
#
# Compressibility (1/GPa) = 0.02523280
#
# Stress axis : x y z
#
# Youngs Moduli (GPa) = 45.67565 96.99997 74.64938
#
# Poissons Ratio (x) = 0.38522 0.11348
# Poissons Ratio (y) = 0.18139 0.35021
# Poissons Ratio (z) = 0.06943 0.45507
#
# Static dielectric constant tensor:
#      x y z
#    x 1.590280 0.000000 0.000000 
#    y 0.000000 1.586610 0.000000 
#    z 0.000000 0.000000 1.573050 
# 
# From -- ./inp_files/53063.got.cif
#   From: 2010.05.17/outbox.cif.g08.bks.cpg/sg65_27_cif.got.tgz:53063.got - 2010.06.03 17:01:31.
