data_PCOD9493058
_publ_section_title
;
Structure prediction by ZEFSAII (Michael W. Deem and Ramdas Pophale) SiO2 
 PCOD9493058
Probable space group: C M M M
;
_chemical_formula_sum "Si O2"
_cell_formula_units_Z 72
_cell_length_a 8.803041
_cell_length_b 18.342433
_cell_length_c 23.578093
_cell_angle_alpha 90.000000
_cell_angle_beta 90.000000
_cell_angle_gamma 90.000000
_cell_volume 3807.135572
_symmetry_space_group_name_H-M "C M M M"
_symmetry_group_IT_number 65
_symmetry_cell_setting 'orthorhombic'
loop_
_space_group_symop_operation_xyz
x,y,z
-x,-y,z
x,-y,-z
-x,y,-z
-x,-y,-z
x,y,-z
-x,y,z
x,-y,z
1/2+x,1/2+y,z
1/2-x,1/2-y,z
1/2+x,1/2-y,-z
1/2-x,1/2+y,-z
1/2-x,1/2-y,-z
1/2+x,1/2+y,-z
1/2-x,1/2+y,z
1/2+x,1/2-y,z
loop_
_atom_site_type_symbol
_atom_site_label
_atom_site_fract_x
_atom_site_fract_y
_atom_site_fract_z
Si Si1 0.182647 0.085681 0.715227
Si Si2 0.681484 0.831063 0.391744
Si Si3 0.318552 0.329956 0.830051
Si Si4 0.681859 0.586524 0.500000
Si Si5 0.317163 0.914613 0.064488
O O1 0.266271 0.128891 0.665592
O O2 0.222207 0.119807 0.776165
O O3 0.000000 0.093253 0.707368
O O4 0.219094 0.000000 0.713373
O O5 0.500000 0.827495 0.395033
O O6 0.750000 0.750000 0.392880
O O7 0.747271 0.876187 0.444665
O O8 0.500000 0.324977 0.832491
O O9 0.250000 0.250000 0.822328
O O10 0.257791 0.365940 0.887575
O O11 0.711873 0.500000 0.500000
O O12 0.500000 0.597173 0.500000
O O13 0.500000 0.908632 0.068199
O O14 0.278245 0.000000 0.072938
O O15 0.272902 0.894564 0.000000
#
# Coordination Sequence:
#
# PCOD9493058 Si02
#       5
#    16  16  16   8  16
#     4  10  22  41  63  88 119 153 192 240 294 350
#     4  12  25  41  63  91 123 158 199 244 291 345
#     4  11  23  38  58  85 117 154 195 240 290 345
#     4  11  24  43  66  91 123 161 198 241 294 347
#     4   9  19  37  60  85 114 149 190 238 292 349
#
# _framework density 18.911856
#
# number of rings (size 3 to 8) (size 9 to 14) (size 15 to 20)
#    0.000    1.444    0.000    6.000    0.000    9.778 
#    0.000    1.111    0.000    0.000    0.000    0.000 
#    0.000    0.000    0.000    0.000    0.000    0.000 
#
# Total GULP energy -201357.286355 kJ/mol
# GULP energy per Si atom -5593.257954 kJ/mol
# Density = 1.886881 g / cm^3
# Si number density = 18.911856 Si / 1000 Ang^3
#
#
#
# Elastic Constant Matrix: (Units=GPa)
#
#
# Indices 1 2 3 4 5 6 
#
# 1 84.7324 87.6148 77.1124 0.0000 0.0000 0.0000
# 2 87.6148 168.9078 103.3272 0.0000 0.0000 0.0000
# 3 77.1124 103.3272 158.3217 0.0000 0.0000 0.0000
# 4 0.0000 0.0000 0.0000 63.5689 0.0000 0.0000
# 5 0.0000 0.0000 0.0000 0.0000 28.1543 0.0000
# 6 0.0000 0.0000 0.0000 0.0000 0.0000 -0.9737
#
#
#
# Elastic Compliance Matrix: (Units=1/GPa)
#
#
# Indices 1 2 3 4 5 6 
#
# 1 0.029876 -0.010979 -0.007386 0.000000 0.000000 0.000000
# 2 -0.010979 0.013889 -0.003717 0.000000 0.000000 0.000000
# 3 -0.007386 -0.003717 0.012340 0.000000 0.000000 0.000000
# 4 0.000000 0.000000 0.000000 0.015731 0.000000 0.000000
# 5 0.000000 0.000000 0.000000 0.000000 0.035519 0.000000
# 6 0.000000 0.000000 0.000000 0.000000 0.000000 -1.026983
#
#
# Mechanical properties :
#
#
# Convention : Reuss Voigt Hill
#
# Bulk Modulus (GPa) = 83.74871 105.34120 94.54495
# Shear Modulus (GPa) = -5.73734 27.74372 11.00319
#
# Velocity S-wave (km/s) = -1.74365 3.83430 2.41470
# Velocity P-wave (km/s) = 6.35028 8.68473 7.60758
#
# Compressibility (1/GPa) = 0.01194048
#
# Stress axis : x y z
#
# Youngs Moduli (GPa) = 33.47156 71.99827 81.03707
#
# Poissons Ratio (x) = 0.79044 0.59857
# Poissons Ratio (y) = 0.36747 0.30125
# Poissons Ratio (z) = 0.24724 0.26765
#
# Static dielectric constant tensor:
#      x y z
#    x 1.633850 0.000000 0.000000 
#    y 0.000000 1.622560 0.000000 
#    z 0.000000 0.000000 1.626740 
# 
# From -- ./inp_files/67094.got.cif
#   From: 2010.05.17/outbox.cif.g08.bks.cpg/sg65_34_cif.got.tgz:67094.got - 2010.06.03 17:01:31.
