data_PCOD9493485
_publ_section_title
;
Structure prediction by ZEFSAII (Michael W. Deem and Ramdas Pophale) SiO2 
 PCOD9493485
Probable space group: C M M M
;
_chemical_formula_sum "Si O2"
_cell_formula_units_Z 100
_cell_length_a 26.597834
_cell_length_b 21.835698
_cell_length_c 8.524208
_cell_angle_alpha 90.000000
_cell_angle_beta 90.000000
_cell_angle_gamma 90.000000
_cell_volume 4950.708878
_symmetry_space_group_name_H-M "C M M M"
_symmetry_group_IT_number 65
_symmetry_cell_setting 'orthorhombic'
loop_
_space_group_symop_operation_xyz
x,y,z
-x,-y,z
x,-y,-z
-x,y,-z
-x,-y,-z
x,y,-z
-x,y,z
x,-y,z
1/2+x,1/2+y,z
1/2-x,1/2-y,z
1/2+x,1/2-y,-z
1/2-x,1/2+y,-z
1/2-x,1/2-y,-z
1/2+x,1/2+y,-z
1/2-x,1/2+y,z
1/2+x,1/2-y,z
loop_
_atom_site_type_symbol
_atom_site_label
_atom_site_fract_x
_atom_site_fract_y
_atom_site_fract_z
Si Si1 0.796958 0.589106 0.680330
Si Si2 0.590489 0.094125 0.309659
Si Si3 0.813669 0.069019 0.185513
Si Si4 0.301756 0.214161 0.172891
Si Si5 0.500000 0.000000 0.763905
Si Si6 0.371578 0.315437 0.315707
Si Si7 0.558862 0.773863 0.186099
O O1 0.791825 0.570592 0.500000
O O2 0.853222 0.571132 0.735613
O O3 0.745456 0.571917 0.767562
O O4 0.798717 0.662342 0.697609
O O5 0.587252 0.090523 0.500000
O O6 0.544853 0.053349 0.243389
O O7 0.584931 0.164968 0.256983
O O8 0.848630 0.119081 0.269478
O O9 0.830976 0.000000 0.219450
O O10 0.816500 0.080706 0.000000
O O11 0.250000 0.250000 0.166640
O O12 0.340832 0.265732 0.216406
O O13 0.311212 0.186459 0.000000
O O14 0.364091 0.306906 0.500000
O O15 0.426410 0.290644 0.267826
O O16 0.500000 0.784434 0.208259
O O17 0.569083 0.770636 0.000000
#
# Coordination Sequence:
#
# PCOD9493485 Si02
#       7
#    16  16  16  16   4  16  16
#     4  11  23  36  58  91 125 164 214 268 317 371
#     4  11  23  39  62  89 123 170 223 273 320 369
#     4  11  25  44  64  89 126 172 212 254 316 390
#     4  11  21  34  57  87 124 164 203 253 314 379
#     4  12  25  44  65  86 125 184 231 274 323 368
#     4  12  24  39  65  95 125 162 205 262 323 380
#     4  11  24  42  65  93 126 163 208 264 318 374
#
# _framework density 20.199127000000001
#
# number of rings (size 3 to 8) (size 9 to 14) (size 15 to 20)
#    0.000    0.800    4.000    4.080    1.120    3.520 
#    0.000    0.800    0.000    0.480    0.000    3.360 
#    0.000    0.000    0.000    0.000    0.000    0.000 
#
# Total GULP energy -278573.884740 kJ/mol
# GULP energy per Si atom -5571.477695 kJ/mol
# Density = 2.015315 g / cm^3
# Si number density = 20.199127 Si / 1000 Ang^3
#
#
#
# Elastic Constant Matrix: (Units=GPa)
#
#
# Indices 1 2 3 4 5 6 
#
# 1 76.5532 46.5515 18.3820 0.0000 0.0000 0.0000
# 2 46.5515 105.1083 27.7752 0.0000 0.0000 0.0000
# 3 18.3820 27.7752 41.7231 0.0000 0.0000 0.0000
# 4 0.0000 0.0000 0.0000 51.5455 0.0000 0.0000
# 5 0.0000 0.0000 0.0000 0.0000 16.3965 0.0000
# 6 0.0000 0.0000 0.0000 0.0000 0.0000 23.1938
#
#
#
# Elastic Compliance Matrix: (Units=1/GPa)
#
#
# Indices 1 2 3 4 5 6 
#
# 1 0.018228 -0.007221 -0.003224 0.000000 0.000000 0.000000
# 2 -0.007221 0.014406 -0.006408 0.000000 0.000000 0.000000
# 3 -0.003224 -0.006408 0.029654 0.000000 0.000000 0.000000
# 4 0.000000 0.000000 0.000000 0.019400 0.000000 0.000000
# 5 0.000000 0.000000 0.000000 0.000000 0.060989 0.000000
# 6 0.000000 0.000000 0.000000 0.000000 0.000000 0.043115
#
#
# Mechanical properties :
#
#
# Convention : Reuss Voigt Hill
#
# Bulk Modulus (GPa) = 34.98813 45.42245 40.20529
# Shear Modulus (GPa) = 21.83167 26.93886 24.38527
#
# Velocity S-wave (km/s) = 3.29115 3.65590 3.47831
# Velocity P-wave (km/s) = 5.63928 6.35271 6.00660
#
# Compressibility (1/GPa) = 0.02858113
#
# Stress axis : x y z
#
# Youngs Moduli (GPa) = 54.86057 69.41722 33.72241
#
# Poissons Ratio (x) = 0.50127 0.10871
# Poissons Ratio (y) = 0.39616 0.21611
# Poissons Ratio (z) = 0.17685 0.44486
#
# Static dielectric constant tensor:
#      x y z
#    x 2.354560 0.000000 0.000000 
#    y 0.000000 1.646510 0.000000 
#    z 0.000000 0.000000 1.704640 
# 
# From -- ./inp_files/16461.got.cif
#   From: 2010.05.17/outbox.cif.g08.bks.cpg/sg65_9_cif.got.tgz:16461.got - 2010.06.03 17:01:31.
