data_PCOD9493301
_publ_section_title
;
Structure prediction by ZEFSAII (Michael W. Deem and Ramdas Pophale) SiO2 
 PCOD9493301
Probable space group: C M M M
;
_chemical_formula_sum "Si O2"
_cell_formula_units_Z 96
_cell_length_a 31.304918
_cell_length_b 28.264135
_cell_length_c 9.237137
_cell_angle_alpha 90.000000
_cell_angle_beta 90.000000
_cell_angle_gamma 90.000000
_cell_volume 8173.078199
_symmetry_space_group_name_H-M "C M M M"
_symmetry_group_IT_number 65
_symmetry_cell_setting 'orthorhombic'
loop_
_space_group_symop_operation_xyz
x,y,z
-x,-y,z
x,-y,-z
-x,y,-z
-x,-y,-z
x,y,-z
-x,y,z
x,-y,z
1/2+x,1/2+y,z
1/2-x,1/2-y,z
1/2+x,1/2-y,-z
1/2-x,1/2+y,-z
1/2-x,1/2-y,-z
1/2+x,1/2+y,-z
1/2-x,1/2+y,z
1/2+x,1/2-y,z
loop_
_atom_site_type_symbol
_atom_site_label
_atom_site_fract_x
_atom_site_fract_y
_atom_site_fract_z
Si Si1 0.336558 0.804871 0.166777
Si Si2 0.449338 0.944384 0.169914
Si Si3 0.200985 0.555394 0.826784
Si Si4 0.376163 0.109452 0.327110
Si Si5 0.795771 0.222427 0.333731
Si Si6 0.744734 0.358857 0.834466
O O1 0.366947 0.838977 0.259158
O O2 0.327673 0.754346 0.239517
O O3 0.290397 0.831398 0.166762
O O4 0.350253 0.801090 0.000000
O O5 0.500000 0.937230 0.190065
O O6 0.420453 0.911921 0.270209
O O7 0.440297 0.000000 0.197531
O O8 0.439405 0.935584 0.000000
O O9 0.207199 0.500000 0.800560
O O10 0.160911 0.575540 0.738184
O O11 0.241912 0.588102 0.791267
O O12 0.192752 0.562121 0.000000
O O13 0.373756 0.110810 0.500000
O O14 0.809381 0.219831 0.500000
O O15 0.750000 0.250000 0.330852
O O16 0.786345 0.171150 0.266457
O O17 0.729165 0.358340 0.000000
#
# Coordination Sequence:
#
# PCOD9493301 Si02
#       6
#    16  16  16  16  16  16
#     4   9  16  26  38  49  63  84 107 128 153 191
#     4   9  18  32  46  55  64  83 110 135 161 199
#     4   9  17  28  39  49  64  88 115 139 163 195
#     4  11  20  27  37  54  72  85 101 131 170 206
#     4   9  15  22  33  49  67  83 100 126 159 192
#     4   8  14  23  34  47  62  83 109 132 156 189
#
# _framework density 11.74588
#
# number of rings (size 3 to 8) (size 9 to 14) (size 15 to 20)
#    0.000    2.833    0.000    4.500    0.000    9.000 
#    0.000    0.833    0.000    0.000    0.000    0.000 
#    0.000    0.000    0.000    0.000    0.000    0.000 
#
# Total GULP energy -267291.386077 kJ/mol
# GULP energy per Si atom -5568.570543 kJ/mol
# Density = 1.171915 g / cm^3
# Si number density = 11.745880 Si / 1000 Ang^3
#
#
#
# Elastic Constant Matrix: (Units=GPa)
#
#
# Indices 1 2 3 4 5 6 
#
# 1 26.4721 29.7847 33.2123 0.0000 0.0000 0.0000
# 2 29.7847 61.5679 47.5916 0.0000 0.0000 0.0000
# 3 33.2123 47.5916 86.9538 0.0000 0.0000 0.0000
# 4 0.0000 0.0000 0.0000 8.3345 0.0000 0.0000
# 5 0.0000 0.0000 0.0000 0.0000 9.7150 0.0000
# 6 0.0000 0.0000 0.0000 0.0000 0.0000 18.1258
#
#
#
# Elastic Compliance Matrix: (Units=1/GPa)
#
#
# Indices 1 2 3 4 5 6 
#
# 1 0.100063 -0.032698 -0.020323 0.000000 0.000000 0.000000
# 2 -0.032698 0.038838 -0.008768 0.000000 0.000000 0.000000
# 3 -0.020323 -0.008768 0.024062 0.000000 0.000000 0.000000
# 4 0.000000 0.000000 0.000000 0.119983 0.000000 0.000000
# 5 0.000000 0.000000 0.000000 0.000000 0.102934 0.000000
# 6 0.000000 0.000000 0.000000 0.000000 0.000000 0.055170
#
#
# Mechanical properties :
#
#
# Convention : Reuss Voigt Hill
#
# Bulk Modulus (GPa) = 25.39041 44.01900 34.70470
# Shear Modulus (GPa) = 8.65419 11.52874 10.09147
#
# Velocity S-wave (km/s) = 2.71732 3.13631 2.93430
# Velocity P-wave (km/s) = 5.61324 7.11848 6.41020
#
# Compressibility (1/GPa) = 0.03938495
#
# Stress axis : x y z
#
# Youngs Moduli (GPa) = 9.99374 25.74808 41.55997
#
# Poissons Ratio (x) = 0.84190 0.84463
# Poissons Ratio (y) = 0.32677 0.36439
# Poissons Ratio (z) = 0.20310 0.22575
#
# Static dielectric constant tensor:
#      x y z
#    x 1.353390 0.000000 0.000000 
#    y 0.000000 1.388780 0.000000 
#    z 0.000000 0.000000 1.392580 
# 
# From -- ./inp_files/16929.got.cif
#   From: 2010.05.17/outbox.cif.g08.bks.cpg/sg65_9_cif.got.tgz:16929.got - 2010.06.03 17:01:31.
