data_PCOD9493164
_publ_section_title
;
Structure prediction by ZEFSAII (Michael W. Deem and Ramdas Pophale) SiO2 
 PCOD9493164
Probable space group: C M M M
;
_chemical_formula_sum "Si O2"
_cell_formula_units_Z 42
_cell_length_a 21.136144
_cell_length_b 12.801879
_cell_length_c 7.185932
_cell_angle_alpha 90.000000
_cell_angle_beta 90.000000
_cell_angle_gamma 90.000000
_cell_volume 1944.386425
_symmetry_space_group_name_H-M "C M M M"
_symmetry_group_IT_number 65
_symmetry_cell_setting 'orthorhombic'
loop_
_space_group_symop_operation_xyz
x,y,z
-x,-y,z
x,-y,-z
-x,y,-z
-x,-y,-z
x,y,-z
-x,y,z
x,-y,z
1/2+x,1/2+y,z
1/2-x,1/2-y,z
1/2+x,1/2-y,-z
1/2-x,1/2+y,-z
1/2-x,1/2-y,-z
1/2+x,1/2+y,-z
1/2-x,1/2+y,z
1/2+x,1/2-y,z
loop_
_atom_site_type_symbol
_atom_site_label
_atom_site_fract_x
_atom_site_fract_y
_atom_site_fract_z
Si Si1 0.000000 0.000000 0.500000
Si Si2 0.320167 0.721018 0.774509
Si Si3 0.880117 0.000000 0.224272
Si Si4 0.071166 0.620460 0.774025
O O1 0.055459 0.000000 0.338038
O O2 0.250000 0.750000 0.710858
O O3 0.340906 0.604028 0.728548
O O4 0.374115 0.801984 0.711538
O O5 0.319363 0.727296 0.000000
O O6 0.891367 0.000000 0.000000
O O7 0.081459 0.500000 0.718588
O O8 0.000000 0.652271 0.716875
O O9 0.071358 0.621497 0.000000
#
# Coordination Sequence:
#
# PCOD9493164 Si02
#       4
#     2  16   8  16
#     4  12  26  44  64  90 126 172 208 256 316 372
#     4   9  18  31  53  85 122 158 197 251 309 367
#     4  10  23  41  63  94 126 162 211 258 307 373
#     4   8  14  24  41  70 108 149 193 240 291 351
#
# _framework density 21.600645
#
# number of rings (size 3 to 8) (size 9 to 14) (size 15 to 20)
#    0.000    3.048    0.000    1.429    5.333    0.000 
#    0.000    0.952    0.000    0.000    0.000    1.333 
#    0.000    0.000    0.000    0.000    0.000    0.000 
#
# Total GULP energy -117071.187160 kJ/mol
# GULP energy per Si atom -5574.818436 kJ/mol
# Density = 2.155148 g / cm^3
# Si number density = 21.600645 Si / 1000 Ang^3
#
#
#
# Elastic Constant Matrix: (Units=GPa)
#
#
# Indices 1 2 3 4 5 6 
#
# 1 278.7419 175.2746 34.7773 0.0000 0.0000 0.0000
# 2 175.2746 180.4782 22.9792 0.0000 0.0000 0.0000
# 3 34.7773 22.9792 124.7432 0.0000 0.0000 0.0000
# 4 0.0000 0.0000 0.0000 -30.7788 0.0000 0.0000
# 5 0.0000 0.0000 0.0000 0.0000 7.7612 0.0000
# 6 0.0000 0.0000 0.0000 0.0000 0.0000 3.6706
#
#
#
# Elastic Compliance Matrix: (Units=1/GPa)
#
#
# Indices 1 2 3 4 5 6 
#
# 1 0.009324 -0.008934 -0.000954 0.000000 0.000000 0.000000
# 2 -0.008934 0.014234 -0.000131 0.000000 0.000000 0.000000
# 3 -0.000954 -0.000131 0.008307 0.000000 0.000000 0.000000
# 4 0.000000 0.000000 0.000000 -0.032490 0.000000 0.000000
# 5 0.000000 0.000000 0.000000 0.000000 0.128845 0.000000
# 6 0.000000 0.000000 0.000000 0.000000 0.000000 0.272432
#
#
# Mechanical properties :
#
#
# Convention : Reuss Voigt Hill
#
# Bulk Modulus (GPa) = 84.55535 116.66948 100.61241
# Shear Modulus (GPa) = 11.77486 19.52609 15.65048
#
# Velocity S-wave (km/s) = 2.33731 3.00985 2.69464
# Velocity P-wave (km/s) = 6.82010 8.13684 7.50740
#
# Compressibility (1/GPa) = 0.01182657
#
# Stress axis : x y z
#
# Youngs Moduli (GPa) = 107.24620 70.25415 120.38661
#
# Poissons Ratio (x) = 0.62765 0.11482
# Poissons Ratio (y) = 0.95814 0.01581
# Poissons Ratio (z) = 0.10229 0.00923
#
# Static dielectric constant tensor:
#      x y z
#    x 1.720310 0.000000 0.000000 
#    y 0.000000 1.734460 0.000000 
#    z 0.000000 0.000000 1.792860 
# 
# From -- ./inp_files/13045.got.cif
#   From: 2010.05.17/outbox.cif.g08.bks.cpg/sg65_7_cif.got.tgz:13045.got - 2010.06.03 17:01:31.
