data_PCOD9493854
_publ_section_title
;
Structure prediction by ZEFSAII (Michael W. Deem and Ramdas Pophale) SiO2 
 PCOD9493854
Probable space group: C M M M
;
_chemical_formula_sum "Si O2"
_cell_formula_units_Z 88
_cell_length_a 7.884820
_cell_length_b 18.781388
_cell_length_c 30.845927
_cell_angle_alpha 90.000000
_cell_angle_beta 90.000000
_cell_angle_gamma 90.000000
_cell_volume 4567.907434
_symmetry_space_group_name_H-M "C M M M"
_symmetry_group_IT_number 65
_symmetry_cell_setting 'orthorhombic'
loop_
_space_group_symop_operation_xyz
x,y,z
-x,-y,z
x,-y,-z
-x,y,-z
-x,-y,-z
x,y,-z
-x,y,z
x,-y,z
1/2+x,1/2+y,z
1/2-x,1/2-y,z
1/2+x,1/2-y,-z
1/2-x,1/2+y,-z
1/2-x,1/2-y,-z
1/2+x,1/2+y,-z
1/2-x,1/2+y,z
1/2+x,1/2-y,z
loop_
_atom_site_type_symbol
_atom_site_label
_atom_site_fract_x
_atom_site_fract_y
_atom_site_fract_z
Si Si1 0.294292 0.418004 0.812338
Si Si2 0.705025 0.666480 0.101548
Si Si3 0.297292 0.580165 0.716037
Si Si4 0.796203 0.918796 0.452219
Si Si5 0.198829 0.668284 0.367572
Si Si6 0.500000 0.916280 0.948043
O O1 0.500000 0.419310 0.811788
O O2 0.239424 0.500000 0.820703
O O3 0.249727 0.364641 0.850768
O O4 0.234774 0.397368 0.763906
O O5 0.500000 0.656783 0.094297
O O6 0.750000 0.750000 0.098770
O O7 0.830601 0.622745 0.069938
O O8 0.500000 0.575401 0.719742
O O9 0.232384 0.500000 0.707312
O O10 0.264171 0.630576 0.675792
O O11 0.736381 0.894084 0.500000
O O12 0.753060 0.870886 0.411501
O O13 0.000000 0.921636 0.453995
O O14 0.734858 0.000000 0.445808
O O15 0.250000 0.750000 0.368903
O O16 0.000000 0.663495 0.365366
O O17 0.500000 0.000000 0.935322
O O18 0.500000 0.912284 0.000000
#
# Coordination Sequence:
#
# PCOD9493854 Si02
#       6
#    16  16  16  16  16   8
#     4   8  16  33  60  89 119 158 203 249 300 363
#     4  11  22  41  65  97 134 173 216 266 327 387
#     4   9  18  36  60  85 115 153 193 237 292 350
#     4   9  19  38  63  86 107 137 177 222 278 345
#     4  12  25  38  53  77 112 149 190 235 286 342
#     4  11  26  46  68  98 131 169 223 275 325 389
#
# _framework density 19.264838999999998
#
# number of rings (size 3 to 8) (size 9 to 14) (size 15 to 20)
#    0.000    2.091    0.909    4.364    0.000    6.182 
#    1.636    3.636    0.000    0.000    0.000    0.000 
#    0.000    0.000    0.000    0.000    0.000    0.000 
#
# Total GULP energy -245427.622647 kJ/mol
# GULP energy per Si atom -5577.900515 kJ/mol
# Density = 1.922099 g / cm^3
# Si number density = 19.264839 Si / 1000 Ang^3
#
#
#
# Elastic Constant Matrix: (Units=GPa)
#
#
# Indices 1 2 3 4 5 6 
#
# 1 69.0453 33.9733 40.4289 0.0000 0.0000 0.0000
# 2 33.9733 134.1902 99.5524 0.0000 0.0000 0.0000
# 3 40.4289 99.5524 156.3467 0.0000 0.0000 0.0000
# 4 0.0000 0.0000 0.0000 -21.0197 0.0000 0.0000
# 5 0.0000 0.0000 0.0000 0.0000 -55.7683 0.0000
# 6 0.0000 0.0000 0.0000 0.0000 0.0000 16.4477
#
#
#
# Elastic Compliance Matrix: (Units=1/GPa)
#
#
# Indices 1 2 3 4 5 6 
#
# 1 0.017351 -0.002017 -0.003202 0.000000 0.000000 0.000000
# 2 -0.002017 0.014359 -0.008621 0.000000 0.000000 0.000000
# 3 -0.003202 -0.008621 0.012714 0.000000 0.000000 0.000000
# 4 0.000000 0.000000 0.000000 -0.047575 0.000000 0.000000
# 5 0.000000 0.000000 0.000000 0.000000 -0.017931 0.000000
# 6 0.000000 0.000000 0.000000 0.000000 0.000000 0.060799
#
#
# Mechanical properties :
#
#
# Convention : Reuss Voigt Hill
#
# Bulk Modulus (GPa) = 59.73014 78.61015 69.17015
# Shear Modulus (GPa) = 68.51437 0.30712 34.41074
#
# Velocity S-wave (km/s) = 5.97006 0.39970 4.23092
# Velocity P-wave (km/s) = 8.86534 6.41144 7.73631
#
# Compressibility (1/GPa) = 0.01674197
#
# Stress axis : x y z
#
# Youngs Moduli (GPa) = 57.63416 69.64493 78.65630
#
# Poissons Ratio (x) = 0.14047 0.25189
# Poissons Ratio (y) = 0.11625 0.67810
# Poissons Ratio (z) = 0.18457 0.60042
#
# Static dielectric constant tensor:
#      x y z
#    x 1.698210 0.000000 0.000000 
#    y 0.000000 1.638800 0.000000 
#    z 0.000000 0.000000 2.612750 
# 
# From -- ./inp_files/76682.got.cif
#   From: 2010.05.17/outbox.cif.g08.bks.cpg/sg65_39_cif.got.tgz:76682.got - 2010.06.03 17:01:31.
