data_PCOD9493536
_publ_section_title
;
Structure prediction by ZEFSAII (Michael W. Deem and Ramdas Pophale) SiO2 
 PCOD9493536
Probable space group: C M M M
;
_chemical_formula_sum "Si O2"
_cell_formula_units_Z 50
_cell_length_a 16.411348
_cell_length_b 8.669263
_cell_length_c 19.071554
_cell_angle_alpha 90.000000
_cell_angle_beta 90.000000
_cell_angle_gamma 90.000000
_cell_volume 2713.391843
_symmetry_space_group_name_H-M "C M M M"
_symmetry_group_IT_number 65
_symmetry_cell_setting 'orthorhombic'
loop_
_space_group_symop_operation_xyz
x,y,z
-x,-y,z
x,-y,-z
-x,y,-z
-x,-y,-z
x,y,-z
-x,y,z
x,-y,z
1/2+x,1/2+y,z
1/2-x,1/2-y,z
1/2+x,1/2-y,-z
1/2-x,1/2+y,-z
1/2-x,1/2-y,-z
1/2+x,1/2+y,-z
1/2-x,1/2+y,z
1/2+x,1/2-y,z
loop_
_atom_site_type_symbol
_atom_site_label
_atom_site_fract_x
_atom_site_fract_y
_atom_site_fract_z
Si Si1 0.095765 0.182725 0.354664
Si Si2 0.658574 0.184562 0.500000
Si Si3 0.163714 0.684333 0.214228
Si Si4 0.000000 0.500000 0.000000
Si Si5 0.000000 0.671797 0.855105
O O1 0.115239 0.253220 0.430224
O O2 0.147322 0.264139 0.294000
O O3 0.000000 0.203870 0.338915
O O4 0.113459 0.000000 0.355362
O O5 0.750000 0.250000 0.500000
O O6 0.659440 0.000000 0.500000
O O7 0.168433 0.500000 0.209066
O O8 0.250000 0.750000 0.189710
O O9 0.084912 0.743153 0.170500
O O10 0.000000 0.367817 0.062853
O O11 0.000000 0.500000 0.819591
#
# Coordination Sequence:
#
# PCOD9493536 Si02
#       5
#    16   8  16   2   8
#     4  11  23  39  59  85 117 160 208 263 314 368
#     4  12  25  40  57  79 115 161 209 265 318 369
#     4  11  21  37  60  92 123 162 206 256 304 367
#     4   8  16  40  68  92 122 168 204 240 302 372
#     4   8  18  36  63  86 122 158 201 238 297 367
#
# _framework density 18.427119999999999
#
# number of rings (size 3 to 8) (size 9 to 14) (size 15 to 20)
#    0.480    0.960    1.600    4.800    0.000    3.840 
#    0.000    0.800    0.000    0.000    0.000    4.480 
#    0.000    0.000    0.000    0.000    0.000    0.000 
#
# Total GULP energy -139256.924154 kJ/mol
# GULP energy per Si atom -5570.276966 kJ/mol
# Density = 1.838518 g / cm^3
# Si number density = 18.427120 Si / 1000 Ang^3
#
#
#
# Elastic Constant Matrix: (Units=GPa)
#
#
# Indices 1 2 3 4 5 6 
#
# 1 143.1552 45.5476 50.0907 0.0000 0.0000 0.0000
# 2 45.5476 70.4489 9.4550 0.0000 0.0000 0.0000
# 3 50.0907 9.4550 109.6730 0.0000 0.0000 0.0000
# 4 0.0000 0.0000 0.0000 10.1277 0.0000 0.0000
# 5 0.0000 0.0000 0.0000 0.0000 1.4416 0.0000
# 6 0.0000 0.0000 0.0000 0.0000 0.0000 28.9855
#
#
#
# Elastic Compliance Matrix: (Units=1/GPa)
#
#
# Indices 1 2 3 4 5 6 
#
# 1 0.010431 -0.006176 -0.004232 0.000000 0.000000 0.000000
# 2 -0.006176 0.018018 0.001268 0.000000 0.000000 0.000000
# 3 -0.004232 0.001268 0.010942 0.000000 0.000000 0.000000
# 4 0.000000 0.000000 0.000000 0.098740 0.000000 0.000000
# 5 0.000000 0.000000 0.000000 0.000000 0.693665 0.000000
# 6 0.000000 0.000000 0.000000 0.000000 0.000000 0.034500
#
#
# Mechanical properties :
#
#
# Convention : Reuss Voigt Hill
#
# Bulk Modulus (GPa) = 47.37196 59.27374 53.32285
# Shear Modulus (GPa) = 5.60782 22.65653 14.13218
#
# Velocity S-wave (km/s) = 1.74638 3.51026 2.77234
# Velocity P-wave (km/s) = 5.46169 6.97607 6.26481
#
# Compressibility (1/GPa) = 0.02110953
#
# Stress axis : x y z
#
# Youngs Moduli (GPa) = 95.86609 55.50097 91.39509
#
# Poissons Ratio (x) = 0.34278 0.38676
# Poissons Ratio (y) = 0.59209 -0.11584
# Poissons Ratio (z) = 0.40568 -0.07035
#
# Static dielectric constant tensor:
#      x y z
#    x 1.718590 0.000000 0.000000 
#    y 0.000000 1.635280 0.000000 
#    z 0.000000 0.000000 1.600740 
# 
# From -- ./inp_files/53818.got.cif
#   From: 2010.05.17/outbox.cif.g08.bks.cpg/sg65_27_cif.got.tgz:53818.got - 2010.06.03 17:01:31.
