data_PCOD9493012
_publ_section_title
;
Structure prediction by ZEFSAII (Michael W. Deem and Ramdas Pophale) SiO2 
 PCOD9493012
Probable space group: C M M M
;
_chemical_formula_sum "Si O2"
_cell_formula_units_Z 72
_cell_length_a 8.444858
_cell_length_b 18.536359
_cell_length_c 23.858571
_cell_angle_alpha 90.000000
_cell_angle_beta 90.000000
_cell_angle_gamma 90.000000
_cell_volume 3734.747210
_symmetry_space_group_name_H-M "C M M M"
_symmetry_group_IT_number 65
_symmetry_cell_setting 'orthorhombic'
loop_
_space_group_symop_operation_xyz
x,y,z
-x,-y,z
x,-y,-z
-x,y,-z
-x,-y,-z
x,y,-z
-x,y,z
x,-y,z
1/2+x,1/2+y,z
1/2-x,1/2-y,z
1/2+x,1/2-y,-z
1/2-x,1/2+y,-z
1/2-x,1/2-y,-z
1/2+x,1/2+y,-z
1/2-x,1/2+y,z
1/2+x,1/2-y,z
loop_
_atom_site_type_symbol
_atom_site_label
_atom_site_fract_x
_atom_site_fract_y
_atom_site_fract_z
Si Si1 0.310075 0.668819 0.328177
Si Si2 0.691494 0.916731 0.779737
Si Si3 0.810039 0.916595 0.000000
Si Si4 0.807132 0.916464 0.437226
Si Si5 0.809945 0.668151 0.891219
O O1 0.500000 0.669128 0.328705
O O2 0.250000 0.750000 0.321975
O O3 0.253177 0.620694 0.276337
O O4 0.252506 0.633807 0.386694
O O5 0.500000 0.915706 0.778659
O O6 0.743395 0.872045 0.834422
O O7 0.742961 0.000000 0.783264
O O8 0.749742 0.875500 0.945027
O O9 0.000000 0.915566 0.000000
O O10 0.756312 0.000000 0.000000
O O11 0.755696 0.894983 0.500000
O O12 0.000000 0.915269 0.437152
O O13 0.760755 0.000000 0.427880
O O14 0.750000 0.750000 0.892455
O O15 0.000000 0.668695 0.891977
#
# Coordination Sequence:
#
# PCOD9493012 Si02
#       5
#    16  16   8  16  16
#     4  11  22  35  54  81 112 148 188 230 279 332
#     4  10  22  40  61  85 113 146 185 231 282 334
#     4  11  24  41  62  89 119 151 190 235 280 327
#     4   8  15  30  52  77 105 139 182 230 278 331
#     4  11  23  40  62  87 117 152 189 229 277 332
#
# _framework density 19.278413
#
# number of rings (size 3 to 8) (size 9 to 14) (size 15 to 20)
#    0.000    1.889    0.000    4.667    0.000    7.111 
#    0.000    0.000    0.000    2.000    0.000    7.778 
#    0.000    0.000    0.000    0.000    0.000    0.000 
#
# Total GULP energy -201174.152675 kJ/mol
# GULP energy per Si atom -5588.170908 kJ/mol
# Density = 1.923453 g / cm^3
# Si number density = 19.278413 Si / 1000 Ang^3
#
#
#
# Elastic Constant Matrix: (Units=GPa)
#
#
# Indices 1 2 3 4 5 6 
#
# 1 25.7647 33.8440 32.7787 0.0000 0.0000 0.0000
# 2 33.8440 197.3381 123.6785 0.0000 0.0000 0.0000
# 3 32.7787 123.6785 193.0285 0.0000 0.0000 0.0000
# 4 0.0000 0.0000 0.0000 104.8403 0.0000 0.0000
# 5 0.0000 0.0000 0.0000 0.0000 47.6679 0.0000
# 6 0.0000 0.0000 0.0000 0.0000 0.0000 2.5911
#
#
#
# Elastic Compliance Matrix: (Units=1/GPa)
#
#
# Indices 1 2 3 4 5 6 
#
# 1 0.053186 -0.005784 -0.005326 0.000000 0.000000 0.000000
# 2 -0.005784 0.009097 -0.004846 0.000000 0.000000 0.000000
# 3 -0.005326 -0.004846 0.009190 0.000000 0.000000 0.000000
# 4 0.000000 0.000000 0.000000 0.009538 0.000000 0.000000
# 5 0.000000 0.000000 0.000000 0.000000 0.020978 0.000000
# 6 0.000000 0.000000 0.000000 0.000000 0.000000 0.385933
#
#
# Mechanical properties :
#
#
# Convention : Reuss Voigt Hill
#
# Bulk Modulus (GPa) = 25.27743 88.52597 56.90170
# Shear Modulus (GPa) = 9.38049 46.07520 27.72785
#
# Velocity S-wave (km/s) = 2.20825 4.89406 3.79659
# Velocity P-wave (km/s) = 4.43194 8.82922 6.98560
#
# Compressibility (1/GPa) = 0.03956098
#
# Stress axis : x y z
#
# Youngs Moduli (GPa) = 18.80199 109.92924 108.81128
#
# Poissons Ratio (x) = 0.63578 0.57952
# Poissons Ratio (y) = 0.10874 0.52734
# Poissons Ratio (z) = 0.10014 0.53276
#
# Static dielectric constant tensor:
#      x y z
#    x 1.661990 0.000000 0.000000 
#    y 0.000000 1.638890 0.000000 
#    z 0.000000 0.000000 1.652150 
# 
# From -- ./inp_files/70321.got.cif
#   From: 2010.05.17/outbox.cif.g08.bks.cpg/sg65_36_cif.got.tgz:70321.got - 2010.06.03 17:01:31.
