data_PCOD9493554
_publ_section_title
;
Structure prediction by ZEFSAII (Michael W. Deem and Ramdas Pophale) SiO2 
 PCOD9493554
Probable space group: C M M M
;
_chemical_formula_sum "Si O2"
_cell_formula_units_Z 116
_cell_length_a 17.784992
_cell_length_b 18.180174
_cell_length_c 18.068308
_cell_angle_alpha 90.000000
_cell_angle_beta 90.000000
_cell_angle_gamma 90.000000
_cell_volume 5842.102801
_symmetry_space_group_name_H-M "C M M M"
_symmetry_group_IT_number 65
_symmetry_cell_setting 'orthorhombic'
loop_
_space_group_symop_operation_xyz
x,y,z
-x,-y,z
x,-y,-z
-x,y,-z
-x,-y,-z
x,y,-z
-x,y,z
x,-y,z
1/2+x,1/2+y,z
1/2-x,1/2-y,z
1/2+x,1/2-y,-z
1/2-x,1/2+y,-z
1/2-x,1/2-y,-z
1/2+x,1/2+y,-z
1/2-x,1/2+y,z
1/2+x,1/2-y,z
loop_
_atom_site_type_symbol
_atom_site_label
_atom_site_fract_x
_atom_site_fract_y
_atom_site_fract_z
Si Si1 0.912346 0.353433 0.582722
Si Si2 0.698847 0.314119 0.295735
Si Si3 0.088632 0.620749 0.882315
Si Si4 0.637603 0.000000 0.000000
Si Si5 0.665449 0.913846 0.729185
Si Si6 0.413105 0.582066 0.088997
Si Si7 0.163112 0.770415 0.139348
Si Si8 0.913802 0.824802 0.583923
O O1 0.884955 0.373868 0.500000
O O2 0.867970 0.387061 0.650997
O O3 0.910690 0.264494 0.587171
O O4 0.000000 0.375273 0.588031
O O5 0.750000 0.250000 0.331977
O O6 0.756290 0.371296 0.259689
O O7 0.655020 0.274672 0.228738
O O8 0.644314 0.350464 0.354656
O O9 0.131884 0.564650 0.935503
O O10 0.110484 0.603735 0.797437
O O11 0.112584 0.705466 0.893890
O O12 0.000000 0.610048 0.895435
O O13 0.678077 0.000000 0.726653
O O14 0.500000 0.593987 0.113227
O O15 0.389320 0.500000 0.114355
O O16 0.361372 0.649537 0.112195
O O17 0.413555 0.580321 0.000000
O O18 0.250000 0.750000 0.124204
O O19 0.894643 0.846600 0.500000
O O20 0.000000 0.846326 0.598794
#
# Coordination Sequence:
#
# PCOD9493554 Si02
#       8
#    16  16  16   4  16  16  16  16
#     4   9  18  33  55  88 125 159 201 247 298 369
#     4  11  21  39  59  86 123 158 204 255 305 371
#     4  12  24  43  67  91 123 166 217 266 316 380
#     4  12  29  48  66  96 130 168 221 268 317 386
#     4  12  24  39  60  86 124 170 205 253 315 378
#     4   9  20  41  66  91 119 154 200 256 319 384
#     4  11  23  41  61  93 128 160 208 259 317 381
#     4   9  18  34  61  93 121 157 207 260 309 360
#
# _framework density 19.855864
#
# number of rings (size 3 to 8) (size 9 to 14) (size 15 to 20)
#    0.000    1.517    4.828    2.690    0.966    4.966 
#    1.241    0.690    0.000    0.414    0.000    0.966 
#    0.000    0.000    0.000    0.000    0.000    0.000 
#
# Total GULP energy -323294.138520 kJ/mol
# GULP energy per Si atom -5574.036871 kJ/mol
# Density = 1.981067 g / cm^3
# Si number density = 19.855864 Si / 1000 Ang^3
#
#
#
# Elastic Constant Matrix: (Units=GPa)
#
#
# Indices 1 2 3 4 5 6 
#
# 1 32.3766 19.6760 15.6464 0.0000 0.0000 0.0000
# 2 19.6760 93.0982 17.3864 0.0000 0.0000 0.0000
# 3 15.6464 17.3864 73.7469 0.0000 0.0000 0.0000
# 4 0.0000 0.0000 0.0000 17.8204 0.0000 0.0000
# 5 0.0000 0.0000 0.0000 0.0000 28.8269 0.0000
# 6 0.0000 0.0000 0.0000 0.0000 0.0000 16.5737
#
#
#
# Elastic Compliance Matrix: (Units=1/GPa)
#
#
# Indices 1 2 3 4 5 6 
#
# 1 0.038190 -0.006860 -0.006485 0.000000 0.000000 0.000000
# 2 -0.006860 0.012468 -0.001484 0.000000 0.000000 0.000000
# 3 -0.006485 -0.001484 0.015286 0.000000 0.000000 0.000000
# 4 0.000000 0.000000 0.000000 0.056116 0.000000 0.000000
# 5 0.000000 0.000000 0.000000 0.000000 0.034690 0.000000
# 6 0.000000 0.000000 0.000000 0.000000 0.000000 0.060336
#
#
# Mechanical properties :
#
#
# Convention : Reuss Voigt Hill
#
# Bulk Modulus (GPa) = 27.55955 33.84880 30.70417
# Shear Modulus (GPa) = 19.31703 22.41173 20.86438
#
# Velocity S-wave (km/s) = 3.12246 3.36329 3.24511
# Velocity P-wave (km/s) = 5.18745 5.67156 5.43489
#
# Compressibility (1/GPa) = 0.03628506
#
# Stress axis : x y z
#
# Youngs Moduli (GPa) = 26.18515 80.20306 65.42069
#
# Poissons Ratio (x) = 0.55020 0.42426
# Poissons Ratio (y) = 0.17963 0.09709
# Poissons Ratio (z) = 0.16981 0.11902
#
# Static dielectric constant tensor:
#      x y z
#    x 1.719190 0.000000 0.000000 
#    y 0.000000 1.706260 0.000000 
#    z 0.000000 0.000000 1.708700 
# 
# From -- ./inp_files/54677.got.cif
#   From: 2010.05.17/outbox.cif.g08.bks.cpg/sg65_28_cif.got.tgz:54677.got - 2010.06.03 17:01:31.
