data_PCOD9493750
_publ_section_title
;
Structure prediction by ZEFSAII (Michael W. Deem and Ramdas Pophale) SiO2 
 PCOD9493750
Probable space group: C M M M
;
_chemical_formula_sum "Si O2"
_cell_formula_units_Z 64
_cell_length_a 10.090451
_cell_length_b 15.890277
_cell_length_c 19.688257
_cell_angle_alpha 90.000000
_cell_angle_beta 90.000000
_cell_angle_gamma 90.000000
_cell_volume 3156.816337
_symmetry_space_group_name_H-M "C M M M"
_symmetry_group_IT_number 65
_symmetry_cell_setting 'orthorhombic'
loop_
_space_group_symop_operation_xyz
x,y,z
-x,-y,z
x,-y,-z
-x,y,-z
-x,-y,-z
x,y,-z
-x,y,z
x,-y,z
1/2+x,1/2+y,z
1/2-x,1/2-y,z
1/2+x,1/2-y,-z
1/2-x,1/2+y,-z
1/2-x,1/2-y,-z
1/2+x,1/2+y,-z
1/2-x,1/2+y,z
1/2+x,1/2-y,z
loop_
_atom_site_type_symbol
_atom_site_label
_atom_site_fract_x
_atom_site_fract_y
_atom_site_fract_z
Si Si1 0.500000 0.321234 0.421695
Si Si2 0.000000 0.620234 0.577752
Si Si3 0.848942 0.102652 0.922313
Si Si4 0.846618 0.603125 0.803803
Si Si5 0.734932 0.404605 0.339724
O O1 0.500000 0.352167 0.500000
O O2 0.500000 0.221114 0.423045
O O3 0.628194 0.352339 0.381229
O O4 0.869876 0.592601 0.617478
O O5 0.000000 0.592059 0.500000
O O6 0.739470 0.130664 0.868443
O O7 0.000000 0.127861 0.904564
O O8 0.847513 0.000000 0.921706
O O9 0.821472 0.128646 0.000000
O O10 0.848495 0.500000 0.802814
O O11 0.774102 0.629476 0.734399
O O12 0.000000 0.630397 0.805570
O O13 0.683822 0.500000 0.331351
#
# Coordination Sequence:
#
# PCOD9493750 Si02
#       5
#     8   8  16  16  16
#     4  11  25  41  57  81 112 145 184 232 285 337
#     4  11  23  41  61  79 108 149 186 226 281 339
#     4   8  14  24  40  65 100 142 179 211 261 326
#     4   9  17  29  45  70 104 139 177 222 271 320
#     4  11  22  37  58  85 113 144 185 233 280 331
#
# _framework density 20.273589999999999
#
# number of rings (size 3 to 8) (size 9 to 14) (size 15 to 20)
#    0.000    2.250    1.250    3.000    1.750    5.500 
#    0.000    2.500    0.000    0.000    0.000    0.000 
#    0.000    6.000    0.000    0.000    0.000    0.000 
#
# Total GULP energy -178734.239046 kJ/mol
# GULP energy per Si atom -5585.444970 kJ/mol
# Density = 2.022745 g / cm^3
# Si number density = 20.273590 Si / 1000 Ang^3
#
#
#
# Elastic Constant Matrix: (Units=GPa)
#
#
# Indices 1 2 3 4 5 6 
#
# 1 147.7116 27.7208 103.5605 0.0000 0.0000 0.0000
# 2 27.7208 40.8165 21.0986 0.0000 0.0000 0.0000
# 3 103.5605 21.0986 182.4061 0.0000 0.0000 0.0000
# 4 0.0000 0.0000 0.0000 44.8357 0.0000 0.0000
# 5 0.0000 0.0000 0.0000 0.0000 43.1664 0.0000
# 6 0.0000 0.0000 0.0000 0.0000 0.0000 11.4007
#
#
#
# Elastic Compliance Matrix: (Units=1/GPa)
#
#
# Indices 1 2 3 4 5 6 
#
# 1 0.012127 -0.004975 -0.006310 0.000000 0.000000 0.000000
# 2 -0.004975 0.028099 -0.000426 0.000000 0.000000 0.000000
# 3 -0.006310 -0.000426 0.009114 0.000000 0.000000 0.000000
# 4 0.000000 0.000000 0.000000 0.022304 0.000000 0.000000
# 5 0.000000 0.000000 0.000000 0.000000 0.023166 0.000000
# 6 0.000000 0.000000 0.000000 0.000000 0.000000 0.087714
#
#
# Mechanical properties :
#
#
# Convention : Reuss Voigt Hill
#
# Bulk Modulus (GPa) = 38.58139 75.07712 56.82926
# Shear Modulus (GPa) = 23.30091 34.45086 28.87589
#
# Velocity S-wave (km/s) = 3.39384 4.12673 3.77810
# Velocity P-wave (km/s) = 5.86765 7.73427 6.86470
#
# Compressibility (1/GPa) = 0.02591923
#
# Stress axis : x y z
#
# Youngs Moduli (GPa) = 82.45795 35.58898 109.72225
#
# Poissons Ratio (x) = 0.17705 0.69233
# Poissons Ratio (y) = 0.41021 0.04671
# Poissons Ratio (z) = 0.52030 0.01515
#
# Static dielectric constant tensor:
#      x y z
#    x 1.638700 0.000000 0.000000 
#    y 0.000000 1.722950 0.000000 
#    z 0.000000 0.000000 1.703020 
# 
# From -- ./inp_files/49081.got.cif
#   From: 2010.05.17/outbox.cif.g08.bks.cpg/sg65_25_cif.got.tgz:49081.got - 2010.06.03 17:01:31.
