data_PCOD9493997
_publ_section_title
;
Structure prediction by ZEFSAII (Michael W. Deem and Ramdas Pophale) SiO2 
 PCOD9493997
Probable space group: C M M M
;
_chemical_formula_sum "Si O2"
_cell_formula_units_Z 64
_cell_length_a 15.191925
_cell_length_b 9.364004
_cell_length_c 22.389778
_cell_angle_alpha 90.000000
_cell_angle_beta 90.000000
_cell_angle_gamma 90.000000
_cell_volume 3185.108167
_symmetry_space_group_name_H-M "C M M M"
_symmetry_group_IT_number 65
_symmetry_cell_setting 'orthorhombic'
loop_
_space_group_symop_operation_xyz
x,y,z
-x,-y,z
x,-y,-z
-x,y,-z
-x,-y,-z
x,y,-z
-x,y,z
x,-y,z
1/2+x,1/2+y,z
1/2-x,1/2-y,z
1/2+x,1/2-y,-z
1/2-x,1/2+y,-z
1/2-x,1/2-y,-z
1/2+x,1/2+y,-z
1/2-x,1/2+y,z
1/2+x,1/2-y,z
loop_
_atom_site_type_symbol
_atom_site_label
_atom_site_fract_x
_atom_site_fract_y
_atom_site_fract_z
Si Si1 0.892226 0.163090 0.616826
Si Si2 0.338844 0.170540 0.868033
Si Si3 0.000000 0.832722 0.928457
Si Si4 0.392189 0.163343 0.500000
Si Si5 0.106084 0.335855 0.267946
O O1 0.864326 0.254917 0.559775
O O2 0.864088 0.232258 0.679343
O O3 0.000000 0.164538 0.617022
O O4 0.863582 0.000000 0.611433
O O5 0.250000 0.250000 0.885584
O O6 0.416896 0.248721 0.902441
O O7 0.353791 0.190982 0.796928
O O8 0.337477 0.000000 0.879194
O O9 0.000000 0.000000 0.909954
O O10 0.000000 0.828225 0.000000
O O11 0.500000 0.162947 0.500000
O O12 0.362835 0.000000 0.500000
O O13 0.123972 0.500000 0.285315
O O14 0.000000 0.322024 0.261637
#
# Coordination Sequence:
#
# PCOD9493997 Si02
#       5
#    16  16   8   8  16
#     4   9  16  24  38  64  97 136 184 239 296 351
#     4  11  23  41  65  95 128 166 208 255 306 363
#     4  11  25  45  69  97 129 166 207 252 303 361
#     4   9  15  23  35  55  90 137 184 234 293 354
#     4   9  17  32  52  76 109 149 194 241 297 359
#
# _framework density 20.093509000000001
#
# number of rings (size 3 to 8) (size 9 to 14) (size 15 to 20)
#    0.000    2.250    1.250    2.250    0.000    8.000 
#    0.000    0.000    0.000    0.000    0.000    0.875 
#    0.000    0.000    0.000    0.000    0.000    0.000 
#
# Total GULP energy -178840.724959 kJ/mol
# GULP energy per Si atom -5588.772655 kJ/mol
# Density = 2.004778 g / cm^3
# Si number density = 20.093509 Si / 1000 Ang^3
#
#
#
# Elastic Constant Matrix: (Units=GPa)
#
#
# Indices 1 2 3 4 5 6 
#
# 1 93.1306 73.5796 45.7638 0.0000 0.0000 0.0000
# 2 73.5796 189.0751 95.3188 0.0000 0.0000 0.0000
# 3 45.7638 95.3188 85.3083 0.0000 0.0000 0.0000
# 4 0.0000 0.0000 0.0000 37.8380 0.0000 0.0000
# 5 0.0000 0.0000 0.0000 0.0000 -32.3956 0.0000
# 6 0.0000 0.0000 0.0000 0.0000 0.0000 17.7269
#
#
#
# Elastic Compliance Matrix: (Units=1/GPa)
#
#
# Indices 1 2 3 4 5 6 
#
# 1 0.016005 -0.004351 -0.003725 0.000000 0.000000 0.000000
# 2 -0.004351 0.013293 -0.012519 0.000000 0.000000 0.000000
# 3 -0.003725 -0.012519 0.027709 0.000000 0.000000 0.000000
# 4 0.000000 0.000000 0.000000 0.026428 0.000000 0.000000
# 5 0.000000 0.000000 0.000000 0.000000 -0.030868 0.000000
# 6 0.000000 0.000000 0.000000 0.000000 0.000000 0.056411
#
#
# Mechanical properties :
#
#
# Convention : Reuss Voigt Hill
#
# Bulk Modulus (GPa) = 63.22013 88.53759 75.87886
# Shear Modulus (GPa) = 32.16645 14.82400 23.49522
#
# Velocity S-wave (km/s) = 4.00539 2.71910 3.42320
# Velocity P-wave (km/s) = 7.27476 7.34959 7.31227
#
# Compressibility (1/GPa) = 0.01581775
#
# Stress axis : x y z
#
# Youngs Moduli (GPa) = 62.47904 75.22492 36.08962
#
# Poissons Ratio (x) = 0.32729 0.13442
# Poissons Ratio (y) = 0.27183 0.45182
# Poissons Ratio (z) = 0.23272 0.94177
#
# Static dielectric constant tensor:
#      x y z
#    x 1.798630 0.000000 0.000000 
#    y 0.000000 1.673110 0.000000 
#    z 0.000000 0.000000 1.669040 
# 
# From -- ./inp_files/66791.got.cif
#   From: 2010.05.17/outbox.cif.g08.bks.cpg/sg65_34_cif.got.tgz:66791.got - 2010.06.03 17:01:31.
