data_PCOD9493201
_publ_section_title
;
Structure prediction by ZEFSAII (Michael W. Deem and Ramdas Pophale) SiO2 
 PCOD9493201
Probable space group: C M M M
;
_chemical_formula_sum "Si O2"
_cell_formula_units_Z 112
_cell_length_a 15.333746
_cell_length_b 14.925683
_cell_length_c 23.099877
_cell_angle_alpha 90.000000
_cell_angle_beta 90.000000
_cell_angle_gamma 90.000000
_cell_volume 5286.791049
_symmetry_space_group_name_H-M "C M M M"
_symmetry_group_IT_number 65
_symmetry_cell_setting 'orthorhombic'
loop_
_space_group_symop_operation_xyz
x,y,z
-x,-y,z
x,-y,-z
-x,y,-z
-x,-y,-z
x,y,-z
-x,y,z
x,-y,z
1/2+x,1/2+y,z
1/2-x,1/2-y,z
1/2+x,1/2-y,-z
1/2-x,1/2+y,-z
1/2-x,1/2-y,-z
1/2+x,1/2+y,-z
1/2-x,1/2+y,z
1/2+x,1/2-y,z
loop_
_atom_site_type_symbol
_atom_site_label
_atom_site_fract_x
_atom_site_fract_y
_atom_site_fract_z
Si Si1 0.343435 0.243041 0.270866
Si Si2 0.905029 0.601507 0.809988
Si Si3 0.851716 0.641265 0.062646
Si Si4 0.143864 0.855538 0.937030
Si Si5 0.601320 0.404593 0.808320
Si Si6 0.101802 0.744760 0.394994
Si Si7 0.245035 0.106377 0.430402
O O1 0.250000 0.250000 0.299695
O O2 0.341339 0.158451 0.228454
O O3 0.359108 0.324433 0.227449
O O4 0.405808 0.239189 0.325266
O O5 0.904982 0.500000 0.790660
O O6 0.888807 0.603232 0.878438
O O7 0.000000 0.643859 0.800174
O O8 0.867432 0.748096 0.064440
O O9 0.747656 0.626846 0.063938
O O10 0.884335 0.608646 0.000000
O O11 0.106848 0.892203 0.877593
O O12 0.110726 0.887131 0.000000
O O13 0.500000 0.406602 0.793080
O O14 0.643419 0.500000 0.794047
O O15 0.160132 0.834175 0.410205
O O16 0.165614 0.661275 0.413661
O O17 0.000000 0.744665 0.417428
O O18 0.241868 0.105961 0.500000
O O19 0.244468 0.000000 0.411288
#
# Coordination Sequence:
#
# PCOD9493201 Si02
#       7
#    16  16  16  16  16  16  16
#     4  12  24  43  65  88 124 168 215 269 322 378
#     4  11  24  39  57  85 118 153 199 256 322 393
#     4   9  18  34  56  80 107 144 192 248 315 389
#     4   9  18  34  56  80 107 144 192 248 315 389
#     4  11  24  39  57  85 118 153 199 256 322 393
#     4  11  23  43  71 103 142 191 242 286 335 400
#     4  10  23  45  72 109 153 190 231 283 337 393
#
# _framework density 21.184873
#
# number of rings (size 3 to 8) (size 9 to 14) (size 15 to 20)
#    0.000    1.571    2.857    3.857    0.000    6.286 
#    0.000    5.714    0.000    0.000    0.000    0.000 
#    0.000    0.000    0.000    0.000    0.000    0.000 
#
# Total GULP energy -312299.535451 kJ/mol
# GULP energy per Si atom -5576.777419 kJ/mol
# Density = 2.113665 g / cm^3
# Si number density = 21.184873 Si / 1000 Ang^3
#
#
#
# Elastic Constant Matrix: (Units=GPa)
#
#
# Indices 1 2 3 4 5 6 
#
# 1 108.6065 45.1648 14.9352 0.0000 0.0000 0.0000
# 2 45.1648 116.2100 34.2720 0.0000 0.0000 0.0000
# 3 14.9352 34.2720 96.9798 0.0000 0.0000 0.0000
# 4 0.0000 0.0000 0.0000 34.3567 0.0000 0.0000
# 5 0.0000 0.0000 0.0000 0.0000 12.8071 0.0000
# 6 0.0000 0.0000 0.0000 0.0000 0.0000 5.2351
#
#
#
# Elastic Compliance Matrix: (Units=1/GPa)
#
#
# Indices 1 2 3 4 5 6 
#
# 1 0.010986 -0.004210 -0.000204 0.000000 0.000000 0.000000
# 2 -0.004210 0.011219 -0.003317 0.000000 0.000000 0.000000
# 3 -0.000204 -0.003317 0.011515 0.000000 0.000000 0.000000
# 4 0.000000 0.000000 0.000000 0.029106 0.000000 0.000000
# 5 0.000000 0.000000 0.000000 0.000000 0.078082 0.000000
# 6 0.000000 0.000000 0.000000 0.000000 0.000000 0.191018
#
#
# Mechanical properties :
#
#
# Convention : Reuss Voigt Hill
#
# Bulk Modulus (GPa) = 54.76544 56.72669 55.74607
# Shear Modulus (GPa) = 14.14534 25.64139 19.89336
#
# Velocity S-wave (km/s) = 2.58681 3.48280 3.06769
# Velocity P-wave (km/s) = 5.90165 6.55807 6.23850
#
# Compressibility (1/GPa) = 0.01825969
#
# Stress axis : x y z
#
# Youngs Moduli (GPa) = 91.02326 89.13273 86.84377
#
# Poissons Ratio (x) = 0.37521 0.01774
# Poissons Ratio (y) = 0.38316 0.28802
# Poissons Ratio (z) = 0.01860 0.29561
#
# Static dielectric constant tensor:
#      x y z
#    x 1.831260 0.000000 0.000000 
#    y 0.000000 1.688870 0.000000 
#    z 0.000000 0.000000 1.721890 
# 
# From -- ./inp_files/69988.got.cif
#   From: 2010.05.17/outbox.cif.g08.bks.cpg/sg65_35_cif.got.tgz:69988.got - 2010.06.03 17:01:31.
