data_PCOD9493060
_publ_section_title
;
Structure prediction by ZEFSAII (Michael W. Deem and Ramdas Pophale) SiO2 
 PCOD9493060
Probable space group: C M M M
;
_chemical_formula_sum "Si O2"
_cell_formula_units_Z 48
_cell_length_a 8.511071
_cell_length_b 15.320808
_cell_length_c 19.477670
_cell_angle_alpha 90.000000
_cell_angle_beta 90.000000
_cell_angle_gamma 90.000000
_cell_volume 2539.819697
_symmetry_space_group_name_H-M "C M M M"
_symmetry_group_IT_number 65
_symmetry_cell_setting 'orthorhombic'
loop_
_space_group_symop_operation_xyz
x,y,z
-x,-y,z
x,-y,-z
-x,y,-z
-x,-y,-z
x,y,-z
-x,y,z
x,-y,z
1/2+x,1/2+y,z
1/2-x,1/2-y,z
1/2+x,1/2-y,-z
1/2-x,1/2+y,-z
1/2-x,1/2-y,-z
1/2+x,1/2+y,-z
1/2-x,1/2+y,z
1/2+x,1/2-y,z
loop_
_atom_site_type_symbol
_atom_site_label
_atom_site_fract_x
_atom_site_fract_y
_atom_site_fract_z
Si Si1 0.690842 0.898221 0.000000
Si Si2 0.311430 0.149007 0.500000
Si Si3 0.312104 0.500000 0.240036
Si Si4 0.810409 0.000000 0.600514
Si Si5 0.688029 0.842144 0.149732
O O1 0.746482 0.857030 0.928684
O O2 0.500000 0.893450 0.000000
O O3 0.733439 0.000000 0.000000
O O4 0.500000 0.152029 0.500000
O O5 0.250000 0.250000 0.500000
O O6 0.253122 0.087903 0.436530
O O7 0.500000 0.500000 0.237600
O O8 0.264911 0.500000 0.319689
O O9 0.248226 0.417213 0.199105
O O10 0.000000 0.000000 0.594191
O O11 0.500000 0.844025 0.148242
O O12 0.750000 0.750000 0.174560
#
# Coordination Sequence:
#
# PCOD9493060 Si02
#       5
#     8   8   8   8  16
#     4   9  17  34  58  83 110 148 196 247 302 353
#     4  11  22  39  66  96 124 155 194 235 282 342
#     4  11  24  41  60  86 120 157 198 241 292 350
#     4  10  22  41  63  89 123 157 194 242 288 340
#     4  11  22  38  60  84 116 154 197 248 300 355
#
# _framework density 18.898978
#
# number of rings (size 3 to 8) (size 9 to 14) (size 15 to 20)
#    0.000    1.500    1.667    5.000    0.000    4.000 
#    0.000    3.333    0.000    0.000    0.000    0.000 
#    0.000    0.000    0.000    0.000    0.000    0.000 
#
# Total GULP energy -134042.143760 kJ/mol
# GULP energy per Si atom -5585.089323 kJ/mol
# Density = 1.885596 g / cm^3
# Si number density = 18.898978 Si / 1000 Ang^3
#
#
#
# Elastic Constant Matrix: (Units=GPa)
#
#
# Indices 1 2 3 4 5 6 
#
# 1 75.6151 49.3032 53.1085 0.0000 0.0000 0.0000
# 2 49.3032 209.0829 98.9825 0.0000 0.0000 0.0000
# 3 53.1085 98.9825 170.9111 0.0000 0.0000 0.0000
# 4 0.0000 0.0000 0.0000 135.9632 0.0000 0.0000
# 5 0.0000 0.0000 0.0000 0.0000 23.3302 0.0000
# 6 0.0000 0.0000 0.0000 0.0000 0.0000 32.9135
#
#
#
# Elastic Compliance Matrix: (Units=1/GPa)
#
#
# Indices 1 2 3 4 5 6 
#
# 1 0.017591 -0.002150 -0.004221 0.000000 0.000000 0.000000
# 2 -0.002150 0.006852 -0.003300 0.000000 0.000000 0.000000
# 3 -0.004221 -0.003300 0.009074 0.000000 0.000000 0.000000
# 4 0.000000 0.000000 0.000000 0.007355 0.000000 0.000000
# 5 0.000000 0.000000 0.000000 0.000000 0.042863 0.000000
# 6 0.000000 0.000000 0.000000 0.000000 0.000000 0.030383
#
#
# Mechanical properties :
#
#
# Convention : Reuss Voigt Hill
#
# Bulk Modulus (GPa) = 70.54769 95.37750 82.96260
# Shear Modulus (GPa) = 36.18311 55.38905 45.78608
#
# Velocity S-wave (km/s) = 4.38031 5.41956 4.92741
# Velocity P-wave (km/s) = 7.93679 9.47305 8.73875
#
# Compressibility (1/GPa) = 0.01417481
#
# Stress axis : x y z
#
# Youngs Moduli (GPa) = 56.84591 145.93915 110.20359
#
# Poissons Ratio (x) = 0.31374 0.46520
# Poissons Ratio (y) = 0.12221 0.36372
# Poissons Ratio (z) = 0.23996 0.48166
#
# Static dielectric constant tensor:
#      x y z
#    x 1.639550 0.000000 0.000000 
#    y 0.000000 1.620980 0.000000 
#    z 0.000000 0.000000 1.661470 
# 
# From -- ./inp_files/48492.got.cif
#   From: 2010.05.17/outbox.cif.g08.bks.cpg/sg65_25_cif.got.tgz:48492.got - 2010.06.03 17:01:31.
