data_PCOD9493661
_publ_section_title
;
Structure prediction by ZEFSAII (Michael W. Deem and Ramdas Pophale) SiO2 
 PCOD9493661
Probable space group: C M M M
;
_chemical_formula_sum "Si O2"
_cell_formula_units_Z 72
_cell_length_a 32.706439
_cell_length_b 13.697256
_cell_length_c 8.012712
_cell_angle_alpha 90.000000
_cell_angle_beta 90.000000
_cell_angle_gamma 90.000000
_cell_volume 3589.602572
_symmetry_space_group_name_H-M "C M M M"
_symmetry_group_IT_number 65
_symmetry_cell_setting 'orthorhombic'
loop_
_space_group_symop_operation_xyz
x,y,z
-x,-y,z
x,-y,-z
-x,y,-z
-x,-y,-z
x,y,-z
-x,y,z
x,-y,z
1/2+x,1/2+y,z
1/2-x,1/2-y,z
1/2+x,1/2-y,-z
1/2-x,1/2+y,-z
1/2-x,1/2-y,-z
1/2+x,1/2+y,-z
1/2-x,1/2+y,z
1/2+x,1/2-y,z
loop_
_atom_site_type_symbol
_atom_site_label
_atom_site_fract_x
_atom_site_fract_y
_atom_site_fract_z
Si Si1 0.592393 0.694589 0.803323
Si Si2 0.953113 0.609520 0.299474
Si Si3 0.952638 0.000000 0.204484
Si Si4 0.268698 0.106148 0.296437
Si Si5 0.314831 0.299065 0.298144
O O1 0.575337 0.798894 0.742798
O O2 0.568763 0.599543 0.734668
O O3 0.640309 0.682028 0.767656
O O4 0.585721 0.694749 0.000000
O O5 0.954352 0.605125 0.500000
O O6 0.940458 0.500000 0.241180
O O7 0.000000 0.626619 0.240612
O O8 0.000000 0.000000 0.250653
O O9 0.950304 0.000000 0.000000
O O10 0.269073 0.107686 0.500000
O O11 0.298227 0.193036 0.243293
O O12 0.221873 0.128651 0.247693
O O13 0.281688 0.000000 0.238817
O O14 0.316799 0.300347 0.500000
#
# Coordination Sequence:
#
# PCOD9493661 Si02
#       5
#    16  16   8  16  16
#     4  11  22  35  54  80 111 145 183 224 267 324
#     4   9  19  37  59  81 106 137 174 220 274 325
#     4   9  20  38  55  73 105 151 191 223 267 321
#     4   8  15  30  52  74  99 135 176 219 266 320
#     4   9  18  32  51  77 103 132 176 223 270 318
#
# _framework density 20.057929999999999
#
# number of rings (size 3 to 8) (size 9 to 14) (size 15 to 20)
#    0.000    2.778    0.000    3.333    1.556    2.667 
#    0.000    7.222    0.000    5.333    0.000    0.000 
#    0.000    0.000    0.000    0.000    0.000    0.000 
#
# Total GULP energy -200753.786911 kJ/mol
# GULP energy per Si atom -5576.494081 kJ/mol
# Density = 2.001228 g / cm^3
# Si number density = 20.057930 Si / 1000 Ang^3
#
#
#
# Elastic Constant Matrix: (Units=GPa)
#
#
# Indices 1 2 3 4 5 6 
#
# 1 105.6574 48.6393 -2.1142 0.0000 0.0000 0.0000
# 2 48.6393 114.2942 7.4750 0.0000 0.0000 0.0000
# 3 -2.1142 7.4750 14.7452 0.0000 0.0000 0.0000
# 4 0.0000 0.0000 0.0000 11.0722 0.0000 0.0000
# 5 0.0000 0.0000 0.0000 0.0000 10.6233 0.0000
# 6 0.0000 0.0000 0.0000 0.0000 0.0000 3.7609
#
#
#
# Elastic Compliance Matrix: (Units=1/GPa)
#
#
# Indices 1 2 3 4 5 6 
#
# 1 0.012049 -0.005420 0.004476 0.000000 0.000000 0.000000
# 2 -0.005420 0.011488 -0.006601 0.000000 0.000000 0.000000
# 3 0.004476 -0.006601 0.071807 0.000000 0.000000 0.000000
# 4 0.000000 0.000000 0.000000 0.090316 0.000000 0.000000
# 5 0.000000 0.000000 0.000000 0.000000 0.094133 0.000000
# 6 0.000000 0.000000 0.000000 0.000000 0.000000 0.265895
#
#
# Mechanical properties :
#
#
# Convention : Reuss Voigt Hill
#
# Bulk Modulus (GPa) = 12.46073 38.07746 25.26909
# Shear Modulus (GPa) = 8.51019 17.13772 12.82396
#
# Velocity S-wave (km/s) = 2.06204 2.92620 2.53127
# Velocity P-wave (km/s) = 3.44894 5.51741 4.60093
#
# Compressibility (1/GPa) = 0.08025212
#
# Stress axis : x y z
#
# Youngs Moduli (GPa) = 82.99148 87.04869 13.92631
#
# Poissons Ratio (x) = 0.47185 -0.06233
# Poissons Ratio (y) = 0.44986 0.09193
# Poissons Ratio (z) = -0.37143 0.57460
#
# Static dielectric constant tensor:
#      x y z
#    x 1.672080 0.000000 0.000000 
#    y 0.000000 1.727810 0.000000 
#    z 0.000000 0.000000 1.729520 
# 
# From -- ./inp_files/15755.got.cif
#   From: 2010.05.17/outbox.cif.g08.bks.cpg/sg65_8_cif.got.tgz:15755.got - 2010.06.03 17:01:31.
