data_PCOD9493009
_publ_section_title
;
Structure prediction by ZEFSAII (Michael W. Deem and Ramdas Pophale) SiO2 
 PCOD9493009
Probable space group: C M M M
;
_chemical_formula_sum "Si O2"
_cell_formula_units_Z 58
_cell_length_a 8.039464
_cell_length_b 24.887047
_cell_length_c 15.614181
_cell_angle_alpha 90.000000
_cell_angle_beta 90.000000
_cell_angle_gamma 90.000000
_cell_volume 3124.062201
_symmetry_space_group_name_H-M "C M M M"
_symmetry_group_IT_number 65
_symmetry_cell_setting 'orthorhombic'
loop_
_space_group_symop_operation_xyz
x,y,z
-x,-y,z
x,-y,-z
-x,y,-z
-x,-y,-z
x,y,-z
-x,y,z
x,-y,z
1/2+x,1/2+y,z
1/2-x,1/2-y,z
1/2+x,1/2-y,-z
1/2-x,1/2+y,-z
1/2-x,1/2-y,-z
1/2+x,1/2+y,-z
1/2-x,1/2+y,z
1/2+x,1/2-y,z
loop_
_atom_site_type_symbol
_atom_site_label
_atom_site_fract_x
_atom_site_fract_y
_atom_site_fract_z
Si Si1 0.800733 0.812210 0.904251
Si Si2 0.192218 0.399637 0.229017
Si Si3 0.000000 0.500000 0.000000
Si Si4 0.184774 0.000000 0.868636
Si Si5 0.299218 0.562103 0.402728
O O1 0.750000 0.750000 0.897353
O O2 0.726982 0.847154 0.827713
O O3 0.000000 0.816250 0.901391
O O4 0.745963 0.831370 0.000000
O O5 0.301585 0.447076 0.189170
O O6 0.232658 0.398756 0.329551
O O7 0.000000 0.413875 0.219142
O O8 0.151279 0.500000 0.927507
O O9 0.000000 0.000000 0.908479
O O10 0.247372 0.575017 0.500000
O O11 0.500000 0.562895 0.400457
O O12 0.247062 0.500000 0.384959
#
# Coordination Sequence:
#
# PCOD9493009 Si02
#       5
#    16  16   2   8  16
#     4  10  22  40  61  85 111 152 200 249 303 349
#     4  12  23  37  57  87 122 156 201 246 290 359
#     4  12  26  44  52  86 118 160 210 240 296 376
#     4  12  25  41  58  83 122 161 199 248 300 356
#     4   9  18  34  57  84 115 154 197 242 298 359
#
# _framework density 18.565570999999998
#
# number of rings (size 3 to 8) (size 9 to 14) (size 15 to 20)
#    0.000    1.379    2.759    4.345    1.931    2.207 
#    0.000    1.379    0.000    0.828    0.000    0.000 
#    0.000    0.000    0.000    0.000    0.000    0.000 
#
# Total GULP energy -161637.159414 kJ/mol
# GULP energy per Si atom -5573.695152 kJ/mol
# Density = 1.852332 g / cm^3
# Si number density = 18.565571 Si / 1000 Ang^3
#
#
#
# Elastic Constant Matrix: (Units=GPa)
#
#
# Indices 1 2 3 4 5 6 
#
# 1 103.7347 9.5837 39.7416 0.0000 0.0000 0.0000
# 2 9.5837 57.0074 59.1405 0.0000 0.0000 0.0000
# 3 39.7416 59.1405 172.2219 0.0000 0.0000 0.0000
# 4 0.0000 0.0000 0.0000 30.2420 0.0000 0.0000
# 5 0.0000 0.0000 0.0000 0.0000 19.4741 0.0000
# 6 0.0000 0.0000 0.0000 0.0000 0.0000 17.0490
#
#
#
# Elastic Compliance Matrix: (Units=1/GPa)
#
#
# Indices 1 2 3 4 5 6 
#
# 1 0.010625 0.001177 -0.002856 0.000000 0.000000 0.000000
# 2 0.001177 0.027379 -0.009673 0.000000 0.000000 0.000000
# 3 -0.002856 -0.009673 0.009787 0.000000 0.000000 0.000000
# 4 0.000000 0.000000 0.000000 0.033067 0.000000 0.000000
# 5 0.000000 0.000000 0.000000 0.000000 0.051350 0.000000
# 6 0.000000 0.000000 0.000000 0.000000 0.000000 0.058655
#
#
# Mechanical properties :
#
#
# Convention : Reuss Voigt Hill
#
# Bulk Modulus (GPa) = 39.86247 61.09952 50.48099
# Shear Modulus (GPa) = 22.52953 28.31956 25.42454
#
# Velocity S-wave (km/s) = 3.48733 3.90985 3.70462
# Velocity P-wave (km/s) = 6.14272 7.30508 6.74897
#
# Compressibility (1/GPa) = 0.02508625
#
# Stress axis : x y z
#
# Youngs Moduli (GPa) = 94.11410 36.52408 102.17306
#
# Poissons Ratio (x) = -0.04297 0.29180
# Poissons Ratio (y) = -0.11073 0.98836
# Poissons Ratio (z) = 0.26878 0.35331
#
# Static dielectric constant tensor:
#      x y z
#    x 1.651720 0.000000 0.000000 
#    y 0.000000 1.609230 0.000000 
#    z 0.000000 0.000000 1.678380 
# 
# From -- ./inp_files/35864.got.cif
#   From: 2010.05.17/outbox.cif.g08.bks.cpg/sg65_18_cif.got.tgz:35864.got - 2010.06.03 17:01:31.
