data_PCOD9493245
_publ_section_title
;
Structure prediction by ZEFSAII (Michael W. Deem and Ramdas Pophale) SiO2 
 PCOD9493245
Probable space group: C M M M
;
_chemical_formula_sum "Si O2"
_cell_formula_units_Z 42
_cell_length_a 15.387324
_cell_length_b 9.615063
_cell_length_c 14.400852
_cell_angle_alpha 90.000000
_cell_angle_beta 90.000000
_cell_angle_gamma 90.000000
_cell_volume 2130.607345
_symmetry_space_group_name_H-M "C M M M"
_symmetry_group_IT_number 65
_symmetry_cell_setting 'orthorhombic'
loop_
_space_group_symop_operation_xyz
x,y,z
-x,-y,z
x,-y,-z
-x,y,-z
-x,-y,-z
x,y,-z
-x,y,z
x,-y,z
1/2+x,1/2+y,z
1/2-x,1/2-y,z
1/2+x,1/2-y,-z
1/2-x,1/2+y,-z
1/2-x,1/2-y,-z
1/2+x,1/2+y,-z
1/2-x,1/2+y,z
1/2+x,1/2-y,z
loop_
_atom_site_type_symbol
_atom_site_label
_atom_site_fract_x
_atom_site_fract_y
_atom_site_fract_z
Si Si1 0.000000 0.212896 0.102620
Si Si2 0.000000 0.500000 0.000000
Si Si3 0.329310 0.338660 0.777222
Si Si4 0.895216 0.338153 0.607222
O O1 0.000000 0.377117 0.080153
O O2 0.085384 0.173540 0.159515
O O3 0.000000 0.148649 0.000000
O O4 0.306337 0.500000 0.766351
O O5 0.250000 0.250000 0.819007
O O6 0.351877 0.265862 0.679310
O O7 0.871815 0.310003 0.500000
O O8 0.873836 0.500000 0.627555
O O9 0.000000 0.325333 0.614871
#
# Coordination Sequence:
#
# PCOD9493245 Si02
#       4
#     8   2  16  16
#     4  10  25  46  71  94 128 163 211 260 326 378
#     4   8  24  44  78  96 118 178 198 264 332 376
#     4  12  26  41  66  97 131 171 214 264 319 378
#     4   9  19  37  64  94 128 171 215 262 316 376
#
# _framework density 19.712688
#
# number of rings (size 3 to 8) (size 9 to 14) (size 15 to 20)
#    0.571    1.143    1.905    2.857    5.333    3.810 
#    0.000    1.905    0.000    0.000    0.000    0.000 
#    0.000    0.000    0.000    0.000    0.000    0.000 
#
# Total GULP energy -117025.882846 kJ/mol
# GULP energy per Si atom -5572.661088 kJ/mol
# Density = 1.966782 g / cm^3
# Si number density = 19.712688 Si / 1000 Ang^3
#
#
#
# Elastic Constant Matrix: (Units=GPa)
#
#
# Indices 1 2 3 4 5 6 
#
# 1 124.1723 45.1213 54.7315 0.0000 0.0000 0.0000
# 2 45.1213 161.2115 50.8919 0.0000 0.0000 0.0000
# 3 54.7315 50.8919 98.6676 0.0000 0.0000 0.0000
# 4 0.0000 0.0000 0.0000 29.3212 0.0000 0.0000
# 5 0.0000 0.0000 0.0000 0.0000 -12.4908 0.0000
# 6 0.0000 0.0000 0.0000 0.0000 0.0000 18.3102
#
#
#
# Elastic Compliance Matrix: (Units=1/GPa)
#
#
# Indices 1 2 3 4 5 6 
#
# 1 0.010905 -0.001365 -0.005345 0.000000 0.000000 0.000000
# 2 -0.001365 0.007580 -0.003153 0.000000 0.000000 0.000000
# 3 -0.005345 -0.003153 0.014726 0.000000 0.000000 0.000000
# 4 0.000000 0.000000 0.000000 0.034105 0.000000 0.000000
# 5 0.000000 0.000000 0.000000 0.000000 -0.080059 0.000000
# 6 0.000000 0.000000 0.000000 0.000000 0.000000 0.054614
#
#
# Mechanical properties :
#
#
# Convention : Reuss Voigt Hill
#
# Bulk Modulus (GPa) = 74.15032 76.17119 75.16075
# Shear Modulus (GPa) = 75.65035 22.58190 49.11613
#
# Velocity S-wave (km/s) = 6.20160 3.38827 4.99701
# Velocity P-wave (km/s) = 9.43276 7.35063 8.45602
#
# Compressibility (1/GPa) = 0.01348612
#
# Stress axis : x y z
#
# Youngs Moduli (GPa) = 91.69840 131.92057 67.90590
#
# Poissons Ratio (x) = 0.18005 0.36297
# Poissons Ratio (y) = 0.12516 0.21409
# Poissons Ratio (z) = 0.49015 0.41591
#
# Static dielectric constant tensor:
#      x y z
#    x 1.715210 0.000000 0.000000 
#    y 0.000000 1.668850 0.000000 
#    z 0.000000 0.000000 1.680810 
# 
# From -- ./inp_files/39117.got.cif
#   From: 2010.05.17/outbox.cif.g08.bks.cpg/sg65_20_cif.got.tgz:39117.got - 2010.06.03 17:01:31.
