data_PCOD9493725
_publ_section_title
;
Structure prediction by ZEFSAII (Michael W. Deem and Ramdas Pophale) SiO2 
 PCOD9493725
Probable space group: C M M M
;
_chemical_formula_sum "Si O2"
_cell_formula_units_Z 96
_cell_length_a 20.682594
_cell_length_b 8.646270
_cell_length_c 30.613316
_cell_angle_alpha 90.000000
_cell_angle_beta 90.000000
_cell_angle_gamma 90.000000
_cell_volume 5474.496400
_symmetry_space_group_name_H-M "C M M M"
_symmetry_group_IT_number 65
_symmetry_cell_setting 'orthorhombic'
loop_
_space_group_symop_operation_xyz
x,y,z
-x,-y,z
x,-y,-z
-x,y,-z
-x,-y,-z
x,y,-z
-x,y,z
x,-y,z
1/2+x,1/2+y,z
1/2-x,1/2-y,z
1/2+x,1/2-y,-z
1/2-x,1/2+y,-z
1/2-x,1/2-y,-z
1/2+x,1/2+y,-z
1/2-x,1/2+y,z
1/2+x,1/2-y,z
loop_
_atom_site_type_symbol
_atom_site_label
_atom_site_fract_x
_atom_site_fract_y
_atom_site_fract_z
Si Si1 0.075143 0.686513 0.720156
Si Si2 0.926603 0.311554 0.619827
Si Si3 0.925441 0.186260 0.949180
Si Si4 0.678956 0.813063 0.449922
Si Si5 0.820125 0.315971 0.883374
Si Si6 0.179691 0.184166 0.213243
O O1 0.080988 0.500000 0.722990
O O2 0.088598 0.732391 0.669813
O O3 0.124754 0.762723 0.753325
O O4 0.000000 0.725280 0.729479
O O5 0.926743 0.500000 0.619035
O O6 0.874443 0.258486 0.584589
O O7 0.000000 0.261909 0.609691
O O8 0.874863 0.264561 0.917121
O O9 0.000000 0.227959 0.939106
O O10 0.920144 0.000000 0.945320
O O11 0.913291 0.225983 0.000000
O O12 0.663565 0.767654 0.500000
O O13 0.750000 0.750000 0.439350
O O14 0.680813 0.000000 0.448551
O O15 0.816216 0.500000 0.880686
O O16 0.750000 0.250000 0.896698
O O17 0.834205 0.249195 0.835178
O O18 0.250000 0.250000 0.226366
O O19 0.183345 0.000000 0.211172
#
# Coordination Sequence:
#
# PCOD9493725 Si02
#       6
#    16  16  16  16  16  16
#     4   9  18  34  54  75 102 134 168 208 255 307
#     4   8  15  29  49  72  97 126 162 205 249 292
#     4   9  19  37  59  82 110 143 178 217 260 305
#     4   9  17  29  46  69  97 128 163 203 246 294
#     4  11  22  37  57  80 108 140 176 217 260 308
#     4  11  22  37  56  77 104 135 171 214 258 307
#
# _framework density 17.535858999999999
#
# number of rings (size 3 to 8) (size 9 to 14) (size 15 to 20)
#    0.000    2.500    0.000    5.500    0.000    3.000 
#    0.000    5.000    0.000    1.500    0.000    2.333 
#    0.000    0.000    0.000    0.000    0.000    0.000 
#
# Total GULP energy -267812.566275 kJ/mol
# GULP energy per Si atom -5579.428464 kJ/mol
# Density = 1.749595 g / cm^3
# Si number density = 17.535859 Si / 1000 Ang^3
#
#
#
# Elastic Constant Matrix: (Units=GPa)
#
#
# Indices 1 2 3 4 5 6 
#
# 1 164.6939 66.1373 134.3905 0.0000 0.0000 0.0000
# 2 66.1373 71.9794 57.9921 0.0000 0.0000 0.0000
# 3 134.3905 57.9921 126.6759 0.0000 0.0000 0.0000
# 4 0.0000 0.0000 0.0000 16.7276 0.0000 0.0000
# 5 0.0000 0.0000 0.0000 0.0000 43.3626 0.0000
# 6 0.0000 0.0000 0.0000 0.0000 0.0000 25.2643
#
#
#
# Elastic Compliance Matrix: (Units=1/GPa)
#
#
# Indices 1 2 3 4 5 6 
#
# 1 0.046188 -0.004690 -0.046854 0.000000 0.000000 0.000000
# 2 -0.004690 0.022488 -0.005319 0.000000 0.000000 0.000000
# 3 -0.046854 -0.005319 0.060036 0.000000 0.000000 0.000000
# 4 0.000000 0.000000 0.000000 0.059781 0.000000 0.000000
# 5 0.000000 0.000000 0.000000 0.000000 0.023061 0.000000
# 6 0.000000 0.000000 0.000000 0.000000 0.000000 0.039581
#
#
# Mechanical properties :
#
#
# Convention : Reuss Voigt Hill
#
# Bulk Modulus (GPa) = 66.72786 97.82099 82.27443
# Shear Modulus (GPa) = 13.51869 24.05954 18.78912
#
# Velocity S-wave (km/s) = 2.77955 3.70810 3.27688
# Velocity P-wave (km/s) = 6.95960 8.61614 7.83179
#
# Compressibility (1/GPa) = 0.01498624
#
# Stress axis : x y z
#
# Youngs Moduli (GPa) = 21.65053 44.46845 16.65656
#
# Poissons Ratio (x) = 0.20857 0.78042
# Poissons Ratio (y) = 0.10155 0.08859
# Poissons Ratio (z) = 1.01441 0.23652
#
# Static dielectric constant tensor:
#      x y z
#    x 1.575020 0.000000 0.000000 
#    y 0.000000 1.591380 0.000000 
#    z 0.000000 0.000000 1.581440 
# 
# From -- ./inp_files/71416.got.cif
#   From: 2010.05.17/outbox.cif.g08.bks.cpg/sg65_36_cif.got.tgz:71416.got - 2010.06.03 17:01:31.
