data_PCOD9493867
_publ_section_title
;
Structure prediction by ZEFSAII (Michael W. Deem and Ramdas Pophale) SiO2 
 PCOD9493867
Probable space group: C M M M
;
_chemical_formula_sum "Si O2"
_cell_formula_units_Z 88
_cell_length_a 9.921045
_cell_length_b 21.912647
_cell_length_c 22.294852
_cell_angle_alpha 90.000000
_cell_angle_beta 90.000000
_cell_angle_gamma 90.000000
_cell_volume 4846.819604
_symmetry_space_group_name_H-M "C M M M"
_symmetry_group_IT_number 65
_symmetry_cell_setting 'orthorhombic'
loop_
_space_group_symop_operation_xyz
x,y,z
-x,-y,z
x,-y,-z
-x,y,-z
-x,-y,-z
x,y,-z
-x,y,z
x,-y,z
1/2+x,1/2+y,z
1/2-x,1/2-y,z
1/2+x,1/2-y,-z
1/2-x,1/2+y,-z
1/2-x,1/2-y,-z
1/2+x,1/2+y,-z
1/2-x,1/2+y,z
1/2+x,1/2-y,z
loop_
_atom_site_type_symbol
_atom_site_label
_atom_site_fract_x
_atom_site_fract_y
_atom_site_fract_z
Si Si1 0.142007 0.500000 0.856393
Si Si2 0.859046 0.000000 0.244359
Si Si3 0.156331 0.893594 0.658700
Si Si4 0.163653 0.000000 0.431116
Si Si5 0.665031 0.812820 0.259553
Si Si6 0.500000 0.646072 0.070047
Si Si7 0.000000 0.708341 0.067538
Si Si8 0.283316 0.870278 0.130773
O O1 0.249639 0.500000 0.805069
O O2 0.156490 0.435644 0.888709
O O3 0.000000 0.500000 0.824350
O O4 0.852716 0.057952 0.287237
O O5 0.000000 0.000000 0.211053
O O6 0.201376 0.937336 0.603523
O O7 0.264283 0.844069 0.682024
O O8 0.000000 0.871116 0.648935
O O9 0.207454 0.000000 0.500000
O O10 0.000000 0.000000 0.428915
O O11 0.500000 0.805033 0.263999
O O12 0.750000 0.750000 0.249680
O O13 0.695520 0.855670 0.201392
O O14 0.500000 0.719303 0.067799
O O15 0.368490 0.628486 0.107676
O O16 0.500000 0.624562 0.000000
O O17 0.131938 0.682831 0.099565
O O18 0.000000 0.685625 0.000000
#
# Coordination Sequence:
#
# PCOD9493867 Si02
#       8
#     8   8  16   8  16   8   8  16
#     4  12  23  39  56  83 116 151 183 233 296 365
#     4   9  18  31  52  78 112 150 183 218 271 334
#     4   9  18  33  55  88 122 157 196 239 288 346
#     4   8  15  32  61  95 128 165 207 248 287 344
#     4  12  24  37  57  86 121 157 197 251 306 360
#     4  11  26  45  67  87 111 148 197 254 300 357
#     4  11  22  45  67  85 113 148 195 246 300 361
#     4  12  25  40  62  91 115 152 197 244 306 373
#
# _framework density 18.156236
#
# number of rings (size 3 to 8) (size 9 to 14) (size 15 to 20)
#    0.000    1.364    3.636    3.818    3.818    1.455 
#    0.000    4.091    0.000    1.636    0.000    0.000 
#    0.000    0.000    0.000    0.000    0.000    0.000 
#
# Total GULP energy -245109.161139 kJ/mol
# GULP energy per Si atom -5570.662753 kJ/mol
# Density = 1.811491 g / cm^3
# Si number density = 18.156236 Si / 1000 Ang^3
#
#
#
# Elastic Constant Matrix: (Units=GPa)
#
#
# Indices 1 2 3 4 5 6 
#
# 1 146.7023 27.1078 34.6674 0.0000 0.0000 0.0000
# 2 27.1078 76.4457 9.9152 0.0000 0.0000 0.0000
# 3 34.6674 9.9152 76.6135 0.0000 0.0000 0.0000
# 4 0.0000 0.0000 0.0000 10.6486 0.0000 0.0000
# 5 0.0000 0.0000 0.0000 0.0000 16.0574 0.0000
# 6 0.0000 0.0000 0.0000 0.0000 0.0000 25.6039
#
#
#
# Elastic Compliance Matrix: (Units=1/GPa)
#
#
# Indices 1 2 3 4 5 6 
#
# 1 0.008051 -0.002423 -0.003329 0.000000 0.000000 0.000000
# 2 -0.002423 0.014034 -0.000720 0.000000 0.000000 0.000000
# 3 -0.003329 -0.000720 0.014652 0.000000 0.000000 0.000000
# 4 0.000000 0.000000 0.000000 0.093909 0.000000 0.000000
# 5 0.000000 0.000000 0.000000 0.000000 0.062276 0.000000
# 6 0.000000 0.000000 0.000000 0.000000 0.000000 0.039057
#
#
# Mechanical properties :
#
#
# Convention : Reuss Voigt Hill
#
# Bulk Modulus (GPa) = 42.03025 49.23803 45.63414
# Shear Modulus (GPa) = 19.77421 25.66673 22.72047
#
# Velocity S-wave (km/s) = 3.30375 3.76395 3.54133
# Velocity P-wave (km/s) = 6.14431 6.78732 6.47380
#
# Compressibility (1/GPa) = 0.02379239
#
# Stress axis : x y z
#
# Youngs Moduli (GPa) = 124.20720 71.25670 68.24875
#
# Poissons Ratio (x) = 0.17266 0.22723
# Poissons Ratio (y) = 0.30096 0.04912
# Poissons Ratio (z) = 0.41355 0.05129
#
# Static dielectric constant tensor:
#      x y z
#    x 1.650640 0.000000 0.000000 
#    y 0.000000 1.680710 0.000000 
#    z 0.000000 0.000000 1.618440 
# 
# From -- ./inp_files/67716.got.cif
#   From: 2010.05.17/outbox.cif.g08.bks.cpg/sg65_34_cif.got.tgz:67716.got - 2010.06.03 17:01:31.
