data_PCOD9493815
_publ_section_title
;
Structure prediction by ZEFSAII (Michael W. Deem and Ramdas Pophale) SiO2 
 PCOD9493815
Probable space group: C M M M
;
_chemical_formula_sum "Si O2"
_cell_formula_units_Z 56
_cell_length_a 8.068218
_cell_length_b 21.608321
_cell_length_c 15.020956
_cell_angle_alpha 90.000000
_cell_angle_beta 90.000000
_cell_angle_gamma 90.000000
_cell_volume 2618.763149
_symmetry_space_group_name_H-M "C M M M"
_symmetry_group_IT_number 65
_symmetry_cell_setting 'orthorhombic'
loop_
_space_group_symop_operation_xyz
x,y,z
-x,-y,z
x,-y,-z
-x,y,-z
-x,-y,-z
x,y,-z
-x,y,z
x,-y,z
1/2+x,1/2+y,z
1/2-x,1/2-y,z
1/2+x,1/2-y,-z
1/2-x,1/2+y,-z
1/2-x,1/2-y,-z
1/2+x,1/2+y,-z
1/2-x,1/2+y,z
1/2+x,1/2-y,z
loop_
_atom_site_type_symbol
_atom_site_label
_atom_site_fract_x
_atom_site_fract_y
_atom_site_fract_z
Si Si1 0.797119 0.926782 0.000000
Si Si2 0.203207 0.500000 0.394216
Si Si3 0.307702 0.679766 0.865977
Si Si4 0.306091 0.873483 0.314683
Si Si5 0.301832 0.680219 0.500000
O O1 0.741855 0.881608 0.081976
O O2 0.000000 0.930491 0.000000
O O3 0.742132 0.000000 0.000000
O O4 0.255543 0.500000 0.500000
O O5 0.258130 0.557964 0.335198
O O6 0.000000 0.500000 0.397882
O O7 0.500000 0.680697 0.887224
O O8 0.250000 0.750000 0.887203
O O9 0.280534 0.665364 0.762113
O O10 0.500000 0.875501 0.291672
O O11 0.279894 0.845451 0.411443
O O12 0.500000 0.670202 0.500000
O O13 0.250000 0.750000 0.500000
#
# Coordination Sequence:
#
# PCOD9493815 Si02
#       5
#     8   8  16  16   8
#     4   9  21  42  67  95 128 163 202 256 317 372
#     4   9  18  36  60  85 118 163 203 248 310 366
#     4  11  23  41  66  94 126 165 209 258 313 373
#     4  11  22  39  62  89 124 163 205 253 309 371
#     4  12  24  39  58  85 119 160 208 256 305 362
#
# _framework density 21.384139999999999
#
# number of rings (size 3 to 8) (size 9 to 14) (size 15 to 20)
#    0.000    1.429    1.429    4.286    2.000    0.000 
#    0.000    5.000    0.000    3.429    0.000    0.000 
#    0.000    0.000    0.000    0.000    0.000    0.000 
#
# Total GULP energy -156057.012117 kJ/mol
# GULP energy per Si atom -5573.464718 kJ/mol
# Density = 2.133547 g / cm^3
# Si number density = 21.384140 Si / 1000 Ang^3
#
#
#
# Elastic Constant Matrix: (Units=GPa)
#
#
# Indices 1 2 3 4 5 6 
#
# 1 26.3134 10.2354 -4.6467 0.0000 0.0000 0.0000
# 2 10.2354 213.7962 52.6868 0.0000 0.0000 0.0000
# 3 -4.6467 52.6868 110.5638 0.0000 0.0000 0.0000
# 4 0.0000 0.0000 0.0000 -24.8561 0.0000 0.0000
# 5 0.0000 0.0000 0.0000 0.0000 -55.5253 0.0000
# 6 0.0000 0.0000 0.0000 0.0000 0.0000 5.5259
#
#
#
# Elastic Compliance Matrix: (Units=1/GPa)
#
#
# Indices 1 2 3 4 5 6 
#
# 1 0.039531 -0.002608 0.002904 0.000000 0.000000 0.000000
# 2 -0.002608 0.005472 -0.002717 0.000000 0.000000 0.000000
# 3 0.002904 -0.002717 0.010461 0.000000 0.000000 0.000000
# 4 0.000000 0.000000 0.000000 -0.040232 0.000000 0.000000
# 5 0.000000 0.000000 0.000000 0.000000 -0.018010 0.000000
# 6 0.000000 0.000000 0.000000 0.000000 0.000000 0.180966
#
#
# Mechanical properties :
#
#
# Convention : Reuss Voigt Hill
#
# Bulk Modulus (GPa) = 19.75426 51.91380 35.83403
# Shear Modulus (GPa) = 25.01191 4.52209 14.76700
#
# Velocity S-wave (km/s) = 3.42372 1.45578 2.63070
# Velocity P-wave (km/s) = 4.98869 5.21106 5.10109
#
# Compressibility (1/GPa) = 0.05062200
#
# Stress axis : x y z
#
# Youngs Moduli (GPa) = 25.29666 182.75513 95.58966
#
# Poissons Ratio (x) = 0.47667 -0.27762
# Poissons Ratio (y) = 0.06598 0.25973
# Poissons Ratio (z) = -0.07347 0.49656
#
# Static dielectric constant tensor:
#      x y z
#    x 1.776470 0.000000 0.000000 
#    y 0.000000 1.437210 0.000000 
#    z 0.000000 0.000000 1.689520 
# 
# From -- ./inp_files/35540.got.cif
#   From: 2010.05.17/outbox.cif.g08.bks.cpg/sg65_18_cif.got.tgz:35540.got - 2010.06.03 17:01:31.
