data_PCOD9493652
_publ_section_title
;
Structure prediction by ZEFSAII (Michael W. Deem and Ramdas Pophale) SiO2 
 PCOD9493652
Probable space group: C M M M
;
_chemical_formula_sum "Si O2"
_cell_formula_units_Z 72
_cell_length_a 33.353619
_cell_length_b 13.982181
_cell_length_c 8.647550
_cell_angle_alpha 90.000000
_cell_angle_beta 90.000000
_cell_angle_gamma 90.000000
_cell_volume 4032.839749
_symmetry_space_group_name_H-M "C M M M"
_symmetry_group_IT_number 65
_symmetry_cell_setting 'orthorhombic'
loop_
_space_group_symop_operation_xyz
x,y,z
-x,-y,z
x,-y,-z
-x,y,-z
-x,-y,-z
x,y,-z
-x,y,z
x,-y,z
1/2+x,1/2+y,z
1/2-x,1/2-y,z
1/2+x,1/2-y,-z
1/2-x,1/2+y,-z
1/2-x,1/2-y,-z
1/2+x,1/2+y,-z
1/2-x,1/2+y,z
1/2+x,1/2-y,z
loop_
_atom_site_type_symbol
_atom_site_label
_atom_site_fract_x
_atom_site_fract_y
_atom_site_fract_z
Si Si1 0.855641 0.109015 0.825555
Si Si2 0.130042 0.610617 0.187414
Si Si3 0.923407 0.778627 0.678997
Si Si4 0.792974 0.275519 0.179313
Si Si5 0.500000 0.387575 0.184987
O O1 0.887733 0.145277 0.703827
O O2 0.817610 0.177155 0.821288
O O3 0.844650 0.000000 0.803001
O O4 0.873439 0.119425 0.000000
O O5 0.124124 0.500000 0.230081
O O6 0.095447 0.681786 0.248011
O O7 0.173963 0.649224 0.241877
O O8 0.130199 0.617921 0.000000
O O9 0.932052 0.762037 0.500000
O O10 0.961571 0.827592 0.758310
O O11 0.750000 0.250000 0.251968
O O12 0.785239 0.305480 0.000000
O O13 0.500000 0.500000 0.238879
O O14 0.500000 0.390637 0.000000
#
# Coordination Sequence:
#
# PCOD9493652 Si02
#       5
#    16  16  16  16   8
#     4   9  17  30  48  70  99 135 171 207 252 306
#     4   9  18  34  55  76 102 140 182 220 261 310
#     4  11  22  35  53  78 107 135 168 211 255 305
#     4   8  14  25  44  74 106 131 165 217 267 306
#     4  11  23  39  60  83 108 137 167 204 254 311
#
# _framework density 17.853425000000001
#
# number of rings (size 3 to 8) (size 9 to 14) (size 15 to 20)
#    0.000    2.556    0.000    4.333    0.000    5.333 
#    0.000    5.000    0.000   14.000    0.000   12.444 
#    0.000    0.000    0.000    0.000    0.000    0.000 
#
# Total GULP energy -200438.644100 kJ/mol
# GULP energy per Si atom -5567.740114 kJ/mol
# Density = 1.781279 g / cm^3
# Si number density = 17.853425 Si / 1000 Ang^3
#
#
#
# Elastic Constant Matrix: (Units=GPa)
#
#
# Indices 1 2 3 4 5 6 
#
# 1 117.9628 49.6588 29.8930 0.0000 0.0000 0.0000
# 2 49.6588 136.9706 30.2186 0.0000 0.0000 0.0000
# 3 29.8930 30.2186 41.6371 0.0000 0.0000 0.0000
# 4 0.0000 0.0000 0.0000 9.6588 0.0000 0.0000
# 5 0.0000 0.0000 0.0000 0.0000 -109.4315 0.0000
# 6 0.0000 0.0000 0.0000 0.0000 0.0000 6.2696
#
#
#
# Elastic Compliance Matrix: (Units=1/GPa)
#
#
# Indices 1 2 3 4 5 6 
#
# 1 0.011148 -0.002710 -0.006037 0.000000 0.000000 0.000000
# 2 -0.002710 0.009351 -0.004841 0.000000 0.000000 0.000000
# 3 -0.006037 -0.004841 0.031865 0.000000 0.000000 0.000000
# 4 0.000000 0.000000 0.000000 0.103532 0.000000 0.000000
# 5 0.000000 0.000000 0.000000 0.000000 -0.009138 0.000000
# 6 0.000000 0.000000 0.000000 0.000000 0.000000 0.159500
#
#
# Mechanical properties :
#
#
# Convention : Reuss Voigt Hill
#
# Bulk Modulus (GPa) = 39.70140 57.34568 48.52354
# Shear Modulus (GPa) = 14.62714 -6.24727 4.18994
#
# Velocity S-wave (km/s) = 2.86543 -1.87264 1.53361
# Velocity P-wave (km/s) = 5.76483 5.24540 5.51124
#
# Compressibility (1/GPa) = 0.02518803
#
# Stress axis : x y z
#
# Youngs Moduli (GPa) = 89.70405 106.93599 31.38255
#
# Poissons Ratio (x) = 0.28977 0.18945
# Poissons Ratio (y) = 0.24308 0.15194
# Poissons Ratio (z) = 0.54152 0.51772
#
# Static dielectric constant tensor:
#      x y z
#    x 1.619300 0.000000 0.000000 
#    y 0.000000 1.605940 0.000000 
#    z 0.000000 0.000000 1.632360 
# 
# From -- ./inp_files/7653.got.cif
#   From: 2010.05.17/outbox.cif.g08.bks.cpg/sg65_4_cif.got.tgz:7653.got - 2010.06.03 17:01:31.
