data_PCOD9493207
_publ_section_title
;
Structure prediction by ZEFSAII (Michael W. Deem and Ramdas Pophale) SiO2 
 PCOD9493207
Probable space group: C M M M
;
_chemical_formula_sum "Si O2"
_cell_formula_units_Z 64
_cell_length_a 15.917275
_cell_length_b 7.853085
_cell_length_c 26.131728
_cell_angle_alpha 90.000000
_cell_angle_beta 90.000000
_cell_angle_gamma 90.000000
_cell_volume 3266.458514
_symmetry_space_group_name_H-M "C M M M"
_symmetry_group_IT_number 65
_symmetry_cell_setting 'orthorhombic'
loop_
_space_group_symop_operation_xyz
x,y,z
-x,-y,z
x,-y,-z
-x,y,-z
-x,-y,-z
x,y,-z
-x,y,z
x,-y,z
1/2+x,1/2+y,z
1/2-x,1/2-y,z
1/2+x,1/2-y,-z
1/2-x,1/2+y,-z
1/2-x,1/2-y,-z
1/2+x,1/2+y,-z
1/2-x,1/2+y,z
1/2+x,1/2-y,z
loop_
_atom_site_type_symbol
_atom_site_label
_atom_site_fract_x
_atom_site_fract_y
_atom_site_fract_z
Si Si1 0.398847 0.000000 0.560099
Si Si2 0.500000 0.203788 0.174467
Si Si3 0.157032 0.701245 0.888880
Si Si4 0.000000 0.203423 0.707578
Si Si5 0.655804 0.295189 0.365096
Si Si6 0.595298 0.702424 0.000000
O O1 0.362787 0.829988 0.587163
O O2 0.500000 0.000000 0.566268
O O3 0.379280 0.000000 0.500000
O O4 0.417330 0.274728 0.146189
O O5 0.500000 0.232506 0.234744
O O6 0.500000 0.000000 0.166805
O O7 0.152026 0.500000 0.885567
O O8 0.250000 0.750000 0.872384
O O9 0.141209 0.747127 0.947984
O O10 0.916197 0.251097 0.676157
O O11 0.000000 0.000000 0.709976
O O12 0.650267 0.500000 0.375722
O O13 0.750000 0.250000 0.347112
O O14 0.589824 0.500000 0.000000
O O15 0.500000 0.773898 0.000000
#
# Coordination Sequence:
#
# PCOD9493207 Si02
#       6
#     8   8  16   8  16   8
#     4  11  24  42  68  99 133 179 217 264 330 376
#     4  10  24  41  63  88 118 163 203 259 318 365
#     4  11  23  41  61  89 123 158 202 250 308 374
#     4  10  24  42  65  92 124 163 216 265 317 373
#     4  11  23  42  66  97 132 175 220 267 321 386
#     4  11  22  37  62  90 116 162 200 243 307 371
#
# _framework density 19.593084999999999
#
# number of rings (size 3 to 8) (size 9 to 14) (size 15 to 20)
#    0.000    1.250    3.750    1.500    1.750    4.500 
#    0.000    6.250    0.000    0.000    0.000    0.000 
#    0.000    0.000    0.000    0.000    0.000    0.000 
#
# Total GULP energy -178712.549229 kJ/mol
# GULP energy per Si atom -5584.767163 kJ/mol
# Density = 1.954849 g / cm^3
# Si number density = 19.593085 Si / 1000 Ang^3
#
#
#
# Elastic Constant Matrix: (Units=GPa)
#
#
# Indices 1 2 3 4 5 6 
#
# 1 194.8275 39.5122 93.0124 0.0000 0.0000 0.0000
# 2 39.5122 81.8599 41.8571 0.0000 0.0000 0.0000
# 3 93.0124 41.8571 139.6729 0.0000 0.0000 0.0000
# 4 0.0000 0.0000 0.0000 520.3511 0.0000 0.0000
# 5 0.0000 0.0000 0.0000 0.0000 3.4077 0.0000
# 6 0.0000 0.0000 0.0000 0.0000 0.0000 23.6266
#
#
#
# Elastic Compliance Matrix: (Units=1/GPa)
#
#
# Indices 1 2 3 4 5 6 
#
# 1 0.007637 -0.001282 -0.004702 0.000000 0.000000 0.000000
# 2 -0.001282 0.014642 -0.003534 0.000000 0.000000 0.000000
# 3 -0.004702 -0.003534 0.011350 0.000000 0.000000 0.000000
# 4 0.000000 0.000000 0.000000 0.001922 0.000000 0.000000
# 5 0.000000 0.000000 0.000000 0.000000 0.293456 0.000000
# 6 0.000000 0.000000 0.000000 0.000000 0.000000 0.042325
#
#
# Mechanical properties :
#
#
# Convention : Reuss Voigt Hill
#
# Bulk Modulus (GPa) = 68.52578 85.01374 76.76976
# Shear Modulus (GPa) = 12.65080 125.60898 69.12989
#
# Velocity S-wave (km/s) = 2.54377 8.01549 5.94638
# Velocity P-wave (km/s) = 6.60894 11.36432 9.29586
#
# Compressibility (1/GPa) = 0.01459305
#
# Stress axis : x y z
#
# Youngs Moduli (GPa) = 130.93359 68.29698 88.10846
#
# Poissons Ratio (x) = 0.08758 0.41426
# Poissons Ratio (y) = 0.16790 0.31137
# Poissons Ratio (z) = 0.61561 0.24136
#
# Static dielectric constant tensor:
#      x y z
#    x 1.780260 0.000000 0.000000 
#    y 0.000000 1.692450 0.000000 
#    z 0.000000 0.000000 1.693400 
# 
# From -- ./inp_files/69608.got.cif
#   From: 2010.05.17/outbox.cif.g08.bks.cpg/sg65_35_cif.got.tgz:69608.got - 2010.06.03 17:01:31.
