data_PCOD9493070
_publ_section_title
;
Structure prediction by ZEFSAII (Michael W. Deem and Ramdas Pophale) SiO2 
 PCOD9493070
Probable space group: C M M M
;
_chemical_formula_sum "Si O2"
_cell_formula_units_Z 66
_cell_length_a 20.373115
_cell_length_b 18.973716
_cell_length_c 7.895797
_cell_angle_alpha 90.000000
_cell_angle_beta 90.000000
_cell_angle_gamma 90.000000
_cell_volume 3052.149529
_symmetry_space_group_name_H-M "C M M M"
_symmetry_group_IT_number 65
_symmetry_cell_setting 'orthorhombic'
loop_
_space_group_symop_operation_xyz
x,y,z
-x,-y,z
x,-y,-z
-x,y,-z
-x,-y,-z
x,y,-z
-x,y,z
x,-y,z
1/2+x,1/2+y,z
1/2-x,1/2-y,z
1/2+x,1/2-y,-z
1/2-x,1/2+y,-z
1/2-x,1/2-y,-z
1/2+x,1/2+y,-z
1/2-x,1/2+y,z
1/2+x,1/2-y,z
loop_
_atom_site_type_symbol
_atom_site_label
_atom_site_fract_x
_atom_site_fract_y
_atom_site_fract_z
Si Si1 0.637529 0.800149 0.798656
Si Si2 0.269853 0.922433 0.196793
Si Si3 0.500000 0.419321 0.797245
Si Si4 0.500000 0.000000 0.500000
Si Si5 0.500000 0.120242 0.200006
Si Si6 0.360679 0.640648 0.692618
O O1 0.687618 0.858846 0.728717
O O2 0.564781 0.831701 0.779895
O O3 0.646169 0.724137 0.717151
O O4 0.649960 0.789827 0.000000
O O5 0.193875 0.901175 0.202512
O O6 0.280820 0.000000 0.272509
O O7 0.290311 0.926533 0.000000
O O8 0.500000 0.500000 0.735608
O O9 0.565787 0.381060 0.738729
O O10 0.500000 0.419786 0.000000
O O11 0.500000 0.938639 0.346652
O O12 0.500000 0.094839 0.000000
O O13 0.347499 0.621202 0.500000
#
# Coordination Sequence:
#
# PCOD9493070 Si02
#       6
#    16  16   8   2   8  16
#     4  10  22  42  68  92 124 171 220 267 312 375
#     4  10  22  41  65  92 123 166 217 262 312 376
#     4  11  24  43  69  93 119 161 211 261 311 376
#     4  12  26  40  68  98 136 180 204 282 336 390
#     4  10  24  44  67  98 131 171 225 271 327 392
#     4  12  25  40  62  95 131 165 203 258 324 388
#
# _framework density 21.624106000000001
#
# number of rings (size 3 to 8) (size 9 to 14) (size 15 to 20)
#    0.000    1.333    0.000    4.909    3.394    9.212 
#    0.000    0.000    0.000    0.000    0.000    0.000 
#    0.000    0.000    0.000    0.000    0.000    0.000 
#
# Total GULP energy -184249.087611 kJ/mol
# GULP energy per Si atom -5583.305685 kJ/mol
# Density = 2.157489 g / cm^3
# Si number density = 21.624106 Si / 1000 Ang^3
#
#
#
# Elastic Constant Matrix: (Units=GPa)
#
#
# Indices 1 2 3 4 5 6 
#
# 1 88.9968 31.6529 -19.6885 0.0000 0.0000 0.0000
# 2 31.6529 143.2540 7.0608 0.0000 0.0000 0.0000
# 3 -19.6885 7.0608 66.0770 0.0000 0.0000 0.0000
# 4 0.0000 0.0000 0.0000 -12.7427 0.0000 0.0000
# 5 0.0000 0.0000 0.0000 0.0000 -77.1902 0.0000
# 6 0.0000 0.0000 0.0000 0.0000 0.0000 28.8105
#
#
#
# Elastic Compliance Matrix: (Units=1/GPa)
#
#
# Indices 1 2 3 4 5 6 
#
# 1 0.013310 -0.003153 0.004303 0.000000 0.000000 0.000000
# 2 -0.003153 0.007764 -0.001769 0.000000 0.000000 0.000000
# 3 0.004303 -0.001769 0.016605 0.000000 0.000000 0.000000
# 4 0.000000 0.000000 0.000000 -0.078476 0.000000 0.000000
# 5 0.000000 0.000000 0.000000 0.000000 -0.012955 0.000000
# 6 0.000000 0.000000 0.000000 0.000000 0.000000 0.034710
#
#
# Mechanical properties :
#
#
# Convention : Reuss Voigt Hill
#
# Bulk Modulus (GPa) = 27.44217 37.37535 32.40876
# Shear Modulus (GPa) = -883.81020 6.39571 -438.70724
#
# Velocity S-wave (km/s) = -20.23864 1.72166 -14.25900
# Velocity P-wave (km/s) = 23.09586 4.61235 16.00226
#
# Compressibility (1/GPa) = 0.03644026
#
# Stress axis : x y z
#
# Youngs Moduli (GPa) = 75.13372 128.79185 60.22303
#
# Poissons Ratio (x) = 0.40607 -0.25912
# Poissons Ratio (y) = 0.23689 0.10654
# Poissons Ratio (z) = -0.32328 0.22785
#
# Static dielectric constant tensor:
#      x y z
#    x 1.637600 0.000000 0.000000 
#    y 0.000000 1.770050 0.000000 
#    z 0.000000 0.000000 1.779100 
# 
# From -- ./inp_files/10955.got.cif
#   From: 2010.05.17/outbox.cif.g08.bks.cpg/sg65_6_cif.got.tgz:10955.got - 2010.06.03 17:01:31.
