data_PCOD9493190
_publ_section_title
;
Structure prediction by ZEFSAII (Michael W. Deem and Ramdas Pophale) SiO2 
 PCOD9493190
Probable space group: C M M M
;
_chemical_formula_sum "Si O2"
_cell_formula_units_Z 96
_cell_length_a 15.069633
_cell_length_b 14.916817
_cell_length_c 22.597277
_cell_angle_alpha 90.000000
_cell_angle_beta 90.000000
_cell_angle_gamma 90.000000
_cell_volume 5079.663539
_symmetry_space_group_name_H-M "C M M M"
_symmetry_group_IT_number 65
_symmetry_cell_setting 'orthorhombic'
loop_
_space_group_symop_operation_xyz
x,y,z
-x,-y,z
x,-y,-z
-x,y,-z
-x,-y,-z
x,y,-z
-x,y,z
x,-y,z
1/2+x,1/2+y,z
1/2-x,1/2-y,z
1/2+x,1/2-y,-z
1/2-x,1/2+y,-z
1/2-x,1/2-y,-z
1/2+x,1/2+y,-z
1/2-x,1/2+y,z
1/2+x,1/2-y,z
loop_
_atom_site_type_symbol
_atom_site_label
_atom_site_fract_x
_atom_site_fract_y
_atom_site_fract_z
Si Si1 0.750000 0.605903 0.571195
Si Si2 0.353233 0.750000 0.743371
Si Si3 0.397261 0.250000 0.610082
Si Si4 0.100541 0.102459 0.839217
Si Si5 0.399459 0.102459 0.160783
Si Si6 0.250000 0.357384 0.067149
O O1 0.750000 0.606628 0.500000
O O2 0.750000 0.500000 0.590222
O O3 0.663030 0.663353 0.591607
O O4 0.836970 0.663353 0.591607
O O5 0.250000 0.750000 0.728412
O O6 0.402092 0.750000 0.681298
O O7 0.373480 0.665879 0.785240
O O8 0.373480 0.834121 0.785240
O O9 0.500000 0.250000 0.587433
O O10 0.165321 0.114523 0.894520
O O11 0.000000 0.123483 0.857073
O O12 0.105718 0.000000 0.819505
O O13 0.500000 0.123483 0.142927
O O14 0.334679 0.114523 0.105480
O O15 0.394282 0.000000 0.180496
O O16 0.250000 0.250000 0.065386
O O17 0.250000 0.391177 0.000000
#
# Coordination Sequence:
#
# PCOD9493190 Si02
#       6
#    16  16  16  16  16  16
#     4  10  23  43  65  95 135 173 212 261 312 362
#     4  12  22  41  64  88 123 158 196 246 304 357
#     4  11  23  41  67  96 128 170 216 261 309 369
#     4  11  23  39  61  86 115 153 193 240 301 363
#     4  11  23  39  61  86 115 153 193 240 301 363
#     4  11  23  39  60  84 111 150 195 243 299 357
#
# _framework density 18.898890000000002
#
# number of rings (size 3 to 8) (size 9 to 14) (size 15 to 20)
#    0.000    1.000    5.000    3.000    0.000    5.333 
#    0.000    5.000    0.000    0.000    0.000    0.000 
#    0.000    0.000    0.000    0.000    0.000    0.000 
#
# Total GULP energy -267989.108512 kJ/mol
# GULP energy per Si atom -5583.106427 kJ/mol
# Density = 1.885588 g / cm^3
# Si number density = 18.898890 Si / 1000 Ang^3
#
#
#
# Elastic Constant Matrix: (Units=GPa)
#
#
# Indices 1 2 3 4 5 6 
#
# 1 164.8249 49.8695 35.8926 0.0000 0.0000 0.0000
# 2 49.8695 123.4714 33.6796 0.0000 0.0000 0.0000
# 3 35.8926 33.6796 110.4116 0.0000 0.0000 0.0000
# 4 0.0000 0.0000 0.0000 66.4375 0.0000 0.0000
# 5 0.0000 0.0000 0.0000 0.0000 -1.3004 0.0000
# 6 0.0000 0.0000 0.0000 0.0000 0.0000 47.3961
#
#
#
# Elastic Compliance Matrix: (Units=1/GPa)
#
#
# Indices 1 2 3 4 5 6 
#
# 1 0.007154 -0.002460 -0.001575 0.000000 0.000000 0.000000
# 2 -0.002460 0.009680 -0.002153 0.000000 0.000000 0.000000
# 3 -0.001575 -0.002153 0.010226 0.000000 0.000000 0.000000
# 4 0.000000 0.000000 0.000000 0.015052 0.000000 0.000000
# 5 0.000000 0.000000 0.000000 0.000000 -0.768991 0.000000
# 6 0.000000 0.000000 0.000000 0.000000 0.000000 0.021099
#
#
# Mechanical properties :
#
#
# Convention : Reuss Voigt Hill
#
# Bulk Modulus (GPa) = 68.10372 70.84347 69.47360
# Shear Modulus (GPa) = -7.26207 41.12440 16.93116
#
# Velocity S-wave (km/s) = -1.96238 4.66985 2.99637
# Velocity P-wave (km/s) = 5.56592 8.16355 6.98652
#
# Compressibility (1/GPa) = 0.01468348
#
# Stress axis : x y z
#
# Youngs Moduli (GPa) = 139.77475 103.30711 97.79089
#
# Poissons Ratio (x) = 0.25412 0.15406
# Poissons Ratio (y) = 0.34383 0.21055
# Poissons Ratio (z) = 0.22020 0.22243
#
# Static dielectric constant tensor:
#      x y z
#    x 1.684080 0.000000 0.000000 
#    y 0.000000 1.671570 0.000000 
#    z 0.000000 0.000000 1.630540 
# 
# From -- ./inp_files/62570.got.cif
#   From: 2010.05.17/outbox.cif.g08.bks.cpg/sg65_32_cif.got.tgz:62570.got - 2010.06.03 17:01:31.
