data_PCOD9493464
_publ_section_title
;
Structure prediction by ZEFSAII (Michael W. Deem and Ramdas Pophale) SiO2 
 PCOD9493464
Probable space group: C M M M
;
_chemical_formula_sum "Si O2"
_cell_formula_units_Z 88
_cell_length_a 26.105611
_cell_length_b 14.571635
_cell_length_c 11.619033
_cell_angle_alpha 90.000000
_cell_angle_beta 90.000000
_cell_angle_gamma 90.000000
_cell_volume 4419.896826
_symmetry_space_group_name_H-M "C M M M"
_symmetry_group_IT_number 65
_symmetry_cell_setting 'orthorhombic'
loop_
_space_group_symop_operation_xyz
x,y,z
-x,-y,z
x,-y,-z
-x,y,-z
-x,-y,-z
x,y,-z
-x,y,z
x,-y,z
1/2+x,1/2+y,z
1/2-x,1/2-y,z
1/2+x,1/2-y,-z
1/2-x,1/2+y,-z
1/2-x,1/2-y,-z
1/2+x,1/2+y,-z
1/2-x,1/2+y,z
1/2+x,1/2-y,z
loop_
_atom_site_type_symbol
_atom_site_label
_atom_site_fract_x
_atom_site_fract_y
_atom_site_fract_z
Si Si1 0.423585 0.098573 0.631818
Si Si2 0.743842 0.888656 0.870736
Si Si3 0.864653 0.105256 0.865004
Si Si4 0.300489 0.107143 0.371426
Si Si5 0.057455 0.744847 0.804670
Si Si6 0.437771 0.103608 0.000000
O O1 0.438798 0.094447 0.500000
O O2 0.362000 0.105995 0.635039
O O3 0.445386 0.188401 0.688371
O O4 0.438020 0.000000 0.687587
O O5 0.804622 0.870809 0.859496
O O6 0.718706 0.853913 0.751523
O O7 0.737031 0.000000 0.873191
O O8 0.726967 0.856354 0.000000
O O9 0.902367 0.173672 0.801136
O O10 0.870106 0.000000 0.826230
O O11 0.879031 0.109731 0.000000
O O12 0.286553 0.145208 0.500000
O O13 0.283548 0.000000 0.373211
O O14 0.076974 0.665710 0.891884
O O15 0.000000 0.774444 0.840290
O O16 0.500000 0.097705 0.000000
O O17 0.417216 0.000000 0.000000
#
# Coordination Sequence:
#
# PCOD9493464 Si02
#       6
#    16  16  16  16  16   8
#     4   9  19  36  56  78 106 142 182 220 263 324
#     4   8  14  27  49  76 105 138 177 221 268 320
#     4   9  18  34  55  78 107 143 182 223 268 322
#     4   8  14  28  51  77 106 140 176 216 266 325
#     4  11  21  34  53  77 106 139 178 227 273 315
#     4   9  18  32  49  73 104 133 162 208 271 323
#
# _framework density 19.909967999999999
#
# number of rings (size 3 to 8) (size 9 to 14) (size 15 to 20)
#    0.000    3.000    0.909    2.727    0.000    1.818 
#    1.636    3.636    0.000    6.000    0.000    1.273 
#    0.000    0.000    0.000    0.000    0.000    0.000 
#
# Total GULP energy -245143.299126 kJ/mol
# GULP energy per Si atom -5571.438617 kJ/mol
# Density = 1.986465 g / cm^3
# Si number density = 19.909968 Si / 1000 Ang^3
#
#
#
# Elastic Constant Matrix: (Units=GPa)
#
#
# Indices 1 2 3 4 5 6 
#
# 1 50.6296 27.5253 45.8081 0.0000 0.0000 0.0000
# 2 27.5253 58.1446 31.5300 0.0000 0.0000 0.0000
# 3 45.8081 31.5300 124.2659 0.0000 0.0000 0.0000
# 4 0.0000 0.0000 0.0000 4.4769 0.0000 0.0000
# 5 0.0000 0.0000 0.0000 0.0000 22.4613 0.0000
# 6 0.0000 0.0000 0.0000 0.0000 0.0000 14.5189
#
#
#
# Elastic Compliance Matrix: (Units=1/GPa)
#
#
# Indices 1 2 3 4 5 6 
#
# 1 0.034843 -0.011050 -0.010040 0.000000 0.000000 0.000000
# 2 -0.011050 0.023447 -0.001876 0.000000 0.000000 0.000000
# 3 -0.010040 -0.001876 0.012224 0.000000 0.000000 0.000000
# 4 0.000000 0.000000 0.000000 0.223369 0.000000 0.000000
# 5 0.000000 0.000000 0.000000 0.000000 0.044521 0.000000
# 6 0.000000 0.000000 0.000000 0.000000 0.000000 0.068876
#
#
# Mechanical properties :
#
#
# Convention : Reuss Voigt Hill
#
# Bulk Modulus (GPa) = 40.68054 49.19631 44.93842
# Shear Modulus (GPa) = 10.83645 16.83654 13.83650
#
# Velocity S-wave (km/s) = 2.33550 2.91113 2.63906
# Velocity P-wave (km/s) = 5.26776 6.00522 5.64854
#
# Compressibility (1/GPa) = 0.02458178
#
# Stress axis : x y z
#
# Youngs Moduli (GPa) = 28.70029 42.65017 81.80339
#
# Poissons Ratio (x) = 0.47127 0.82134
# Poissons Ratio (y) = 0.31713 0.15345
# Poissons Ratio (z) = 0.28816 0.08000
#
# Static dielectric constant tensor:
#      x y z
#    x 1.724440 0.000000 0.000000 
#    y 0.000000 1.694980 0.000000 
#    z 0.000000 0.000000 1.787290 
# 
# From -- ./inp_files/24825.got.cif
#   From: 2010.05.17/outbox.cif.g08.bks.cpg/sg65_13_cif.got.tgz:24825.got - 2010.06.03 17:01:31.
