data_PCOD9493986
_publ_section_title
;
Structure prediction by ZEFSAII (Michael W. Deem and Ramdas Pophale) SiO2 
 PCOD9493986
Probable space group: C M M M
;
_chemical_formula_sum "Si O2"
_cell_formula_units_Z 64
_cell_length_a 9.900383
_cell_length_b 18.490921
_cell_length_c 18.842472
_cell_angle_alpha 90.000000
_cell_angle_beta 90.000000
_cell_angle_gamma 90.000000
_cell_volume 3449.438589
_symmetry_space_group_name_H-M "C M M M"
_symmetry_group_IT_number 65
_symmetry_cell_setting 'orthorhombic'
loop_
_space_group_symop_operation_xyz
x,y,z
-x,-y,z
x,-y,-z
-x,y,-z
-x,-y,-z
x,y,-z
-x,y,z
x,-y,z
1/2+x,1/2+y,z
1/2-x,1/2-y,z
1/2+x,1/2-y,-z
1/2-x,1/2+y,-z
1/2-x,1/2-y,-z
1/2+x,1/2+y,-z
1/2-x,1/2+y,z
1/2+x,1/2-y,z
loop_
_atom_site_type_symbol
_atom_site_label
_atom_site_fract_x
_atom_site_fract_y
_atom_site_fract_z
Si Si1 0.000000 0.587202 0.585398
Si Si2 0.500000 0.418529 0.416199
Si Si3 0.242500 0.836333 0.653234
Si Si4 0.347335 0.913151 0.916795
Si Si5 0.336188 0.323327 0.184605
O O1 0.125126 0.623683 0.625479
O O2 0.000000 0.500000 0.592972
O O3 0.000000 0.602326 0.500000
O O4 0.500000 0.500000 0.385765
O O5 0.500000 0.424700 0.500000
O O6 0.373550 0.373017 0.391730
O O7 0.250000 0.750000 0.642242
O O8 0.204661 0.847367 0.735787
O O9 0.500000 0.890338 0.893450
O O10 0.227876 0.878890 0.871269
O O11 0.342811 0.000000 0.911673
O O12 0.334273 0.893942 0.000000
O O13 0.500000 0.314860 0.179858
O O14 0.250000 0.250000 0.172449
#
# Coordination Sequence:
#
# PCOD9493986 Si02
#       5
#     8   8  16  16  16
#     4  11  25  43  63  91 126 163 208 261 319 382
#     4  11  23  41  63  89 124 161 202 259 319 370
#     4  11  24  41  63  91 123 164 211 259 309 375
#     4   9  20  40  65  94 128 166 208 253 304 366
#     4  11  24  41  63  91 125 164 207 258 312 369
#
# _framework density 18.553744999999999
#
# number of rings (size 3 to 8) (size 9 to 14) (size 15 to 20)
#    0.000    1.500    1.250    3.750    7.000    8.500 
#    0.000    1.250    0.000    0.000    0.000    0.000 
#    0.000    0.000    0.000    0.000    0.000    0.000 
#
# Total GULP energy -178566.753324 kJ/mol
# GULP energy per Si atom -5580.211041 kJ/mol
# Density = 1.851152 g / cm^3
# Si number density = 18.553745 Si / 1000 Ang^3
#
#
#
# Elastic Constant Matrix: (Units=GPa)
#
#
# Indices 1 2 3 4 5 6 
#
# 1 219.1827 72.0002 79.0044 0.0000 0.0000 0.0000
# 2 72.0002 84.0470 69.4589 0.0000 0.0000 0.0000
# 3 79.0044 69.4589 87.6045 0.0000 0.0000 0.0000
# 4 0.0000 0.0000 0.0000 35.5094 0.0000 0.0000
# 5 0.0000 0.0000 0.0000 0.0000 41.0424 0.0000
# 6 0.0000 0.0000 0.0000 0.0000 0.0000 43.0441
#
#
#
# Elastic Compliance Matrix: (Units=1/GPa)
#
#
# Indices 1 2 3 4 5 6 
#
# 1 0.006901 -0.002229 -0.004456 0.000000 0.000000 0.000000
# 2 -0.002229 0.035232 -0.025924 0.000000 0.000000 0.000000
# 3 -0.004456 -0.025924 0.035988 0.000000 0.000000 0.000000
# 4 0.000000 0.000000 0.000000 0.028162 0.000000 0.000000
# 5 0.000000 0.000000 0.000000 0.000000 0.024365 0.000000
# 6 0.000000 0.000000 0.000000 0.000000 0.000000 0.023232
#
#
# Mechanical properties :
#
#
# Convention : Reuss Voigt Hill
#
# Bulk Modulus (GPa) = 77.50514 92.41793 84.96154
# Shear Modulus (GPa) = 22.38148 35.27722 28.82935
#
# Velocity S-wave (km/s) = 3.47696 4.36518 3.94614
# Velocity P-wave (km/s) = 7.61466 8.67903 8.16420
#
# Compressibility (1/GPa) = 0.01290237
#
# Stress axis : x y z
#
# Youngs Moduli (GPa) = 144.91048 28.38304 27.78716
#
# Poissons Ratio (x) = 0.06327 0.12382
# Poissons Ratio (y) = 0.32304 0.72036
# Poissons Ratio (z) = 0.64570 0.73581
#
# Static dielectric constant tensor:
#      x y z
#    x 1.590940 0.000000 0.000000 
#    y 0.000000 1.633820 0.000000 
#    z 0.000000 0.000000 1.634560 
# 
# From -- ./inp_files/49129.got.cif
#   From: 2010.05.17/outbox.cif.g08.bks.cpg/sg65_25_cif.got.tgz:49129.got - 2010.06.03 17:01:31.
