data_PCOD9493104
_publ_section_title
;
Structure prediction by ZEFSAII (Michael W. Deem and Ramdas Pophale) SiO2 
 PCOD9493104
Probable space group: C M M M
;
_chemical_formula_sum "Si O2"
_cell_formula_units_Z 64
_cell_length_a 29.598993
_cell_length_b 12.048078
_cell_length_c 8.603602
_cell_angle_alpha 90.000000
_cell_angle_beta 90.000000
_cell_angle_gamma 90.000000
_cell_volume 3068.138910
_symmetry_space_group_name_H-M "C M M M"
_symmetry_group_IT_number 65
_symmetry_cell_setting 'orthorhombic'
loop_
_space_group_symop_operation_xyz
x,y,z
-x,-y,z
x,-y,-z
-x,y,-z
-x,-y,-z
x,y,-z
-x,y,z
x,-y,z
1/2+x,1/2+y,z
1/2-x,1/2-y,z
1/2+x,1/2-y,-z
1/2-x,1/2+y,-z
1/2-x,1/2-y,-z
1/2+x,1/2+y,-z
1/2-x,1/2+y,z
1/2+x,1/2-y,z
loop_
_atom_site_type_symbol
_atom_site_label
_atom_site_fract_x
_atom_site_fract_y
_atom_site_fract_z
Si Si1 0.699577 0.798413 0.823392
Si Si2 0.550441 0.500000 0.317995
Si Si3 0.890559 0.810029 0.177032
Si Si4 0.051329 0.367726 0.318319
Si Si5 0.725525 0.124994 0.500000
O O1 0.750000 0.750000 0.832549
O O2 0.662666 0.701919 0.794656
O O3 0.699006 0.870726 0.665309
O O4 0.689658 0.843673 0.000000
O O5 0.500000 0.500000 0.245532
O O6 0.544691 0.500000 0.500000
O O7 0.580323 0.605617 0.275382
O O8 0.912189 0.690605 0.211890
O O9 0.896963 0.843050 0.000000
O O10 0.059424 0.340234 0.500000
O O11 0.052825 0.500000 0.304141
O O12 0.000000 0.331020 0.280180
O O13 0.750000 0.250000 0.500000
O O14 0.748393 0.000000 0.500000
#
# Coordination Sequence:
#
# PCOD9493104 Si02
#       5
#    16   8  16  16   8
#     4   9  21  43  64  92 133 175 223 282 340 408
#     4  11  25  43  65  95 133 177 223 281 350 425
#     4  11  23  39  62  92 125 167 215 269 336 399
#     4   9  19  36  58  84 117 158 202 251 310 380
#     4  10  22  42  68 100 132 177 235 291 355 420
#
# _framework density 20.859549999999999
#
# number of rings (size 3 to 8) (size 9 to 14) (size 15 to 20)
#    0.000    2.125    0.000    2.625    3.500    6.500 
#    9.000    3.750    0.000    0.000    0.000    0.000 
#    0.000    0.000    0.000    0.000    0.000    0.000 
#
# Total GULP energy -178170.674825 kJ/mol
# GULP energy per Si atom -5567.833588 kJ/mol
# Density = 2.081207 g / cm^3
# Si number density = 20.859550 Si / 1000 Ang^3
#
#
#
# Elastic Constant Matrix: (Units=GPa)
#
#
# Indices 1 2 3 4 5 6 
#
# 1 129.5383 35.3262 35.2702 0.0000 0.0000 0.0000
# 2 35.3262 72.1307 30.0132 0.0000 0.0000 0.0000
# 3 35.2702 30.0132 109.1754 0.0000 0.0000 0.0000
# 4 0.0000 0.0000 0.0000 39.7083 0.0000 0.0000
# 5 0.0000 0.0000 0.0000 0.0000 24.5629 0.0000
# 6 0.0000 0.0000 0.0000 0.0000 0.0000 -12.4589
#
#
#
# Elastic Compliance Matrix: (Units=1/GPa)
#
#
# Indices 1 2 3 4 5 6 
#
# 1 0.009271 -0.003720 -0.001973 0.000000 0.000000 0.000000
# 2 -0.003720 0.017147 -0.003512 0.000000 0.000000 0.000000
# 3 -0.001973 -0.003512 0.010762 0.000000 0.000000 0.000000
# 4 0.000000 0.000000 0.000000 0.025184 0.000000 0.000000
# 5 0.000000 0.000000 0.000000 0.000000 0.040712 0.000000
# 6 0.000000 0.000000 0.000000 0.000000 0.000000 -0.080264
#
#
# Mechanical properties :
#
#
# Convention : Reuss Voigt Hill
#
# Bulk Modulus (GPa) = 53.27228 56.89595 55.08412
# Shear Modulus (GPa) = 105.31138 24.37810 64.84474
#
# Velocity S-wave (km/s) = 7.11305 3.42230 5.58156
# Velocity P-wave (km/s) = 9.64649 6.55371 8.24639
#
# Compressibility (1/GPa) = 0.01877149
#
# Stress axis : x y z
#
# Youngs Moduli (GPa) = 107.86044 58.31963 92.91668
#
# Poissons Ratio (x) = 0.21694 0.18328
# Poissons Ratio (y) = 0.40122 0.32633
# Poissons Ratio (z) = 0.21276 0.20482
#
# Static dielectric constant tensor:
#      x y z
#    x 1.751990 0.000000 0.000000 
#    y 0.000000 1.774130 0.000000 
#    z 0.000000 0.000000 1.772370 
# 
# From -- ./inp_files/17820.got.cif
#   From: 2010.05.17/outbox.cif.g08.bks.cpg/sg65_9_cif.got.tgz:17820.got - 2010.06.03 17:01:31.
