data_PCOD9493031
_publ_section_title
;
Structure prediction by ZEFSAII (Michael W. Deem and Ramdas Pophale) SiO2 
 PCOD9493031
Probable space group: C M M M
;
_chemical_formula_sum "Si O2"
_cell_formula_units_Z 96
_cell_length_a 15.045290
_cell_length_b 15.126919
_cell_length_c 20.438298
_cell_angle_alpha 90.000000
_cell_angle_beta 90.000000
_cell_angle_gamma 90.000000
_cell_volume 4651.529416
_symmetry_space_group_name_H-M "C M M M"
_symmetry_group_IT_number 65
_symmetry_cell_setting 'orthorhombic'
loop_
_space_group_symop_operation_xyz
x,y,z
-x,-y,z
x,-y,-z
-x,y,-z
-x,-y,-z
x,y,-z
-x,y,z
x,-y,z
1/2+x,1/2+y,z
1/2-x,1/2-y,z
1/2+x,1/2-y,-z
1/2-x,1/2+y,-z
1/2-x,1/2-y,-z
1/2+x,1/2+y,-z
1/2-x,1/2+y,z
1/2+x,1/2-y,z
loop_
_atom_site_type_symbol
_atom_site_label
_atom_site_fract_x
_atom_site_fract_y
_atom_site_fract_z
Si Si1 0.397927 0.839072 0.426257
Si Si2 0.600629 0.902212 0.887891
Si Si3 0.716136 0.602634 0.816528
Si Si4 0.600865 0.626425 0.426837
Si Si5 0.604997 0.296433 0.927546
Si Si6 0.747848 0.099002 0.675498
O O1 0.369607 0.868912 0.500000
O O2 0.500000 0.869091 0.416341
O O3 0.398282 0.732924 0.427815
O O4 0.332484 0.863436 0.367601
O O5 0.500000 0.898349 0.860462
O O6 0.680661 0.899349 0.837012
O O7 0.611807 0.810553 0.926656
O O8 0.607475 0.000000 0.920766
O O9 0.683020 0.500000 0.817800
O O10 0.661670 0.659812 0.869478
O O11 0.717287 0.640905 0.743041
O O12 0.625382 0.597940 0.500000
O O13 0.500000 0.599215 0.413330
O O14 0.669644 0.596555 0.373450
O O15 0.500000 0.317138 0.919222
O O16 0.633630 0.327724 0.000000
O O17 0.720841 0.000000 0.694747
#
# Coordination Sequence:
#
# PCOD9493031 Si02
#       6
#    16  16  16  16  16  16
#     4   9  19  36  57  82 113 150 192 236 283 338
#     4   9  19  37  60  87 120 152 182 226 286 349
#     4  10  23  40  56  81 118 157 198 244 290 338
#     4   9  19  36  56  78 106 143 188 235 283 338
#     4  10  22  40  63  90 116 147 191 239 290 351
#     4  11  23  36  53  81 115 149 187 234 287 338
#
# _framework density 20.638373000000001
#
# number of rings (size 3 to 8) (size 9 to 14) (size 15 to 20)
#    0.000    2.333    0.000    2.500    0.000    9.667 
#    0.000   12.500    0.000    0.000    0.000    0.000 
#    0.000    0.000    0.000    0.000    0.000    0.000 
#
# Total GULP energy -267580.153371 kJ/mol
# GULP energy per Si atom -5574.586529 kJ/mol
# Density = 2.059140 g / cm^3
# Si number density = 20.638373 Si / 1000 Ang^3
#
#
#
# Elastic Constant Matrix: (Units=GPa)
#
#
# Indices 1 2 3 4 5 6 
#
# 1 101.0667 33.7449 98.0090 0.0000 0.0000 0.0000
# 2 33.7449 82.8855 50.9560 0.0000 0.0000 0.0000
# 3 98.0090 50.9560 171.9867 0.0000 0.0000 0.0000
# 4 0.0000 0.0000 0.0000 12.8828 0.0000 0.0000
# 5 0.0000 0.0000 0.0000 0.0000 33.3509 0.0000
# 6 0.0000 0.0000 0.0000 0.0000 0.0000 38.4354
#
#
#
# Elastic Compliance Matrix: (Units=1/GPa)
#
#
# Indices 1 2 3 4 5 6 
#
# 1 0.022278 -0.001547 -0.012237 0.000000 0.000000 0.000000
# 2 -0.001547 0.014859 -0.003521 0.000000 0.000000 0.000000
# 3 -0.012237 -0.003521 0.013831 0.000000 0.000000 0.000000
# 4 0.000000 0.000000 0.000000 0.077623 0.000000 0.000000
# 5 0.000000 0.000000 0.000000 0.000000 0.029984 0.000000
# 6 0.000000 0.000000 0.000000 0.000000 0.000000 0.026018
#
#
# Mechanical properties :
#
#
# Convention : Reuss Voigt Hill
#
# Bulk Modulus (GPa) = 61.13095 80.15096 70.64096
# Shear Modulus (GPa) = 22.25638 28.48244 25.36941
#
# Velocity S-wave (km/s) = 3.28746 3.71896 3.50985
# Velocity P-wave (km/s) = 6.64035 7.57371 7.12233
#
# Compressibility (1/GPa) = 0.01635833
#
# Stress axis : x y z
#
# Youngs Moduli (GPa) = 44.88803 67.29838 72.30142
#
# Poissons Ratio (x) = 0.10410 0.88475
# Poissons Ratio (y) = 0.06943 0.25457
# Poissons Ratio (z) = 0.54929 0.23696
#
# Static dielectric constant tensor:
#      x y z
#    x 1.711630 0.000000 0.000000 
#    y 0.000000 1.793280 0.000000 
#    z 0.000000 0.000000 1.747940 
# 
# From -- ./inp_files/62590.got.cif
#   From: 2010.05.17/outbox.cif.g08.bks.cpg/sg65_32_cif.got.tgz:62590.got - 2010.06.03 17:01:31.
