data_PCOD9493581
_publ_section_title
;
Structure prediction by ZEFSAII (Michael W. Deem and Ramdas Pophale) SiO2 
 PCOD9493581
Probable space group: C M M M
;
_chemical_formula_sum "Si O2"
_cell_formula_units_Z 88
_cell_length_a 28.561891
_cell_length_b 19.934649
_cell_length_c 7.580631
_cell_angle_alpha 90.000000
_cell_angle_beta 90.000000
_cell_angle_gamma 90.000000
_cell_volume 4316.193514
_symmetry_space_group_name_H-M "C M M M"
_symmetry_group_IT_number 65
_symmetry_cell_setting 'orthorhombic'
loop_
_space_group_symop_operation_xyz
x,y,z
-x,-y,z
x,-y,-z
-x,y,-z
-x,-y,-z
x,y,-z
-x,y,z
x,-y,z
1/2+x,1/2+y,z
1/2-x,1/2-y,z
1/2+x,1/2-y,-z
1/2-x,1/2+y,-z
1/2-x,1/2-y,-z
1/2+x,1/2+y,-z
1/2-x,1/2+y,z
1/2+x,1/2-y,z
loop_
_atom_site_type_symbol
_atom_site_label
_atom_site_fract_x
_atom_site_fract_y
_atom_site_fract_z
Si Si1 0.771654 0.923526 0.215614
Si Si2 0.446657 0.000000 0.211742
Si Si3 0.803261 0.683557 0.200949
Si Si4 0.596148 0.858111 0.295681
Si Si5 0.051406 0.222278 0.207977
Si Si6 0.653370 0.679807 0.215653
O O1 0.732164 0.870897 0.279205
O O2 0.821136 0.889139 0.261721
O O3 0.766094 0.000000 0.276917
O O4 0.768842 0.925555 0.000000
O O5 0.422321 0.067457 0.274504
O O6 0.500000 0.000000 0.273365
O O7 0.446001 0.000000 0.000000
O O8 0.854688 0.651060 0.199345
O O9 0.813957 0.757596 0.276686
O O10 0.787054 0.694225 0.000000
O O11 0.604559 0.843313 0.500000
O O12 0.560207 0.802038 0.227285
O O13 0.099845 0.189690 0.277564
O O14 0.000000 0.204985 0.282266
O O15 0.050066 0.206592 0.000000
O O16 0.652254 0.684831 0.000000
#
# Coordination Sequence:
#
# PCOD9493581 Si02
#       6
#    16   8  16  16  16  16
#     4   9  16  25  43  72  98 123 161 208 248 283
#     4  11  23  37  51  65  89 129 169 201 236 285
#     4   9  17  30  48  68  92 128 166 200 237 287
#     4  11  22  33  47  70  98 125 156 201 249 287
#     4   9  17  31  51  71  91 122 162 198 237 290
#     4   8  14  26  44  67  95 124 159 204 246 286
#
# _framework density 20.388335000000001
#
# number of rings (size 3 to 8) (size 9 to 14) (size 15 to 20)
#    0.000    2.636    0.000    4.091    1.273    5.455 
#    0.000    0.000    0.000    9.273    0.000    3.818 
#    0.000    0.000    0.000    6.545    0.000    7.273 
#
# Total GULP energy -245395.915317 kJ/mol
# GULP energy per Si atom -5577.179894 kJ/mol
# Density = 2.034193 g / cm^3
# Si number density = 20.388335 Si / 1000 Ang^3
#
#
#
# Elastic Constant Matrix: (Units=GPa)
#
#
# Indices 1 2 3 4 5 6 
#
# 1 131.9919 72.1565 7.2357 0.0000 0.0000 0.0000
# 2 72.1565 94.6507 3.6840 0.0000 0.0000 0.0000
# 3 7.2357 3.6840 54.0278 0.0000 0.0000 0.0000
# 4 0.0000 0.0000 0.0000 -12.6792 0.0000 0.0000
# 5 0.0000 0.0000 0.0000 0.0000 -19.9179 0.0000
# 6 0.0000 0.0000 0.0000 0.0000 0.0000 -10.1807
#
#
#
# Elastic Compliance Matrix: (Units=1/GPa)
#
#
# Indices 1 2 3 4 5 6 
#
# 1 0.013051 -0.009908 -0.001072 0.000000 0.000000 0.000000
# 2 -0.009908 0.018115 0.000092 0.000000 0.000000 0.000000
# 3 -0.001072 0.000092 0.018646 0.000000 0.000000 0.000000
# 4 0.000000 0.000000 0.000000 -0.078869 0.000000 0.000000
# 5 0.000000 0.000000 0.000000 0.000000 -0.050206 0.000000
# 6 0.000000 0.000000 0.000000 0.000000 0.000000 -0.098226
#
#
# Mechanical properties :
#
#
# Convention : Reuss Voigt Hill
#
# Bulk Modulus (GPa) = 35.66901 49.64698 42.65800
# Shear Modulus (GPa) = -34.16102 4.61738 -14.77182
#
# Velocity S-wave (km/s) = -4.09775 1.50653 -2.69462
# Velocity P-wave (km/s) = 2.20362 5.23734 3.35960
#
# Compressibility (1/GPa) = 0.02803554
#
# Stress axis : x y z
#
# Youngs Moduli (GPa) = 76.61997 55.20322 53.62981
#
# Poissons Ratio (x) = 0.54695 0.05751
# Poissons Ratio (y) = 0.75915 -0.00492
# Poissons Ratio (z) = 0.08216 -0.00506
#
# Static dielectric constant tensor:
#      x y z
#    x 1.744030 0.000000 0.000000 
#    y 0.000000 1.337450 0.000000 
#    z 0.000000 0.000000 1.763080 
# 
# From -- ./inp_files/18345.got.cif
#   From: 2010.05.17/outbox.cif.g08.bks.cpg/sg65_10_cif.got.tgz:18345.got - 2010.06.03 17:01:31.
