data_PCOD9493216
_publ_section_title
;
Structure prediction by ZEFSAII (Michael W. Deem and Ramdas Pophale) SiO2 
 PCOD9493216
Probable space group: C M M M
;
_chemical_formula_sum "Si O2"
_cell_formula_units_Z 64
_cell_length_a 24.721976
_cell_length_b 14.430332
_cell_length_c 9.837975
_cell_angle_alpha 90.000000
_cell_angle_beta 90.000000
_cell_angle_gamma 90.000000
_cell_volume 3509.661391
_symmetry_space_group_name_H-M "C M M M"
_symmetry_group_IT_number 65
_symmetry_cell_setting 'orthorhombic'
loop_
_space_group_symop_operation_xyz
x,y,z
-x,-y,z
x,-y,-z
-x,y,-z
-x,-y,-z
x,y,-z
-x,y,z
x,-y,z
1/2+x,1/2+y,z
1/2-x,1/2-y,z
1/2+x,1/2-y,-z
1/2-x,1/2+y,-z
1/2-x,1/2-y,-z
1/2+x,1/2+y,-z
1/2-x,1/2+y,z
1/2+x,1/2-y,z
loop_
_atom_site_type_symbol
_atom_site_label
_atom_site_fract_x
_atom_site_fract_y
_atom_site_fract_z
Si Si1 0.207864 0.333357 0.345508
Si Si2 0.436408 0.326034 0.000000
Si Si3 0.354708 0.500000 0.000000
Si Si4 0.088279 0.298074 0.263735
Si Si5 0.746414 0.000000 0.154818
Si Si6 0.935165 0.500000 0.154462
Si Si7 0.000000 0.267899 0.500000
O O1 0.205439 0.371432 0.500000
O O2 0.250000 0.250000 0.342364
O O3 0.150124 0.290045 0.307962
O O4 0.226251 0.411278 0.238554
O O5 0.394147 0.411213 0.000000
O O6 0.425380 0.262478 0.131496
O O7 0.500000 0.354760 0.000000
O O8 0.311651 0.500000 0.126319
O O9 0.081587 0.406780 0.229186
O O10 0.047109 0.271499 0.381633
O O11 0.723977 0.000000 0.000000
O O12 0.000000 0.500000 0.149664
O O13 0.914567 0.500000 0.000000
#
# Coordination Sequence:
#
# PCOD9493216 Si02
#       7
#    16   8   4  16   8   8   4
#     4  11  24  42  65  92 127 171 212 258 322 385
#     4  12  23  42  68  94 124 168 214 270 329 373
#     4  10  25  44  70  92 122 157 224 286 324 368
#     4  12  24  40  65  94 132 171 205 262 306 384
#     4  10  24  43  62  95 123 165 211 272 314 370
#     4  11  21  36  58  91 127 164 204 235 298 377
#     4  12  24  43  56 103 136 168 216 243 318 373
#
# _framework density 18.235378999999998
#
# number of rings (size 3 to 8) (size 9 to 14) (size 15 to 20)
#    0.375    0.375    5.000    2.812    1.750    2.500 
#    0.000    0.000    0.000    0.750    0.000    0.000 
#    0.000    0.000    0.000    0.000    0.000    0.000 
#
# Total GULP energy -178181.499682 kJ/mol
# GULP energy per Si atom -5568.171865 kJ/mol
# Density = 1.819387 g / cm^3
# Si number density = 18.235379 Si / 1000 Ang^3
#
#
#
# Elastic Constant Matrix: (Units=GPa)
#
#
# Indices 1 2 3 4 5 6 
#
# 1 195.2103 41.3348 70.3599 0.0000 0.0000 0.0000
# 2 41.3348 61.2474 51.6095 0.0000 0.0000 0.0000
# 3 70.3599 51.6095 185.4377 0.0000 0.0000 0.0000
# 4 0.0000 0.0000 0.0000 1.9542 0.0000 0.0000
# 5 0.0000 0.0000 0.0000 0.0000 37.9697 0.0000
# 6 0.0000 0.0000 0.0000 0.0000 0.0000 -1.2093
#
#
#
# Elastic Compliance Matrix: (Units=1/GPa)
#
#
# Indices 1 2 3 4 5 6 
#
# 1 0.006312 -0.002929 -0.001580 0.000000 0.000000 0.000000
# 2 -0.002929 0.022688 -0.005203 0.000000 0.000000 0.000000
# 3 -0.001580 -0.005203 0.007440 0.000000 0.000000 0.000000
# 4 0.000000 0.000000 0.000000 0.511720 0.000000 0.000000
# 5 0.000000 0.000000 0.000000 0.000000 0.026337 0.000000
# 6 0.000000 0.000000 0.000000 0.000000 0.000000 -0.826915
#
#
# Mechanical properties :
#
#
# Convention : Reuss Voigt Hill
#
# Bulk Modulus (GPa) = 58.76468 85.38932 72.07700
# Shear Modulus (GPa) = -21.99526 26.31565 2.16020
#
# Velocity S-wave (km/s) = -3.47679 3.80295 1.08958
# Velocity P-wave (km/s) = 4.02221 8.13702 6.41830
#
# Compressibility (1/GPa) = 0.01701703
#
# Stress axis : x y z
#
# Youngs Moduli (GPa) = 158.42127 44.07585 134.40463
#
# Poissons Ratio (x) = 0.12909 0.21235
# Poissons Ratio (y) = 0.46397 0.69933
# Poissons Ratio (z) = 0.25030 0.22933
#
# Static dielectric constant tensor:
#      x y z
#    x 1.708560 0.000000 0.000000 
#    y 0.000000 1.588360 0.000000 
#    z 0.000000 0.000000 1.615120 
# 
# From -- ./inp_files/13462.got.cif
#   From: 2010.05.17/outbox.cif.g08.bks.cpg/sg65_7_cif.got.tgz:13462.got - 2010.06.03 17:01:31.
