data_PCOD9493045
_publ_section_title
;
Structure prediction by ZEFSAII (Michael W. Deem and Ramdas Pophale) SiO2 
 PCOD9493045
Probable space group: C M M M
;
_chemical_formula_sum "Si O2"
_cell_formula_units_Z 64
_cell_length_a 36.998339
_cell_length_b 11.991900
_cell_length_c 8.027594
_cell_angle_alpha 90.000000
_cell_angle_beta 90.000000
_cell_angle_gamma 90.000000
_cell_volume 3561.685968
_symmetry_space_group_name_H-M "C M M M"
_symmetry_group_IT_number 65
_symmetry_cell_setting 'orthorhombic'
loop_
_space_group_symop_operation_xyz
x,y,z
-x,-y,z
x,-y,-z
-x,y,-z
-x,-y,-z
x,y,-z
-x,y,z
x,-y,z
1/2+x,1/2+y,z
1/2-x,1/2-y,z
1/2+x,1/2-y,-z
1/2-x,1/2+y,-z
1/2-x,1/2-y,-z
1/2+x,1/2+y,-z
1/2-x,1/2+y,z
1/2+x,1/2-y,z
loop_
_atom_site_type_symbol
_atom_site_label
_atom_site_fract_x
_atom_site_fract_y
_atom_site_fract_z
Si Si1 0.959530 0.000000 0.304096
Si Si2 0.960401 0.632428 0.302076
Si Si3 0.725796 0.635224 0.500000
Si Si4 0.906826 0.194859 0.192058
Si Si5 0.329264 0.368151 0.193824
O O1 0.935222 0.893555 0.262283
O O2 0.964077 0.000000 0.500000
O O3 0.000000 0.000000 0.227598
O O4 0.958274 0.656088 0.500000
O O5 0.959909 0.500000 0.281198
O O6 0.926752 0.688564 0.214834
O O7 0.000000 0.673798 0.243412
O O8 0.738717 0.500000 0.500000
O O9 0.750000 0.750000 0.500000
O O10 0.701950 0.645663 0.330785
O O11 0.866108 0.189730 0.258426
O O12 0.902369 0.165720 0.000000
O O13 0.337677 0.500000 0.188723
O O14 0.320606 0.334776 0.000000
#
# Coordination Sequence:
#
# PCOD9493045 Si02
#       5
#     8  16   8  16  16
#     4  11  23  33  47  75 111 149 189 235 283 327
#     4   9  19  35  51  68  97 142 193 239 283 333
#     4  10  22  40  66  94 120 153 188 230 283 354
#     4  11  21  33  52  78 107 140 185 234 281 332
#     4   9  19  36  58  87 118 151 188 228 279 346
#
# _framework density 17.969017999999998
#
# number of rings (size 3 to 8) (size 9 to 14) (size 15 to 20)
#    0.000    2.125    1.250    2.625    3.500    5.500 
#    0.000    2.500    0.000    1.500    0.000    0.000 
#    0.000    0.000    0.000    0.000    0.000    0.000 
#
# Total GULP energy -178155.159380 kJ/mol
# GULP energy per Si atom -5567.348731 kJ/mol
# Density = 1.792812 g / cm^3
# Si number density = 17.969018 Si / 1000 Ang^3
#
#
#
# Elastic Constant Matrix: (Units=GPa)
#
#
# Indices 1 2 3 4 5 6 
#
# 1 91.2996 46.4593 35.0684 0.0000 0.0000 0.0000
# 2 46.4593 53.6072 20.7287 0.0000 0.0000 0.0000
# 3 35.0684 20.7287 53.8362 0.0000 0.0000 0.0000
# 4 0.0000 0.0000 0.0000 27.0318 0.0000 0.0000
# 5 0.0000 0.0000 0.0000 0.0000 26.3845 0.0000
# 6 0.0000 0.0000 0.0000 0.0000 0.0000 24.5503
#
#
#
# Elastic Compliance Matrix: (Units=1/GPa)
#
#
# Indices 1 2 3 4 5 6 
#
# 1 0.022396 -0.016177 -0.008360 0.000000 0.000000 0.000000
# 2 -0.016177 0.033603 -0.002400 0.000000 0.000000 0.000000
# 3 -0.008360 -0.002400 0.024945 0.000000 0.000000 0.000000
# 4 0.000000 0.000000 0.000000 0.036993 0.000000 0.000000
# 5 0.000000 0.000000 0.000000 0.000000 0.037901 0.000000
# 6 0.000000 0.000000 0.000000 0.000000 0.000000 0.040733
#
#
# Mechanical properties :
#
#
# Convention : Reuss Voigt Hill
#
# Bulk Modulus (GPa) = 36.94352 44.80620 40.87486
# Shear Modulus (GPa) = 19.27019 22.02575 20.64797
#
# Velocity S-wave (km/s) = 3.27832 3.50489 3.39350
# Velocity P-wave (km/s) = 5.91050 6.43182 6.17667
#
# Compressibility (1/GPa) = 0.02706835
#
# Stress axis : x y z
#
# Youngs Moduli (GPa) = 44.65079 29.75959 40.08882
#
# Poissons Ratio (x) = 0.48143 0.33513
# Poissons Ratio (y) = 0.72233 0.09623
# Poissons Ratio (z) = 0.37327 0.07144
#
# Static dielectric constant tensor:
#      x y z
#    x 1.675770 0.000000 0.000000 
#    y 0.000000 1.607110 0.000000 
#    z 0.000000 0.000000 1.649450 
# 
# From -- ./inp_files/17821.got.cif
#   From: 2010.05.17/outbox.cif.g08.bks.cpg/sg65_9_cif.got.tgz:17821.got - 2010.06.03 17:01:31.
