data_PCOD9493435
_publ_section_title
;
Structure prediction by ZEFSAII (Michael W. Deem and Ramdas Pophale) SiO2 
 PCOD9493435
Probable space group: C M M M
;
_chemical_formula_sum "Si O2"
_cell_formula_units_Z 88
_cell_length_a 19.244539
_cell_length_b 8.814279
_cell_length_c 29.669034
_cell_angle_alpha 90.000000
_cell_angle_beta 90.000000
_cell_angle_gamma 90.000000
_cell_volume 5032.661397
_symmetry_space_group_name_H-M "C M M M"
_symmetry_group_IT_number 65
_symmetry_cell_setting 'orthorhombic'
loop_
_space_group_symop_operation_xyz
x,y,z
-x,-y,z
x,-y,-z
-x,y,-z
-x,-y,-z
x,y,-z
-x,y,z
x,-y,z
1/2+x,1/2+y,z
1/2-x,1/2-y,z
1/2+x,1/2-y,-z
1/2-x,1/2+y,-z
1/2-x,1/2-y,-z
1/2+x,1/2+y,-z
1/2-x,1/2+y,z
1/2+x,1/2-y,z
loop_
_atom_site_type_symbol
_atom_site_label
_atom_site_fract_x
_atom_site_fract_y
_atom_site_fract_z
Si Si1 0.327198 0.817113 0.678384
Si Si2 0.327902 0.817978 0.222250
Si Si3 0.827378 0.819664 0.130539
Si Si4 0.417722 0.818785 0.948251
Si Si5 0.915649 0.176311 0.500000
Si Si6 0.080790 0.317095 0.594009
O O1 0.250000 0.750000 0.674598
O O2 0.357320 0.780096 0.728195
O O3 0.374626 0.766231 0.636890
O O4 0.321917 0.000000 0.676682
O O5 0.250000 0.750000 0.223611
O O6 0.359293 0.746464 0.177127
O O7 0.325411 0.000000 0.217538
O O8 0.750000 0.750000 0.125752
O O9 0.873008 0.769498 0.088193
O O10 0.821907 0.000000 0.133838
O O11 0.500000 0.790074 0.942508
O O12 0.406889 0.000000 0.942777
O O13 0.399419 0.779675 0.000000
O O14 0.892306 0.253487 0.453584
O O15 0.000000 0.189739 0.500000
O O16 0.897379 0.000000 0.500000
O O17 0.082663 0.500000 0.592061
O O18 0.000000 0.271629 0.599367
#
# Coordination Sequence:
#
# PCOD9493435 Si02
#       6
#    16  16  16  16   8  16
#     4   9  18  31  49  72  96 125 160 197 239 287
#     4   9  16  29  48  70  97 128 163 200 241 289
#     4  11  21  33  52  77 104 133 168 209 248 289
#     4   9  19  37  58  77 100 132 167 203 248 301
#     4   9  17  29  46  69  94 121 155 193 236 283
#     4   9  17  31  50  70  93 122 157 195 235 282
#
# _framework density 17.485776999999999
#
# number of rings (size 3 to 8) (size 9 to 14) (size 15 to 20)
#    0.000    2.636    0.000    4.091    0.000    3.636 
#    0.000    2.273    0.000    3.273    0.000    0.000 
#    0.000    0.000    0.000    0.000    0.000    0.000 
#
# Total GULP energy -245192.433676 kJ/mol
# GULP energy per Si atom -5572.555311 kJ/mol
# Density = 1.744598 g / cm^3
# Si number density = 17.485777 Si / 1000 Ang^3
#
#
#
# Elastic Constant Matrix: (Units=GPa)
#
#
# Indices 1 2 3 4 5 6 
#
# 1 37.5736 28.4913 64.2889 0.0000 0.0000 0.0000
# 2 28.4913 65.1177 71.5169 0.0000 0.0000 0.0000
# 3 64.2889 71.5169 200.0067 0.0000 0.0000 0.0000
# 4 0.0000 0.0000 0.0000 26.0313 0.0000 0.0000
# 5 0.0000 0.0000 0.0000 0.0000 48.5709 0.0000
# 6 0.0000 0.0000 0.0000 0.0000 0.0000 19.6445
#
#
#
# Elastic Compliance Matrix: (Units=1/GPa)
#
#
# Indices 1 2 3 4 5 6 
#
# 1 0.061946 -0.008621 -0.016829 0.000000 0.000000 0.000000
# 2 -0.008621 0.026487 -0.006700 0.000000 0.000000 0.000000
# 3 -0.016829 -0.006700 0.012805 0.000000 0.000000 0.000000
# 4 0.000000 0.000000 0.000000 0.038415 0.000000 0.000000
# 5 0.000000 0.000000 0.000000 0.000000 0.020588 0.000000
# 6 0.000000 0.000000 0.000000 0.000000 0.000000 0.050905
#
#
# Mechanical properties :
#
#
# Convention : Reuss Voigt Hill
#
# Bulk Modulus (GPa) = 27.07201 70.14358 48.60780
# Shear Modulus (GPa) = 17.37562 28.07607 22.72584
#
# Velocity S-wave (km/s) = 3.15572 4.01141 3.60901
# Velocity P-wave (km/s) = 5.36601 7.85219 6.72499
#
# Compressibility (1/GPa) = 0.03693852
#
# Stress axis : x y z
#
# Youngs Moduli (GPa) = 16.14307 37.75400 78.09445
#
# Poissons Ratio (x) = 0.32547 1.31425
# Poissons Ratio (y) = 0.13917 0.52324
# Poissons Ratio (z) = 0.27167 0.25296
#
# Static dielectric constant tensor:
#      x y z
#    x 1.573730 0.000000 0.000000 
#    y 0.000000 1.585270 0.000000 
#    z 0.000000 0.000000 1.630090 
# 
# From -- ./inp_files/75370.got.cif
#   From: 2010.05.17/outbox.cif.g08.bks.cpg/sg65_38_cif.got.tgz:75370.got - 2010.06.03 17:01:31.
