data_PCOD9493100
_publ_section_title
;
Structure prediction by ZEFSAII (Michael W. Deem and Ramdas Pophale) SiO2 
 PCOD9493100
Probable space group: C M M M
;
_chemical_formula_sum "Si O2"
_cell_formula_units_Z 58
_cell_length_a 11.163342
_cell_length_b 27.375692
_cell_length_c 10.241159
_cell_angle_alpha 90.000000
_cell_angle_beta 90.000000
_cell_angle_gamma 90.000000
_cell_volume 3129.741329
_symmetry_space_group_name_H-M "C M M M"
_symmetry_group_IT_number 65
_symmetry_cell_setting 'orthorhombic'
loop_
_space_group_symop_operation_xyz
x,y,z
-x,-y,z
x,-y,-z
-x,y,-z
-x,-y,-z
x,y,-z
-x,y,z
x,-y,z
1/2+x,1/2+y,z
1/2-x,1/2-y,z
1/2+x,1/2-y,-z
1/2-x,1/2+y,-z
1/2-x,1/2-y,-z
1/2+x,1/2+y,-z
1/2-x,1/2+y,z
1/2+x,1/2-y,z
loop_
_atom_site_type_symbol
_atom_site_label
_atom_site_fract_x
_atom_site_fract_y
_atom_site_fract_z
Si Si1 0.643714 0.557719 0.000000
Si Si2 0.000000 0.442205 0.350789
Si Si3 0.500000 0.500000 0.500000
Si Si4 0.724942 0.889198 0.762658
Si Si5 0.363195 0.782376 0.842968
Si Si6 0.869411 0.897124 0.500000
O O1 0.696004 0.585018 0.873729
O O2 0.675445 0.500000 0.000000
O O3 0.500000 0.560878 0.000000
O O4 0.115702 0.423867 0.275458
O O5 0.000000 0.500000 0.357189
O O6 0.000000 0.422724 0.500000
O O7 0.397366 0.455793 0.500000
O O8 0.670735 0.838058 0.810465
O O9 0.800785 0.883197 0.630817
O O10 0.500000 0.771168 0.795933
O O11 0.250000 0.750000 0.794885
O O12 0.366682 0.776705 0.000000
O O13 0.000000 0.873208 0.500000
#
# Coordination Sequence:
#
# PCOD9493100 Si02
#       6
#     8   8   2  16  16   8
#     4  11  26  39  60  93 134 172 214 267 327 386
#     4  11  24  37  65  96 129 175 218 255 312 390
#     4   8  24  40  60  88 128 184 228 254 298 392
#     4  12  22  42  63  94 130 167 215 271 325 389
#     4  10  22  42  66  94 128 169 214 271 333 400
#     4  10  24  37  63  87 126 173 219 258 313 378
#
# _framework density 18.531884000000002
#
# number of rings (size 3 to 8) (size 9 to 14) (size 15 to 20)
#    0.414    0.828    4.138    1.655    3.862    2.759 
#    0.000    2.069    0.000    0.000    0.000    0.000 
#    0.000    0.000    0.000    0.000    0.000    0.000 
#
# Total GULP energy -161540.902063 kJ/mol
# GULP energy per Si atom -5570.375933 kJ/mol
# Density = 1.848970 g / cm^3
# Si number density = 18.531884 Si / 1000 Ang^3
#
#
#
# Elastic Constant Matrix: (Units=GPa)
#
#
# Indices 1 2 3 4 5 6 
#
# 1 162.3022 46.6527 52.0720 0.0000 0.0000 0.0000
# 2 46.6527 78.9262 8.7092 0.0000 0.0000 0.0000
# 3 52.0720 8.7092 90.6133 0.0000 0.0000 0.0000
# 4 0.0000 0.0000 0.0000 21.3050 0.0000 0.0000
# 5 0.0000 0.0000 0.0000 0.0000 -5.0943 0.0000
# 6 0.0000 0.0000 0.0000 0.0000 0.0000 -113.0815
#
#
#
# Elastic Compliance Matrix: (Units=1/GPa)
#
#
# Indices 1 2 3 4 5 6 
#
# 1 0.009077 -0.004841 -0.004751 0.000000 0.000000 0.000000
# 2 -0.004841 0.015388 0.001303 0.000000 0.000000 0.000000
# 3 -0.004751 0.001303 0.013641 0.000000 0.000000 0.000000
# 4 0.000000 0.000000 0.000000 0.046937 0.000000 0.000000
# 5 0.000000 0.000000 0.000000 0.000000 -0.196297 0.000000
# 6 0.000000 0.000000 0.000000 0.000000 0.000000 -0.008843
#
#
# Mechanical properties :
#
#
# Convention : Reuss Voigt Hill
#
# Bulk Modulus (GPa) = 46.45188 60.74552 53.59870
# Shear Modulus (GPa) = -51.89837 -4.41364 -28.15601
#
# Velocity S-wave (km/s) = -5.29771 -1.54493 -3.90208
# Velocity P-wave (km/s) = 3.50722 5.44680 2.94678
#
# Compressibility (1/GPa) = 0.02152766
#
# Stress axis : x y z
#
# Youngs Moduli (GPa) = 110.16607 64.98620 73.30898
#
# Poissons Ratio (x) = 0.31461 0.34829
# Poissons Ratio (y) = 0.53334 -0.09553
# Poissons Ratio (z) = 0.52340 -0.08468
#
# Static dielectric constant tensor:
#      x y z
#    x 1.617190 0.000000 0.000000 
#    y 0.000000 1.611890 0.000000 
#    z 0.000000 0.000000 1.602970 
# 
# From -- ./inp_files/4553.got.cif
#   From: 2010.05.17/outbox.cif.g08.bks.cpg/sg65_3_cif.got.tgz:4553.got - 2010.06.03 17:01:31.
