data_PCOD9493393
_publ_section_title
;
Structure prediction by ZEFSAII (Michael W. Deem and Ramdas Pophale) SiO2 
 PCOD9493393
Probable space group: C M M M
;
_chemical_formula_sum "Si O2"
_cell_formula_units_Z 104
_cell_length_a 23.467102
_cell_length_b 31.222474
_cell_length_c 7.865647
_cell_angle_alpha 90.000000
_cell_angle_beta 90.000000
_cell_angle_gamma 90.000000
_cell_volume 5763.167281
_symmetry_space_group_name_H-M "C M M M"
_symmetry_group_IT_number 65
_symmetry_cell_setting 'orthorhombic'
loop_
_space_group_symop_operation_xyz
x,y,z
-x,-y,z
x,-y,-z
-x,y,-z
-x,-y,-z
x,y,-z
-x,y,z
x,-y,z
1/2+x,1/2+y,z
1/2-x,1/2-y,z
1/2+x,1/2-y,-z
1/2-x,1/2+y,-z
1/2-x,1/2-y,-z
1/2+x,1/2+y,-z
1/2-x,1/2+y,z
1/2+x,1/2-y,z
loop_
_atom_site_type_symbol
_atom_site_label
_atom_site_fract_x
_atom_site_fract_y
_atom_site_fract_z
Si Si1 0.565938 0.120824 0.208884
Si Si2 0.652990 0.951400 0.204196
Si Si3 0.434960 0.307046 0.795734
Si Si4 0.000000 0.951212 0.203092
Si Si5 0.281775 0.451023 0.294583
Si Si6 0.930668 0.714639 0.197004
Si Si7 0.888172 0.102837 0.701918
O O1 0.500000 0.113693 0.257344
O O2 0.607449 0.083161 0.266916
O O3 0.584734 0.168230 0.270092
O O4 0.566738 0.121966 0.000000
O O5 0.717849 0.938591 0.244128
O O6 0.644291 0.000000 0.269576
O O7 0.647217 0.953028 0.000000
O O8 0.500000 0.314658 0.733631
O O9 0.413903 0.260819 0.728372
O O10 0.398075 0.348632 0.759465
O O11 0.438391 0.302701 0.000000
O O12 0.943678 0.925367 0.255053
O O13 0.000000 0.000000 0.270577
O O14 0.000000 0.953170 0.000000
O O15 0.284155 0.451523 0.500000
O O16 0.291475 0.500000 0.235492
O O17 0.331453 0.420101 0.229365
O O18 0.000000 0.715344 0.196267
O O19 0.911650 0.714085 0.000000
O O20 0.883401 0.103795 0.500000
#
# Coordination Sequence:
#
# PCOD9493393 Si02
#       7
#    16  16  16   8  16  16  16
#     4   8  13  23  42  70 101 126 149 181 226 275
#     4   9  17  28  45  71  97 120 151 192 231 268
#     4   9  16  27  44  66  92 118 149 189 233 276
#     4  11  23  35  47  67  95 123 149 185 236 283
#     4   9  19  35  50  62  82 119 161 192 222 269
#     4   7  11  21  39  63  90 122 153 181 217 266
#     4  11  21  32  48  68  90 118 154 194 236 281
#
# _framework density 18.045632999999999
#
# number of rings (size 3 to 8) (size 9 to 14) (size 15 to 20)
#    0.000    3.000    0.769    3.000    0.000    2.769 
#    0.000    3.077    0.000    2.308    0.000   10.769 
#    0.000    0.000    0.000    0.000    0.000    0.000 
#
# Total GULP energy -289648.345715 kJ/mol
# GULP energy per Si atom -5570.160495 kJ/mol
# Density = 1.800456 g / cm^3
# Si number density = 18.045633 Si / 1000 Ang^3
#
#
#
# Elastic Constant Matrix: (Units=GPa)
#
#
# Indices 1 2 3 4 5 6 
#
# 1 106.8390 109.0332 2.5368 0.0000 0.0000 0.0000
# 2 109.0332 184.8839 8.6267 0.0000 0.0000 0.0000
# 3 2.5368 8.6267 19.2752 0.0000 0.0000 0.0000
# 4 0.0000 0.0000 0.0000 -5.3127 0.0000 0.0000
# 5 0.0000 0.0000 0.0000 0.0000 21.1740 0.0000
# 6 0.0000 0.0000 0.0000 0.0000 0.0000 18.6413
#
#
#
# Elastic Compliance Matrix: (Units=1/GPa)
#
#
# Indices 1 2 3 4 5 6 
#
# 1 0.023701 -0.014127 0.003203 0.000000 0.000000 0.000000
# 2 -0.014127 0.013944 -0.004382 0.000000 0.000000 0.000000
# 3 0.003203 -0.004382 0.053420 0.000000 0.000000 0.000000
# 4 0.000000 0.000000 0.000000 -0.188228 0.000000 0.000000
# 5 0.000000 0.000000 0.000000 0.000000 0.047228 0.000000
# 6 0.000000 0.000000 0.000000 0.000000 0.000000 0.053644
#
#
# Mechanical properties :
#
#
# Convention : Reuss Voigt Hill
#
# Bulk Modulus (GPa) = 16.54140 61.26572 38.90356
# Shear Modulus (GPa) = 91.79434 19.62062 55.70748
#
# Velocity S-wave (km/s) = 7.13991 3.30097 5.56214
# Velocity P-wave (km/s) = 8.78393 6.96797 7.92812
#
# Compressibility (1/GPa) = 0.06045439
#
# Stress axis : x y z
#
# Youngs Moduli (GPa) = 42.19317 71.71421 18.71972
#
# Poissons Ratio (x) = 1.01308 -0.05996
# Poissons Ratio (y) = 0.59605 0.08202
# Poissons Ratio (z) = -0.13515 0.31422
#
# Static dielectric constant tensor:
#      x y z
#    x 1.585920 0.000000 0.000000 
#    y 0.000000 1.670140 0.000000 
#    z 0.000000 0.000000 1.659850 
# 
# From -- ./inp_files/15029.got.cif
#   From: 2010.05.17/outbox.cif.g08.bks.cpg/sg65_8_cif.got.tgz:15029.got - 2010.06.03 17:01:31.
