data_PCOD9493000
_publ_section_title
;
Structure prediction by ZEFSAII (Michael W. Deem and Ramdas Pophale) SiO2 
 PCOD9493000
Probable space group: C M M M
;
_chemical_formula_sum "Si O2"
_cell_formula_units_Z 96
_cell_length_a 25.604099
_cell_length_b 17.387008
_cell_length_c 11.808621
_cell_angle_alpha 90.000000
_cell_angle_beta 90.000000
_cell_angle_gamma 90.000000
_cell_volume 5256.946240
_symmetry_space_group_name_H-M "C M M M"
_symmetry_group_IT_number 65
_symmetry_cell_setting 'orthorhombic'
loop_
_space_group_symop_operation_xyz
x,y,z
-x,-y,z
x,-y,-z
-x,y,-z
-x,-y,-z
x,y,-z
-x,y,z
x,-y,z
1/2+x,1/2+y,z
1/2-x,1/2-y,z
1/2+x,1/2-y,-z
1/2-x,1/2+y,-z
1/2-x,1/2-y,-z
1/2+x,1/2+y,-z
1/2-x,1/2+y,z
1/2+x,1/2-y,z
loop_
_atom_site_type_symbol
_atom_site_label
_atom_site_fract_x
_atom_site_fract_y
_atom_site_fract_z
Si Si1 0.291972 0.908366 0.714122
Si Si2 0.733742 0.339279 0.500000
Si Si3 0.901017 0.149121 0.727995
Si Si4 0.894782 0.322097 0.362185
Si Si5 0.500000 0.086920 0.363203
Si Si6 0.500000 0.591966 0.134727
Si Si7 0.626333 0.585068 0.500000
Si Si8 0.302184 0.407444 0.131377
O O1 0.256729 0.881862 0.608666
O O2 0.345630 0.862924 0.697099
O O3 0.255844 0.889656 0.822306
O O4 0.301213 0.000000 0.710641
O O5 0.750000 0.250000 0.500000
O O6 0.671978 0.351511 0.500000
O O7 0.900825 0.236169 0.683737
O O8 0.904983 0.097284 0.615038
O O9 0.846710 0.130712 0.791691
O O10 0.948733 0.129052 0.809697
O O11 0.887782 0.323089 0.500000
O O12 0.947434 0.368268 0.333280
O O13 0.500000 0.083053 0.500000
O O14 0.500000 0.000000 0.318965
O O15 0.500000 0.500000 0.155115
O O16 0.500000 0.603793 0.000000
O O17 0.650495 0.500000 0.500000
O O18 0.308764 0.500000 0.141831
O O19 0.308140 0.386520 0.000000
#
# Coordination Sequence:
#
# PCOD9493000 Si02
#       8
#    16   8  16  16   8   8   8  16
#     4  11  22  36  60  88 119 163 208 244 290 362
#     4  12  22  34  55  86 125 160 194 247 301 353
#     4  12  23  39  60  88 122 158 193 243 305 359
#     4  11  22  37  58  88 126 158 189 244 306 357
#     4   9  19  36  58  82 114 155 195 229 278 353
#     4  11  25  45  67  87 113 157 210 254 291 348
#     4  12  22  35  56  86 120 159 198 232 290 370
#     4  10  22  40  60  83 117 161 206 252 296 344
#
# _framework density 18.261552999999999
#
# number of rings (size 3 to 8) (size 9 to 14) (size 15 to 20)
#    0.000    1.000    3.333    4.750    0.000    2.333 
#    0.000    3.333    0.000    0.000    0.000    0.000 
#    0.000    7.333    0.000    0.000    0.000    0.000 
#
# Total GULP energy -268231.453878 kJ/mol
# GULP energy per Si atom -5588.155289 kJ/mol
# Density = 1.821999 g / cm^3
# Si number density = 18.261553 Si / 1000 Ang^3
#
#
#
# Elastic Constant Matrix: (Units=GPa)
#
#
# Indices 1 2 3 4 5 6 
#
# 1 135.0146 57.8609 51.6927 0.0000 0.0000 0.0000
# 2 57.8609 112.4395 46.4697 0.0000 0.0000 0.0000
# 3 51.6927 46.4697 102.6640 0.0000 0.0000 0.0000
# 4 0.0000 0.0000 0.0000 15.5699 0.0000 0.0000
# 5 0.0000 0.0000 0.0000 0.0000 3.6200 0.0000
# 6 0.0000 0.0000 0.0000 0.0000 0.0000 29.6957
#
#
#
# Elastic Compliance Matrix: (Units=1/GPa)
#
#
# Indices 1 2 3 4 5 6 
#
# 1 0.010417 -0.003928 -0.003467 0.000000 0.000000 0.000000
# 2 -0.003928 0.012421 -0.003645 0.000000 0.000000 0.000000
# 3 -0.003467 -0.003645 0.013136 0.000000 0.000000 0.000000
# 4 0.000000 0.000000 0.000000 0.064227 0.000000 0.000000
# 5 0.000000 0.000000 0.000000 0.000000 0.276245 0.000000
# 6 0.000000 0.000000 0.000000 0.000000 0.000000 0.033675
#
#
# Mechanical properties :
#
#
# Convention : Reuss Voigt Hill
#
# Bulk Modulus (GPa) = 71.96805 73.57385 72.77095
# Shear Modulus (GPa) = 11.44605 22.71678 17.08141
#
# Velocity S-wave (km/s) = 2.50628 3.53082 3.06171
# Velocity P-wave (km/s) = 6.91885 7.54974 7.24117
#
# Compressibility (1/GPa) = 0.01389505
#
# Stress axis : x y z
#
# Youngs Moduli (GPa) = 95.99309 80.50801 76.12588
#
# Poissons Ratio (x) = 0.31621 0.26397
# Poissons Ratio (y) = 0.37703 0.27745
# Poissons Ratio (z) = 0.33285 0.29342
#
# Static dielectric constant tensor:
#      x y z
#    x 1.621950 0.000000 0.000000 
#    y 0.000000 1.622040 0.000000 
#    z 0.000000 0.000000 1.616600 
# 
# From -- ./inp_files/30877.got.cif
#   From: 2010.05.17/outbox.cif.g08.bks.cpg/sg65_16_cif.got.tgz:30877.got - 2010.06.03 17:01:31.
