data_PCOD9493189
_publ_section_title
;
Structure prediction by ZEFSAII (Michael W. Deem and Ramdas Pophale) SiO2 
 PCOD9493189
Probable space group: C M M M
;
_chemical_formula_sum "Si O2"
_cell_formula_units_Z 64
_cell_length_a 18.808841
_cell_length_b 18.201113
_cell_length_c 8.925887
_cell_angle_alpha 90.000000
_cell_angle_beta 90.000000
_cell_angle_gamma 90.000000
_cell_volume 3055.704583
_symmetry_space_group_name_H-M "C M M M"
_symmetry_group_IT_number 65
_symmetry_cell_setting 'orthorhombic'
loop_
_space_group_symop_operation_xyz
x,y,z
-x,-y,z
x,-y,-z
-x,y,-z
-x,-y,-z
x,y,-z
-x,y,z
x,-y,z
1/2+x,1/2+y,z
1/2-x,1/2-y,z
1/2+x,1/2-y,-z
1/2-x,1/2+y,-z
1/2-x,1/2-y,-z
1/2+x,1/2+y,-z
1/2-x,1/2+y,z
1/2+x,1/2-y,z
loop_
_atom_site_type_symbol
_atom_site_label
_atom_site_fract_x
_atom_site_fract_y
_atom_site_fract_z
Si Si1 0.182644 0.673742 0.172155
Si Si2 0.917208 0.189374 0.181131
Si Si3 0.080198 0.412685 0.662484
Si Si4 0.310306 0.585651 0.679311
O O1 0.137723 0.745018 0.225147
O O2 0.124144 0.611382 0.196083
O O3 0.249418 0.641342 0.261489
O O4 0.203020 0.683691 0.000000
O O5 0.883593 0.115989 0.251082
O O6 0.000000 0.201454 0.224374
O O7 0.915184 0.185970 0.000000
O O8 0.110931 0.387978 0.500000
O O9 0.078251 0.500000 0.657255
O O10 0.000000 0.384854 0.671364
O O11 0.312714 0.588966 0.500000
O O12 0.296069 0.500000 0.721493
#
# Coordination Sequence:
#
# PCOD9493189 Si02
#       4
#    16  16  16  16
#     4  11  22  37  60  90 122 156 198 247 300 360
#     4  10  23  43  65  91 124 160 200 250 306 362
#     4   9  18  32  50  76 114 159 203 246 295 353
#     4  11  25  43  63  90 124 161 204 254 304 357
#
# _framework density 20.944431999999999
#
# number of rings (size 3 to 8) (size 9 to 14) (size 15 to 20)
#    0.000    1.750    0.000    4.500    0.000   13.000 
#    0.000    3.750    0.000    0.000    0.000    0.000 
#    0.000    0.000    0.000    0.000    0.000    0.000 
#
# Total GULP energy -178433.943835 kJ/mol
# GULP energy per Si atom -5576.060745 kJ/mol
# Density = 2.089676 g / cm^3
# Si number density = 20.944432 Si / 1000 Ang^3
#
#
#
# Elastic Constant Matrix: (Units=GPa)
#
#
# Indices 1 2 3 4 5 6 
#
# 1 120.6786 85.4820 44.4002 0.0000 0.0000 0.0000
# 2 85.4820 86.7335 41.9457 0.0000 0.0000 0.0000
# 3 44.4002 41.9457 45.5964 0.0000 0.0000 0.0000
# 4 0.0000 0.0000 0.0000 40.3102 0.0000 0.0000
# 5 0.0000 0.0000 0.0000 0.0000 26.6132 0.0000
# 6 0.0000 0.0000 0.0000 0.0000 0.0000 37.3135
#
#
#
# Elastic Compliance Matrix: (Units=1/GPa)
#
#
# Indices 1 2 3 4 5 6 
#
# 1 0.027731 -0.025710 -0.003352 0.000000 0.000000 0.000000
# 2 -0.025710 0.044606 -0.015999 0.000000 0.000000 0.000000
# 3 -0.003352 -0.015999 0.039914 0.000000 0.000000 0.000000
# 4 0.000000 0.000000 0.000000 0.024808 0.000000 0.000000
# 5 0.000000 0.000000 0.000000 0.000000 0.037575 0.000000
# 6 0.000000 0.000000 0.000000 0.000000 0.000000 0.026800
#
#
# Mechanical properties :
#
#
# Convention : Reuss Voigt Hill
#
# Bulk Modulus (GPa) = 45.19038 66.29600 55.74319
# Shear Modulus (GPa) = 16.72612 26.25943 21.49278
#
# Velocity S-wave (km/s) = 2.82901 3.54470 3.20688
# Velocity P-wave (km/s) = 5.68280 6.96241 6.35490
#
# Compressibility (1/GPa) = 0.02212860
#
# Stress axis : x y z
#
# Youngs Moduli (GPa) = 36.06014 22.41851 25.05380
#
# Poissons Ratio (x) = 0.57638 0.08399
# Poissons Ratio (y) = 0.92711 0.40084
# Poissons Ratio (z) = 0.12089 0.35867
#
# Static dielectric constant tensor:
#      x y z
#    x 1.773080 0.000000 0.000000 
#    y 0.000000 1.783780 0.000000 
#    z 0.000000 0.000000 1.759990 
# 
# From -- ./inp_files/8770.got.cif
#   From: 2010.05.17/outbox.cif.g08.bks.cpg/sg65_5_cif.got.tgz:8770.got - 2010.06.03 17:01:31.
