data_PCOD9493093
_publ_section_title
;
Structure prediction by ZEFSAII (Michael W. Deem and Ramdas Pophale) SiO2 
 PCOD9493093
Probable space group: C M M M
;
_chemical_formula_sum "Si O2"
_cell_formula_units_Z 56
_cell_length_a 10.978709
_cell_length_b 27.000640
_cell_length_c 10.401182
_cell_angle_alpha 90.000000
_cell_angle_beta 90.000000
_cell_angle_gamma 90.000000
_cell_volume 3083.244944
_symmetry_space_group_name_H-M "C M M M"
_symmetry_group_IT_number 65
_symmetry_cell_setting 'orthorhombic'
loop_
_space_group_symop_operation_xyz
x,y,z
-x,-y,z
x,-y,-z
-x,y,-z
-x,-y,-z
x,y,-z
-x,y,z
x,-y,z
1/2+x,1/2+y,z
1/2-x,1/2-y,z
1/2+x,1/2-y,-z
1/2-x,1/2+y,-z
1/2-x,1/2-y,-z
1/2+x,1/2+y,-z
1/2-x,1/2+y,z
1/2+x,1/2-y,z
loop_
_atom_site_type_symbol
_atom_site_label
_atom_site_fract_x
_atom_site_fract_y
_atom_site_fract_z
Si Si1 0.144109 0.557727 0.500000
Si Si2 0.738112 0.604469 0.748714
Si Si3 0.645044 0.291719 0.153815
Si Si4 0.854323 0.557592 0.000000
Si Si5 0.000000 0.058069 0.353858
O O1 0.193630 0.500000 0.500000
O O2 0.184361 0.588905 0.375801
O O3 0.000000 0.553179 0.500000
O O4 0.694213 0.660715 0.768825
O O5 0.806203 0.585464 0.874695
O O6 0.615658 0.574380 0.725382
O O7 0.500000 0.280587 0.184744
O O8 0.750000 0.250000 0.174510
O O9 0.646058 0.302468 0.000000
O O10 0.814822 0.500000 0.000000
O O11 0.000000 0.558249 0.000000
O O12 0.000000 0.079674 0.500000
O O13 0.000000 0.000000 0.367229
#
# Coordination Sequence:
#
# PCOD9493093 Si02
#       5
#     8  16  16   8   8
#     4  11  24  41  62  91 132 178 218 255 309 390
#     4  12  22  40  64  92 127 167 213 264 322 380
#     4  10  22  42  65  93 127 165 212 271 330 390
#     4  11  24  39  58  91 132 168 210 263 319 386
#     4  11  22  37  63  95 131 171 211 251 312 385
#
# _framework density 18.162683000000001
#
# number of rings (size 3 to 8) (size 9 to 14) (size 15 to 20)
#    0.000    1.000    4.286    3.429    0.000    5.143 
#    0.000    2.143    0.000    0.000    0.000    0.000 
#    0.000    0.000    0.000    0.000    0.000    0.000 
#
# Total GULP energy -156130.045083 kJ/mol
# GULP energy per Si atom -5576.073039 kJ/mol
# Density = 1.812134 g / cm^3
# Si number density = 18.162683 Si / 1000 Ang^3
#
#
#
# Elastic Constant Matrix: (Units=GPa)
#
#
# Indices 1 2 3 4 5 6 
#
# 1 134.3778 64.8987 56.3677 0.0000 0.0000 0.0000
# 2 64.8987 121.7496 51.8436 0.0000 0.0000 0.0000
# 3 56.3677 51.8436 128.9682 0.0000 0.0000 0.0000
# 4 0.0000 0.0000 0.0000 23.7988 0.0000 0.0000
# 5 0.0000 0.0000 0.0000 0.0000 19.5358 0.0000
# 6 0.0000 0.0000 0.0000 0.0000 0.0000 41.3610
#
#
#
# Elastic Compliance Matrix: (Units=1/GPa)
#
#
# Indices 1 2 3 4 5 6 
#
# 1 0.010862 -0.004547 -0.002920 0.000000 0.000000 0.000000
# 2 -0.004547 0.011813 -0.002761 0.000000 0.000000 0.000000
# 3 -0.002920 -0.002761 0.010140 0.000000 0.000000 0.000000
# 4 0.000000 0.000000 0.000000 0.042019 0.000000 0.000000
# 5 0.000000 0.000000 0.000000 0.000000 0.051188 0.000000
# 6 0.000000 0.000000 0.000000 0.000000 0.000000 0.024177
#
#
# Mechanical properties :
#
#
# Convention : Reuss Voigt Hill
#
# Bulk Modulus (GPa) = 80.91031 81.25726 81.08379
# Shear Modulus (GPa) = 28.60802 31.07150 29.83976
#
# Velocity S-wave (km/s) = 3.97306 4.14059 4.05769
# Velocity P-wave (km/s) = 8.10501 8.22770 8.16658
#
# Compressibility (1/GPa) = 0.01235936
#
# Stress axis : x y z
#
# Youngs Moduli (GPa) = 92.06034 84.65107 98.61866
#
# Poissons Ratio (x) = 0.38490 0.28795
# Poissons Ratio (y) = 0.41859 0.27233
# Poissons Ratio (z) = 0.26880 0.23376
#
# Static dielectric constant tensor:
#      x y z
#    x 1.611550 0.000000 0.000000 
#    y 0.000000 1.620540 0.000000 
#    z 0.000000 0.000000 1.609830 
# 
# From -- ./inp_files/4493.got.cif
#   From: 2010.05.17/outbox.cif.g08.bks.cpg/sg65_3_cif.got.tgz:4493.got - 2010.06.03 17:01:31.
