data_PCOD9493625
_publ_section_title
;
Structure prediction by ZEFSAII (Michael W. Deem and Ramdas Pophale) SiO2 
 PCOD9493625
Probable space group: C M M M
;
_chemical_formula_sum "Si O2"
_cell_formula_units_Z 88
_cell_length_a 18.795903
_cell_length_b 7.753875
_cell_length_c 31.993759
_cell_angle_alpha 90.000000
_cell_angle_beta 90.000000
_cell_angle_gamma 90.000000
_cell_volume 4662.805066
_symmetry_space_group_name_H-M "C M M M"
_symmetry_group_IT_number 65
_symmetry_cell_setting 'orthorhombic'
loop_
_space_group_symop_operation_xyz
x,y,z
-x,-y,z
x,-y,-z
-x,y,-z
-x,-y,-z
x,y,-z
-x,y,z
x,-y,z
1/2+x,1/2+y,z
1/2-x,1/2-y,z
1/2+x,1/2-y,-z
1/2-x,1/2+y,-z
1/2-x,1/2-y,-z
1/2+x,1/2+y,-z
1/2-x,1/2+y,z
1/2+x,1/2-y,z
loop_
_atom_site_type_symbol
_atom_site_label
_atom_site_fract_x
_atom_site_fract_y
_atom_site_fract_z
Si Si1 0.581016 0.793023 0.864815
Si Si2 0.913740 0.295063 0.044932
Si Si3 0.332364 0.704392 0.782428
Si Si4 0.913134 0.500000 0.547989
Si Si5 0.586749 0.698065 0.390537
Si Si6 0.581955 0.710723 0.297490
O O1 0.500000 0.728911 0.858116
O O2 0.609462 0.726067 0.909777
O O3 0.628877 0.757036 0.825011
O O4 0.576685 0.000000 0.869102
O O5 0.897582 0.500000 0.043923
O O6 0.000000 0.280694 0.045741
O O7 0.889484 0.221836 0.000000
O O8 0.338773 0.500000 0.779826
O O9 0.250000 0.750000 0.783209
O O10 0.371274 0.775075 0.741033
O O11 0.889550 0.500000 0.500000
O O12 0.890726 0.330864 0.573856
O O13 0.000000 0.500000 0.547714
O O14 0.500000 0.696205 0.389829
O O15 0.609623 0.500000 0.397394
O O16 0.607769 0.758804 0.343920
O O17 0.500000 0.765745 0.292040
O O18 0.581617 0.500000 0.297674
#
# Coordination Sequence:
#
# PCOD9493625 Si02
#       6
#    16  16  16   8  16  16
#     4   9  17  30  49  74 100 124 158 197 235 290
#     4   7  10  19  39  67  95 120 147 186 234 280
#     4  11  22  35  49  67  96 130 161 202 249 296
#     4   9  16  24  36  62  98 130 160 192 234 290
#     4   8  14  26  42  61  88 123 161 198 238 286
#     4   8  15  30  51  69  87 120 162 198 236 289
#
# _framework density 18.872758999999999
#
# number of rings (size 3 to 8) (size 9 to 14) (size 15 to 20)
#    0.000    3.364    0.000    3.818    0.000    1.455 
#    3.273    1.818    0.000    1.091    0.000    2.545 
#    0.000    0.727    0.364    0.000    0.000    0.000 
#
# Total GULP energy -244992.888564 kJ/mol
# GULP energy per Si atom -5568.020195 kJ/mol
# Density = 1.882980 g / cm^3
# Si number density = 18.872759 Si / 1000 Ang^3
#
#
#
# Elastic Constant Matrix: (Units=GPa)
#
#
# Indices 1 2 3 4 5 6 
#
# 1 45.1468 11.2754 65.3034 0.0000 0.0000 0.0000
# 2 11.2754 52.1673 52.4934 0.0000 0.0000 0.0000
# 3 65.3034 52.4934 241.8326 0.0000 0.0000 0.0000
# 4 0.0000 0.0000 0.0000 21.6858 0.0000 0.0000
# 5 0.0000 0.0000 0.0000 0.0000 -3.8359 0.0000
# 6 0.0000 0.0000 0.0000 0.0000 0.0000 -43.7758
#
#
#
# Elastic Compliance Matrix: (Units=1/GPa)
#
#
# Indices 1 2 3 4 5 6 
#
# 1 0.036622 0.002604 -0.010454 0.000000 0.000000 0.000000
# 2 0.002604 0.024711 -0.006067 0.000000 0.000000 0.000000
# 3 -0.010454 -0.006067 0.008275 0.000000 0.000000 0.000000
# 4 0.000000 0.000000 0.000000 0.046113 0.000000 0.000000
# 5 0.000000 0.000000 0.000000 0.000000 -0.260692 0.000000
# 6 0.000000 0.000000 0.000000 0.000000 0.000000 -0.022844
#
#
# Mechanical properties :
#
#
# Convention : Reuss Voigt Hill
#
# Bulk Modulus (GPa) = 23.93862 66.36569 45.15216
# Shear Modulus (GPa) = -39.66497 8.81978 -15.42260
#
# Velocity S-wave (km/s) = -4.58941 2.16412 -2.86175
# Velocity P-wave (km/s) = 3.92069 6.44094 3.61344
#
# Compressibility (1/GPa) = 0.04177350
#
# Stress axis : x y z
#
# Youngs Moduli (GPa) = 27.30633 40.46722 120.84360
#
# Poissons Ratio (x) = -0.10539 1.26335
# Poissons Ratio (y) = -0.07112 0.73319
# Poissons Ratio (z) = 0.28547 0.24553
#
# Static dielectric constant tensor:
#      x y z
#    x 1.598480 0.000000 0.000000 
#    y 0.000000 1.694660 0.000000 
#    z 0.000000 0.000000 1.706620 
# 
# From -- ./inp_files/78113.got.cif
#   From: 2010.05.17/outbox.cif.g08.bks.cpg/sg65_40_cif.got.tgz:78113.got - 2010.06.03 17:01:31.
