data_PCOD9493907
_publ_section_title
;
Structure prediction by ZEFSAII (Michael W. Deem and Ramdas Pophale) SiO2 
 PCOD9493907
Probable space group: C M M M
;
_chemical_formula_sum "Si O2"
_cell_formula_units_Z 88
_cell_length_a 19.417315
_cell_length_b 8.135540
_cell_length_c 29.539023
_cell_angle_alpha 90.000000
_cell_angle_beta 90.000000
_cell_angle_gamma 90.000000
_cell_volume 4666.289592
_symmetry_space_group_name_H-M "C M M M"
_symmetry_group_IT_number 65
_symmetry_cell_setting 'orthorhombic'
loop_
_space_group_symop_operation_xyz
x,y,z
-x,-y,z
x,-y,-z
-x,y,-z
-x,-y,-z
x,y,-z
-x,y,z
x,-y,z
1/2+x,1/2+y,z
1/2-x,1/2-y,z
1/2+x,1/2-y,-z
1/2-x,1/2+y,-z
1/2-x,1/2-y,-z
1/2+x,1/2+y,-z
1/2-x,1/2+y,z
1/2+x,1/2-y,z
loop_
_atom_site_type_symbol
_atom_site_label
_atom_site_fract_x
_atom_site_fract_y
_atom_site_fract_z
Si Si1 0.920321 0.196192 0.000000
Si Si2 0.170976 0.304264 0.180940
Si Si3 0.579502 0.802216 0.902553
Si Si4 0.420795 0.698428 0.735147
Si Si5 0.670900 0.301362 0.550190
Si Si6 0.579454 0.299506 0.366621
O O1 0.891784 0.256423 0.952099
O O2 0.000000 0.256178 0.000000
O O3 0.919966 0.000000 0.000000
O O4 0.170356 0.500000 0.177864
O O5 0.250000 0.250000 0.180776
O O6 0.127283 0.239047 0.137984
O O7 0.131101 0.255485 0.226509
O O8 0.500000 0.741322 0.898449
O O9 0.576726 0.000000 0.899969
O O10 0.500000 0.752728 0.743962
O O11 0.421453 0.500000 0.735097
O O12 0.400821 0.752939 0.684265
O O13 0.647405 0.246128 0.500000
O O14 0.667518 0.500000 0.550459
O O15 0.750000 0.250000 0.555344
O O16 0.626464 0.239613 0.592390
O O17 0.500000 0.253217 0.373813
O O18 0.581991 0.500000 0.366761
#
# Coordination Sequence:
#
# PCOD9493907 Si02
#       6
#     8  16  16  16  16  16
#     4   9  17  29  50  81 108 129 161 205 246 289
#     4  11  23  37  53  75 104 136 172 212 253 300
#     4   9  18  34  55  76 100 132 167 204 248 296
#     4   9  18  34  55  76 100 131 165 205 255 307
#     4   9  17  29  46  68  95 128 164 201 241 288
#     4   8  15  29  49  73  98 123 157 202 248 293
#
# _framework density 18.858667000000001
#
# number of rings (size 3 to 8) (size 9 to 14) (size 15 to 20)
#    0.000    2.818    0.000    2.455    0.000    4.727 
#    0.000    6.818    0.000    1.636    0.000    2.545 
#    0.000    0.000    0.000    0.000    0.000    0.000 
#
# Total GULP energy -245297.589303 kJ/mol
# GULP energy per Si atom -5574.945211 kJ/mol
# Density = 1.881574 g / cm^3
# Si number density = 18.858667 Si / 1000 Ang^3
#
#
#
# Elastic Constant Matrix: (Units=GPa)
#
#
# Indices 1 2 3 4 5 6 
#
# 1 104.1965 12.3983 119.6375 0.0000 0.0000 0.0000
# 2 12.3983 12.0817 17.0283 0.0000 0.0000 0.0000
# 3 119.6375 17.0283 220.8858 0.0000 0.0000 0.0000
# 4 0.0000 0.0000 0.0000 14.3207 0.0000 0.0000
# 5 0.0000 0.0000 0.0000 0.0000 -22.4183 0.0000
# 6 0.0000 0.0000 0.0000 0.0000 0.0000 11.4965
#
#
#
# Elastic Compliance Matrix: (Units=1/GPa)
#
#
# Indices 1 2 3 4 5 6 
#
# 1 0.026000 -0.007666 -0.013491 0.000000 0.000000 0.000000
# 2 -0.007666 0.095120 -0.003181 0.000000 0.000000 0.000000
# 3 -0.013491 -0.003181 0.012080 0.000000 0.000000 0.000000
# 4 0.000000 0.000000 0.000000 0.069829 0.000000 0.000000
# 5 0.000000 0.000000 0.000000 0.000000 -0.044606 0.000000
# 6 0.000000 0.000000 0.000000 0.000000 0.000000 0.086983
#
#
# Mechanical properties :
#
#
# Convention : Reuss Voigt Hill
#
# Bulk Modulus (GPa) = 11.83107 70.58804 41.20956
# Shear Modulus (GPa) = 15.51559 13.21976 14.36767
#
# Velocity S-wave (km/s) = 2.87144 2.65050 2.76318
# Velocity P-wave (km/s) = 4.15701 6.84676 5.66387
#
# Compressibility (1/GPa) = 0.08452318
#
# Stress axis : x y z
#
# Youngs Moduli (GPa) = 38.46134 10.51303 82.78363
#
# Poissons Ratio (x) = 0.08060 1.11686
# Poissons Ratio (y) = 0.29486 0.26330
# Poissons Ratio (z) = 0.51889 0.03344
#
# Static dielectric constant tensor:
#      x y z
#    x 1.635740 0.000000 0.000000 
#    y 0.000000 1.660170 0.000000 
#    z 0.000000 0.000000 1.677540 
# 
# From -- ./inp_files/67531.got.cif
#   From: 2010.05.17/outbox.cif.g08.bks.cpg/sg65_34_cif.got.tgz:67531.got - 2010.06.03 17:01:31.
