data_PCOD9493522
_publ_section_title
;
Structure prediction by ZEFSAII (Michael W. Deem and Ramdas Pophale) SiO2 
 PCOD9493522
Probable space group: C M M M
;
_chemical_formula_sum "Si O2"
_cell_formula_units_Z 88
_cell_length_a 17.513865
_cell_length_b 9.945862
_cell_length_c 28.543704
_cell_angle_alpha 90.000000
_cell_angle_beta 90.000000
_cell_angle_gamma 90.000000
_cell_volume 4972.041626
_symmetry_space_group_name_H-M "C M M M"
_symmetry_group_IT_number 65
_symmetry_cell_setting 'orthorhombic'
loop_
_space_group_symop_operation_xyz
x,y,z
-x,-y,z
x,-y,-z
-x,y,-z
-x,-y,-z
x,y,-z
-x,y,z
x,-y,z
1/2+x,1/2+y,z
1/2-x,1/2-y,z
1/2+x,1/2-y,-z
1/2-x,1/2+y,-z
1/2-x,1/2-y,-z
1/2+x,1/2+y,-z
1/2-x,1/2+y,z
1/2+x,1/2-y,z
loop_
_atom_site_type_symbol
_atom_site_label
_atom_site_fract_x
_atom_site_fract_y
_atom_site_fract_z
Si Si1 0.811628 0.000000 0.444007
Si Si2 0.325633 0.839346 0.101693
Si Si3 0.411520 0.725772 0.395396
Si Si4 0.086985 0.663413 0.804448
Si Si5 0.593080 0.155315 0.297675
Si Si6 0.870444 0.500000 0.555755
Si Si7 0.674565 0.842043 0.000000
O O1 0.853990 0.127000 0.421380
O O2 0.720954 0.000000 0.435212
O O3 0.822497 0.000000 0.500000
O O4 0.250000 0.750000 0.101017
O O5 0.371329 0.798436 0.147954
O O6 0.309742 0.000000 0.105512
O O7 0.364813 0.819058 0.050472
O O8 0.500000 0.678753 0.396501
O O9 0.387271 0.752534 0.341650
O O10 0.406497 0.868745 0.421149
O O11 0.085519 0.500000 0.802984
O O12 0.120002 0.703052 0.753631
O O13 0.000000 0.711202 0.806964
O O14 0.500000 0.152226 0.295695
O O15 0.617381 0.000000 0.305664
O O16 0.882066 0.500000 0.500000
O O17 0.750000 0.750000 0.000000
O O18 0.696756 0.000000 0.000000
#
# Coordination Sequence:
#
# PCOD9493522 Si02
#       7
#     8  16  16  16  16   8   8
#     4  11  25  41  53  75 115 147 157 192 269 324
#     4   9  16  27  44  66  93 124 160 200 239 281
#     4  11  21  36  60  83 101 129 176 218 244 288
#     4   8  14  26  47  70  93 123 157 193 242 295
#     4   8  14  28  51  76  96 119 159 206 242 279
#     4  11  23  39  57  77 105 139 171 202 247 304
#     4   8  14  24  39  61  89 123 159 194 236 282
#
# _framework density 17.698965999999999
#
# number of rings (size 3 to 8) (size 9 to 14) (size 15 to 20)
#    0.000    2.727    0.909    2.727    0.000    3.636 
#    0.000    2.273    2.000    3.273    0.000    0.000 
#    0.000    7.273    0.000    0.000    0.000    0.000 
#
# Total GULP energy -244954.678621 kJ/mol
# GULP energy per Si atom -5567.151787 kJ/mol
# Density = 1.765868 g / cm^3
# Si number density = 17.698966 Si / 1000 Ang^3
#
#
#
# Elastic Constant Matrix: (Units=GPa)
#
#
# Indices 1 2 3 4 5 6 
#
# 1 36.2679 6.6195 44.8988 0.0000 0.0000 0.0000
# 2 6.6195 35.4200 21.6501 0.0000 0.0000 0.0000
# 3 44.8988 21.6501 166.5386 0.0000 0.0000 0.0000
# 4 0.0000 0.0000 0.0000 23.5072 0.0000 0.0000
# 5 0.0000 0.0000 0.0000 0.0000 28.1292 0.0000
# 6 0.0000 0.0000 0.0000 0.0000 0.0000 -8.0250
#
#
#
# Elastic Compliance Matrix: (Units=1/GPa)
#
#
# Indices 1 2 3 4 5 6 
#
# 1 0.041417 -0.000994 -0.011037 0.000000 0.000000 0.000000
# 2 -0.000994 0.030694 -0.003722 0.000000 0.000000 0.000000
# 3 -0.011037 -0.003722 0.009464 0.000000 0.000000 0.000000
# 4 0.000000 0.000000 0.000000 0.042540 0.000000 0.000000
# 5 0.000000 0.000000 0.000000 0.000000 0.035550 0.000000
# 6 0.000000 0.000000 0.000000 0.000000 0.000000 -0.124610
#
#
# Mechanical properties :
#
#
# Convention : Reuss Voigt Hill
#
# Bulk Modulus (GPa) = 19.97256 42.72924 31.35090
# Shear Modulus (GPa) = 60.05924 19.72616 39.89270
#
# Velocity S-wave (km/s) = 5.83159 3.34209 4.75274
# Velocity P-wave (km/s) = 7.52677 6.25199 6.91880
#
# Compressibility (1/GPa) = 0.05006870
#
# Stress axis : x y z
#
# Youngs Moduli (GPa) = 24.14439 32.58017 105.66306
#
# Poissons Ratio (x) = 0.03239 1.16619
# Poissons Ratio (y) = 0.02400 0.39329
# Poissons Ratio (z) = 0.26648 0.12127
#
# Static dielectric constant tensor:
#      x y z
#    x 1.587060 0.000000 0.000000 
#    y 0.000000 1.573390 0.000000 
#    z 0.000000 0.000000 1.664390 
# 
# From -- ./inp_files/78009.got.cif
#   From: 2010.05.17/outbox.cif.g08.bks.cpg/sg65_40_cif.got.tgz:78009.got - 2010.06.03 17:01:31.
