data_PCOD9493941
_publ_section_title
;
Structure prediction by ZEFSAII (Michael W. Deem and Ramdas Pophale) SiO2 
 PCOD9493941
Probable space group: C M M M
;
_chemical_formula_sum "Si O2"
_cell_formula_units_Z 72
_cell_length_a 8.784458
_cell_length_b 18.049618
_cell_length_c 24.728122
_cell_angle_alpha 90.000000
_cell_angle_beta 90.000000
_cell_angle_gamma 90.000000
_cell_volume 3920.794863
_symmetry_space_group_name_H-M "C M M M"
_symmetry_group_IT_number 65
_symmetry_cell_setting 'orthorhombic'
loop_
_space_group_symop_operation_xyz
x,y,z
-x,-y,z
x,-y,-z
-x,y,-z
-x,-y,-z
x,y,-z
-x,y,z
x,-y,z
1/2+x,1/2+y,z
1/2-x,1/2-y,z
1/2+x,1/2-y,-z
1/2-x,1/2+y,-z
1/2-x,1/2-y,-z
1/2+x,1/2+y,-z
1/2-x,1/2+y,z
1/2+x,1/2-y,z
loop_
_atom_site_type_symbol
_atom_site_label
_atom_site_fract_x
_atom_site_fract_y
_atom_site_fract_z
Si Si1 0.817063 0.914222 0.712529
Si Si2 0.821829 0.588413 0.500000
Si Si3 0.815287 0.411771 0.941809
Si Si4 0.183103 0.168229 0.396511
Si Si5 0.820688 0.590010 0.175139
O O1 0.767357 0.868190 0.660375
O O2 0.759319 0.884492 0.770144
O O3 0.000000 0.914435 0.713509
O O4 0.765960 0.000000 0.706858
O O5 0.810073 0.500000 0.500000
O O6 0.743095 0.620753 0.446711
O O7 0.000000 0.609357 0.500000
O O8 0.781901 0.500000 0.942523
O O9 0.761376 0.382562 0.883462
O O10 0.000000 0.405986 0.940975
O O11 0.761904 0.380993 0.000000
O O12 0.250000 0.250000 0.401018
O O13 0.000000 0.170300 0.397776
O O14 0.805503 0.500000 0.173923
O O15 0.000000 0.606372 0.178874
#
# Coordination Sequence:
#
# PCOD9493941 Si02
#       5
#    16   8  16  16  16
#     4   9  18  32  49  69  95 129 165 200 243 295
#     4  11  24  41  62  87 111 135 166 203 242 287
#     4   7   9  14  26  47  77 112 149 189 234 283
#     4  11  23  39  58  79 106 138 171 207 249 296
#     4   8  13  21  36  59  85 116 156 200 241 282
#
# _framework density 18.363624000000002
#
# number of rings (size 3 to 8) (size 9 to 14) (size 15 to 20)
#    0.000    3.000    0.000    4.000    0.000    3.556 
#    0.000    2.222    0.000    0.667    0.000    4.667 
#    0.000    0.889    0.000    2.000    0.000    5.333 
#
# Total GULP energy -200466.367006 kJ/mol
# GULP energy per Si atom -5568.510195 kJ/mol
# Density = 1.832183 g / cm^3
# Si number density = 18.363624 Si / 1000 Ang^3
#
#
#
# Elastic Constant Matrix: (Units=GPa)
#
#
# Indices 1 2 3 4 5 6 
#
# 1 29.0956 18.8277 43.2963 0.0000 0.0000 0.0000
# 2 18.8277 29.2029 38.2826 0.0000 0.0000 0.0000
# 3 43.2963 38.2826 209.0036 0.0000 0.0000 0.0000
# 4 0.0000 0.0000 0.0000 -13.0235 0.0000 0.0000
# 5 0.0000 0.0000 0.0000 0.0000 40.2906 0.0000
# 6 0.0000 0.0000 0.0000 0.0000 0.0000 9.6365
#
#
#
# Elastic Compliance Matrix: (Units=1/GPa)
#
#
# Indices 1 2 3 4 5 6 
#
# 1 0.067681 -0.033236 -0.007933 0.000000 0.000000 0.000000
# 2 -0.033236 0.061385 -0.004359 0.000000 0.000000 0.000000
# 3 -0.007933 -0.004359 0.007226 0.000000 0.000000 0.000000
# 4 0.000000 0.000000 0.000000 -0.076784 0.000000 0.000000
# 5 0.000000 0.000000 0.000000 0.000000 0.024820 0.000000
# 6 0.000000 0.000000 0.000000 0.000000 0.000000 0.103772
#
#
# Mechanical properties :
#
#
# Convention : Reuss Voigt Hill
#
# Bulk Modulus (GPa) = 22.10570 52.01280 37.05925
# Shear Modulus (GPa) = 16.99336 18.50709 17.75023
#
# Velocity S-wave (km/s) = 3.04531 3.17805 3.11239
# Velocity P-wave (km/s) = 4.94258 6.46931 5.75678
#
# Compressibility (1/GPa) = 0.04523721
#
# Stress axis : x y z
#
# Youngs Moduli (GPa) = 14.77527 16.29066 138.38377
#
# Poissons Ratio (x) = 0.54143 1.09776
# Poissons Ratio (y) = 0.49107 0.60317
# Poissons Ratio (z) = 0.11721 0.07101
#
# Static dielectric constant tensor:
#      x y z
#    x 1.620700 0.000000 0.000000 
#    y 0.000000 1.605620 0.000000 
#    z 0.000000 0.000000 1.680950 
# 
# From -- ./inp_files/67026.got.cif
#   From: 2010.05.17/outbox.cif.g08.bks.cpg/sg65_34_cif.got.tgz:67026.got - 2010.06.03 17:01:31.
