data_PCOD9493933
_publ_section_title
;
Structure prediction by ZEFSAII (Michael W. Deem and Ramdas Pophale) SiO2 
 PCOD9493933
Probable space group: C M M M
;
_chemical_formula_sum "Si O2"
_cell_formula_units_Z 64
_cell_length_a 26.928023
_cell_length_b 13.559689
_cell_length_c 8.998310
_cell_angle_alpha 90.000000
_cell_angle_beta 90.000000
_cell_angle_gamma 90.000000
_cell_volume 3285.603476
_symmetry_space_group_name_H-M "C M M M"
_symmetry_group_IT_number 65
_symmetry_cell_setting 'orthorhombic'
loop_
_space_group_symop_operation_xyz
x,y,z
-x,-y,z
x,-y,-z
-x,y,-z
-x,-y,-z
x,y,-z
-x,y,z
x,-y,z
1/2+x,1/2+y,z
1/2-x,1/2-y,z
1/2+x,1/2-y,-z
1/2-x,1/2+y,-z
1/2-x,1/2-y,-z
1/2+x,1/2+y,-z
1/2-x,1/2+y,z
1/2+x,1/2-y,z
loop_
_atom_site_type_symbol
_atom_site_label
_atom_site_fract_x
_atom_site_fract_y
_atom_site_fract_z
Si Si1 0.623508 0.386025 0.178562
Si Si2 0.420113 0.000000 0.825894
Si Si3 0.198235 0.500000 0.828624
Si Si4 0.558104 0.211508 0.325215
Si Si5 0.770164 0.141078 0.668282
O O1 0.607874 0.500000 0.214542
O O2 0.590553 0.298028 0.249051
O O3 0.679574 0.373180 0.239058
O O4 0.622779 0.376262 0.000000
O O5 0.360479 0.000000 0.818316
O O6 0.436255 0.102671 0.748553
O O7 0.435157 0.000000 0.000000
O O8 0.224317 0.588887 0.746715
O O9 0.212564 0.500000 0.000000
O O10 0.571649 0.204388 0.500000
O O11 0.500000 0.238371 0.314155
O O12 0.779372 0.106861 0.500000
O O13 0.750000 0.250000 0.660182
#
# Coordination Sequence:
#
# PCOD9493933 Si02
#       5
#    16   8   8  16  16
#     4  11  24  42  65  94 129 170 216 269 325 384
#     4  11  24  42  67  98 132 169 213 270 329 388
#     4  11  23  38  58  89 125 163 204 248 307 374
#     4  11  25  44  67  95 128 169 217 271 330 390
#     4  11  23  38  60  90 124 165 210 257 310 373
#
# _framework density 19.478918
#
# number of rings (size 3 to 8) (size 9 to 14) (size 15 to 20)
#    0.000    1.000    1.250    4.875    0.000   13.500 
#    0.000    2.500    0.000    0.000    0.000    0.000 
#    0.000    0.000    0.000    0.000    0.000    0.000 
#
# Total GULP energy -178673.100416 kJ/mol
# GULP energy per Si atom -5583.534388 kJ/mol
# Density = 1.943458 g / cm^3
# Si number density = 19.478918 Si / 1000 Ang^3
#
#
#
# Elastic Constant Matrix: (Units=GPa)
#
#
# Indices 1 2 3 4 5 6 
#
# 1 67.0974 39.7285 45.3273 0.0000 0.0000 0.0000
# 2 39.7285 165.1579 67.9950 0.0000 0.0000 0.0000
# 3 45.3273 67.9950 135.9501 0.0000 0.0000 0.0000
# 4 0.0000 0.0000 0.0000 30.9376 0.0000 0.0000
# 5 0.0000 0.0000 0.0000 0.0000 35.2090 0.0000
# 6 0.0000 0.0000 0.0000 0.0000 0.0000 39.1337
#
#
#
# Elastic Compliance Matrix: (Units=1/GPa)
#
#
# Indices 1 2 3 4 5 6 
#
# 1 0.020094 -0.002614 -0.005392 0.000000 0.000000 0.000000
# 2 -0.002614 0.007965 -0.003112 0.000000 0.000000 0.000000
# 3 -0.005392 -0.003112 0.010710 0.000000 0.000000 0.000000
# 4 0.000000 0.000000 0.000000 0.032323 0.000000 0.000000
# 5 0.000000 0.000000 0.000000 0.000000 0.028402 0.000000
# 6 0.000000 0.000000 0.000000 0.000000 0.000000 0.025553
#
#
# Mechanical properties :
#
#
# Convention : Reuss Voigt Hill
#
# Bulk Modulus (GPa) = 60.48659 74.92301 67.70480
# Shear Modulus (GPa) = 32.72372 35.39969 34.06171
#
# Velocity S-wave (km/s) = 4.10317 4.26764 4.18622
# Velocity P-wave (km/s) = 7.31900 7.92659 7.62885
#
# Compressibility (1/GPa) = 0.01653259
#
# Stress axis : x y z
#
# Youngs Moduli (GPa) = 49.76610 125.55300 93.37010
#
# Poissons Ratio (x) = 0.32814 0.50349
# Poissons Ratio (y) = 0.13007 0.29058
# Poissons Ratio (z) = 0.26836 0.39074
#
# Static dielectric constant tensor:
#      x y z
#    x 1.637380 0.000000 0.000000 
#    y 0.000000 1.660960 0.000000 
#    z 0.000000 0.000000 1.671530 
# 
# From -- ./inp_files/13389.got.cif
#   From: 2010.05.17/outbox.cif.g08.bks.cpg/sg65_7_cif.got.tgz:13389.got - 2010.06.03 17:01:31.
