data_PCOD9493888
_publ_section_title
;
Structure prediction by ZEFSAII (Michael W. Deem and Ramdas Pophale) SiO2 
 PCOD9493888
Probable space group: C M M M
;
_chemical_formula_sum "Si O2"
_cell_formula_units_Z 64
_cell_length_a 18.463163
_cell_length_b 7.839937
_cell_length_c 23.502431
_cell_angle_alpha 90.000000
_cell_angle_beta 90.000000
_cell_angle_gamma 90.000000
_cell_volume 3401.977704
_symmetry_space_group_name_H-M "C M M M"
_symmetry_group_IT_number 65
_symmetry_cell_setting 'orthorhombic'
loop_
_space_group_symop_operation_xyz
x,y,z
-x,-y,z
x,-y,-z
-x,y,-z
-x,-y,-z
x,y,-z
-x,y,z
x,-y,z
1/2+x,1/2+y,z
1/2-x,1/2-y,z
1/2+x,1/2-y,-z
1/2-x,1/2+y,-z
1/2-x,1/2-y,-z
1/2+x,1/2+y,-z
1/2-x,1/2+y,z
1/2+x,1/2-y,z
loop_
_atom_site_type_symbol
_atom_site_label
_atom_site_fract_x
_atom_site_fract_y
_atom_site_fract_z
Si Si1 0.911591 0.697482 0.000000
Si Si2 0.166300 0.202308 0.764386
Si Si3 0.917845 0.295485 0.877274
Si Si4 0.087178 0.799870 0.350389
Si Si5 0.088090 0.500000 0.435003
O O1 0.890896 0.773290 0.061340
O O2 0.886949 0.500000 0.000000
O O3 0.000000 0.697017 0.000000
O O4 0.250000 0.250000 0.760505
O O5 0.131676 0.262601 0.823328
O O6 0.123000 0.261611 0.708531
O O7 0.159603 0.000000 0.764253
O O8 0.922554 0.500000 0.884003
O O9 0.000000 0.231934 0.866868
O O10 0.109270 0.670031 0.400290
O O11 0.000000 0.792340 0.344607
O O12 0.106029 0.000000 0.360852
O O13 0.113888 0.500000 0.500000
O O14 0.000000 0.500000 0.436403
#
# Coordination Sequence:
#
# PCOD9493888 Si02
#       5
#     8  16  16  16   8
#     4   7  12  26  48  75 102 131 169 213 262 317
#     4  11  23  36  51  75 104 140 179 223 269 318
#     4   9  17  31  54  79 104 135 173 217 266 321
#     4   9  19  35  55  81 111 142 177 221 270 319
#     4   9  18  32  56  88 114 139 174 216 263 319
#
# _framework density 18.812586
#
# number of rings (size 3 to 8) (size 9 to 14) (size 15 to 20)
#    0.000    2.750    0.000    3.000    3.500    2.000 
#    0.000    3.750    0.000    3.000    0.000    0.000 
#    0.000    0.000    0.000    0.000    0.000    0.000 
#
# Total GULP energy -178319.740713 kJ/mol
# GULP energy per Si atom -5572.491897 kJ/mol
# Density = 1.876977 g / cm^3
# Si number density = 18.812586 Si / 1000 Ang^3
#
#
#
# Elastic Constant Matrix: (Units=GPa)
#
#
# Indices 1 2 3 4 5 6 
#
# 1 38.8738 20.1443 53.1724 0.0000 0.0000 0.0000
# 2 20.1443 57.5109 62.3301 0.0000 0.0000 0.0000
# 3 53.1724 62.3301 211.0142 0.0000 0.0000 0.0000
# 4 0.0000 0.0000 0.0000 -20.8280 0.0000 0.0000
# 5 0.0000 0.0000 0.0000 0.0000 -5.9867 0.0000
# 6 0.0000 0.0000 0.0000 0.0000 0.0000 -16.1283
#
#
#
# Elastic Compliance Matrix: (Units=1/GPa)
#
#
# Indices 1 2 3 4 5 6 
#
# 1 0.040046 -0.004545 -0.008748 0.000000 0.000000 0.000000
# 2 -0.004545 0.026092 -0.006562 0.000000 0.000000 0.000000
# 3 -0.008748 -0.006562 0.008882 0.000000 0.000000 0.000000
# 4 0.000000 0.000000 0.000000 -0.048012 0.000000 0.000000
# 5 0.000000 0.000000 0.000000 0.000000 -0.167037 0.000000
# 6 0.000000 0.000000 0.000000 0.000000 0.000000 -0.062003
#
#
# Mechanical properties :
#
#
# Convention : Reuss Voigt Hill
#
# Bulk Modulus (GPa) = 28.32195 64.29916 46.31056
# Shear Modulus (GPa) = -33.21099 2.86155 -15.17472
#
# Velocity S-wave (km/s) = -4.20618 1.23466 -2.84320
# Velocity P-wave (km/s) = 2.91578 6.02375 3.72718
#
# Compressibility (1/GPa) = 0.03530831
#
# Stress axis : x y z
#
# Youngs Moduli (GPa) = 24.97144 38.32646 112.59165
#
# Poissons Ratio (x) = 0.17421 0.98498
# Poissons Ratio (y) = 0.11351 0.73879
# Poissons Ratio (z) = 0.21846 0.25149
#
# Static dielectric constant tensor:
#      x y z
#    x 1.601860 0.000000 0.000000 
#    y 0.000000 1.681670 0.000000 
#    z 0.000000 0.000000 1.684900 
# 
# From -- ./inp_files/63241.got.cif
#   From: 2010.05.17/outbox.cif.g08.bks.cpg/sg65_32_cif.got.tgz:63241.got - 2010.06.03 17:01:31.
