data_PCOD9493110
_publ_section_title
;
Structure prediction by ZEFSAII (Michael W. Deem and Ramdas Pophale) SiO2 
 PCOD9493110
Probable space group: C M M M
;
_chemical_formula_sum "Si O2"
_cell_formula_units_Z 60
_cell_length_a 18.487805
_cell_length_b 9.757504
_cell_length_c 16.863895
_cell_angle_alpha 90.000000
_cell_angle_beta 90.000000
_cell_angle_gamma 90.000000
_cell_volume 3042.159493
_symmetry_space_group_name_H-M "C M M M"
_symmetry_group_IT_number 65
_symmetry_cell_setting 'orthorhombic'
loop_
_space_group_symop_operation_xyz
x,y,z
-x,-y,z
x,-y,-z
-x,y,-z
-x,-y,-z
x,y,-z
-x,y,z
x,-y,z
1/2+x,1/2+y,z
1/2-x,1/2-y,z
1/2+x,1/2-y,-z
1/2-x,1/2+y,-z
1/2-x,1/2-y,-z
1/2+x,1/2+y,-z
1/2-x,1/2+y,z
1/2+x,1/2-y,z
loop_
_atom_site_type_symbol
_atom_site_label
_atom_site_fract_x
_atom_site_fract_y
_atom_site_fract_z
Si Si1 0.164954 0.722451 0.142831
Si Si2 0.083942 0.000000 0.095446
Si Si3 0.846374 0.500000 0.000000
Si Si4 0.084978 0.652855 0.303668
Si Si5 0.319837 0.658376 0.404863
O O1 0.250000 0.750000 0.153268
O O2 0.154510 0.619400 0.069698
O O3 0.129580 0.664455 0.222541
O O4 0.124963 0.865305 0.124675
O O5 0.000000 0.000000 0.120836
O O6 0.085769 0.000000 0.000000
O O7 0.096643 0.500000 0.338077
O O8 0.113241 0.769474 0.362270
O O9 0.000000 0.668098 0.286832
O O10 0.327881 0.661973 0.500000
O O11 0.310819 0.500000 0.380485
O O12 0.250000 0.750000 0.383928
#
# Coordination Sequence:
#
# PCOD9493110 Si02
#       5
#    16   8   4  16  16
#     4  12  25  43  70  97 130 175 228 286 344 413
#     4  11  25  43  62  95 133 167 215 278 350 414
#     4  12  24  44  67  98 127 168 228 290 342 398
#     4  11  25  44  64  96 138 180 228 279 342 409
#     4  10  22  42  71 104 137 176 224 278 337 404
#
# _framework density 19.722833000000001
#
# number of rings (size 3 to 8) (size 9 to 14) (size 15 to 20)
#    0.000    0.933    2.667    3.600    3.733    2.667 
#    0.000    5.333    0.000    0.000    0.000    0.000 
#    0.000    0.000    0.000    0.000    0.000    0.000 
#
# Total GULP energy -167248.614644 kJ/mol
# GULP energy per Si atom -5574.953821 kJ/mol
# Density = 1.967794 g / cm^3
# Si number density = 19.722833 Si / 1000 Ang^3
#
#
#
# Elastic Constant Matrix: (Units=GPa)
#
#
# Indices 1 2 3 4 5 6 
#
# 1 132.8661 82.9004 29.2554 0.0000 0.0000 0.0000
# 2 82.9004 198.5189 44.8311 0.0000 0.0000 0.0000
# 3 29.2554 44.8311 40.4783 0.0000 0.0000 0.0000
# 4 0.0000 0.0000 0.0000 8.6870 0.0000 0.0000
# 5 0.0000 0.0000 0.0000 0.0000 8.7683 0.0000
# 6 0.0000 0.0000 0.0000 0.0000 0.0000 -127.7001
#
#
#
# Elastic Compliance Matrix: (Units=1/GPa)
#
#
# Indices 1 2 3 4 5 6 
#
# 1 0.010572 -0.003586 -0.003669 0.000000 0.000000 0.000000
# 2 -0.003586 0.007934 -0.006195 0.000000 0.000000 0.000000
# 3 -0.003669 -0.006195 0.034218 0.000000 0.000000 0.000000
# 4 0.000000 0.000000 0.000000 0.115114 0.000000 0.000000
# 5 0.000000 0.000000 0.000000 0.000000 0.114047 0.000000
# 6 0.000000 0.000000 0.000000 0.000000 0.000000 -0.007831
#
#
# Mechanical properties :
#
#
# Convention : Reuss Voigt Hill
#
# Bulk Modulus (GPa) = 38.72536 76.20414 57.46475
# Shear Modulus (GPa) = 16.15185 -7.72385 4.21400
#
# Velocity S-wave (km/s) = 2.86482 -1.98109 1.46330
# Velocity P-wave (km/s) = 5.53356 5.78692 5.66166
#
# Compressibility (1/GPa) = 0.02582287
#
# Stress axis : x y z
#
# Youngs Moduli (GPa) = 94.59157 126.04097 29.22467
#
# Poissons Ratio (x) = 0.45201 0.10722
# Poissons Ratio (y) = 0.33922 0.18105
# Poissons Ratio (z) = 0.34704 0.78085
#
# Static dielectric constant tensor:
#      x y z
#    x 1.711880 0.000000 0.000000 
#    y 0.000000 1.706130 0.000000 
#    z 0.000000 0.000000 1.666920 
# 
# From -- ./inp_files/55278.got.cif
#   From: 2010.05.17/outbox.cif.g08.bks.cpg/sg65_28_cif.got.tgz:55278.got - 2010.06.03 17:01:31.
