data_PCOD9493993
_publ_section_title
;
Structure prediction by ZEFSAII (Michael W. Deem and Ramdas Pophale) SiO2 
 PCOD9493993
Probable space group: C M M M
;
_chemical_formula_sum "Si O2"
_cell_formula_units_Z 88
_cell_length_a 21.841647
_cell_length_b 8.709046
_cell_length_c 25.864111
_cell_angle_alpha 90.000000
_cell_angle_beta 90.000000
_cell_angle_gamma 90.000000
_cell_volume 4919.868826
_symmetry_space_group_name_H-M "C M M M"
_symmetry_group_IT_number 65
_symmetry_cell_setting 'orthorhombic'
loop_
_space_group_symop_operation_xyz
x,y,z
-x,-y,z
x,-y,-z
-x,y,-z
-x,-y,-z
x,y,-z
-x,y,z
x,-y,z
1/2+x,1/2+y,z
1/2-x,1/2-y,z
1/2+x,1/2-y,-z
1/2-x,1/2+y,-z
1/2-x,1/2-y,-z
1/2+x,1/2+y,-z
1/2-x,1/2+y,z
1/2+x,1/2-y,z
loop_
_atom_site_type_symbol
_atom_site_label
_atom_site_fract_x
_atom_site_fract_y
_atom_site_fract_z
Si Si1 0.375495 0.684042 0.103045
Si Si2 0.574064 0.326005 0.392793
Si Si3 0.316806 0.184259 0.000000
Si Si4 0.929528 0.315966 0.282446
Si Si5 0.500000 0.814890 0.062404
Si Si6 0.574683 0.822434 0.500000
Si Si7 0.317946 0.185535 0.207320
O O1 0.375283 0.500000 0.106078
O O2 0.345721 0.745281 0.050838
O O3 0.443210 0.749670 0.094673
O O4 0.339215 0.753767 0.151393
O O5 0.500000 0.329471 0.396460
O O6 0.595919 0.500000 0.386720
O O7 0.586653 0.231094 0.341066
O O8 0.596003 0.256040 0.446961
O O9 0.250000 0.250000 0.000000
O O10 0.321439 0.000000 0.000000
O O11 0.932152 0.500000 0.278852
O O12 0.873855 0.265207 0.245432
O O13 0.000000 0.259589 0.271164
O O14 0.500000 0.000000 0.062724
O O15 0.500000 0.770665 0.000000
O O16 0.500000 0.815198 0.500000
O O17 0.591803 0.000000 0.500000
O O18 0.250000 0.250000 0.219887
O O19 0.314876 0.000000 0.207256
#
# Coordination Sequence:
#
# PCOD9493993 Si02
#       7
#    16  16   8  16   8   8  16
#     4  12  25  41  62  89 118 148 187 235 283 339
#     4   9  16  26  43  71 107 144 182 231 284 334
#     4  12  24  41  62  85 112 148 186 230 284 342
#     4   9  19  36  57  81 109 148 192 235 285 342
#     4  11  23  41  65  91 120 154 186 223 278 343
#     4   9  15  23  39  65 102 147 188 227 272 333
#     4  11  24  42  63  86 116 153 195 242 291 346
#
# _framework density 17.886655999999999
#
# number of rings (size 3 to 8) (size 9 to 14) (size 15 to 20)
#    0.000    1.636    0.909    4.636    1.273    5.091 
#    0.000    0.000    0.000    0.000    0.000    0.636 
#    0.000    0.000    0.000    0.000    0.000    0.000 
#
# Total GULP energy -245334.799649 kJ/mol
# GULP energy per Si atom -5575.790901 kJ/mol
# Density = 1.784595 g / cm^3
# Si number density = 17.886656 Si / 1000 Ang^3
#
#
#
# Elastic Constant Matrix: (Units=GPa)
#
#
# Indices 1 2 3 4 5 6 
#
# 1 122.4273 32.2840 59.7787 0.0000 0.0000 0.0000
# 2 32.2840 69.0457 25.7973 0.0000 0.0000 0.0000
# 3 59.7787 25.7973 126.4250 0.0000 0.0000 0.0000
# 4 0.0000 0.0000 0.0000 43.0235 0.0000 0.0000
# 5 0.0000 0.0000 0.0000 0.0000 -21.5469 0.0000
# 6 0.0000 0.0000 0.0000 0.0000 0.0000 25.7017
#
#
#
# Elastic Compliance Matrix: (Units=1/GPa)
#
#
# Indices 1 2 3 4 5 6 
#
# 1 0.011385 -0.003585 -0.004652 0.000000 0.000000 0.000000
# 2 -0.003585 0.016808 -0.001734 0.000000 0.000000 0.000000
# 3 -0.004652 -0.001734 0.010463 0.000000 0.000000 0.000000
# 4 0.000000 0.000000 0.000000 0.023243 0.000000 0.000000
# 5 0.000000 0.000000 0.000000 0.000000 -0.046410 0.000000
# 6 0.000000 0.000000 0.000000 0.000000 0.000000 0.038908
#
#
# Mechanical properties :
#
#
# Convention : Reuss Voigt Hill
#
# Bulk Modulus (GPa) = 53.43859 61.51311 57.47585
# Shear Modulus (GPa) = 62.05285 22.77153 42.41219
#
# Velocity S-wave (km/s) = 5.89640 3.57193 4.87474
# Velocity P-wave (km/s) = 8.73486 7.17473 7.99295
#
# Compressibility (1/GPa) = 0.01871307
#
# Stress axis : x y z
#
# Youngs Moduli (GPa) = 87.83612 59.49710 95.57314
#
# Poissons Ratio (x) = 0.21331 0.44457
# Poissons Ratio (y) = 0.31492 0.16576
# Poissons Ratio (z) = 0.40858 0.10319
#
# Static dielectric constant tensor:
#      x y z
#    x 1.441990 0.000000 0.000000 
#    y 0.000000 1.606040 0.000000 
#    z 0.000000 0.000000 1.582840 
# 
# From -- ./inp_files/71106.got.cif
#   From: 2010.05.17/outbox.cif.g08.bks.cpg/sg65_36_cif.got.tgz:71106.got - 2010.06.03 17:01:31.
