data_PCOD9493007
_publ_section_title
;
Structure prediction by ZEFSAII (Michael W. Deem and Ramdas Pophale) SiO2 
 PCOD9493007
Probable space group: C M M M
;
_chemical_formula_sum "Si O2"
_cell_formula_units_Z 88
_cell_length_a 24.157768
_cell_length_b 8.510083
_cell_length_c 23.936734
_cell_angle_alpha 90.000000
_cell_angle_beta 90.000000
_cell_angle_gamma 90.000000
_cell_volume 4921.024143
_symmetry_space_group_name_H-M "C M M M"
_symmetry_group_IT_number 65
_symmetry_cell_setting 'orthorhombic'
loop_
_space_group_symop_operation_xyz
x,y,z
-x,-y,z
x,-y,-z
-x,y,-z
-x,-y,-z
x,y,-z
-x,y,z
x,-y,z
1/2+x,1/2+y,z
1/2-x,1/2-y,z
1/2+x,1/2-y,-z
1/2-x,1/2+y,-z
1/2-x,1/2-y,-z
1/2+x,1/2+y,-z
1/2-x,1/2+y,z
1/2+x,1/2-y,z
loop_
_atom_site_type_symbol
_atom_site_label
_atom_site_fract_x
_atom_site_fract_y
_atom_site_fract_z
Si Si1 0.116051 0.810981 0.938718
Si Si2 0.687900 0.688151 0.169033
Si Si3 0.500000 0.815597 0.905689
Si Si4 0.387622 0.185945 0.733337
Si Si5 0.432902 0.319217 0.500000
Si Si6 0.935306 0.809545 0.622511
Si Si7 0.500000 0.683688 0.215140
O O1 0.152141 0.760031 0.885252
O O2 0.056596 0.727800 0.936426
O O3 0.107916 0.000000 0.934253
O O4 0.141643 0.780060 0.000000
O O5 0.687978 0.500000 0.168894
O O6 0.750000 0.750000 0.164802
O O7 0.659285 0.744895 0.226267
O O8 0.500000 0.707615 0.850774
O O9 0.500000 0.000000 0.890952
O O10 0.394725 0.251986 0.670828
O O11 0.445429 0.235169 0.761700
O O12 0.381851 0.000000 0.731470
O O13 0.412999 0.500000 0.500000
O O14 0.500000 0.324791 0.500000
O O15 0.418525 0.250555 0.560552
O O16 0.000000 0.762607 0.633400
O O17 0.935415 0.000000 0.621520
O O18 0.500000 0.500000 0.230590
#
# Coordination Sequence:
#
# PCOD9493007 Si02
#       7
#    16  16   8  16   8  16   8
#     4  10  22  40  61  83 111 149 185 218 268 333
#     4  11  24  42  62  81 107 142 184 232 281 329
#     4  12  23  35  56  87 117 145 179 224 273 323
#     4  12  23  35  54  83 114 144 184 230 277 331
#     4   7  12  24  43  71 106 149 193 224 254 313
#     4   9  16  28  49  76 111 152 190 224 267 320
#     4  12  22  35  55  79 109 147 183 224 278 334
#
# _framework density 17.882456999999999
#
# number of rings (size 3 to 8) (size 9 to 14) (size 15 to 20)
#    0.000    1.545    2.727    5.182    0.000    2.545 
#    0.000    0.455    0.000    1.636    0.000    0.636 
#    0.000    0.000    0.000    0.000    0.000    0.000 
#
# Total GULP energy -245524.569822 kJ/mol
# GULP energy per Si atom -5580.103860 kJ/mol
# Density = 1.784176 g / cm^3
# Si number density = 17.882457 Si / 1000 Ang^3
#
#
#
# Elastic Constant Matrix: (Units=GPa)
#
#
# Indices 1 2 3 4 5 6 
#
# 1 97.7705 25.7443 60.1540 0.0000 0.0000 0.0000
# 2 25.7443 50.0613 29.2248 0.0000 0.0000 0.0000
# 3 60.1540 29.2248 168.5323 0.0000 0.0000 0.0000
# 4 0.0000 0.0000 0.0000 -2.6171 0.0000 0.0000
# 5 0.0000 0.0000 0.0000 0.0000 12.8643 0.0000
# 6 0.0000 0.0000 0.0000 0.0000 0.0000 24.8024
#
#
#
# Elastic Compliance Matrix: (Units=1/GPa)
#
#
# Indices 1 2 3 4 5 6 
#
# 1 0.014067 -0.004788 -0.004191 0.000000 0.000000 0.000000
# 2 -0.004788 0.023855 -0.002428 0.000000 0.000000 0.000000
# 3 -0.004191 -0.002428 0.007850 0.000000 0.000000 0.000000
# 4 0.000000 0.000000 0.000000 -0.382103 0.000000 0.000000
# 5 0.000000 0.000000 0.000000 0.000000 0.077735 0.000000
# 6 0.000000 0.000000 0.000000 0.000000 0.000000 0.040319
#
#
# Mechanical properties :
#
#
# Convention : Reuss Voigt Hill
#
# Bulk Modulus (GPa) = 43.55390 60.73446 52.14418
# Shear Modulus (GPa) = -26.62243 20.42599 -3.09822
#
# Velocity S-wave (km/s) = -3.86261 3.38337 -1.31769
# Velocity P-wave (km/s) = 2.12497 7.02138 5.18726
#
# Compressibility (1/GPa) = 0.02296006
#
# Stress axis : x y z
#
# Youngs Moduli (GPa) = 71.08814 41.92017 127.38262
#
# Poissons Ratio (x) = 0.20070 0.53383
# Poissons Ratio (y) = 0.34034 0.30926
# Poissons Ratio (z) = 0.29791 0.10177
#
# Static dielectric constant tensor:
#      x y z
#    x 1.577980 0.000000 0.000000 
#    y 0.000000 1.603290 0.000000 
#    z 0.000000 0.000000 1.671870 
# 
# From -- ./inp_files/71048.got.cif
#   From: 2010.05.17/outbox.cif.g08.bks.cpg/sg65_36_cif.got.tgz:71048.got - 2010.06.03 17:01:31.
