data_PCOD9493623
_publ_section_title
;
Structure prediction by ZEFSAII (Michael W. Deem and Ramdas Pophale) SiO2 
 PCOD9493623
Probable space group: C M M M
;
_chemical_formula_sum "Si O2"
_cell_formula_units_Z 72
_cell_length_a 27.079643
_cell_length_b 10.223469
_cell_length_c 14.939315
_cell_angle_alpha 90.000000
_cell_angle_beta 90.000000
_cell_angle_gamma 90.000000
_cell_volume 4135.917847
_symmetry_space_group_name_H-M "C M M M"
_symmetry_group_IT_number 65
_symmetry_cell_setting 'orthorhombic'
loop_
_space_group_symop_operation_xyz
x,y,z
-x,-y,z
x,-y,-z
-x,y,-z
-x,-y,-z
x,y,-z
-x,y,z
x,-y,z
1/2+x,1/2+y,z
1/2-x,1/2-y,z
1/2+x,1/2-y,-z
1/2-x,1/2+y,-z
1/2-x,1/2-y,-z
1/2+x,1/2+y,-z
1/2-x,1/2+y,z
1/2+x,1/2-y,z
loop_
_atom_site_type_symbol
_atom_site_label
_atom_site_fract_x
_atom_site_fract_y
_atom_site_fract_z
Si Si1 0.699065 0.163152 0.000000
Si Si2 0.709604 0.357481 0.500000
Si Si3 0.057007 0.000000 0.106399
Si Si4 0.621711 0.244779 0.845470
Si Si5 0.370854 0.347394 0.653885
Si Si6 0.941854 0.500000 0.107081
Si Si7 0.556626 0.659508 0.500000
O O1 0.750000 0.250000 0.000000
O O2 0.666104 0.208900 0.914030
O O3 0.705075 0.000000 0.000000
O O4 0.733095 0.500000 0.500000
O O5 0.750000 0.250000 0.500000
O O6 0.675104 0.346342 0.413282
O O7 0.089724 0.873205 0.129820
O O8 0.000000 0.000000 0.143636
O O9 0.051792 0.000000 0.000000
O O10 0.638466 0.268029 0.743768
O O11 0.583781 0.126077 0.852478
O O12 0.380650 0.500000 0.677693
O O13 0.415635 0.298641 0.590759
O O14 0.000000 0.500000 0.121184
O O15 0.932619 0.500000 0.000000
O O16 0.560325 0.500000 0.500000
O O17 0.500000 0.697532 0.500000
#
# Coordination Sequence:
#
# PCOD9493623 Si02
#       7
#     8   8   8  16  16   8   8
#     4  12  28  46  65  86 116 164 207 250 311 366
#     4   9  19  40  61  85 114 147 193 245 301 354
#     4  11  22  34  58  93 124 161 203 246 291 339
#     4  12  21  41  60  88 127 158 203 249 297 360
#     4   9  19  34  58  86 118 153 190 242 295 344
#     4  11  22  40  62  83 120 169 205 242 295 357
#     4   8  15  30  51  81 119 156 191 231 282 343
#
# _framework density 17.408470000000001
#
# number of rings (size 3 to 8) (size 9 to 14) (size 15 to 20)
#    0.000    1.667    4.444    2.000    1.556    4.444 
#    2.000    2.222    0.000    0.000    0.000    2.333 
#    0.000    0.000    0.000    0.000    0.000    0.000 
#
# Total GULP energy -200623.157833 kJ/mol
# GULP energy per Si atom -5572.865495 kJ/mol
# Density = 1.736885 g / cm^3
# Si number density = 17.408470 Si / 1000 Ang^3
#
#
#
# Elastic Constant Matrix: (Units=GPa)
#
#
# Indices 1 2 3 4 5 6 
#
# 1 92.3253 64.8051 45.8819 0.0000 0.0000 0.0000
# 2 64.8051 137.9415 52.3448 0.0000 0.0000 0.0000
# 3 45.8819 52.3448 140.1965 0.0000 0.0000 0.0000
# 4 0.0000 0.0000 0.0000 23.2699 0.0000 0.0000
# 5 0.0000 0.0000 0.0000 0.0000 -3.9198 0.0000
# 6 0.0000 0.0000 0.0000 0.0000 0.0000 34.2009
#
#
#
# Elastic Compliance Matrix: (Units=1/GPa)
#
#
# Indices 1 2 3 4 5 6 
#
# 1 0.017208 -0.006929 -0.003045 0.000000 0.000000 0.000000
# 2 -0.006929 0.011236 -0.001928 0.000000 0.000000 0.000000
# 3 -0.003045 -0.001928 0.008849 0.000000 0.000000 0.000000
# 4 0.000000 0.000000 0.000000 0.042974 0.000000 0.000000
# 5 0.000000 0.000000 0.000000 0.000000 -0.255115 0.000000
# 6 0.000000 0.000000 0.000000 0.000000 0.000000 0.029239
#
#
# Mechanical properties :
#
#
# Convention : Reuss Voigt Hill
#
# Bulk Modulus (GPa) = 74.12480 77.39189 75.75834
# Shear Modulus (GPa) = -42.62215 24.53897 -9.04159
#
# Velocity S-wave (km/s) = -4.95346 3.75854 -2.28146
# Velocity P-wave (km/s) = 3.15540 7.96169 6.05578
#
# Compressibility (1/GPa) = 0.01349076
#
# Stress axis : x y z
#
# Youngs Moduli (GPa) = 58.11299 88.99852 113.00802
#
# Poissons Ratio (x) = 0.61667 0.34406
# Poissons Ratio (y) = 0.40266 0.21783
# Poissons Ratio (z) = 0.17693 0.17155
#
# Static dielectric constant tensor:
#      x y z
#    x 1.594400 0.000000 0.000000 
#    y 0.000000 1.629990 0.000000 
#    z 0.000000 0.000000 1.593470 
# 
# From -- ./inp_files/36731.got.cif
#   From: 2010.05.17/outbox.cif.g08.bks.cpg/sg65_19_cif.got.tgz:36731.got - 2010.06.03 17:01:31.
