data_PCOD9493178
_publ_section_title
;
Structure prediction by ZEFSAII (Michael W. Deem and Ramdas Pophale) SiO2 
 PCOD9493178
Probable space group: C M M M
;
_chemical_formula_sum "Si O2"
_cell_formula_units_Z 56
_cell_length_a 15.242079
_cell_length_b 8.685049
_cell_length_c 22.166106
_cell_angle_alpha 90.000000
_cell_angle_beta 90.000000
_cell_angle_gamma 90.000000
_cell_volume 2934.309279
_symmetry_space_group_name_H-M "C M M M"
_symmetry_group_IT_number 65
_symmetry_cell_setting 'orthorhombic'
loop_
_space_group_symop_operation_xyz
x,y,z
-x,-y,z
x,-y,-z
-x,y,-z
-x,-y,-z
x,y,-z
-x,y,z
x,-y,z
1/2+x,1/2+y,z
1/2-x,1/2-y,z
1/2+x,1/2-y,-z
1/2-x,1/2+y,-z
1/2-x,1/2-y,-z
1/2+x,1/2+y,-z
1/2-x,1/2+y,z
1/2+x,1/2-y,z
loop_
_atom_site_type_symbol
_atom_site_label
_atom_site_fract_x
_atom_site_fract_y
_atom_site_fract_z
Si Si1 0.500000 0.313107 0.221217
Si Si2 0.851010 0.186245 0.000000
Si Si3 0.394304 0.181811 0.433881
Si Si4 0.159236 0.182746 0.693029
Si Si5 0.000000 0.315285 0.912745
O O1 0.500000 0.500000 0.213527
O O2 0.582716 0.268019 0.262050
O O3 0.500000 0.233169 0.156803
O O4 0.750000 0.250000 0.000000
O O5 0.912106 0.246012 0.055594
O O6 0.848040 0.000000 0.000000
O O7 0.365249 0.239984 0.500000
O O8 0.500000 0.197118 0.431800
O O9 0.356808 0.262455 0.375299
O O10 0.374101 0.000000 0.430726
O O11 0.250000 0.250000 0.715101
O O12 0.161644 0.000000 0.692589
O O13 0.000000 0.500000 0.920448
#
# Coordination Sequence:
#
# PCOD9493178 Si02
#       5
#     8   8  16  16   8
#     4  10  23  43  61  83 121 162 202 249 298 351
#     4  11  22  41  68  98 134 169 204 251 296 344
#     4   9  18  34  57  83 111 145 188 242 303 364
#     4  11  23  39  59  84 114 152 198 248 300 358
#     4  11  23  40  65  97 129 167 208 246 299 357
#
# _framework density 19.084558999999999
#
# number of rings (size 3 to 8) (size 9 to 14) (size 15 to 20)
#    0.000    1.714    1.429    5.143    0.000    4.571 
#    0.000    4.286    0.000    0.000    0.000    0.000 
#    0.000    0.000    0.000    0.000    0.000    0.000 
#
# Total GULP energy -156357.429323 kJ/mol
# GULP energy per Si atom -5584.193904 kJ/mol
# Density = 1.904112 g / cm^3
# Si number density = 19.084559 Si / 1000 Ang^3
#
#
#
# Elastic Constant Matrix: (Units=GPa)
#
#
# Indices 1 2 3 4 5 6 
#
# 1 170.4169 67.9009 94.1979 0.0000 0.0000 0.0000
# 2 67.9009 86.0997 56.3093 0.0000 0.0000 0.0000
# 3 94.1979 56.3093 160.9758 0.0000 0.0000 0.0000
# 4 0.0000 0.0000 0.0000 30.4926 0.0000 0.0000
# 5 0.0000 0.0000 0.0000 0.0000-5994.3374 0.0000
# 6 0.0000 0.0000 0.0000 0.0000 0.0000 29.8268
#
#
#
# Elastic Compliance Matrix: (Units=1/GPa)
#
#
# Indices 1 2 3 4 5 6 
#
# 1 0.010320 -0.005432 -0.004139 0.000000 0.000000 0.000000
# 2 -0.005432 0.017919 -0.003089 0.000000 0.000000 0.000000
# 3 -0.004139 -0.003089 0.009715 0.000000 0.000000 0.000000
# 4 0.000000 0.000000 0.000000 0.032795 0.000000 0.000000
# 5 0.000000 0.000000 0.000000 0.000000 -0.000167 0.000000
# 6 0.000000 0.000000 0.000000 0.000000 0.000000 0.033527
#
#
# Mechanical properties :
#
#
# Convention : Reuss Voigt Hill
#
# Bulk Modulus (GPa) = 79.15698 94.92320 87.04009
# Shear Modulus (GPa) = 37.41408 -1173.53133 -568.05862
#
# Velocity S-wave (km/s) = 4.43249 -24.82431 -17.27135
# Velocity P-wave (km/s) = 8.23182 27.78157 18.76236
#
# Compressibility (1/GPa) = 0.01263313
#
# Stress axis : x y z
#
# Youngs Moduli (GPa) = 96.89940 55.80782 102.93654
#
# Poissons Ratio (x) = 0.30314 0.42604
# Poissons Ratio (y) = 0.52634 0.31801
# Poissons Ratio (z) = 0.40105 0.17241
#
# Static dielectric constant tensor:
#      x y z
#    x 1.667380 0.000000 0.000000 
#    y 0.000000 1.648900 0.000000 
#    z 0.000000 0.000000 1.656640 
# 
# From -- ./inp_files/62209.got.cif
#   From: 2010.05.17/outbox.cif.g08.bks.cpg/sg65_32_cif.got.tgz:62209.got - 2010.06.03 17:01:31.
