data_PCOD9493337
_publ_section_title
;
Structure prediction by ZEFSAII (Michael W. Deem and Ramdas Pophale) SiO2 
 PCOD9493337
Probable space group: C M M M
;
_chemical_formula_sum "Si O2"
_cell_formula_units_Z 88
_cell_length_a 10.050552
_cell_length_b 22.632571
_cell_length_c 22.722378
_cell_angle_alpha 90.000000
_cell_angle_beta 90.000000
_cell_angle_gamma 90.000000
_cell_volume 5168.655500
_symmetry_space_group_name_H-M "C M M M"
_symmetry_group_IT_number 65
_symmetry_cell_setting 'orthorhombic'
loop_
_space_group_symop_operation_xyz
x,y,z
-x,-y,z
x,-y,-z
-x,y,-z
-x,-y,-z
x,y,-z
-x,y,z
x,-y,z
1/2+x,1/2+y,z
1/2-x,1/2-y,z
1/2+x,1/2-y,-z
1/2-x,1/2+y,-z
1/2-x,1/2-y,-z
1/2+x,1/2+y,-z
1/2-x,1/2+y,z
1/2+x,1/2-y,z
loop_
_atom_site_type_symbol
_atom_site_label
_atom_site_fract_x
_atom_site_fract_y
_atom_site_fract_z
Si Si1 0.662189 0.068576 0.628089
Si Si2 0.654231 0.928061 0.500000
Si Si3 0.500000 0.141514 0.068934
Si Si4 0.000000 0.227198 0.115929
Si Si5 0.250000 0.750000 0.198644
Si Si6 0.500000 0.597837 0.068821
Si Si7 0.727477 0.067647 0.867613
Si Si8 0.160268 0.627914 0.749203
O O1 0.500000 0.069165 0.625424
O O2 0.711746 0.089190 0.563619
O O3 0.700793 0.106951 0.684285
O O4 0.700600 0.000000 0.636965
O O5 0.500000 0.908710 0.500000
O O6 0.653339 0.000000 0.500000
O O7 0.500000 0.211420 0.080602
O O8 0.372782 0.111870 0.099483
O O9 0.500000 0.129148 0.000000
O O10 0.869977 0.228018 0.157208
O O11 0.000000 0.168938 0.076465
O O12 0.198802 0.695092 0.236784
O O13 0.630055 0.574072 0.101845
O O14 0.500000 0.582175 0.000000
O O15 0.726204 0.087661 0.799701
O O16 0.681317 0.000000 0.872385
O O17 0.000000 0.621374 0.754927
#
# Coordination Sequence:
#
# PCOD9493337 Si02
#       8
#    16   8   8   8   8   8  16  16
#     4   8  14  24  44  74 108 140 172 210 257 311
#     4   7  10  20  38  67 106 143 171 203 250 305
#     4  12  24  40  61  83 102 130 172 225 275 320
#     4  12  21  42  60  80 100 133 176 228 270 311
#     4  12  20  36  59  75 106 132 174 228 272 312
#     4  12  26  42  59  77 104 142 176 217 271 326
#     4  12  24  39  57  79 110 140 172 215 267 331
#     4  11  20  34  54  80 104 137 180 221 269 311
#
# _framework density 17.025704999999999
#
# number of rings (size 3 to 8) (size 9 to 14) (size 15 to 20)
#    0.000    1.364    5.455    3.000    0.000    2.909 
#    0.000    2.727    0.000    0.545    0.000    0.000 
#    0.000    2.182    0.000   15.182    0.000    4.636 
#
# Total GULP energy -245544.597259 kJ/mol
# GULP energy per Si atom -5580.559029 kJ/mol
# Density = 1.698695 g / cm^3
# Si number density = 17.025705 Si / 1000 Ang^3
#
#
#
# Elastic Constant Matrix: (Units=GPa)
#
#
# Indices 1 2 3 4 5 6 
#
# 1 59.2643 -7.1627 25.4828 0.0000 0.0000 0.0000
# 2 -7.1627 66.4636 23.7994 0.0000 0.0000 0.0000
# 3 25.4828 23.7994 158.1809 0.0000 0.0000 0.0000
# 4 0.0000 0.0000 0.0000 29.3487 0.0000 0.0000
# 5 0.0000 0.0000 0.0000 0.0000 -3.5745 0.0000
# 6 0.0000 0.0000 0.0000 0.0000 0.0000 -35.7466
#
#
#
# Elastic Compliance Matrix: (Units=1/GPa)
#
#
# Indices 1 2 3 4 5 6 
#
# 1 0.018784 0.003285 -0.003520 0.000000 0.000000 0.000000
# 2 0.003285 0.016477 -0.003008 0.000000 0.000000 0.000000
# 3 -0.003520 -0.003008 0.007342 0.000000 0.000000 0.000000
# 4 0.000000 0.000000 0.000000 0.034073 0.000000 0.000000
# 5 0.000000 0.000000 0.000000 0.000000 -0.279759 0.000000
# 6 0.000000 0.000000 0.000000 0.000000 0.000000 -0.027975
#
#
# Mechanical properties :
#
#
# Convention : Reuss Voigt Hill
#
# Bulk Modulus (GPa) = 27.68890 40.90530 34.29710
# Shear Modulus (GPa) = -23.52586 14.12482 -4.70052
#
# Velocity S-wave (km/s) = -3.72127 2.88343 -1.66338
# Velocity P-wave (km/s) = 1.47156 5.92987 4.06189
#
# Compressibility (1/GPa) = 0.03611556
#
# Stress axis : x y z
#
# Youngs Moduli (GPa) = 53.23592 60.69048 136.20968
#
# Poissons Ratio (x) = -0.19937 0.47951
# Poissons Ratio (y) = -0.17488 0.40976
# Poissons Ratio (z) = 0.18741 0.18257
#
# Static dielectric constant tensor:
#      x y z
#    x 1.576250 0.000000 0.000000 
#    y 0.000000 1.569770 0.000000 
#    z 0.000000 0.000000 1.588880 
# 
# From -- ./inp_files/67735.got.cif
#   From: 2010.05.17/outbox.cif.g08.bks.cpg/sg65_34_cif.got.tgz:67735.got - 2010.06.03 17:01:31.
