data_PCOD9493082
_publ_section_title
;
Structure prediction by ZEFSAII (Michael W. Deem and Ramdas Pophale) SiO2 
 PCOD9493082
Probable space group: C M M M
;
_chemical_formula_sum "Si O2"
_cell_formula_units_Z 112
_cell_length_a 23.815222
_cell_length_b 14.409972
_cell_length_c 15.735434
_cell_angle_alpha 90.000000
_cell_angle_beta 90.000000
_cell_angle_gamma 90.000000
_cell_volume 5400.034033
_symmetry_space_group_name_H-M "C M M M"
_symmetry_group_IT_number 65
_symmetry_cell_setting 'orthorhombic'
loop_
_space_group_symop_operation_xyz
x,y,z
-x,-y,z
x,-y,-z
-x,y,-z
-x,-y,-z
x,y,-z
-x,y,z
x,-y,z
1/2+x,1/2+y,z
1/2-x,1/2-y,z
1/2+x,1/2-y,-z
1/2-x,1/2+y,-z
1/2-x,1/2-y,-z
1/2+x,1/2+y,-z
1/2-x,1/2+y,z
1/2+x,1/2-y,z
loop_
_atom_site_type_symbol
_atom_site_label
_atom_site_fract_x
_atom_site_fract_y
_atom_site_fract_z
Si Si1 0.881462 0.887468 0.222898
Si Si2 0.647549 0.112324 0.094226
Si Si3 0.399850 0.109536 0.402788
Si Si4 0.741087 0.611567 0.822889
Si Si5 0.348598 0.602677 0.588094
Si Si6 0.770154 0.648462 0.629745
Si Si7 0.436714 0.201771 0.772010
O O1 0.824516 0.863206 0.170832
O O2 0.865454 0.861465 0.320446
O O3 0.929206 0.811842 0.207361
O O4 0.891867 0.000000 0.216410
O O5 0.712472 0.141190 0.109740
O O6 0.608531 0.151111 0.168464
O O7 0.646095 0.000000 0.098309
O O8 0.629199 0.141229 0.000000
O O9 0.418095 0.130881 0.500000
O O10 0.332133 0.122759 0.398278
O O11 0.424905 0.171168 0.326118
O O12 0.411780 0.000000 0.387012
O O13 0.740164 0.500000 0.820817
O O14 0.765391 0.641881 0.731619
O O15 0.363675 0.652582 0.500000
O O16 0.374039 0.500000 0.585189
O O17 0.281720 0.592015 0.593049
O O18 0.750000 0.750000 0.603925
O O19 0.500000 0.173213 0.792374
#
# Coordination Sequence:
#
# PCOD9493082 Si02
#       7
#    16  16  16  16  16  16  16
#     4   9  20  38  61  88 121 160 199 248 308 367
#     4  10  22  41  67  97 125 154 192 242 301 365
#     4  11  23  38  57  83 119 164 211 256 306 365
#     4   9  17  33  58  86 119 152 182 228 297 367
#     4   9  17  29  47  75 110 148 191 238 291 349
#     4  11  19  27  48  80 118 157 194 235 289 356
#     4  12  26  42  62  86 118 163 213 261 304 351
#
# _framework density 20.740611000000001
#
# number of rings (size 3 to 8) (size 9 to 14) (size 15 to 20)
#    0.000    1.857    1.429    4.714    0.000    6.000 
#    0.000    2.857    0.000    1.286    0.000    4.000 
#    0.000    0.000    0.000    0.000    0.000    0.000 
#
# Total GULP energy -312066.026234 kJ/mol
# GULP energy per Si atom -5572.607611 kJ/mol
# Density = 2.069340 g / cm^3
# Si number density = 20.740611 Si / 1000 Ang^3
#
#
#
# Elastic Constant Matrix: (Units=GPa)
#
#
# Indices 1 2 3 4 5 6 
#
# 1 55.9352 18.1292 14.5878 0.0000 0.0000 0.0000
# 2 18.1292 87.5257 9.1650 0.0000 0.0000 0.0000
# 3 14.5878 9.1650 72.8673 0.0000 0.0000 0.0000
# 4 0.0000 0.0000 0.0000 22.4663 0.0000 0.0000
# 5 0.0000 0.0000 0.0000 0.0000 -1.3948 0.0000
# 6 0.0000 0.0000 0.0000 0.0000 0.0000 12.4660
#
#
#
# Elastic Compliance Matrix: (Units=1/GPa)
#
#
# Indices 1 2 3 4 5 6 
#
# 1 0.020024 -0.003777 -0.003534 0.000000 0.000000 0.000000
# 2 -0.003777 0.012290 -0.000790 0.000000 0.000000 0.000000
# 3 -0.003534 -0.000790 0.014530 0.000000 0.000000 0.000000
# 4 0.000000 0.000000 0.000000 0.044511 0.000000 0.000000
# 5 0.000000 0.000000 0.000000 0.000000 -0.716942 0.000000
# 6 0.000000 0.000000 0.000000 0.000000 0.000000 0.080218
#
#
# Mechanical properties :
#
#
# Convention : Reuss Voigt Hill
#
# Bulk Modulus (GPa) = 32.63386 33.34358 32.98872
# Shear Modulus (GPa) = -9.63478 18.33724 4.35123
#
# Velocity S-wave (km/s) = -2.15765 2.97665 1.44999
# Velocity P-wave (km/s) = 3.09211 5.28444 4.32934
#
# Compressibility (1/GPa) = 0.03064302
#
# Stress axis : x y z
#
# Youngs Moduli (GPa) = 49.94082 81.36478 68.82169
#
# Poissons Ratio (x) = 0.30736 0.24319
# Poissons Ratio (y) = 0.18865 0.05434
# Poissons Ratio (z) = 0.17647 0.06425
#
# Static dielectric constant tensor:
#      x y z
#    x 1.711410 0.000000 0.000000 
#    y 0.000000 1.702760 0.000000 
#    z 0.000000 0.000000 1.771210 
# 
# From -- ./inp_files/45765.got.cif
#   From: 2010.05.17/outbox.cif.g08.bks.cpg/sg65_23_cif.got.tgz:45765.got - 2010.06.03 17:01:31.
