data_PCOD9493994
_publ_section_title
;
Structure prediction by ZEFSAII (Michael W. Deem and Ramdas Pophale) SiO2 
 PCOD9493994
Probable space group: C M M M
;
_chemical_formula_sum "Si O2"
_cell_formula_units_Z 48
_cell_length_a 15.999145
_cell_length_b 8.781891
_cell_length_c 16.856386
_cell_angle_alpha 90.000000
_cell_angle_beta 90.000000
_cell_angle_gamma 90.000000
_cell_volume 2368.368546
_symmetry_space_group_name_H-M "C M M M"
_symmetry_group_IT_number 65
_symmetry_cell_setting 'orthorhombic'
loop_
_space_group_symop_operation_xyz
x,y,z
-x,-y,z
x,-y,-z
-x,y,-z
-x,-y,-z
x,y,-z
-x,y,z
x,-y,z
1/2+x,1/2+y,z
1/2-x,1/2-y,z
1/2+x,1/2-y,-z
1/2-x,1/2+y,-z
1/2-x,1/2-y,-z
1/2+x,1/2+y,-z
1/2-x,1/2+y,z
1/2+x,1/2-y,z
loop_
_atom_site_type_symbol
_atom_site_label
_atom_site_fract_x
_atom_site_fract_y
_atom_site_fract_z
Si Si1 0.156910 0.317639 0.000000
Si Si2 0.500000 0.677505 0.594966
Si Si3 0.901657 0.822015 0.836222
Si Si4 0.662419 0.818628 0.676950
O O1 0.250000 0.250000 0.000000
O O2 0.113235 0.255140 0.079106
O O3 0.158177 0.500000 0.000000
O O4 0.500000 0.500000 0.619838
O O5 0.500000 0.685000 0.500000
O O6 0.583116 0.756129 0.628648
O O7 0.851599 0.737849 0.767158
O O8 0.000000 0.813712 0.816586
O O9 0.877417 0.000000 0.839725
O O10 0.750000 0.750000 0.647531
O O11 0.664865 0.000000 0.673965
#
# Coordination Sequence:
#
# PCOD9493994 Si02
#       4
#     8   8  16  16
#     4  12  25  40  59  87 127 169 223 277 329 390
#     4  11  25  47  73 102 137 174 217 273 335 399
#     4  11  23  41  65  92 129 172 220 273 332 393
#     4  12  25  43  70 101 137 178 225 274 331 397
#
# _framework density 20.267115
#
# number of rings (size 3 to 8) (size 9 to 14) (size 15 to 20)
#    0.000    0.500    1.667    7.500    0.000    6.000 
#    0.000    0.000    0.000    0.000    0.000    0.000 
#    0.000    0.000    0.000    0.000    0.000    0.000 
#
# Total GULP energy -134434.634451 kJ/mol
# GULP energy per Si atom -5601.443102 kJ/mol
# Density = 2.022099 g / cm^3
# Si number density = 20.267115 Si / 1000 Ang^3
#
#
#
# Elastic Constant Matrix: (Units=GPa)
#
#
# Indices 1 2 3 4 5 6 
#
# 1 155.6131 89.4305 48.0613 0.0000 0.0000 0.0000
# 2 89.4305 233.4063 53.1827 0.0000 0.0000 0.0000
# 3 48.0613 53.1827 82.9546 0.0000 0.0000 0.0000
# 4 0.0000 0.0000 0.0000 31.3774 0.0000 0.0000
# 5 0.0000 0.0000 0.0000 0.0000 -1.8139 0.0000
# 6 0.0000 0.0000 0.0000 0.0000 0.0000 38.7484
#
#
#
# Elastic Compliance Matrix: (Units=1/GPa)
#
#
# Indices 1 2 3 4 5 6 
#
# 1 0.009047 -0.002661 -0.003536 0.000000 0.000000 0.000000
# 2 -0.002661 0.005800 -0.002177 0.000000 0.000000 0.000000
# 3 -0.003536 -0.002177 0.015499 0.000000 0.000000 0.000000
# 4 0.000000 0.000000 0.000000 0.031870 0.000000 0.000000
# 5 0.000000 0.000000 0.000000 0.000000 -0.551299 0.000000
# 6 0.000000 0.000000 0.000000 0.000000 0.000000 0.025807
#
#
# Mechanical properties :
#
#
# Convention : Reuss Voigt Hill
#
# Bulk Modulus (GPa) = 73.53363 94.81368 84.17366
# Shear Modulus (GPa) = -11.31234 32.41568 10.55167
#
# Velocity S-wave (km/s) = -2.36511 4.00362 2.28421
# Velocity P-wave (km/s) = 5.37612 8.26169 6.96987
#
# Compressibility (1/GPa) = 0.01359922
#
# Stress axis : x y z
#
# Youngs Moduli (GPa) = 110.52796 172.41735 64.52086
#
# Poissons Ratio (x) = 0.45879 0.22814
# Poissons Ratio (y) = 0.29410 0.14044
# Poissons Ratio (z) = 0.39082 0.37530
#
# Static dielectric constant tensor:
#      x y z
#    x 1.723680 0.000000 0.000000 
#    y 0.000000 1.675320 0.000000 
#    z 0.000000 0.000000 1.706630 
# 
# From -- ./inp_files/52284.got.cif
#   From: 2010.05.17/outbox.cif.g08.bks.cpg/sg65_27_cif.got.tgz:52284.got - 2010.06.03 17:01:31.
