data_PCOD9493896
_publ_section_title
;
Structure prediction by ZEFSAII (Michael W. Deem and Ramdas Pophale) SiO2 
 PCOD9493896
Probable space group: C M M M
;
_chemical_formula_sum "Si O2"
_cell_formula_units_Z 80
_cell_length_a 11.138483
_cell_length_b 17.938445
_cell_length_c 21.117152
_cell_angle_alpha 90.000000
_cell_angle_beta 90.000000
_cell_angle_gamma 90.000000
_cell_volume 4219.356155
_symmetry_space_group_name_H-M "C M M M"
_symmetry_group_IT_number 65
_symmetry_cell_setting 'orthorhombic'
loop_
_space_group_symop_operation_xyz
x,y,z
-x,-y,z
x,-y,-z
-x,y,-z
-x,-y,-z
x,y,-z
-x,y,z
x,-y,z
1/2+x,1/2+y,z
1/2-x,1/2-y,z
1/2+x,1/2-y,-z
1/2-x,1/2+y,-z
1/2-x,1/2-y,-z
1/2+x,1/2+y,-z
1/2-x,1/2+y,z
1/2+x,1/2-y,z
loop_
_atom_site_type_symbol
_atom_site_label
_atom_site_fract_x
_atom_site_fract_y
_atom_site_fract_z
Si Si1 0.238349 0.339103 0.073946
Si Si2 0.361473 0.690732 0.429937
Si Si3 0.500000 0.088725 0.286577
Si Si4 0.640131 0.416520 0.183824
Si Si5 0.749695 0.339249 0.305838
Si Si6 0.000000 0.589122 0.133911
O O1 0.250000 0.250000 0.079743
O O2 0.338785 0.376332 0.117449
O O3 0.115355 0.371139 0.103298
O O4 0.246461 0.358474 0.000000
O O5 0.356420 0.654849 0.500000
O O6 0.500000 0.719990 0.423723
O O7 0.250000 0.750000 0.430113
O O8 0.331734 0.643510 0.367333
O O9 0.617616 0.128125 0.314373
O O10 0.500000 0.099488 0.210030
O O11 0.500000 0.000000 0.298293
O O12 0.500000 0.420184 0.197008
O O13 0.691859 0.500000 0.180441
O O14 0.701029 0.373839 0.241328
O O15 0.750000 0.250000 0.297946
O O16 0.000000 0.500000 0.121301
#
# Coordination Sequence:
#
# PCOD9493896 Si02
#       6
#    16  16   8  16  16   8
#     4  11  25  41  62  90 121 156 201 259 316 372
#     4   9  19  35  58  92 134 173 214 266 322 378
#     4  11  24  41  63  95 131 168 210 266 327 385
#     4  11  24  40  60  86 120 162 204 251 312 382
#     4  11  23  36  65  93 125 163 213 265 316 369
#     4  11  23  42  67  91 118 160 209 258 310 375
#
# _framework density 18.960238
#
# number of rings (size 3 to 8) (size 9 to 14) (size 15 to 20)
#    0.000    1.400    2.000    2.700    8.400    2.400 
#    0.000    1.000    0.000    3.000    0.000    7.000 
#    0.000    0.000    0.000    0.000    0.000    0.000 
#
# Total GULP energy -223160.516407 kJ/mol
# GULP energy per Si atom -5579.012910 kJ/mol
# Density = 1.891708 g / cm^3
# Si number density = 18.960238 Si / 1000 Ang^3
#
#
#
# Elastic Constant Matrix: (Units=GPa)
#
#
# Indices 1 2 3 4 5 6 
#
# 1 126.9165 33.5375 30.8100 0.0000 0.0000 0.0000
# 2 33.5375 90.2695 49.0437 0.0000 0.0000 0.0000
# 3 30.8100 49.0437 111.3299 0.0000 0.0000 0.0000
# 4 0.0000 0.0000 0.0000 -18.5583 0.0000 0.0000
# 5 0.0000 0.0000 0.0000 0.0000 40.1772 0.0000
# 6 0.0000 0.0000 0.0000 0.0000 0.0000 26.9876
#
#
#
# Elastic Compliance Matrix: (Units=1/GPa)
#
#
# Indices 1 2 3 4 5 6 
#
# 1 0.008882 -0.002583 -0.001320 0.000000 0.000000 0.000000
# 2 -0.002583 0.015314 -0.006032 0.000000 0.000000 0.000000
# 3 -0.001320 -0.006032 0.012005 0.000000 0.000000 0.000000
# 4 0.000000 0.000000 0.000000 -0.053884 0.000000 0.000000
# 5 0.000000 0.000000 0.000000 0.000000 0.024890 0.000000
# 6 0.000000 0.000000 0.000000 0.000000 0.000000 0.037054
#
#
# Mechanical properties :
#
#
# Convention : Reuss Voigt Hill
#
# Bulk Modulus (GPa) = 61.22903 61.69981 61.46442
# Shear Modulus (GPa) = 71.86554 24.06296 47.96425
#
# Velocity S-wave (km/s) = 6.16324 3.56635 5.03510
# Velocity P-wave (km/s) = 9.11103 7.04065 8.14192
#
# Compressibility (1/GPa) = 0.01633212
#
# Stress axis : x y z
#
# Youngs Moduli (GPa) = 112.58503 65.29777 83.29972
#
# Poissons Ratio (x) = 0.16864 0.10999
# Poissons Ratio (y) = 0.29076 0.50244
# Poissons Ratio (z) = 0.14866 0.39386
#
# Static dielectric constant tensor:
#      x y z
#    x 1.703870 0.000000 0.000000 
#    y 0.000000 1.640820 0.000000 
#    z 0.000000 0.000000 1.661790 
# 
# From -- ./inp_files/61374.got.cif
#   From: 2010.05.17/outbox.cif.g08.bks.cpg/sg65_31_cif.got.tgz:61374.got - 2010.06.03 17:01:31.
