data_PCOD9493102
_publ_section_title
;
Structure prediction by ZEFSAII (Michael W. Deem and Ramdas Pophale) SiO2 
 PCOD9493102
Probable space group: C M M M
;
_chemical_formula_sum "Si O2"
_cell_formula_units_Z 56
_cell_length_a 28.210389
_cell_length_b 11.345538
_cell_length_c 9.037470
_cell_angle_alpha 90.000000
_cell_angle_beta 90.000000
_cell_angle_gamma 90.000000
_cell_volume 2892.551088
_symmetry_space_group_name_H-M "C M M M"
_symmetry_group_IT_number 65
_symmetry_cell_setting 'orthorhombic'
loop_
_space_group_symop_operation_xyz
x,y,z
-x,-y,z
x,-y,-z
-x,y,-z
-x,-y,-z
x,y,-z
-x,y,z
x,-y,z
1/2+x,1/2+y,z
1/2-x,1/2-y,z
1/2+x,1/2-y,-z
1/2-x,1/2+y,-z
1/2-x,1/2-y,-z
1/2+x,1/2+y,-z
1/2-x,1/2+y,z
1/2+x,1/2-y,z
loop_
_atom_site_type_symbol
_atom_site_label
_atom_site_fract_x
_atom_site_fract_y
_atom_site_fract_z
Si Si1 0.553237 0.859198 0.330395
Si Si2 0.617351 0.304843 0.824619
Si Si3 0.443704 0.500000 0.329198
Si Si4 0.717773 0.364209 0.321667
O O1 0.559891 0.815684 0.500000
O O2 0.500000 0.821220 0.281994
O O3 0.596610 0.819407 0.229268
O O4 0.552362 0.000000 0.335680
O O5 0.577692 0.389962 0.756512
O O6 0.666995 0.341181 0.752544
O O7 0.620339 0.313977 0.000000
O O8 0.500000 0.500000 0.327417
O O9 0.427555 0.500000 0.500000
O O10 0.713226 0.361793 0.500000
O O11 0.733574 0.500000 0.283325
O O12 0.750000 0.250000 0.280581
#
# Coordination Sequence:
#
# PCOD9493102 Si02
#       4
#    16  16   8  16
#     4   9  19  37  60  85 117 162 212 255 297 359
#     4  12  24  37  58  90 126 160 196 249 318 379
#     4  11  23  39  61  87 119 163 211 255 300 361
#     4  10  22  42  67  91 118 159 212 266 317 378
#
# _framework density 19.360071999999999
#
# number of rings (size 3 to 8) (size 9 to 14) (size 15 to 20)
#    0.000    1.571    1.429    4.714    0.000    7.429 
#    0.000    4.286    0.000    0.000    0.000    0.000 
#    0.000    0.000    0.000    0.000    0.000    0.000 
#
# Total GULP energy -156209.394667 kJ/mol
# GULP energy per Si atom -5578.906952 kJ/mol
# Density = 1.931601 g / cm^3
# Si number density = 19.360072 Si / 1000 Ang^3
#
#
#
# Elastic Constant Matrix: (Units=GPa)
#
#
# Indices 1 2 3 4 5 6 
#
# 1 85.4673 53.6247 40.0285 0.0000 0.0000 0.0000
# 2 53.6247 107.6539 35.1582 0.0000 0.0000 0.0000
# 3 40.0285 35.1582 47.6878 0.0000 0.0000 0.0000
# 4 0.0000 0.0000 0.0000 -19.9352 0.0000 0.0000
# 5 0.0000 0.0000 0.0000 0.0000 -21.2448 0.0000
# 6 0.0000 0.0000 0.0000 0.0000 0.0000 16.4072
#
#
#
# Elastic Compliance Matrix: (Units=1/GPa)
#
#
# Indices 1 2 3 4 5 6 
#
# 1 0.022344 -0.006592 -0.013895 0.000000 0.000000 0.000000
# 2 -0.006592 0.014180 -0.004921 0.000000 0.000000 0.000000
# 3 -0.013895 -0.004921 0.036261 0.000000 0.000000 0.000000
# 4 0.000000 0.000000 0.000000 -0.050162 0.000000 0.000000
# 5 0.000000 0.000000 0.000000 0.000000 -0.047070 0.000000
# 6 0.000000 0.000000 0.000000 0.000000 0.000000 0.060949
#
#
# Mechanical properties :
#
#
# Convention : Reuss Voigt Hill
#
# Bulk Modulus (GPa) = 45.51946 55.38130 50.45038
# Shear Modulus (GPa) = 52.83104 2.51194 27.67149
#
# Velocity S-wave (km/s) = 5.22952 1.14031 3.78472
# Velocity P-wave (km/s) = 7.74771 5.51378 6.72416
#
# Compressibility (1/GPa) = 0.02196863
#
# Stress axis : x y z
#
# Youngs Moduli (GPa) = 44.75385 70.52298 27.57765
#
# Poissons Ratio (x) = 0.46490 0.38320
# Poissons Ratio (y) = 0.29503 0.13570
# Poissons Ratio (z) = 0.62188 0.34703
#
# Static dielectric constant tensor:
#      x y z
#    x 1.648300 0.000000 0.000000 
#    y 0.000000 1.522080 0.000000 
#    z 0.000000 0.000000 1.645100 
# 
# From -- ./inp_files/4409.got.cif
#   From: 2010.05.17/outbox.cif.g08.bks.cpg/sg65_3_cif.got.tgz:4409.got - 2010.06.03 17:01:31.
