data_PCOD9493283
_publ_section_title
;
Structure prediction by ZEFSAII (Michael W. Deem and Ramdas Pophale) SiO2 
 PCOD9493283
Probable space group: C M M M
;
_chemical_formula_sum "Si O2"
_cell_formula_units_Z 64
_cell_length_a 10.072686
_cell_length_b 23.389166
_cell_length_c 17.804384
_cell_angle_alpha 90.000000
_cell_angle_beta 90.000000
_cell_angle_gamma 90.000000
_cell_volume 4194.565538
_symmetry_space_group_name_H-M "C M M M"
_symmetry_group_IT_number 65
_symmetry_cell_setting 'orthorhombic'
loop_
_space_group_symop_operation_xyz
x,y,z
-x,-y,z
x,-y,-z
-x,y,-z
-x,-y,-z
x,y,-z
-x,y,z
x,-y,z
1/2+x,1/2+y,z
1/2-x,1/2-y,z
1/2+x,1/2-y,-z
1/2-x,1/2+y,-z
1/2-x,1/2-y,-z
1/2+x,1/2+y,-z
1/2-x,1/2+y,z
1/2+x,1/2-y,z
loop_
_atom_site_type_symbol
_atom_site_label
_atom_site_fract_x
_atom_site_fract_y
_atom_site_fract_z
Si Si1 0.763389 0.119766 0.158402
Si Si2 0.843021 0.500000 0.410278
Si Si3 0.500000 0.691255 0.088262
Si Si4 0.500000 0.171773 0.910315
Si Si5 0.344064 0.500000 0.910362
Si Si6 0.845649 0.064707 0.308234
O O1 0.625800 0.146076 0.132317
O O2 0.780567 0.057897 0.120206
O O3 0.790141 0.107940 0.246403
O O4 0.874164 0.162310 0.126684
O O5 0.836640 0.500000 0.500000
O O6 0.758965 0.446472 0.375723
O O7 0.000000 0.500000 0.388136
O O8 0.500000 0.759472 0.095027
O O9 0.500000 0.676585 0.000000
O O10 0.500000 0.157695 0.000000
O O11 0.500000 0.500000 0.890106
O O12 0.334605 0.500000 0.000000
O O13 0.000000 0.077561 0.328958
O O14 0.849652 0.000000 0.273863
#
# Coordination Sequence:
#
# PCOD9493283 Si02
#       6
#    16   8   8   8   8  16
#     4  12  21  35  55  75 103 138 179 227 278 329
#     4   9  18  31  53  84 119 149 166 191 247 329
#     4  11  22  39  57  69  97 145 194 238 274 320
#     4  11  26  39  49  73 103 141 190 242 290 314
#     4  11  19  29  49  72  91 125 170 214 267 322
#     4   9  18  32  51  76 107 143 168 207 256 314
#
# _framework density 15.257838
#
# number of rings (size 3 to 8) (size 9 to 14) (size 15 to 20)
#    0.750    0.750    3.750    3.000    1.750    3.500 
#    0.000    1.250    0.000    0.000    0.000    0.000 
#    0.000    6.000    0.000    0.000    0.000    0.000 
#
# Total GULP energy -178210.510628 kJ/mol
# GULP energy per Si atom -5569.078457 kJ/mol
# Density = 1.522311 g / cm^3
# Si number density = 15.257838 Si / 1000 Ang^3
#
#
#
# Elastic Constant Matrix: (Units=GPa)
#
#
# Indices 1 2 3 4 5 6 
#
# 1 166.8443 43.7003 65.4497 0.0000 0.0000 0.0000
# 2 43.7003 59.1724 29.9767 0.0000 0.0000 0.0000
# 3 65.4497 29.9767 94.3063 0.0000 0.0000 0.0000
# 4 0.0000 0.0000 0.0000 16.0276 0.0000 0.0000
# 5 0.0000 0.0000 0.0000 0.0000 26.7588 0.0000
# 6 0.0000 0.0000 0.0000 0.0000 0.0000 15.3338
#
#
#
# Elastic Compliance Matrix: (Units=1/GPa)
#
#
# Indices 1 2 3 4 5 6 
#
# 1 0.009020 -0.004160 -0.004938 0.000000 0.000000 0.000000
# 2 -0.004160 0.022062 -0.004126 0.000000 0.000000 0.000000
# 3 -0.004938 -0.004126 0.015342 0.000000 0.000000 0.000000
# 4 0.000000 0.000000 0.000000 0.062392 0.000000 0.000000
# 5 0.000000 0.000000 0.000000 0.000000 0.037371 0.000000
# 6 0.000000 0.000000 0.000000 0.000000 0.000000 0.065215
#
#
# Mechanical properties :
#
#
# Convention : Reuss Voigt Hill
#
# Bulk Modulus (GPa) = 50.05671 66.50849 58.28260
# Shear Modulus (GPa) = 20.44911 23.70380 22.07645
#
# Velocity S-wave (km/s) = 3.66490 3.94578 3.80793
# Velocity P-wave (km/s) = 7.12650 8.02766 7.59047
#
# Compressibility (1/GPa) = 0.01997734
#
# Stress axis : x y z
#
# Youngs Moduli (GPa) = 110.86158 45.32639 65.18053
#
# Poissons Ratio (x) = 0.18857 0.32185
# Poissons Ratio (y) = 0.46121 0.26891
# Poissons Ratio (z) = 0.54741 0.18700
#
# Static dielectric constant tensor:
#      x y z
#    x 1.381030 0.000000 0.000000 
#    y 0.000000 1.487060 0.000000 
#    z 0.000000 0.000000 1.509840 
# 
# From -- ./inp_files/59174.got.cif
#   From: 2010.05.17/outbox.cif.g08.bks.cpg/sg65_30_cif.got.tgz:59174.got - 2010.06.03 17:01:31.
