data_PCOD9493136
_publ_section_title
;
Structure prediction by ZEFSAII (Michael W. Deem and Ramdas Pophale) SiO2 
 PCOD9493136
Probable space group: C M M M
;
_chemical_formula_sum "Si O2"
_cell_formula_units_Z 72
_cell_length_a 28.907214
_cell_length_b 14.933695
_cell_length_c 9.524169
_cell_angle_alpha 90.000000
_cell_angle_beta 90.000000
_cell_angle_gamma 90.000000
_cell_volume 4111.502965
_symmetry_space_group_name_H-M "C M M M"
_symmetry_group_IT_number 65
_symmetry_cell_setting 'orthorhombic'
loop_
_space_group_symop_operation_xyz
x,y,z
-x,-y,z
x,-y,-z
-x,y,-z
-x,-y,-z
x,y,-z
-x,y,z
x,-y,z
1/2+x,1/2+y,z
1/2-x,1/2-y,z
1/2+x,1/2-y,-z
1/2-x,1/2+y,-z
1/2-x,1/2-y,-z
1/2+x,1/2+y,-z
1/2-x,1/2+y,z
1/2+x,1/2-y,z
loop_
_atom_site_type_symbol
_atom_site_label
_atom_site_fract_x
_atom_site_fract_y
_atom_site_fract_z
Si Si1 0.133971 0.328842 0.833089
Si Si2 0.947372 0.392410 0.655418
Si Si3 0.630488 0.646336 0.666232
Si Si4 0.803408 0.500000 0.168863
Si Si5 0.709565 0.500000 0.338298
Si Si6 0.554180 0.500000 0.670604
O O1 0.083741 0.360164 0.781526
O O2 0.139981 0.235312 0.753735
O O3 0.168541 0.409789 0.790880
O O4 0.136924 0.317854 0.000000
O O5 0.929665 0.364722 0.500000
O O6 0.947903 0.500000 0.656298
O O7 0.000000 0.360518 0.667195
O O8 0.624890 0.665567 0.500000
O O9 0.675373 0.583686 0.681765
O O10 0.585207 0.587385 0.710817
O O11 0.753280 0.500000 0.237896
O O12 0.800096 0.500000 0.000000
O O13 0.725720 0.500000 0.500000
O O14 0.500000 0.500000 0.716173
O O15 0.553869 0.500000 0.500000
#
# Coordination Sequence:
#
# PCOD9493136 Si02
#       6
#    16  16  16   8   8   8
#     4  11  22  36  53  79 113 148 183 221 271 327
#     4   9  18  33  53  76 103 139 182 223 262 308
#     4   9  19  36  57  83 111 138 177 227 274 325
#     4  10  23  39  54  75 108 146 184 223 270 333
#     4   9  20  39  60  80 104 137 180 232 286 330
#     4   8  15  32  59  85 109 140 175 216 268 320
#
# _framework density 17.511845000000001
#
# number of rings (size 3 to 8) (size 9 to 14) (size 15 to 20)
#    0.000    2.556    1.111    2.667    0.000    4.889 
#    0.000    9.444    0.000    0.667    0.000    0.000 
#    0.000    0.000    0.000    0.000    0.000    0.000 
#
# Total GULP energy -200572.388485 kJ/mol
# GULP energy per Si atom -5571.455236 kJ/mol
# Density = 1.747199 g / cm^3
# Si number density = 17.511845 Si / 1000 Ang^3
#
#
#
# Elastic Constant Matrix: (Units=GPa)
#
#
# Indices 1 2 3 4 5 6 
#
# 1 96.2416 57.8695 43.8707 0.0000 0.0000 0.0000
# 2 57.8695 132.6629 57.9212 0.0000 0.0000 0.0000
# 3 43.8707 57.9212 50.6125 0.0000 0.0000 0.0000
# 4 0.0000 0.0000 0.0000 28.6362 0.0000 0.0000
# 5 0.0000 0.0000 0.0000 0.0000 -13.7605 0.0000
# 6 0.0000 0.0000 0.0000 0.0000 0.0000 -6.1108
#
#
#
# Elastic Compliance Matrix: (Units=1/GPa)
#
#
# Indices 1 2 3 4 5 6 
#
# 1 0.017443 -0.002014 -0.012815 0.000000 0.000000 0.000000
# 2 -0.002014 0.015298 -0.015761 0.000000 0.000000 0.000000
# 3 -0.012815 -0.015761 0.048903 0.000000 0.000000 0.000000
# 4 0.000000 0.000000 0.000000 0.034921 0.000000 0.000000
# 5 0.000000 0.000000 0.000000 0.000000 -0.072672 0.000000
# 6 0.000000 0.000000 0.000000 0.000000 0.000000 -0.163645
#
#
# Mechanical properties :
#
#
# Convention : Reuss Voigt Hill
#
# Bulk Modulus (GPa) = 48.86641 66.53776 57.70208
# Shear Modulus (GPa) = -96.61791 9.74334 -43.43729
#
# Velocity S-wave (km/s) = -7.43590 2.36134 -4.98582
# Velocity P-wave (km/s) = 6.76448 6.74633 0.35020
#
# Compressibility (1/GPa) = 0.02046395
#
# Stress axis : x y z
#
# Youngs Moduli (GPa) = 57.32980 65.36867 20.44857
#
# Poissons Ratio (x) = 0.13164 0.26204
# Poissons Ratio (y) = 0.11545 0.32230
# Poissons Ratio (z) = 0.73467 1.03030
#
# Static dielectric constant tensor:
#      x y z
#    x 1.592240 0.000000 0.000000 
#    y 0.000000 2.081760 0.000000 
#    z 0.000000 0.000000 1.582060 
# 
# From -- ./inp_files/7352.got.cif
#   From: 2010.05.17/outbox.cif.g08.bks.cpg/sg65_4_cif.got.tgz:7352.got - 2010.06.03 17:01:31.
