data_PCOD9493372
_publ_section_title
;
Structure prediction by ZEFSAII (Michael W. Deem and Ramdas Pophale) SiO2 
 PCOD9493372
Probable space group: C M M M
;
_chemical_formula_sum "Si O2"
_cell_formula_units_Z 96
_cell_length_a 24.896794
_cell_length_b 24.948272
_cell_length_c 7.799912
_cell_angle_alpha 90.000000
_cell_angle_beta 90.000000
_cell_angle_gamma 90.000000
_cell_volume 4844.774852
_symmetry_space_group_name_H-M "C M M M"
_symmetry_group_IT_number 65
_symmetry_cell_setting 'orthorhombic'
loop_
_space_group_symop_operation_xyz
x,y,z
-x,-y,z
x,-y,-z
-x,y,-z
-x,-y,-z
x,y,-z
-x,y,z
x,-y,z
1/2+x,1/2+y,z
1/2-x,1/2-y,z
1/2+x,1/2-y,-z
1/2-x,1/2+y,-z
1/2-x,1/2-y,-z
1/2+x,1/2+y,-z
1/2-x,1/2+y,z
1/2+x,1/2-y,z
loop_
_atom_site_type_symbol
_atom_site_label
_atom_site_fract_x
_atom_site_fract_y
_atom_site_fract_z
Si Si1 0.647723 0.060675 0.709466
Si Si2 0.436306 0.560891 0.299034
Si Si3 0.439397 0.270006 0.205362
Si Si4 0.229671 0.060159 0.294925
Si Si5 0.357611 0.353756 0.189212
Si Si6 0.939722 0.645817 0.707525
O O1 0.647835 0.062198 0.500000
O O2 0.709267 0.069745 0.765549
O O3 0.605818 0.105156 0.769566
O O4 0.632426 0.000000 0.758635
O O5 0.421830 0.569105 0.500000
O O6 0.500000 0.566528 0.284321
O O7 0.422194 0.500000 0.254983
O O8 0.405429 0.602964 0.187294
O O9 0.500000 0.284205 0.270720
O O10 0.389031 0.304106 0.276875
O O11 0.431282 0.207096 0.236845
O O12 0.440472 0.279389 0.000000
O O13 0.231309 0.056164 0.500000
O O14 0.191229 0.110280 0.257703
O O15 0.212613 0.000000 0.232596
O O16 0.341111 0.335915 0.000000
O O17 0.938935 0.645187 0.500000
O O18 0.000000 0.629986 0.762661
#
# Coordination Sequence:
#
# PCOD9493372 Si02
#       6
#    16  16  16  16  16  16
#     4   8  15  30  52  77 104 130 154 186 234 290
#     4   9  18  31  45  63  89 120 154 196 248 301
#     4   9  19  35  50  65  93 132 165 195 240 293
#     4   9  18  33  51  69  94 131 167 196 235 290
#     4  11  21  31  46  68  92 123 166 210 247 281
#     4   9  17  30  52  81 104 122 153 196 237 281
#
# _framework density 19.815162000000001
#
# number of rings (size 3 to 8) (size 9 to 14) (size 15 to 20)
#    0.000    2.833    0.000    3.000    0.000    5.333 
#    0.000    5.833    0.000    6.500    0.000    2.333 
#    0.000    0.000    0.000    0.000    0.000    0.000 
#
# Total GULP energy -267418.380988 kJ/mol
# GULP energy per Si atom -5571.216271 kJ/mol
# Density = 1.977006 g / cm^3
# Si number density = 19.815162 Si / 1000 Ang^3
#
#
#
# Elastic Constant Matrix: (Units=GPa)
#
#
# Indices 1 2 3 4 5 6 
#
# 1 131.7731 97.5617 11.2222 0.0000 0.0000 0.0000
# 2 97.5617 115.3276 6.6149 0.0000 0.0000 0.0000
# 3 11.2222 6.6149 17.9001 0.0000 0.0000 0.0000
# 4 0.0000 0.0000 0.0000 26.4159 0.0000 0.0000
# 5 0.0000 0.0000 0.0000 0.0000 93.5832 0.0000
# 6 0.0000 0.0000 0.0000 0.0000 0.0000 39.9698
#
#
#
# Elastic Compliance Matrix: (Units=1/GPa)
#
#
# Indices 1 2 3 4 5 6 
#
# 1 0.021082 -0.017446 -0.006770 0.000000 0.000000 0.000000
# 2 -0.017446 0.023296 0.002329 0.000000 0.000000 0.000000
# 3 -0.006770 0.002329 0.059249 0.000000 0.000000 0.000000
# 4 0.000000 0.000000 0.000000 0.037856 0.000000 0.000000
# 5 0.000000 0.000000 0.000000 0.000000 0.010686 0.000000
# 6 0.000000 0.000000 0.000000 0.000000 0.000000 0.025019
#
#
# Mechanical properties :
#
#
# Convention : Reuss Voigt Hill
#
# Bulk Modulus (GPa) = 16.70773 55.08869 35.89821
# Shear Modulus (GPa) = 20.75434 41.96725 31.36080
#
# Velocity S-wave (km/s) = 3.23986 4.60710 3.98259
# Velocity P-wave (km/s) = 4.73769 7.49414 6.26928
#
# Compressibility (1/GPa) = 0.05985252
#
# Stress axis : x y z
#
# Youngs Moduli (GPa) = 47.43370 42.92583 16.87785
#
# Poissons Ratio (x) = 0.74889 0.11426
# Poissons Ratio (y) = 0.82753 -0.03930
# Poissons Ratio (z) = 0.32112 -0.09996
#
# Static dielectric constant tensor:
#      x y z
#    x 1.716420 0.000000 0.000000 
#    y 0.000000 1.694930 0.000000 
#    z 0.000000 0.000000 1.782040 
# 
# From -- ./inp_files/14325.got.cif
#   From: 2010.05.17/outbox.cif.g08.bks.cpg/sg65_8_cif.got.tgz:14325.got - 2010.06.03 17:01:31.
