data_PCOD9493091
_publ_section_title
;
Structure prediction by ZEFSAII (Michael W. Deem and Ramdas Pophale) SiO2 
 PCOD9493091
Probable space group: C M M M
;
_chemical_formula_sum "Si O2"
_cell_formula_units_Z 42
_cell_length_a 8.980216
_cell_length_b 20.312698
_cell_length_c 12.398705
_cell_angle_alpha 90.000000
_cell_angle_beta 90.000000
_cell_angle_gamma 90.000000
_cell_volume 2261.677729
_symmetry_space_group_name_H-M "C M M M"
_symmetry_group_IT_number 65
_symmetry_cell_setting 'orthorhombic'
loop_
_space_group_symop_operation_xyz
x,y,z
-x,-y,z
x,-y,-z
-x,y,-z
-x,-y,-z
x,y,-z
-x,y,z
x,-y,z
1/2+x,1/2+y,z
1/2-x,1/2-y,z
1/2+x,1/2-y,-z
1/2-x,1/2+y,-z
1/2-x,1/2-y,-z
1/2+x,1/2+y,-z
1/2-x,1/2+y,z
1/2+x,1/2-y,z
loop_
_atom_site_type_symbol
_atom_site_label
_atom_site_fract_x
_atom_site_fract_y
_atom_site_fract_z
Si Si1 0.165064 0.362939 0.000000
Si Si2 0.176624 0.180504 0.780508
Si Si3 0.000000 0.500000 0.000000
Si Si4 0.326040 0.076407 0.628984
O O1 0.253158 0.341738 0.105871
O O2 0.000000 0.330183 0.000000
O O3 0.127226 0.440728 0.000000
O O4 0.250000 0.250000 0.750046
O O5 0.223325 0.125882 0.693357
O O6 0.000000 0.186816 0.788005
O O7 0.312056 0.083798 0.500000
O O8 0.500000 0.088530 0.657756
O O9 0.294595 0.000000 0.655590
#
# Coordination Sequence:
#
# PCOD9493091 Si02
#       4
#     8  16   2  16
#     4  10  22  42  64  90 120 157 200 238 298 360
#     4  12  25  40  61  90 124 164 203 251 304 360
#     4   8  24  40  70  92 114 172 188 248 296 366
#     4   9  20  40  65  90 120 160 203 250 305 363
#
# _framework density 18.570285999999999
#
# number of rings (size 3 to 8) (size 9 to 14) (size 15 to 20)
#    0.571    1.143    0.000    5.714    2.667    2.286 
#    0.000    2.857    0.000    0.000    0.000    0.000 
#    0.000    0.000    0.000    0.000    0.000    0.000 
#
# Total GULP energy -117049.567256 kJ/mol
# GULP energy per Si atom -5573.788917 kJ/mol
# Density = 1.852802 g / cm^3
# Si number density = 18.570286 Si / 1000 Ang^3
#
#
#
# Elastic Constant Matrix: (Units=GPa)
#
#
# Indices 1 2 3 4 5 6 
#
# 1 175.4884 84.7477 57.6617 0.0000 0.0000 0.0000
# 2 84.7477 103.3556 41.8218 0.0000 0.0000 0.0000
# 3 57.6617 41.8218 43.7973 0.0000 0.0000 0.0000
# 4 0.0000 0.0000 0.0000 17.2349 0.0000 0.0000
# 5 0.0000 0.0000 0.0000 0.0000 -16.8726 0.0000
# 6 0.0000 0.0000 0.0000 0.0000 0.0000 38.3186
#
#
#
# Elastic Compliance Matrix: (Units=1/GPa)
#
#
# Indices 1 2 3 4 5 6 
#
# 1 0.011672 -0.005464 -0.010149 0.000000 0.000000 0.000000
# 2 -0.005464 0.018325 -0.010306 0.000000 0.000000 0.000000
# 3 -0.010149 -0.010306 0.046036 0.000000 0.000000 0.000000
# 4 0.000000 0.000000 0.000000 0.058022 0.000000 0.000000
# 5 0.000000 0.000000 0.000000 0.000000 -0.059268 0.000000
# 6 0.000000 0.000000 0.000000 0.000000 0.000000 0.026097
#
#
# Mechanical properties :
#
#
# Convention : Reuss Voigt Hill
#
# Bulk Modulus (GPa) = 41.33026 76.78931 59.05978
# Shear Modulus (GPa) = 31.09718 16.96352 24.03035
#
# Velocity S-wave (km/s) = 4.09659 3.02566 3.60115
# Velocity P-wave (km/s) = 6.68434 7.32438 7.01167
#
# Compressibility (1/GPa) = 0.02419535
#
# Stress axis : x y z
#
# Youngs Moduli (GPa) = 85.67710 54.56935 21.72230
#
# Poissons Ratio (x) = 0.29814 0.22047
# Poissons Ratio (y) = 0.46810 0.22386
# Poissons Ratio (z) = 0.86957 0.56238
#
# Static dielectric constant tensor:
#      x y z
#    x 1.620850 0.000000 0.000000 
#    y 0.000000 1.626970 0.000000 
#    z 0.000000 0.000000 1.635890 
# 
# From -- ./inp_files/19873.got.cif
#   From: 2010.05.17/outbox.cif.g08.bks.cpg/sg65_10_cif.got.tgz:19873.got - 2010.06.03 17:01:31.
