data_PCOD9493052
_publ_section_title
;
Structure prediction by ZEFSAII (Michael W. Deem and Ramdas Pophale) SiO2 
 PCOD9493052
Probable space group: C M M M
;
_chemical_formula_sum "Si O2"
_cell_formula_units_Z 72
_cell_length_a 17.939226
_cell_length_b 22.758497
_cell_length_c 7.722771
_cell_angle_alpha 90.000000
_cell_angle_beta 90.000000
_cell_angle_gamma 90.000000
_cell_volume 3152.974335
_symmetry_space_group_name_H-M "C M M M"
_symmetry_group_IT_number 65
_symmetry_cell_setting 'orthorhombic'
loop_
_space_group_symop_operation_xyz
x,y,z
-x,-y,z
x,-y,-z
-x,y,-z
-x,-y,-z
x,y,-z
-x,y,z
x,-y,z
1/2+x,1/2+y,z
1/2-x,1/2-y,z
1/2+x,1/2-y,-z
1/2-x,1/2+y,-z
1/2-x,1/2-y,-z
1/2+x,1/2+y,-z
1/2-x,1/2+y,z
1/2+x,1/2-y,z
loop_
_atom_site_type_symbol
_atom_site_label
_atom_site_fract_x
_atom_site_fract_y
_atom_site_fract_z
Si Si1 0.580845 0.248630 0.298052
Si Si2 0.701764 0.664432 0.698386
Si Si3 0.137041 0.626507 0.800610
Si Si4 0.087653 0.500000 0.210241
Si Si5 0.415020 0.568352 0.209118
O O1 0.579499 0.266033 0.500000
O O2 0.500000 0.264582 0.221411
O O3 0.653417 0.281702 0.224747
O O4 0.592303 0.179072 0.287842
O O5 0.723618 0.678301 0.500000
O O6 0.776628 0.644672 0.791306
O O7 0.644114 0.610642 0.704974
O O8 0.123656 0.561172 0.728211
O O9 0.112153 0.626058 0.000000
O O10 0.000000 0.500000 0.250673
O O11 0.095858 0.500000 0.000000
O O12 0.500000 0.583220 0.258275
O O13 0.402271 0.500000 0.251009
O O14 0.409205 0.574148 0.000000
#
# Coordination Sequence:
#
# PCOD9493052 Si02
#       5
#    16  16  16   8  16
#     4  10  22  41  62  85 118 158 197 244 301 357
#     4  11  23  38  58  86 122 160 199 241 294 359
#     4  11  23  39  62  90 119 154 198 249 301 356
#     4   9  20  40  63  87 116 151 192 241 297 352
#     4   9  19  36  57  82 115 155 200 250 300 350
#
# _framework density 22.83558
#
# number of rings (size 3 to 8) (size 9 to 14) (size 15 to 20)
#    0.000    1.889    0.000    4.000    1.556    7.556 
#    0.000    2.778    0.000    4.000    0.000    0.000 
#    0.000    0.000    0.000    0.000    0.000    0.000 
#
# Total GULP energy -201260.333027 kJ/mol
# GULP energy per Si atom -5590.564806 kJ/mol
# Density = 2.278361 g / cm^3
# Si number density = 22.835580 Si / 1000 Ang^3
#
#
#
# Elastic Constant Matrix: (Units=GPa)
#
#
# Indices 1 2 3 4 5 6 
#
# 1 98.1823 61.9512 -4.5245 0.0000 0.0000 0.0000
# 2 61.9512 134.5423 -1.4705 0.0000 0.0000 0.0000
# 3 -4.5245 -1.4705 39.2202 0.0000 0.0000 0.0000
# 4 0.0000 0.0000 0.0000 26.0685 0.0000 0.0000
# 5 0.0000 0.0000 0.0000 0.0000 12.7815 0.0000
# 6 0.0000 0.0000 0.0000 0.0000 0.0000 44.3922
#
#
#
# Elastic Compliance Matrix: (Units=1/GPa)
#
#
# Indices 1 2 3 4 5 6 
#
# 1 0.014434 -0.006631 0.001417 0.000000 0.000000 0.000000
# 2 -0.006631 0.010482 -0.000372 0.000000 0.000000 0.000000
# 3 0.001417 -0.000372 0.025647 0.000000 0.000000 0.000000
# 4 0.000000 0.000000 0.000000 0.038360 0.000000 0.000000
# 5 0.000000 0.000000 0.000000 0.000000 0.078238 0.000000
# 6 0.000000 0.000000 0.000000 0.000000 0.000000 0.022526
#
#
# Mechanical properties :
#
#
# Convention : Reuss Voigt Hill
#
# Bulk Modulus (GPa) = 25.38712 42.65080 34.01896
# Shear Modulus (GPa) = 23.36551 31.04770 27.20660
#
# Velocity S-wave (km/s) = 3.20223 3.69130 3.45543
# Velocity P-wave (km/s) = 4.98135 6.07334 5.55425
#
# Compressibility (1/GPa) = 0.03939005
#
# Stress axis : x y z
#
# Youngs Moduli (GPa) = 69.27879 95.40319 38.99164
#
# Poissons Ratio (x) = 0.63262 -0.05523
# Poissons Ratio (y) = 0.45939 0.01450
# Poissons Ratio (z) = -0.09814 0.03549
#
# Static dielectric constant tensor:
#      x y z
#    x 1.842640 0.000000 0.000000 
#    y 0.000000 1.850500 0.000000 
#    z 0.000000 0.000000 1.854350 
# 
# From -- ./inp_files/11205.got.cif
#   From: 2010.05.17/outbox.cif.g08.bks.cpg/sg65_6_cif.got.tgz:11205.got - 2010.06.03 17:01:31.
