data_PCOD9493496
_publ_section_title
;
Structure prediction by ZEFSAII (Michael W. Deem and Ramdas Pophale) SiO2 
 PCOD9493496
Probable space group: C M M M
;
_chemical_formula_sum "Si O2"
_cell_formula_units_Z 88
_cell_length_a 20.123961
_cell_length_b 16.417367
_cell_length_c 13.922652
_cell_angle_alpha 90.000000
_cell_angle_beta 90.000000
_cell_angle_gamma 90.000000
_cell_volume 4599.799923
_symmetry_space_group_name_H-M "C M M M"
_symmetry_group_IT_number 65
_symmetry_cell_setting 'orthorhombic'
loop_
_space_group_symop_operation_xyz
x,y,z
-x,-y,z
x,-y,-z
-x,y,-z
-x,-y,-z
x,y,-z
-x,y,z
x,-y,z
1/2+x,1/2+y,z
1/2-x,1/2-y,z
1/2+x,1/2-y,-z
1/2-x,1/2+y,-z
1/2-x,1/2-y,-z
1/2+x,1/2+y,-z
1/2-x,1/2+y,z
1/2+x,1/2-y,z
loop_
_atom_site_type_symbol
_atom_site_label
_atom_site_fract_x
_atom_site_fract_y
_atom_site_fract_z
Si Si1 0.420056 0.088299 0.500000
Si Si2 0.872727 0.590064 0.186568
Si Si3 0.819001 0.201234 0.000000
Si Si4 0.926192 0.345583 0.000000
Si Si5 0.196937 0.175297 0.610681
Si Si6 0.579302 0.213990 0.663300
Si Si7 0.284686 0.406660 0.182399
O O1 0.500000 0.081285 0.500000
O O2 0.402930 0.141353 0.409414
O O3 0.389062 0.000000 0.500000
O O4 0.884907 0.500000 0.232822
O O5 0.913270 0.597105 0.090015
O O6 0.895119 0.672344 0.240287
O O7 0.794615 0.595838 0.164824
O O8 0.750000 0.250000 0.000000
O O9 0.818498 0.148001 0.098938
O O10 0.875989 0.269283 0.000000
O O11 0.000000 0.312369 0.000000
O O12 0.202476 0.142873 0.500000
O O13 0.250000 0.250000 0.616554
O O14 0.123062 0.211116 0.627767
O O15 0.208242 0.121003 0.705898
O O16 0.500000 0.228180 0.663449
O O17 0.307301 0.500000 0.172837
#
# Coordination Sequence:
#
# PCOD9493496 Si02
#       7
#     8  16   8   8  16  16  16
#     4   9  18  32  49  76 115 153 189 228 281 353
#     4  11  22  37  56  86 126 163 197 237 292 363
#     4  12  21  41  69  89 117 160 204 250 298 363
#     4  12  25  38  59  92 123 158 198 243 299 357
#     4  11  22  39  61  86 120 162 205 257 303 350
#     4  11  21  35  56  84 116 158 200 241 297 358
#     4  11  23  40  64  92 121 159 207 253 305 359
#
# _framework density 19.131267000000001
#
# number of rings (size 3 to 8) (size 9 to 14) (size 15 to 20)
#    0.000    1.000    4.545    3.273    0.000    4.364 
#    0.000    0.000    0.000    2.727    0.000    1.273 
#    0.000    0.000    0.000    0.000    0.000    0.000 
#
# Total GULP energy -245309.926965 kJ/mol
# GULP energy per Si atom -5575.225613 kJ/mol
# Density = 1.908772 g / cm^3
# Si number density = 19.131267 Si / 1000 Ang^3
#
#
#
# Elastic Constant Matrix: (Units=GPa)
#
#
# Indices 1 2 3 4 5 6 
#
# 1 89.2235 27.0685 -2.5141 0.0000 0.0000 0.0000
# 2 27.0685 76.3641 23.7545 0.0000 0.0000 0.0000
# 3 -2.5141 23.7545 87.6398 0.0000 0.0000 0.0000
# 4 0.0000 0.0000 0.0000 43.8153 0.0000 0.0000
# 5 0.0000 0.0000 0.0000 0.0000 25.8975 0.0000
# 6 0.0000 0.0000 0.0000 0.0000 0.0000 5.1646
#
#
#
# Elastic Compliance Matrix: (Units=1/GPa)
#
#
# Indices 1 2 3 4 5 6 
#
# 1 0.012798 -0.005079 0.001744 0.000000 0.000000 0.000000
# 2 -0.005079 0.016316 -0.004568 0.000000 0.000000 0.000000
# 3 0.001744 -0.004568 0.012699 0.000000 0.000000 0.000000
# 4 0.000000 0.000000 0.000000 0.022823 0.000000 0.000000
# 5 0.000000 0.000000 0.000000 0.000000 0.038614 0.000000
# 6 0.000000 0.000000 0.000000 0.000000 0.000000 0.193625
#
#
# Mechanical properties :
#
#
# Convention : Reuss Voigt Hill
#
# Bulk Modulus (GPa) = 38.45240 38.87169 38.66204
# Shear Modulus (GPa) = 15.55936 28.63671 22.09804
#
# Velocity S-wave (km/s) = 2.85493 3.87312 3.40233
# Velocity P-wave (km/s) = 5.56869 6.35326 5.97387
#
# Compressibility (1/GPa) = 0.02600618
#
# Stress axis : x y z
#
# Youngs Moduli (GPa) = 78.13882 61.28781 78.74901
#
# Poissons Ratio (x) = 0.31127 -0.13732
# Poissons Ratio (y) = 0.39685 0.35974
# Poissons Ratio (z) = -0.13625 0.27998
#
# Static dielectric constant tensor:
#      x y z
#    x 1.648330 0.000000 0.000000 
#    y 0.000000 1.725300 0.000000 
#    z 0.000000 0.000000 1.701560 
# 
# From -- ./inp_files/28784.got.cif
#   From: 2010.05.17/outbox.cif.g08.bks.cpg/sg65_15_cif.got.tgz:28784.got - 2010.06.03 17:01:31.
