data_PCOD9493822
_publ_section_title
;
Structure prediction by ZEFSAII (Michael W. Deem and Ramdas Pophale) SiO2 
 PCOD9493822
Probable space group: C M M M
;
_chemical_formula_sum "Si O2"
_cell_formula_units_Z 88
_cell_length_a 17.340768
_cell_length_b 11.976008
_cell_length_c 23.869457
_cell_angle_alpha 90.000000
_cell_angle_beta 90.000000
_cell_angle_gamma 90.000000
_cell_volume 4957.045952
_symmetry_space_group_name_H-M "C M M M"
_symmetry_group_IT_number 65
_symmetry_cell_setting 'orthorhombic'
loop_
_space_group_symop_operation_xyz
x,y,z
-x,-y,z
x,-y,-z
-x,y,-z
-x,-y,-z
x,y,-z
-x,y,z
x,-y,z
1/2+x,1/2+y,z
1/2-x,1/2-y,z
1/2+x,1/2-y,-z
1/2-x,1/2+y,-z
1/2-x,1/2-y,-z
1/2+x,1/2+y,-z
1/2-x,1/2+y,z
1/2+x,1/2-y,z
loop_
_atom_site_type_symbol
_atom_site_label
_atom_site_fract_x
_atom_site_fract_y
_atom_site_fract_z
Si Si1 0.907768 0.128214 0.168343
Si Si2 0.157906 0.259097 0.061615
Si Si3 0.909896 0.500000 0.782938
Si Si4 0.593500 0.868160 0.376727
Si Si5 0.089156 0.500000 0.917115
Si Si6 0.411290 0.135339 0.500000
Si Si7 0.159380 0.725883 0.733906
O O1 0.877694 0.195895 0.114595
O O2 0.878609 0.181572 0.226200
O O3 0.000000 0.133543 0.167981
O O4 0.882400 0.000000 0.164064
O O5 0.250000 0.250000 0.065802
O O6 0.131348 0.387593 0.064253
O O7 0.134571 0.214110 0.000000
O O8 0.911589 0.500000 0.849752
O O9 0.865310 0.391010 0.762339
O O10 0.000000 0.500000 0.762898
O O11 0.500000 0.863290 0.376133
O O12 0.621640 0.834781 0.439182
O O13 0.626922 0.789230 0.328736
O O14 0.613338 0.000000 0.366733
O O15 0.000000 0.500000 0.935590
O O16 0.500000 0.175015 0.500000
O O17 0.413865 0.000000 0.500000
O O18 0.250000 0.750000 0.732952
#
# Coordination Sequence:
#
# PCOD9493822 Si02
#       7
#    16  16   8  16   8   8  16
#     4  11  25  42  60  82 113 153 195 237 283 344
#     4  11  25  41  62  89 119 151 187 236 297 354
#     4  11  22  39  64  88 112 150 197 241 293 353
#     4   9  16  30  55  84 115 150 193 240 287 341
#     4  11  23  40  67  94 115 146 194 248 294 342
#     4   7  12  24  47  82 115 145 186 239 287 332
#     4  12  24  35  58  87 118 152 192 241 294 345
#
# _framework density 17.752507999999999
#
# number of rings (size 3 to 8) (size 9 to 14) (size 15 to 20)
#    0.000    1.545    2.727    4.091    2.545    2.182 
#    0.000    1.364    0.000    0.000    0.000    0.636 
#    0.000    3.636    0.000    0.000    0.000    0.000 
#
# Total GULP energy -245532.989487 kJ/mol
# GULP energy per Si atom -5580.295216 kJ/mol
# Density = 1.771210 g / cm^3
# Si number density = 17.752508 Si / 1000 Ang^3
#
#
#
# Elastic Constant Matrix: (Units=GPa)
#
#
# Indices 1 2 3 4 5 6 
#
# 1 80.5750 48.3776 38.6626 0.0000 0.0000 0.0000
# 2 48.3776 108.5359 58.3633 0.0000 0.0000 0.0000
# 3 38.6626 58.3633 178.1390 0.0000 0.0000 0.0000
# 4 0.0000 0.0000 0.0000 -4.4243 0.0000 0.0000
# 5 0.0000 0.0000 0.0000 0.0000 54.9369 0.0000
# 6 0.0000 0.0000 0.0000 0.0000 0.0000 47.6224
#
#
#
# Elastic Compliance Matrix: (Units=1/GPa)
#
#
# Indices 1 2 3 4 5 6 
#
# 1 0.017265 -0.006895 -0.001488 0.000000 0.000000 0.000000
# 2 -0.006895 0.013938 -0.003070 0.000000 0.000000 0.000000
# 3 -0.001488 -0.003070 0.006942 0.000000 0.000000 0.000000
# 4 0.000000 0.000000 0.000000 -0.226022 0.000000 0.000000
# 5 0.000000 0.000000 0.000000 0.000000 0.018203 0.000000
# 6 0.000000 0.000000 0.000000 0.000000 0.000000 0.020999
#
#
# Mechanical properties :
#
#
# Convention : Reuss Voigt Hill
#
# Bulk Modulus (GPa) = 65.62308 73.11745 69.37027
# Shear Modulus (GPa) = -41.42821 34.41674 -3.50574
#
# Velocity S-wave (km/s) = -4.83603 4.40784 -1.40679
# Velocity P-wave (km/s) = 2.42133 8.19646 6.04338
#
# Compressibility (1/GPa) = 0.01523854
#
# Stress axis : x y z
#
# Youngs Moduli (GPa) = 57.92155 71.74771 144.04411
#
# Poissons Ratio (x) = 0.49472 0.21434
# Poissons Ratio (y) = 0.39938 0.44220
# Poissons Ratio (z) = 0.08619 0.22026
#
# Static dielectric constant tensor:
#      x y z
#    x 1.580420 0.000000 0.000000 
#    y 0.000000 1.582890 0.000000 
#    z 0.000000 0.000000 1.649810 
# 
# From -- ./inp_files/63662.got.cif
#   From: 2010.05.17/outbox.cif.g08.bks.cpg/sg65_32_cif.got.tgz:63662.got - 2010.06.03 17:01:31.
