data_PCOD9493683
_publ_section_title
;
Structure prediction by ZEFSAII (Michael W. Deem and Ramdas Pophale) SiO2 
 PCOD9493683
Probable space group: C M M M
;
_chemical_formula_sum "Si O2"
_cell_formula_units_Z 64
_cell_length_a 7.758564
_cell_length_b 18.535135
_cell_length_c 22.114948
_cell_angle_alpha 90.000000
_cell_angle_beta 90.000000
_cell_angle_gamma 90.000000
_cell_volume 3180.262901
_symmetry_space_group_name_H-M "C M M M"
_symmetry_group_IT_number 65
_symmetry_cell_setting 'orthorhombic'
loop_
_space_group_symop_operation_xyz
x,y,z
-x,-y,z
x,-y,-z
-x,y,-z
-x,-y,-z
x,y,-z
-x,y,z
x,-y,z
1/2+x,1/2+y,z
1/2-x,1/2-y,z
1/2+x,1/2-y,-z
1/2-x,1/2+y,-z
1/2-x,1/2-y,-z
1/2+x,1/2+y,-z
1/2-x,1/2+y,z
1/2+x,1/2-y,z
loop_
_atom_site_type_symbol
_atom_site_label
_atom_site_fract_x
_atom_site_fract_y
_atom_site_fract_z
Si Si1 0.704338 0.833668 0.618778
Si Si2 0.704013 0.412253 0.129939
Si Si3 0.206740 0.917855 0.260609
Si Si4 0.288487 0.916688 0.500000
Si Si5 0.210111 0.085827 0.000000
O O1 0.500000 0.839960 0.616081
O O2 0.750000 0.750000 0.615631
O O3 0.758391 0.868868 0.681950
O O4 0.773412 0.876502 0.560454
O O5 0.500000 0.395028 0.128919
O O6 0.716981 0.500000 0.130320
O O7 0.774495 0.389705 0.195500
O O8 0.774629 0.386054 0.065067
O O9 0.000000 0.922407 0.254159
O O10 0.270700 0.000000 0.270826
O O11 0.500000 0.915115 0.500000
O O12 0.236802 0.000000 0.500000
O O13 0.000000 0.091865 0.000000
O O14 0.246942 0.000000 0.000000
#
# Coordination Sequence:
#
# PCOD9493683 Si02
#       5
#    16  16  16   8   8
#     4  11  22  36  54  74  99 130 163 199 239 284
#     4   7  10  17  32  57  90 124 155 191 234 279
#     4   9  17  30  48  72 102 132 163 201 243 287
#     4   9  19  36  57  79 100 123 154 193 236 284
#     4   7   8  12  26  52  86 121 154 187 229 279
#
# _framework density 20.124122
#
# number of rings (size 3 to 8) (size 9 to 14) (size 15 to 20)
#    0.000    3.250    0.000    4.875    0.000    1.500 
#    0.000    1.875    0.000    4.500    0.000    1.750 
#    0.000    5.000    0.000    0.000    0.000    0.000 
#
# Total GULP energy -178189.306611 kJ/mol
# GULP energy per Si atom -5568.415832 kJ/mol
# Density = 2.007832 g / cm^3
# Si number density = 20.124122 Si / 1000 Ang^3
#
#
#
# Elastic Constant Matrix: (Units=GPa)
#
#
# Indices 1 2 3 4 5 6 
#
# 1 29.3166 1.0955 11.3998 0.0000 0.0000 0.0000
# 2 1.0955 86.1223 95.7186 0.0000 0.0000 0.0000
# 3 11.3998 95.7186 271.6279 0.0000 0.0000 0.0000
# 4 0.0000 0.0000 0.0000 -7.6777 0.0000 0.0000
# 5 0.0000 0.0000 0.0000 0.0000 19.4171 0.0000
# 6 0.0000 0.0000 0.0000 0.0000 0.0000 75.9942
#
#
#
# Elastic Compliance Matrix: (Units=1/GPa)
#
#
# Indices 1 2 3 4 5 6 
#
# 1 0.034873 0.001945 -0.002149 0.000000 0.000000 0.000000
# 2 0.001945 0.019195 -0.006846 0.000000 0.000000 0.000000
# 3 -0.002149 -0.006846 0.006184 0.000000 0.000000 0.000000
# 4 0.000000 0.000000 0.000000 -0.130247 0.000000 0.000000
# 5 0.000000 0.000000 0.000000 0.000000 0.051501 0.000000
# 6 0.000000 0.000000 0.000000 0.000000 0.000000 0.013159
#
#
# Mechanical properties :
#
#
# Convention : Reuss Voigt Hill
#
# Bulk Modulus (GPa) = 21.66720 67.05496 44.36108
# Shear Modulus (GPa) = 207.03838 36.13692 121.58765
#
# Velocity S-wave (km/s) = 10.15402 4.24217 7.78139
# Velocity P-wave (km/s) = 12.17630 7.57547 10.14026
#
# Compressibility (1/GPa) = 0.04615271
#
# Stress axis : x y z
#
# Youngs Moduli (GPa) = 28.67522 52.09613 161.70553
#
# Poissons Ratio (x) = -0.10131 0.34748
# Poissons Ratio (y) = -0.05576 1.10701
# Poissons Ratio (z) = 0.06162 0.35664
#
# Static dielectric constant tensor:
#      x y z
#    x 1.749580 0.000000 0.000000 
#    y 0.000000 1.644070 0.000000 
#    z 0.000000 0.000000 1.799080 
# 
# From -- ./inp_files/58820.got.cif
#   From: 2010.05.17/outbox.cif.g08.bks.cpg/sg65_30_cif.got.tgz:58820.got - 2010.06.03 17:01:31.
