data_PCOD9493947
_publ_section_title
;
Structure prediction by ZEFSAII (Michael W. Deem and Ramdas Pophale) SiO2 
 PCOD9493947
Probable space group: C M M M
;
_chemical_formula_sum "Si O2"
_cell_formula_units_Z 80
_cell_length_a 18.850047
_cell_length_b 8.204265
_cell_length_c 27.083336
_cell_angle_alpha 90.000000
_cell_angle_beta 90.000000
_cell_angle_gamma 90.000000
_cell_volume 4188.459060
_symmetry_space_group_name_H-M "C M M M"
_symmetry_group_IT_number 65
_symmetry_cell_setting 'orthorhombic'
loop_
_space_group_symop_operation_xyz
x,y,z
-x,-y,z
x,-y,-z
-x,y,-z
-x,-y,-z
x,y,-z
-x,y,z
x,-y,z
1/2+x,1/2+y,z
1/2-x,1/2-y,z
1/2+x,1/2-y,-z
1/2-x,1/2+y,-z
1/2-x,1/2-y,-z
1/2+x,1/2+y,-z
1/2-x,1/2+y,z
1/2+x,1/2-y,z
loop_
_atom_site_type_symbol
_atom_site_label
_atom_site_fract_x
_atom_site_fract_y
_atom_site_fract_z
Si Si1 0.168287 0.697310 0.892734
Si Si2 0.418772 0.194973 0.500000
Si Si3 0.581936 0.696499 0.690330
Si Si4 0.081697 0.303172 0.201964
Si Si5 0.167666 0.696676 0.000000
Si Si6 0.831203 0.194974 0.404486
O O1 0.165826 0.500000 0.892385
O O2 0.250000 0.750000 0.889258
O O3 0.125740 0.756657 0.845057
O O4 0.139105 0.752206 0.946604
O O5 0.500000 0.257146 0.500000
O O6 0.376555 0.250483 0.548408
O O7 0.420994 0.000000 0.500000
O O8 0.500000 0.753762 0.684701
O O9 0.580663 0.500000 0.688732
O O10 0.608296 0.748181 0.744401
O O11 0.630699 0.756163 0.645550
O O12 0.082347 0.500000 0.201219
O O13 0.000000 0.248409 0.197934
O O14 0.250000 0.750000 0.000000
O O15 0.164324 0.500000 0.000000
O O16 0.750000 0.250000 0.408035
O O17 0.831890 0.000000 0.403196
#
# Coordination Sequence:
#
# PCOD9493947 Si02
#       6
#    16   8  16  16   8  16
#     4   9  17  29  46  68  93 123 161 202 246 296
#     4  11  24  41  62  87 113 143 180 217 256 307
#     4   9  19  36  56  76  99 133 175 212 250 301
#     4   9  18  32  49  70  98 130 163 203 251 301
#     4   8  14  26  43  63  89 121 157 198 242 292
#     4  11  23  39  59  83 113 144 176 217 262 306
#
# _framework density 19.100103000000001
#
# number of rings (size 3 to 8) (size 9 to 14) (size 15 to 20)
#    0.000    2.500    0.000    1.800    0.000    4.800 
#    0.000    6.500    0.000    3.000    0.000    0.000 
#    0.000   11.200    0.000    0.000    0.000    0.000 
#
# Total GULP energy -223075.563491 kJ/mol
# GULP energy per Si atom -5576.889087 kJ/mol
# Density = 1.905663 g / cm^3
# Si number density = 19.100103 Si / 1000 Ang^3
#
#
#
# Elastic Constant Matrix: (Units=GPa)
#
#
# Indices 1 2 3 4 5 6 
#
# 1 101.4654 13.1771 107.0214 0.0000 0.0000 0.0000
# 2 13.1771 17.2232 19.6543 0.0000 0.0000 0.0000
# 3 107.0214 19.6543 242.7970 0.0000 0.0000 0.0000
# 4 0.0000 0.0000 0.0000 24.7587 0.0000 0.0000
# 5 0.0000 0.0000 0.0000 0.0000 41.9313 0.0000
# 6 0.0000 0.0000 0.0000 0.0000 0.0000 15.1732
#
#
#
# Elastic Compliance Matrix: (Units=1/GPa)
#
#
# Indices 1 2 3 4 5 6 
#
# 1 0.018872 -0.005449 -0.007877 0.000000 0.000000 0.000000
# 2 -0.005449 0.065544 -0.002904 0.000000 0.000000 0.000000
# 3 -0.007877 -0.002904 0.007826 0.000000 0.000000 0.000000
# 4 0.000000 0.000000 0.000000 0.040390 0.000000 0.000000
# 5 0.000000 0.000000 0.000000 0.000000 0.023849 0.000000
# 6 0.000000 0.000000 0.000000 0.000000 0.000000 0.065906
#
#
# Mechanical properties :
#
#
# Convention : Reuss Voigt Hill
#
# Bulk Modulus (GPa) = 16.72773 71.24349 43.98561
# Shear Modulus (GPa) = 18.19678 31.14815 24.67246
#
# Velocity S-wave (km/s) = 3.08994 4.04268 3.59798
# Velocity P-wave (km/s) = 4.63759 7.69234 6.35135
#
# Compressibility (1/GPa) = 0.05978099
#
# Stress axis : x y z
#
# Youngs Moduli (GPa) = 52.98852 15.25694 127.77963
#
# Poissons Ratio (x) = 0.08314 1.00657
# Poissons Ratio (y) = 0.28875 0.37105
# Poissons Ratio (z) = 0.41741 0.04430
#
# Static dielectric constant tensor:
#      x y z
#    x 1.637720 0.000000 0.000000 
#    y 0.000000 1.670650 0.000000 
#    z 0.000000 0.000000 1.689500 
# 
# From -- ./inp_files/75070.got.cif
#   From: 2010.05.17/outbox.cif.g08.bks.cpg/sg65_38_cif.got.tgz:75070.got - 2010.06.03 17:01:31.
