data_PCOD9493764
_publ_section_title
;
Structure prediction by ZEFSAII (Michael W. Deem and Ramdas Pophale) SiO2 
 PCOD9493764
Probable space group: C M M M
;
_chemical_formula_sum "Si O2"
_cell_formula_units_Z 64
_cell_length_a 24.368847
_cell_length_b 15.751835
_cell_length_c 8.669218
_cell_angle_alpha 90.000000
_cell_angle_beta 90.000000
_cell_angle_gamma 90.000000
_cell_volume 3327.714501
_symmetry_space_group_name_H-M "C M M M"
_symmetry_group_IT_number 65
_symmetry_cell_setting 'orthorhombic'
loop_
_space_group_symop_operation_xyz
x,y,z
-x,-y,z
x,-y,-z
-x,y,-z
-x,-y,-z
x,y,-z
-x,y,z
x,-y,z
1/2+x,1/2+y,z
1/2-x,1/2-y,z
1/2+x,1/2-y,-z
1/2-x,1/2+y,-z
1/2-x,1/2-y,-z
1/2+x,1/2+y,-z
1/2-x,1/2+y,z
1/2+x,1/2-y,z
loop_
_atom_site_type_symbol
_atom_site_label
_atom_site_fract_x
_atom_site_fract_y
_atom_site_fract_z
Si Si1 0.812302 0.000000 0.187448
Si Si2 0.685584 0.000000 0.185781
Si Si3 0.616602 0.843315 0.316146
Si Si4 0.384169 0.338563 0.185411
Si Si5 0.000000 0.101601 0.316489
Si Si6 0.000000 0.397913 0.182638
O O1 0.845016 0.915895 0.236340
O O2 0.749086 0.000000 0.235461
O O3 0.812857 0.000000 0.000000
O O4 0.654553 0.082773 0.247879
O O5 0.682872 0.000000 0.000000
O O6 0.617981 0.845720 0.500000
O O7 0.633669 0.751175 0.254576
O O8 0.554719 0.860948 0.258189
O O9 0.445445 0.359582 0.242491
O O10 0.383754 0.333975 0.000000
O O11 0.000000 0.117270 0.500000
O O12 0.000000 0.000000 0.290563
O O13 0.000000 0.500000 0.201845
O O14 0.000000 0.379353 0.000000
#
# Coordination Sequence:
#
# PCOD9493764 Si02
#       6
#     8   8  16  16   8   8
#     4   9  22  42  67  92 118 158 213 265 304 347
#     4  11  23  44  67  90 119 160 212 261 304 359
#     4  12  25  41  62  94 130 164 199 249 313 373
#     4  11  22  41  66  93 123 163 210 256 302 362
#     4  11  22  37  60  94 132 166 197 247 314 372
#     4  11  22  39  66  94 121 161 206 250 302 364
#
# _framework density 19.232417999999999
#
# number of rings (size 3 to 8) (size 9 to 14) (size 15 to 20)
#    0.000    1.000    2.500    4.875    0.000    2.000 
#    0.000   10.000    0.000    0.000    0.000    0.000 
#    0.000    0.000    0.000    0.000    0.000    0.000 
#
# Total GULP energy -179070.958032 kJ/mol
# GULP energy per Si atom -5595.967439 kJ/mol
# Density = 1.918864 g / cm^3
# Si number density = 19.232418 Si / 1000 Ang^3
#
#
#
# Elastic Constant Matrix: (Units=GPa)
#
#
# Indices 1 2 3 4 5 6 
#
# 1 161.3927 99.9857 43.3882 0.0000 0.0000 0.0000
# 2 99.9857 197.2617 73.8176 0.0000 0.0000 0.0000
# 3 43.3882 73.8176 113.8022 0.0000 0.0000 0.0000
# 4 0.0000 0.0000 0.0000 28.3228 0.0000 0.0000
# 5 0.0000 0.0000 0.0000 0.0000 -29.4227 0.0000
# 6 0.0000 0.0000 0.0000 0.0000 0.0000 -10.2587
#
#
#
# Elastic Compliance Matrix: (Units=1/GPa)
#
#
# Indices 1 2 3 4 5 6 
#
# 1 0.009066 -0.004360 -0.000628 0.000000 0.000000 0.000000
# 2 -0.004360 0.008791 -0.004040 0.000000 0.000000 0.000000
# 3 -0.000628 -0.004040 0.011647 0.000000 0.000000 0.000000
# 4 0.000000 0.000000 0.000000 0.035307 0.000000 0.000000
# 5 0.000000 0.000000 0.000000 0.000000 -0.033987 0.000000
# 6 0.000000 0.000000 0.000000 0.000000 0.000000 -0.097478
#
#
# Mechanical properties :
#
#
# Convention : Reuss Voigt Hill
#
# Bulk Modulus (GPa) = 87.35484 100.75995 94.05740
# Shear Modulus (GPa) = -111.65642 14.74596 -48.45523
#
# Velocity S-wave (km/s) = -7.62774 2.77198 -5.02486
# Velocity P-wave (km/s) = 5.66192 7.92146 3.91742
#
# Compressibility (1/GPa) = 0.01144756
#
# Stress axis : x y z
#
# Youngs Moduli (GPa) = 110.29920 113.74830 85.85667
#
# Poissons Ratio (x) = 0.49597 0.05394
# Poissons Ratio (y) = 0.48093 0.34687
# Poissons Ratio (z) = 0.06930 0.45955
#
# Static dielectric constant tensor:
#      x y z
#    x 1.635750 0.000000 0.000000 
#    y 0.000000 1.663690 0.000000 
#    z 0.000000 0.000000 1.640450 
# 
# From -- ./inp_files/10880.got.cif
#   From: 2010.05.17/outbox.cif.g08.bks.cpg/sg65_6_cif.got.tgz:10880.got - 2010.06.03 17:01:31.
