data_PCOD9493144
_publ_section_title
;
Structure prediction by ZEFSAII (Michael W. Deem and Ramdas Pophale) SiO2 
 PCOD9493144
Probable space group: C M M M
;
_chemical_formula_sum "Si O2"
_cell_formula_units_Z 116
_cell_length_a 28.106167
_cell_length_b 27.182678
_cell_length_c 7.404067
_cell_angle_alpha 90.000000
_cell_angle_beta 90.000000
_cell_angle_gamma 90.000000
_cell_volume 5656.713758
_symmetry_space_group_name_H-M "C M M M"
_symmetry_group_IT_number 65
_symmetry_cell_setting 'orthorhombic'
loop_
_space_group_symop_operation_xyz
x,y,z
-x,-y,z
x,-y,-z
-x,y,-z
-x,-y,-z
x,y,-z
-x,y,z
x,-y,z
1/2+x,1/2+y,z
1/2-x,1/2-y,z
1/2+x,1/2-y,-z
1/2-x,1/2+y,-z
1/2-x,1/2-y,-z
1/2+x,1/2+y,-z
1/2-x,1/2+y,z
1/2+x,1/2-y,z
loop_
_atom_site_type_symbol
_atom_site_label
_atom_site_fract_x
_atom_site_fract_y
_atom_site_fract_z
Si Si1 0.500000 0.927381 0.000000
Si Si2 0.598013 0.786028 0.717592
Si Si3 0.552407 0.681420 0.787599
Si Si4 0.322005 0.943892 0.716388
Si Si5 0.078491 0.395900 0.280964
Si Si6 0.715904 0.555605 0.212931
Si Si7 0.197199 0.752388 0.709590
Si Si8 0.151244 0.143074 0.220239
O O1 0.458669 0.924936 0.840526
O O2 0.600495 0.785406 0.500000
O O3 0.567564 0.738599 0.771656
O O4 0.575187 0.837979 0.767115
O O5 0.652357 0.778482 0.785104
O O6 0.500000 0.673575 0.709463
O O7 0.597013 0.650306 0.716302
O O8 0.549780 0.670324 0.000000
O O9 0.322264 0.945876 0.500000
O O10 0.367966 0.912749 0.765979
O O11 0.269864 0.925021 0.768018
O O12 0.326139 0.000000 0.785103
O O13 0.071641 0.401606 0.500000
O O14 0.714252 0.500000 0.288494
O O15 0.677950 0.594372 0.284685
O O16 0.706632 0.551694 0.000000
O O17 0.201759 0.736727 0.500000
O O18 0.250000 0.750000 0.790306
O O19 0.179626 0.808551 0.719320
O O20 0.151413 0.143742 0.000000
#
# Coordination Sequence:
#
# PCOD9493144 Si02
#       8
#     4  16  16  16  16  16  16  16
#     4  12  26  40  61  84 102 144 188 228 283 338
#     4   9  19  33  48  71 102 136 172 217 269 314
#     4   9  18  31  50  71  97 136 180 224 263 313
#     4   9  19  37  59  81 106 136 171 216 271 327
#     4  10  23  40  57  81 112 141 181 235 281 330
#     4   9  18  32  53  79 107 138 172 214 267 327
#     4   9  18  31  47  69  99 137 173 205 256 322
#     4   9  18  32  47  72 104 133 171 220 268 312
#
# _framework density 20.506606999999999
#
# number of rings (size 3 to 8) (size 9 to 14) (size 15 to 20)
#    0.000    2.759    0.000    0.207    4.828    1.103 
#    0.000    0.690    0.000    2.069    0.000    2.897 
#    0.000    0.000    0.000   10.345    0.000   10.759 
#
# Total GULP energy -322995.063327 kJ/mol
# GULP energy per Si atom -5568.880402 kJ/mol
# Density = 2.045993 g / cm^3
# Si number density = 20.506607 Si / 1000 Ang^3
#
#
#
# Elastic Constant Matrix: (Units=GPa)
#
#
# Indices 1 2 3 4 5 6 
#
# 1 163.7138 38.4921 11.2773 0.0000 0.0000 0.0000
# 2 38.4921 36.3506 0.1753 0.0000 0.0000 0.0000
# 3 11.2773 0.1753 79.5557 0.0000 0.0000 0.0000
# 4 0.0000 0.0000 0.0000 -18.4250 0.0000 0.0000
# 5 0.0000 0.0000 0.0000 0.0000 19.2733 0.0000
# 6 0.0000 0.0000 0.0000 0.0000 0.0000 -9.0928
#
#
#
# Elastic Compliance Matrix: (Units=1/GPa)
#
#
# Indices 1 2 3 4 5 6 
#
# 1 0.008237 -0.008716 -0.001148 0.000000 0.000000 0.000000
# 2 -0.008716 0.036734 0.001155 0.000000 0.000000 0.000000
# 3 -0.001148 0.001155 0.012730 0.000000 0.000000 0.000000
# 4 0.000000 0.000000 0.000000 -0.054274 0.000000 0.000000
# 5 0.000000 0.000000 0.000000 0.000000 0.051885 0.000000
# 6 0.000000 0.000000 0.000000 0.000000 0.000000 -0.109977
#
#
# Mechanical properties :
#
#
# Convention : Reuss Voigt Hill
#
# Bulk Modulus (GPa) = 24.82581 42.16774 33.49677
# Shear Modulus (GPa) = -209.93163 13.66278 -98.13442
#
# Velocity S-wave (km/s) = -10.12891 2.58401 -6.92524
# Velocity P-wave (km/s) = 11.16516 5.43235 6.89747
#
# Compressibility (1/GPa) = 0.04028067
#
# Stress axis : x y z
#
# Youngs Moduli (GPa) = 121.40762 27.22257 78.55430
#
# Poissons Ratio (x) = 0.23728 0.09021
# Poissons Ratio (y) = 1.05824 -0.09070
# Poissons Ratio (z) = 0.13942 -0.03143
#
# Static dielectric constant tensor:
#      x y z
#    x 1.739510 0.000000 0.000000 
#    y 0.000000 1.725800 0.000000 
#    z 0.000000 0.000000 1.788960 
# 
# From -- ./inp_files/17328.got.cif
#   From: 2010.05.17/outbox.cif.g08.bks.cpg/sg65_9_cif.got.tgz:17328.got - 2010.06.03 17:01:31.
