data_PCOD9493560
_publ_section_title
;
Structure prediction by ZEFSAII (Michael W. Deem and Ramdas Pophale) SiO2 
 PCOD9493560
Probable space group: C M M M
;
_chemical_formula_sum "Si O2"
_cell_formula_units_Z 66
_cell_length_a 15.831634
_cell_length_b 7.859315
_cell_length_c 26.308859
_cell_angle_alpha 90.000000
_cell_angle_beta 90.000000
_cell_angle_gamma 90.000000
_cell_volume 3273.500791
_symmetry_space_group_name_H-M "C M M M"
_symmetry_group_IT_number 65
_symmetry_cell_setting 'orthorhombic'
loop_
_space_group_symop_operation_xyz
x,y,z
-x,-y,z
x,-y,-z
-x,y,-z
-x,-y,-z
x,y,-z
-x,y,z
x,-y,z
1/2+x,1/2+y,z
1/2-x,1/2-y,z
1/2+x,1/2-y,-z
1/2-x,1/2+y,-z
1/2-x,1/2-y,-z
1/2+x,1/2+y,-z
1/2-x,1/2+y,z
1/2+x,1/2-y,z
loop_
_atom_site_type_symbol
_atom_site_label
_atom_site_fract_x
_atom_site_fract_y
_atom_site_fract_z
Si Si1 0.401307 0.207414 0.735751
Si Si2 0.657155 0.798581 0.373221
Si Si3 0.000000 0.806831 0.916142
Si Si4 0.000000 0.798285 0.557027
Si Si5 0.344506 0.795729 0.153691
Si Si6 0.500000 0.000000 0.000000
O O1 0.500000 0.255100 0.736418
O O2 0.359881 0.272230 0.683628
O O3 0.357720 0.263077 0.787932
O O4 0.398331 0.000000 0.735424
O O5 0.750000 0.750000 0.391346
O O6 0.582732 0.749312 0.411115
O O7 0.654095 0.000000 0.368518
O O8 0.082980 0.784006 0.881039
O O9 0.000000 0.652286 0.956049
O O10 0.000000 0.000000 0.937031
O O11 0.000000 0.724280 0.500000
O O12 0.000000 0.000000 0.552770
O O13 0.250000 0.750000 0.136946
O O14 0.355106 0.000000 0.152183
#
# Coordination Sequence:
#
# PCOD9493560 Si02
#       6
#    16  16   8   8  16   2
#     4   9  17  33  60  93 131 175 210 254 320 387
#     4  11  22  39  63  92 127 166 211 261 321 387
#     4  12  25  46  74 102 133 176 228 278 336 396
#     4  11  25  44  63  85 115 158 213 274 332 386
#     4  11  21  39  66  99 140 178 217 268 325 391
#     4  12  26  52  76  98 136 182 222 284 346 374
#
# _framework density 20.161902000000001
#
# number of rings (size 3 to 8) (size 9 to 14) (size 15 to 20)
#    0.000    1.333    3.636    2.727    0.000    1.455 
#    0.000    5.455    0.000    0.000    0.000    0.000 
#    0.000    0.000    0.000    0.000    0.000    0.000 
#
# Total GULP energy -184156.977654 kJ/mol
# GULP energy per Si atom -5580.514474 kJ/mol
# Density = 2.011601 g / cm^3
# Si number density = 20.161902 Si / 1000 Ang^3
#
#
#
# Elastic Constant Matrix: (Units=GPa)
#
#
# Indices 1 2 3 4 5 6 
#
# 1 177.5511 22.9868 75.4194 0.0000 0.0000 0.0000
# 2 22.9868 95.2706 40.6724 0.0000 0.0000 0.0000
# 3 75.4194 40.6724 148.5295 0.0000 0.0000 0.0000
# 4 0.0000 0.0000 0.0000 44.0597 0.0000 0.0000
# 5 0.0000 0.0000 0.0000 0.0000 -2.8641 0.0000
# 6 0.0000 0.0000 0.0000 0.0000 0.0000 24.9984
#
#
#
# Elastic Compliance Matrix: (Units=1/GPa)
#
#
# Indices 1 2 3 4 5 6 
#
# 1 0.007184 -0.000199 -0.003593 0.000000 0.000000 0.000000
# 2 -0.000199 0.011891 -0.003155 0.000000 0.000000 0.000000
# 3 -0.003593 -0.003155 0.009421 0.000000 0.000000 0.000000
# 4 0.000000 0.000000 0.000000 0.022696 0.000000 0.000000
# 5 0.000000 0.000000 0.000000 0.000000 -0.349146 0.000000
# 6 0.000000 0.000000 0.000000 0.000000 0.000000 0.040003
#
#
# Mechanical properties :
#
#
# Convention : Reuss Voigt Hill
#
# Bulk Modulus (GPa) = 68.48649 77.72315 73.10482
# Shear Modulus (GPa) = -20.90419 32.05697 5.57639
#
# Velocity S-wave (km/s) = -3.22346 3.99178 1.66488
# Velocity P-wave (km/s) = 4.49308 7.73815 6.32719
#
# Compressibility (1/GPa) = 0.01460142
#
# Stress axis : x y z
#
# Youngs Moduli (GPa) = 139.19035 84.09398 106.14248
#
# Poissons Ratio (x) = 0.01676 0.38142
# Poissons Ratio (y) = 0.02775 0.33489
# Poissons Ratio (z) = 0.50018 0.26532
#
# Static dielectric constant tensor:
#      x y z
#    x 1.673380 0.000000 0.000000 
#    y 0.000000 1.722110 0.000000 
#    z 0.000000 0.000000 1.723880 
# 
# From -- ./inp_files/74539.got.cif
#   From: 2010.05.17/outbox.cif.g08.bks.cpg/sg65_38_cif.got.tgz:74539.got - 2010.06.03 17:01:31.
