data_PCOD9493043
_publ_section_title
;
Structure prediction by ZEFSAII (Michael W. Deem and Ramdas Pophale) SiO2 
 PCOD9493043
Probable space group: C M M M
;
_chemical_formula_sum "Si O2"
_cell_formula_units_Z 90
_cell_length_a 12.743256
_cell_length_b 16.698287
_cell_length_c 21.426638
_cell_angle_alpha 90.000000
_cell_angle_beta 90.000000
_cell_angle_gamma 90.000000
_cell_volume 4559.385999
_symmetry_space_group_name_H-M "C M M M"
_symmetry_group_IT_number 65
_symmetry_cell_setting 'orthorhombic'
loop_
_space_group_symop_operation_xyz
x,y,z
-x,-y,z
x,-y,-z
-x,y,-z
-x,-y,-z
x,y,-z
-x,y,z
x,-y,z
1/2+x,1/2+y,z
1/2-x,1/2-y,z
1/2+x,1/2-y,-z
1/2-x,1/2+y,-z
1/2-x,1/2-y,-z
1/2+x,1/2+y,-z
1/2-x,1/2+y,z
1/2+x,1/2-y,z
loop_
_atom_site_type_symbol
_atom_site_label
_atom_site_fract_x
_atom_site_fract_y
_atom_site_fract_z
Si Si1 0.877907 0.092329 0.675361
Si Si2 0.616573 0.905143 0.134030
Si Si3 0.627844 0.909090 0.000000
Si Si4 0.725366 0.843940 0.573238
Si Si5 0.500000 0.907541 0.575739
Si Si6 0.197762 0.836408 0.198909
Si Si7 0.500000 0.500000 0.000000
Si Si8 0.500000 0.590387 0.870176
O O1 0.806721 0.108615 0.615557
O O2 0.843698 0.150146 0.731480
O O3 0.000000 0.105299 0.660820
O O4 0.865078 0.000000 0.695830
O O5 0.500000 0.873598 0.149048
O O6 0.703353 0.893026 0.185442
O O7 0.606411 0.000000 0.123519
O O8 0.654486 0.871175 0.066671
O O9 0.500000 0.913937 0.000000
O O10 0.672848 0.000000 0.000000
O O11 0.734434 0.865817 0.500000
O O12 0.750000 0.750000 0.578904
O O13 0.607044 0.863917 0.594683
O O14 0.500000 0.907614 0.500000
O O15 0.500000 0.000000 0.596581
O O16 0.250000 0.750000 0.188880
O O17 0.102711 0.862051 0.153214
O O18 0.500000 0.430993 0.056419
O O19 0.500000 0.500000 0.839891
#
# Coordination Sequence:
#
# PCOD9493043 Si02
#       8
#    16  16   8  16   8  16   2   8
#     4  11  24  43  67  94 128 185 239 282 338 414
#     4   9  18  34  58  88 119 157 205 258 323 398
#     4   7  12  27  51  80 112 147 187 236 300 378
#     4  10  22  40  65  99 137 173 219 286 359 420
#     4   9  18  36  61  88 128 179 217 261 333 416
#     4  12  25  41  67  93 133 175 221 286 347 402
#     4   8  24  44  84 104 126 188 260 268 308 442
#     4  10  22  48  73  99 133 187 236 273 330 418
#
# _framework density 19.7395
#
# number of rings (size 3 to 8) (size 9 to 14) (size 15 to 20)
#    0.267    1.778    0.889    3.733    2.489    2.133 
#    3.200    2.667    0.000    0.000    0.000    0.000 
#    0.000    0.000    0.000    0.000    0.000    0.000 
#
# Total GULP energy -250624.757497 kJ/mol
# GULP energy per Si atom -5569.439055 kJ/mol
# Density = 1.969457 g / cm^3
# Si number density = 19.739500 Si / 1000 Ang^3
#
#
#
# Elastic Constant Matrix: (Units=GPa)
#
#
# Indices 1 2 3 4 5 6 
#
# 1 157.4356 54.0426 56.8391 0.0000 0.0000 0.0000
# 2 54.0426 76.1074 26.6139 0.0000 0.0000 0.0000
# 3 56.8391 26.6139 72.0944 0.0000 0.0000 0.0000
# 4 0.0000 0.0000 0.0000 22.9807 0.0000 0.0000
# 5 0.0000 0.0000 0.0000 0.0000 9.5715 0.0000
# 6 0.0000 0.0000 0.0000 0.0000 0.0000 29.3158
#
#
#
# Elastic Compliance Matrix: (Units=1/GPa)
#
#
# Indices 1 2 3 4 5 6 
#
# 1 0.010402 -0.005188 -0.006286 0.000000 0.000000 0.000000
# 2 -0.005188 0.017675 -0.002434 0.000000 0.000000 0.000000
# 3 -0.006286 -0.002434 0.019725 0.000000 0.000000 0.000000
# 4 0.000000 0.000000 0.000000 0.043515 0.000000 0.000000
# 5 0.000000 0.000000 0.000000 0.000000 0.104477 0.000000
# 6 0.000000 0.000000 0.000000 0.000000 0.000000 0.034111
#
#
# Mechanical properties :
#
#
# Convention : Reuss Voigt Hill
#
# Bulk Modulus (GPa) = 50.03688 64.51427 57.27558
# Shear Modulus (GPa) = 18.91193 23.58306 21.24749
#
# Velocity S-wave (km/s) = 3.09864 3.46021 3.28440
# Velocity P-wave (km/s) = 6.18108 6.97982 6.59256
#
# Compressibility (1/GPa) = 0.01998526
#
# Stress axis : x y z
#
# Youngs Moduli (GPa) = 96.13406 56.57810 50.69719
#
# Poissons Ratio (x) = 0.29355 0.31867
# Poissons Ratio (y) = 0.49878 0.12341
# Poissons Ratio (z) = 0.60427 0.13772
#
# Static dielectric constant tensor:
#      x y z
#    x 1.686970 0.000000 0.000000 
#    y 0.000000 1.904340 0.000000 
#    z 0.000000 0.000000 1.716600 
# 
# From -- ./inp_files/61537.got.cif
#   From: 2010.05.17/outbox.cif.g08.bks.cpg/sg65_31_cif.got.tgz:61537.got - 2010.06.03 17:01:31.
