data_PCOD9493074
_publ_section_title
;
Structure prediction by ZEFSAII (Michael W. Deem and Ramdas Pophale) SiO2 
 PCOD9493074
Probable space group: C M M M
;
_chemical_formula_sum "Si O2"
_cell_formula_units_Z 68
_cell_length_a 7.542951
_cell_length_b 20.105864
_cell_length_c 20.512660
_cell_angle_alpha 90.000000
_cell_angle_beta 90.000000
_cell_angle_gamma 90.000000
_cell_volume 3110.899697
_symmetry_space_group_name_H-M "C M M M"
_symmetry_group_IT_number 65
_symmetry_cell_setting 'orthorhombic'
loop_
_space_group_symop_operation_xyz
x,y,z
-x,-y,z
x,-y,-z
-x,y,-z
-x,-y,-z
x,y,-z
-x,y,z
x,-y,z
1/2+x,1/2+y,z
1/2-x,1/2-y,z
1/2+x,1/2-y,-z
1/2-x,1/2+y,-z
1/2-x,1/2-y,-z
1/2+x,1/2+y,-z
1/2-x,1/2+y,z
1/2+x,1/2-y,z
loop_
_atom_site_type_symbol
_atom_site_label
_atom_site_fract_x
_atom_site_fract_y
_atom_site_fract_z
Si Si1 0.708668 0.674801 0.640490
Si Si2 0.500000 0.500000 0.000000
Si Si3 0.000000 0.500000 0.500000
Si Si4 0.783633 0.121867 0.500000
Si Si5 0.288893 0.175189 0.859788
Si Si6 0.782865 0.621927 0.000000
Si Si7 0.707839 0.925344 0.247089
O O1 0.500000 0.666498 0.644630
O O2 0.750000 0.750000 0.661113
O O3 0.760175 0.662475 0.565640
O O4 0.783689 0.618067 0.687432
O O5 0.658253 0.557597 0.000000
O O6 0.157845 0.557769 0.500000
O O7 0.000000 0.108300 0.500000
O O8 0.500000 0.168791 0.857960
O O9 0.250000 0.250000 0.838411
O O10 0.213321 0.119447 0.811024
O O11 0.237238 0.162120 0.934305
O O12 0.000000 0.608743 0.000000
O O13 0.500000 0.933092 0.232515
O O14 0.782568 0.000000 0.253275
#
# Coordination Sequence:
#
# PCOD9493074 Si02
#       7
#    16   2   2   8  16   8  16
#     4  11  24  43  66  94 131 171 217 276 326 390
#     4  12  26  40  68 106 128 180 216 270 344 394
#     4  12  26  40  76  98 136 188 200 270 360 370
#     4  10  26  44  67 104 135 166 226 273 321 402
#     4  10  22  41  66  94 130 173 216 273 329 390
#     4  10  24  44  67  98 137 170 218 277 329 390
#     4  10  23  41  64  94 130 172 220 266 330 398
#
# _framework density 21.858626000000001
#
# number of rings (size 3 to 8) (size 9 to 14) (size 15 to 20)
#    0.000    1.647    0.000    2.471    8.235    3.294 
#    0.000    0.000    0.000    0.000    0.000    0.000 
#    0.000    0.000    0.000    0.000    0.000    0.000 
#
# Total GULP energy -189347.115754 kJ/mol
# GULP energy per Si atom -5569.032816 kJ/mol
# Density = 2.180888 g / cm^3
# Si number density = 21.858626 Si / 1000 Ang^3
#
#
#
# Elastic Constant Matrix: (Units=GPa)
#
#
# Indices 1 2 3 4 5 6 
#
# 1 64.2020 15.7830 6.3063 0.0000 0.0000 0.0000
# 2 15.7830 211.8315 82.0703 0.0000 0.0000 0.0000
# 3 6.3063 82.0703 144.2346 0.0000 0.0000 0.0000
# 4 0.0000 0.0000 0.0000 58.9256 0.0000 0.0000
# 5 0.0000 0.0000 0.0000 0.0000-2003.9281 0.0000
# 6 0.0000 0.0000 0.0000 0.0000 0.0000 36.7948
#
#
#
# Elastic Compliance Matrix: (Units=1/GPa)
#
#
# Indices 1 2 3 4 5 6 
#
# 1 0.015867 -0.001172 -0.000027 0.000000 0.000000 0.000000
# 2 -0.001172 0.006142 -0.003444 0.000000 0.000000 0.000000
# 3 -0.000027 -0.003444 0.008894 0.000000 0.000000 0.000000
# 4 0.000000 0.000000 0.000000 0.016971 0.000000 0.000000
# 5 0.000000 0.000000 0.000000 0.000000 -0.000499 0.000000
# 6 0.000000 0.000000 0.000000 0.000000 0.000000 0.027178
#
#
# Mechanical properties :
#
#
# Convention : Reuss Voigt Hill
#
# Bulk Modulus (GPa) = 46.25841 69.84304 58.05073
# Shear Modulus (GPa) = 54.91925 -360.56765 -152.82420
#
# Velocity S-wave (km/s) = 5.01790 -12.85739 -8.37058
# Velocity P-wave (km/s) = 7.40141 13.72571 8.17356
#
# Compressibility (1/GPa) = 0.02161769
#
# Stress axis : x y z
#
# Youngs Moduli (GPa) = 63.02570 162.80674 112.43734
#
# Poissons Ratio (x) = 0.19076 0.00304
# Poissons Ratio (y) = 0.07385 0.38721
# Poissons Ratio (z) = 0.00170 0.56067
#
# Static dielectric constant tensor:
#      x y z
#    x 1.828660 0.000000 0.000000 
#    y 0.000000 1.772980 0.000000 
#    z 0.000000 0.000000 1.816630 
# 
# From -- ./inp_files/59071.got.cif
#   From: 2010.05.17/outbox.cif.g08.bks.cpg/sg65_30_cif.got.tgz:59071.got - 2010.06.03 17:01:31.
