data_PCOD9493146
_publ_section_title
;
Structure prediction by ZEFSAII (Michael W. Deem and Ramdas Pophale) SiO2 
 PCOD9493146
Probable space group: C M M M
;
_chemical_formula_sum "Si O2"
_cell_formula_units_Z 90
_cell_length_a 24.675561
_cell_length_b 8.024153
_cell_length_c 23.005976
_cell_angle_alpha 90.000000
_cell_angle_beta 90.000000
_cell_angle_gamma 90.000000
_cell_volume 4555.194218
_symmetry_space_group_name_H-M "C M M M"
_symmetry_group_IT_number 65
_symmetry_cell_setting 'orthorhombic'
loop_
_space_group_symop_operation_xyz
x,y,z
-x,-y,z
x,-y,-z
-x,y,-z
-x,-y,-z
x,y,-z
-x,y,z
x,-y,z
1/2+x,1/2+y,z
1/2-x,1/2-y,z
1/2+x,1/2-y,-z
1/2-x,1/2+y,-z
1/2-x,1/2-y,-z
1/2+x,1/2+y,-z
1/2-x,1/2+y,z
1/2+x,1/2-y,z
loop_
_atom_site_type_symbol
_atom_site_label
_atom_site_fract_x
_atom_site_fract_y
_atom_site_fract_z
Si Si1 0.000000 0.500000 0.500000
Si Si2 0.186865 0.199608 0.500000
Si Si3 0.937201 0.201131 0.064782
Si Si4 0.500000 0.755340 0.388961
Si Si5 0.102069 0.301612 0.186916
Si Si6 0.381418 0.798855 0.387964
Si Si7 0.500000 0.308456 0.737793
Si Si8 0.188000 0.699622 0.723934
O O1 0.000000 0.639315 0.448175
O O2 0.250000 0.250000 0.500000
O O3 0.155894 0.270482 0.556142
O O4 0.183329 0.000000 0.500000
O O5 0.902915 0.261617 0.119161
O O6 0.000000 0.254342 0.073212
O O7 0.937032 0.000000 0.065363
O O8 0.920178 0.255551 0.000000
O O9 0.437316 0.696275 0.391812
O O10 0.500000 0.805235 0.319946
O O11 0.097187 0.500000 0.194192
O O12 0.157178 0.243743 0.217911
O O13 0.052135 0.222622 0.222216
O O14 0.347646 0.746880 0.331351
O O15 0.394331 0.000000 0.384443
O O16 0.500000 0.500000 0.716934
O O17 0.186938 0.500000 0.722994
O O18 0.250000 0.750000 0.719825
#
# Coordination Sequence:
#
# PCOD9493146 Si02
#       8
#     2   8  16   8  16  16   8  16
#     4  12  24  36  70  92 120 172 196 236 292 366
#     4  12  27  45  63  86 116 154 203 255 302 359
#     4   9  18  33  54  86 130 171 206 248 307 373
#     4  12  24  42  68  94 123 163 204 237 303 383
#     4  11  22  37  61  91 124 164 209 259 307 367
#     4  11  22  41  67  90 120 154 195 244 304 368
#     4  12  25  39  60  93 130 164 199 254 315 372
#     4  10  23  40  61  87 116 153 199 255 308 364
#
# _framework density 19.757664999999999
#
# number of rings (size 3 to 8) (size 9 to 14) (size 15 to 20)
#    0.000    1.244    3.556    3.200    1.244    4.622 
#    0.000    1.556    0.000    0.533    0.000    0.000 
#    0.000    0.000    0.000    0.000    0.000    0.000 
#
# Total GULP energy -250777.564357 kJ/mol
# GULP energy per Si atom -5572.834763 kJ/mol
# Density = 1.971270 g / cm^3
# Si number density = 19.757665 Si / 1000 Ang^3
#
#
#
# Elastic Constant Matrix: (Units=GPa)
#
#
# Indices 1 2 3 4 5 6 
#
# 1 169.3635 19.0517 78.6359 0.0000 0.0000 0.0000
# 2 19.0517 55.2415 23.6082 0.0000 0.0000 0.0000
# 3 78.6359 23.6082 185.4376 0.0000 0.0000 0.0000
# 4 0.0000 0.0000 0.0000 23.1906 0.0000 0.0000
# 5 0.0000 0.0000 0.0000 0.0000 6.1377 0.0000
# 6 0.0000 0.0000 0.0000 0.0000 0.0000 -8.2985
#
#
#
# Elastic Compliance Matrix: (Units=1/GPa)
#
#
# Indices 1 2 3 4 5 6 
#
# 1 0.007438 -0.001287 -0.002990 0.000000 0.000000 0.000000
# 2 -0.001287 0.019367 -0.001920 0.000000 0.000000 0.000000
# 3 -0.002990 -0.001920 0.006905 0.000000 0.000000 0.000000
# 4 0.000000 0.000000 0.000000 0.043121 0.000000 0.000000
# 5 0.000000 0.000000 0.000000 0.000000 0.162929 0.000000
# 6 0.000000 0.000000 0.000000 0.000000 0.000000 -0.120504
#
#
# Mechanical properties :
#
#
# Convention : Reuss Voigt Hill
#
# Bulk Modulus (GPa) = 46.91483 72.51492 59.71488
# Shear Modulus (GPa) = 36.03491 23.45574 29.74533
#
# Velocity S-wave (km/s) = 4.27528 3.44927 3.88430
# Velocity P-wave (km/s) = 6.94027 7.25570 7.09974
#
# Compressibility (1/GPa) = 0.02131522
#
# Stress axis : x y z
#
# Youngs Moduli (GPa) = 134.45287 51.63501 144.82247
#
# Poissons Ratio (x) = 0.06647 0.43303
# Poissons Ratio (y) = 0.17307 0.27802
# Poissons Ratio (z) = 0.40202 0.09913
#
# Static dielectric constant tensor:
#      x y z
#    x 1.685720 0.000000 0.000000 
#    y 0.000000 1.828530 0.000000 
#    z 0.000000 0.000000 1.682550 
# 
# From -- ./inp_files/65298.got.cif
#   From: 2010.05.17/outbox.cif.g08.bks.cpg/sg65_33_cif.got.tgz:65298.got - 2010.06.03 17:01:31.
