data_PCOD9493462
_publ_section_title
;
Structure prediction by ZEFSAII (Michael W. Deem and Ramdas Pophale) SiO2 
 PCOD9493462
Probable space group: C M M M
;
_chemical_formula_sum "Si O2"
_cell_formula_units_Z 72
_cell_length_a 17.651736
_cell_length_b 8.694352
_cell_length_c 24.704585
_cell_angle_alpha 90.000000
_cell_angle_beta 90.000000
_cell_angle_gamma 90.000000
_cell_volume 3791.422695
_symmetry_space_group_name_H-M "C M M M"
_symmetry_group_IT_number 65
_symmetry_cell_setting 'orthorhombic'
loop_
_space_group_symop_operation_xyz
x,y,z
-x,-y,z
x,-y,-z
-x,y,-z
-x,-y,-z
x,y,-z
-x,y,z
x,-y,z
1/2+x,1/2+y,z
1/2-x,1/2-y,z
1/2+x,1/2-y,-z
1/2-x,1/2+y,-z
1/2-x,1/2-y,-z
1/2+x,1/2+y,-z
1/2-x,1/2+y,z
1/2+x,1/2-y,z
loop_
_atom_site_type_symbol
_atom_site_label
_atom_site_fract_x
_atom_site_fract_y
_atom_site_fract_z
Si Si1 0.409515 0.178929 0.107009
Si Si2 0.663912 0.185066 0.324542
Si Si3 0.834286 0.183322 0.000000
Si Si4 0.835210 0.183099 0.213256
Si Si5 0.335838 0.185711 0.558229
O O1 0.500000 0.185726 0.104703
O O2 0.375747 0.256714 0.053681
O O3 0.380259 0.260959 0.160986
O O4 0.385842 0.000000 0.108439
O O5 0.750000 0.250000 0.325753
O O6 0.630158 0.253646 0.269605
O O7 0.629680 0.229128 0.383331
O O8 0.665808 0.000000 0.320273
O O9 0.750000 0.250000 0.000000
O O10 0.832351 0.000000 0.000000
O O11 0.750000 0.250000 0.208840
O O12 0.831247 0.000000 0.215504
O O13 0.370533 0.232758 0.500000
O O14 0.250000 0.250000 0.558063
O O15 0.332056 0.000000 0.558471
#
# Coordination Sequence:
#
# PCOD9493462 Si02
#       5
#    16  16   8  16  16
#     4  11  24  42  62  84 112 143 176 216 263 311
#     4   9  15  24  39  60  89 125 167 212 259 310
#     4  12  25  42  65  91 119 147 179 214 251 300
#     4  11  21  34  53  76 105 139 179 222 264 313
#     4   8  13  20  31  50  79 117 159 203 252 306
#
# _framework density 18.990233
#
# number of rings (size 3 to 8) (size 9 to 14) (size 15 to 20)
#    0.000    2.000    0.000    6.667    0.000    4.000 
#    0.000    0.000    0.000    0.000    0.000    0.000 
#    0.000    0.889    0.000   10.222    0.000    6.667 
#
# Total GULP energy -200747.990056 kJ/mol
# GULP energy per Si atom -5576.333057 kJ/mol
# Density = 1.894701 g / cm^3
# Si number density = 18.990233 Si / 1000 Ang^3
#
#
#
# Elastic Constant Matrix: (Units=GPa)
#
#
# Indices 1 2 3 4 5 6 
#
# 1 22.5271 25.2675 36.5380 0.0000 0.0000 0.0000
# 2 25.2675 135.1037 79.3622 0.0000 0.0000 0.0000
# 3 36.5380 79.3622 244.4587 0.0000 0.0000 0.0000
# 4 0.0000 0.0000 0.0000 -20.8905 0.0000 0.0000
# 5 0.0000 0.0000 0.0000 0.0000 16.6927 0.0000
# 6 0.0000 0.0000 0.0000 0.0000 0.0000 16.0140
#
#
#
# Elastic Compliance Matrix: (Units=1/GPa)
#
#
# Indices 1 2 3 4 5 6 
#
# 1 0.064841 -0.007950 -0.007111 0.000000 0.000000 0.000000
# 2 -0.007950 0.010121 -0.002097 0.000000 0.000000 0.000000
# 3 -0.007111 -0.002097 0.005834 0.000000 0.000000 0.000000
# 4 0.000000 0.000000 0.000000 -0.047869 0.000000 0.000000
# 5 0.000000 0.000000 0.000000 0.000000 0.059907 0.000000
# 6 0.000000 0.000000 0.000000 0.000000 0.000000 0.062445
#
#
# Mechanical properties :
#
#
# Convention : Reuss Voigt Hill
#
# Bulk Modulus (GPa) = 21.51447 76.04720 48.78083
# Shear Modulus (GPa) = 24.37973 19.75801 22.06887
#
# Velocity S-wave (km/s) = 3.58691 3.22907 3.41268
# Velocity P-wave (km/s) = 5.33932 7.35084 6.42430
#
# Compressibility (1/GPa) = 0.04648035
#
# Stress axis : x y z
#
# Youngs Moduli (GPa) = 15.42233 98.80887 171.39876
#
# Poissons Ratio (x) = 0.78552 1.21874
# Poissons Ratio (y) = 0.12261 0.35948
# Poissons Ratio (z) = 0.10966 0.20724
#
# Static dielectric constant tensor:
#      x y z
#    x 1.615260 0.000000 0.000000 
#    y 0.000000 1.637610 0.000000 
#    z 0.000000 0.000000 1.729000 
# 
# From -- ./inp_files/67051.got.cif
#   From: 2010.05.17/outbox.cif.g08.bks.cpg/sg65_34_cif.got.tgz:67051.got - 2010.06.03 17:01:31.
