data_PCOD9493863
_publ_section_title
;
Structure prediction by ZEFSAII (Michael W. Deem and Ramdas Pophale) SiO2 
 PCOD9493863
Probable space group: C M M M
;
_chemical_formula_sum "Si O2"
_cell_formula_units_Z 50
_cell_length_a 17.656204
_cell_length_b 17.504609
_cell_length_c 8.101132
_cell_angle_alpha 90.000000
_cell_angle_beta 90.000000
_cell_angle_gamma 90.000000
_cell_volume 2503.775936
_symmetry_space_group_name_H-M "C M M M"
_symmetry_group_IT_number 65
_symmetry_cell_setting 'orthorhombic'
loop_
_space_group_symop_operation_xyz
x,y,z
-x,-y,z
x,-y,-z
-x,y,-z
-x,-y,-z
x,y,-z
-x,y,z
x,-y,z
1/2+x,1/2+y,z
1/2-x,1/2-y,z
1/2+x,1/2-y,-z
1/2-x,1/2+y,-z
1/2-x,1/2-y,-z
1/2+x,1/2+y,-z
1/2-x,1/2+y,z
1/2+x,1/2-y,z
loop_
_atom_site_type_symbol
_atom_site_label
_atom_site_fract_x
_atom_site_fract_y
_atom_site_fract_z
Si Si1 0.145081 0.811214 0.196312
Si Si2 0.885675 0.500000 0.184495
Si Si3 0.000000 0.910827 0.698312
Si Si4 0.812906 0.648651 0.693118
Si Si5 0.500000 0.000000 0.500000
O O1 0.139006 0.722972 0.252451
O O2 0.223810 0.837042 0.278721
O O3 0.074404 0.864333 0.244081
O O4 0.154624 0.812824 0.000000
O O5 0.836477 0.423863 0.202022
O O6 0.936454 0.500000 0.349614
O O7 0.919635 0.500000 0.000000
O O8 0.000000 0.911531 0.500000
O O9 0.000000 0.000000 0.754639
O O10 0.826215 0.635883 0.500000
#
# Coordination Sequence:
#
# PCOD9493863 Si02
#       5
#    16   8   8  16   2
#     4  11  23  41  66  99 136 175 225 279 338 402
#     4  12  25  45  71 101 136 176 226 282 337 407
#     4  11  25  44  65  96 133 178 224 280 343 403
#     4  11  22  43  69  99 133 180 228 272 335 405
#     4  12  26  48  60 102 128 170 220 280 348 394
#
# _framework density 19.969836999999998
#
# number of rings (size 3 to 8) (size 9 to 14) (size 15 to 20)
#    0.000    0.800    1.600    8.400    2.240    2.560 
#    2.880    3.200    0.000    0.000    0.000    0.000 
#    0.000    0.000    0.000    0.000    0.000    0.000 
#
# Total GULP energy -139389.353389 kJ/mol
# GULP energy per Si atom -5575.574136 kJ/mol
# Density = 1.992438 g / cm^3
# Si number density = 19.969837 Si / 1000 Ang^3
#
#
#
# Elastic Constant Matrix: (Units=GPa)
#
#
# Indices 1 2 3 4 5 6 
#
# 1 80.7787 73.6225 11.9911 0.0000 0.0000 0.0000
# 2 73.6225 176.0592 33.7699 0.0000 0.0000 0.0000
# 3 11.9911 33.7699 144.5513 0.0000 0.0000 0.0000
# 4 0.0000 0.0000 0.0000 -92.9859 0.0000 0.0000
# 5 0.0000 0.0000 0.0000 0.0000 142.3922 0.0000
# 6 0.0000 0.0000 0.0000 0.0000 0.0000 55.8293
#
#
#
# Elastic Compliance Matrix: (Units=1/GPa)
#
#
# Indices 1 2 3 4 5 6 
#
# 1 0.020016 -0.008429 0.000309 0.000000 0.000000 0.000000
# 2 -0.008429 0.009496 -0.001519 0.000000 0.000000 0.000000
# 3 0.000309 -0.001519 0.007247 0.000000 0.000000 0.000000
# 4 0.000000 0.000000 0.000000 -0.010754 0.000000 0.000000
# 5 0.000000 0.000000 0.000000 0.000000 0.007023 0.000000
# 6 0.000000 0.000000 0.000000 0.000000 0.000000 0.017912
#
#
# Mechanical properties :
#
#
# Convention : Reuss Voigt Hill
#
# Bulk Modulus (GPa) = 57.20779 71.12847 64.16813
# Shear Modulus (GPa) = 65.74926 39.84750 52.79838
#
# Velocity S-wave (km/s) = 5.74419 4.47182 5.14747
# Velocity P-wave (km/s) = 8.52664 7.89672 8.21772
#
# Compressibility (1/GPa) = 0.01748014
#
# Stress axis : x y z
#
# Youngs Moduli (GPa) = 49.95926 105.30487 137.98313
#
# Poissons Ratio (x) = 0.88766 -0.04262
# Poissons Ratio (y) = 0.42113 0.20963
# Poissons Ratio (z) = -0.01543 0.15998
#
# Static dielectric constant tensor:
#      x y z
#    x 1.679330 0.000000 0.000000 
#    y 0.000000 1.714920 0.000000 
#    z 0.000000 0.000000 1.684760 
# 
# From -- ./inp_files/5878.got.cif
#   From: 2010.05.17/outbox.cif.g08.bks.cpg/sg65_3_cif.got.tgz:5878.got - 2010.06.03 17:01:31.
