data_PCOD9493258
_publ_section_title
;
Structure prediction by ZEFSAII (Michael W. Deem and Ramdas Pophale) SiO2 
 PCOD9493258
Probable space group: C M M M
;
_chemical_formula_sum "Si O2"
_cell_formula_units_Z 72
_cell_length_a 23.470998
_cell_length_b 18.937880
_cell_length_c 13.023581
_cell_angle_alpha 90.000000
_cell_angle_beta 90.000000
_cell_angle_gamma 90.000000
_cell_volume 5788.863808
_symmetry_space_group_name_H-M "C M M M"
_symmetry_group_IT_number 65
_symmetry_cell_setting 'orthorhombic'
loop_
_space_group_symop_operation_xyz
x,y,z
-x,-y,z
x,-y,-z
-x,y,-z
-x,-y,-z
x,y,-z
-x,y,z
x,-y,z
1/2+x,1/2+y,z
1/2-x,1/2-y,z
1/2+x,1/2-y,-z
1/2-x,1/2+y,-z
1/2-x,1/2-y,-z
1/2+x,1/2+y,-z
1/2-x,1/2+y,z
1/2+x,1/2-y,z
loop_
_atom_site_type_symbol
_atom_site_label
_atom_site_fract_x
_atom_site_fract_y
_atom_site_fract_z
Si Si1 0.068240 0.416401 0.500000
Si Si2 0.067102 0.584153 0.119410
Si Si3 0.134666 0.354071 0.694159
Si Si4 0.686063 0.717203 0.381695
Si Si5 0.753171 0.081675 0.376257
O O1 0.082847 0.500000 0.500000
O O2 0.095079 0.380784 0.600724
O O3 0.000000 0.410126 0.500000
O O4 0.075179 0.500000 0.135223
O O5 0.105509 0.625551 0.199597
O O6 0.000000 0.598591 0.136933
O O7 0.079694 0.599497 0.000000
O O8 0.147657 0.270869 0.682123
O O9 0.194927 0.394187 0.678005
O O10 0.666205 0.718634 0.500000
O O11 0.750000 0.750000 0.381253
O O12 0.696710 0.636639 0.348461
O O13 0.744036 0.089846 0.500000
O O14 0.765588 0.000000 0.355666
#
# Coordination Sequence:
#
# PCOD9493258 Si02
#       5
#     8  16  16  16  16
#     4  11  20  24  31  54  81  99 118 149 188 224
#     4   9  18  30  40  51  71 102 137 163 180 209
#     4  11  16  25  39  54  77 103 125 153 189 223
#     4   8  14  24  35  53  78 102 123 150 185 222
#     4   9  15  23  38  58  79 102 129 153 178 221
#
# _framework density 12.437673999999999
#
# number of rings (size 3 to 8) (size 9 to 14) (size 15 to 20)
#    0.000    2.556    2.222    4.667    0.000    1.778 
#    0.000    0.000    0.000    6.000    0.000    0.000 
#    0.000    4.444    0.000    2.444    0.000    0.000 
#
# Total GULP energy -200451.949000 kJ/mol
# GULP energy per Si atom -5568.109694 kJ/mol
# Density = 1.240937 g / cm^3
# Si number density = 12.437674 Si / 1000 Ang^3
#
#
#
# Elastic Constant Matrix: (Units=GPa)
#
#
# Indices 1 2 3 4 5 6 
#
# 1 50.1027 46.3823 44.6992 0.0000 0.0000 0.0000
# 2 46.3823 110.9230 48.1523 0.0000 0.0000 0.0000
# 3 44.6992 48.1523 71.5650 0.0000 0.0000 0.0000
# 4 0.0000 0.0000 0.0000 16.5028 0.0000 0.0000
# 5 0.0000 0.0000 0.0000 0.0000 20.7752 0.0000
# 6 0.0000 0.0000 0.0000 0.0000 0.0000 23.6957
#
#
#
# Elastic Compliance Matrix: (Units=1/GPa)
#
#
# Indices 1 2 3 4 5 6 
#
# 1 0.053199 -0.011047 -0.025794 0.000000 0.000000 0.000000
# 2 -0.011047 0.015029 -0.003212 0.000000 0.000000 0.000000
# 3 -0.025794 -0.003212 0.032246 0.000000 0.000000 0.000000
# 4 0.000000 0.000000 0.000000 0.060596 0.000000 0.000000
# 5 0.000000 0.000000 0.000000 0.000000 0.048134 0.000000
# 6 0.000000 0.000000 0.000000 0.000000 0.000000 0.042202
#
#
# Mechanical properties :
#
#
# Convention : Reuss Voigt Hill
#
# Bulk Modulus (GPa) = 49.10268 56.78428 52.94348
# Shear Modulus (GPa) = 14.77969 18.41854 16.59912
#
# Velocity S-wave (km/s) = 3.45091 3.85238 3.65716
# Velocity P-wave (km/s) = 7.44601 8.09580 7.77769
#
# Compressibility (1/GPa) = 0.02036549
#
# Stress axis : x y z
#
# Youngs Moduli (GPa) = 18.79742 66.53736 31.01187
#
# Poissons Ratio (x) = 0.73507 0.79994
# Poissons Ratio (y) = 0.20766 0.09961
# Poissons Ratio (z) = 0.48487 0.21373
#
# Static dielectric constant tensor:
#      x y z
#    x 1.391030 0.000000 0.000000 
#    y 0.000000 1.428170 0.000000 
#    z 0.000000 0.000000 1.390970 
# 
# From -- ./inp_files/26548.got.cif
#   From: 2010.05.17/outbox.cif.g08.bks.cpg/sg65_14_cif.got.tgz:26548.got - 2010.06.03 17:01:31.
