data_PCOD9493157
_publ_section_title
;
Structure prediction by ZEFSAII (Michael W. Deem and Ramdas Pophale) SiO2 
 PCOD9493157
Probable space group: C M M M
;
_chemical_formula_sum "Si O2"
_cell_formula_units_Z 64
_cell_length_a 17.852043
_cell_length_b 10.530764
_cell_length_c 17.440576
_cell_angle_alpha 90.000000
_cell_angle_beta 90.000000
_cell_angle_gamma 90.000000
_cell_volume 3278.752452
_symmetry_space_group_name_H-M "C M M M"
_symmetry_group_IT_number 65
_symmetry_cell_setting 'orthorhombic'
loop_
_space_group_symop_operation_xyz
x,y,z
-x,-y,z
x,-y,-z
-x,y,-z
-x,-y,-z
x,y,-z
-x,y,z
x,-y,z
1/2+x,1/2+y,z
1/2-x,1/2-y,z
1/2+x,1/2-y,-z
1/2-x,1/2+y,-z
1/2-x,1/2-y,-z
1/2+x,1/2+y,-z
1/2-x,1/2+y,z
1/2+x,1/2-y,z
loop_
_atom_site_type_symbol
_atom_site_label
_atom_site_fract_x
_atom_site_fract_y
_atom_site_fract_z
Si Si1 0.914798 0.152603 0.500000
Si Si2 0.589805 0.500000 0.915278
Si Si3 0.189699 0.639691 0.912483
Si Si4 0.411060 0.732374 0.196313
Si Si5 0.179438 0.846034 0.347173
O O1 0.867966 0.183610 0.423934
O O2 0.000000 0.204009 0.500000
O O3 0.921031 0.000000 0.500000
O O4 0.500000 0.500000 0.923497
O O5 0.605517 0.622733 0.865595
O O6 0.623216 0.500000 0.000000
O O7 0.225010 0.500000 0.907476
O O8 0.250000 0.750000 0.901030
O O9 0.127988 0.650339 0.846120
O O10 0.159280 0.653127 0.000000
O O11 0.500000 0.746209 0.206555
O O12 0.371699 0.689421 0.274334
O O13 0.250000 0.750000 0.345211
O O14 0.196537 0.000000 0.345990
#
# Coordination Sequence:
#
# PCOD9493157 Si02
#       5
#     8   8  16  16  16
#     4   9  19  38  67  97 124 155 200 252 306 365
#     4   9  18  32  52  81 115 151 193 245 303 357
#     4  10  23  41  60  84 117 159 205 254 310 372
#     4  11  22  36  59  88 119 156 204 256 308 361
#     4  11  23  40  63  92 125 164 204 252 303 368
#
# _framework density 19.51962
#
# number of rings (size 3 to 8) (size 9 to 14) (size 15 to 20)
#    0.000    1.750    1.250    2.625    1.750    6.000 
#    0.000    1.250    0.000    3.000    0.000    0.000 
#    0.000    0.000    0.000    0.000    0.000    0.000 
#
# Total GULP energy -178576.148823 kJ/mol
# GULP energy per Si atom -5580.504651 kJ/mol
# Density = 1.947519 g / cm^3
# Si number density = 19.519620 Si / 1000 Ang^3
#
#
#
# Elastic Constant Matrix: (Units=GPa)
#
#
# Indices 1 2 3 4 5 6 
#
# 1 148.3821 63.6732 90.0845 0.0000 0.0000 0.0000
# 2 63.6732 115.3178 55.6218 0.0000 0.0000 0.0000
# 3 90.0845 55.6218 177.2004 0.0000 0.0000 0.0000
# 4 0.0000 0.0000 0.0000 -30.9368 0.0000 0.0000
# 5 0.0000 0.0000 0.0000 0.0000 28.6546 0.0000
# 6 0.0000 0.0000 0.0000 0.0000 0.0000 24.6518
#
#
#
# Elastic Compliance Matrix: (Units=1/GPa)
#
#
# Indices 1 2 3 4 5 6 
#
# 1 0.011138 -0.004029 -0.004398 0.000000 0.000000 0.000000
# 2 -0.004029 0.011676 -0.001617 0.000000 0.000000 0.000000
# 3 -0.004398 -0.001617 0.008387 0.000000 0.000000 0.000000
# 4 0.000000 0.000000 0.000000 -0.032324 0.000000 0.000000
# 5 0.000000 0.000000 0.000000 0.000000 0.034898 0.000000
# 6 0.000000 0.000000 0.000000 0.000000 0.000000 0.040565
#
#
# Mechanical properties :
#
#
# Convention : Reuss Voigt Hill
#
# Bulk Modulus (GPa) = 89.97723 95.51770 92.74747
# Shear Modulus (GPa) = 50.95201 19.90865 35.43033
#
# Velocity S-wave (km/s) = 5.11465 3.19710 4.26504
# Velocity P-wave (km/s) = 9.00419 7.91638 8.47775
#
# Compressibility (1/GPa) = 0.01111392
#
# Stress axis : x y z
#
# Youngs Moduli (GPa) = 89.78207 85.64527 119.23826
#
# Poissons Ratio (x) = 0.34504 0.52438
# Poissons Ratio (y) = 0.36171 0.19280
# Poissons Ratio (z) = 0.39484 0.13848
#
# Static dielectric constant tensor:
#      x y z
#    x 1.697780 0.000000 0.000000 
#    y 0.000000 1.746240 0.000000 
#    z 0.000000 0.000000 1.670880 
# 
# From -- ./inp_files/41925.got.cif
#   From: 2010.05.17/outbox.cif.g08.bks.cpg/sg65_21_cif.got.tgz:41925.got - 2010.06.03 17:01:31.
