data_PCOD9493268
_publ_section_title
;
Structure prediction by ZEFSAII (Michael W. Deem and Ramdas Pophale) SiO2 
 PCOD9493268
Probable space group: C M M M
;
_chemical_formula_sum "Si O2"
_cell_formula_units_Z 108
_cell_length_a 15.045787
_cell_length_b 25.868903
_cell_length_c 15.510157
_cell_angle_alpha 90.000000
_cell_angle_beta 90.000000
_cell_angle_gamma 90.000000
_cell_volume 6036.832356
_symmetry_space_group_name_H-M "C M M M"
_symmetry_group_IT_number 65
_symmetry_cell_setting 'orthorhombic'
loop_
_space_group_symop_operation_xyz
x,y,z
-x,-y,z
x,-y,-z
-x,y,-z
-x,-y,-z
x,y,-z
-x,y,z
x,-y,z
1/2+x,1/2+y,z
1/2-x,1/2-y,z
1/2+x,1/2-y,-z
1/2-x,1/2+y,-z
1/2-x,1/2-y,-z
1/2+x,1/2+y,-z
1/2-x,1/2+y,z
1/2+x,1/2-y,z
loop_
_atom_site_type_symbol
_atom_site_label
_atom_site_fract_x
_atom_site_fract_y
_atom_site_fract_z
Si Si1 0.400218 0.718955 0.770098
Si Si2 0.000000 0.361618 0.500000
Si Si3 0.101071 0.941809 0.895473
Si Si4 0.283565 0.655613 0.100084
Si Si5 0.895841 0.500000 0.603511
Si Si6 0.848638 0.385524 0.358718
Si Si7 0.304253 0.695695 0.401327
Si Si8 0.900471 0.338259 0.818378
O O1 0.500000 0.702367 0.794066
O O2 0.328976 0.696636 0.836798
O O3 0.376731 0.701017 0.673736
O O4 0.396453 0.780704 0.778134
O O5 0.922670 0.364682 0.424936
O O6 0.172660 0.898899 0.872154
O O7 0.000000 0.928555 0.868273
O O8 0.121404 0.000000 0.865484
O O9 0.099973 0.943179 0.000000
O O10 0.178347 0.656047 0.113644
O O11 0.305682 0.665447 0.000000
O O12 0.902415 0.500000 0.500000
O O13 0.846766 0.552750 0.628569
O O14 0.000000 0.500000 0.634145
O O15 0.760357 0.352275 0.378386
O O16 0.879235 0.375165 0.261562
O O17 0.336733 0.690477 0.500000
O O18 0.250000 0.750000 0.397199
O O19 0.000000 0.346523 0.852091
#
# Coordination Sequence:
#
# PCOD9493268 Si02
#       8
#    16   4  16  16   8  16  16  16
#     4  11  23  39  58  81 115 152 193 249 298 353
#     4  12  20  33  62  92 112 160 210 245 292 352
#     4   8  15  31  57  87 113 138 180 241 300 350
#     4  11  22  38  61  84 113 151 194 245 303 359
#     4  11  18  32  54  88 122 152 199 252 288 340
#     4  12  20  35  57  84 119 158 194 244 295 338
#     4  11  21  36  56  83 117 154 194 237 292 363
#     4  11  23  39  55  79 118 156 194 236 294 358
#
# _framework density 17.890177999999999
#
# number of rings (size 3 to 8) (size 9 to 14) (size 15 to 20)
#    0.000    1.259    5.926    1.333    0.000    2.667 
#    1.333    1.481    0.000    0.000    0.000    2.074 
#    0.000    1.778    0.000    0.000    0.000    0.000 
#
# Total GULP energy -300767.019877 kJ/mol
# GULP energy per Si atom -5569.759627 kJ/mol
# Density = 1.784946 g / cm^3
# Si number density = 17.890178 Si / 1000 Ang^3
#
#
#
# Elastic Constant Matrix: (Units=GPa)
#
#
# Indices 1 2 3 4 5 6 
#
# 1 83.4631 31.3315 22.2769 0.0000 0.0000 0.0000
# 2 31.3315 101.4710 11.8998 0.0000 0.0000 0.0000
# 3 22.2769 11.8998 56.0181 0.0000 0.0000 0.0000
# 4 0.0000 0.0000 0.0000 16.6888 0.0000 0.0000
# 5 0.0000 0.0000 0.0000 0.0000 23.5996 0.0000
# 6 0.0000 0.0000 0.0000 0.0000 0.0000 -42.7108
#
#
#
# Elastic Compliance Matrix: (Units=1/GPa)
#
#
# Indices 1 2 3 4 5 6 
#
# 1 0.014825 -0.003985 -0.005049 0.000000 0.000000 0.000000
# 2 -0.003985 0.011178 -0.000790 0.000000 0.000000 0.000000
# 3 -0.005049 -0.000790 0.020027 0.000000 0.000000 0.000000
# 4 0.000000 0.000000 0.000000 0.059920 0.000000 0.000000
# 5 0.000000 0.000000 0.000000 0.000000 0.042374 0.000000
# 6 0.000000 0.000000 0.000000 0.000000 0.000000 -0.023413
#
#
# Mechanical properties :
#
#
# Convention : Reuss Voigt Hill
#
# Bulk Modulus (GPa) = 37.90439 41.32986 39.61712
# Shear Modulus (GPa) = 32.60452 11.21180 21.90816
#
# Velocity S-wave (km/s) = 4.27368 2.50612 3.50321
# Velocity P-wave (km/s) = 6.75172 5.61483 6.20935
#
# Compressibility (1/GPa) = 0.02638217
#
# Stress axis : x y z
#
# Youngs Moduli (GPa) = 67.45328 89.45950 49.93270
#
# Poissons Ratio (x) = 0.35654 0.25211
# Poissons Ratio (y) = 0.26883 0.03943
# Poissons Ratio (z) = 0.34057 0.07064
#
# Static dielectric constant tensor:
#      x y z
#    x 1.624180 0.000000 0.000000 
#    y 0.000000 1.576680 0.000000 
#    z 0.000000 0.000000 1.603880 
# 
# From -- ./inp_files/41177.got.cif
#   From: 2010.05.17/outbox.cif.g08.bks.cpg/sg65_21_cif.got.tgz:41177.got - 2010.06.03 17:01:31.
