data_PCOD9493619
_publ_section_title
;
Structure prediction by ZEFSAII (Michael W. Deem and Ramdas Pophale) SiO2 
 PCOD9493619
Probable space group: C M M M
;
_chemical_formula_sum "Si O2"
_cell_formula_units_Z 72
_cell_length_a 27.254431
_cell_length_b 14.898733
_cell_length_c 10.211216
_cell_angle_alpha 90.000000
_cell_angle_beta 90.000000
_cell_angle_gamma 90.000000
_cell_volume 4146.330533
_symmetry_space_group_name_H-M "C M M M"
_symmetry_group_IT_number 65
_symmetry_cell_setting 'orthorhombic'
loop_
_space_group_symop_operation_xyz
x,y,z
-x,-y,z
x,-y,-z
-x,y,-z
-x,-y,-z
x,y,-z
-x,y,z
x,-y,z
1/2+x,1/2+y,z
1/2-x,1/2-y,z
1/2+x,1/2-y,-z
1/2-x,1/2+y,-z
1/2-x,1/2-y,-z
1/2+x,1/2+y,-z
1/2-x,1/2+y,z
1/2+x,1/2-y,z
loop_
_atom_site_type_symbol
_atom_site_label
_atom_site_fract_x
_atom_site_fract_y
_atom_site_fract_z
Si Si1 0.443623 0.607426 0.000000
Si Si2 0.781579 0.500000 0.151821
Si Si3 0.941904 0.105453 0.500000
Si Si4 0.443615 0.000000 0.840748
Si Si5 0.382356 0.339407 0.743945
Si Si6 0.810915 0.000000 0.340765
Si Si7 0.865115 0.351751 0.155192
O O1 0.412907 0.635878 0.873444
O O2 0.446568 0.500000 0.000000
O O3 0.500000 0.642382 0.000000
O O4 0.739865 0.500000 0.260911
O O5 0.817302 0.414250 0.166956
O O6 0.762875 0.500000 0.000000
O O7 0.920445 0.153642 0.374122
O O8 0.000000 0.106084 0.500000
O O9 0.926123 0.000000 0.500000
O O10 0.411881 0.087600 0.803099
O O11 0.500000 0.000000 0.796116
O O12 0.443864 0.000000 0.000000
O O13 0.341174 0.412703 0.707949
O O14 0.361660 0.240145 0.766085
O O15 0.806052 0.000000 0.500000
O O16 0.871007 0.331560 0.000000
#
# Coordination Sequence:
#
# PCOD9493619 Si02
#       7
#     8   8   8   8  16   8  16
#     4  11  22  34  54  88 124 154 194 239 290 343
#     4   9  22  43  66  86 113 156 191 244 306 353
#     4  11  22  40  58  78 120 170 202 227 284 355
#     4   8  15  30  54  83 119 156 187 230 283 342
#     4  12  21  38  59  87 120 156 193 247 291 345
#     4  12  25  43  60  85 117 153 205 244 295 358
#     4   9  19  37  59  89 121 148 191 241 296 351
#
# _framework density 17.364751999999999
#
# number of rings (size 3 to 8) (size 9 to 14) (size 15 to 20)
#    0.000    1.667    4.444    2.000    1.556    4.444 
#    2.000    3.333    0.000    0.000    0.000    2.333 
#    0.000    0.000    0.000    0.000    0.000    0.000 
#
# Total GULP energy -200835.303172 kJ/mol
# GULP energy per Si atom -5578.758421 kJ/mol
# Density = 1.732523 g / cm^3
# Si number density = 17.364752 Si / 1000 Ang^3
#
#
#
# Elastic Constant Matrix: (Units=GPa)
#
#
# Indices 1 2 3 4 5 6 
#
# 1 114.2053 51.0017 64.8295 0.0000 0.0000 0.0000
# 2 51.0017 142.7704 55.3212 0.0000 0.0000 0.0000
# 3 64.8295 55.3212 137.4244 0.0000 0.0000 0.0000
# 4 0.0000 0.0000 0.0000 15.7781 0.0000 0.0000
# 5 0.0000 0.0000 0.0000 0.0000 37.5809 0.0000
# 6 0.0000 0.0000 0.0000 0.0000 0.0000 2.0903
#
#
#
# Elastic Compliance Matrix: (Units=1/GPa)
#
#
# Indices 1 2 3 4 5 6 
#
# 1 0.012743 -0.002634 -0.004951 0.000000 0.000000 0.000000
# 2 -0.002634 0.008843 -0.002317 0.000000 0.000000 0.000000
# 3 -0.004951 -0.002317 0.010545 0.000000 0.000000 0.000000
# 4 0.000000 0.000000 0.000000 0.063379 0.000000 0.000000
# 5 0.000000 0.000000 0.000000 0.000000 0.026609 0.000000
# 6 0.000000 0.000000 0.000000 0.000000 0.000000 0.478410
#
#
# Mechanical properties :
#
#
# Convention : Reuss Voigt Hill
#
# Bulk Modulus (GPa) = 81.12456 81.85608 81.49032
# Shear Modulus (GPa) = 8.00714 25.97302 16.99008
#
# Velocity S-wave (km/s) = 2.14969 3.87167 3.13137
# Velocity P-wave (km/s) = 7.27880 8.19926 7.75270
#
# Compressibility (1/GPa) = 0.01232672
#
# Stress axis : x y z
#
# Youngs Moduli (GPa) = 78.47521 113.08354 94.82847
#
# Poissons Ratio (x) = 0.29782 0.46952
# Poissons Ratio (y) = 0.20667 0.21976
# Poissons Ratio (z) = 0.38855 0.26206
#
# Static dielectric constant tensor:
#      x y z
#    x 1.589710 0.000000 0.000000 
#    y 0.000000 1.593690 0.000000 
#    z 0.000000 0.000000 1.564530 
# 
# From -- ./inp_files/15858.got.cif
#   From: 2010.05.17/outbox.cif.g08.bks.cpg/sg65_8_cif.got.tgz:15858.got - 2010.06.03 17:01:31.
