data_PCOD9493243
_publ_section_title
;
Structure prediction by ZEFSAII (Michael W. Deem and Ramdas Pophale) SiO2 
 PCOD9493243
Probable space group: C M M M
;
_chemical_formula_sum "Si O2"
_cell_formula_units_Z 66
_cell_length_a 9.042685
_cell_length_b 15.323356
_cell_length_c 24.574748
_cell_angle_alpha 90.000000
_cell_angle_beta 90.000000
_cell_angle_gamma 90.000000
_cell_volume 3405.182298
_symmetry_space_group_name_H-M "C M M M"
_symmetry_group_IT_number 65
_symmetry_cell_setting 'orthorhombic'
loop_
_space_group_symop_operation_xyz
x,y,z
-x,-y,z
x,-y,-z
-x,y,-z
-x,-y,-z
x,y,-z
-x,y,z
x,-y,z
1/2+x,1/2+y,z
1/2-x,1/2-y,z
1/2+x,1/2-y,-z
1/2-x,1/2+y,-z
1/2-x,1/2-y,-z
1/2+x,1/2+y,-z
1/2-x,1/2+y,z
1/2+x,1/2-y,z
loop_
_atom_site_type_symbol
_atom_site_label
_atom_site_fract_x
_atom_site_fract_y
_atom_site_fract_z
Si Si1 0.678799 0.000000 0.810491
Si Si2 0.327795 0.605076 0.000000
Si Si3 0.321692 0.159766 0.887113
Si Si4 0.500000 0.000000 0.500000
Si Si5 0.832390 0.156990 0.377964
Si Si6 0.821685 0.500000 0.315071
Si Si7 0.766099 0.856435 0.500000
O O1 0.722976 0.084429 0.844962
O O2 0.500000 0.000000 0.809472
O O3 0.726103 0.000000 0.748040
O O4 0.244547 0.637748 0.053693
O O5 0.324991 0.500000 0.000000
O O6 0.500000 0.633656 0.000000
O O7 0.500000 0.164469 0.890059
O O8 0.250000 0.250000 0.869077
O O9 0.626807 0.921618 0.500000
O O10 0.750000 0.250000 0.374707
O O11 0.742255 0.084833 0.344910
O O12 0.837950 0.128259 0.441237
O O13 0.000000 0.164852 0.357601
O O14 0.000000 0.500000 0.318770
O O15 0.750000 0.750000 0.500000
#
# Coordination Sequence:
#
# PCOD9493243 Si02
#       7
#     8   8  16   2  16   8   8
#     4   9  22  43  64  87 120 166 213 265 315 374
#     4  11  22  37  60  94 130 160 202 249 309 369
#     4  11  22  40  64  91 124 163 208 252 312 373
#     4  12  24  40  66  98 136 192 214 268 348 396
#     4  11  24  42  66  96 132 171 215 269 329 393
#     4  11  24  43  66  92 128 167 218 270 325 389
#     4  10  25  38  69  97 141 169 231 265 341 408
#
# _framework density 19.382221999999999
#
# number of rings (size 3 to 8) (size 9 to 14) (size 15 to 20)
#    0.000    1.333    1.212    3.636   10.182    1.455 
#    0.000    9.091    0.000    0.000    0.000    0.000 
#    0.000    0.000    0.000    0.000    0.000    0.000 
#
# Total GULP energy -184034.409348 kJ/mol
# GULP energy per Si atom -5576.800283 kJ/mol
# Density = 1.933811 g / cm^3
# Si number density = 19.382222 Si / 1000 Ang^3
#
#
#
# Elastic Constant Matrix: (Units=GPa)
#
#
# Indices 1 2 3 4 5 6 
#
# 1 141.5294 76.1002 48.4952 0.0000 0.0000 0.0000
# 2 76.1002 173.2937 84.5364 0.0000 0.0000 0.0000
# 3 48.4952 84.5364 163.4828 0.0000 0.0000 0.0000
# 4 0.0000 0.0000 0.0000 -52.1547 0.0000 0.0000
# 5 0.0000 0.0000 0.0000 0.0000 27.8207 0.0000
# 6 0.0000 0.0000 0.0000 0.0000 0.0000 35.1462
#
#
#
# Elastic Compliance Matrix: (Units=1/GPa)
#
#
# Indices 1 2 3 4 5 6 
#
# 1 0.009341 -0.003678 -0.000869 0.000000 0.000000 0.000000
# 2 -0.003678 0.009166 -0.003648 0.000000 0.000000 0.000000
# 3 -0.000869 -0.003648 0.008261 0.000000 0.000000 0.000000
# 4 0.000000 0.000000 0.000000 -0.019174 0.000000 0.000000
# 5 0.000000 0.000000 0.000000 0.000000 0.035944 0.000000
# 6 0.000000 0.000000 0.000000 0.000000 0.000000 0.028453
#
#
# Mechanical properties :
#
#
# Convention : Reuss Voigt Hill
#
# Bulk Modulus (GPa) = 96.36849 99.61883 97.99366
# Shear Modulus (GPa) = 54.44180 20.10740 37.27460
#
# Velocity S-wave (km/s) = 5.30561 3.22439 4.39011
# Velocity P-wave (km/s) = 9.34669 8.08522 8.73875
#
# Compressibility (1/GPa) = 0.01037684
#
# Stress axis : x y z
#
# Youngs Moduli (GPa) = 107.05288 109.10431 121.04799
#
# Poissons Ratio (x) = 0.40131 0.10519
# Poissons Ratio (y) = 0.39376 0.44163
# Poissons Ratio (z) = 0.09303 0.39805
#
# Static dielectric constant tensor:
#      x y z
#    x 1.674320 0.000000 0.000000 
#    y 0.000000 1.664490 0.000000 
#    z 0.000000 0.000000 1.662480 
# 
# From -- ./inp_files/66945.got.cif
#   From: 2010.05.17/outbox.cif.g08.bks.cpg/sg65_34_cif.got.tgz:66945.got - 2010.06.03 17:01:31.
