data_PCOD9493873
_publ_section_title
;
Structure prediction by ZEFSAII (Michael W. Deem and Ramdas Pophale) SiO2 
 PCOD9493873
Probable space group: C M M M
;
_chemical_formula_sum "Si O2"
_cell_formula_units_Z 88
_cell_length_a 9.566192
_cell_length_b 30.999145
_cell_length_c 17.591529
_cell_angle_alpha 90.000000
_cell_angle_beta 90.000000
_cell_angle_gamma 90.000000
_cell_volume 5216.658381
_symmetry_space_group_name_H-M "C M M M"
_symmetry_group_IT_number 65
_symmetry_cell_setting 'orthorhombic'
loop_
_space_group_symop_operation_xyz
x,y,z
-x,-y,z
x,-y,-z
-x,y,-z
-x,-y,-z
x,y,-z
-x,y,z
x,-y,z
1/2+x,1/2+y,z
1/2-x,1/2-y,z
1/2+x,1/2-y,-z
1/2-x,1/2+y,-z
1/2-x,1/2-y,-z
1/2+x,1/2+y,-z
1/2-x,1/2+y,z
1/2+x,1/2-y,z
loop_
_atom_site_type_symbol
_atom_site_label
_atom_site_fract_x
_atom_site_fract_y
_atom_site_fract_z
Si Si1 0.838609 0.614500 0.191213
Si Si2 0.668992 0.792055 0.748577
Si Si3 0.333123 0.451152 0.909679
Si Si4 0.661458 0.082046 0.635483
Si Si5 0.830575 0.323636 0.582530
Si Si6 0.840639 0.000000 0.591156
O O1 0.798221 0.664550 0.204096
O O2 0.744534 0.585903 0.136441
O O3 0.834418 0.593991 0.275559
O O4 0.000000 0.613407 0.165430
O O5 0.500000 0.786773 0.749837
O O6 0.750000 0.750000 0.776195
O O7 0.713579 0.800645 0.660441
O O8 0.500000 0.448151 0.898157
O O9 0.289584 0.500000 0.886553
O O10 0.307199 0.447160 0.000000
O O11 0.500000 0.072153 0.615191
O O12 0.704024 0.125746 0.591934
O O13 0.759564 0.042281 0.618135
O O14 0.780214 0.307726 0.500000
O O15 0.000000 0.321369 0.582730
O O16 0.841540 0.000000 0.500000
O O17 0.000000 0.000000 0.619016
#
# Coordination Sequence:
#
# PCOD9493873 Si02
#       6
#    16  16  16  16  16   8
#     4   9  19  34  52  76 103 130 166 210 247 287
#     4   9  18  32  49  72 100 128 164 209 253 298
#     4   9  19  35  54  79 110 139 165 194 236 296
#     4   9  18  32  49  67  88 123 169 208 243 292
#     4   8  14  27  47  67  89 121 162 207 251 293
#     4  11  23  33  41  61  94 127 162 209 257 294
#
# _framework density 16.869036999999999
#
# number of rings (size 3 to 8) (size 9 to 14) (size 15 to 20)
#    0.000    3.000    0.000    3.545    1.273    4.000 
#    0.000    3.636    0.000    1.636    0.000    0.000 
#    0.000    0.000    0.000    0.000    0.000    0.000 
#
# Total GULP energy -245164.636370 kJ/mol
# GULP energy per Si atom -5571.923554 kJ/mol
# Density = 1.683064 g / cm^3
# Si number density = 16.869037 Si / 1000 Ang^3
#
#
#
# Elastic Constant Matrix: (Units=GPa)
#
#
# Indices 1 2 3 4 5 6 
#
# 1 51.8208 65.0364 28.3431 0.0000 0.0000 0.0000
# 2 65.0364 141.4821 46.8295 0.0000 0.0000 0.0000
# 3 28.3431 46.8295 52.3266 0.0000 0.0000 0.0000
# 4 0.0000 0.0000 0.0000 7.0722 0.0000 0.0000
# 5 0.0000 0.0000 0.0000 0.0000 24.2532 0.0000
# 6 0.0000 0.0000 0.0000 0.0000 0.0000 28.5213
#
#
#
# Elastic Compliance Matrix: (Units=1/GPa)
#
#
# Indices 1 2 3 4 5 6 
#
# 1 0.048395 -0.019281 -0.008958 0.000000 0.000000 0.000000
# 2 -0.019281 0.017725 -0.005419 0.000000 0.000000 0.000000
# 3 -0.008958 -0.005419 0.028813 0.000000 0.000000 0.000000
# 4 0.000000 0.000000 0.000000 0.141399 0.000000 0.000000
# 5 0.000000 0.000000 0.000000 0.000000 0.041232 0.000000
# 6 0.000000 0.000000 0.000000 0.000000 0.000000 0.035061
#
#
# Mechanical properties :
#
#
# Convention : Reuss Voigt Hill
#
# Bulk Modulus (GPa) = 36.21050 58.44971 47.33011
# Shear Modulus (GPa) = 12.84863 18.99739 15.92301
#
# Velocity S-wave (km/s) = 2.76283 3.35948 3.07566
# Velocity P-wave (km/s) = 5.62938 7.05496 6.38210
#
# Compressibility (1/GPa) = 0.02761630
#
# Stress axis : x y z
#
# Youngs Moduli (GPa) = 20.66324 56.41801 34.70715
#
# Poissons Ratio (x) = 1.08781 0.31090
# Poissons Ratio (y) = 0.39841 0.18808
# Poissons Ratio (z) = 0.18510 0.30573
#
# Static dielectric constant tensor:
#      x y z
#    x 1.556590 0.000000 0.000000 
#    y 0.000000 1.565870 0.000000 
#    z 0.000000 0.000000 1.574260 
# 
# From -- ./inp_files/50299.got.cif
#   From: 2010.05.17/outbox.cif.g08.bks.cpg/sg65_26_cif.got.tgz:50299.got - 2010.06.03 17:01:31.
