data_PCOD9493057
_publ_section_title
;
Structure prediction by ZEFSAII (Michael W. Deem and Ramdas Pophale) SiO2 
 PCOD9493057
Probable space group: C M M M
;
_chemical_formula_sum "Si O2"
_cell_formula_units_Z 80
_cell_length_a 18.608408
_cell_length_b 9.015959
_cell_length_c 25.809231
_cell_angle_alpha 90.000000
_cell_angle_beta 90.000000
_cell_angle_gamma 90.000000
_cell_volume 4330.082914
_symmetry_space_group_name_H-M "C M M M"
_symmetry_group_IT_number 65
_symmetry_cell_setting 'orthorhombic'
loop_
_space_group_symop_operation_xyz
x,y,z
-x,-y,z
x,-y,-z
-x,y,-z
-x,-y,-z
x,y,-z
-x,y,z
x,-y,z
1/2+x,1/2+y,z
1/2-x,1/2-y,z
1/2+x,1/2-y,-z
1/2-x,1/2+y,-z
1/2-x,1/2-y,-z
1/2+x,1/2+y,-z
1/2-x,1/2+y,z
1/2+x,1/2-y,z
loop_
_atom_site_type_symbol
_atom_site_label
_atom_site_fract_x
_atom_site_fract_y
_atom_site_fract_z
Si Si1 0.171937 0.323602 0.848852
Si Si2 0.084325 0.677830 0.559805
Si Si3 0.172283 0.823091 0.348272
Si Si4 0.915484 0.822895 0.243900
Si Si5 0.084461 0.175948 0.939108
O O1 0.178232 0.500000 0.847302
O O2 0.250000 0.250000 0.844391
O O3 0.122893 0.265011 0.801912
O O4 0.134282 0.270061 0.901737
O O5 0.101243 0.715658 0.500000
O O6 0.092517 0.500000 0.565340
O O7 0.133583 0.760344 0.600793
O O8 0.000000 0.712588 0.568613
O O9 0.250000 0.750000 0.341905
O O10 0.123202 0.789451 0.298237
O O11 0.179701 0.000000 0.352065
O O12 0.000000 0.788850 0.246506
O O13 0.908061 0.000000 0.234184
O O14 0.000000 0.205502 0.928696
O O15 0.096226 0.000000 0.929887
O O16 0.097377 0.204254 0.000000
#
# Coordination Sequence:
#
# PCOD9493057 Si02
#       5
#    16  16  16  16  16
#     4  12  25  39  58  85 117 153 192 235 284 336
#     4   9  19  37  60  85 114 149 189 234 284 337
#     4  11  23  38  58  85 116 151 190 233 283 336
#     4  10  22  41  63  86 114 147 185 232 285 341
#     4   9  19  38  63  88 116 152 191 232 282 338
#
# _framework density 18.475396
#
# number of rings (size 3 to 8) (size 9 to 14) (size 15 to 20)
#    0.000    1.800    0.000    5.400    0.000    9.200 
#    0.000    2.000    0.000    0.000    0.000    0.000 
#    0.000    0.000    0.000    0.000    0.000    0.000 
#
# Total GULP energy -223604.045833 kJ/mol
# GULP energy per Si atom -5590.101146 kJ/mol
# Density = 1.843335 g / cm^3
# Si number density = 18.475396 Si / 1000 Ang^3
#
#
#
# Elastic Constant Matrix: (Units=GPa)
#
#
# Indices 1 2 3 4 5 6 
#
# 1 164.8248 98.9884 105.7654 0.0000 0.0000 0.0000
# 2 98.9884 90.3647 85.3405 0.0000 0.0000 0.0000
# 3 105.7654 85.3405 116.5037 0.0000 0.0000 0.0000
# 4 0.0000 0.0000 0.0000 52.4932 0.0000 0.0000
# 5 0.0000 0.0000 0.0000 0.0000-1669.9248 0.0000
# 6 0.0000 0.0000 0.0000 0.0000 0.0000 24.4020
#
#
#
# Elastic Compliance Matrix: (Units=1/GPa)
#
#
# Indices 1 2 3 4 5 6 
#
# 1 0.019161 -0.014801 -0.006553 0.000000 0.000000 0.000000
# 2 -0.014801 0.047337 -0.021239 0.000000 0.000000 0.000000
# 3 -0.006553 -0.021239 0.030090 0.000000 0.000000 0.000000
# 4 0.000000 0.000000 0.000000 0.019050 0.000000 0.000000
# 5 0.000000 0.000000 0.000000 0.000000 -0.000599 0.000000
# 6 0.000000 0.000000 0.000000 0.000000 0.000000 0.040980
#
#
# Mechanical properties :
#
#
# Convention : Reuss Voigt Hill
#
# Bulk Modulus (GPa) = 87.69368 105.76465 96.72916
# Shear Modulus (GPa) = 20.40766 -313.16601 -146.37917
#
# Velocity S-wave (km/s) = 3.32714 -13.03351 -8.91074
# Velocity P-wave (km/s) = 7.89480 13.00484 7.30746
#
# Compressibility (1/GPa) = 0.01140333
#
# Stress axis : x y z
#
# Youngs Moduli (GPa) = 52.18968 21.12496 33.23352
#
# Poissons Ratio (x) = 0.31267 0.21778
# Poissons Ratio (y) = 0.77245 0.70584
# Poissons Ratio (z) = 0.34200 0.44867
#
# Static dielectric constant tensor:
#      x y z
#    x 1.607770 0.000000 0.000000 
#    y 0.000000 1.613800 0.000000 
#    z 0.000000 0.000000 1.614730 
# 
# From -- ./inp_files/72750.got.cif
#   From: 2010.05.17/outbox.cif.g08.bks.cpg/sg65_37_cif.got.tgz:72750.got - 2010.06.03 17:01:31.
