data_PCOD9493405
_publ_section_title
;
Structure prediction by ZEFSAII (Michael W. Deem and Ramdas Pophale) SiO2 
 PCOD9493405
Probable space group: C M M M
;
_chemical_formula_sum "Si O2"
_cell_formula_units_Z 80
_cell_length_a 26.837002
_cell_length_b 19.826053
_cell_length_c 8.653708
_cell_angle_alpha 90.000000
_cell_angle_beta 90.000000
_cell_angle_gamma 90.000000
_cell_volume 4604.394200
_symmetry_space_group_name_H-M "C M M M"
_symmetry_group_IT_number 65
_symmetry_cell_setting 'orthorhombic'
loop_
_space_group_symop_operation_xyz
x,y,z
-x,-y,z
x,-y,-z
-x,y,-z
-x,-y,-z
x,y,-z
-x,y,z
x,-y,z
1/2+x,1/2+y,z
1/2-x,1/2-y,z
1/2+x,1/2-y,-z
1/2-x,1/2+y,-z
1/2-x,1/2-y,-z
1/2+x,1/2+y,-z
1/2-x,1/2+y,z
1/2+x,1/2-y,z
loop_
_atom_site_type_symbol
_atom_site_label
_atom_site_fract_x
_atom_site_fract_y
_atom_site_fract_z
Si Si1 0.809753 0.579655 0.814574
Si Si2 0.000000 0.330729 0.177482
Si Si3 0.500000 0.666665 0.178015
Si Si4 0.605322 0.174651 0.317044
Si Si5 0.803113 0.077351 0.811712
Si Si6 0.608278 0.674927 0.188186
O O1 0.816714 0.500000 0.783934
O O2 0.851147 0.624591 0.734238
O O3 0.753077 0.597173 0.765989
O O4 0.813283 0.589188 0.000000
O O5 0.948613 0.350856 0.258179
O O6 0.000000 0.248576 0.177932
O O7 0.000000 0.352902 0.000000
O O8 0.554023 0.648416 0.244793
O O9 0.500000 0.643097 0.000000
O O10 0.603736 0.181667 0.500000
O O11 0.614337 0.248386 0.243219
O O12 0.846238 0.127955 0.760999
O O13 0.812167 0.000000 0.762975
O O14 0.803376 0.077261 0.000000
O O15 0.606722 0.675634 0.000000
#
# Coordination Sequence:
#
# PCOD9493405 Si02
#       6
#    16   8   8  16  16  16
#     4   9  18  34  53  70  92 127 169 209 251 296
#     4   9  17  33  54  73  96 127 163 198 238 287
#     4   7  12  23  42  68  94 122 153 188 234 285
#     4  11  21  32  49  75 104 129 158 198 244 294
#     4   8  15  29  50  73  95 125 170 218 253 284
#     4   9  16  29  49  71  98 132 169 206 245 291
#
# _framework density 17.374707000000001
#
# number of rings (size 3 to 8) (size 9 to 14) (size 15 to 20)
#    0.000    3.000    0.000    4.500    0.000    1.200 
#    0.000    6.000    0.000    7.800    0.000    0.000 
#    0.000    4.800    0.000    0.000    0.000    0.000 
#
# Total GULP energy -222798.481725 kJ/mol
# GULP energy per Si atom -5569.962043 kJ/mol
# Density = 1.733516 g / cm^3
# Si number density = 17.374707 Si / 1000 Ang^3
#
#
#
# Elastic Constant Matrix: (Units=GPa)
#
#
# Indices 1 2 3 4 5 6 
#
# 1 192.5637 79.7077 42.7828 0.0000 0.0000 0.0000
# 2 79.7077 48.4855 25.0697 0.0000 0.0000 0.0000
# 3 42.7828 25.0697 33.6288 0.0000 0.0000 0.0000
# 4 0.0000 0.0000 0.0000 -2.6320 0.0000 0.0000
# 5 0.0000 0.0000 0.0000 0.0000 1.4193 0.0000
# 6 0.0000 0.0000 0.0000 0.0000 0.0000 -35.5215
#
#
#
# Elastic Compliance Matrix: (Units=1/GPa)
#
#
# Indices 1 2 3 4 5 6 
#
# 1 0.016284 -0.026131 -0.001237 0.000000 0.000000 0.000000
# 2 -0.026131 0.075493 -0.023035 0.000000 0.000000 0.000000
# 3 -0.001237 -0.023035 0.048482 0.000000 0.000000 0.000000
# 4 0.000000 0.000000 0.000000 -0.379932 0.000000 0.000000
# 5 0.000000 0.000000 0.000000 0.000000 0.704581 0.000000
# 6 0.000000 0.000000 0.000000 0.000000 0.000000 -0.028152
#
#
# Mechanical properties :
#
#
# Convention : Reuss Voigt Hill
#
# Bulk Modulus (GPa) = 25.34587 63.31093 44.32840
# Shear Modulus (GPa) = 9.07915 1.12766 5.10340
#
# Velocity S-wave (km/s) = 2.28841 0.80649 1.71570
# Velocity P-wave (km/s) = 4.64779 6.11432 5.43078
#
# Compressibility (1/GPa) = 0.03945416
#
# Stress axis : x y z
#
# Youngs Moduli (GPa) = 61.40910 13.24623 20.62627
#
# Poissons Ratio (x) = 0.34614 0.02551
# Poissons Ratio (y) = 1.60468 0.47512
# Poissons Ratio (z) = 0.07594 0.30513
#
# Static dielectric constant tensor:
#      x y z
#    x 1.616500 0.000000 0.000000 
#    y 0.000000 1.560030 0.000000 
#    z 0.000000 0.000000 1.579810 
# 
# From -- ./inp_files/11611.got.cif
#   From: 2010.05.17/outbox.cif.g08.bks.cpg/sg65_6_cif.got.tgz:11611.got - 2010.06.03 17:01:31.
