data_PCOD9493127
_publ_section_title
;
Structure prediction by ZEFSAII (Michael W. Deem and Ramdas Pophale) SiO2 
 PCOD9493127
Probable space group: C M M M
;
_chemical_formula_sum "Si O2"
_cell_formula_units_Z 72
_cell_length_a 28.079563
_cell_length_b 16.093436
_cell_length_c 7.890081
_cell_angle_alpha 90.000000
_cell_angle_beta 90.000000
_cell_angle_gamma 90.000000
_cell_volume 3565.501173
_symmetry_space_group_name_H-M "C M M M"
_symmetry_group_IT_number 65
_symmetry_cell_setting 'orthorhombic'
loop_
_space_group_symop_operation_xyz
x,y,z
-x,-y,z
x,-y,-z
-x,y,-z
-x,-y,-z
x,y,-z
-x,y,z
x,-y,z
1/2+x,1/2+y,z
1/2-x,1/2-y,z
1/2+x,1/2-y,-z
1/2-x,1/2+y,-z
1/2-x,1/2-y,-z
1/2+x,1/2+y,-z
1/2-x,1/2+y,z
1/2+x,1/2-y,z
loop_
_atom_site_type_symbol
_atom_site_label
_atom_site_fract_x
_atom_site_fract_y
_atom_site_fract_z
Si Si1 0.053144 0.400647 0.797865
Si Si2 0.348863 0.831633 0.688922
Si Si3 0.800926 0.500000 0.187062
Si Si4 0.626252 0.345045 0.705851
Si Si5 0.803952 0.000000 0.302585
Si Si6 0.443795 0.600618 0.000000
O O1 0.056243 0.500000 0.772314
O O2 0.095796 0.357639 0.701406
O O3 0.000000 0.373865 0.747979
O O4 0.058646 0.385901 0.000000
O O5 0.332457 0.815633 0.500000
O O6 0.320133 0.912990 0.742301
O O7 0.348892 0.740323 0.769124
O O8 0.744215 0.500000 0.197311
O O9 0.820923 0.500000 0.000000
O O10 0.614712 0.340048 0.500000
O O11 0.663338 0.419983 0.726496
O O12 0.582048 0.364112 0.830697
O O13 0.788913 0.000000 0.500000
O O14 0.438582 0.500000 0.000000
O O15 0.500000 0.620527 0.000000
#
# Coordination Sequence:
#
# PCOD9493127 Si02
#       6
#    16  16   8  16   8   8
#     4   9  18  33  54  80 115 160 205 252 309 370
#     4  11  23  40  61  90 128 171 217 266 319 388
#     4  12  26  40  63  97 129 165 213 274 331 390
#     4  10  24  44  69  96 133 177 218 270 329 390
#     4  10  22  46  70  90 123 167 213 273 336 393
#     4  11  24  42  72 104 136 176 220 271 324 393
#
# _framework density 20.193515000000001
#
# number of rings (size 3 to 8) (size 9 to 14) (size 15 to 20)
#    0.000    1.667    2.222    2.333    4.667    2.667 
#    0.000    8.889    0.000    0.000    0.000    0.000 
#    0.000    0.000    0.000    0.000    0.000    0.000 
#
# Total GULP energy -200749.907924 kJ/mol
# GULP energy per Si atom -5576.386331 kJ/mol
# Density = 2.014755 g / cm^3
# Si number density = 20.193515 Si / 1000 Ang^3
#
#
#
# Elastic Constant Matrix: (Units=GPa)
#
#
# Indices 1 2 3 4 5 6 
#
# 1 79.8651 52.4520 29.2065 0.0000 0.0000 0.0000
# 2 52.4520 143.8371 41.9125 0.0000 0.0000 0.0000
# 3 29.2065 41.9125 53.7625 0.0000 0.0000 0.0000
# 4 0.0000 0.0000 0.0000 32.8715 0.0000 0.0000
# 5 0.0000 0.0000 0.0000 0.0000 30.9711 0.0000
# 6 0.0000 0.0000 0.0000 0.0000 0.0000 -12.1371
#
#
#
# Elastic Compliance Matrix: (Units=1/GPa)
#
#
# Indices 1 2 3 4 5 6 
#
# 1 0.017834 -0.004762 -0.005976 0.000000 0.000000 0.000000
# 2 -0.004762 0.010267 -0.005417 0.000000 0.000000 0.000000
# 3 -0.005976 -0.005417 0.026070 0.000000 0.000000 0.000000
# 4 0.000000 0.000000 0.000000 0.030422 0.000000 0.000000
# 5 0.000000 0.000000 0.000000 0.000000 0.032288 0.000000
# 6 0.000000 0.000000 0.000000 0.000000 0.000000 -0.082392
#
#
# Mechanical properties :
#
#
# Convention : Reuss Voigt Hill
#
# Bulk Modulus (GPa) = 45.74392 58.28964 52.01678
# Shear Modulus (GPa) = 67.48845 20.60067 44.04456
#
# Velocity S-wave (km/s) = 5.78735 3.19746 4.67532
# Velocity P-wave (km/s) = 8.20730 6.52379 7.41349
#
# Compressibility (1/GPa) = 0.02186083
#
# Stress axis : x y z
#
# Youngs Moduli (GPa) = 56.07265 97.39553 38.35831
#
# Poissons Ratio (x) = 0.46381 0.22922
# Poissons Ratio (y) = 0.26702 0.20780
# Poissons Ratio (z) = 0.33508 0.52762
#
# Static dielectric constant tensor:
#      x y z
#    x 1.680580 0.000000 0.000000 
#    y 0.000000 0.312520 0.000000 
#    z 0.000000 0.000000 1.761180 
# 
# From -- ./inp_files/15843.got.cif
#   From: 2010.05.17/outbox.cif.g08.bks.cpg/sg65_8_cif.got.tgz:15843.got - 2010.06.03 17:01:31.
