data_PCOD9493895
_publ_section_title
;
Structure prediction by ZEFSAII (Michael W. Deem and Ramdas Pophale) SiO2 
 PCOD9493895
Probable space group: C M M M
;
_chemical_formula_sum "Si O2"
_cell_formula_units_Z 56
_cell_length_a 8.108727
_cell_length_b 22.061897
_cell_length_c 14.616355
_cell_angle_alpha 90.000000
_cell_angle_beta 90.000000
_cell_angle_gamma 90.000000
_cell_volume 2614.776748
_symmetry_space_group_name_H-M "C M M M"
_symmetry_group_IT_number 65
_symmetry_cell_setting 'orthorhombic'
loop_
_space_group_symop_operation_xyz
x,y,z
-x,-y,z
x,-y,-z
-x,y,-z
-x,-y,-z
x,y,-z
-x,y,z
x,-y,z
1/2+x,1/2+y,z
1/2-x,1/2-y,z
1/2+x,1/2-y,-z
1/2-x,1/2+y,-z
1/2-x,1/2-y,-z
1/2+x,1/2+y,-z
1/2-x,1/2+y,z
1/2+x,1/2-y,z
loop_
_atom_site_type_symbol
_atom_site_label
_atom_site_fract_x
_atom_site_fract_y
_atom_site_fract_z
Si Si1 0.187454 0.000000 0.611143
Si Si2 0.198603 0.433765 0.893149
Si Si3 0.695107 0.685968 0.212803
Si Si4 0.202766 0.133033 0.395991
O O1 0.262209 0.934688 0.632541
O O2 0.177536 0.000000 0.500000
O O3 0.000000 0.000000 0.647151
O O4 0.255789 0.500000 0.857023
O O5 0.257409 0.374292 0.841565
O O6 0.000000 0.434013 0.889876
O O7 0.247200 0.430346 0.000000
O O8 0.500000 0.687578 0.217795
O O9 0.750000 0.750000 0.172307
O O10 0.759538 0.677881 0.316885
O O11 0.254642 0.146498 0.500000
O O12 0.000000 0.130729 0.397315
#
# Coordination Sequence:
#
# PCOD9493895 Si02
#       4
#     8  16  16  16
#     4   7  10  20  40  66  96 129 170 222 273 317
#     4   9  20  41  66  88 112 144 181 227 288 350
#     4  11  23  36  55  84 118 154 194 236 280 331
#     4   8  15  28  47  74 109 148 188 230 277 328
#
# _framework density 21.416743
#
# number of rings (size 3 to 8) (size 9 to 14) (size 15 to 20)
#    0.000    3.000    0.000    3.429    2.000    2.286 
#    0.000    1.429    0.000    2.571    0.000    2.000 
#    0.000    0.000    0.000    0.000    0.000    0.000 
#
# Total GULP energy -156110.245560 kJ/mol
# GULP energy per Si atom -5575.365913 kJ/mol
# Density = 2.136800 g / cm^3
# Si number density = 21.416743 Si / 1000 Ang^3
#
#
#
# Elastic Constant Matrix: (Units=GPa)
#
#
# Indices 1 2 3 4 5 6 
#
# 1 17.1175 20.3571 14.8956 0.0000 0.0000 0.0000
# 2 20.3571 184.3342 68.3897 0.0000 0.0000 0.0000
# 3 14.8956 68.3897 66.8468 0.0000 0.0000 0.0000
# 4 0.0000 0.0000 0.0000 4.4598 0.0000 0.0000
# 5 0.0000 0.0000 0.0000 0.0000 92.3684 0.0000
# 6 0.0000 0.0000 0.0000 0.0000 0.0000 18.6887
#
#
#
# Elastic Compliance Matrix: (Units=1/GPa)
#
#
# Indices 1 2 3 4 5 6 
#
# 1 0.073696 -0.003298 -0.013048 0.000000 0.000000 0.000000
# 2 -0.003298 0.008891 -0.008362 0.000000 0.000000 0.000000
# 3 -0.013048 -0.008362 0.026422 0.000000 0.000000 0.000000
# 4 0.000000 0.000000 0.000000 0.224228 0.000000 0.000000
# 5 0.000000 0.000000 0.000000 0.000000 0.010826 0.000000
# 6 0.000000 0.000000 0.000000 0.000000 0.000000 0.053508
#
#
# Mechanical properties :
#
#
# Convention : Reuss Voigt Hill
#
# Bulk Modulus (GPa) = 16.78017 52.84259 34.81138
# Shear Modulus (GPa) = 10.71006 34.08044 22.39525
#
# Velocity S-wave (km/s) = 2.23867 3.99344 3.23722
# Velocity P-wave (km/s) = 3.81238 6.78163 5.50112
#
# Compressibility (1/GPa) = 0.05959416
#
# Stress axis : x y z
#
# Youngs Moduli (GPa) = 13.56929 112.46789 37.84744
#
# Poissons Ratio (x) = 0.37090 0.49383
# Poissons Ratio (y) = 0.04475 0.31647
# Poissons Ratio (z) = 0.17705 0.94043
#
# Static dielectric constant tensor:
#      x y z
#    x 1.750950 0.000000 0.000000 
#    y 0.000000 1.780330 0.000000 
#    z 0.000000 0.000000 1.796370 
# 
# From -- ./inp_files/35461.got.cif
#   From: 2010.05.17/outbox.cif.g08.bks.cpg/sg65_18_cif.got.tgz:35461.got - 2010.06.03 17:01:31.
