data_PCOD9493669
_publ_section_title
;
Structure prediction by ZEFSAII (Michael W. Deem and Ramdas Pophale) SiO2 
 PCOD9493669
Probable space group: C M M M
;
_chemical_formula_sum "Si O2"
_cell_formula_units_Z 88
_cell_length_a 27.757228
_cell_length_b 19.752266
_cell_length_c 8.565372
_cell_angle_alpha 90.000000
_cell_angle_beta 90.000000
_cell_angle_gamma 90.000000
_cell_volume 4696.120668
_symmetry_space_group_name_H-M "C M M M"
_symmetry_group_IT_number 65
_symmetry_cell_setting 'orthorhombic'
loop_
_space_group_symop_operation_xyz
x,y,z
-x,-y,z
x,-y,-z
-x,y,-z
-x,-y,-z
x,y,-z
-x,y,z
x,-y,z
1/2+x,1/2+y,z
1/2-x,1/2-y,z
1/2+x,1/2-y,-z
1/2-x,1/2+y,-z
1/2-x,1/2-y,-z
1/2+x,1/2+y,-z
1/2-x,1/2+y,z
1/2+x,1/2-y,z
loop_
_atom_site_type_symbol
_atom_site_label
_atom_site_fract_x
_atom_site_fract_y
_atom_site_fract_z
Si Si1 0.444133 0.425277 0.809874
Si Si2 0.776093 0.177606 0.317295
Si Si3 0.380791 0.700534 0.186033
Si Si4 0.000000 0.421388 0.309734
Si Si5 0.099262 0.650673 0.312787
Si Si6 0.195125 0.421264 0.812875
O O1 0.500000 0.418146 0.765153
O O2 0.427022 0.500000 0.759250
O O3 0.413191 0.361936 0.756050
O O4 0.442554 0.425068 0.000000
O O5 0.786537 0.166964 0.500000
O O6 0.750000 0.250000 0.300967
O O7 0.825755 0.182566 0.224485
O O8 0.739457 0.120868 0.257148
O O9 0.395804 0.771316 0.262924
O O10 0.386632 0.707567 0.000000
O O11 0.951239 0.382867 0.260381
O O12 0.000000 0.500000 0.259505
O O13 0.000000 0.421396 0.500000
O O14 0.101544 0.646360 0.500000
O O15 0.145007 0.610894 0.244404
O O16 0.197479 0.500000 0.767448
O O17 0.197132 0.416484 0.000000
#
# Coordination Sequence:
#
# PCOD9493669 Si02
#       6
#    16  16  16   8  16  16
#     4   8  16  33  56  83 116 153 191 232 284 345
#     4  11  23  40  61  85 116 156 199 239 288 351
#     4  11  22  35  59  90 121 153 193 249 300 347
#     4   9  20  38  59  83 114 155 200 244 289 345
#     4  11  22  38  60  87 119 159 201 240 289 354
#     4  11  24  41  63  91 120 152 194 244 297 351
#
# _framework density 18.738871
#
# number of rings (size 3 to 8) (size 9 to 14) (size 15 to 20)
#    0.000    1.727    1.818    3.273    1.273    3.636 
#    0.000    3.182    0.000    4.909    0.000    5.091 
#    0.000    0.000    0.000    0.000    0.000    0.000 
#
# Total GULP energy -245784.751243 kJ/mol
# GULP energy per Si atom -5586.017074 kJ/mol
# Density = 1.869622 g / cm^3
# Si number density = 18.738871 Si / 1000 Ang^3
#
#
#
# Elastic Constant Matrix: (Units=GPa)
#
#
# Indices 1 2 3 4 5 6 
#
# 1 85.4227 61.1876 -4.3139 0.0000 0.0000 0.0000
# 2 61.1876 160.0113 21.7758 0.0000 0.0000 0.0000
# 3 -4.3139 21.7758 19.0641 0.0000 0.0000 0.0000
# 4 0.0000 0.0000 0.0000 7.6041 0.0000 0.0000
# 5 0.0000 0.0000 0.0000 0.0000 -9.8897 0.0000
# 6 0.0000 0.0000 0.0000 0.0000 0.0000 36.4374
#
#
#
# Elastic Compliance Matrix: (Units=1/GPa)
#
#
# Indices 1 2 3 4 5 6 
#
# 1 0.019194 -0.009390 0.015069 0.000000 0.000000 0.000000
# 2 -0.009390 0.011994 -0.015825 0.000000 0.000000 0.000000
# 3 0.015069 -0.015825 0.073940 0.000000 0.000000 0.000000
# 4 0.000000 0.000000 0.000000 0.131508 0.000000 0.000000
# 5 0.000000 0.000000 0.000000 0.000000 -0.101116 0.000000
# 6 0.000000 0.000000 0.000000 0.000000 0.000000 0.027444
#
#
# Mechanical properties :
#
#
# Convention : Reuss Voigt Hill
#
# Bulk Modulus (GPa) = 11.78744 46.86637 29.32691
# Shear Modulus (GPa) = 23.63671 19.22027 21.42849
#
# Velocity S-wave (km/s) = 3.55543 3.20611 3.38528
# Velocity P-wave (km/s) = 4.81236 6.22656 5.56457
#
# Compressibility (1/GPa) = 0.08483606
#
# Stress axis : x y z
#
# Youngs Moduli (GPa) = 52.10030 83.37498 13.52442
#
# Poissons Ratio (x) = 0.78292 -0.20380
# Poissons Ratio (y) = 0.48924 0.21402
# Poissons Ratio (z) = -0.78511 1.31940
#
# Static dielectric constant tensor:
#      x y z
#    x 1.581750 0.000000 0.000000 
#    y 0.000000 1.632890 0.000000 
#    z 0.000000 0.000000 1.639570 
# 
# From -- ./inp_files/13948.got.cif
#   From: 2010.05.17/outbox.cif.g08.bks.cpg/sg65_7_cif.got.tgz:13948.got - 2010.06.03 17:01:31.
