data_PCOD9493238
_publ_section_title
;
Structure prediction by ZEFSAII (Michael W. Deem and Ramdas Pophale) SiO2 
 PCOD9493238
Probable space group: C M M M
;
_chemical_formula_sum "Si O2"
_cell_formula_units_Z 50
_cell_length_a 16.845955
_cell_length_b 11.730716
_cell_length_c 13.654366
_cell_angle_alpha 90.000000
_cell_angle_beta 90.000000
_cell_angle_gamma 90.000000
_cell_volume 2698.309092
_symmetry_space_group_name_H-M "C M M M"
_symmetry_group_IT_number 65
_symmetry_cell_setting 'orthorhombic'
loop_
_space_group_symop_operation_xyz
x,y,z
-x,-y,z
x,-y,-z
-x,y,-z
-x,-y,-z
x,y,-z
-x,y,z
x,-y,z
1/2+x,1/2+y,z
1/2-x,1/2-y,z
1/2+x,1/2-y,-z
1/2-x,1/2+y,-z
1/2-x,1/2-y,-z
1/2+x,1/2+y,-z
1/2-x,1/2+y,z
1/2+x,1/2-y,z
loop_
_atom_site_type_symbol
_atom_site_label
_atom_site_fract_x
_atom_site_fract_y
_atom_site_fract_z
Si Si1 0.500000 0.000000 0.000000
Si Si2 0.904406 0.867550 0.108993
Si Si3 0.830648 0.500000 0.105930
Si Si4 0.094747 0.500000 0.386756
Si Si5 0.171335 0.694374 0.744123
O O1 0.572996 0.000000 0.915947
O O2 0.877021 0.792446 0.200078
O O3 0.000000 0.863256 0.107096
O O4 0.881244 0.000000 0.118764
O O5 0.878510 0.824893 0.000000
O O6 0.806381 0.609491 0.167150
O O7 0.792643 0.500000 0.000000
O O8 0.119894 0.500000 0.500000
O O9 0.126071 0.387265 0.331240
O O10 0.000000 0.500000 0.382284
O O11 0.250000 0.750000 0.699881
#
# Coordination Sequence:
#
# PCOD9493238 Si02
#       5
#     2  16   8   8  16
#     4   8  20  36  52  84 120 176 210 256 272 306
#     4   9  19  33  52  79 118 164 199 224 262 329
#     4   9  21  33  54  82 120 162 213 235 279 322
#     4  10  24  46  70  89 105 140 198 255 305 365
#     4  11  23  35  58  87 119 152 187 244 302 352
#
# _framework density 18.530123
#
# number of rings (size 3 to 8) (size 9 to 14) (size 15 to 20)
#    0.480    1.760    0.000    2.880   11.200    3.200 
#    0.000    0.000    0.000    0.000    0.000    4.480 
#    0.000    0.000    0.000    0.000    0.000    0.000 
#
# Total GULP energy -139195.154851 kJ/mol
# GULP energy per Si atom -5567.806194 kJ/mol
# Density = 1.848795 g / cm^3
# Si number density = 18.530123 Si / 1000 Ang^3
#
#
#
# Elastic Constant Matrix: (Units=GPa)
#
#
# Indices 1 2 3 4 5 6 
#
# 1 68.0880 39.3279 32.3162 0.0000 0.0000 0.0000
# 2 39.3279 91.8735 58.2483 0.0000 0.0000 0.0000
# 3 32.3162 58.2483 129.6606 0.0000 0.0000 0.0000
# 4 0.0000 0.0000 0.0000 16.7676 0.0000 0.0000
# 5 0.0000 0.0000 0.0000 0.0000 11.2583 0.0000
# 6 0.0000 0.0000 0.0000 0.0000 0.0000 12.6903
#
#
#
# Elastic Compliance Matrix: (Units=1/GPa)
#
#
# Indices 1 2 3 4 5 6 
#
# 1 0.019737 -0.007453 -0.001571 0.000000 0.000000 0.000000
# 2 -0.007453 0.018033 -0.006244 0.000000 0.000000 0.000000
# 3 -0.001571 -0.006244 0.010909 0.000000 0.000000 0.000000
# 4 0.000000 0.000000 0.000000 0.059639 0.000000 0.000000
# 5 0.000000 0.000000 0.000000 0.000000 0.088823 0.000000
# 6 0.000000 0.000000 0.000000 0.000000 0.000000 0.078801
#
#
# Mechanical properties :
#
#
# Convention : Reuss Voigt Hill
#
# Bulk Modulus (GPa) = 55.11383 61.04519 58.07951
# Shear Modulus (GPa) = 15.99868 18.79188 17.39528
#
# Velocity S-wave (km/s) = 2.94153 3.18799 3.06724
# Velocity P-wave (km/s) = 6.42995 6.82395 6.62988
#
# Compressibility (1/GPa) = 0.01814427
#
# Stress axis : x y z
#
# Youngs Moduli (GPa) = 50.66544 55.45280 91.66765
#
# Poissons Ratio (x) = 0.41327 0.14403
# Poissons Ratio (y) = 0.37759 0.57235
# Poissons Ratio (z) = 0.07961 0.34623
#
# Static dielectric constant tensor:
#      x y z
#    x 1.684830 0.000000 0.000000 
#    y 0.000000 1.665510 0.000000 
#    z 0.000000 0.000000 1.615900 
# 
# From -- ./inp_files/41774.got.cif
#   From: 2010.05.17/outbox.cif.g08.bks.cpg/sg65_21_cif.got.tgz:41774.got - 2010.06.03 17:01:31.
