data_PCOD9493191
_publ_section_title
;
Structure prediction by ZEFSAII (Michael W. Deem and Ramdas Pophale) SiO2 
 PCOD9493191
Probable space group: C M M M
;
_chemical_formula_sum "Si O2"
_cell_formula_units_Z 42
_cell_length_a 12.585259
_cell_length_b 19.838615
_cell_length_c 9.348160
_cell_angle_alpha 90.000000
_cell_angle_beta 90.000000
_cell_angle_gamma 90.000000
_cell_volume 2333.993509
_symmetry_space_group_name_H-M "C M M M"
_symmetry_group_IT_number 65
_symmetry_cell_setting 'orthorhombic'
loop_
_space_group_symop_operation_xyz
x,y,z
-x,-y,z
x,-y,-z
-x,y,-z
-x,-y,-z
x,y,-z
-x,y,z
x,-y,z
1/2+x,1/2+y,z
1/2-x,1/2-y,z
1/2+x,1/2-y,-z
1/2-x,1/2+y,-z
1/2-x,1/2-y,-z
1/2+x,1/2+y,-z
1/2-x,1/2+y,z
1/2+x,1/2-y,z
loop_
_atom_site_type_symbol
_atom_site_label
_atom_site_fract_x
_atom_site_fract_y
_atom_site_fract_z
Si Si1 0.211954 0.826818 0.831647
Si Si2 0.000000 0.000000 0.500000
Si Si3 0.500000 0.359739 0.658187
Si Si4 0.874512 0.420184 0.667186
O O1 0.250000 0.750000 0.813372
O O2 0.104282 0.839685 0.744926
O O3 0.301763 0.875790 0.768075
O O4 0.196006 0.839300 0.000000
O O5 0.000000 0.939496 0.622114
O O6 0.500000 0.326343 0.500000
O O7 0.849409 0.406156 0.500000
O O8 0.856065 0.500000 0.689627
O O9 0.000000 0.407517 0.688651
#
# Coordination Sequence:
#
# PCOD9493191 Si02
#       4
#    16   2   8  16
#     4  11  25  41  60  89 129 166 202 253 309 371
#     4   8  24  44  66  96 122 156 204 280 300 366
#     4  10  23  43  67  89 122 159 209 257 312 362
#     4   9  20  39  63  90 120 156 204 256 302 356
#
# _framework density 17.994909
#
# number of rings (size 3 to 8) (size 9 to 14) (size 15 to 20)
#    0.571    1.524    0.000    2.857    5.333    4.571 
#    0.000    2.857    0.000    0.000    0.000    0.000 
#    0.000    0.000    0.000    0.000    0.000    0.000 
#
# Total GULP energy -116962.271388 kJ/mol
# GULP energy per Si atom -5569.631971 kJ/mol
# Density = 1.795395 g / cm^3
# Si number density = 17.994909 Si / 1000 Ang^3
#
#
#
# Elastic Constant Matrix: (Units=GPa)
#
#
# Indices 1 2 3 4 5 6 
#
# 1 102.4404 76.7872 112.7613 0.0000 0.0000 0.0000
# 2 76.7872 77.2424 98.1788 0.0000 0.0000 0.0000
# 3 112.7613 98.1788 172.9959 0.0000 0.0000 0.0000
# 4 0.0000 0.0000 0.0000 40.8712 0.0000 0.0000
# 5 0.0000 0.0000 0.0000 0.0000 -19.9502 0.0000
# 6 0.0000 0.0000 0.0000 0.0000 0.0000 6.5487
#
#
#
# Elastic Compliance Matrix: (Units=1/GPa)
#
#
# Indices 1 2 3 4 5 6 
#
# 1 0.046866 -0.027855 -0.014740 0.000000 0.000000 0.000000
# 2 -0.027855 0.063016 -0.017606 0.000000 0.000000 0.000000
# 3 -0.014740 -0.017606 0.025380 0.000000 0.000000 0.000000
# 4 0.000000 0.000000 0.000000 0.024467 0.000000 0.000000
# 5 0.000000 0.000000 0.000000 0.000000 -0.050125 0.000000
# 6 0.000000 0.000000 0.000000 0.000000 0.000000 0.152703
#
#
# Mechanical properties :
#
#
# Convention : Reuss Voigt Hill
#
# Bulk Modulus (GPa) = 67.29681 103.12592 85.21136
# Shear Modulus (GPa) = 12.89781 9.82402 11.36091
#
# Velocity S-wave (km/s) = 2.68012 2.33906 2.51537
# Velocity P-wave (km/s) = 6.85976 8.04535 7.47609
#
# Compressibility (1/GPa) = 0.01485954
#
# Stress axis : x y z
#
# Youngs Moduli (GPa) = 21.33738 15.86904 39.40119
#
# Poissons Ratio (x) = 0.44204 0.58076
# Poissons Ratio (y) = 0.59436 0.69371
# Poissons Ratio (z) = 0.31450 0.27940
#
# Static dielectric constant tensor:
#      x y z
#    x 1.580820 0.000000 0.000000 
#    y 0.000000 1.589280 0.000000 
#    z 0.000000 0.000000 1.601640 
# 
# From -- ./inp_files/3861.got.cif
#   From: 2010.05.17/outbox.cif.g08.bks.cpg/sg65_2_cif.got.tgz:3861.got - 2010.06.03 17:01:31.
