data_PCOD9493116
_publ_section_title
;
Structure prediction by ZEFSAII (Michael W. Deem and Ramdas Pophale) SiO2 
 PCOD9493116
Probable space group: C M M M
;
_chemical_formula_sum "Si O2"
_cell_formula_units_Z 58
_cell_length_a 15.083306
_cell_length_b 14.691969
_cell_length_c 11.748903
_cell_angle_alpha 90.000000
_cell_angle_beta 90.000000
_cell_angle_gamma 90.000000
_cell_volume 2603.597605
_symmetry_space_group_name_H-M "C M M M"
_symmetry_group_IT_number 65
_symmetry_cell_setting 'orthorhombic'
loop_
_space_group_symop_operation_xyz
x,y,z
-x,-y,z
x,-y,-z
-x,y,-z
-x,-y,-z
x,y,-z
-x,y,z
x,-y,z
1/2+x,1/2+y,z
1/2-x,1/2-y,z
1/2+x,1/2-y,-z
1/2-x,1/2+y,-z
1/2-x,1/2-y,-z
1/2+x,1/2+y,-z
1/2-x,1/2+y,z
1/2+x,1/2-y,z
loop_
_atom_site_type_symbol
_atom_site_label
_atom_site_fract_x
_atom_site_fract_y
_atom_site_fract_z
Si Si1 0.894963 0.650514 0.000000
Si Si2 0.394432 0.500000 0.191793
Si Si3 0.324213 0.828395 0.239038
Si Si4 0.246993 0.000000 0.366381
Si Si5 0.394522 0.365611 0.000000
Si Si6 0.500000 0.809743 0.627748
Si Si7 0.000000 0.500000 0.500000
O O1 0.850142 0.625095 0.118638
O O2 0.881260 0.759706 0.000000
O O3 0.000000 0.629726 0.000000
O O4 0.500000 0.500000 0.201028
O O5 0.350280 0.500000 0.313042
O O6 0.363135 0.414928 0.114260
O O7 0.250000 0.750000 0.227697
O O8 0.413514 0.787870 0.297017
O O9 0.292393 0.908779 0.320824
O O10 0.251446 0.000000 0.500000
O O11 0.500000 0.381890 0.000000
O O12 0.500000 0.766642 0.500000
O O13 0.500000 0.918027 0.597703
#
# Coordination Sequence:
#
# PCOD9493116 Si02
#       7
#     8   8  16   8   8   8   2
#     4  11  22  43  68 105 139 177 224 295 368 423
#     4   9  18  38  65  98 131 182 234 278 344 435
#     4  12  26  46  73 106 141 183 239 294 356 426
#     4  12  28  45  66  97 140 191 237 294 348 416
#     4   8  16  33  66  95 130 171 217 274 354 427
#     4  10  22  43  73  98 135 195 238 283 338 414
#     4   8  20  44  72  98 132 196 248 272 354 392
#
# _framework density 22.276869000000001
#
# number of rings (size 3 to 8) (size 9 to 14) (size 15 to 20)
#    0.414    1.103    1.379    4.552    1.931    5.241 
#    2.483    0.690    0.000    0.000    0.000    0.000 
#    0.000    0.000    0.000    0.000    0.000    0.000 
#
# Total GULP energy -161914.131409 kJ/mol
# GULP energy per Si atom -5583.245911 kJ/mol
# Density = 2.222617 g / cm^3
# Si number density = 22.276869 Si / 1000 Ang^3
#
#
#
# Elastic Constant Matrix: (Units=GPa)
#
#
# Indices 1 2 3 4 5 6 
#
# 1 137.0933 24.3372 70.0273 0.0000 0.0000 0.0000
# 2 24.3372 49.3328 22.2475 0.0000 0.0000 0.0000
# 3 70.0273 22.2475 211.9685 0.0000 0.0000 0.0000
# 4 0.0000 0.0000 0.0000 28.2998 0.0000 0.0000
# 5 0.0000 0.0000 0.0000 0.0000 13.9996 0.0000
# 6 0.0000 0.0000 0.0000 0.0000 0.0000 13.0449
#
#
#
# Elastic Compliance Matrix: (Units=1/GPa)
#
#
# Indices 1 2 3 4 5 6 
#
# 1 0.009275 -0.003352 -0.002712 0.000000 0.000000 0.000000
# 2 -0.003352 0.022489 -0.001253 0.000000 0.000000 0.000000
# 3 -0.002712 -0.001253 0.005745 0.000000 0.000000 0.000000
# 4 0.000000 0.000000 0.000000 0.035336 0.000000 0.000000
# 5 0.000000 0.000000 0.000000 0.000000 0.071430 0.000000
# 6 0.000000 0.000000 0.000000 0.000000 0.000000 0.076658
#
#
# Mechanical properties :
#
#
# Convention : Reuss Voigt Hill
#
# Bulk Modulus (GPa) = 43.71712 70.17985 56.94849
# Shear Modulus (GPa) = 20.55971 29.85436 25.20704
#
# Velocity S-wave (km/s) = 3.04125 3.66478 3.36748
# Velocity P-wave (km/s) = 5.65679 7.03415 6.38274
#
# Compressibility (1/GPa) = 0.02287434
#
# Stress axis : x y z
#
# Youngs Moduli (GPa) = 107.81845 44.46554 174.05790
#
# Poissons Ratio (x) = 0.14907 0.47209
# Poissons Ratio (y) = 0.36145 0.21807
# Poissons Ratio (z) = 0.29243 0.05571
#
# Static dielectric constant tensor:
#      x y z
#    x 1.863160 0.000000 0.000000 
#    y 0.000000 2.388440 0.000000 
#    z 0.000000 0.000000 1.817610 
# 
# From -- ./inp_files/23889.got.cif
#   From: 2010.05.17/outbox.cif.g08.bks.cpg/sg65_12_cif.got.tgz:23889.got - 2010.06.03 17:01:31.
