data_PCOD9494312
_publ_section_title
;
Structure prediction by ZEFSAII (Michael W. Deem and Ramdas Pophale) SiO2 
 PCOD9494312
Probable space group: C M M M
;
_chemical_formula_sum "Si O2"
_cell_formula_units_Z 104
_cell_length_a 28.609315
_cell_length_b 21.235531
_cell_length_c 7.522972
_cell_angle_alpha 90.000000
_cell_angle_beta 90.000000
_cell_angle_gamma 90.000000
_cell_volume 4570.461238
_symmetry_space_group_name_H-M "C M M M"
_symmetry_group_IT_number 65
_symmetry_cell_setting 'orthorhombic'
loop_
_space_group_symop_operation_xyz
x,y,z
-x,-y,z
x,-y,-z
-x,y,-z
-x,-y,-z
x,y,-z
-x,y,z
x,-y,z
1/2+x,1/2+y,z
1/2-x,1/2-y,z
1/2+x,1/2-y,-z
1/2-x,1/2+y,-z
1/2-x,1/2-y,-z
1/2+x,1/2+y,-z
1/2-x,1/2+y,z
1/2+x,1/2-y,z
loop_
_atom_site_type_symbol
_atom_site_label
_atom_site_fract_x
_atom_site_fract_y
_atom_site_fract_z
Si Si1 0.884669 0.072710 0.692745
Si Si2 0.552201 0.793153 0.282941
Si Si3 0.087201 0.568711 0.283055
Si Si4 0.290182 0.625056 0.284445
Si Si5 0.813143 0.385377 0.715677
Si Si6 0.552750 0.577804 0.000000
Si Si7 0.348087 0.253300 0.284472
O O1 0.888063 0.103639 0.500000
O O2 0.831356 0.076203 0.752775
O O3 0.897398 0.000000 0.676495
O O4 0.919817 0.101538 0.830067
O O5 0.552673 0.792104 0.500000
O O6 0.500000 0.773902 0.225855
O O7 0.561797 0.866408 0.229661
O O8 0.597702 0.752739 0.225906
O O9 0.086078 0.569350 0.500000
O O10 0.068921 0.500000 0.226718
O O11 0.141680 0.575306 0.226635
O O12 0.285295 0.630205 0.500000
O O13 0.239516 0.604354 0.218597
O O14 0.314495 0.690229 0.222623
O O15 0.812632 0.391819 0.500000
O O16 0.824786 0.313169 0.760127
O O17 0.554237 0.500000 0.000000
O O18 0.500000 0.597021 0.000000
O O19 0.348692 0.256744 0.500000
#
# Coordination Sequence:
#
# PCOD9494312 Si02
#       7
#    16  16  16  16  16   8  16
#     4   9  18  31  47  71  98 120 150 190 229 277
#     4   8  13  20  28  38  57  88 125 169 218 260
#     4   8  13  19  26  39  60  88 126 169 211 259
#     4   9  15  23  37  57  82 111 140 177 226 269
#     4   8  13  20  31  48  72 104 141 180 220 264
#     4   9  18  34  54  70  89 122 154 184 229 274
#     4   8  13  21  32  48  71 101 142 184 219 265
#
# _framework density 22.754814
#
# number of rings (size 3 to 8) (size 9 to 14) (size 15 to 20)
#    0.000    3.615    0.000    2.308    0.000    3.077 
#    0.000    6.923    0.000    2.769    0.000    2.154 
#    0.000    0.000    0.000    0.000    0.000    0.000 
#
# Total GULP energy -289750.125372 kJ/mol
# GULP energy per Si atom -5572.117796 kJ/mol
# Density = 2.270302 g / cm^3
# Si number density = 22.754814 Si / 1000 Ang^3
#
#
#
# Elastic Constant Matrix: (Units=GPa)
#
#
# Indices 1 2 3 4 5 6 
#
# 1 129.4144 -35.1631 28.0489 0.0000 0.0000 0.0000
# 2 -35.1631 35.6051 0.7241 0.0000 0.0000 0.0000
# 3 28.0489 0.7241 50.8586 0.0000 0.0000 0.0000
# 4 0.0000 0.0000 0.0000 -12.1723 0.0000 0.0000
# 5 0.0000 0.0000 0.0000 0.0000 -5.5117 0.0000
# 6 0.0000 0.0000 0.0000 0.0000 0.0000 33.0153
#
#
#
# Elastic Compliance Matrix: (Units=1/GPa)
#
#
# Indices 1 2 3 4 5 6 
#
# 1 0.012753 0.012741 -0.007215 0.000000 0.000000 0.000000
# 2 0.012741 0.040823 -0.007608 0.000000 0.000000 0.000000
# 3 -0.007215 -0.007608 0.023750 0.000000 0.000000 0.000000
# 4 0.000000 0.000000 0.000000 -0.082154 0.000000 0.000000
# 5 0.000000 0.000000 0.000000 0.000000 -0.181432 0.000000
# 6 0.000000 0.000000 0.000000 0.000000 0.000000 0.030289
#
#
# Mechanical properties :
#
#
# Convention : Reuss Voigt Hill
#
# Bulk Modulus (GPa) = 13.66816 22.56642 18.11729
# Shear Modulus (GPa) = -39.24009 17.88415 -10.67797
#
# Velocity S-wave (km/s) = -4.15718 2.80652 -2.16860
# Velocity P-wave (km/s) = 4.12591 4.52115 1.30722
#
# Compressibility (1/GPa) = 0.07316271
#
# Stress axis : x y z
#
# Youngs Moduli (GPa) = 78.41507 24.49570 42.10601
#
# Poissons Ratio (x) = -0.31210 0.30378
# Poissons Ratio (y) = -0.99909 0.32034
# Poissons Ratio (z) = 0.56573 0.18636
#
# Static dielectric constant tensor:
#      x y z
#    x 1.818320 0.000000 0.000000 
#    y 0.000000 1.849390 0.000000 
#    z 0.000000 0.000000 1.863980 
# 
# From -- ./inp_files/16792.got.cif
#   From: 2010.05.17/outbox.cif.g08.bks.cpg/sg65_9_cif.got.tgz:16792.got - 2010.06.03 17:01:31.
