data_PCOD9494440
_publ_section_title
;
Structure prediction by ZEFSAII (Michael W. Deem and Ramdas Pophale) SiO2 
 PCOD9494440
Probable space group: C M M M
;
_chemical_formula_sum "Si O2"
_cell_formula_units_Z 64
_cell_length_a 7.307411
_cell_length_b 15.345395
_cell_length_c 24.463230
_cell_angle_alpha 90.000000
_cell_angle_beta 90.000000
_cell_angle_gamma 90.000000
_cell_volume 2743.186944
_symmetry_space_group_name_H-M "C M M M"
_symmetry_group_IT_number 65
_symmetry_cell_setting 'orthorhombic'
loop_
_space_group_symop_operation_xyz
x,y,z
-x,-y,z
x,-y,-z
-x,y,-z
-x,-y,-z
x,y,-z
-x,y,z
x,-y,z
1/2+x,1/2+y,z
1/2-x,1/2-y,z
1/2+x,1/2-y,-z
1/2-x,1/2+y,-z
1/2-x,1/2-y,-z
1/2+x,1/2+y,-z
1/2-x,1/2+y,z
1/2+x,1/2-y,z
loop_
_atom_site_type_symbol
_atom_site_label
_atom_site_fract_x
_atom_site_fract_y
_atom_site_fract_z
Si Si1 0.794809 0.897461 0.000000
Si Si2 0.718312 0.645391 0.235142
Si Si3 0.781499 0.146700 0.354574
Si Si4 0.717852 0.647167 0.882003
Si Si5 0.776266 0.000000 0.437389
O O1 0.707239 0.876779 0.058454
O O2 0.000000 0.855228 0.000000
O O3 0.815497 0.000000 0.000000
O O4 0.500000 0.630253 0.234434
O O5 0.750000 0.750000 0.235572
O O6 0.788508 0.617242 0.294535
O O7 0.787308 0.611263 0.176403
O O8 0.750000 0.250000 0.362407
O O9 0.000000 0.136054 0.352179
O O10 0.716838 0.085082 0.403278
O O11 0.500000 0.626956 0.883921
O O12 0.750000 0.750000 0.878189
O O13 0.715682 0.000000 0.500000
O O14 0.000000 0.000000 0.438410
#
# Coordination Sequence:
#
# PCOD9494440 Si02
#       5
#     8  16  16  16   8
#     4   9  17  28  39  57  86 113 138 174 218 259
#     4   8  14  25  42  65  87 109 141 181 220 261
#     4   9  17  31  50  71  96 125 157 193 234 277
#     4   9  16  27  44  63  82 108 142 178 217 259
#     4   9  18  32  49  71  99 128 158 192 231 277
#
# _framework density 23.330528999999999
#
# number of rings (size 3 to 8) (size 9 to 14) (size 15 to 20)
#    0.000    3.250    0.000    0.375    0.000    0.500 
#    2.250    0.625    0.000    2.250    0.000    0.000 
#    0.000    0.000    0.000    0.000    0.000    0.000 
#
# Total GULP energy -178290.210669 kJ/mol
# GULP energy per Si atom -5571.569083 kJ/mol
# Density = 2.327743 g / cm^3
# Si number density = 23.330529 Si / 1000 Ang^3
#
#
#
# Elastic Constant Matrix: (Units=GPa)
#
#
# Indices 1 2 3 4 5 6 
#
# 1 102.2064 -6.6684 17.1621 0.0000 0.0000 0.0000
# 2 -6.6684 75.4136 88.4187 0.0000 0.0000 0.0000
# 3 17.1621 88.4187 336.2952 0.0000 0.0000 0.0000
# 4 0.0000 0.0000 0.0000 -713.1672 0.0000 0.0000
# 5 0.0000 0.0000 0.0000 0.0000 -1.5390 0.0000
# 6 0.0000 0.0000 0.0000 0.0000 0.0000 3.8927
#
#
#
# Elastic Compliance Matrix: (Units=1/GPa)
#
#
# Indices 1 2 3 4 5 6 
#
# 1 0.010108 0.002166 -0.001085 0.000000 0.000000 0.000000
# 2 0.002166 0.019634 -0.005273 0.000000 0.000000 0.000000
# 3 -0.001085 -0.005273 0.004415 0.000000 0.000000 0.000000
# 4 0.000000 0.000000 0.000000 -0.001402 0.000000 0.000000
# 5 0.000000 0.000000 0.000000 0.000000 -0.649759 0.000000
# 6 0.000000 0.000000 0.000000 0.000000 0.000000 0.256893
#
#
# Mechanical properties :
#
#
# Convention : Reuss Voigt Hill
#
# Bulk Modulus (GPa) = 38.79991 79.08222 58.94106
# Shear Modulus (GPa) = -14.57141 -114.49585 -64.53363
#
# Velocity S-wave (km/s) = -2.50184 -7.01299 -5.26504
# Velocity P-wave (km/s) = 2.88462 5.62193 3.41211
#
# Compressibility (1/GPa) = 0.02577325
#
# Stress axis : x y z
#
# Youngs Moduli (GPa) = 98.93422 50.93294 226.48773
#
# Poissons Ratio (x) = -0.11034 0.24583
# Poissons Ratio (y) = -0.21433 1.19419
# Poissons Ratio (z) = 0.10738 0.26855
#
# Static dielectric constant tensor:
#      x y z
#    x 2.024620 0.000000 0.000000 
#    y 0.000000 1.804950 0.000000 
#    z 0.000000 0.000000 1.947590 
# 
# From -- ./inp_files/66785.got.cif
#   From: 2010.05.17/outbox.cif.g08.bks.cpg/sg65_34_cif.got.tgz:66785.got - 2010.06.03 17:01:31.
