data_PCOD9494164
_publ_section_title
;
Structure prediction by ZEFSAII (Michael W. Deem and Ramdas Pophale) SiO2 
 PCOD9494164
Probable space group: C M M M
;
_chemical_formula_sum "Si O2"
_cell_formula_units_Z 72
_cell_length_a 18.804181
_cell_length_b 8.460384
_cell_length_c 24.677144
_cell_angle_alpha 90.000000
_cell_angle_beta 90.000000
_cell_angle_gamma 90.000000
_cell_volume 3925.901449
_symmetry_space_group_name_H-M "C M M M"
_symmetry_group_IT_number 65
_symmetry_cell_setting 'orthorhombic'
loop_
_space_group_symop_operation_xyz
x,y,z
-x,-y,z
x,-y,-z
-x,y,-z
-x,-y,-z
x,y,-z
-x,y,z
x,-y,z
1/2+x,1/2+y,z
1/2-x,1/2-y,z
1/2+x,1/2-y,-z
1/2-x,1/2+y,-z
1/2-x,1/2-y,-z
1/2+x,1/2+y,-z
1/2-x,1/2+y,z
1/2+x,1/2-y,z
loop_
_atom_site_type_symbol
_atom_site_label
_atom_site_fract_x
_atom_site_fract_y
_atom_site_fract_z
Si Si1 0.413472 0.683628 0.000000
Si Si2 0.916797 0.808405 0.323518
Si Si3 0.914000 0.188488 0.441806
Si Si4 0.582709 0.691752 0.881852
Si Si5 0.669944 0.187715 0.779341
O O1 0.392698 0.751181 0.941457
O O2 0.390774 0.500000 0.000000
O O3 0.500000 0.683505 0.000000
O O4 0.890339 0.751202 0.382961
O O5 0.871440 0.746126 0.273905
O O6 0.000000 0.763940 0.317214
O O7 0.914372 0.000000 0.323624
O O8 0.888602 0.254454 0.500000
O O9 0.000000 0.203924 0.441273
O O10 0.899516 0.000000 0.442485
O O11 0.500000 0.737834 0.873962
O O12 0.584248 0.500000 0.883112
O O13 0.629755 0.750455 0.832661
O O14 0.750000 0.250000 0.778525
O O15 0.670265 0.000000 0.780106
#
# Coordination Sequence:
#
# PCOD9494164 Si02
#       5
#     8  16  16  16  16
#     4   7  12  26  52  83 108 131 159 193 236 289
#     4   9  17  31  53  79 105 133 165 202 247 299
#     4   7  10  19  40  72 104 129 156 193 237 288
#     4   9  17  33  58  84 108 133 163 199 242 295
#     4  12  25  38  51  69  98 135 175 216 256 297
#
# _framework density 18.339737
#
# number of rings (size 3 to 8) (size 9 to 14) (size 15 to 20)
#    0.000    3.000    0.000    6.000    0.000    3.556 
#    0.000    1.111    0.000    3.333    0.000    3.111 
#    0.000    0.000    0.000    0.000    0.000    0.000 
#
# Total GULP energy -200461.753219 kJ/mol
# GULP energy per Si atom -5568.382034 kJ/mol
# Density = 1.829799 g / cm^3
# Si number density = 18.339737 Si / 1000 Ang^3
#
#
#
# Elastic Constant Matrix: (Units=GPa)
#
#
# Indices 1 2 3 4 5 6 
#
# 1 73.0761 24.5044 89.5057 0.0000 0.0000 0.0000
# 2 24.5044 24.4704 36.8163 0.0000 0.0000 0.0000
# 3 89.5057 36.8163 253.5263 0.0000 0.0000 0.0000
# 4 0.0000 0.0000 0.0000 -0.6943 0.0000 0.0000
# 5 0.0000 0.0000 0.0000 0.0000 -7.5211 0.0000
# 6 0.0000 0.0000 0.0000 0.0000 0.0000 20.5904
#
#
#
# Elastic Compliance Matrix: (Units=1/GPa)
#
#
# Indices 1 2 3 4 5 6 
#
# 1 0.028941 -0.017413 -0.007689 0.000000 0.000000 0.000000
# 2 -0.017413 0.062768 -0.002967 0.000000 0.000000 0.000000
# 3 -0.007689 -0.002967 0.007090 0.000000 0.000000 0.000000
# 4 0.000000 0.000000 0.000000 -1.440377 0.000000 0.000000
# 5 0.000000 0.000000 0.000000 0.000000 -0.132959 0.000000
# 6 0.000000 0.000000 0.000000 0.000000 0.000000 0.048566
#
#
# Mechanical properties :
#
#
# Convention : Reuss Voigt Hill
#
# Bulk Modulus (GPa) = 23.44137 72.52507 47.98322
# Shear Modulus (GPa) = -3.68837 15.82476 6.06820
#
# Velocity S-wave (km/s) = -1.41968 2.94065 1.82098
# Velocity P-wave (km/s) = 3.18153 7.15269 5.53549
#
# Compressibility (1/GPa) = 0.04265963
#
# Stress axis : x y z
#
# Youngs Moduli (GPa) = 34.55323 15.93178 141.04999
#
# Poissons Ratio (x) = 0.27743 1.08449
# Poissons Ratio (y) = 0.60169 0.41853
# Poissons Ratio (z) = 0.26567 0.04727
#
# Static dielectric constant tensor:
#      x y z
#    x 1.593180 0.000000 0.000000 
#    y 0.000000 1.625780 0.000000 
#    z 0.000000 0.000000 1.694940 
# 
# From -- ./inp_files/67090.got.cif
#   From: 2010.05.17/outbox.cif.g08.bks.cpg/sg65_34_cif.got.tgz:67090.got - 2010.06.03 17:01:31.
