data_PCOD9494034
_publ_section_title
;
Structure prediction by ZEFSAII (Michael W. Deem and Ramdas Pophale) SiO2 
 PCOD9494034
Probable space group: C M M M
;
_chemical_formula_sum "Si O2"
_cell_formula_units_Z 80
_cell_length_a 10.008147
_cell_length_b 18.483481
_cell_length_c 23.002893
_cell_angle_alpha 90.000000
_cell_angle_beta 90.000000
_cell_angle_gamma 90.000000
_cell_volume 4255.199246
_symmetry_space_group_name_H-M "C M M M"
_symmetry_group_IT_number 65
_symmetry_cell_setting 'orthorhombic'
loop_
_space_group_symop_operation_xyz
x,y,z
-x,-y,z
x,-y,-z
-x,y,-z
-x,-y,-z
x,y,-z
-x,y,z
x,-y,z
1/2+x,1/2+y,z
1/2-x,1/2-y,z
1/2+x,1/2-y,-z
1/2-x,1/2+y,-z
1/2-x,1/2-y,-z
1/2+x,1/2+y,-z
1/2-x,1/2+y,z
1/2+x,1/2-y,z
loop_
_atom_site_type_symbol
_atom_site_label
_atom_site_fract_x
_atom_site_fract_y
_atom_site_fract_z
Si Si1 0.848015 0.913031 0.763898
Si Si2 0.350348 0.587922 0.898929
Si Si3 0.653481 0.088517 0.000000
Si Si4 0.151334 0.319481 0.310988
Si Si5 0.500000 0.419329 0.430188
Si Si6 0.229094 0.335990 0.565119
O O1 0.831600 0.891449 0.831664
O O2 0.731093 0.878049 0.726600
O O3 0.000000 0.892092 0.745403
O O4 0.841545 0.000000 0.760729
O O5 0.500000 0.610313 0.917422
O O6 0.349548 0.500000 0.899949
O O7 0.236362 0.612142 0.943192
O O8 0.500000 0.112275 0.000000
O O9 0.652723 0.000000 0.000000
O O10 0.250000 0.250000 0.310027
O O11 0.141740 0.345774 0.377900
O O12 0.000000 0.304319 0.290498
O O13 0.500000 0.500000 0.404331
O O14 0.500000 0.426399 0.500000
O O15 0.632004 0.374191 0.417793
O O16 0.187366 0.361264 0.500000
O O17 0.250000 0.250000 0.559905
#
# Coordination Sequence:
#
# PCOD9494034 Si02
#       6
#    16  16   8  16   8  16
#     4   9  19  36  57  79 106 143 184 226 272 325
#     4   8  14  26  44  67  97 135 176 215 260 315
#     4   9  15  21  35  65 102 137 170 213 266 311
#     4  11  24  38  56  80 108 142 181 227 277 329
#     4   9  18  34  56  84 113 143 181 224 277 341
#     4   9  20  35  56  82 108 139 180 228 279 338
#
# _framework density 18.800529999999998
#
# number of rings (size 3 to 8) (size 9 to 14) (size 15 to 20)
#    0.000    2.800    0.000    2.100    7.000    3.600 
#    0.000    2.000    0.000    0.000    0.000    4.900 
#    0.000    0.000    0.000    0.000    0.000    0.000 
#
# Total GULP energy -222756.346489 kJ/mol
# GULP energy per Si atom -5568.908662 kJ/mol
# Density = 1.875774 g / cm^3
# Si number density = 18.800530 Si / 1000 Ang^3
#
#
#
# Elastic Constant Matrix: (Units=GPa)
#
#
# Indices 1 2 3 4 5 6 
#
# 1 177.3736 43.4163 76.0600 0.0000 0.0000 0.0000
# 2 43.4163 49.3762 14.9522 0.0000 0.0000 0.0000
# 3 76.0600 14.9522 94.8705 0.0000 0.0000 0.0000
# 4 0.0000 0.0000 0.0000 1.1968 0.0000 0.0000
# 5 0.0000 0.0000 0.0000 0.0000 25.1984 0.0000
# 6 0.0000 0.0000 0.0000 0.0000 0.0000 19.7024
#
#
#
# Elastic Compliance Matrix: (Units=1/GPa)
#
#
# Indices 1 2 3 4 5 6 
#
# 1 0.010484 -0.007007 -0.007301 0.000000 0.000000 0.000000
# 2 -0.007007 0.025952 0.001528 0.000000 0.000000 0.000000
# 3 -0.007301 0.001528 0.016153 0.000000 0.000000 0.000000
# 4 0.000000 0.000000 0.000000 0.835533 0.000000 0.000000
# 5 0.000000 0.000000 0.000000 0.000000 0.039685 0.000000
# 6 0.000000 0.000000 0.000000 0.000000 0.000000 0.050755
#
#
# Mechanical properties :
#
#
# Convention : Reuss Voigt Hill
#
# Bulk Modulus (GPa) = 36.99870 65.60858 51.30364
# Shear Modulus (GPa) = 4.93520 21.69899 13.31709
#
# Velocity S-wave (km/s) = 1.62195 3.40099 2.66435
# Velocity P-wave (km/s) = 4.81975 7.09896 6.06734
#
# Compressibility (1/GPa) = 0.02702797
#
# Stress axis : x y z
#
# Youngs Moduli (GPa) = 95.38677 38.53321 61.90829
#
# Poissons Ratio (x) = 0.27002 0.45197
# Poissons Ratio (y) = 0.66842 -0.09459
# Poissons Ratio (z) = 0.69638 -0.05888
#
# Static dielectric constant tensor:
#      x y z
#    x 1.591600 0.000000 0.000000 
#    y 0.000000 1.651520 0.000000 
#    z 0.000000 0.000000 1.685000 
# 
# From -- ./inp_files/67389.got.cif
#   From: 2010.05.17/outbox.cif.g08.bks.cpg/sg65_34_cif.got.tgz:67389.got - 2010.06.03 17:01:31.
