data_PCOD9494443
_publ_section_title
;
Structure prediction by ZEFSAII (Michael W. Deem and Ramdas Pophale) SiO2 
 PCOD9494443
Probable space group: C M M M
;
_chemical_formula_sum "Si O2"
_cell_formula_units_Z 96
_cell_length_a 20.758320
_cell_length_b 7.559410
_cell_length_c 31.134063
_cell_angle_alpha 90.000000
_cell_angle_beta 90.000000
_cell_angle_gamma 90.000000
_cell_volume 4885.577459
_symmetry_space_group_name_H-M "C M M M"
_symmetry_group_IT_number 65
_symmetry_cell_setting 'orthorhombic'
loop_
_space_group_symop_operation_xyz
x,y,z
-x,-y,z
x,-y,-z
-x,y,-z
-x,-y,-z
x,y,-z
-x,y,z
x,-y,z
1/2+x,1/2+y,z
1/2-x,1/2-y,z
1/2+x,1/2-y,-z
1/2-x,1/2+y,-z
1/2-x,1/2-y,-z
1/2+x,1/2+y,-z
1/2-x,1/2+y,z
1/2+x,1/2-y,z
loop_
_atom_site_type_symbol
_atom_site_label
_atom_site_fract_x
_atom_site_fract_y
_atom_site_fract_z
Si Si1 0.176313 0.712431 0.215787
Si Si2 0.573120 0.712399 0.617340
Si Si3 0.926357 0.284003 0.951116
Si Si4 0.176411 0.787607 0.451231
Si Si5 0.573129 0.212392 0.715552
Si Si6 0.676316 0.787764 0.881674
O O1 0.169766 0.500000 0.214186
O O2 0.250000 0.750000 0.228466
O O3 0.124322 0.780343 0.249850
O O4 0.166689 0.779777 0.167040
O O5 0.500000 0.779664 0.610983
O O6 0.570720 0.500000 0.612928
O O7 0.624264 0.780378 0.582718
O O8 0.592211 0.750018 0.666443
O O9 0.925366 0.500000 0.950868
O O10 0.875210 0.220983 0.916105
O O11 0.000000 0.231351 0.941419
O O12 0.911054 0.229401 0.000000
O O13 0.167096 0.720319 0.500000
O O14 0.250000 0.750000 0.438347
O O15 0.169809 0.000000 0.452847
O O16 0.500000 0.279650 0.721907
O O17 0.570725 0.000000 0.719974
O O18 0.750000 0.750000 0.894249
O O19 0.669262 0.000000 0.880042
#
# Coordination Sequence:
#
# PCOD9494443 Si02
#       6
#    16  16  16  16  16  16
#     4   9  18  31  46  65  89 117 148 182 220 262
#     4   9  18  32  49  69  92 118 149 183 219 261
#     4   8  14  25  42  65  90 114 144 183 222 259
#     4   9  18  32  49  69  93 120 149 182 219 259
#     4   9  18  32  48  66  89 116 147 184 223 261
#     4   9  17  29  45  65  89 116 146 181 220 262
#
# _framework density 19.649671999999999
#
# number of rings (size 3 to 8) (size 9 to 14) (size 15 to 20)
#    0.000    3.167    0.000    0.500    0.000    3.333 
#    0.000    8.333    0.000    0.500    0.000   10.500 
#    0.000    0.000    0.000    0.000    0.000    0.000 
#
# Total GULP energy -267663.731371 kJ/mol
# GULP energy per Si atom -5576.327737 kJ/mol
# Density = 1.960495 g / cm^3
# Si number density = 19.649672 Si / 1000 Ang^3
#
#
#
# Elastic Constant Matrix: (Units=GPa)
#
#
# Indices 1 2 3 4 5 6 
#
# 1 167.8254 2.5836 151.4189 0.0000 0.0000 0.0000
# 2 2.5836 47.1891 3.9669 0.0000 0.0000 0.0000
# 3 151.4189 3.9669 160.1510 0.0000 0.0000 0.0000
# 4 0.0000 0.0000 0.0000 3.0082 0.0000 0.0000
# 5 0.0000 0.0000 0.0000 0.0000 49.8751 0.0000
# 6 0.0000 0.0000 0.0000 0.0000 0.0000 19.7882
#
#
#
# Elastic Compliance Matrix: (Units=1/GPa)
#
#
# Indices 1 2 3 4 5 6 
#
# 1 0.040595 0.001006 -0.038407 0.000000 0.000000 0.000000
# 2 0.001006 0.021260 -0.001478 0.000000 0.000000 0.000000
# 3 -0.038407 -0.001478 0.042593 0.000000 0.000000 0.000000
# 4 0.000000 0.000000 0.000000 0.332420 0.000000 0.000000
# 5 0.000000 0.000000 0.000000 0.000000 0.020050 0.000000
# 6 0.000000 0.000000 0.000000 0.000000 0.000000 0.050535
#
#
# Mechanical properties :
#
#
# Convention : Reuss Voigt Hill
#
# Bulk Modulus (GPa) = 37.46428 76.78935 57.12681
# Shear Modulus (GPa) = 8.41598 29.01405 18.71501
#
# Velocity S-wave (km/s) = 2.07179 3.84678 3.08950
# Velocity P-wave (km/s) = 4.98303 7.67426 6.47012
#
# Compressibility (1/GPa) = 0.02669209
#
# Stress axis : x y z
#
# Youngs Moduli (GPa) = 24.63358 47.03559 23.47796
#
# Poissons Ratio (x) = -0.04732 0.90171
# Poissons Ratio (y) = -0.02478 0.03470
# Poissons Ratio (z) = 0.94609 0.06951
#
# Static dielectric constant tensor:
#      x y z
#    x 1.665350 0.000000 0.000000 
#    y 0.000000 1.754360 0.000000 
#    z 0.000000 0.000000 1.676520 
# 
# From -- ./inp_files/69031.got.cif
#   From: 2010.05.17/outbox.cif.g08.bks.cpg/sg65_35_cif.got.tgz:69031.got - 2010.06.03 17:01:31.
