data_PCOD9494888
_publ_section_title
;
Structure prediction by ZEFSAII (Michael W. Deem and Ramdas Pophale) SiO2 
 PCOD9494888
Probable space group: C C C M
;
_chemical_formula_sum "Si O2"
_cell_formula_units_Z 64
_cell_length_a 7.084209
_cell_length_b 18.485247
_cell_length_c 21.559390
_cell_angle_alpha 90.000000
_cell_angle_beta 90.000000
_cell_angle_gamma 90.000000
_cell_volume 2823.274413
_symmetry_space_group_name_H-M "C C C M"
_symmetry_group_IT_number 66
_symmetry_cell_setting 'orthorhombic'
loop_
_space_group_symop_operation_xyz
x,y,z
-x,-y,z
x,-y,1/2-z
-x,y,1/2-z
-x,-y,-z
x,y,-z
-x,y,1/2+z
x,-y,1/2+z
1/2+x,1/2+y,z
1/2-x,1/2-y,z
1/2+x,1/2-y,1/2-z
1/2-x,1/2+y,1/2-z
1/2-x,1/2-y,-z
1/2+x,1/2+y,-z
1/2-x,1/2+y,1/2+z
1/2+x,1/2-y,1/2+z
loop_
_atom_site_type_symbol
_atom_site_label
_atom_site_fract_x
_atom_site_fract_y
_atom_site_fract_z
Si Si1 0.724934 0.096599 0.868480
Si Si2 0.644601 0.072517 0.500000
Si Si3 0.715203 0.163959 0.000000
Si Si4 0.230602 0.567071 0.366508
Si Si5 0.722580 0.166756 0.743910
O O1 0.783393 0.127361 0.935544
O O2 0.496155 0.084690 0.869262
O O3 0.788968 0.148583 0.813209
O O4 0.783680 0.015257 0.852390
O O5 0.506818 0.141816 0.500000
O O6 0.773162 0.074612 0.439172
O O7 0.500000 0.000000 0.500000
O O8 0.750000 0.250000 0.000000
O O9 0.300496 0.617863 0.311600
O O10 0.500000 0.151676 0.750000
O O11 0.750000 0.250000 0.728694
#
# Coordination Sequence:
#
# PCOD9494888 Si02
#       5
#    16   8   8  16  16
#     4   9  15  27  44  68  93 120 157 204 245 281
#     4  10  14  28  45  68  97 120 155 212 254 282
#     4  10  16  22  40  70 100 120 147 197 259 294
#     4   9  15  27  47  67  90 123 161 201 246 288
#     4  10  20  31  46  69  99 128 159 202 247 293
#
# _framework density 22.668713
#
# number of rings (size 3 to 8) (size 9 to 14) (size 15 to 20)
#    0.000    2.500    5.000    1.500    0.000    3.000 
#    0.000    0.625    0.000    3.000    0.000    0.000 
#    0.000   22.000    0.000    0.000    0.000    0.000 
#
# Total GULP energy -178368.373486 kJ/mol
# GULP energy per Si atom -5574.011671 kJ/mol
# Density = 2.261712 g / cm^3
# Si number density = 22.668713 Si / 1000 Ang^3
#
#
#
# Elastic Constant Matrix: (Units=GPa)
#
#
# Indices 1 2 3 4 5 6 
#
# 1 66.8812 -18.1486 -18.9044 0.0000 0.0000 0.0000
# 2 -18.1486 174.9019 92.3852 0.0000 0.0000 0.0000
# 3 -18.9044 92.3852 212.6120 0.0000 0.0000 0.0000
# 4 0.0000 0.0000 0.0000 96.6228 0.0000 0.0000
# 5 0.0000 0.0000 0.0000 0.0000 -19.9552 0.0000
# 6 0.0000 0.0000 0.0000 0.0000 0.0000 11.6333
#
#
#
# Elastic Compliance Matrix: (Units=1/GPa)
#
#
# Indices 1 2 3 4 5 6 
#
# 1 0.015512 0.001143 0.000882 0.000000 0.000000 0.000000
# 2 0.001143 0.007505 -0.003159 0.000000 0.000000 0.000000
# 3 0.000882 -0.003159 0.006155 0.000000 0.000000 0.000000
# 4 0.000000 0.000000 0.000000 0.010350 0.000000 0.000000
# 5 0.000000 0.000000 0.000000 0.000000 -0.050112 0.000000
# 6 0.000000 0.000000 0.000000 0.000000 0.000000 0.085960
#
#
# Mechanical properties :
#
#
# Convention : Reuss Voigt Hill
#
# Bulk Modulus (GPa) = 37.16913 62.78441 49.97677
# Shear Modulus (GPa) = 57.73393 44.26436 50.99915
#
# Velocity S-wave (km/s) = 5.05211 4.42369 4.74831
# Velocity P-wave (km/s) = 7.10381 7.33816 7.22194
#
# Compressibility (1/GPa) = 0.02690405
#
# Stress axis : x y z
#
# Youngs Moduli (GPa) = 64.46804 133.24459 162.47720
#
# Poissons Ratio (x) = -0.15236 -0.14336
# Poissons Ratio (y) = -0.07372 0.51334
# Poissons Ratio (z) = -0.05688 0.42098
#
# Static dielectric constant tensor:
#      x y z
#    x 2.075890 0.000000 0.000000 
#    y 0.000000 1.884210 0.000000 
#    z 0.000000 0.000000 1.889710 
# 
# From -- ./inp_files/48332.got.cif
#   From: 2010.05.17/outbox.cif.g08.bks.cpg/sg66_25_cif.got.tgz:48332.got - 2010.06.03 17:51:23.
