data_PCOD9494859
_publ_section_title
;
Structure prediction by ZEFSAII (Michael W. Deem and Ramdas Pophale) SiO2 
 PCOD9494859
Probable space group: C M M M
;
_chemical_formula_sum "Si O2"
_cell_formula_units_Z 36
_cell_length_a 30.000000
_cell_length_b 15.000000
_cell_length_c 9.000000
_cell_angle_alpha 90.000000
_cell_angle_beta 90.000000
_cell_angle_gamma 90.000000
_cell_volume 4050.000000
_symmetry_space_group_name_H-M "C M M M"
_symmetry_group_IT_number 65
_symmetry_cell_setting 'orthorhombic'
loop_
_space_group_symop_operation_xyz
x,y,z
-x,-y,z
x,-y,-z
-x,y,-z
-x,-y,-z
x,y,-z
-x,y,z
x,-y,z
1/2+x,1/2+y,z
1/2-x,1/2-y,z
1/2+x,1/2-y,-z
1/2-x,1/2+y,-z
1/2-x,1/2-y,-z
1/2+x,1/2+y,-z
1/2-x,1/2+y,z
1/2+x,1/2-y,z
loop_
_atom_site_type_symbol
_atom_site_label
_atom_site_fract_x
_atom_site_fract_y
_atom_site_fract_z
Si Si1 0.949288 0.315077 0.178729
Si Si2 0.308228 0.894411 0.676013
Si Si3 0.553884 0.000000 0.333472
Si Si4 0.294212 0.397837 0.321779
Si Si5 0.860390 0.760279 0.176158
O O1 0.935282 0.409672 0.248146
O O2 0.912326 0.242752 0.220681
O O3 0.000000 0.295038 0.225368
O O4 0.949004 0.324069 0.000000
O O5 0.314402 0.875398 0.500000
O O6 0.256786 0.872805 0.714982
O O7 0.339780 0.833694 0.773238
O O8 0.314969 0.000000 0.697043
O O9 0.500000 0.000000 0.343060
O O10 0.572779 0.000000 0.500000
O O11 0.297082 0.393974 0.500000
O O12 0.300801 0.500000 0.275117
O O13 0.330675 0.334690 0.252317
O O14 0.857593 0.769848 0.000000
#
# Coordination Sequence:
#
# PCOD9494859 Si02
#       5
#    16  16   8  16  16
#     4   9  19  35  50  66  98 140 171 199 245 304
#     4   9  19  35  53  74 103 139 171 199 241 302
#     4   9  17  29  47  71  95 123 165 211 247 283
#     4   9  19  37  57  74  97 133 172 205 248 308
#     4  11  22  32  50  79 104 130 169 213 254 295
#
# _framework density 8.8888890000000007
#
# number of rings (size 3 to 8) (size 9 to 14) (size 15 to 20)
#    0.000    2.556    0.000    3.000    1.556    7.556 
#    0.000    2.222    0.000    0.667    0.000    4.667 
#    0.000    0.000    0.000    0.000    0.000    0.000 
#
# Total GULP energy -200790.451866 kJ/mol
# GULP energy per Si atom -5577.512552 kJ/mol
# Density = 0.886866 g / cm^3
# Si number density = 8.888889 Si / 1000 Ang^3
#
#
#
# Elastic Constant Matrix: (Units=GPa)
#
#
# Indices 1 2 3 4 5 6 
#
# 1 102.7045 43.0726 25.4595 0.0000 0.0000 0.0000
# 2 43.0726 25.6864 8.4300 0.0000 0.0000 0.0000
# 3 25.4595 8.4300 2.1761 0.0000 0.0000 0.0000
# 4 0.0000 0.0000 0.0000 48.1103 0.0000 0.0000
# 5 0.0000 0.0000 0.0000 0.0000 -34.9108 0.0000
# 6 0.0000 0.0000 0.0000 0.0000 0.0000 22.0662
#
#
#
# Elastic Compliance Matrix: (Units=1/GPa)
#
#
# Indices 1 2 3 4 5 6 
#
# 1 0.004038 -0.032187 0.077442 0.000000 0.000000 0.000000
# 2 -0.032187 0.113073 -0.061453 0.000000 0.000000 0.000000
# 3 0.077442 -0.061453 -0.208438 0.000000 0.000000 0.000000
# 4 0.000000 0.000000 0.000000 0.020786 0.000000 0.000000
# 5 0.000000 0.000000 0.000000 0.000000 -0.028644 0.000000
# 6 0.000000 0.000000 0.000000 0.000000 0.000000 0.045318
#
#
# Mechanical properties :
#
#
# Convention : Reuss Voigt Hill
#
# Bulk Modulus (GPa) = -8.08257 31.61012 11.76377
# Shear Modulus (GPa) = -79.73048 10.62683 -34.55182
#
# Velocity S-wave (km/s) = -6.70416 2.44756 -4.41334
# Velocity P-wave (km/s) = 8.03019 5.08003 4.39757
#
# Compressibility (1/GPa) = -0.12372303
#
# Stress axis : x y z
#
# Youngs Moduli (GPa) = 247.62573 8.84383 -4.79760
#
# Poissons Ratio (x) = 0.28466 0.37154
# Poissons Ratio (y) = 7.97042 -0.29483
# Poissons Ratio (z) = -19.17667 0.54348
#
# Static dielectric constant tensor:
#      x y z
#    x 1.650020 0.000000 0.000000 
#    y 0.000000 1.587600 0.000000 
#    z 0.000000 0.000000 1.593530 
# 
# From -- ./inp_files/7246.got.cif
#   From: 2010.05.17/outbox.ucp.g08.bks.cvg/sg65_4_cif.got.tgz:7246.got - 2010.06.11 16:39:57.
