data_PCOD9494698
_publ_section_title
;
Structure prediction by ZEFSAII (Michael W. Deem and Ramdas Pophale) SiO2 
 PCOD9494698
Probable space group: C M M M
;
_chemical_formula_sum "Si O2"
_cell_formula_units_Z 52
_cell_length_a 30.000000
_cell_length_b 9.000000
_cell_length_c 21.000000
_cell_angle_alpha 90.000000
_cell_angle_beta 90.000000
_cell_angle_gamma 90.000000
_cell_volume 5670.000000
_symmetry_space_group_name_H-M "C M M M"
_symmetry_group_IT_number 65
_symmetry_cell_setting 'orthorhombic'
loop_
_space_group_symop_operation_xyz
x,y,z
-x,-y,z
x,-y,-z
-x,y,-z
-x,-y,-z
x,y,-z
-x,y,z
x,-y,z
1/2+x,1/2+y,z
1/2-x,1/2-y,z
1/2+x,1/2-y,-z
1/2-x,1/2+y,-z
1/2-x,1/2-y,-z
1/2+x,1/2+y,-z
1/2-x,1/2+y,z
1/2+x,1/2-y,z
loop_
_atom_site_type_symbol
_atom_site_label
_atom_site_fract_x
_atom_site_fract_y
_atom_site_fract_z
Si Si1 0.296724 0.323889 0.923794
Si Si2 0.051000 0.824562 0.781270
Si Si3 0.051015 0.319527 0.000000
Si Si4 0.887328 0.322283 0.118503
Si Si5 0.795023 0.329867 0.422210
Si Si6 0.551112 0.165829 0.349547
Si Si7 0.118398 0.835035 0.575611
O O1 0.295487 0.500000 0.912779
O O2 0.250000 0.250000 0.904376
O O3 0.339305 0.250762 0.890840
O O4 0.301706 0.298739 0.000000
O O5 0.087420 0.733440 0.819440
O O6 0.055925 0.780728 0.707867
O O7 0.000000 0.782403 0.800063
O O8 0.056096 0.000000 0.791165
O O9 0.079637 0.274780 0.938848
O O10 0.049051 0.500000 0.000000
O O11 0.000000 0.265066 0.000000
O O12 0.883075 0.500000 0.116957
O O13 0.795771 0.331606 0.500000
O O14 0.797875 0.500000 0.401340
O O15 0.750000 0.250000 0.402686
O O16 0.835799 0.231477 0.398828
O O17 0.500000 0.165080 0.369011
O O18 0.580872 0.219396 0.406770
O O19 0.563039 0.000000 0.327565
O O20 0.122585 0.844535 0.500000
O O21 0.109079 0.000000 0.600130
#
# Coordination Sequence:
#
# PCOD9494698 Si02
#       7
#    16  16   8  16  16  16  16
#     4  10  20  34  53  77 108 142 181 224 269 318
#     4  10  21  37  56  78 105 139 179 221 265 316
#     4   9  18  30  46  73 108 141 172 211 258 307
#     4  11  20  33  54  79 109 142 179 219 266 316
#     4   9  16  27  45  70 101 135 170 208 251 302
#     4  10  21  37  56  77 102 136 179 223 266 315
#     4  10  20  33  51  77 108 140 174 215 266 320
#
# _framework density 9.1710759999999993
#
# number of rings (size 3 to 8) (size 9 to 14) (size 15 to 20)
#    0.000    2.077    0.769    3.231    0.000    6.154 
#    0.000    1.538    0.000    2.769    0.000    6.462 
#    0.000    0.000    0.000    0.000    0.000    0.000 
#
# Total GULP energy -289896.754139 kJ/mol
# GULP energy per Si atom -5574.937580 kJ/mol
# Density = 0.915020 g / cm^3
# Si number density = 9.171076 Si / 1000 Ang^3
#
#
#
# Elastic Constant Matrix: (Units=GPa)
#
#
# Indices 1 2 3 4 5 6 
#
# 1 87.7951 64.3624 42.1678 0.0000 0.0000 0.0000
# 2 64.3624 36.9012 22.1262 0.0000 0.0000 0.0000
# 3 42.1678 22.1262 1.6927 0.0000 0.0000 0.0000
# 4 0.0000 0.0000 0.0000 21.7641 0.0000 0.0000
# 5 0.0000 0.0000 0.0000 0.0000 1023.2213 0.0000
# 6 0.0000 0.0000 0.0000 0.0000 0.0000 29.2287
#
#
#
# Elastic Compliance Matrix: (Units=1/GPa)
#
#
# Indices 1 2 3 4 5 6 
#
# 1 -0.042808 0.082594 -0.013224 0.000000 0.000000 0.000000
# 2 0.082594 -0.163322 0.077320 0.000000 0.000000 0.000000
# 3 -0.013224 0.077320 -0.090483 0.000000 0.000000 0.000000
# 4 0.000000 0.000000 0.000000 0.045947 0.000000 0.000000
# 5 0.000000 0.000000 0.000000 0.000000 0.000977 0.000000
# 6 0.000000 0.000000 0.000000 0.000000 0.000000 0.034213
#
#
# Mechanical properties :
#
#
# Convention : Reuss Voigt Hill
#
# Bulk Modulus (GPa) = -309.32815 42.63353 -133.34731
# Shear Modulus (GPa) = -9.80520 214.69164 102.44322
#
# Velocity S-wave (km/s) = -2.31459 10.83062 7.48148
# Velocity P-wave (km/s) = 13.27225 13.40511 1.33126
#
# Compressibility (1/GPa) = -0.00323281
#
# Stress axis : x y z
#
# Youngs Moduli (GPa) = -23.36022 -6.12287 -11.05178
#
# Poissons Ratio (x) = 0.50571 -0.14615
# Poissons Ratio (y) = 1.92942 0.85453
# Poissons Ratio (z) = -0.30893 0.47342
#
# Static dielectric constant tensor:
#      x y z
#    x 1.606110 0.000000 0.000000 
#    y 0.000000 1.635490 0.000000 
#    z 0.000000 0.000000 1.645460 
# 
# From -- ./inp_files/66424.got.cif
#   From: 2010.05.17/outbox.ucp.g08.bks.cvg/sg65_34_cif.got.tgz:66424.got - 2010.06.11 16:39:57.
