data_PCOD9494805
_publ_section_title
;
Structure prediction by ZEFSAII (Michael W. Deem and Ramdas Pophale) SiO2 
 PCOD9494805
Probable space group: C M M M
;
_chemical_formula_sum "Si O2"
_cell_formula_units_Z 56
_cell_length_a 24.000000
_cell_length_b 15.000000
_cell_length_c 15.000000
_cell_angle_alpha 90.000000
_cell_angle_beta 90.000000
_cell_angle_gamma 90.000000
_cell_volume 5400.000000
_symmetry_space_group_name_H-M "C M M M"
_symmetry_group_IT_number 65
_symmetry_cell_setting 'orthorhombic'
loop_
_space_group_symop_operation_xyz
x,y,z
-x,-y,z
x,-y,-z
-x,y,-z
-x,-y,-z
x,y,-z
-x,y,z
x,-y,z
1/2+x,1/2+y,z
1/2-x,1/2-y,z
1/2+x,1/2-y,-z
1/2-x,1/2+y,-z
1/2-x,1/2-y,-z
1/2+x,1/2+y,-z
1/2-x,1/2+y,z
1/2+x,1/2-y,z
loop_
_atom_site_type_symbol
_atom_site_label
_atom_site_fract_x
_atom_site_fract_y
_atom_site_fract_z
Si Si1 0.063725 0.358011 0.898048
Si Si2 0.144568 0.098496 0.602931
Si Si3 0.560087 0.357094 0.895173
Si Si4 0.564708 0.759344 0.606618
Si Si5 0.816971 0.103420 0.897214
Si Si6 0.755249 0.849887 0.273818
Si Si7 0.128165 0.403011 0.724022
O O1 0.063108 0.250259 0.891984
O O2 0.105815 0.392577 0.824586
O O3 0.000000 0.387652 0.880499
O O4 0.077864 0.381798 0.000000
O O5 0.161980 0.115391 0.500000
O O6 0.097198 0.168550 0.626483
O O7 0.197746 0.104404 0.666613
O O8 0.120695 0.000000 0.607723
O O9 0.500000 0.384633 0.856308
O O10 0.619288 0.391360 0.861976
O O11 0.558948 0.382998 0.000000
O O12 0.567865 0.775524 0.500000
O O13 0.500000 0.756092 0.632229
O O14 0.597309 0.832104 0.663032
O O15 0.777896 0.152242 0.827292
O O16 0.800431 0.000000 0.898138
O O17 0.815523 0.136737 0.000000
O O18 0.750000 0.750000 0.308674
O O19 0.694462 0.891887 0.277559
O O20 0.112781 0.500000 0.690223
#
# Coordination Sequence:
#
# PCOD9494805 Si02
#       7
#    16  16  16  16  16  16  16
#     4   9  19  37  59  84 118 161 212 267 316 366
#     4  10  22  43  71 100 129 160 200 256 316 376
#     4   8  15  30  53  79 109 152 204 255 313 375
#     4  10  23  44  69  98 130 164 205 252 310 380
#     4  10  21  36  54  82 123 165 209 263 315 366
#     4  12  24  42  65  88 124 170 215 264 312 372
#     4  12  25  40  61  92 129 171 216 262 312 368
#
# _framework density 10.370369999999999
#
# number of rings (size 3 to 8) (size 9 to 14) (size 15 to 20)
#    0.000    1.857    1.429    3.429    0.000    4.000 
#    0.000    4.286    0.000    1.714    0.000    0.000 
#    0.000    0.000    0.000    0.000    0.000    0.143 
#
# Total GULP energy -312722.952587 kJ/mol
# GULP energy per Si atom -5584.338439 kJ/mol
# Density = 1.034677 g / cm^3
# Si number density = 10.370370 Si / 1000 Ang^3
#
#
#
# Elastic Constant Matrix: (Units=GPa)
#
#
# Indices 1 2 3 4 5 6 
#
# 1 143.0156 46.4011 57.0163 0.0000 0.0000 0.0000
# 2 46.4011 100.7067 32.7568 0.0000 0.0000 0.0000
# 3 57.0163 32.7568 42.5220 0.0000 0.0000 0.0000
# 4 0.0000 0.0000 0.0000 22.3759 0.0000 0.0000
# 5 0.0000 0.0000 0.0000 0.0000 -122.4813 0.0000
# 6 0.0000 0.0000 0.0000 0.0000 0.0000 4476.5001
#
#
#
# Elastic Compliance Matrix: (Units=1/GPa)
#
#
# Indices 1 2 3 4 5 6 
#
# 1 0.015041 -0.000494 -0.019788 0.000000 0.000000 0.000000
# 2 -0.000494 0.013266 -0.009557 0.000000 0.000000 0.000000
# 3 -0.019788 -0.009557 0.057413 0.000000 0.000000 0.000000
# 4 0.000000 0.000000 0.000000 0.044691 0.000000 0.000000
# 5 0.000000 0.000000 0.000000 0.000000 -0.008165 0.000000
# 6 0.000000 0.000000 0.000000 0.000000 0.000000 0.000223
#
#
# Mechanical properties :
#
#
# Convention : Reuss Voigt Hill
#
# Bulk Modulus (GPa) = 38.39966 62.06587 50.23277
# Shear Modulus (GPa) = 26.20144 885.28362 455.74253
#
# Velocity S-wave (km/s) = 3.55813 20.68235 14.83948
# Velocity P-wave (km/s) = 5.95270 24.50175 17.82934
#
# Compressibility (1/GPa) = 0.02604190
#
# Stress axis : x y z
#
# Youngs Moduli (GPa) = 66.48288 75.38015 17.41771
#
# Poissons Ratio (x) = 0.03724 0.34466
# Poissons Ratio (y) = 0.03284 0.16646
# Poissons Ratio (z) = 1.31557 0.72042
#
# Static dielectric constant tensor:
#      x y z
#    x 1.720960 0.000000 0.000000 
#    y 0.000000 1.762680 0.000000 
#    z 0.000000 0.000000 1.744730 
# 
# From -- ./inp_files/45774.got.cif
#   From: 2010.05.17/outbox.ucp.g08.bks.cvg/sg65_23_cif.got.tgz:45774.got - 2010.06.11 16:39:57.
