data_PCOD9494567
_publ_section_title
;
Structure prediction by ZEFSAII (Michael W. Deem and Ramdas Pophale) SiO2 
 PCOD9494567
Probable space group: C M M M
;
_chemical_formula_sum "Si O2"
_cell_formula_units_Z 52
_cell_length_a 30.000000
_cell_length_b 24.000000
_cell_length_c 9.000000
_cell_angle_alpha 90.000000
_cell_angle_beta 90.000000
_cell_angle_gamma 90.000000
_cell_volume 6480.000000
_symmetry_space_group_name_H-M "C M M M"
_symmetry_group_IT_number 65
_symmetry_cell_setting 'orthorhombic'
loop_
_space_group_symop_operation_xyz
x,y,z
-x,-y,z
x,-y,-z
-x,y,-z
-x,-y,-z
x,y,-z
-x,y,z
x,-y,z
1/2+x,1/2+y,z
1/2-x,1/2-y,z
1/2+x,1/2-y,-z
1/2-x,1/2+y,-z
1/2-x,1/2-y,-z
1/2+x,1/2+y,-z
1/2-x,1/2+y,z
1/2+x,1/2-y,z
loop_
_atom_site_type_symbol
_atom_site_label
_atom_site_fract_x
_atom_site_fract_y
_atom_site_fract_z
Si Si1 0.897146 0.887443 0.179708
Si Si2 0.947670 0.783643 0.679090
Si Si3 0.789874 0.567508 0.330161
Si Si4 0.552665 0.844063 0.678282
Si Si5 0.116976 0.434810 0.822030
Si Si6 0.448690 0.500000 0.819179
Si Si7 0.801981 0.934173 0.821839
O O1 0.918182 0.831920 0.248372
O O2 0.845671 0.899206 0.219889
O O3 0.924247 0.943069 0.227004
O O4 0.899787 0.884082 0.000000
O O5 0.944462 0.787001 0.500000
O O6 0.935392 0.719846 0.721645
O O7 0.000000 0.791895 0.718244
O O8 0.793439 0.586822 0.500000
O O9 0.788321 0.500000 0.331081
O O10 0.834188 0.581696 0.238984
O O11 0.743405 0.585087 0.256129
O O12 0.558498 0.848340 0.500000
O O13 0.500000 0.851145 0.709566
O O14 0.581367 0.891727 0.756343
O O15 0.108648 0.500000 0.778423
O O16 0.116754 0.432627 0.000000
O O17 0.500000 0.500000 0.771335
O O18 0.447654 0.500000 0.000000
O O19 0.809765 0.000000 0.786836
O O20 0.796440 0.931121 0.000000
#
# Coordination Sequence:
#
# PCOD9494567 Si02
#       7
#    16  16  16  16  16   8  16
#     4  10  18  29  47  71  96 128 168 209 251 296
#     4   9  19  35  51  68  94 129 168 208 248 289
#     4   9  17  29  47  71  98 130 166 198 234 288
#     4   9  19  36  55  73  97 132 169 201 236 285
#     4  10  20  33  51  78 108 132 155 191 242 290
#     4   9  16  26  41  65  97 129 163 205 250 295
#     4   9  16  28  45  67  98 130 163 204 251 295
#
# _framework density 8.0246910000000007
#
# number of rings (size 3 to 8) (size 9 to 14) (size 15 to 20)
#    0.000    2.692    0.769    2.308    0.000    5.538 
#    0.000    3.462    0.000    2.308    0.000    6.462 
#    0.000    0.000    0.000    0.000    0.000    0.000 
#
# Total GULP energy -289811.627462 kJ/mol
# GULP energy per Si atom -5573.300528 kJ/mol
# Density = 0.800643 g / cm^3
# Si number density = 8.024691 Si / 1000 Ang^3
#
#
#
# Elastic Constant Matrix: (Units=GPa)
#
#
# Indices 1 2 3 4 5 6 
#
# 1 130.9460 89.3012 52.9303 0.0000 0.0000 0.0000
# 2 89.3012 118.9185 47.2823 0.0000 0.0000 0.0000
# 3 52.9303 47.2823 41.5597 0.0000 0.0000 0.0000
# 4 0.0000 0.0000 0.0000 28.5546 0.0000 0.0000
# 5 0.0000 0.0000 0.0000 0.0000 29.6339 0.0000
# 6 0.0000 0.0000 0.0000 0.0000 0.0000 22.7381
#
#
#
# Elastic Compliance Matrix: (Units=1/GPa)
#
#
# Indices 1 2 3 4 5 6 
#
# 1 0.019784 -0.008835 -0.015145 0.000000 0.000000 0.000000
# 2 -0.008835 0.019300 -0.010706 0.000000 0.000000 0.000000
# 3 -0.015145 -0.010706 0.055531 0.000000 0.000000 0.000000
# 4 0.000000 0.000000 0.000000 0.035021 0.000000 0.000000
# 5 0.000000 0.000000 0.000000 0.000000 0.033745 0.000000
# 6 0.000000 0.000000 0.000000 0.000000 0.000000 0.043979
#
#
# Mechanical properties :
#
#
# Convention : Reuss Voigt Hill
#
# Bulk Modulus (GPa) = 39.61497 74.49466 57.05481
# Shear Modulus (GPa) = 17.53491 22.97934 20.25712
#
# Velocity S-wave (km/s) = 3.30897 3.78800 3.55656
# Velocity P-wave (km/s) = 6.27183 8.10238 7.24515
#
# Compressibility (1/GPa) = 0.02524298
#
# Stress axis : x y z
#
# Youngs Moduli (GPa) = 50.54682 51.81313 18.00798
#
# Poissons Ratio (x) = 0.45775 0.27274
# Poissons Ratio (y) = 0.44656 0.19279
# Poissons Ratio (z) = 0.76555 0.55471
#
# Static dielectric constant tensor:
#      x y z
#    x 1.532560 0.000000 0.000000 
#    y 0.000000 1.516890 0.000000 
#    z 0.000000 0.000000 1.541930 
# 
# From -- ./inp_files/18861.got.cif
#   From: 2010.05.17/outbox.ucp.g08.bks.cvg/sg65_10_cif.got.tgz:18861.got - 2010.06.11 16:39:57.
