data_PCOD9494597
_publ_section_title
;
Structure prediction by ZEFSAII (Michael W. Deem and Ramdas Pophale) SiO2 
 PCOD9494597
Probable space group: C M M M
;
_chemical_formula_sum "Si O2"
_cell_formula_units_Z 36
_cell_length_a 24.000000
_cell_length_b 15.000000
_cell_length_c 12.000000
_cell_angle_alpha 90.000000
_cell_angle_beta 90.000000
_cell_angle_gamma 90.000000
_cell_volume 4320.000000
_symmetry_space_group_name_H-M "C M M M"
_symmetry_group_IT_number 65
_symmetry_cell_setting 'orthorhombic'
loop_
_space_group_symop_operation_xyz
x,y,z
-x,-y,z
x,-y,-z
-x,y,-z
-x,-y,-z
x,y,-z
-x,y,z
x,-y,z
1/2+x,1/2+y,z
1/2-x,1/2-y,z
1/2+x,1/2-y,-z
1/2-x,1/2+y,-z
1/2-x,1/2-y,-z
1/2+x,1/2+y,-z
1/2-x,1/2+y,z
1/2+x,1/2-y,z
loop_
_atom_site_type_symbol
_atom_site_label
_atom_site_fract_x
_atom_site_fract_y
_atom_site_fract_z
Si Si1 0.566488 0.750871 0.185888
Si Si2 0.400343 0.107285 0.000000
Si Si3 0.664025 0.754426 0.637210
Si Si4 0.746459 0.389315 0.742220
Si Si5 0.766390 0.395051 0.000000
Si Si6 0.567509 0.604032 0.000000
O O1 0.500000 0.745154 0.209091
O O2 0.577052 0.838073 0.107428
O O3 0.605185 0.754831 0.295851
O O4 0.582685 0.664643 0.108109
O O5 0.333215 0.117483 0.000000
O O6 0.412643 0.000000 0.000000
O O7 0.661333 0.756820 0.500000
O O8 0.696582 0.664398 0.679406
O O9 0.699683 0.839624 0.685678
O O10 0.746659 0.500000 0.731745
O O11 0.745394 0.365413 0.876193
O O12 0.754523 0.500000 0.000000
O O13 0.587541 0.500000 0.000000
O O14 0.500000 0.600315 0.000000
#
# Coordination Sequence:
#
# PCOD9494597 Si02
#       6
#    16   8  16  16   8   8
#     4  10  21  36  56  84 115 147 184 229 278 330
#     4  10  18  34  58  87 118 145 177 222 283 346
#     4  11  24  38  55  80 110 153 197 228 268 324
#     4  10  21  39  60  84 112 141 181 234 288 335
#     4   9  17  31  58  88 110 138 169 216 289 344
#     4   8  16  33  56  80 105 136 176 225 282 330
#
# _framework density 8.3333329999999997
#
# number of rings (size 3 to 8) (size 9 to 14) (size 15 to 20)
#    0.000    2.111    2.222    2.333    0.000    7.556 
#    0.000    1.111    0.000    0.000    0.000    7.778 
#    0.000    0.000    0.000    0.000    0.000    0.000 
#
# Total GULP energy -200542.029983 kJ/mol
# GULP energy per Si atom -5570.611944 kJ/mol
# Density = 0.831437 g / cm^3
# Si number density = 8.333333 Si / 1000 Ang^3
#
#
#
# Elastic Constant Matrix: (Units=GPa)
#
#
# Indices 1 2 3 4 5 6 
#
# 1 88.6915 29.4134 58.3546 0.0000 0.0000 0.0000
# 2 29.4134 137.9744 44.8882 0.0000 0.0000 0.0000
# 3 58.3546 44.8882 180.0895 0.0000 0.0000 0.0000
# 4 0.0000 0.0000 0.0000 29.8286 0.0000 0.0000
# 5 0.0000 0.0000 0.0000 0.0000 32.5348 0.0000
# 6 0.0000 0.0000 0.0000 0.0000 0.0000 22.8455
#
#
#
# Elastic Compliance Matrix: (Units=1/GPa)
#
#
# Indices 1 2 3 4 5 6 
#
# 1 0.014697 -0.001724 -0.004333 0.000000 0.000000 0.000000
# 2 -0.001724 0.008089 -0.001458 0.000000 0.000000 0.000000
# 3 -0.004333 -0.001458 0.007320 0.000000 0.000000 0.000000
# 4 0.000000 0.000000 0.000000 0.033525 0.000000 0.000000
# 5 0.000000 0.000000 0.000000 0.000000 0.030736 0.000000
# 6 0.000000 0.000000 0.000000 0.000000 0.000000 0.043772
#
#
# Mechanical properties :
#
#
# Convention : Reuss Voigt Hill
#
# Bulk Modulus (GPa) = 66.31942 74.67420 70.49681
# Shear Modulus (GPa) = 31.60652 35.31505 33.46079
#
# Velocity S-wave (km/s) = 4.35948 4.60815 4.48554
# Velocity P-wave (km/s) = 8.07578 8.55659 8.31965
#
# Compressibility (1/GPa) = 0.01507854
#
# Stress axis : x y z
#
# Youngs Moduli (GPa) = 68.03920 123.61785 136.60956
#
# Poissons Ratio (x) = 0.21306 0.59190
# Poissons Ratio (y) = 0.11727 0.19916
# Poissons Ratio (z) = 0.29480 0.18022
#
# Static dielectric constant tensor:
#      x y z
#    x 1.594650 0.000000 0.000000 
#    y 0.000000 1.579090 0.000000 
#    z 0.000000 0.000000 1.563900 
# 
# From -- ./inp_files/30330.got.cif
#   From: 2010.05.17/outbox.ucp.g08.bks.cvg/sg65_16_cif.got.tgz:30330.got - 2010.06.11 16:39:57.
