data_PCOD9494262
_publ_section_title
;
Structure prediction by ZEFSAII (Michael W. Deem and Ramdas Pophale) SiO2 
 PCOD9494262
Probable space group: C M M M
;
_chemical_formula_sum "Si O2"
_cell_formula_units_Z 96
_cell_length_a 14.062856
_cell_length_b 25.337024
_cell_length_c 14.131682
_cell_angle_alpha 90.000000
_cell_angle_beta 90.000000
_cell_angle_gamma 90.000000
_cell_volume 5035.272614
_symmetry_space_group_name_H-M "C M M M"
_symmetry_group_IT_number 65
_symmetry_cell_setting 'orthorhombic'
loop_
_space_group_symop_operation_xyz
x,y,z
-x,-y,z
x,-y,-z
-x,y,-z
-x,-y,-z
x,y,-z
-x,y,z
x,-y,z
1/2+x,1/2+y,z
1/2-x,1/2-y,z
1/2+x,1/2-y,-z
1/2-x,1/2+y,-z
1/2-x,1/2-y,-z
1/2+x,1/2+y,-z
1/2-x,1/2+y,z
1/2+x,1/2-y,z
loop_
_atom_site_type_symbol
_atom_site_label
_atom_site_fract_x
_atom_site_fract_y
_atom_site_fract_z
Si Si1 0.116220 0.172132 0.892133
Si Si2 0.288347 0.941816 0.615254
Si Si3 0.892874 0.118682 0.613758
Si Si4 0.385364 0.165553 0.390049
Si Si5 0.387949 0.443502 0.884800
Si Si6 0.384227 0.728413 0.709661
O O1 0.149367 0.114112 0.856464
O O2 0.144588 0.215883 0.816769
O O3 0.000000 0.170140 0.893332
O O4 0.147037 0.180977 0.000000
O O5 0.294489 0.942959 0.500000
O O6 0.180196 0.926956 0.640816
O O7 0.349156 0.891105 0.645389
O O8 0.316169 0.000000 0.649108
O O9 0.894940 0.120430 0.500000
O O10 0.860729 0.176208 0.649143
O O11 0.000000 0.109176 0.648559
O O12 0.355728 0.171652 0.500000
O O13 0.500000 0.165195 0.388396
O O14 0.350486 0.216309 0.332118
O O15 0.500000 0.444469 0.861004
O O16 0.345947 0.500000 0.853766
O O17 0.383397 0.442504 0.000000
O O18 0.500000 0.730796 0.707028
#
# Coordination Sequence:
#
# PCOD9494262 Si02
#       6
#    16  16  16  16  16  16
#     4   8  13  21  34  54  82 114 146 185 229 266
#     4   9  18  31  46  66  91 120 154 186 222 271
#     4   9  17  29  45  65  91 122 152 182 214 254
#     4   9  17  29  46  68  93 119 148 187 230 269
#     4   7   9  14  25  41  63  94 131 169 210 253
#     4   9  16  26  40  61  90 120 151 185 223 269
#
# _framework density 19.065501999999999
#
# number of rings (size 3 to 8) (size 9 to 14) (size 15 to 20)
#    0.000    3.500    0.000    2.000    0.000    3.333 
#    0.000    6.667    0.000    3.000    0.000    2.333 
#    0.000    2.000    0.000    6.500    0.000    0.167 
#
# Total GULP energy -267454.467116 kJ/mol
# GULP energy per Si atom -5571.968065 kJ/mol
# Density = 1.902211 g / cm^3
# Si number density = 19.065502 Si / 1000 Ang^3
#
#
#
# Elastic Constant Matrix: (Units=GPa)
#
#
# Indices 1 2 3 4 5 6 
#
# 1 19.8478 18.7916 9.1425 0.0000 0.0000 0.0000
# 2 18.7916 174.8242 56.0737 0.0000 0.0000 0.0000
# 3 9.1425 56.0737 64.8391 0.0000 0.0000 0.0000
# 4 0.0000 0.0000 0.0000 15.5615 0.0000 0.0000
# 5 0.0000 0.0000 0.0000 0.0000 4.1413 0.0000
# 6 0.0000 0.0000 0.0000 0.0000 0.0000 20.9152
#
#
#
# Elastic Compliance Matrix: (Units=1/GPa)
#
#
# Indices 1 2 3 4 5 6 
#
# 1 0.056751 -0.004890 -0.003773 0.000000 0.000000 0.000000
# 2 -0.004890 0.008337 -0.006521 0.000000 0.000000 0.000000
# 3 -0.003773 -0.006521 0.021594 0.000000 0.000000 0.000000
# 4 0.000000 0.000000 0.000000 0.064261 0.000000 0.000000
# 5 0.000000 0.000000 0.000000 0.000000 0.241473 0.000000
# 6 0.000000 0.000000 0.000000 0.000000 0.000000 0.047812
#
#
# Mechanical properties :
#
#
# Convention : Reuss Voigt Hill
#
# Bulk Modulus (GPa) = 17.75733 47.50298 32.63015
# Shear Modulus (GPa) = 10.21729 19.82382 15.02056
#
# Velocity S-wave (km/s) = 2.31747 3.22805 2.80989
# Velocity P-wave (km/s) = 4.06140 6.23406 5.26111
#
# Compressibility (1/GPa) = 0.05631479
#
# Stress axis : x y z
#
# Youngs Moduli (GPa) = 17.62081 119.94655 46.30951
#
# Poissons Ratio (x) = 0.58652 0.17474
# Poissons Ratio (y) = 0.08616 0.30196
# Poissons Ratio (z) = 0.06649 0.78211
#
# Static dielectric constant tensor:
#      x y z
#    x 1.684470 0.000000 0.000000 
#    y 0.000000 1.689950 0.000000 
#    z 0.000000 0.000000 1.686980 
# 
# From -- ./inp_files/40386.got.cif
#   From: 2010.05.17/outbox.cif.g08.bks.cpg/sg65_21_cif.got.tgz:40386.got - 2010.06.03 17:01:31.
