data_PCOD9494915
_publ_section_title
;
Structure prediction by ZEFSAII (Michael W. Deem and Ramdas Pophale) SiO2 
 PCOD9494915
Probable space group: C C C M
;
_chemical_formula_sum "Si O2"
_cell_formula_units_Z 96
_cell_length_a 17.140859
_cell_length_b 21.249679
_cell_length_c 18.212410
_cell_angle_alpha 90.000000
_cell_angle_beta 90.000000
_cell_angle_gamma 90.000000
_cell_volume 6633.647268
_symmetry_space_group_name_H-M "C C C M"
_symmetry_group_IT_number 66
_symmetry_cell_setting 'orthorhombic'
loop_
_space_group_symop_operation_xyz
x,y,z
-x,-y,z
x,-y,1/2-z
-x,y,1/2-z
-x,-y,-z
x,y,-z
-x,y,1/2+z
x,-y,1/2+z
1/2+x,1/2+y,z
1/2-x,1/2-y,z
1/2+x,1/2-y,1/2-z
1/2-x,1/2+y,1/2-z
1/2-x,1/2-y,-z
1/2+x,1/2+y,-z
1/2-x,1/2+y,1/2+z
1/2+x,1/2-y,1/2+z
loop_
_atom_site_type_symbol
_atom_site_label
_atom_site_fract_x
_atom_site_fract_y
_atom_site_fract_z
Si Si1 0.031677 0.689327 0.581211
Si Si2 0.126967 0.742418 0.877922
Si Si3 0.311333 0.938868 0.797148
Si Si4 0.761137 0.855782 0.584461
Si Si5 0.091924 0.326275 0.232392
Si Si6 0.940477 0.557059 0.580737
O O1 0.065806 0.692930 0.500000
O O2 0.090426 0.695786 0.648572
O O3 0.959394 0.737201 0.589462
O O4 0.989177 0.621277 0.589682
O O5 0.170464 0.806667 0.896030
O O6 0.181521 0.686223 0.909826
O O7 0.117948 0.725923 0.791707
O O8 0.247217 0.907424 0.851172
O O9 0.351503 0.885457 0.745974
O O10 0.379960 0.954254 0.854910
O O11 0.289027 0.000000 0.750000
O O12 0.769862 0.877337 0.500000
O O13 0.000000 0.341302 0.250000
O O14 0.902057 0.560060 0.500000
O O15 0.000000 0.500000 0.580830
#
# Coordination Sequence:
#
# PCOD9494915 Si02
#       6
#    16  16  16  16  16  16
#     4  10  16  25  38  58  84 110 137 169 208 249
#     4   9  16  25  43  60  79 105 138 179 223 249
#     4  11  20  26  38  53  80 116 146 170 206 246
#     4  10  17  28  42  59  78 103 142 186 218 244
#     4   9  16  26  37  58  84 110 136 167 205 246
#     4  10  18  25  35  52  78 113 147 172 195 232
#
# _framework density 14.471677
#
# number of rings (size 3 to 8) (size 9 to 14) (size 15 to 20)
#    0.000    2.167    5.000    3.500    0.000    0.000 
#    0.000    0.833    0.000    0.000    0.000   11.667 
#    0.000    6.000    0.000   15.500    0.000    0.000 
#
# Total GULP energy -267276.926455 kJ/mol
# GULP energy per Si atom -5568.269301 kJ/mol
# Density = 1.443874 g / cm^3
# Si number density = 14.471677 Si / 1000 Ang^3
#
#
#
# Elastic Constant Matrix: (Units=GPa)
#
#
# Indices 1 2 3 4 5 6 
#
# 1 26.0321 18.6403 23.3744 0.0000 0.0000 0.0000
# 2 18.6403 42.2386 30.4876 0.0000 0.0000 0.0000
# 3 23.3744 30.4876 137.8148 0.0000 0.0000 0.0000
# 4 0.0000 0.0000 0.0000 8.5176 0.0000 0.0000
# 5 0.0000 0.0000 0.0000 0.0000 11.8065 0.0000
# 6 0.0000 0.0000 0.0000 0.0000 0.0000 18.1216
#
#
#
# Elastic Compliance Matrix: (Units=1/GPa)
#
#
# Indices 1 2 3 4 5 6 
#
# 1 0.058975 -0.022380 -0.005052 0.000000 0.000000 0.000000
# 2 -0.022380 0.036666 -0.004316 0.000000 0.000000 0.000000
# 3 -0.005052 -0.004316 0.009068 0.000000 0.000000 0.000000
# 4 0.000000 0.000000 0.000000 0.117404 0.000000 0.000000
# 5 0.000000 0.000000 0.000000 0.000000 0.084699 0.000000
# 6 0.000000 0.000000 0.000000 0.000000 0.000000 0.055183
#
#
# Mechanical properties :
#
#
# Convention : Reuss Voigt Hill
#
# Bulk Modulus (GPa) = 24.26316 39.01001 31.63658
# Shear Modulus (GPa) = 11.38362 16.59469 13.98915
#
# Velocity S-wave (km/s) = 2.80771 3.38997 3.11248
# Velocity P-wave (km/s) = 5.22621 6.50670 5.90129
#
# Compressibility (1/GPa) = 0.04121475
#
# Stress axis : x y z
#
# Youngs Moduli (GPa) = 16.95628 27.27289 110.28249
#
# Poissons Ratio (x) = 0.61037 0.55712
# Poissons Ratio (y) = 0.37948 0.47593
# Poissons Ratio (z) = 0.08566 0.11770
#
# Static dielectric constant tensor:
#      x y z
#    x 1.464910 0.000000 0.000000 
#    y 0.000000 1.480520 0.000000 
#    z 0.000000 0.000000 1.534630 
# 
# From -- ./inp_files/41914.got.cif
#   From: 2010.05.17/outbox.cif.g08.bks.cpg/sg66_21_cif.got.tgz:41914.got - 2010.06.03 17:51:23.
