data_PCOD9494601
_publ_section_title
;
Structure prediction by ZEFSAII (Michael W. Deem and Ramdas Pophale) SiO2 
 PCOD9494601
Probable space group: C M M M
;
_chemical_formula_sum "Si O2"
_cell_formula_units_Z 56
_cell_length_a 27.000000
_cell_length_b 15.000000
_cell_length_c 15.000000
_cell_angle_alpha 90.000000
_cell_angle_beta 90.000000
_cell_angle_gamma 90.000000
_cell_volume 6075.000000
_symmetry_space_group_name_H-M "C M M M"
_symmetry_group_IT_number 65
_symmetry_cell_setting 'orthorhombic'
loop_
_space_group_symop_operation_xyz
x,y,z
-x,-y,z
x,-y,-z
-x,y,-z
-x,-y,-z
x,y,-z
-x,y,z
x,-y,z
1/2+x,1/2+y,z
1/2-x,1/2-y,z
1/2+x,1/2-y,-z
1/2-x,1/2+y,-z
1/2-x,1/2-y,-z
1/2+x,1/2+y,-z
1/2-x,1/2+y,z
1/2+x,1/2-y,z
loop_
_atom_site_type_symbol
_atom_site_label
_atom_site_fract_x
_atom_site_fract_y
_atom_site_fract_z
Si Si1 0.367206 0.102311 0.393520
Si Si2 0.747414 0.643198 0.902803
Si Si3 0.821327 0.096948 0.599260
Si Si4 0.367949 0.606018 0.901695
Si Si5 0.768632 0.647334 0.713904
Si Si6 0.446338 0.394763 0.239742
Si Si7 0.084536 0.779752 0.397441
O O1 0.358446 0.108746 0.500000
O O2 0.317100 0.129595 0.343284
O O3 0.408616 0.176416 0.372930
O O4 0.380023 0.000000 0.372757
O O5 0.750000 0.750000 0.907948
O O6 0.690029 0.620005 0.886085
O O7 0.776926 0.616439 0.815260
O O8 0.761824 0.607332 0.000000
O O9 0.799071 0.105070 0.500000
O O10 0.778062 0.099322 0.669977
O O11 0.860917 0.174729 0.608688
O O12 0.846752 0.000000 0.604340
O O13 0.376695 0.500000 0.904569
O O14 0.402537 0.640040 0.823302
O O15 0.379534 0.643116 0.000000
O O16 0.750000 0.750000 0.714150
O O17 0.500000 0.387093 0.194539
O O18 0.438822 0.500000 0.258791
O O19 0.446111 0.337588 0.328917
O O20 0.068211 0.787413 0.500000
#
# Coordination Sequence:
#
# PCOD9494601 Si02
#       7
#    16  16  16  16  16  16  16
#     4  10  21  35  50  70  98 134 177 223 266 306
#     4   9  19  32  46  69 100 136 176 211 246 298
#     4  10  19  29  44  68  97 130 167 206 250 304
#     4   9  18  33  53  75 103 140 176 211 252 301
#     4  11  19  28  46  68  96 135 173 216 263 297
#     4  10  21  35  54  82 110 135 168 211 261 319
#     4  10  20  34  51  70  99 135 171 209 255 311
#
# _framework density 9.2181069999999998
#
# number of rings (size 3 to 8) (size 9 to 14) (size 15 to 20)
#    0.000    2.143    1.429    2.143    2.000    5.429 
#    0.000    2.143    0.000    0.429    0.000    2.000 
#    0.000    0.000    0.000    1.286    0.000    0.143 
#
# Total GULP energy -312076.675214 kJ/mol
# GULP energy per Si atom -5572.797772 kJ/mol
# Density = 0.919713 g / cm^3
# Si number density = 9.218107 Si / 1000 Ang^3
#
#
#
# Elastic Constant Matrix: (Units=GPa)
#
#
# Indices 1 2 3 4 5 6 
#
# 1 18.5641 8.9924 23.4987 0.0000 0.0000 0.0000
# 2 8.9924 86.4857 31.2667 0.0000 0.0000 0.0000
# 3 23.4987 31.2667 66.4516 0.0000 0.0000 0.0000
# 4 0.0000 0.0000 0.0000 8.2709 0.0000 0.0000
# 5 0.0000 0.0000 0.0000 0.0000 -134.7956 0.0000
# 6 0.0000 0.0000 0.0000 0.0000 0.0000 -30.8458
#
#
#
# Elastic Compliance Matrix: (Units=1/GPa)
#
#
# Indices 1 2 3 4 5 6 
#
# 1 0.098086 0.002821 -0.036013 0.000000 0.000000 0.000000
# 2 0.002821 0.014014 -0.007591 0.000000 0.000000 0.000000
# 3 -0.036013 -0.007591 0.031355 0.000000 0.000000 0.000000
# 4 0.000000 0.000000 0.000000 0.120906 0.000000 0.000000
# 5 0.000000 0.000000 0.000000 0.000000 -0.007419 0.000000
# 6 0.000000 0.000000 0.000000 0.000000 0.000000 -0.032419
#
#
# Mechanical properties :
#
#
# Convention : Reuss Voigt Hill
#
# Bulk Modulus (GPa) = 16.15792 33.22414 24.69103
# Shear Modulus (GPa) = 15.30365 -24.29120 -4.49378
#
# Velocity S-wave (km/s) = 2.88425 -3.63379 -1.56293
# Velocity P-wave (km/s) = 4.45815 0.67407 3.18822
#
# Compressibility (1/GPa) = 0.06188914
#
# Stress axis : x y z
#
# Youngs Moduli (GPa) = 10.19509 71.35860 31.89257
#
# Poissons Ratio (x) = -0.20129 1.14854
# Poissons Ratio (y) = -0.02876 0.24210
# Poissons Ratio (z) = 0.36715 0.54170
#
# Static dielectric constant tensor:
#      x y z
#    x 1.586320 0.000000 0.000000 
#    y 0.000000 1.635680 0.000000 
#    z 0.000000 0.000000 1.689320 
# 
# From -- ./inp_files/41127.got.cif
#   From: 2010.05.17/outbox.ucp.g08.bks.cvg/sg65_21_cif.got.tgz:41127.got - 2010.06.11 16:39:57.
