data_PCOD9494236
_publ_section_title
;
Structure prediction by ZEFSAII (Michael W. Deem and Ramdas Pophale) SiO2 
 PCOD9494236
Probable space group: C M M M
;
_chemical_formula_sum "Si O2"
_cell_formula_units_Z 88
_cell_length_a 7.544647
_cell_length_b 28.400512
_cell_length_c 22.445965
_cell_angle_alpha 90.000000
_cell_angle_beta 90.000000
_cell_angle_gamma 90.000000
_cell_volume 4809.538169
_symmetry_space_group_name_H-M "C M M M"
_symmetry_group_IT_number 65
_symmetry_cell_setting 'orthorhombic'
loop_
_space_group_symop_operation_xyz
x,y,z
-x,-y,z
x,-y,-z
-x,y,-z
-x,-y,-z
x,y,-z
-x,y,z
x,-y,z
1/2+x,1/2+y,z
1/2-x,1/2-y,z
1/2+x,1/2-y,-z
1/2-x,1/2+y,-z
1/2-x,1/2-y,-z
1/2+x,1/2+y,-z
1/2-x,1/2+y,z
1/2+x,1/2-y,z
loop_
_atom_site_type_symbol
_atom_site_label
_atom_site_fract_x
_atom_site_fract_y
_atom_site_fract_z
Si Si1 0.283844 0.052650 0.369482
Si Si2 0.704847 0.557353 0.000000
Si Si3 0.712763 0.104053 0.250451
Si Si4 0.216403 0.647640 0.566421
Si Si5 0.288007 0.803559 0.685625
Si Si6 0.211995 0.946667 0.871233
O O1 0.500000 0.051972 0.370021
O O2 0.227756 0.068639 0.303046
O O3 0.231496 0.094748 0.413700
O O4 0.223154 0.000000 0.383784
O O5 0.783014 0.570436 0.064405
O O6 0.704482 0.500000 0.000000
O O7 0.500000 0.573594 0.000000
O O8 0.500000 0.104551 0.253735
O O9 0.777235 0.156055 0.269172
O O10 0.757384 0.086087 0.185178
O O11 0.277436 0.659106 0.500000
O O12 0.276162 0.682240 0.619311
O O13 0.000000 0.648543 0.565815
O O14 0.500000 0.808136 0.683876
O O15 0.250000 0.750000 0.701222
O O16 0.000000 0.950177 0.878537
O O17 0.278318 0.000000 0.859354
#
# Coordination Sequence:
#
# PCOD9494236 Si02
#       6
#    16   8  16  16  16  16
#     4   8  13  21  34  53  78 108 137 163 196 239
#     4   7  12  24  39  57  86 119 144 167 194 225
#     4   9  17  28  41  59  84 111 138 171 212 251
#     4   8  14  24  37  55  79 104 132 167 204 244
#     4   9  18  31  45  61  81 105 134 172 218 260
#     4   9  16  26  42  64  89 117 146 170 193 228
#
# _framework density 18.296975
#
# number of rings (size 3 to 8) (size 9 to 14) (size 15 to 20)
#    0.000    3.545    0.000    3.818    0.000    2.545 
#    0.000    2.273    0.000    1.636    0.000    0.636 
#    0.000    0.000    0.000   19.273    0.000   14.545 
#
# Total GULP energy -245043.791191 kJ/mol
# GULP energy per Si atom -5569.177073 kJ/mol
# Density = 1.825533 g / cm^3
# Si number density = 18.296975 Si / 1000 Ang^3
#
#
#
# Elastic Constant Matrix: (Units=GPa)
#
#
# Indices 1 2 3 4 5 6 
#
# 1 41.5219 0.7128 3.8934 0.0000 0.0000 0.0000
# 2 0.7128 85.4313 40.4798 0.0000 0.0000 0.0000
# 3 3.8934 40.4798 140.7677 0.0000 0.0000 0.0000
# 4 0.0000 0.0000 0.0000 14.1448 0.0000 0.0000
# 5 0.0000 0.0000 0.0000 0.0000 12.7441 0.0000
# 6 0.0000 0.0000 0.0000 0.0000 0.0000 0.1183
#
#
#
# Elastic Compliance Matrix: (Units=1/GPa)
#
#
# Indices 1 2 3 4 5 6 
#
# 1 0.024148 0.000133 -0.000706 0.000000 0.000000 0.000000
# 2 0.000133 0.013553 -0.003901 0.000000 0.000000 0.000000
# 3 -0.000706 -0.003901 0.008245 0.000000 0.000000 0.000000
# 4 0.000000 0.000000 0.000000 0.070698 0.000000 0.000000
# 5 0.000000 0.000000 0.000000 0.000000 0.078468 0.000000
# 6 0.000000 0.000000 0.000000 0.000000 0.000000 8.455292
#
#
# Mechanical properties :
#
#
# Convention : Reuss Voigt Hill
#
# Bulk Modulus (GPa) = 27.02887 39.76588 33.39737
# Shear Modulus (GPa) = 0.57659 20.24375 10.41017
#
# Velocity S-wave (km/s) = 0.56197 3.32987 2.38787
# Velocity P-wave (km/s) = 3.90198 6.04688 5.08872
#
# Compressibility (1/GPa) = 0.03699747
#
# Stress axis : x y z
#
# Youngs Moduli (GPa) = 41.41196 73.78676 121.28269
#
# Poissons Ratio (x) = -0.00982 0.08565
# Poissons Ratio (y) = -0.00551 0.47311
# Poissons Ratio (z) = 0.02924 0.28784
#
# Static dielectric constant tensor:
#      x y z
#    x 1.719720 0.000000 0.000000 
#    y 0.000000 1.621860 0.000000 
#    z 0.000000 0.000000 1.653470 
# 
# From -- ./inp_files/60720.got.cif
#   From: 2010.05.17/outbox.cif.g08.bks.cpg/sg65_31_cif.got.tgz:60720.got - 2010.06.03 17:01:31.
