data_PCOD9494294
_publ_section_title
;
Structure prediction by ZEFSAII (Michael W. Deem and Ramdas Pophale) SiO2 
 PCOD9494294
Probable space group: C M M M
;
_chemical_formula_sum "Si O2"
_cell_formula_units_Z 80
_cell_length_a 7.386700
_cell_length_b 14.676161
_cell_length_c 28.735611
_cell_angle_alpha 90.000000
_cell_angle_beta 90.000000
_cell_angle_gamma 90.000000
_cell_volume 3115.181567
_symmetry_space_group_name_H-M "C M M M"
_symmetry_group_IT_number 65
_symmetry_cell_setting 'orthorhombic'
loop_
_space_group_symop_operation_xyz
x,y,z
-x,-y,z
x,-y,-z
-x,y,-z
-x,-y,-z
x,y,-z
-x,y,z
x,-y,z
1/2+x,1/2+y,z
1/2-x,1/2-y,z
1/2+x,1/2-y,-z
1/2-x,1/2+y,-z
1/2-x,1/2-y,-z
1/2+x,1/2+y,-z
1/2-x,1/2+y,z
1/2+x,1/2-y,z
loop_
_atom_site_type_symbol
_atom_site_label
_atom_site_fract_x
_atom_site_fract_y
_atom_site_fract_z
Si Si1 0.286498 0.396613 0.000000
Si Si2 0.784132 0.642635 0.299829
Si Si3 0.294796 0.108516 0.198058
Si Si4 0.783229 0.640763 0.500000
Si Si5 0.715308 0.895924 0.899537
Si Si6 0.783084 0.359311 0.600234
O O1 0.239748 0.353264 0.950321
O O2 0.205454 0.500000 0.000000
O O3 0.500000 0.403906 0.000000
O O4 0.750000 0.750000 0.302523
O O5 0.709511 0.617908 0.249015
O O6 0.715108 0.606114 0.349625
O O7 0.000000 0.621580 0.298845
O O8 0.500000 0.146823 0.202391
O O9 0.212172 0.143498 0.149353
O O10 0.306977 0.000000 0.190792
O O11 0.750000 0.750000 0.500000
O O12 0.714427 0.606824 0.449886
O O13 0.000000 0.625987 0.500000
O O14 0.500000 0.900422 0.892519
O O15 0.786659 0.000000 0.904279
O O16 0.750000 0.250000 0.599859
O O17 0.000000 0.373531 0.600450
#
# Coordination Sequence:
#
# PCOD9494294 Si02
#       6
#     8  16  16   8  16  16
#     4   9  15  21  31  51  78 101 118 143 185 231
#     4   9  16  26  40  58  79 102 129 161 196 231
#     4   8  14  25  41  59  77 100 133 166 189 218
#     4   8  12  18  28  44  67  93 119 147 183 224
#     4   8  13  22  36  52  70  94 124 155 184 216
#     4   8  13  20  31  48  70  95 121 151 187 225
#
# _framework density 25.680686000000001
#
# number of rings (size 3 to 8) (size 9 to 14) (size 15 to 20)
#    0.000    3.700    0.000    1.500    0.000    1.200 
#    0.000    1.000    0.000    1.800    0.000    1.400 
#    0.000    5.600    0.000    0.000    0.000  190.200 
#
# Total GULP energy -222708.462099 kJ/mol
# GULP energy per Si atom -5567.711552 kJ/mol
# Density = 2.562224 g / cm^3
# Si number density = 25.680686 Si / 1000 Ang^3
#
#
#
# Elastic Constant Matrix: (Units=GPa)
#
#
# Indices 1 2 3 4 5 6 
#
# 1 101.8177 -9.7975 17.2101 0.0000 0.0000 0.0000
# 2 -9.7975 78.3990 19.9058 0.0000 0.0000 0.0000
# 3 17.2101 19.9058 421.3305 0.0000 0.0000 0.0000
# 4 0.0000 0.0000 0.0000 13.5823 0.0000 0.0000
# 5 0.0000 0.0000 0.0000 0.0000 -91.6552 0.0000
# 6 0.0000 0.0000 0.0000 0.0000 0.0000 -11.3628
#
#
#
# Elastic Compliance Matrix: (Units=1/GPa)
#
#
# Indices 1 2 3 4 5 6 
#
# 1 0.010034 0.001374 -0.000475 0.000000 0.000000 0.000000
# 2 0.001374 0.013098 -0.000675 0.000000 0.000000 0.000000
# 3 -0.000475 -0.000675 0.002425 0.000000 0.000000 0.000000
# 4 0.000000 0.000000 0.000000 0.073625 0.000000 0.000000
# 5 0.000000 0.000000 0.000000 0.000000 -0.010910 0.000000
# 6 0.000000 0.000000 0.000000 0.000000 0.000000 -0.088007
#
#
# Mechanical properties :
#
#
# Convention : Reuss Voigt Hill
#
# Bulk Modulus (GPa) = 38.45184 72.90934 55.68059
# Shear Modulus (GPa) = 589.30898 20.39479 304.85188
#
# Velocity S-wave (km/s) = 15.16488 2.82116 10.90717
# Velocity P-wave (km/s) = 17.93425 6.25014 13.42947
#
# Compressibility (1/GPa) = 0.02600656
#
# Stress axis : x y z
#
# Youngs Moduli (GPa) = 99.66122 76.34509 412.41917
#
# Poissons Ratio (x) = -0.10494 0.19582
# Poissons Ratio (y) = -0.13698 0.27838
# Poissons Ratio (z) = 0.04732 0.05153
#
# Static dielectric constant tensor:
#      x y z
#    x 1.996720 0.000000 0.000000 
#    y 0.000000 2.091900 0.000000 
#    z 0.000000 0.000000 2.180180 
# 
# From -- ./inp_files/67774.got.cif
#   From: 2010.05.17/outbox.cif.g08.bks.cpg/sg65_34_cif.got.tgz:67774.got - 2010.06.03 17:01:31.
