data_PCOD9494823
_publ_section_title
;
Structure prediction by ZEFSAII (Michael W. Deem and Ramdas Pophale) SiO2 
 PCOD9494823
Probable space group: C M M M
;
_chemical_formula_sum "Si O2"
_cell_formula_units_Z 52
_cell_length_a 27.000000
_cell_length_b 9.000000
_cell_length_c 21.000000
_cell_angle_alpha 90.000000
_cell_angle_beta 90.000000
_cell_angle_gamma 90.000000
_cell_volume 5103.000000
_symmetry_space_group_name_H-M "C M M M"
_symmetry_group_IT_number 65
_symmetry_cell_setting 'orthorhombic'
loop_
_space_group_symop_operation_xyz
x,y,z
-x,-y,z
x,-y,-z
-x,y,-z
-x,-y,-z
x,y,-z
-x,y,z
x,-y,z
1/2+x,1/2+y,z
1/2-x,1/2-y,z
1/2+x,1/2-y,-z
1/2-x,1/2+y,-z
1/2-x,1/2-y,-z
1/2+x,1/2+y,-z
1/2-x,1/2+y,z
1/2+x,1/2-y,z
loop_
_atom_site_type_symbol
_atom_site_label
_atom_site_fract_x
_atom_site_fract_y
_atom_site_fract_z
Si Si1 0.697775 0.326180 0.577129
Si Si2 0.162544 0.322330 0.930641
Si Si3 0.500000 0.335026 0.425432
Si Si4 0.796605 0.170348 0.193799
Si Si5 0.444896 0.823145 0.880179
Si Si6 0.907059 0.828584 0.754840
Si Si7 0.596639 0.174979 0.625099
O O1 0.694280 0.316888 0.500000
O O2 0.698288 0.500000 0.595198
O O3 0.750000 0.250000 0.595506
O O4 0.648957 0.248827 0.605497
O O5 0.168537 0.500000 0.926451
O O6 0.191503 0.247238 0.873409
O O7 0.103526 0.292010 0.922647
O O8 0.179023 0.270706 0.000000
O O9 0.500000 0.500000 0.394775
O O10 0.500000 0.353921 0.500000
O O11 0.449944 0.247640 0.409946
O O12 0.750000 0.250000 0.225567
O O13 0.848253 0.177688 0.230838
O O14 0.783592 0.000000 0.183641
O O15 0.500000 0.794032 0.906775
O O16 0.436122 0.727416 0.816766
O O17 0.442666 0.000000 0.865218
O O18 0.915024 0.715792 0.697889
O O19 0.919508 0.000000 0.739588
O O20 0.599360 0.000000 0.614080
#
# Coordination Sequence:
#
# PCOD9494823 Si02
#       7
#    16  16   8  16  16  16  16
#     4  10  21  39  63  90 121 157 197 242 293 349
#     4   9  18  33  53  79 111 146 185 229 279 339
#     4  11  25  45  67  91 123 163 204 249 300 355
#     4  10  21  37  58  81 108 146 188 234 289 342
#     4   9  18  33  54  79 109 143 182 231 283 337
#     4  10  22  39  57  80 111 147 189 235 284 342
#     4  12  25  40  62  91 123 159 200 247 299 357
#
# _framework density 10.190084000000001
#
# number of rings (size 3 to 8) (size 9 to 14) (size 15 to 20)
#    0.000    1.923    0.000    3.462    1.077    7.077 
#    0.000    3.077    0.000    0.000    0.000    4.308 
#    0.000    0.000    0.000    0.000    0.000    0.000 
#
# Total GULP energy -290382.340464 kJ/mol
# GULP energy per Si atom -5584.275778 kJ/mol
# Density = 1.016689 g / cm^3
# Si number density = 10.190084 Si / 1000 Ang^3
#
#
#
# Elastic Constant Matrix: (Units=GPa)
#
#
# Indices 1 2 3 4 5 6 
#
# 1 80.1513 38.7181 2.2068 0.0000 0.0000 0.0000
# 2 38.7181 113.2768 25.0318 0.0000 0.0000 0.0000
# 3 2.2068 25.0318 48.2268 0.0000 0.0000 0.0000
# 4 0.0000 0.0000 0.0000 19.9431 0.0000 0.0000
# 5 0.0000 0.0000 0.0000 0.0000 -6.8803 0.0000
# 6 0.0000 0.0000 0.0000 0.0000 0.0000 44.8478
#
#
#
# Elastic Compliance Matrix: (Units=1/GPa)
#
#
# Indices 1 2 3 4 5 6 
#
# 1 0.015158 -0.005679 0.002254 0.000000 0.000000 0.000000
# 2 -0.005679 0.012099 -0.006020 0.000000 0.000000 0.000000
# 3 0.002254 -0.006020 0.023757 0.000000 0.000000 0.000000
# 4 0.000000 0.000000 0.000000 0.050143 0.000000 0.000000
# 5 0.000000 0.000000 0.000000 0.000000 -0.145343 0.000000
# 6 0.000000 0.000000 0.000000 0.000000 0.000000 0.022298
#
#
# Mechanical properties :
#
#
# Convention : Reuss Voigt Hill
#
# Bulk Modulus (GPa) = 31.12971 41.50759 36.31865
# Shear Modulus (GPa) = 648.56822 23.29534 335.93178
#
# Velocity S-wave (km/s) = 17.85849 3.38455 12.85265
# Velocity P-wave (km/s) = 20.98909 5.97365 15.43092
#
# Compressibility (1/GPa) = 0.03212365
#
# Stress axis : x y z
#
# Youngs Moduli (GPa) = 65.97331 82.64893 42.09287
#
# Poissons Ratio (x) = 0.46936 -0.09488
# Poissons Ratio (y) = 0.37466 0.25341
# Poissons Ratio (z) = -0.14871 0.49757
#
# Static dielectric constant tensor:
#      x y z
#    x 1.707440 0.000000 0.000000 
#    y 0.000000 1.695430 0.000000 
#    z 0.000000 0.000000 1.733180 
# 
# From -- ./inp_files/65929.got.cif
#   From: 2010.05.17/outbox.ucp.g08.bks.cvg/sg65_33_cif.got.tgz:65929.got - 2010.06.11 16:39:57.
