data_PCOD9494795
_publ_section_title
;
Structure prediction by ZEFSAII (Michael W. Deem and Ramdas Pophale) SiO2 
 PCOD9494795
Probable space group: C M M M
;
_chemical_formula_sum "Si O2"
_cell_formula_units_Z 40
_cell_length_a 9.000000
_cell_length_b 18.000000
_cell_length_c 27.000000
_cell_angle_alpha 90.000000
_cell_angle_beta 90.000000
_cell_angle_gamma 90.000000
_cell_volume 4374.000000
_symmetry_space_group_name_H-M "C M M M"
_symmetry_group_IT_number 65
_symmetry_cell_setting 'orthorhombic'
loop_
_space_group_symop_operation_xyz
x,y,z
-x,-y,z
x,-y,-z
-x,y,-z
-x,-y,-z
x,y,-z
-x,y,z
x,-y,z
1/2+x,1/2+y,z
1/2-x,1/2-y,z
1/2+x,1/2-y,-z
1/2-x,1/2+y,-z
1/2-x,1/2-y,-z
1/2+x,1/2+y,-z
1/2-x,1/2+y,z
1/2+x,1/2-y,z
loop_
_atom_site_type_symbol
_atom_site_label
_atom_site_fract_x
_atom_site_fract_y
_atom_site_fract_z
Si Si1 0.672950 0.910396 0.392557
Si Si2 0.675682 0.912314 0.100788
Si Si3 0.179503 0.330615 0.000000
Si Si4 0.322795 0.331097 0.191488
Si Si5 0.823243 0.830776 0.302349
Si Si6 0.318890 0.913504 0.500000
O O1 0.500000 0.888833 0.386550
O O2 0.764441 0.881000 0.346556
O O3 0.726786 0.881896 0.446665
O O4 0.677843 0.000000 0.394099
O O5 0.500000 0.896708 0.107722
O O6 0.762103 0.882164 0.148059
O O7 0.694271 0.000000 0.095527
O O8 0.724157 0.873014 0.050026
O O9 0.250000 0.250000 0.000000
O O10 0.000000 0.326324 0.000000
O O11 0.500000 0.324125 0.188013
O O12 0.250000 0.250000 0.186144
O O13 0.285401 0.359167 0.246972
O O14 0.750000 0.750000 0.307219
O O15 0.000000 0.823673 0.305181
O O16 0.500000 0.913280 0.500000
O O17 0.272593 0.000000 0.500000
#
# Coordination Sequence:
#
# PCOD9494795 Si02
#       6
#    16  16   8  16  16   8
#     4   9  17  31  53  78 103 133 170 211 256 309
#     4  10  21  37  57  81 110 142 175 214 259 306
#     4  10  21  37  57  81 109 142 179 216 256 304
#     4  10  21  37  56  77 103 137 176 217 260 309
#     4  10  21  36  53  74 103 137 173 215 261 308
#     4   7  12  26  48  73 100 131 167 207 252 303
#
# _framework density 9.1449470000000002
#
# number of rings (size 3 to 8) (size 9 to 14) (size 15 to 20)
#    0.000    2.500    0.000    3.300    0.000    7.600 
#    0.000    5.000    0.000    3.600    0.000    0.000 
#    0.000    0.000    0.000    0.000    0.000    0.000 
#
# Total GULP energy -223041.096389 kJ/mol
# GULP energy per Si atom -5576.027410 kJ/mol
# Density = 0.912413 g / cm^3
# Si number density = 9.144947 Si / 1000 Ang^3
#
#
#
# Elastic Constant Matrix: (Units=GPa)
#
#
# Indices 1 2 3 4 5 6 
#
# 1 45.5313 33.7396 70.1885 0.0000 0.0000 0.0000
# 2 33.7396 28.4565 56.8763 0.0000 0.0000 0.0000
# 3 70.1885 56.8763 184.5820 0.0000 0.0000 0.0000
# 4 0.0000 0.0000 0.0000 28.5777 0.0000 0.0000
# 5 0.0000 0.0000 0.0000 0.0000 82.1709 0.0000
# 6 0.0000 0.0000 0.0000 0.0000 0.0000 28.6087
#
#
#
# Elastic Compliance Matrix: (Units=1/GPa)
#
#
# Indices 1 2 3 4 5 6 
#
# 1 0.184471 -0.204404 -0.007162 0.000000 0.000000 0.000000
# 2 -0.204404 0.317975 -0.020253 0.000000 0.000000 0.000000
# 3 -0.007162 -0.020253 0.014382 0.000000 0.000000 0.000000
# 4 0.000000 0.000000 0.000000 0.034992 0.000000 0.000000
# 5 0.000000 0.000000 0.000000 0.000000 0.012170 0.000000
# 6 0.000000 0.000000 0.000000 0.000000 0.000000 0.034954
#
#
# Mechanical properties :
#
#
# Convention : Reuss Voigt Hill
#
# Bulk Modulus (GPa) = 18.80099 64.46429 41.63264
# Shear Modulus (GPa) = 4.62828 34.38916 19.50872
#
# Velocity S-wave (km/s) = 1.59248 4.34086 3.26949
# Velocity P-wave (km/s) = 3.69907 7.77473 6.08809
#
# Compressibility (1/GPa) = 0.05318868
#
# Stress axis : x y z
#
# Youngs Moduli (GPa) = 5.42090 3.14490 69.53176
#
# Poissons Ratio (x) = 0.64283 0.49800
# Poissons Ratio (y) = 1.10805 1.40825
# Poissons Ratio (z) = 0.03883 0.06369
#
# Static dielectric constant tensor:
#      x y z
#    x 1.612140 0.000000 0.000000 
#    y 0.000000 1.601350 0.000000 
#    z 0.000000 0.000000 1.648890 
# 
# From -- ./inp_files/72913.got.cif
#   From: 2010.05.17/outbox.ucp.g08.bks.cvg/sg65_37_cif.got.tgz:72913.got - 2010.06.11 16:39:57.
