data_PCOD9494678
_publ_section_title
;
Structure prediction by ZEFSAII (Michael W. Deem and Ramdas Pophale) SiO2 
 PCOD9494678
Probable space group: C M M M
;
_chemical_formula_sum "Si O2"
_cell_formula_units_Z 52
_cell_length_a 9.000000
_cell_length_b 30.000000
_cell_length_c 21.000000
_cell_angle_alpha 90.000000
_cell_angle_beta 90.000000
_cell_angle_gamma 90.000000
_cell_volume 5670.000000
_symmetry_space_group_name_H-M "C M M M"
_symmetry_group_IT_number 65
_symmetry_cell_setting 'orthorhombic'
loop_
_space_group_symop_operation_xyz
x,y,z
-x,-y,z
x,-y,-z
-x,y,-z
-x,-y,-z
x,y,-z
-x,y,z
x,-y,z
1/2+x,1/2+y,z
1/2-x,1/2-y,z
1/2+x,1/2-y,-z
1/2-x,1/2+y,-z
1/2-x,1/2-y,-z
1/2+x,1/2+y,-z
1/2-x,1/2+y,z
1/2+x,1/2-y,z
loop_
_atom_site_type_symbol
_atom_site_label
_atom_site_fract_x
_atom_site_fract_y
_atom_site_fract_z
Si Si1 0.177484 0.139808 0.378810
Si Si2 0.322005 0.298741 0.500000
Si Si3 0.334590 0.050309 0.922514
Si Si4 0.821925 0.704258 0.282839
Si Si5 0.328082 0.792529 0.864255
Si Si6 0.676433 0.949605 0.423647
Si Si7 0.160365 0.131468 0.923828
O O1 0.218322 0.171556 0.438683
O O2 0.257303 0.162217 0.319222
O O3 0.233659 0.090062 0.391713
O O4 0.000000 0.140644 0.371901
O O5 0.500000 0.293155 0.500000
O O6 0.250000 0.250000 0.500000
O O7 0.500000 0.065880 0.903976
O O8 0.205938 0.082740 0.900793
O O9 0.315218 0.000000 0.900690
O O10 0.332786 0.049709 0.000000
O O11 0.750000 0.750000 0.308831
O O12 0.777576 0.701545 0.208662
O O13 0.000000 0.706414 0.288136
O O14 0.500000 0.783688 0.862534
O O15 0.250000 0.750000 0.893885
O O16 0.287589 0.835702 0.902888
O O17 0.697901 0.946565 0.500000
O O18 0.500000 0.944143 0.411767
O O19 0.718609 0.000000 0.404235
O O20 0.000000 0.146165 0.899264
O O21 0.154474 0.130573 0.000000
#
# Coordination Sequence:
#
# PCOD9494678 Si02
#       7
#    16   8  16  16  16  16  16
#     4  11  21  34  52  77 107 139 174 211 257 307
#     4  10  22  34  45  70 105 137 168 203 247 298
#     4   8  14  26  45  69  98 132 167 201 241 293
#     4  10  21  37  56  78 101 132 174 215 257 308
#     4  10  21  37  56  75  99 132 172 215 257 306
#     4   9  18  33  53  77 105 139 178 217 259 307
#     4  10  20  32  49  76 107 136 168 208 256 309
#
# _framework density 9.1710759999999993
#
# number of rings (size 3 to 8) (size 9 to 14) (size 15 to 20)
#    0.000    2.308    0.769    3.231    0.000    6.154 
#    0.000    2.308    0.000    0.923    0.000    6.462 
#    0.000    0.000    0.000    0.000    0.000    0.000 
#
# Total GULP energy -289784.126539 kJ/mol
# GULP energy per Si atom -5572.771664 kJ/mol
# Density = 0.915020 g / cm^3
# Si number density = 9.171076 Si / 1000 Ang^3
#
#
#
# Elastic Constant Matrix: (Units=GPa)
#
#
# Indices 1 2 3 4 5 6 
#
# 1 23.7819 39.2323 19.7644 0.0000 0.0000 0.0000
# 2 39.2323 105.5899 17.5138 0.0000 0.0000 0.0000
# 3 19.7644 17.5138 6.8365 0.0000 0.0000 0.0000
# 4 0.0000 0.0000 0.0000 22.1418 0.0000 0.0000
# 5 0.0000 0.0000 0.0000 0.0000 7.5933 0.0000
# 6 0.0000 0.0000 0.0000 0.0000 0.0000 30.5755
#
#
#
# Elastic Compliance Matrix: (Units=1/GPa)
#
#
# Indices 1 2 3 4 5 6 
#
# 1 -0.028171 -0.005289 0.094992 0.000000 0.000000 0.000000
# 2 -0.005289 0.015475 -0.024354 0.000000 0.000000 0.000000
# 3 0.094992 -0.024354 -0.065957 0.000000 0.000000 0.000000
# 4 0.000000 0.000000 0.000000 0.045164 0.000000 0.000000
# 5 0.000000 0.000000 0.000000 0.000000 0.131695 0.000000
# 6 0.000000 0.000000 0.000000 0.000000 0.000000 0.032706
#
#
# Mechanical properties :
#
#
# Convention : Reuss Voigt Hill
#
# Bulk Modulus (GPa) = 19.21446 32.13660 25.67553
# Shear Modulus (GPa) = 284.68311 16.04197 150.36254
#
# Velocity S-wave (km/s) = 12.47173 2.96057 9.06391
# Velocity P-wave (km/s) = 14.76111 5.40789 11.11610
#
# Compressibility (1/GPa) = 0.05204414
#
# Stress axis : x y z
#
# Youngs Moduli (GPa) = -35.49732 64.61924 -15.16148
#
# Poissons Ratio (x) = 0.34176 1.44021
# Poissons Ratio (y) = -0.18774 -0.36925
# Poissons Ratio (z) = 3.37195 1.57377
#
# Static dielectric constant tensor:
#      x y z
#    x 1.654090 0.000000 0.000000 
#    y 0.000000 1.667420 0.000000 
#    z 0.000000 0.000000 1.632910 
# 
# From -- ./inp_files/60815.got.cif
#   From: 2010.05.17/outbox.ucp.g08.bks.cvg/sg65_31_cif.got.tgz:60815.got - 2010.06.11 16:39:57.
