data_PCOD9494960
_publ_section_title
;
Structure prediction by ZEFSAII (Michael W. Deem and Ramdas Pophale) SiO2 
 PCOD9494960
Probable space group: C C C M
;
_chemical_formula_sum "Si O2"
_cell_formula_units_Z 64
_cell_length_a 23.428013
_cell_length_b 5.359696
_cell_length_c 24.891853
_cell_angle_alpha 90.000000
_cell_angle_beta 90.000000
_cell_angle_gamma 90.000000
_cell_volume 3125.595992
_symmetry_space_group_name_H-M "C C C M"
_symmetry_group_IT_number 66
_symmetry_cell_setting 'orthorhombic'
loop_
_space_group_symop_operation_xyz
x,y,z
-x,-y,z
x,-y,1/2-z
-x,y,1/2-z
-x,-y,-z
x,y,-z
-x,y,1/2+z
x,-y,1/2+z
1/2+x,1/2+y,z
1/2-x,1/2-y,z
1/2+x,1/2-y,1/2-z
1/2-x,1/2+y,1/2-z
1/2-x,1/2-y,-z
1/2+x,1/2+y,-z
1/2-x,1/2+y,1/2+z
1/2+x,1/2-y,1/2+z
loop_
_atom_site_type_symbol
_atom_site_label
_atom_site_fract_x
_atom_site_fract_y
_atom_site_fract_z
Si Si1 0.842634 0.250485 0.715399
Si Si2 0.975616 0.746592 0.188838
Si Si3 0.817006 0.554383 0.438097
Si Si4 0.188157 0.058209 0.897279
O O1 0.827325 0.500000 0.750000
O O2 0.908053 0.273200 0.695708
O O3 0.838679 0.000000 0.750000
O O4 0.808903 0.176575 0.661729
O O5 0.000000 0.500000 0.161693
O O6 0.000000 0.748108 0.250000
O O7 0.000000 0.000000 0.163962
O O8 0.820429 0.631138 0.500000
O O9 0.839087 0.781742 0.401130
O O10 0.750777 0.499129 0.421970
O O11 0.842804 0.278603 0.430085
#
# Coordination Sequence:
#
# PCOD9494960 Si02
#       4
#    16  16  16  16
#     4  12  21  32  48  74 113 144 168 216 244 299
#     4  10  16  30  48  67  92 142 177 202 247 290
#     4  10  19  38  58  73  99 128 168 232 273 301
#     4  10  20  32  52  79  98 131 177 210 255 317
#
# _framework density 20.476095000000001
#
# number of rings (size 3 to 8) (size 9 to 14) (size 15 to 20)
#    0.000    1.500    5.000    5.250    0.000    0.000 
#    0.000   10.000    0.000    0.000    0.000    0.000 
#    0.000   34.000    0.000    0.000    0.000    0.000 
#
# Total GULP energy -178181.275199 kJ/mol
# GULP energy per Si atom -5568.164850 kJ/mol
# Density = 2.042949 g / cm^3
# Si number density = 20.476095 Si / 1000 Ang^3
#
#
#
# Elastic Constant Matrix: (Units=GPa)
#
#
# Indices 1 2 3 4 5 6 
#
# 1 39.0477 8.1562 18.6019 0.0000 0.0000 0.0000
# 2 8.1562 240.1042 45.3281 0.0000 0.0000 0.0000
# 3 18.6019 45.3281 89.4923 0.0000 0.0000 0.0000
# 4 0.0000 0.0000 0.0000 34.2802 0.0000 0.0000
# 5 0.0000 0.0000 0.0000 0.0000 -12.7076 0.0000
# 6 0.0000 0.0000 0.0000 0.0000 0.0000 8.9034
#
#
#
# Elastic Compliance Matrix: (Units=1/GPa)
#
#
# Indices 1 2 3 4 5 6 
#
# 1 0.028430 0.000166 -0.005993 0.000000 0.000000 0.000000
# 2 0.000166 0.004606 -0.002367 0.000000 0.000000 0.000000
# 3 -0.005993 -0.002367 0.013619 0.000000 0.000000 0.000000
# 4 0.000000 0.000000 0.000000 0.029171 0.000000 0.000000
# 5 0.000000 0.000000 0.000000 0.000000 -0.078693 0.000000
# 6 0.000000 0.000000 0.000000 0.000000 0.000000 0.112317
#
#
# Mechanical properties :
#
#
# Convention : Reuss Voigt Hill
#
# Bulk Modulus (GPa) = 33.04135 56.97962 45.01048
# Shear Modulus (GPa) = 36.78380 25.86574 31.32477
#
# Velocity S-wave (km/s) = 4.24303 3.55803 3.91554
# Velocity P-wave (km/s) = 6.33845 6.69083 6.51702
#
# Compressibility (1/GPa) = 0.03026511
#
# Stress axis : x y z
#
# Youngs Moduli (GPa) = 35.17372 217.09985 73.42641
#
# Poissons Ratio (x) = -0.03598 0.44008
# Poissons Ratio (y) = -0.00583 0.17384
# Poissons Ratio (z) = 0.21081 0.51398
#
# Static dielectric constant tensor:
#      x y z
#    x 1.787090 0.000000 0.000000 
#    y 0.000000 1.769980 0.000000 
#    z 0.000000 0.000000 1.783570 
# 
# From -- ./inp_files/60007.got.cif
#   From: 2010.05.17/outbox.cif.g08.bks.cpg/sg66_31_cif.got.tgz:60007.got - 2010.06.03 17:51:23.
