data_PCOD9494530
_publ_section_title
;
Structure prediction by ZEFSAII (Michael W. Deem and Ramdas Pophale) SiO2 
 PCOD9494530
Probable space group: C M M M
;
_chemical_formula_sum "Si O2"
_cell_formula_units_Z 72
_cell_length_a 28.630646
_cell_length_b 17.049818
_cell_length_c 9.566005
_cell_angle_alpha 90.000000
_cell_angle_beta 90.000000
_cell_angle_gamma 90.000000
_cell_volume 4669.619546
_symmetry_space_group_name_H-M "C M M M"
_symmetry_group_IT_number 65
_symmetry_cell_setting 'orthorhombic'
loop_
_space_group_symop_operation_xyz
x,y,z
-x,-y,z
x,-y,-z
-x,y,-z
-x,-y,-z
x,y,-z
-x,y,z
x,-y,z
1/2+x,1/2+y,z
1/2-x,1/2-y,z
1/2+x,1/2-y,-z
1/2-x,1/2+y,-z
1/2-x,1/2-y,-z
1/2+x,1/2+y,-z
1/2-x,1/2+y,z
1/2+x,1/2-y,z
loop_
_atom_site_type_symbol
_atom_site_label
_atom_site_fract_x
_atom_site_fract_y
_atom_site_fract_z
Si Si1 0.945316 0.153588 0.334628
Si Si2 0.782464 0.671568 0.160650
Si Si3 0.643988 0.740964 0.335509
Si Si4 0.706931 0.587849 0.335445
Si Si5 0.943327 0.000000 0.841049
O O1 0.940039 0.134515 0.500000
O O2 0.910215 0.224756 0.304532
O O3 0.000000 0.170674 0.309585
O O4 0.931174 0.078232 0.243726
O O5 0.750000 0.750000 0.162355
O O6 0.829320 0.696282 0.241362
O O7 0.752156 0.607859 0.243532
O O8 0.790708 0.650080 0.000000
O O9 0.649684 0.759891 0.500000
O O10 0.669392 0.656654 0.311994
O O11 0.719134 0.591753 0.500000
O O12 0.689415 0.500000 0.305498
O O13 0.000000 0.000000 0.846950
O O14 0.925468 0.000000 0.000000
#
# Coordination Sequence:
#
# PCOD9494530 Si02
#       5
#    16  16  16  16   8
#     4   9  17  28  42  59  80 108 142 178 210 240
#     4   9  17  29  43  59  82 108 136 170 211 252
#     4   9  17  28  44  61  82 111 143 174 206 245
#     4   9  17  28  43  62  83 108 140 174 206 245
#     4   9  17  27  37  51  75 107 139 173 211 243
#
# _framework density 15.418816
#
# number of rings (size 3 to 8) (size 9 to 14) (size 15 to 20)
#    0.000    3.000    0.000    1.000    1.556    5.333 
#    0.000    0.000    0.000    0.000    0.000    0.000 
#    0.000    0.889    0.000   10.222    0.000    2.889 
#
# Total GULP energy -200497.578427 kJ/mol
# GULP energy per Si atom -5569.377179 kJ/mol
# Density = 1.538372 g / cm^3
# Si number density = 15.418816 Si / 1000 Ang^3
#
#
#
# Elastic Constant Matrix: (Units=GPa)
#
#
# Indices 1 2 3 4 5 6 
#
# 1 68.1703 5.0361 37.3415 0.0000 0.0000 0.0000
# 2 5.0361 13.9706 8.3163 0.0000 0.0000 0.0000
# 3 37.3415 8.3163 44.9350 0.0000 0.0000 0.0000
# 4 0.0000 0.0000 0.0000 7.2204 0.0000 0.0000
# 5 0.0000 0.0000 0.0000 0.0000 12.6464 0.0000
# 6 0.0000 0.0000 0.0000 0.0000 0.0000 22.5682
#
#
#
# Elastic Compliance Matrix: (Units=1/GPa)
#
#
# Indices 1 2 3 4 5 6 
#
# 1 0.027132 0.004092 -0.023305 0.000000 0.000000 0.000000
# 2 0.004092 0.081058 -0.018402 0.000000 0.000000 0.000000
# 3 -0.023305 -0.018402 0.045027 0.000000 0.000000 0.000000
# 4 0.000000 0.000000 0.000000 0.138497 0.000000 0.000000
# 5 0.000000 0.000000 0.000000 0.000000 0.079074 0.000000
# 6 0.000000 0.000000 0.000000 0.000000 0.000000 0.044310
#
#
# Mechanical properties :
#
#
# Convention : Reuss Voigt Hill
#
# Bulk Modulus (GPa) = 12.82263 25.38485 19.10374
# Shear Modulus (GPa) = 9.68386 13.57914 11.63150
#
# Velocity S-wave (km/s) = 2.50882 2.97086 2.74956
# Velocity P-wave (km/s) = 4.08981 5.31670 4.74309
#
# Compressibility (1/GPa) = 0.07798711
#
# Stress axis : x y z
#
# Youngs Moduli (GPa) = 36.85641 12.33686 22.20913
#
# Poissons Ratio (x) = -0.05048 0.51757
# Poissons Ratio (y) = -0.15082 0.40870
# Poissons Ratio (z) = 0.85892 0.22703
#
# Static dielectric constant tensor:
#      x y z
#    x 1.528500 0.000000 0.000000 
#    y 0.000000 1.490920 0.000000 
#    z 0.000000 0.000000 1.521760 
# 
# From -- ./inp_files/7669.got.cif
#   From: 2010.05.17/outbox.cif.g08.bks.cpg/sg65_4_cif.got.tgz:7669.got - 2010.06.03 17:01:31.
