data_PCOD9494130
_publ_section_title
;
Structure prediction by ZEFSAII (Michael W. Deem and Ramdas Pophale) SiO2 
 PCOD9494130
Probable space group: C M M M
;
_chemical_formula_sum "Si O2"
_cell_formula_units_Z 112
_cell_length_a 13.806543
_cell_length_b 30.454059
_cell_length_c 13.856272
_cell_angle_alpha 90.000000
_cell_angle_beta 90.000000
_cell_angle_gamma 90.000000
_cell_volume 5826.081218
_symmetry_space_group_name_H-M "C M M M"
_symmetry_group_IT_number 65
_symmetry_cell_setting 'orthorhombic'
loop_
_space_group_symop_operation_xyz
x,y,z
-x,-y,z
x,-y,-z
-x,y,-z
-x,-y,-z
x,y,-z
-x,y,z
x,-y,z
1/2+x,1/2+y,z
1/2-x,1/2-y,z
1/2+x,1/2-y,-z
1/2-x,1/2+y,-z
1/2-x,1/2-y,-z
1/2+x,1/2+y,-z
1/2-x,1/2+y,z
1/2+x,1/2-y,z
loop_
_atom_site_type_symbol
_atom_site_label
_atom_site_fract_x
_atom_site_fract_y
_atom_site_fract_z
Si Si1 0.383493 0.258798 0.605214
Si Si2 0.617051 0.694946 0.195116
Si Si3 0.254458 0.388147 0.211338
Si Si4 0.612073 0.552537 0.891493
Si Si5 0.884372 0.665937 0.693685
Si Si6 0.116604 0.714302 0.103596
Si Si7 0.889617 0.548678 0.884745
O O1 0.347985 0.272777 0.500000
O O2 0.500000 0.261795 0.604810
O O3 0.354942 0.287362 0.697775
O O4 0.363775 0.207336 0.624769
O O5 0.500000 0.688167 0.191518
O O6 0.678370 0.651840 0.175027
O O7 0.643189 0.735231 0.125240
O O8 0.330826 0.427804 0.199023
O O9 0.195961 0.372461 0.307048
O O10 0.168841 0.409079 0.147874
O O11 0.500000 0.565953 0.887212
O O12 0.616210 0.500000 0.889951
O O13 0.649252 0.565855 0.000000
O O14 0.866079 0.685668 0.801460
O O15 0.000000 0.654732 0.684907
O O16 0.000000 0.714668 0.098371
O O17 0.154392 0.698881 0.000000
O O18 0.852196 0.500000 0.854231
O O19 0.000000 0.552237 0.850012
O O20 0.891086 0.547975 0.000000
#
# Coordination Sequence:
#
# PCOD9494130 Si02
#       7
#    16  16  16  16  16  16  16
#     4   8  15  33  57  72  93 135 174 207 253 297
#     4   9  19  32  45  68  97 124 165 210 241 286
#     4  12  20  28  45  70  98 125 150 195 255 297
#     4   9  19  35  51  67  91 127 171 211 244 287
#     4   9  19  32  45  68  97 124 165 210 241 286
#     4   8  15  29  43  54  83 130 164 188 224 270
#     4   9  19  35  51  67  91 127 171 211 244 287
#
# _framework density 19.2239
#
# number of rings (size 3 to 8) (size 9 to 14) (size 15 to 20)
#    0.000    2.857    0.000    4.286    0.000    5.714 
#    0.000    5.000    0.000    0.000    0.000    0.000 
#    0.000    9.143    0.000   42.286    0.000    0.000 
#
# Total GULP energy -311797.058441 kJ/mol
# GULP energy per Si atom -5567.804615 kJ/mol
# Density = 1.918015 g / cm^3
# Si number density = 19.223900 Si / 1000 Ang^3
#
#
#
# Elastic Constant Matrix: (Units=GPa)
#
#
# Indices 1 2 3 4 5 6 
#
# 1 92.7820 26.8411 -2.2662 0.0000 0.0000 0.0000
# 2 26.8411 66.8583 11.5311 0.0000 0.0000 0.0000
# 3 -2.2662 11.5311 57.6033 0.0000 0.0000 0.0000
# 4 0.0000 0.0000 0.0000 10.6163 0.0000 0.0000
# 5 0.0000 0.0000 0.0000 0.0000 8.8694 0.0000
# 6 0.0000 0.0000 0.0000 0.0000 0.0000 32.9156
#
#
#
# Elastic Compliance Matrix: (Units=1/GPa)
#
#
# Indices 1 2 3 4 5 6 
#
# 1 0.012323 -0.005211 0.001528 0.000000 0.000000 0.000000
# 2 -0.005211 0.017695 -0.003747 0.000000 0.000000 0.000000
# 3 0.001528 -0.003747 0.018170 0.000000 0.000000 0.000000
# 4 0.000000 0.000000 0.000000 0.094195 0.000000 0.000000
# 5 0.000000 0.000000 0.000000 0.000000 0.112747 0.000000
# 6 0.000000 0.000000 0.000000 0.000000 0.000000 0.030381
#
#
# Mechanical properties :
#
#
# Convention : Reuss Voigt Hill
#
# Bulk Modulus (GPa) = 30.00459 32.16172 31.08315
# Shear Modulus (GPa) = 16.05238 22.55610 19.30424
#
# Velocity S-wave (km/s) = 2.89281 3.42912 3.17232
# Velocity P-wave (km/s) = 5.17684 5.69604 5.44263
#
# Compressibility (1/GPa) = 0.03332824
#
# Stress axis : x y z
#
# Youngs Moduli (GPa) = 81.15131 56.51270 55.03470
#
# Poissons Ratio (x) = 0.29446 -0.08409
# Poissons Ratio (y) = 0.42285 0.20623
# Poissons Ratio (z) = -0.12399 0.21177
#
# Static dielectric constant tensor:
#      x y z
#    x 1.784800 0.000000 0.000000 
#    y 0.000000 1.732310 0.000000 
#    z 0.000000 0.000000 1.681040 
# 
# From -- ./inp_files/41335.got.cif
#   From: 2010.05.17/outbox.cif.g08.bks.cpg/sg65_21_cif.got.tgz:41335.got - 2010.06.03 17:01:31.
