data_PCOD9494216
_publ_section_title
;
Structure prediction by ZEFSAII (Michael W. Deem and Ramdas Pophale) SiO2 
 PCOD9494216
Probable space group: C M M M
;
_chemical_formula_sum "Si O2"
_cell_formula_units_Z 96
_cell_length_a 7.409773
_cell_length_b 26.434281
_cell_length_c 19.324963
_cell_angle_alpha 90.000000
_cell_angle_beta 90.000000
_cell_angle_gamma 90.000000
_cell_volume 3785.219571
_symmetry_space_group_name_H-M "C M M M"
_symmetry_group_IT_number 65
_symmetry_cell_setting 'orthorhombic'
loop_
_space_group_symop_operation_xyz
x,y,z
-x,-y,z
x,-y,-z
-x,y,-z
-x,-y,-z
x,y,-z
-x,y,z
x,-y,z
1/2+x,1/2+y,z
1/2-x,1/2-y,z
1/2+x,1/2-y,-z
1/2-x,1/2+y,-z
1/2-x,1/2-y,-z
1/2+x,1/2+y,-z
1/2-x,1/2+y,z
1/2+x,1/2-y,z
loop_
_atom_site_type_symbol
_atom_site_label
_atom_site_fract_x
_atom_site_fract_y
_atom_site_fract_z
Si Si1 0.284056 0.335219 0.725584
Si Si2 0.784770 0.335282 0.576749
Si Si3 0.207706 0.553488 0.416976
Si Si4 0.785159 0.804976 0.875097
Si Si5 0.279972 0.587195 0.925453
Si Si6 0.219978 0.054995 0.773841
O O1 0.500000 0.336163 0.729306
O O2 0.241097 0.310258 0.651583
O O3 0.216421 0.308308 0.795600
O O4 0.220588 0.393996 0.734722
O O5 0.720464 0.317255 0.500000
O O6 0.706531 0.391511 0.591770
O O7 0.000000 0.340041 0.569764
O O8 0.197462 0.551009 0.500000
O O9 0.292556 0.500000 0.394758
O O10 0.000000 0.554523 0.392041
O O11 0.750000 0.750000 0.905168
O O12 0.722386 0.854257 0.916154
O O13 0.000000 0.810649 0.871815
O O14 0.500000 0.585182 0.925846
O O15 0.226745 0.560688 0.854283
O O16 0.219602 0.567519 0.000000
O O17 0.000000 0.055323 0.770824
O O18 0.282307 0.000000 0.749415
#
# Coordination Sequence:
#
# PCOD9494216 Si02
#       6
#    16  16  16  16  16  16
#     4   9  18  31  45  64  92 122 151 187 231 276
#     4   9  17  28  43  64  87 112 147 191 234 275
#     4   7  10  18  32  50  74 103 133 167 208 250
#     4   9  18  32  49  69  93 121 152 187 229 275
#     4   8  14  25  42  67  98 126 153 189 229 266
#     4   8  14  25  41  62  91 128 164 192 220 260
#
# _framework density 25.361802999999998
#
# number of rings (size 3 to 8) (size 9 to 14) (size 15 to 20)
#    0.000    3.667    0.000    3.500    0.000    2.333 
#    0.000    1.667    0.000    0.500    0.000    4.667 
#    0.000    0.000    0.000    7.333    0.000    7.333 
#
# Total GULP energy -267520.360142 kJ/mol
# GULP energy per Si atom -5573.340836 kJ/mol
# Density = 2.530408 g / cm^3
# Si number density = 25.361803 Si / 1000 Ang^3
#
#
#
# Elastic Constant Matrix: (Units=GPa)
#
#
# Indices 1 2 3 4 5 6 
#
# 1 87.5046 -4.4252 -0.1049 0.0000 0.0000 0.0000
# 2 -4.4252 91.6586 3.9472 0.0000 0.0000 0.0000
# 3 -0.1049 3.9472 182.2309 0.0000 0.0000 0.0000
# 4 0.0000 0.0000 0.0000 -13.5436 0.0000 0.0000
# 5 0.0000 0.0000 0.0000 0.0000 9.1088 0.0000
# 6 0.0000 0.0000 0.0000 0.0000 0.0000 -12.7273
#
#
#
# Elastic Compliance Matrix: (Units=1/GPa)
#
#
# Indices 1 2 3 4 5 6 
#
# 1 0.011456 0.000553 -0.000005 0.000000 0.000000 0.000000
# 2 0.000553 0.010947 -0.000237 0.000000 0.000000 0.000000
# 3 -0.000005 -0.000237 0.005493 0.000000 0.000000 0.000000
# 4 0.000000 0.000000 0.000000 -0.073836 0.000000 0.000000
# 5 0.000000 0.000000 0.000000 0.000000 0.109784 0.000000
# 6 0.000000 0.000000 0.000000 0.000000 0.000000 -0.078571
#
#
# Mechanical properties :
#
#
# Convention : Reuss Voigt Hill
#
# Bulk Modulus (GPa) = 35.06578 40.02538 37.54558
# Shear Modulus (GPa) = -855.65356 20.69938 -417.47709
#
# Velocity S-wave (km/s) = -18.38780 2.85996 -12.84391
# Velocity P-wave (km/s) = 20.90356 5.16932 14.32196
#
# Compressibility (1/GPa) = 0.02851783
#
# Stress axis : x y z
#
# Youngs Moduli (GPa) = 87.29094 91.34950 182.06084
#
# Poissons Ratio (x) = -0.05055 0.00098
# Poissons Ratio (y) = -0.04830 0.04311
# Poissons Ratio (z) = 0.00047 0.02163
#
# Static dielectric constant tensor:
#      x y z
#    x 2.008160 0.000000 0.000000 
#    y 0.000000 1.833510 0.000000 
#    z 0.000000 0.000000 2.017270 
# 
# From -- ./inp_files/60255.got.cif
#   From: 2010.05.17/outbox.cif.g08.bks.cpg/sg65_31_cif.got.tgz:60255.got - 2010.06.03 17:01:31.
