data_PCOD9494998
_publ_section_title
;
Structure prediction by ZEFSAII (Michael W. Deem and Ramdas Pophale) SiO2 
 PCOD9494998
Probable space group: C C C M
;
_chemical_formula_sum "Si O2"
_cell_formula_units_Z 80
_cell_length_a 23.776672
_cell_length_b 30.342395
_cell_length_c 8.400750
_cell_angle_alpha 90.000000
_cell_angle_beta 90.000000
_cell_angle_gamma 90.000000
_cell_volume 6060.646939
_symmetry_space_group_name_H-M "C C C M"
_symmetry_group_IT_number 66
_symmetry_cell_setting 'orthorhombic'
loop_
_space_group_symop_operation_xyz
x,y,z
-x,-y,z
x,-y,1/2-z
-x,y,1/2-z
-x,-y,-z
x,y,-z
-x,y,1/2+z
x,-y,1/2+z
1/2+x,1/2+y,z
1/2-x,1/2-y,z
1/2+x,1/2-y,1/2-z
1/2-x,1/2+y,1/2-z
1/2-x,1/2-y,-z
1/2+x,1/2+y,-z
1/2-x,1/2+y,1/2+z
1/2+x,1/2-y,1/2+z
loop_
_atom_site_type_symbol
_atom_site_label
_atom_site_fract_x
_atom_site_fract_y
_atom_site_fract_z
Si Si1 0.630478 0.366139 0.194027
Si Si2 0.436486 0.277823 0.691047
Si Si3 0.831495 0.264542 0.686764
Si Si4 0.237454 0.818369 0.187347
Si Si5 0.563642 0.451640 0.808956
O O1 0.590906 0.324902 0.242088
O O2 0.694651 0.356282 0.245019
O O3 0.603634 0.412011 0.246930
O O4 0.631132 0.365898 0.000000
O O5 0.500000 0.274767 0.750000
O O6 0.434681 0.275924 0.500000
O O7 0.395959 0.239988 0.761596
O O8 0.825842 0.255304 0.500000
O O9 0.800237 0.225541 0.783707
O O10 0.796304 0.308404 0.727168
O O11 0.247756 0.823497 0.000000
O O12 0.581000 0.500000 0.750000
O O13 0.500000 0.443780 0.750000
O O14 0.562919 0.451816 0.000000
#
# Coordination Sequence:
#
# PCOD9494998 Si02
#       5
#    16  16  16  16  16
#     4   8  16  27  40  54  70  90 118 152 187 220
#     4  10  18  28  39  53  71  95 122 152 184 216
#     4  10  17  25  36  53  73  93 115 144 177 215
#     4   9  15  26  40  53  68  90 116 147 181 214
#     4  10  18  29  40  53  70  92 119 150 186 225
#
# _framework density 13.199909999999999
#
# number of rings (size 3 to 8) (size 9 to 14) (size 15 to 20)
#    0.000    2.600    0.000    7.200    0.000    0.000 
#    0.000   11.000    0.000    0.000    0.000    0.000 
#    0.000    0.000    0.000    0.000    0.000    1.000 
#
# Total GULP energy -222690.345942 kJ/mol
# GULP energy per Si atom -5567.258649 kJ/mol
# Density = 1.316987 g / cm^3
# Si number density = 13.199910 Si / 1000 Ang^3
#
#
#
# Elastic Constant Matrix: (Units=GPa)
#
#
# Indices 1 2 3 4 5 6 
#
# 1 96.7505 56.3608 15.1796 0.0000 0.0000 0.0000
# 2 56.3608 65.6866 11.1045 0.0000 0.0000 0.0000
# 3 15.1796 11.1045 29.7982 0.0000 0.0000 0.0000
# 4 0.0000 0.0000 0.0000 4.1640 0.0000 0.0000
# 5 0.0000 0.0000 0.0000 0.0000 18.7662 0.0000
# 6 0.0000 0.0000 0.0000 0.0000 0.0000 26.3411
#
#
#
# Elastic Compliance Matrix: (Units=1/GPa)
#
#
# Indices 1 2 3 4 5 6 
#
# 1 0.021165 -0.017436 -0.004284 0.000000 0.000000 0.000000
# 2 -0.017436 0.030611 -0.002525 0.000000 0.000000 0.000000
# 3 -0.004284 -0.002525 0.036683 0.000000 0.000000 0.000000
# 4 0.000000 0.000000 0.000000 0.240151 0.000000 0.000000
# 5 0.000000 0.000000 0.000000 0.000000 0.053287 0.000000
# 6 0.000000 0.000000 0.000000 0.000000 0.000000 0.037964
#
#
# Mechanical properties :
#
#
# Convention : Reuss Voigt Hill
#
# Bulk Modulus (GPa) = 25.02006 39.72503 32.37254
# Shear Modulus (GPa) = 10.38045 17.16030 13.77038
#
# Velocity S-wave (km/s) = 2.80733 3.60951 3.23339
# Velocity P-wave (km/s) = 5.43176 6.89432 6.20627
#
# Compressibility (1/GPa) = 0.03996793
#
# Stress axis : x y z
#
# Youngs Moduli (GPa) = 47.24745 32.66770 27.26091
#
# Poissons Ratio (x) = 0.56959 0.11679
# Poissons Ratio (y) = 0.82381 0.06884
# Poissons Ratio (z) = 0.20242 0.08250
#
# Static dielectric constant tensor:
#      x y z
#    x 1.456870 0.000000 0.000000 
#    y 0.000000 1.431460 0.000000 
#    z 0.000000 0.000000 1.446830 
# 
# From -- ./inp_files/9486.got.cif
#   From: 2010.05.17/outbox.cif.g08.bks.cpg/sg66_5_cif.got.tgz:9486.got - 2010.06.03 17:51:23.
