data_PCOD9494397
_publ_section_title
;
Structure prediction by ZEFSAII (Michael W. Deem and Ramdas Pophale) SiO2 
 PCOD9494397
Probable space group: C M M M
;
_chemical_formula_sum "Si O2"
_cell_formula_units_Z 104
_cell_length_a 19.713958
_cell_length_b 7.613917
_cell_length_c 37.383270
_cell_angle_alpha 90.000000
_cell_angle_beta 90.000000
_cell_angle_gamma 90.000000
_cell_volume 5611.245274
_symmetry_space_group_name_H-M "C M M M"
_symmetry_group_IT_number 65
_symmetry_cell_setting 'orthorhombic'
loop_
_space_group_symop_operation_xyz
x,y,z
-x,-y,z
x,-y,-z
-x,y,-z
-x,-y,-z
x,y,-z
-x,y,z
x,-y,z
1/2+x,1/2+y,z
1/2-x,1/2-y,z
1/2+x,1/2-y,-z
1/2-x,1/2+y,-z
1/2-x,1/2-y,-z
1/2+x,1/2+y,-z
1/2-x,1/2+y,z
1/2+x,1/2-y,z
loop_
_atom_site_type_symbol
_atom_site_label
_atom_site_fract_x
_atom_site_fract_y
_atom_site_fract_z
Si Si1 0.921467 0.214417 0.539914
Si Si2 0.422562 0.210865 0.826594
Si Si3 0.828898 0.210969 0.395416
Si Si4 0.582714 0.500000 0.959060
Si Si5 0.422409 0.710311 0.748655
Si Si6 0.082910 0.702572 0.904296
Si Si7 0.671041 0.288789 0.315431
O O1 0.899539 0.269799 0.500000
O O2 0.875120 0.278109 0.572332
O O3 0.000000 0.264926 0.544771
O O4 0.919716 0.000000 0.540105
O O5 0.500000 0.280391 0.824743
O O6 0.392008 0.254439 0.788091
O O7 0.393380 0.267102 0.864943
O O8 0.425838 0.000000 0.829054
O O9 0.750000 0.250000 0.401912
O O10 0.846012 0.277070 0.355443
O O11 0.836759 0.000000 0.394579
O O12 0.500000 0.500000 0.959793
O O13 0.603595 0.329912 0.936202
O O14 0.606025 0.500000 0.000000
O O15 0.500000 0.779209 0.747310
O O16 0.426196 0.500000 0.745099
O O17 0.376756 0.778709 0.716225
O O18 0.102949 0.500000 0.909904
O O19 0.000000 0.704803 0.902588
O O20 0.664024 0.500000 0.316231
O O21 0.750000 0.250000 0.308648
#
# Coordination Sequence:
#
# PCOD9494397 Si02
#       7
#    16  16  16   8  16  16  16
#     4   8  14  25  42  65  89 111 139 176 217 259
#     4   8  14  24  37  54  75  99 129 167 212 258
#     4   9  17  29  45  63  84 111 142 176 211 251
#     4   9  16  22  30  46  66  96 140 180 218 266
#     4   9  17  27  41  62  83 102 132 179 220 251
#     4   8  14  23  33  46  67  96 131 174 219 263
#     4   9  18  31  44  60  84 114 144 172 210 262
#
# _framework density 18.534209000000001
#
# number of rings (size 3 to 8) (size 9 to 14) (size 15 to 20)
#    0.000    3.462    0.000    1.385    1.077    1.846 
#    0.000    4.615    0.000    0.462    0.000    5.385 
#    0.000    0.000    0.000    0.000    0.000    0.769 
#
# Total GULP energy -289496.730646 kJ/mol
# GULP energy per Si atom -5567.244820 kJ/mol
# Density = 1.849202 g / cm^3
# Si number density = 18.534209 Si / 1000 Ang^3
#
#
#
# Elastic Constant Matrix: (Units=GPa)
#
#
# Indices 1 2 3 4 5 6 
#
# 1 32.3223 10.6522 74.9386 0.0000 0.0000 0.0000
# 2 10.6522 51.5430 39.4545 0.0000 0.0000 0.0000
# 3 74.9386 39.4545 232.7565 0.0000 0.0000 0.0000
# 4 0.0000 0.0000 0.0000 -3.9859 0.0000 0.0000
# 5 0.0000 0.0000 0.0000 0.0000 -13.7246 0.0000
# 6 0.0000 0.0000 0.0000 0.0000 0.0000 10.6227
#
#
#
# Elastic Compliance Matrix: (Units=1/GPa)
#
#
# Indices 1 2 3 4 5 6 
#
# 1 0.123439 0.005643 -0.040699 0.000000 0.000000 0.000000
# 2 0.005643 0.022552 -0.005640 0.000000 0.000000 0.000000
# 3 -0.040699 -0.005640 0.018356 0.000000 0.000000 0.000000
# 4 0.000000 0.000000 0.000000 -0.250882 0.000000 0.000000
# 5 0.000000 0.000000 0.000000 0.000000 -0.072862 0.000000
# 6 0.000000 0.000000 0.000000 0.000000 0.000000 0.094138
#
#
# Mechanical properties :
#
#
# Convention : Reuss Voigt Hill
#
# Bulk Modulus (GPa) = 12.05467 62.96803 37.51135
# Shear Modulus (GPa) = 114.19938 11.35420 62.77679
#
# Velocity S-wave (km/s) = 7.85807 2.47778 5.82617
# Velocity P-wave (km/s) = 9.42605 6.49873 8.09580
#
# Compressibility (1/GPa) = 0.08295541
#
# Stress axis : x y z
#
# Youngs Moduli (GPa) = 8.10119 44.34197 54.47860
#
# Poissons Ratio (x) = -0.25023 2.21723
# Poissons Ratio (y) = -0.04572 0.30724
# Poissons Ratio (z) = 0.32971 0.25007
#
# Static dielectric constant tensor:
#      x y z
#    x 1.599630 0.000000 0.000000 
#    y 0.000000 1.647490 0.000000 
#    z 0.000000 0.000000 1.677940 
# 
# From -- ./inp_files/78349.got.cif
#   From: 2010.05.17/outbox.cif.g08.bks.cpg/sg65_40_cif.got.tgz:78349.got - 2010.06.03 17:01:31.
