data_PCOD9494125
_publ_section_title
;
Structure prediction by ZEFSAII (Michael W. Deem and Ramdas Pophale) SiO2 
 PCOD9494125
Probable space group: C M M M
;
_chemical_formula_sum "Si O2"
_cell_formula_units_Z 108
_cell_length_a 14.490221
_cell_length_b 14.765662
_cell_length_c 24.856406
_cell_angle_alpha 90.000000
_cell_angle_beta 90.000000
_cell_angle_gamma 90.000000
_cell_volume 5318.219597
_symmetry_space_group_name_H-M "C M M M"
_symmetry_group_IT_number 65
_symmetry_cell_setting 'orthorhombic'
loop_
_space_group_symop_operation_xyz
x,y,z
-x,-y,z
x,-y,-z
-x,y,-z
-x,-y,-z
x,y,-z
-x,y,z
x,-y,z
1/2+x,1/2+y,z
1/2-x,1/2-y,z
1/2+x,1/2-y,-z
1/2-x,1/2+y,-z
1/2-x,1/2-y,-z
1/2+x,1/2+y,-z
1/2-x,1/2+y,z
1/2+x,1/2-y,z
loop_
_atom_site_type_symbol
_atom_site_label
_atom_site_fract_x
_atom_site_fract_y
_atom_site_fract_z
Si Si1 0.500000 0.686173 0.500000
Si Si2 0.396701 0.607974 0.808700
Si Si3 0.608090 0.000000 0.935661
Si Si4 0.388585 0.606946 0.688654
Si Si5 0.651579 0.728326 0.589571
Si Si6 0.724005 0.844858 0.878237
Si Si7 0.609752 0.899748 0.340567
Si Si8 0.110091 0.608251 0.779788
O O1 0.579834 0.690548 0.547178
O O2 0.500000 0.642565 0.821588
O O3 0.404617 0.500000 0.800925
O O4 0.368258 0.641525 0.749082
O O5 0.320813 0.620317 0.854315
O O6 0.665357 0.913833 0.913993
O O7 0.500000 0.000000 0.916805
O O8 0.606707 0.000000 0.000000
O O9 0.500000 0.617875 0.682052
O O10 0.367800 0.500000 0.684771
O O11 0.340793 0.661093 0.640730
O O12 0.750000 0.750000 0.564696
O O13 0.621464 0.823803 0.615247
O O14 0.750000 0.750000 0.905017
O O15 0.661303 0.833603 0.824611
O O16 0.500000 0.907932 0.332564
O O17 0.644484 0.874626 0.280891
O O18 0.644970 0.000000 0.355308
O O19 0.127660 0.500000 0.790442
O O20 0.000000 0.621992 0.783096
#
# Coordination Sequence:
#
# PCOD9494125 Si02
#       8
#     4  16   8  16  16  16  16  16
#     4  12  26  52  62  82 116 166 222 280 328 406
#     4   9  19  36  58  90 137 183 211 250 331 419
#     4  11  26  52  79  99 137 199 254 301 347 393
#     4   9  19  38  62  90 126 166 208 258 317 395
#     4  12  25  41  66  87 115 159 213 271 335 396
#     4  12  24  37  65 105 143 179 232 290 343 406
#     4   9  19  37  60  90 128 166 204 258 330 402
#     4   9  18  34  58  91 136 179 217 268 333 411
#
# _framework density 20.307548000000001
#
# number of rings (size 3 to 8) (size 9 to 14) (size 15 to 20)
#    0.000    1.852    2.963    2.444    4.148    2.074 
#    0.000    1.481    0.000    2.667    0.000    0.000 
#    0.000    0.000    0.000    0.000    0.000    0.000 
#
# Total GULP energy -301022.008384 kJ/mol
# GULP energy per Si atom -5574.481637 kJ/mol
# Density = 2.026133 g / cm^3
# Si number density = 20.307548 Si / 1000 Ang^3
#
#
#
# Elastic Constant Matrix: (Units=GPa)
#
#
# Indices 1 2 3 4 5 6 
#
# 1 121.1207 12.9037 34.0150 0.0000 0.0000 0.0000
# 2 12.9037 74.2790 25.0385 0.0000 0.0000 0.0000
# 3 34.0150 25.0385 82.1948 0.0000 0.0000 0.0000
# 4 0.0000 0.0000 0.0000 36.9286 0.0000 0.0000
# 5 0.0000 0.0000 0.0000 0.0000 -48.0314 0.0000
# 6 0.0000 0.0000 0.0000 0.0000 0.0000 22.2476
#
#
#
# Elastic Compliance Matrix: (Units=1/GPa)
#
#
# Indices 1 2 3 4 5 6 
#
# 1 0.009350 -0.000357 -0.003761 0.000000 0.000000 0.000000
# 2 -0.000357 0.015017 -0.004427 0.000000 0.000000 0.000000
# 3 -0.003761 -0.004427 0.015071 0.000000 0.000000 0.000000
# 4 0.000000 0.000000 0.000000 0.027079 0.000000 0.000000
# 5 0.000000 0.000000 0.000000 0.000000 -0.020820 0.000000
# 6 0.000000 0.000000 0.000000 0.000000 0.000000 0.044949
#
#
# Mechanical properties :
#
#
# Convention : Reuss Voigt Hill
#
# Bulk Modulus (GPa) = 44.74342 46.83432 45.78887
# Shear Modulus (GPa) = 43.40826 15.93813 29.67320
#
# Velocity S-wave (km/s) = 4.62837 2.80453 3.82670
# Velocity P-wave (km/s) = 7.11640 5.79653 6.49011
#
# Compressibility (1/GPa) = 0.02234965
#
# Stress axis : x y z
#
# Youngs Moduli (GPa) = 106.94719 66.59134 66.35189
#
# Poissons Ratio (x) = 0.02375 0.24954
# Poissons Ratio (y) = 0.03814 0.29374
# Poissons Ratio (z) = 0.40222 0.29480
#
# Static dielectric constant tensor:
#      x y z
#    x 1.770810 0.000000 0.000000 
#    y 0.000000 1.775540 0.000000 
#    z 0.000000 0.000000 1.688580 
# 
# From -- ./inp_files/70076.got.cif
#   From: 2010.05.17/outbox.cif.g08.bks.cpg/sg65_36_cif.got.tgz:70076.got - 2010.06.03 17:01:31.
