data_PCOD9494908
_publ_section_title
;
Structure prediction by ZEFSAII (Michael W. Deem and Ramdas Pophale) SiO2 
 PCOD9494908
Probable space group: C C C M
;
_chemical_formula_sum "Si O2"
_cell_formula_units_Z 48
_cell_length_a 7.640151
_cell_length_b 33.498482
_cell_length_c 8.564685
_cell_angle_alpha 90.000000
_cell_angle_beta 90.000000
_cell_angle_gamma 90.000000
_cell_volume 2191.989472
_symmetry_space_group_name_H-M "C C C M"
_symmetry_group_IT_number 66
_symmetry_cell_setting 'orthorhombic'
loop_
_space_group_symop_operation_xyz
x,y,z
-x,-y,z
x,-y,1/2-z
-x,y,1/2-z
-x,-y,-z
x,y,-z
-x,y,1/2+z
x,-y,1/2+z
1/2+x,1/2+y,z
1/2-x,1/2-y,z
1/2+x,1/2-y,1/2-z
1/2-x,1/2+y,1/2-z
1/2-x,1/2-y,-z
1/2+x,1/2+y,-z
1/2-x,1/2+y,1/2+z
1/2+x,1/2-y,1/2+z
loop_
_atom_site_type_symbol
_atom_site_label
_atom_site_fract_x
_atom_site_fract_y
_atom_site_fract_z
Si Si1 0.695592 0.794556 0.312949
Si Si2 0.798862 0.623828 0.186194
Si Si3 0.299141 0.958704 0.813565
O O1 0.500000 0.796854 0.250000
O O2 0.703599 0.797155 0.500000
O O3 0.750000 0.750000 0.264938
O O4 0.783811 0.834341 0.242962
O O5 0.719375 0.582797 0.252175
O O6 0.000000 0.623740 0.250000
O O7 0.803119 0.622693 0.000000
O O8 0.500000 0.958658 0.750000
O O9 0.219696 0.000000 0.750000
O O10 0.302193 0.958993 0.000000
#
# Coordination Sequence:
#
# PCOD9494908 Si02
#       3
#    16  16  16
#     4  10  20  33  49  69  93 122 156 193 233 276
#     4  10  17  26  40  58  82 113 147 182 224 270
#     4  10  16  23  34  51  77 108 143 179 218 265
#
# _framework density 21.897917
#
# number of rings (size 3 to 8) (size 9 to 14) (size 15 to 20)
#    0.000    2.000    0.000   12.000    0.000    2.667 
#    0.000    0.000    0.000    0.000    0.000    0.000 
#    0.000    1.333    0.000   14.000    0.000   13.333 
#
# Total GULP energy -133883.230407 kJ/mol
# GULP energy per Si atom -5578.467934 kJ/mol
# Density = 2.184808 g / cm^3
# Si number density = 21.897917 Si / 1000 Ang^3
#
#
#
# Elastic Constant Matrix: (Units=GPa)
#
#
# Indices 1 2 3 4 5 6 
#
# 1 34.4433 22.4639 4.0676 0.0000 0.0000 0.0000
# 2 22.4639 311.1141 104.6091 0.0000 0.0000 0.0000
# 3 4.0676 104.6091 180.9201 0.0000 0.0000 0.0000
# 4 0.0000 0.0000 0.0000 50.4228 0.0000 0.0000
# 5 0.0000 0.0000 0.0000 0.0000 -13.9990 0.0000
# 6 0.0000 0.0000 0.0000 0.0000 0.0000 6.7174
#
#
#
# Elastic Compliance Matrix: (Units=1/GPa)
#
#
# Indices 1 2 3 4 5 6 
#
# 1 0.030546 -0.002451 0.000731 0.000000 0.000000 0.000000
# 2 -0.002451 0.004187 -0.002366 0.000000 0.000000 0.000000
# 3 0.000731 -0.002366 0.006879 0.000000 0.000000 0.000000
# 4 0.000000 0.000000 0.000000 0.019832 0.000000 0.000000
# 5 0.000000 0.000000 0.000000 0.000000 -0.071434 0.000000
# 6 0.000000 0.000000 0.000000 0.000000 0.000000 0.148867
#
#
# Mechanical properties :
#
#
# Convention : Reuss Voigt Hill
#
# Bulk Modulus (GPa) = 29.90576 87.63987 58.77281
# Shear Modulus (GPa) = 31.60653 34.98404 33.29529
#
# Velocity S-wave (km/s) = 3.80328 4.00133 3.90356
# Velocity P-wave (km/s) = 5.74222 7.83942 6.87130
#
# Compressibility (1/GPa) = 0.03343837
#
# Stress axis : x y z
#
# Youngs Moduli (GPa) = 32.73797 238.85349 145.37608
#
# Poissons Ratio (x) = 0.58547 -0.10620
# Poissons Ratio (y) = 0.08025 0.34391
# Poissons Ratio (z) = -0.02392 0.56504
#
# Static dielectric constant tensor:
#      x y z
#    x 1.920110 0.000000 0.000000 
#    y 0.000000 1.980500 0.000000 
#    z 0.000000 0.000000 1.721810 
# 
# From -- ./inp_files/2668.got.cif
#   From: 2010.05.17/outbox.cif.g08.bks.cpg/sg66_2_cif.got.tgz:2668.got - 2010.06.03 17:51:23.
