data_PCOD9494546
_publ_section_title
;
Structure prediction by ZEFSAII (Michael W. Deem and Ramdas Pophale) SiO2 
 PCOD9494546
Probable space group: C M M M
;
_chemical_formula_sum "Si O2"
_cell_formula_units_Z 80
_cell_length_a 27.977802
_cell_length_b 8.506650
_cell_length_c 16.372053
_cell_angle_alpha 90.000000
_cell_angle_beta 90.000000
_cell_angle_gamma 90.000000
_cell_volume 3896.505545
_symmetry_space_group_name_H-M "C M M M"
_symmetry_group_IT_number 65
_symmetry_cell_setting 'orthorhombic'
loop_
_space_group_symop_operation_xyz
x,y,z
-x,-y,z
x,-y,-z
-x,y,-z
-x,-y,-z
x,y,-z
-x,y,z
x,-y,z
1/2+x,1/2+y,z
1/2-x,1/2-y,z
1/2+x,1/2-y,-z
1/2-x,1/2+y,-z
1/2-x,1/2-y,-z
1/2+x,1/2+y,-z
1/2-x,1/2+y,z
1/2+x,1/2-y,z
loop_
_atom_site_type_symbol
_atom_site_label
_atom_site_fract_x
_atom_site_fract_y
_atom_site_fract_z
Si Si1 0.100957 0.810542 0.404788
Si Si2 0.905666 0.823209 0.906628
Si Si3 0.701803 0.685134 0.132882
Si Si4 0.500000 0.187290 0.596376
Si Si5 0.300667 0.690422 0.680047
Si Si6 0.556594 0.000000 0.904760
O O1 0.103422 0.762871 0.500000
O O2 0.050493 0.749476 0.369635
O O3 0.150136 0.757962 0.362374
O O4 0.099646 0.000000 0.401082
O O5 0.848957 0.792072 0.908717
O O6 0.927345 0.666556 0.867035
O O7 0.912801 0.000000 0.870427
O O8 0.924091 0.831433 0.000000
O O9 0.708766 0.500000 0.138422
O O10 0.750000 0.750000 0.094486
O O11 0.697649 0.746642 0.225814
O O12 0.500000 0.236315 0.500000
O O13 0.500000 0.000000 0.600437
O O14 0.300009 0.500000 0.678271
O O15 0.250000 0.750000 0.644862
O O16 0.500000 0.000000 0.907105
O O17 0.574654 0.000000 0.000000
#
# Coordination Sequence:
#
# PCOD9494546 Si02
#       6
#    16  16  16   8  16   8
#     4   9  17  30  49  70  93 124 159 195 236 287
#     4   9  18  32  50  74 102 130 165 208 249 293
#     4   9  18  31  48  69  94 128 162 194 240 293
#     4   9  17  29  47  71  95 119 152 195 242 286
#     4   9  18  32  48  68  95 127 162 196 237 288
#     4   9  18  32  52  76 100 130 167 207 252 296
#
# _framework density 20.531217000000002
#
# number of rings (size 3 to 8) (size 9 to 14) (size 15 to 20)
#    0.000    3.000    0.000    0.300    1.400    3.200 
#    0.000    2.000    2.200    0.000    0.000    0.000 
#    0.000    0.000    0.000    0.000    0.000    0.000 
#
# Total GULP energy -222719.420058 kJ/mol
# GULP energy per Si atom -5567.985501 kJ/mol
# Density = 2.048449 g / cm^3
# Si number density = 20.531217 Si / 1000 Ang^3
#
#
#
# Elastic Constant Matrix: (Units=GPa)
#
#
# Indices 1 2 3 4 5 6 
#
# 1 143.6447 53.4954 33.3909 0.0000 0.0000 0.0000
# 2 53.4954 78.7814 7.3564 0.0000 0.0000 0.0000
# 3 33.3909 7.3564 32.4520 0.0000 0.0000 0.0000
# 4 0.0000 0.0000 0.0000 11.0736 0.0000 0.0000
# 5 0.0000 0.0000 0.0000 0.0000 25.2144 0.0000
# 6 0.0000 0.0000 0.0000 0.0000 0.0000 37.2089
#
#
#
# Elastic Compliance Matrix: (Units=1/GPa)
#
#
# Indices 1 2 3 4 5 6 
#
# 1 0.012205 -0.007269 -0.010910 0.000000 0.000000 0.000000
# 2 -0.007269 0.017297 0.003558 0.000000 0.000000 0.000000
# 3 -0.010910 0.003558 0.041234 0.000000 0.000000 0.000000
# 4 0.000000 0.000000 0.000000 0.090305 0.000000 0.000000
# 5 0.000000 0.000000 0.000000 0.000000 0.039660 0.000000
# 6 0.000000 0.000000 0.000000 0.000000 0.000000 0.026875
#
#
# Mechanical properties :
#
#
# Convention : Reuss Voigt Hill
#
# Bulk Modulus (GPa) = 24.09992 49.26261 36.68127
# Shear Modulus (GPa) = 18.47420 25.40842 21.94131
#
# Velocity S-wave (km/s) = 3.00294 3.52170 3.27261
# Velocity P-wave (km/s) = 4.87721 6.37045 5.67317
#
# Compressibility (1/GPa) = 0.04149392
#
# Stress axis : x y z
#
# Youngs Moduli (GPa) = 81.93577 57.81413 24.25192
#
# Poissons Ratio (x) = 0.42023 0.26459
# Poissons Ratio (y) = 0.59556 -0.08629
# Poissons Ratio (z) = 0.89392 -0.20570
#
# Static dielectric constant tensor:
#      x y z
#    x 1.740780 0.000000 0.000000 
#    y 0.000000 1.763750 0.000000 
#    z 0.000000 0.000000 1.777970 
# 
# From -- ./inp_files/49949.got.cif
#   From: 2010.05.17/outbox.cif.g08.bks.cpg/sg65_25_cif.got.tgz:49949.got - 2010.06.03 17:01:31.
