data_PCOD9494943
_publ_section_title
;
Structure prediction by ZEFSAII (Michael W. Deem and Ramdas Pophale) SiO2 
 PCOD9494943
Probable space group: C C C M
;
_chemical_formula_sum "Si O2"
_cell_formula_units_Z 60
_cell_length_a 7.031601
_cell_length_b 19.509234
_cell_length_c 16.586010
_cell_angle_alpha 90.000000
_cell_angle_beta 90.000000
_cell_angle_gamma 90.000000
_cell_volume 2275.287914
_symmetry_space_group_name_H-M "C C C M"
_symmetry_group_IT_number 66
_symmetry_cell_setting 'orthorhombic'
loop_
_space_group_symop_operation_xyz
x,y,z
-x,-y,z
x,-y,1/2-z
-x,y,1/2-z
-x,-y,-z
x,y,-z
-x,y,1/2+z
x,-y,1/2+z
1/2+x,1/2+y,z
1/2-x,1/2-y,z
1/2+x,1/2-y,1/2-z
1/2-x,1/2+y,1/2-z
1/2-x,1/2-y,-z
1/2+x,1/2+y,-z
1/2-x,1/2+y,1/2+z
1/2+x,1/2-y,1/2+z
loop_
_atom_site_type_symbol
_atom_site_label
_atom_site_fract_x
_atom_site_fract_y
_atom_site_fract_z
Si Si1 0.250000 0.250000 0.500000
Si Si2 0.229319 0.510604 0.907422
Si Si3 0.840656 0.651977 0.358071
Si Si4 0.788354 0.857802 0.904822
Si Si5 0.750000 0.250000 0.713705
O O1 0.259932 0.308897 0.430037
O O2 0.247244 0.576269 0.850979
O O3 0.326382 0.437954 0.887402
O O4 0.000000 0.500000 0.908672
O O5 0.281877 0.527783 0.000000
O O6 0.822343 0.693169 0.276109
O O7 0.060845 0.648710 0.387195
O O8 0.871281 0.798197 0.847679
O O9 0.818620 0.844133 0.000000
#
# Coordination Sequence:
#
# PCOD9494943 Si02
#       5
#     4  16  16  16   8
#     4  10  16  28  52  82 104 134 166 206 256 318
#     4   8  14  28  53  77 100 131 163 209 267 316
#     4  10  18  32  52  79 109 130 172 211 260 311
#     4  10  19  35  53  74 109 140 168 209 263 319
#     4  11  23  29  45  80 112 138 167 207 259 311
#
# _framework density 26.370290000000001
#
# number of rings (size 3 to 8) (size 9 to 14) (size 15 to 20)
#    0.000    2.400    2.667    2.800    0.000    1.067 
#    0.000    4.000    0.000    0.000    0.000   33.600 
#    0.000    0.000    0.000    0.000    0.000    0.000 
#
# Total GULP energy -167263.442071 kJ/mol
# GULP energy per Si atom -5575.448069 kJ/mol
# Density = 2.631027 g / cm^3
# Si number density = 26.370290 Si / 1000 Ang^3
#
#
#
# Elastic Constant Matrix: (Units=GPa)
#
#
# Indices 1 2 3 4 5 6 
#
# 1 99.3078 5.1808 31.5736 0.0000 0.0000 0.0000
# 2 5.1808 262.5275 113.7304 0.0000 0.0000 0.0000
# 3 31.5736 113.7304 185.8575 0.0000 0.0000 0.0000
# 4 0.0000 0.0000 0.0000 -33.8155 0.0000 0.0000
# 5 0.0000 0.0000 0.0000 0.0000 20.0307 0.0000
# 6 0.0000 0.0000 0.0000 0.0000 0.0000 12.7267
#
#
#
# Elastic Compliance Matrix: (Units=1/GPa)
#
#
# Indices 1 2 3 4 5 6 
#
# 1 0.010763 0.000789 -0.002311 0.000000 0.000000 0.000000
# 2 0.000789 0.005241 -0.003341 0.000000 0.000000 0.000000
# 3 -0.002311 -0.003341 0.007818 0.000000 0.000000 0.000000
# 4 0.000000 0.000000 0.000000 -0.029572 0.000000 0.000000
# 5 0.000000 0.000000 0.000000 0.000000 0.049923 0.000000
# 6 0.000000 0.000000 0.000000 0.000000 0.000000 0.078575
#
#
# Mechanical properties :
#
#
# Convention : Reuss Voigt Hill
#
# Bulk Modulus (GPa) = 70.94699 94.29583 82.62141
# Shear Modulus (GPa) = 36.45021 26.26890 31.35956
#
# Velocity S-wave (km/s) = 3.72189 3.15962 3.45222
# Velocity P-wave (km/s) = 6.74036 7.01048 6.87675
#
# Compressibility (1/GPa) = 0.01409503
#
# Stress axis : x y z
#
# Youngs Moduli (GPa) = 92.90777 190.80508 127.91710
#
# Poissons Ratio (x) = -0.15051 0.29564
# Poissons Ratio (y) = -0.07329 0.42738
# Poissons Ratio (z) = 0.21473 0.63749
#
# Static dielectric constant tensor:
#      x y z
#    x 2.420110 0.000000 0.000000 
#    y 0.000000 2.109690 0.000000 
#    z 0.000000 0.000000 1.926910 
# 
# From -- ./inp_files/25673.got.cif
#   From: 2010.05.17/outbox.cif.g08.bks.cpg/sg66_13_cif.got.tgz:25673.got - 2010.06.03 17:51:23.
