data_PCOD9494716
_publ_section_title
;
Structure prediction by ZEFSAII (Michael W. Deem and Ramdas Pophale) SiO2 
 PCOD9494716
Probable space group: C M M M
;
_chemical_formula_sum "Si O2"
_cell_formula_units_Z 48
_cell_length_a 24.000000
_cell_length_b 18.000000
_cell_length_c 12.000000
_cell_angle_alpha 90.000000
_cell_angle_beta 90.000000
_cell_angle_gamma 90.000000
_cell_volume 5184.000000
_symmetry_space_group_name_H-M "C M M M"
_symmetry_group_IT_number 65
_symmetry_cell_setting 'orthorhombic'
loop_
_space_group_symop_operation_xyz
x,y,z
-x,-y,z
x,-y,-z
-x,y,-z
-x,-y,-z
x,y,-z
-x,y,z
x,-y,z
1/2+x,1/2+y,z
1/2-x,1/2-y,z
1/2+x,1/2-y,-z
1/2-x,1/2+y,-z
1/2-x,1/2-y,-z
1/2+x,1/2+y,-z
1/2-x,1/2+y,z
1/2+x,1/2-y,z
loop_
_atom_site_type_symbol
_atom_site_label
_atom_site_fract_x
_atom_site_fract_y
_atom_site_fract_z
Si Si1 0.434610 0.788162 0.288466
Si Si2 0.240206 0.162489 0.686224
Si Si3 0.834567 0.912101 0.500000
Si Si4 0.437465 0.655445 0.133447
Si Si5 0.565738 0.315153 0.500000
Si Si6 0.677069 0.415988 0.133736
Si Si7 0.142720 0.586909 0.632394
O O1 0.500000 0.805088 0.295971
O O2 0.424870 0.737269 0.180677
O O3 0.420094 0.734642 0.392395
O O4 0.399784 0.862512 0.299169
O O5 0.250000 0.250000 0.670313
O O6 0.194032 0.128076 0.604728
O O7 0.217936 0.142175 0.808402
O O8 0.296543 0.119263 0.657527
O O9 0.898906 0.889677 0.500000
O O10 0.824682 0.000000 0.500000
O O11 0.500000 0.634944 0.174006
O O12 0.386799 0.602357 0.166820
O O13 0.438997 0.656102 0.000000
O O14 0.500000 0.328795 0.500000
O O15 0.691244 0.500000 0.168830
O O16 0.680272 0.411819 0.000000
O O17 0.131358 0.595360 0.500000
O O18 0.139698 0.500000 0.659211
#
# Coordination Sequence:
#
# PCOD9494716 Si02
#       7
#    16  16   8  16   8  16  16
#     4  10  20  36  57  81 111 143 177 226 280 330
#     4  12  24  38  58  81 109 147 190 232 275 332
#     4  12  23  36  56  80 110 145 182 227 278 327
#     4   9  18  34  57  83 111 148 191 228 266 320
#     4  10  20  34  53  79 110 143 179 218 271 333
#     4  10  21  37  57  83 116 149 183 230 284 330
#     4  11  22  36  56  82 111 141 182 232 280 333
#
# _framework density 9.2592590000000001
#
# number of rings (size 3 to 8) (size 9 to 14) (size 15 to 20)
#    0.000    1.500    1.667    4.750    0.000    1.167 
#    0.000    3.333    0.000    6.500    0.000    2.333 
#    0.000    0.000    0.000    0.000    0.000    0.000 
#
# Total GULP energy -268001.902706 kJ/mol
# GULP energy per Si atom -5583.372973 kJ/mol
# Density = 0.923818 g / cm^3
# Si number density = 9.259259 Si / 1000 Ang^3
#
#
#
# Elastic Constant Matrix: (Units=GPa)
#
#
# Indices 1 2 3 4 5 6 
#
# 1 27.9644 39.2917 0.5332 0.0000 0.0000 0.0000
# 2 39.2917 114.9365 15.1688 0.0000 0.0000 0.0000
# 3 0.5332 15.1688 18.0805 0.0000 0.0000 0.0000
# 4 0.0000 0.0000 0.0000 23.8702 0.0000 0.0000
# 5 0.0000 0.0000 0.0000 0.0000 20.6122 0.0000
# 6 0.0000 0.0000 0.0000 0.0000 0.0000 8.5811
#
#
#
# Elastic Compliance Matrix: (Units=1/GPa)
#
#
# Indices 1 2 3 4 5 6 
#
# 1 0.075838 -0.028822 0.021944 0.000000 0.000000 0.000000
# 2 -0.028822 0.020737 -0.016548 0.000000 0.000000 0.000000
# 3 0.021944 -0.016548 0.068544 0.000000 0.000000 0.000000
# 4 0.000000 0.000000 0.000000 0.041893 0.000000 0.000000
# 5 0.000000 0.000000 0.000000 0.000000 0.048515 0.000000
# 6 0.000000 0.000000 0.000000 0.000000 0.000000 0.116535
#
#
# Mechanical properties :
#
#
# Convention : Reuss Voigt Hill
#
# Bulk Modulus (GPa) = 8.45539 30.10764 19.28151
# Shear Modulus (GPa) = 10.90904 17.67854 14.29379
#
# Velocity S-wave (km/s) = 2.42975 3.09308 2.78126
# Velocity P-wave (km/s) = 3.52808 5.38977 4.55505
#
# Compressibility (1/GPa) = 0.11826780
#
# Stress axis : x y z
#
# Youngs Moduli (GPa) = 13.18606 48.22256 14.58918
#
# Poissons Ratio (x) = 1.38985 -0.32014
# Poissons Ratio (y) = 0.38004 0.24142
# Poissons Ratio (z) = -0.28935 0.79797
#
# Static dielectric constant tensor:
#      x y z
#    x 1.677700 0.000000 0.000000 
#    y 0.000000 1.604590 0.000000 
#    z 0.000000 0.000000 1.675980 
# 
# From -- ./inp_files/30859.got.cif
#   From: 2010.05.17/outbox.ucp.g08.bks.cvg/sg65_16_cif.got.tgz:30859.got - 2010.06.11 16:39:57.
