data_PCOD9494304
_publ_section_title
;
Structure prediction by ZEFSAII (Michael W. Deem and Ramdas Pophale) SiO2 
 PCOD9494304
Probable space group: C M M M
;
_chemical_formula_sum "Si O2"
_cell_formula_units_Z 104
_cell_length_a 7.307360
_cell_length_b 26.726465
_cell_length_c 20.163432
_cell_angle_alpha 90.000000
_cell_angle_beta 90.000000
_cell_angle_gamma 90.000000
_cell_volume 3937.916279
_symmetry_space_group_name_H-M "C M M M"
_symmetry_group_IT_number 65
_symmetry_cell_setting 'orthorhombic'
loop_
_space_group_symop_operation_xyz
x,y,z
-x,-y,z
x,-y,-z
-x,y,-z
-x,-y,-z
x,y,-z
-x,y,z
x,-y,z
1/2+x,1/2+y,z
1/2-x,1/2-y,z
1/2+x,1/2-y,-z
1/2-x,1/2+y,-z
1/2-x,1/2-y,-z
1/2+x,1/2+y,-z
1/2-x,1/2+y,z
1/2+x,1/2-y,z
loop_
_atom_site_type_symbol
_atom_site_label
_atom_site_fract_x
_atom_site_fract_y
_atom_site_fract_z
Si Si1 0.777338 0.346036 0.071229
Si Si2 0.782129 0.308897 0.213160
Si Si3 0.781591 0.689911 0.500000
Si Si4 0.722307 0.056756 0.136681
Si Si5 0.780857 0.689575 0.356751
Si Si6 0.781839 0.941682 0.428691
Si Si7 0.782587 0.557527 0.282984
O O1 0.712144 0.322819 0.140343
O O2 0.726164 0.404123 0.080728
O O3 0.000000 0.342009 0.071159
O O4 0.714355 0.326249 0.000000
O O5 0.750000 0.250000 0.217391
O O6 0.711644 0.328459 0.284640
O O7 0.000000 0.320475 0.212997
O O8 0.750000 0.750000 0.500000
O O9 0.708160 0.671834 0.428575
O O10 0.000000 0.682871 0.500000
O O11 0.500000 0.055881 0.136340
O O12 0.780422 0.075708 0.210386
O O13 0.784146 0.000000 0.127953
O O14 0.750000 0.750000 0.357314
O O15 0.000000 0.681881 0.356994
O O16 0.713531 0.921308 0.500000
O O17 0.741949 0.919683 0.356122
O O18 0.000000 0.942964 0.432276
O O19 0.717502 0.000000 0.426412
O O20 0.712675 0.500000 0.287149
O O21 0.000000 0.555396 0.275995
#
# Coordination Sequence:
#
# PCOD9494304 Si02
#       7
#    16  16   8  16  16  16  16
#     4   9  17  28  43  65  90 117 151 187 226 275
#     4   9  17  29  45  66  92 122 152 183 220 263
#     4   8  12  18  30  50  76 104 135 171 207 247
#     4   8  14  25  41  62  87 114 145 185 232 276
#     4   8  13  21  34  54  80 109 140 173 210 250
#     4   8  13  20  30  48  76 106 136 173 213 251
#     4   8  13  21  34  53  76 103 135 170 212 261
#
# _framework density 26.409908000000001
#
# number of rings (size 3 to 8) (size 9 to 14) (size 15 to 20)
#    0.000    3.692    0.000    1.385    0.000    0.923 
#    0.000    3.077    0.000    0.923    2.000    0.000 
#    0.000    0.000    8.000    7.385    0.000    7.692 
#
# Total GULP energy -290215.182837 kJ/mol
# GULP energy per Si atom -5581.061208 kJ/mol
# Density = 2.634980 g / cm^3
# Si number density = 26.409908 Si / 1000 Ang^3
#
#
#
# Elastic Constant Matrix: (Units=GPa)
#
#
# Indices 1 2 3 4 5 6 
#
# 1 118.4578 -7.4132 7.2171 0.0000 0.0000 0.0000
# 2 -7.4132 61.9427 55.3294 0.0000 0.0000 0.0000
# 3 7.2171 55.3294 304.8298 0.0000 0.0000 0.0000
# 4 0.0000 0.0000 0.0000 36.6582 0.0000 0.0000
# 5 0.0000 0.0000 0.0000 0.0000 -593.4325 0.0000
# 6 0.0000 0.0000 0.0000 0.0000 0.0000 -4.3884
#
#
#
# Elastic Compliance Matrix: (Units=1/GPa)
#
#
# Indices 1 2 3 4 5 6 
#
# 1 0.008560 0.001439 -0.000464 0.000000 0.000000 0.000000
# 2 0.001439 0.019510 -0.003575 0.000000 0.000000 0.000000
# 3 -0.000464 -0.003575 0.003940 0.000000 0.000000 0.000000
# 4 0.000000 0.000000 0.000000 0.027279 0.000000 0.000000
# 5 0.000000 0.000000 0.000000 0.000000 -0.001685 0.000000
# 6 0.000000 0.000000 0.000000 0.000000 0.000000 -0.227873
#
#
# Mechanical properties :
#
#
# Convention : Reuss Voigt Hill
#
# Bulk Modulus (GPa) = 37.30003 66.16631 51.73317
# Shear Modulus (GPa) = -32.02426 -83.55940 -57.79183
#
# Velocity S-wave (km/s) = -3.48600 -5.63099 -4.68296
# Velocity P-wave (km/s) = 1.43134 4.14361 3.09986
#
# Compressibility (1/GPa) = 0.02680963
#
# Stress axis : x y z
#
# Youngs Moduli (GPa) = 116.82072 51.25664 253.77872
#
# Poissons Ratio (x) = -0.07375 0.11771
# Poissons Ratio (y) = -0.16808 0.90732
# Poissons Ratio (z) = 0.05418 0.18326
#
# Static dielectric constant tensor:
#      x y z
#    x 1.952680 0.000000 0.000000 
#    y 0.000000 2.113130 0.000000 
#    z 0.000000 0.000000 2.080980 
# 
# From -- ./inp_files/52132.got.cif
#   From: 2010.05.17/outbox.cif.g08.bks.cpg/sg65_27_cif.got.tgz:52132.got - 2010.06.03 17:01:31.
