data_PCOD9494467
_publ_section_title
;
Structure prediction by ZEFSAII (Michael W. Deem and Ramdas Pophale) SiO2 
 PCOD9494467
Probable space group: C M M M
;
_chemical_formula_sum "Si O2"
_cell_formula_units_Z 72
_cell_length_a 14.975489
_cell_length_b 31.102024
_cell_length_c 7.385301
_cell_angle_alpha 90.000000
_cell_angle_beta 90.000000
_cell_angle_gamma 90.000000
_cell_volume 3439.837011
_symmetry_space_group_name_H-M "C M M M"
_symmetry_group_IT_number 65
_symmetry_cell_setting 'orthorhombic'
loop_
_space_group_symop_operation_xyz
x,y,z
-x,-y,z
x,-y,-z
-x,y,-z
-x,-y,-z
x,y,-z
-x,y,z
x,-y,z
1/2+x,1/2+y,z
1/2-x,1/2-y,z
1/2+x,1/2-y,-z
1/2-x,1/2+y,-z
1/2-x,1/2-y,-z
1/2+x,1/2+y,-z
1/2-x,1/2+y,z
1/2+x,1/2-y,z
loop_
_atom_site_type_symbol
_atom_site_label
_atom_site_fract_x
_atom_site_fract_y
_atom_site_fract_z
Si Si1 0.000000 0.237205 0.779067
Si Si2 0.309303 0.127188 0.221660
Si Si3 0.000000 0.337406 0.779262
Si Si4 0.807215 0.208410 0.779417
Si Si5 0.696358 0.548710 0.786755
Si Si6 0.000000 0.049155 0.715153
O O1 0.000000 0.287348 0.724033
O O2 0.909059 0.214351 0.720241
O O3 0.000000 0.237289 0.000000
O O4 0.409369 0.139086 0.278435
O O5 0.242855 0.165387 0.278000
O O6 0.268906 0.082003 0.285208
O O7 0.309521 0.126758 0.000000
O O8 0.000000 0.337039 0.000000
O O9 0.750000 0.250000 0.724409
O O10 0.807507 0.208214 0.000000
O O11 0.697331 0.500000 0.710657
O O12 0.595806 0.567616 0.769353
O O13 0.713137 0.544889 0.000000
O O14 0.000000 0.047499 0.500000
O O15 0.000000 0.000000 0.788215
#
# Coordination Sequence:
#
# PCOD9494467 Si02
#       6
#     8  16   8  16  16   8
#     4   9  14  19  29  44  68 103 142 179 215 258
#     4   9  16  24  36  54  80 116 152 180 215 263
#     4   9  14  22  34  49  73 112 152 179 209 254
#     4   9  14  20  30  47  72 107 146 179 215 262
#     4   9  17  29  44  64  92 122 147 175 216 265
#     4   9  17  30  49  69  87 113 148 183 221 263
#
# _framework density 20.931224
#
# number of rings (size 3 to 8) (size 9 to 14) (size 15 to 20)
#    0.000    3.000    2.222    0.333    0.000    2.222 
#    0.000    3.889    0.000    3.333    0.000    0.778 
#    0.000    4.444    0.000    0.000    0.444    0.000 
#
# Total GULP energy -200878.520985 kJ/mol
# GULP energy per Si atom -5579.958916 kJ/mol
# Density = 2.088358 g / cm^3
# Si number density = 20.931224 Si / 1000 Ang^3
#
#
#
# Elastic Constant Matrix: (Units=GPa)
#
#
# Indices 1 2 3 4 5 6 
#
# 1 227.1587 102.7259 2.5707 0.0000 0.0000 0.0000
# 2 102.7259 122.9017 7.3802 0.0000 0.0000 0.0000
# 3 2.5707 7.3802 73.5211 0.0000 0.0000 0.0000
# 4 0.0000 0.0000 0.0000 -13.9301 0.0000 0.0000
# 5 0.0000 0.0000 0.0000 0.0000 -44.1425 0.0000
# 6 0.0000 0.0000 0.0000 0.0000 0.0000 39.3984
#
#
#
# Elastic Compliance Matrix: (Units=1/GPa)
#
#
# Indices 1 2 3 4 5 6 
#
# 1 0.007086 -0.005944 0.000349 0.000000 0.000000 0.000000
# 2 -0.005944 0.013172 -0.001114 0.000000 0.000000 0.000000
# 3 0.000349 -0.001114 0.013701 0.000000 0.000000 0.000000
# 4 0.000000 0.000000 0.000000 -0.071787 0.000000 0.000000
# 5 0.000000 0.000000 0.000000 0.000000 -0.022654 0.000000
# 6 0.000000 0.000000 0.000000 0.000000 0.000000 0.025382
#
#
# Mechanical properties :
#
#
# Convention : Reuss Voigt Hill
#
# Bulk Modulus (GPa) = 48.68473 72.10391 60.39432
# Shear Modulus (GPa) = -337.04870 16.99214 -160.02828
#
# Velocity S-wave (km/s) = -12.70340 2.85232 -8.75330
# Velocity P-wave (km/s) = 13.85130 6.73576 8.55828
#
# Compressibility (1/GPa) = 0.02054032
#
# Stress axis : x y z
#
# Youngs Moduli (GPa) = 141.11935 75.92089 72.98629
#
# Poissons Ratio (x) = 0.45126 -0.02546
# Poissons Ratio (y) = 0.83879 0.08133
# Poissons Ratio (z) = -0.04923 0.08460
#
# Static dielectric constant tensor:
#      x y z
#    x 1.729830 0.000000 0.000000 
#    y 0.000000 1.734510 0.000000 
#    z 0.000000 0.000000 1.776300 
# 
# From -- ./inp_files/7737.got.cif
#   From: 2010.05.17/outbox.cif.g08.bks.cpg/sg65_4_cif.got.tgz:7737.got - 2010.06.03 17:01:31.
