data_PCOD9494332
_publ_section_title
;
Structure prediction by ZEFSAII (Michael W. Deem and Ramdas Pophale) SiO2 
 PCOD9494332
Probable space group: C M M M
;
_chemical_formula_sum "Si O2"
_cell_formula_units_Z 88
_cell_length_a 7.464915
_cell_length_b 29.388584
_cell_length_c 22.103977
_cell_angle_alpha 90.000000
_cell_angle_beta 90.000000
_cell_angle_gamma 90.000000
_cell_volume 4849.243009
_symmetry_space_group_name_H-M "C M M M"
_symmetry_group_IT_number 65
_symmetry_cell_setting 'orthorhombic'
loop_
_space_group_symop_operation_xyz
x,y,z
-x,-y,z
x,-y,-z
-x,y,-z
-x,-y,-z
x,y,-z
-x,y,z
x,-y,z
1/2+x,1/2+y,z
1/2-x,1/2-y,z
1/2+x,1/2-y,-z
1/2-x,1/2+y,-z
1/2-x,1/2-y,-z
1/2+x,1/2+y,-z
1/2-x,1/2+y,z
1/2+x,1/2-y,z
loop_
_atom_site_type_symbol
_atom_site_label
_atom_site_fract_x
_atom_site_fract_y
_atom_site_fract_z
Si Si1 0.286341 0.804113 0.000000
Si Si2 0.285452 0.803168 0.867734
Si Si3 0.217882 0.446729 0.933009
Si Si4 0.280558 0.107092 0.187037
Si Si5 0.212419 0.448196 0.697605
Si Si6 0.784860 0.052819 0.434952
O O1 0.250000 0.750000 0.000000
O O2 0.216454 0.818266 0.065614
O O3 0.500000 0.813254 0.000000
O O4 0.500000 0.806537 0.871137
O O5 0.250000 0.750000 0.856638
O O6 0.224074 0.840422 0.819718
O O7 0.267080 0.500000 0.927685
O O8 0.275888 0.419268 0.874004
O O9 0.000000 0.444825 0.933197
O O10 0.275358 0.430246 0.000000
O O11 0.500000 0.106095 0.187942
O O12 0.217018 0.081896 0.247329
O O13 0.285906 0.500000 0.698563
O O14 0.235696 0.427806 0.630378
O O15 0.000000 0.452007 0.707013
O O16 0.723706 0.072270 0.500000
O O17 0.000000 0.052290 0.436400
O O18 0.723047 0.000000 0.433623
#
# Coordination Sequence:
#
# PCOD9494332 Si02
#       6
#     8  16  16  16  16  16
#     4   8  14  24  38  54  69  89 119 157 200 240
#     4   9  17  28  41  56  75  99 128 165 206 246
#     4   8  13  20  31  49  73 101 133 166 196 229
#     4   9  16  24  36  53  77 106 132 161 201 242
#     4   9  16  25  38  58  84 110 134 161 193 231
#     4   8  14  25  40  57  79 108 138 164 189 220
#
# _framework density 18.147162000000002
#
# number of rings (size 3 to 8) (size 9 to 14) (size 15 to 20)
#    0.000    3.455    0.000    1.636    1.273    2.545 
#    0.000    2.727    0.000    0.000    0.000    0.000 
#    0.000    0.727    0.000   10.364    0.000   11.273 
#
# Total GULP energy -244974.729588 kJ/mol
# GULP energy per Si atom -5567.607491 kJ/mol
# Density = 1.810586 g / cm^3
# Si number density = 18.147162 Si / 1000 Ang^3
#
#
#
# Elastic Constant Matrix: (Units=GPa)
#
#
# Indices 1 2 3 4 5 6 
#
# 1 51.0300 2.2097 3.9459 0.0000 0.0000 0.0000
# 2 2.2097 76.3697 80.6298 0.0000 0.0000 0.0000
# 3 3.9459 80.6298 181.4947 0.0000 0.0000 0.0000
# 4 0.0000 0.0000 0.0000 11.7513 0.0000 0.0000
# 5 0.0000 0.0000 0.0000 0.0000 55.0768 0.0000
# 6 0.0000 0.0000 0.0000 0.0000 0.0000 3.9057
#
#
#
# Elastic Compliance Matrix: (Units=1/GPa)
#
#
# Indices 1 2 3 4 5 6 
#
# 1 0.019631 -0.000221 -0.000329 0.000000 0.000000 0.000000
# 2 -0.000221 0.024664 -0.010952 0.000000 0.000000 0.000000
# 3 -0.000329 -0.010952 0.010382 0.000000 0.000000 0.000000
# 4 0.000000 0.000000 0.000000 0.085097 0.000000 0.000000
# 5 0.000000 0.000000 0.000000 0.000000 0.018156 0.000000
# 6 0.000000 0.000000 0.000000 0.000000 0.000000 0.256039
#
#
# Mechanical properties :
#
#
# Convention : Reuss Voigt Hill
#
# Bulk Modulus (GPa) = 31.57182 53.60725 42.58953
# Shear Modulus (GPa) = 11.17238 28.95400 20.06319
#
# Velocity S-wave (km/s) = 2.48393 3.99872 3.32864
# Velocity P-wave (km/s) = 5.06577 7.13611 6.18814
#
# Compressibility (1/GPa) = 0.03167381
#
# Stress axis : x y z
#
# Youngs Moduli (GPa) = 50.93907 40.54538 96.31596
#
# Poissons Ratio (x) = 0.00896 0.03165
# Poissons Ratio (y) = 0.01126 1.05487
# Poissons Ratio (z) = 0.01674 0.44406
#
# Static dielectric constant tensor:
#      x y z
#    x 1.711020 0.000000 0.000000 
#    y 0.000000 1.618380 0.000000 
#    z 0.000000 0.000000 1.664210 
# 
# From -- ./inp_files/52086.got.cif
#   From: 2010.05.17/outbox.cif.g08.bks.cpg/sg65_27_cif.got.tgz:52086.got - 2010.06.03 17:01:31.
