data_PCOD9494928
_publ_section_title
;
Structure prediction by ZEFSAII (Michael W. Deem and Ramdas Pophale) SiO2 
 PCOD9494928
Probable space group: C C C M
;
_chemical_formula_sum "Si O2"
_cell_formula_units_Z 80
_cell_length_a 9.271183
_cell_length_b 18.217567
_cell_length_c 27.595851
_cell_angle_alpha 90.000000
_cell_angle_beta 90.000000
_cell_angle_gamma 90.000000
_cell_volume 4660.895011
_symmetry_space_group_name_H-M "C C C M"
_symmetry_group_IT_number 66
_symmetry_cell_setting 'orthorhombic'
loop_
_space_group_symop_operation_xyz
x,y,z
-x,-y,z
x,-y,1/2-z
-x,y,1/2-z
-x,-y,-z
x,y,-z
-x,y,1/2+z
x,-y,1/2+z
1/2+x,1/2+y,z
1/2-x,1/2-y,z
1/2+x,1/2-y,1/2-z
1/2-x,1/2+y,1/2-z
1/2-x,1/2-y,-z
1/2+x,1/2+y,-z
1/2-x,1/2+y,1/2+z
1/2+x,1/2-y,1/2+z
loop_
_atom_site_type_symbol
_atom_site_label
_atom_site_fract_x
_atom_site_fract_y
_atom_site_fract_z
Si Si1 0.414305 0.578388 0.445960
Si Si2 0.842388 0.479323 0.385355
Si Si3 0.413621 0.576691 0.142206
Si Si4 0.644270 0.312089 0.772946
Si Si5 0.845911 0.575359 0.776080
O O1 0.500000 0.500000 0.449300
O O2 0.412515 0.609901 0.500000
O O3 0.255770 0.563873 0.424092
O O4 0.504654 0.615133 0.402718
O O5 0.745496 0.550697 0.373054
O O6 0.860379 0.438859 0.333384
O O7 0.000000 0.500000 0.403557
O O8 0.500000 0.500000 0.153370
O O9 0.404937 0.629927 0.187023
O O10 0.500000 0.279169 0.750000
O O11 0.750000 0.250000 0.792898
O O12 0.736723 0.359104 0.734451
O O13 0.791850 0.500000 0.750000
O O14 0.000000 0.589011 0.750000
#
# Coordination Sequence:
#
# PCOD9494928 Si02
#       5
#    16  16  16  16  16
#     4   8  16  29  45  68  98 128 171 229 274 312
#     4  10  16  26  47  75  98 131 174 215 261 317
#     4   9  18  32  52  71  94 137 185 211 257 332
#     4  12  24  34  49  75 111 141 179 223 268 311
#     4  11  19  32  52  74 105 143 178 217 251 321
#
# _framework density 17.164085
#
# number of rings (size 3 to 8) (size 9 to 14) (size 15 to 20)
#    0.000    2.400    4.000    3.000    0.000    0.400 
#    0.000    0.000    0.000    0.600    0.000    0.000 
#    0.000   32.000    0.000    0.000    0.000    0.800 
#
# Total GULP energy -222786.850926 kJ/mol
# GULP energy per Si atom -5569.671273 kJ/mol
# Density = 1.712502 g / cm^3
# Si number density = 17.164085 Si / 1000 Ang^3
#
#
#
# Elastic Constant Matrix: (Units=GPa)
#
#
# Indices 1 2 3 4 5 6 
#
# 1 130.4515 14.8832 41.8684 0.0000 0.0000 0.0000
# 2 14.8832 34.2314 13.2819 0.0000 0.0000 0.0000
# 3 41.8684 13.2819 97.6414 0.0000 0.0000 0.0000
# 4 0.0000 0.0000 0.0000 -2.4489 0.0000 0.0000
# 5 0.0000 0.0000 0.0000 0.0000 16.2374 0.0000
# 6 0.0000 0.0000 0.0000 0.0000 0.0000 17.9763
#
#
#
# Elastic Compliance Matrix: (Units=1/GPa)
#
#
# Indices 1 2 3 4 5 6 
#
# 1 0.009100 -0.002578 -0.003551 0.000000 0.000000 0.000000
# 2 -0.002578 0.031571 -0.003189 0.000000 0.000000 0.000000
# 3 -0.003551 -0.003189 0.012198 0.000000 0.000000 0.000000
# 4 0.000000 0.000000 0.000000 -0.408354 0.000000 0.000000
# 5 0.000000 0.000000 0.000000 0.000000 0.061586 0.000000
# 6 0.000000 0.000000 0.000000 0.000000 0.000000 0.055629
#
#
# Mechanical properties :
#
#
# Convention : Reuss Voigt Hill
#
# Bulk Modulus (GPa) = 29.21252 44.71014 36.96133
# Shear Modulus (GPa) = -24.01276 19.17236 -2.42020
#
# Velocity S-wave (km/s) = -3.74439 3.34579 -1.18874
# Velocity P-wave (km/s) = 1.27964 6.40554 4.43810
#
# Compressibility (1/GPa) = 0.03423190
#
# Stress axis : x y z
#
# Youngs Moduli (GPa) = 109.89492 31.67433 81.98021
#
# Poissons Ratio (x) = 0.08167 0.29112
# Poissons Ratio (y) = 0.28336 0.26143
# Poissons Ratio (z) = 0.39025 0.10101
#
# Static dielectric constant tensor:
#      x y z
#    x 1.624350 0.000000 0.000000 
#    y 0.000000 1.583270 0.000000 
#    z 0.000000 0.000000 1.607080 
# 
# From -- ./inp_files/68114.got.cif
#   From: 2010.05.17/outbox.cif.g08.bks.cpg/sg66_35_cif.got.tgz:68114.got - 2010.06.03 17:51:23.
