data_PCOD9494941
_publ_section_title
;
Structure prediction by ZEFSAII (Michael W. Deem and Ramdas Pophale) SiO2 
 PCOD9494941
Probable space group: C C C M
;
_chemical_formula_sum "Si O2"
_cell_formula_units_Z 104
_cell_length_a 18.320226
_cell_length_b 20.734906
_cell_length_c 13.819071
_cell_angle_alpha 90.000000
_cell_angle_beta 90.000000
_cell_angle_gamma 90.000000
_cell_volume 5249.425129
_symmetry_space_group_name_H-M "C C C M"
_symmetry_group_IT_number 66
_symmetry_cell_setting 'orthorhombic'
loop_
_space_group_symop_operation_xyz
x,y,z
-x,-y,z
x,-y,1/2-z
-x,y,1/2-z
-x,-y,-z
x,y,-z
-x,y,1/2+z
x,-y,1/2+z
1/2+x,1/2+y,z
1/2-x,1/2-y,z
1/2+x,1/2-y,1/2-z
1/2-x,1/2+y,1/2-z
1/2-x,1/2-y,-z
1/2+x,1/2+y,-z
1/2-x,1/2+y,1/2+z
1/2+x,1/2-y,1/2+z
loop_
_atom_site_type_symbol
_atom_site_label
_atom_site_fract_x
_atom_site_fract_y
_atom_site_fract_z
Si Si1 0.081678 0.662686 0.734767
Si Si2 0.673702 0.280690 0.257333
Si Si3 0.366709 0.500000 0.250000
Si Si4 0.711150 0.600153 0.110291
Si Si5 0.821510 0.408732 0.114365
Si Si6 0.874367 0.448948 0.390408
Si Si7 0.146364 0.110525 0.383817
O O1 0.125970 0.724016 0.696397
O O2 0.130356 0.641891 0.827081
O O3 0.075507 0.597245 0.672190
O O4 0.000000 0.685040 0.750000
O O5 0.750000 0.250000 0.222627
O O6 0.691623 0.333538 0.338426
O O7 0.636643 0.320307 0.168830
O O8 0.322344 0.456862 0.173801
O O9 0.397982 0.444091 0.322545
O O10 0.797645 0.589214 0.110215
O O11 0.685338 0.596404 0.000000
O O12 0.852931 0.479186 0.141761
O O13 0.734103 0.404017 0.132241
O O14 0.830613 0.400785 0.000000
O O15 0.902024 0.453820 0.500000
O O16 0.133512 0.109742 0.500000
#
# Coordination Sequence:
#
# PCOD9494941 Si02
#       7
#    16  16   8  16  16  16  16
#     4  12  25  39  53  74 109 153 191 230 269 310
#     4  11  21  35  54  77 105 143 193 231 268 325
#     4  10  16  28  50  84 120 134 160 208 282 338
#     4  10  19  31  54  84 113 140 174 226 276 318
#     4  10  20  34  55  82 111 142 181 225 271 326
#     4  10  20  34  55  82 111 142 181 225 271 326
#     4  10  19  31  54  84 113 140 174 226 276 318
#
# _framework density 19.811692000000001
#
# number of rings (size 3 to 8) (size 9 to 14) (size 15 to 20)
#    0.000    1.538    4.615    1.846    0.000    3.692 
#    0.000    1.538    0.000    0.000    0.000    8.615 
#    0.000    9.846    0.000    0.000    0.000    0.000 
#
# Total GULP energy -289858.874024 kJ/mol
# GULP energy per Si atom -5574.209116 kJ/mol
# Density = 1.976660 g / cm^3
# Si number density = 19.811692 Si / 1000 Ang^3
#
#
#
# Elastic Constant Matrix: (Units=GPa)
#
#
# Indices 1 2 3 4 5 6 
#
# 1 14.9672 8.1095 -13.7591 0.0000 0.0000 0.0000
# 2 8.1095 97.4105 15.5692 0.0000 0.0000 0.0000
# 3 -13.7591 15.5692 95.8560 0.0000 0.0000 0.0000
# 4 0.0000 0.0000 0.0000 18.9604 0.0000 0.0000
# 5 0.0000 0.0000 0.0000 0.0000 4.7711 0.0000
# 6 0.0000 0.0000 0.0000 0.0000 0.0000 8.5082
#
#
#
# Elastic Compliance Matrix: (Units=1/GPa)
#
#
# Indices 1 2 3 4 5 6 
#
# 1 0.084285 -0.009189 0.013591 0.000000 0.000000 0.000000
# 2 -0.009189 0.011541 -0.003194 0.000000 0.000000 0.000000
# 3 0.013591 -0.003194 0.012902 0.000000 0.000000 0.000000
# 4 0.000000 0.000000 0.000000 0.052741 0.000000 0.000000
# 5 0.000000 0.000000 0.000000 0.000000 0.209597 0.000000
# 6 0.000000 0.000000 0.000000 0.000000 0.000000 0.117533
#
#
# Mechanical properties :
#
#
# Convention : Reuss Voigt Hill
#
# Bulk Modulus (GPa) = 8.99726 25.34143 17.16935
# Shear Modulus (GPa) = 9.55599 19.66888 14.61243
#
# Velocity S-wave (km/s) = 2.19861 3.15428 2.71876
# Velocity P-wave (km/s) = 3.31609 5.10734 4.30589
#
# Compressibility (1/GPa) = 0.11114491
#
# Stress axis : x y z
#
# Youngs Moduli (GPa) = 11.86444 86.64571 77.50834
#
# Poissons Ratio (x) = 0.79619 -1.05340
# Poissons Ratio (y) = 0.10902 0.24753
# Poissons Ratio (z) = -0.16125 0.27671
#
# Static dielectric constant tensor:
#      x y z
#    x 1.672630 0.000000 0.000000 
#    y 0.000000 1.730340 0.000000 
#    z 0.000000 0.000000 1.737700 
# 
# From -- ./inp_files/31387.got.cif
#   From: 2010.05.17/outbox.cif.g08.bks.cpg/sg66_16_cif.got.tgz:31387.got - 2010.06.03 17:51:23.
