data_PCOD9494845
_publ_section_title
;
Structure prediction by ZEFSAII (Michael W. Deem and Ramdas Pophale) SiO2 
 PCOD9494845
Probable space group: C M M M
;
_chemical_formula_sum "Si O2"
_cell_formula_units_Z 44
_cell_length_a 9.000000
_cell_length_b 21.000000
_cell_length_c 24.000000
_cell_angle_alpha 90.000000
_cell_angle_beta 90.000000
_cell_angle_gamma 90.000000
_cell_volume 4536.000000
_symmetry_space_group_name_H-M "C M M M"
_symmetry_group_IT_number 65
_symmetry_cell_setting 'orthorhombic'
loop_
_space_group_symop_operation_xyz
x,y,z
-x,-y,z
x,-y,-z
-x,y,-z
-x,-y,-z
x,y,-z
-x,y,z
x,-y,z
1/2+x,1/2+y,z
1/2-x,1/2-y,z
1/2+x,1/2-y,-z
1/2-x,1/2+y,-z
1/2-x,1/2-y,-z
1/2+x,1/2+y,-z
1/2-x,1/2+y,z
1/2+x,1/2-y,z
loop_
_atom_site_type_symbol
_atom_site_label
_atom_site_fract_x
_atom_site_fract_y
_atom_site_fract_z
Si Si1 0.678754 0.631227 0.937428
Si Si2 0.176978 0.429750 0.639578
Si Si3 0.321486 0.813853 0.435676
Si Si4 0.331988 0.000000 0.067701
Si Si5 0.822200 0.811035 0.173148
Si Si6 0.678938 0.568457 0.240261
O O1 0.500000 0.626324 0.937927
O O2 0.743200 0.563552 0.918655
O O3 0.722387 0.681554 0.891155
O O4 0.729971 0.645707 0.000000
O O5 0.202277 0.500000 0.615495
O O6 0.225883 0.374913 0.598521
O O7 0.260890 0.425526 0.697685
O O8 0.000000 0.423430 0.649561
O O9 0.275994 0.820044 0.500000
O O10 0.500000 0.809166 0.433967
O O11 0.250000 0.750000 0.412305
O O12 0.500000 0.000000 0.089086
O O13 0.339177 0.000000 0.000000
O O14 0.750000 0.750000 0.199683
O O15 0.768326 0.873666 0.203775
O O16 0.000000 0.807365 0.176110
O O17 0.500000 0.569699 0.240952
O O18 0.727111 0.500000 0.217533
#
# Coordination Sequence:
#
# PCOD9494845 Si02
#       6
#    16  16  16   8  16  16
#     4   9  18  33  53  75 100 134 172 207 250 308
#     4   9  18  33  53  77 103 131 168 214 258 300
#     4   9  18  32  50  74 105 140 174 208 249 298
#     4   9  17  29  47  75 105 129 159 203 250 293
#     4  10  22  37  54  76 104 135 170 212 257 309
#     4   9  19  36  56  75  98 133 173 212 255 305
#
# _framework density 9.7001760000000008
#
# number of rings (size 3 to 8) (size 9 to 14) (size 15 to 20)
#    0.000    2.818    0.000    0.273    1.273    4.727 
#    0.000    5.455    0.000    0.000    0.000    5.091 
#    0.000    0.000    0.000    0.000    0.000    0.000 
#
# Total GULP energy -245087.799419 kJ/mol
# GULP energy per Si atom -5570.177260 kJ/mol
# Density = 0.967810 g / cm^3
# Si number density = 9.700176 Si / 1000 Ang^3
#
#
#
# Elastic Constant Matrix: (Units=GPa)
#
#
# Indices 1 2 3 4 5 6 
#
# 1 -21.3358 28.8116 12.2826 0.0000 0.0000 0.0000
# 2 28.8116 177.5397 79.8160 0.0000 0.0000 0.0000
# 3 12.2826 79.8160 45.0585 0.0000 0.0000 0.0000
# 4 0.0000 0.0000 0.0000 28.2112 0.0000 0.0000
# 5 0.0000 0.0000 0.0000 0.0000 8.5822 0.0000
# 6 0.0000 0.0000 0.0000 0.0000 0.0000 20.1660
#
#
#
# Elastic Compliance Matrix: (Units=1/GPa)
#
#
# Indices 1 2 3 4 5 6 
#
# 1 -0.038372 0.007487 -0.002802 0.000000 0.000000 0.000000
# 2 0.007487 0.026198 -0.048448 0.000000 0.000000 0.000000
# 3 -0.002802 -0.048448 0.108777 0.000000 0.000000 0.000000
# 4 0.000000 0.000000 0.000000 0.035447 0.000000 0.000000
# 5 0.000000 0.000000 0.000000 0.000000 0.116520 0.000000
# 6 0.000000 0.000000 0.000000 0.000000 0.000000 0.049589
#
#
# Mechanical properties :
#
#
# Convention : Reuss Voigt Hill
#
# Bulk Modulus (GPa) = 110.17627 49.23142 79.70384
# Shear Modulus (GPa) = 12.86309 16.74868 14.80589
#
# Velocity S-wave (km/s) = 2.57774 2.94142 2.76556
# Velocity P-wave (km/s) = 8.11010 6.08009 7.16733
#
# Compressibility (1/GPa) = 0.00907636
#
# Stress axis : x y z
#
# Youngs Moduli (GPa) = -26.06038 38.17085 9.19314
#
# Poissons Ratio (x) = -0.28579 0.02576
# Poissons Ratio (y) = 0.19511 0.44539
# Poissons Ratio (z) = -0.07303 1.84929
#
# Static dielectric constant tensor:
#      x y z
#    x 1.654300 0.000000 0.000000 
#    y 0.000000 1.699870 0.000000 
#    z 0.000000 0.000000 1.669170 
# 
# From -- ./inp_files/61452.got.cif
#   From: 2010.05.17/outbox.ucp.g08.bks.cvg/sg65_31_cif.got.tgz:61452.got - 2010.06.11 16:39:57.
