data_PCOD9494701
_publ_section_title
;
Structure prediction by ZEFSAII (Michael W. Deem and Ramdas Pophale) SiO2 
 PCOD9494701
Probable space group: C M M M
;
_chemical_formula_sum "Si O2"
_cell_formula_units_Z 36
_cell_length_a 21.000000
_cell_length_b 9.000000
_cell_length_c 21.000000
_cell_angle_alpha 90.000000
_cell_angle_beta 90.000000
_cell_angle_gamma 90.000000
_cell_volume 3969.000000
_symmetry_space_group_name_H-M "C M M M"
_symmetry_group_IT_number 65
_symmetry_cell_setting 'orthorhombic'
loop_
_space_group_symop_operation_xyz
x,y,z
-x,-y,z
x,-y,-z
-x,y,-z
-x,-y,-z
x,y,-z
-x,y,z
x,-y,z
1/2+x,1/2+y,z
1/2-x,1/2-y,z
1/2+x,1/2-y,-z
1/2-x,1/2+y,-z
1/2-x,1/2-y,-z
1/2+x,1/2+y,-z
1/2-x,1/2+y,z
1/2+x,1/2-y,z
loop_
_atom_site_type_symbol
_atom_site_label
_atom_site_fract_x
_atom_site_fract_y
_atom_site_fract_z
Si Si1 0.576981 0.167407 0.571212
Si Si2 0.077119 0.319485 0.000000
Si Si3 0.924281 0.827518 0.696142
Si Si4 0.813637 0.677677 0.770217
Si Si5 0.182248 0.819904 0.909296
O O1 0.600543 0.197102 0.500000
O O2 0.500000 0.162353 0.568250
O O3 0.591518 0.291431 0.622753
O O4 0.597586 0.000000 0.590494
O O5 0.119151 0.248877 0.057523
O O6 0.082486 0.500000 0.000000
O O7 0.000000 0.285569 0.000000
O O8 0.878259 0.718378 0.734100
O O9 0.000000 0.799326 0.706243
O O10 0.912070 0.000000 0.711754
O O11 0.806088 0.500000 0.778429
O O12 0.750000 0.750000 0.739194
O O13 0.819775 0.764472 0.836912
O O14 0.250000 0.750000 0.932820
O O15 0.183355 0.000000 0.915403
#
# Coordination Sequence:
#
# PCOD9494701 Si02
#       5
#    16   8  16  16  16
#     4   8  14  26  45  70 101 137 177 220 266 317
#     4  11  24  41  60  85 117 149 182 221 268 317
#     4  10  20  33  51  78 110 142 179 223 270 320
#     4  11  22  38  59  81 108 142 182 224 269 321
#     4  11  22  39  62  85 111 143 183 224 265 317
#
# _framework density 9.0702949999999998
#
# number of rings (size 3 to 8) (size 9 to 14) (size 15 to 20)
#    0.000    1.889    0.000    7.333    0.000    3.556 
#    0.000    2.222    0.000    0.667    0.000    0.000 
#    0.000    0.000    0.000    0.000    0.000    0.000 
#
# Total GULP energy -200520.207868 kJ/mol
# GULP energy per Si atom -5570.005774 kJ/mol
# Density = 0.904965 g / cm^3
# Si number density = 9.070295 Si / 1000 Ang^3
#
#
#
# Elastic Constant Matrix: (Units=GPa)
#
#
# Indices 1 2 3 4 5 6 
#
# 1 108.8999 56.5829 26.3240 0.0000 0.0000 0.0000
# 2 56.5829 144.6770 23.8595 0.0000 0.0000 0.0000
# 3 26.3240 23.8595 55.0125 0.0000 0.0000 0.0000
# 4 0.0000 0.0000 0.0000 28.0643 0.0000 0.0000
# 5 0.0000 0.0000 0.0000 0.0000 52.6172 0.0000
# 6 0.0000 0.0000 0.0000 0.0000 0.0000 34.1595
#
#
#
# Elastic Compliance Matrix: (Units=1/GPa)
#
#
# Indices 1 2 3 4 5 6 
#
# 1 0.012328 -0.004145 -0.004101 0.000000 0.000000 0.000000
# 2 -0.004145 0.008838 -0.001850 0.000000 0.000000 0.000000
# 3 -0.004101 -0.001850 0.020942 0.000000 0.000000 0.000000
# 4 0.000000 0.000000 0.000000 0.035633 0.000000 0.000000
# 5 0.000000 0.000000 0.000000 0.000000 0.019005 0.000000
# 6 0.000000 0.000000 0.000000 0.000000 0.000000 0.029274
#
#
# Mechanical properties :
#
#
# Convention : Reuss Voigt Hill
#
# Bulk Modulus (GPa) = 45.62810 58.01360 51.82085
# Shear Modulus (GPa) = 32.56949 36.42308 34.49628
#
# Velocity S-wave (km/s) = 4.24180 4.48573 4.36547
# Velocity P-wave (km/s) = 7.01410 7.67323 7.35106
#
# Compressibility (1/GPa) = 0.02191632
#
# Stress axis : x y z
#
# Youngs Moduli (GPa) = 81.11732 113.14631 47.74997
#
# Poissons Ratio (x) = 0.46899 0.19583
# Poissons Ratio (y) = 0.33623 0.08833
# Poissons Ratio (z) = 0.33268 0.20929
#
# Static dielectric constant tensor:
#      x y z
#    x 1.627840 0.000000 0.000000 
#    y 0.000000 1.613810 0.000000 
#    z 0.000000 0.000000 1.702540 
# 
# From -- ./inp_files/64305.got.cif
#   From: 2010.05.17/outbox.ucp.g08.bks.cvg/sg65_33_cif.got.tgz:64305.got - 2010.06.11 16:39:57.
