data_PCOD9494629
_publ_section_title
;
Structure prediction by ZEFSAII (Michael W. Deem and Ramdas Pophale) SiO2 
 PCOD9494629
Probable space group: C M M M
;
_chemical_formula_sum "Si O2"
_cell_formula_units_Z 48
_cell_length_a 21.000000
_cell_length_b 9.000000
_cell_length_c 27.000000
_cell_angle_alpha 90.000000
_cell_angle_beta 90.000000
_cell_angle_gamma 90.000000
_cell_volume 5103.000000
_symmetry_space_group_name_H-M "C M M M"
_symmetry_group_IT_number 65
_symmetry_cell_setting 'orthorhombic'
loop_
_space_group_symop_operation_xyz
x,y,z
-x,-y,z
x,-y,-z
-x,y,-z
-x,-y,-z
x,y,-z
-x,y,z
x,-y,z
1/2+x,1/2+y,z
1/2-x,1/2-y,z
1/2+x,1/2-y,-z
1/2-x,1/2+y,-z
1/2-x,1/2-y,-z
1/2+x,1/2+y,-z
1/2-x,1/2+y,z
1/2+x,1/2-y,z
loop_
_atom_site_type_symbol
_atom_site_label
_atom_site_fract_x
_atom_site_fract_y
_atom_site_fract_z
Si Si1 0.187991 0.322741 0.943560
Si Si2 0.071763 0.172385 0.225684
Si Si3 0.930517 0.327038 0.877377
Si Si4 0.688142 0.321395 0.619036
Si Si5 0.431058 0.680722 0.443271
Si Si6 0.188749 0.324609 0.273224
O O1 0.195663 0.500000 0.944095
O O2 0.250000 0.250000 0.920140
O O3 0.124894 0.287767 0.914284
O O4 0.182671 0.269277 0.000000
O O5 0.069912 0.215321 0.168234
O O6 0.123252 0.282202 0.247840
O O7 0.000000 0.193659 0.245593
O O8 0.089426 0.000000 0.233605
O O9 0.921647 0.500000 0.860427
O O10 0.000000 0.321344 0.901454
O O11 0.692307 0.500000 0.620566
O O12 0.750000 0.250000 0.594351
O O13 0.626115 0.271252 0.590283
O O14 0.684983 0.254869 0.673680
O O15 0.423654 0.727669 0.500000
O O16 0.500000 0.729269 0.424823
O O17 0.430637 0.500000 0.443375
O O18 0.197999 0.500000 0.277778
O O19 0.250000 0.250000 0.247106
#
# Coordination Sequence:
#
# PCOD9494629 Si02
#       6
#    16  16  16  16  16  16
#     4   9  18  32  50  73 101 133 168 207 251 299
#     4  10  21  37  56  78 105 136 171 211 256 308
#     4   9  18  33  52  74 101 133 170 211 253 298
#     4  10  19  32  51  75 103 134 168 208 254 303
#     4   8  15  29  49  73 100 131 169 210 249 293
#     4  11  22  37  56  77 104 136 172 214 259 308
#
# _framework density 9.4062319999999993
#
# number of rings (size 3 to 8) (size 9 to 14) (size 15 to 20)
#    0.000    2.500    0.000    4.000    0.000    3.667 
#    0.000    5.000    0.000    3.000    0.000    9.333 
#    0.000    0.000    0.000    0.000    0.000    0.000 
#
# Total GULP energy -267279.326132 kJ/mol
# GULP energy per Si atom -5568.319294 kJ/mol
# Density = 0.938482 g / cm^3
# Si number density = 9.406232 Si / 1000 Ang^3
#
#
#
# Elastic Constant Matrix: (Units=GPa)
#
#
# Indices 1 2 3 4 5 6 
#
# 1 141.8305 40.1251 60.1969 0.0000 0.0000 0.0000
# 2 40.1251 52.6355 10.7105 0.0000 0.0000 0.0000
# 3 60.1969 10.7105 26.0966 0.0000 0.0000 0.0000
# 4 0.0000 0.0000 0.0000 1.2040 0.0000 0.0000
# 5 0.0000 0.0000 0.0000 0.0000 27.4866 0.0000
# 6 0.0000 0.0000 0.0000 0.0000 0.0000 20.4281
#
#
#
# Elastic Compliance Matrix: (Units=1/GPa)
#
#
# Indices 1 2 3 4 5 6 
#
# 1 -0.511801 0.163592 1.113427 0.000000 0.000000 0.000000
# 2 0.163592 -0.031561 -0.364403 0.000000 0.000000 0.000000
# 3 1.113427 -0.364403 -2.380461 0.000000 0.000000 0.000000
# 4 0.000000 0.000000 0.000000 0.830573 0.000000 0.000000
# 5 0.000000 0.000000 0.000000 0.000000 0.036381 0.000000
# 6 0.000000 0.000000 0.000000 0.000000 0.000000 0.048952
#
#
# Mechanical properties :
#
#
# Convention : Reuss Voigt Hill
#
# Bulk Modulus (GPa) = -0.91026 49.18083 24.13529
# Shear Modulus (GPa) = -1.19066 17.12576 7.96755
#
# Velocity S-wave (km/s) = -0.79642 3.02046 2.06020
# Velocity P-wave (km/s) = 1.15353 6.19384 4.30308
#
# Compressibility (1/GPa) = -1.09859092
#
# Stress axis : x y z
#
# Youngs Moduli (GPa) = -1.95389 -31.68501 -0.42009
#
# Poissons Ratio (x) = 5.18341 0.46774
# Poissons Ratio (y) = 0.31964 -0.15308
# Poissons Ratio (z) = 2.17551 -11.54613
#
# Static dielectric constant tensor:
#      x y z
#    x 1.708300 0.000000 0.000000 
#    y 0.000000 1.637210 0.000000 
#    z 0.000000 0.000000 1.652370 
# 
# From -- ./inp_files/75331.got.cif
#   From: 2010.05.17/outbox.ucp.g08.bks.cvg/sg65_38_cif.got.tgz:75331.got - 2010.06.11 16:39:57.
