data_PCOD9494914
_publ_section_title
;
Structure prediction by ZEFSAII (Michael W. Deem and Ramdas Pophale) SiO2 
 PCOD9494914
Probable space group: C C C M
;
_chemical_formula_sum "Si O2"
_cell_formula_units_Z 88
_cell_length_a 7.451872
_cell_length_b 30.378593
_cell_length_c 15.167148
_cell_angle_alpha 90.000000
_cell_angle_beta 90.000000
_cell_angle_gamma 90.000000
_cell_volume 3433.499326
_symmetry_space_group_name_H-M "C C C M"
_symmetry_group_IT_number 66
_symmetry_cell_setting 'orthorhombic'
loop_
_space_group_symop_operation_xyz
x,y,z
-x,-y,z
x,-y,1/2-z
-x,y,1/2-z
-x,-y,-z
x,y,-z
-x,y,1/2+z
x,-y,1/2+z
1/2+x,1/2+y,z
1/2-x,1/2-y,z
1/2+x,1/2-y,1/2-z
1/2-x,1/2+y,1/2-z
1/2-x,1/2-y,-z
1/2+x,1/2+y,-z
1/2-x,1/2+y,1/2+z
1/2+x,1/2-y,1/2+z
loop_
_atom_site_type_symbol
_atom_site_label
_atom_site_fract_x
_atom_site_fract_y
_atom_site_fract_z
Si Si1 0.971788 0.322320 0.396991
Si Si2 0.045414 0.769159 0.895562
Si Si3 0.285750 0.995330 0.355473
Si Si4 0.885771 0.063121 0.000000
Si Si5 0.633382 0.638108 0.354902
Si Si6 0.315785 0.904152 0.304444
O O1 0.940869 0.318299 0.500000
O O2 0.941533 0.273536 0.358974
O O3 0.172562 0.341313 0.383633
O O4 0.855278 0.360415 0.357082
O O5 0.250000 0.750000 0.891477
O O6 0.021736 0.816544 0.851674
O O7 0.007233 0.775726 0.000000
O O8 0.256336 0.943361 0.368007
O O9 0.500000 0.000000 0.369943
O O10 0.246063 0.000000 0.250000
O O11 0.180946 0.027157 0.421545
O O12 0.918933 0.101662 0.074895
O O13 0.676471 0.610777 0.267912
O O14 0.500000 0.916941 0.250000
#
# Coordination Sequence:
#
# PCOD9494914 Si02
#       6
#    16  16  16   8  16  16
#     4   9  16  24  37  52  71  92 122 168 210 240
#     4   8  13  23  37  53  67  87 120 169 207 245
#     4  11  19  26  31  45  71 104 137 168 194 219
#     4  12  19  24  35  48  70 108 135 170 202 218
#     4  10  16  25  37  51  71  95 132 170 204 238
#     4  10  18  26  33  49  75 100 130 171 195 230
#
# _framework density 25.629829000000001
#
# number of rings (size 3 to 8) (size 9 to 14) (size 15 to 20)
#    0.000    2.182    5.455    2.455    1.273    0.000 
#    0.000    0.000    0.000    0.000    0.000    0.000 
#    2.727    6.182    0.000    0.000    0.000    0.000 
#
# Total GULP energy -245036.747349 kJ/mol
# GULP energy per Si atom -5569.016985 kJ/mol
# Density = 2.557149 g / cm^3
# Si number density = 25.629829 Si / 1000 Ang^3
#
#
#
# Elastic Constant Matrix: (Units=GPa)
#
#
# Indices 1 2 3 4 5 6 
#
# 1 65.1994 48.8025 10.7299 0.0000 0.0000 0.0000
# 2 48.8025 280.2949 62.5391 0.0000 0.0000 0.0000
# 3 10.7299 62.5391 63.3240 0.0000 0.0000 0.0000
# 4 0.0000 0.0000 0.0000 728.4874 0.0000 0.0000
# 5 0.0000 0.0000 0.0000 0.0000 -21.9979 0.0000
# 6 0.0000 0.0000 0.0000 0.0000 0.0000 17.0226
#
#
#
# Elastic Compliance Matrix: (Units=1/GPa)
#
#
# Indices 1 2 3 4 5 6 
#
# 1 0.017636 -0.003083 0.000057 0.000000 0.000000 0.000000
# 2 -0.003083 0.005115 -0.004529 0.000000 0.000000 0.000000
# 3 0.000057 -0.004529 0.020255 0.000000 0.000000 0.000000
# 4 0.000000 0.000000 0.000000 0.001373 0.000000 0.000000
# 5 0.000000 0.000000 0.000000 0.000000 -0.045459 0.000000
# 6 0.000000 0.000000 0.000000 0.000000 0.000000 0.058745
#
#
# Mechanical properties :
#
#
# Convention : Reuss Voigt Hill
#
# Bulk Modulus (GPa) = 35.84884 72.55125 54.20005
# Shear Modulus (GPa) = 60.91953 163.81887 112.36920
#
# Velocity S-wave (km/s) = 4.88063 8.00350 6.62860
# Velocity P-wave (km/s) = 6.76597 10.66662 8.93183
#
# Compressibility (1/GPa) = 0.02789490
#
# Stress axis : x y z
#
# Youngs Moduli (GPa) = 56.70185 195.50104 49.36989
#
# Poissons Ratio (x) = 0.60279 -0.00280
# Poissons Ratio (y) = 0.17483 0.22361
# Poissons Ratio (z) = -0.00322 0.88547
#
# Static dielectric constant tensor:
#      x y z
#    x 2.172890 0.000000 0.000000 
#    y 0.000000 2.041850 0.000000 
#    z 0.000000 0.000000 2.025690 
# 
# From -- ./inp_files/28799.got.cif
#   From: 2010.05.17/outbox.cif.g08.bks.cpg/sg66_15_cif.got.tgz:28799.got - 2010.06.03 17:51:23.
