data_PCOD9494472
_publ_section_title
;
Structure prediction by ZEFSAII (Michael W. Deem and Ramdas Pophale) SiO2 
 PCOD9494472
Probable space group: C M M M
;
_chemical_formula_sum "Si O2"
_cell_formula_units_Z 80
_cell_length_a 29.548225
_cell_length_b 9.188904
_cell_length_c 21.377830
_cell_angle_alpha 90.000000
_cell_angle_beta 90.000000
_cell_angle_gamma 90.000000
_cell_volume 5804.418677
_symmetry_space_group_name_H-M "C M M M"
_symmetry_group_IT_number 65
_symmetry_cell_setting 'orthorhombic'
loop_
_space_group_symop_operation_xyz
x,y,z
-x,-y,z
x,-y,-z
-x,y,-z
-x,-y,-z
x,y,-z
-x,y,z
x,-y,z
1/2+x,1/2+y,z
1/2-x,1/2-y,z
1/2+x,1/2-y,-z
1/2-x,1/2+y,-z
1/2-x,1/2-y,-z
1/2+x,1/2+y,-z
1/2-x,1/2+y,z
1/2+x,1/2-y,z
loop_
_atom_site_type_symbol
_atom_site_label
_atom_site_fract_x
_atom_site_fract_y
_atom_site_fract_z
Si Si1 0.055196 0.331993 0.500000
Si Si2 0.444968 0.332600 0.625577
Si Si3 0.053348 0.325100 0.246161
Si Si4 0.703155 0.174224 0.926074
Si Si5 0.552117 0.822368 0.000000
Si Si6 0.107189 0.322634 0.122844
O O1 0.069158 0.500000 0.500000
O O2 0.070047 0.250588 0.563042
O O3 0.000000 0.330031 0.500000
O O4 0.500000 0.331946 0.624201
O O5 0.430198 0.500000 0.625315
O O6 0.432406 0.251406 0.689508
O O7 0.057041 0.500000 0.253131
O O8 0.083255 0.277796 0.187040
O O9 0.000000 0.293507 0.234558
O O10 0.750000 0.250000 0.908171
O O11 0.659089 0.222407 0.887528
O O12 0.707759 0.000000 0.920004
O O13 0.694733 0.204209 0.000000
O O14 0.578111 0.775747 0.062567
O O15 0.500000 0.776105 0.000000
O O16 0.552468 0.000000 0.000000
O O17 0.106871 0.500000 0.122327
#
# Coordination Sequence:
#
# PCOD9494472 Si02
#       6
#     8  16  16  16   8  16
#     4   9  15  23  37  55  73  95 128 169 202 225
#     4   9  16  25  36  51  73 102 133 162 193 229
#     4   9  16  25  37  54  76 102 132 163 195 233
#     4   9  16  27  42  58  76  96 122 159 203 247
#     4   9  14  20  33  54  77  99 127 163 200 235
#     4   9  15  24  37  55  77 100 126 162 204 239
#
# _framework density 13.782603
#
# number of rings (size 3 to 8) (size 9 to 14) (size 15 to 20)
#    0.000    3.000    1.000    1.500    0.000    6.000 
#    0.000    1.000    0.000    0.000    0.000    0.000 
#    0.000    4.800    0.000    0.900    0.000   10.900 
#
# Total GULP energy -222697.369252 kJ/mol
# GULP energy per Si atom -5567.434231 kJ/mol
# Density = 1.375123 g / cm^3
# Si number density = 13.782603 Si / 1000 Ang^3
#
#
#
# Elastic Constant Matrix: (Units=GPa)
#
#
# Indices 1 2 3 4 5 6 
#
# 1 81.5236 29.0600 62.2035 0.0000 0.0000 0.0000
# 2 29.0600 38.6148 49.5926 0.0000 0.0000 0.0000
# 3 62.2035 49.5926 144.7661 0.0000 0.0000 0.0000
# 4 0.0000 0.0000 0.0000 7.8856 0.0000 0.0000
# 5 0.0000 0.0000 0.0000 0.0000 3.9247 0.0000
# 6 0.0000 0.0000 0.0000 0.0000 0.0000 12.3050
#
#
#
# Elastic Compliance Matrix: (Units=1/GPa)
#
#
# Indices 1 2 3 4 5 6 
#
# 1 0.019224 -0.006890 -0.005900 0.000000 0.000000 0.000000
# 2 -0.006890 0.048710 -0.013726 0.000000 0.000000 0.000000
# 3 -0.005900 -0.013726 0.014145 0.000000 0.000000 0.000000
# 4 0.000000 0.000000 0.000000 0.126813 0.000000 0.000000
# 5 0.000000 0.000000 0.000000 0.000000 0.254798 0.000000
# 6 0.000000 0.000000 0.000000 0.000000 0.000000 0.081268
#
#
# Mechanical properties :
#
#
# Convention : Reuss Voigt Hill
#
# Bulk Modulus (GPa) = 34.42685 60.73518 47.58102
# Shear Modulus (GPa) = 8.22811 13.09296 10.66053
#
# Velocity S-wave (km/s) = 2.44599 3.08549 2.78416
# Velocity P-wave (km/s) = 5.74542 7.54028 6.70320
#
# Compressibility (1/GPa) = 0.02904709
#
# Stress axis : x y z
#
# Youngs Moduli (GPa) = 52.01788 20.52946 70.69652
#
# Poissons Ratio (x) = 0.14145 0.41710
# Poissons Ratio (y) = 0.35841 0.97039
# Poissons Ratio (z) = 0.30690 0.28179
#
# Static dielectric constant tensor:
#      x y z
#    x 1.431050 0.000000 0.000000 
#    y 0.000000 1.462450 0.000000 
#    z 0.000000 0.000000 1.446560 
# 
# From -- ./inp_files/60050.got.cif
#   From: 2010.05.17/outbox.cif.g08.bks.cpg/sg65_31_cif.got.tgz:60050.got - 2010.06.03 17:01:31.
