data_PCOD9494051
_publ_section_title
;
Structure prediction by ZEFSAII (Michael W. Deem and Ramdas Pophale) SiO2 
 PCOD9494051
Probable space group: C M M M
;
_chemical_formula_sum "Si O2"
_cell_formula_units_Z 60
_cell_length_a 9.771181
_cell_length_b 18.828054
_cell_length_c 17.347578
_cell_angle_alpha 90.000000
_cell_angle_beta 90.000000
_cell_angle_gamma 90.000000
_cell_volume 3191.474232
_symmetry_space_group_name_H-M "C M M M"
_symmetry_group_IT_number 65
_symmetry_cell_setting 'orthorhombic'
loop_
_space_group_symop_operation_xyz
x,y,z
-x,-y,z
x,-y,-z
-x,y,-z
-x,-y,-z
x,y,-z
-x,y,z
x,-y,z
1/2+x,1/2+y,z
1/2-x,1/2-y,z
1/2+x,1/2-y,-z
1/2-x,1/2+y,-z
1/2-x,1/2-y,-z
1/2+x,1/2+y,-z
1/2-x,1/2+y,z
1/2+x,1/2-y,z
loop_
_atom_site_type_symbol
_atom_site_label
_atom_site_fract_x
_atom_site_fract_y
_atom_site_fract_z
Si Si1 0.654737 0.085213 0.089988
Si Si2 0.775188 0.833665 0.629241
Si Si3 0.500000 0.366572 0.500000
Si Si4 0.500000 0.916797 0.593090
Si Si5 0.341300 0.320046 0.806825
O O1 0.500000 0.106797 0.114001
O O2 0.769647 0.119869 0.142339
O O3 0.660904 0.000000 0.094539
O O4 0.671743 0.104949 0.000000
O O5 0.750000 0.750000 0.611763
O O6 0.880940 0.863401 0.567354
O O7 0.633569 0.876207 0.623075
O O8 0.830186 0.837910 0.716162
O O9 0.500000 0.912399 0.500000
O O10 0.500000 0.000000 0.614676
O O11 0.500000 0.309061 0.826785
O O12 0.250000 0.250000 0.819140
#
# Coordination Sequence:
#
# PCOD9494051 Si02
#       5
#    16  16   4   8  16
#     4   9  20  41  68  95 124 164 212 258 313 385
#     4  11  24  39  65  93 123 167 221 271 318 386
#     4  12  20  40  63  90 119 162 218 274 314 360
#     4  11  25  43  60  89 127 165 211 264 330 395
#     4  11  24  40  60  93 131 165 209 265 321 377
#
# _framework density 18.800089
#
# number of rings (size 3 to 8) (size 9 to 14) (size 15 to 20)
#    0.000    1.467    2.667    2.800    9.333    2.667 
#    0.000    2.667    0.000    0.000    0.000    0.000 
#    0.000    0.000    0.000    0.000    0.000    0.000 
#
# Total GULP energy -167082.207249 kJ/mol
# GULP energy per Si atom -5569.406908 kJ/mol
# Density = 1.875730 g / cm^3
# Si number density = 18.800089 Si / 1000 Ang^3
#
#
#
# Elastic Constant Matrix: (Units=GPa)
#
#
# Indices 1 2 3 4 5 6 
#
# 1 201.2427 56.8452 50.7478 0.0000 0.0000 0.0000
# 2 56.8452 70.4655 22.2296 0.0000 0.0000 0.0000
# 3 50.7478 22.2296 49.3410 0.0000 0.0000 0.0000
# 4 0.0000 0.0000 0.0000 -0.0222 0.0000 0.0000
# 5 0.0000 0.0000 0.0000 0.0000 29.3677 0.0000
# 6 0.0000 0.0000 0.0000 0.0000 0.0000 31.9248
#
#
#
# Elastic Compliance Matrix: (Units=1/GPa)
#
#
# Indices 1 2 3 4 5 6 
#
# 1 0.007696 -0.004326 -0.005966 0.000000 0.000000 0.000000
# 2 -0.004326 0.018974 -0.004099 0.000000 0.000000 0.000000
# 3 -0.005966 -0.004099 0.028250 0.000000 0.000000 0.000000
# 4 0.000000 0.000000 0.000000-45.020298 0.000000 0.000000
# 5 0.000000 0.000000 0.000000 0.000000 0.034051 0.000000
# 6 0.000000 0.000000 0.000000 0.000000 0.000000 0.031324
#
#
# Mechanical properties :
#
#
# Convention : Reuss Voigt Hill
#
# Bulk Modulus (GPa) = 38.25908 64.52160 51.39034
# Shear Modulus (GPa) = -0.11145 25.00250 12.44552
#
# Velocity S-wave (km/s) = -0.24374 3.65075 2.57571
# Velocity P-wave (km/s) = 4.50727 7.22254 6.01999
#
# Compressibility (1/GPa) = 0.02613759
#
# Stress axis : x y z
#
# Youngs Moduli (GPa) = 129.94538 52.70279 35.39827
#
# Poissons Ratio (x) = 0.22799 0.21118
# Poissons Ratio (y) = 0.56214 0.14510
# Poissons Ratio (z) = 0.77525 0.21604
#
# Static dielectric constant tensor:
#      x y z
#    x 1.582380 0.000000 0.000000 
#    y 0.000000 1.649110 0.000000 
#    z 0.000000 0.000000 1.633300 
# 
# From -- ./inp_files/49117.got.cif
#   From: 2010.05.17/outbox.cif.g08.bks.cpg/sg65_25_cif.got.tgz:49117.got - 2010.06.03 17:01:31.
