data_PCOD9494946
_publ_section_title
;
Structure prediction by ZEFSAII (Michael W. Deem and Ramdas Pophale) SiO2 
 PCOD9494946
Probable space group: C C C M
;
_chemical_formula_sum "Si O2"
_cell_formula_units_Z 104
_cell_length_a 9.145606
_cell_length_b 22.848103
_cell_length_c 25.027821
_cell_angle_alpha 90.000000
_cell_angle_beta 90.000000
_cell_angle_gamma 90.000000
_cell_volume 5229.807166
_symmetry_space_group_name_H-M "C C C M"
_symmetry_group_IT_number 66
_symmetry_cell_setting 'orthorhombic'
loop_
_space_group_symop_operation_xyz
x,y,z
-x,-y,z
x,-y,1/2-z
-x,y,1/2-z
-x,-y,-z
x,y,-z
-x,y,1/2+z
x,-y,1/2+z
1/2+x,1/2+y,z
1/2-x,1/2-y,z
1/2+x,1/2-y,1/2-z
1/2-x,1/2+y,1/2-z
1/2-x,1/2-y,-z
1/2+x,1/2+y,-z
1/2-x,1/2+y,1/2+z
1/2+x,1/2-y,1/2+z
loop_
_atom_site_type_symbol
_atom_site_label
_atom_site_fract_x
_atom_site_fract_y
_atom_site_fract_z
Si Si1 0.328663 0.480932 0.000000
Si Si2 0.673179 0.992402 0.311911
Si Si3 0.334743 0.101974 0.500000
Si Si4 0.468322 0.321138 0.389183
Si Si5 0.382352 0.554164 0.387098
Si Si6 0.849265 0.625626 0.620182
Si Si7 0.111268 0.205736 0.500000
Si Si8 0.079351 0.272055 0.306024
O O1 0.500000 0.500000 0.000000
O O2 0.222901 0.536140 0.000000
O O3 0.309478 0.447433 0.945278
O O4 0.760546 0.041579 0.343612
O O5 0.500000 0.000000 0.313079
O O6 0.719580 0.000000 0.250000
O O7 0.694828 0.932375 0.346103
O O8 0.405187 0.113067 0.559176
O O9 0.187325 0.141681 0.500000
O O10 0.544766 0.383117 0.382226
O O11 0.296406 0.336337 0.388649
O O12 0.485100 0.290378 0.446718
O O13 0.498223 0.277920 0.341017
O O14 0.500000 0.500000 0.383748
O O15 0.936719 0.668085 0.659792
O O16 0.250000 0.250000 0.500000
O O17 0.250000 0.250000 0.299453
O O18 0.000000 0.278916 0.250000
#
# Coordination Sequence:
#
# PCOD9494946 Si02
#       8
#     8  16   8  16  16  16   8  16
#     4  10  16  28  54  85 118 150 185 237 312 360
#     4  11  25  40  56  84 116 163 209 251 310 377
#     4  10  16  30  58  83 116 149 198 245 297 363
#     4  10  19  34  58  92 122 149 205 249 311 367
#     4  11  19  36  58  87 121 156 192 256 311 369
#     4  10  19  39  58  87 119 155 201 252 304 367
#     4  10  16  28  54  92 127 159 191 254 310 364
#     4  10  23  39  61  86 118 159 205 253 302 367
#
# _framework density 19.886012000000001
#
# number of rings (size 3 to 8) (size 9 to 14) (size 15 to 20)
#    0.000    1.692    3.077    5.538    2.154    2.769 
#    0.000    1.538    0.000    0.000    0.000    1.077 
#    0.000    0.000    0.000    0.000    0.000    0.000 
#
# Total GULP energy -289739.443097 kJ/mol
# GULP energy per Si atom -5571.912367 kJ/mol
# Density = 1.984075 g / cm^3
# Si number density = 19.886012 Si / 1000 Ang^3
#
#
#
# Elastic Constant Matrix: (Units=GPa)
#
#
# Indices 1 2 3 4 5 6 
#
# 1 28.9215 13.9025 44.1492 0.0000 0.0000 0.0000
# 2 13.9025 97.9209 65.1760 0.0000 0.0000 0.0000
# 3 44.1492 65.1760 228.9863 0.0000 0.0000 0.0000
# 4 0.0000 0.0000 0.0000 25.8799 0.0000 0.0000
# 5 0.0000 0.0000 0.0000 0.0000 9.4875 0.0000
# 6 0.0000 0.0000 0.0000 0.0000 0.0000 24.7735
#
#
#
# Elastic Compliance Matrix: (Units=1/GPa)
#
#
# Indices 1 2 3 4 5 6 
#
# 1 0.049051 -0.000826 -0.009222 0.000000 0.000000 0.000000
# 2 -0.000826 0.012613 -0.003431 0.000000 0.000000 0.000000
# 3 -0.009222 -0.003431 0.007122 0.000000 0.000000 0.000000
# 4 0.000000 0.000000 0.000000 0.038640 0.000000 0.000000
# 5 0.000000 0.000000 0.000000 0.000000 0.105402 0.000000
# 6 0.000000 0.000000 0.000000 0.000000 0.000000 0.040366
#
#
# Mechanical properties :
#
#
# Convention : Reuss Voigt Hill
#
# Bulk Modulus (GPa) = 23.90736 66.92045 45.41391
# Shear Modulus (GPa) = 17.00139 27.53492 22.26815
#
# Velocity S-wave (km/s) = 2.92711 3.72511 3.34996
# Velocity P-wave (km/s) = 4.84482 7.22682 6.15221
#
# Compressibility (1/GPa) = 0.04182813
#
# Stress axis : x y z
#
# Youngs Moduli (GPa) = 20.38697 79.28240 140.41739
#
# Poissons Ratio (x) = 0.06548 1.29494
# Poissons Ratio (y) = 0.01684 0.48175
# Poissons Ratio (z) = 0.18801 0.27200
#
# Static dielectric constant tensor:
#      x y z
#    x 1.697880 0.000000 0.000000 
#    y 0.000000 1.726580 0.000000 
#    z 0.000000 0.000000 1.758460 
# 
# From -- ./inp_files/62712.got.cif
#   From: 2010.05.17/outbox.cif.g08.bks.cpg/sg66_32_cif.got.tgz:62712.got - 2010.06.03 17:51:23.
