data_PCOD9494551
_publ_section_title
;
Structure prediction by ZEFSAII (Michael W. Deem and Ramdas Pophale) SiO2 
 PCOD9494551
Probable space group: C M M M
;
_chemical_formula_sum "Si O2"
_cell_formula_units_Z 64
_cell_length_a 15.133690
_cell_length_b 7.523396
_cell_length_c 25.911235
_cell_angle_alpha 90.000000
_cell_angle_beta 90.000000
_cell_angle_gamma 90.000000
_cell_volume 2950.168819
_symmetry_space_group_name_H-M "C M M M"
_symmetry_group_IT_number 65
_symmetry_cell_setting 'orthorhombic'
loop_
_space_group_symop_operation_xyz
x,y,z
-x,-y,z
x,-y,-z
-x,y,-z
-x,-y,-z
x,y,-z
-x,y,z
x,-y,z
1/2+x,1/2+y,z
1/2-x,1/2-y,z
1/2+x,1/2-y,-z
1/2-x,1/2+y,-z
1/2-x,1/2-y,-z
1/2+x,1/2+y,-z
1/2-x,1/2+y,z
1/2+x,1/2-y,z
loop_
_atom_site_type_symbol
_atom_site_label
_atom_site_fract_x
_atom_site_fract_y
_atom_site_fract_z
Si Si1 0.895529 0.300444 0.635648
Si Si2 0.354019 0.213232 0.861366
Si Si3 0.000000 0.717783 0.940968
Si Si4 0.391232 0.500000 0.559310
Si Si5 0.145939 0.288004 0.251093
O O1 0.856765 0.500000 0.634461
O O2 0.860666 0.170799 0.591791
O O3 0.886343 0.222593 0.693496
O O4 0.000000 0.316166 0.626639
O O5 0.250000 0.250000 0.868064
O O6 0.414612 0.276001 0.908160
O O7 0.385149 0.280259 0.804784
O O8 0.363170 0.000000 0.859440
O O9 0.000000 0.500000 0.942036
O O10 0.000000 0.777718 0.000000
O O11 0.500000 0.500000 0.559676
O O12 0.363369 0.500000 0.500000
O O13 0.127985 0.500000 0.251753
O O14 0.250000 0.250000 0.250505
#
# Coordination Sequence:
#
# PCOD9494551 Si02
#       5
#    16  16   8   8  16
#     4   9  18  31  49  75 101 130 173 216 263 321
#     4   9  18  33  52  75 107 139 180 228 276 330
#     4   9  18  32  53  79 105 145 189 222 266 329
#     4   9  18  32  50  74 104 136 171 215 264 313
#     4   9  18  30  48  73  98 131 163 208 269 318
#
# _framework density 21.693674000000001
#
# number of rings (size 3 to 8) (size 9 to 14) (size 15 to 20)
#    0.000    3.000    0.000    0.000    3.500    1.000 
#    0.000    3.125    0.000    1.500    0.000    0.000 
#    0.000    0.000    0.000    0.000    0.000    0.000 
#
# Total GULP energy -178447.731823 kJ/mol
# GULP energy per Si atom -5576.491619 kJ/mol
# Density = 2.164430 g / cm^3
# Si number density = 21.693674 Si / 1000 Ang^3
#
#
#
# Elastic Constant Matrix: (Units=GPa)
#
#
# Indices 1 2 3 4 5 6 
#
# 1 54.2383 9.7060 53.8959 0.0000 0.0000 0.0000
# 2 9.7060 72.9814 65.4312 0.0000 0.0000 0.0000
# 3 53.8959 65.4312 261.0032 0.0000 0.0000 0.0000
# 4 0.0000 0.0000 0.0000 2397.6269 0.0000 0.0000
# 5 0.0000 0.0000 0.0000 0.0000 61.3342 0.0000
# 6 0.0000 0.0000 0.0000 0.0000 0.0000 12.5801
#
#
#
# Elastic Compliance Matrix: (Units=1/GPa)
#
#
# Indices 1 2 3 4 5 6 
#
# 1 0.023336 0.001569 -0.005212 0.000000 0.000000 0.000000
# 2 0.001569 0.017780 -0.004781 0.000000 0.000000 0.000000
# 3 -0.005212 -0.004781 0.006106 0.000000 0.000000 0.000000
# 4 0.000000 0.000000 0.000000 0.000417 0.000000 0.000000
# 5 0.000000 0.000000 0.000000 0.000000 0.016304 0.000000
# 6 0.000000 0.000000 0.000000 0.000000 0.000000 0.079490
#
#
# Mechanical properties :
#
#
# Convention : Reuss Voigt Hill
#
# Bulk Modulus (GPa) = 32.92311 71.80991 52.36651
# Shear Modulus (GPa) = 29.34164 511.58758 270.46461
#
# Velocity S-wave (km/s) = 3.68168 15.37320 11.17788
# Velocity P-wave (km/s) = 5.76909 18.66246 13.81249
#
# Compressibility (1/GPa) = 0.03037380
#
# Stress axis : x y z
#
# Youngs Moduli (GPa) = 42.85315 56.24250 163.76514
#
# Poissons Ratio (x) = -0.08827 0.85356
# Poissons Ratio (y) = -0.06726 0.78303
# Poissons Ratio (z) = 0.22336 0.26892
#
# Static dielectric constant tensor:
#      x y z
#    x 1.775430 0.000000 0.000000 
#    y 0.000000 1.857370 0.000000 
#    z 0.000000 0.000000 1.784880 
# 
# From -- ./inp_files/69553.got.cif
#   From: 2010.05.17/outbox.cif.g08.bks.cpg/sg65_35_cif.got.tgz:69553.got - 2010.06.03 17:01:31.
