data_PCOD9494977
_publ_section_title
;
Structure prediction by ZEFSAII (Michael W. Deem and Ramdas Pophale) SiO2 
 PCOD9494977
Probable space group: C C C M
;
_chemical_formula_sum "Si O2"
_cell_formula_units_Z 44
_cell_length_a 27.454133
_cell_length_b 8.714250
_cell_length_c 9.842107
_cell_angle_alpha 90.000000
_cell_angle_beta 90.000000
_cell_angle_gamma 90.000000
_cell_volume 2354.647120
_symmetry_space_group_name_H-M "C C C M"
_symmetry_group_IT_number 66
_symmetry_cell_setting 'orthorhombic'
loop_
_space_group_symop_operation_xyz
x,y,z
-x,-y,z
x,-y,1/2-z
-x,y,1/2-z
-x,-y,-z
x,y,-z
-x,y,1/2+z
x,-y,1/2+z
1/2+x,1/2+y,z
1/2-x,1/2-y,z
1/2+x,1/2-y,1/2-z
1/2-x,1/2+y,1/2-z
1/2-x,1/2-y,-z
1/2+x,1/2+y,-z
1/2-x,1/2+y,1/2+z
1/2+x,1/2-y,1/2+z
loop_
_atom_site_type_symbol
_atom_site_label
_atom_site_fract_x
_atom_site_fract_y
_atom_site_fract_z
Si Si1 0.000000 0.500000 0.750000
Si Si2 0.330306 0.161500 0.500000
Si Si3 0.563584 0.076926 0.000000
Si Si4 0.140389 0.323835 0.000000
Si Si5 0.700291 0.319501 0.274576
O O1 0.966444 0.408974 0.859665
O O2 0.388919 0.183590 0.500000
O O3 0.307698 0.234044 0.367344
O O4 0.325933 0.977404 0.500000
O O5 0.587276 0.903422 0.000000
O O6 0.155065 0.225262 0.129936
O O7 0.704280 0.500000 0.250000
O O8 0.750000 0.250000 0.334795
#
# Coordination Sequence:
#
# PCOD9494977 Si02
#       5
#     4   8   8   8  16
#     4  10  16  34  56 102 102 142 176 246 302 350
#     4  10  21  38  55  81 116 149 186 243 285 324
#     4   9  20  32  62  82 124 132 190 240 296 335
#     4  10  21  38  55  81 116 149 186 243 285 324
#     4  12  23  36  55  81 114 160 200 236 274 331
#
# _framework density 18.686450000000001
#
# number of rings (size 3 to 8) (size 9 to 14) (size 15 to 20)
#    1.091    0.364    0.000    7.636    0.000    0.000 
#    0.000    0.000    0.000    0.000    0.000   89.091 
#    0.000    0.000    0.000    0.000    0.000    0.000 
#
# Total GULP energy -122595.657892 kJ/mol
# GULP energy per Si atom -5572.529904 kJ/mol
# Density = 1.864392 g / cm^3
# Si number density = 18.686450 Si / 1000 Ang^3
#
#
#
# Elastic Constant Matrix: (Units=GPa)
#
#
# Indices 1 2 3 4 5 6 
#
# 1 82.6293 7.5143 25.2579 0.0000 0.0000 0.0000
# 2 7.5143 107.9385 11.0022 0.0000 0.0000 0.0000
# 3 25.2579 11.0022 121.9566 0.0000 0.0000 0.0000
# 4 0.0000 0.0000 0.0000 19.7448 0.0000 0.0000
# 5 0.0000 0.0000 0.0000 0.0000 45.8433 0.0000
# 6 0.0000 0.0000 0.0000 0.0000 0.0000 15.9615
#
#
#
# Elastic Compliance Matrix: (Units=1/GPa)
#
#
# Indices 1 2 3 4 5 6 
#
# 1 0.012963 -0.000635 -0.002627 0.000000 0.000000 0.000000
# 2 -0.000635 0.009382 -0.000715 0.000000 0.000000 0.000000
# 3 -0.002627 -0.000715 0.008808 0.000000 0.000000 0.000000
# 4 0.000000 0.000000 0.000000 0.050646 0.000000 0.000000
# 5 0.000000 0.000000 0.000000 0.000000 0.021813 0.000000
# 6 0.000000 0.000000 0.000000 0.000000 0.000000 0.062651
#
#
# Mechanical properties :
#
#
# Convention : Reuss Voigt Hill
#
# Bulk Modulus (GPa) = 43.10539 44.45258 43.77899
# Shear Modulus (GPa) = 27.47997 34.22656 30.85327
#
# Velocity S-wave (km/s) = 3.83898 4.28439 4.06779
# Velocity P-wave (km/s) = 6.53974 6.95090 6.74845
#
# Compressibility (1/GPa) = 0.02319895
#
# Stress axis : x y z
#
# Youngs Moduli (GPa) = 77.14188 106.59174 113.52922
#
# Poissons Ratio (x) = 0.06765 0.29830
# Poissons Ratio (y) = 0.04896 0.08116
# Poissons Ratio (z) = 0.20269 0.07620
#
# Static dielectric constant tensor:
#      x y z
#    x 1.680700 0.000000 0.000000 
#    y 0.000000 1.609310 0.000000 
#    z 0.000000 0.000000 1.625870 
# 
# From -- ./inp_files/2721.got.cif
#   From: 2010.05.17/outbox.cif.g08.bks.cpg/sg66_2_cif.got.tgz:2721.got - 2010.06.03 17:51:23.
