data_PCOD9494628
_publ_section_title
;
Structure prediction by ZEFSAII (Michael W. Deem and Ramdas Pophale) SiO2 
 PCOD9494628
Probable space group: C M M M
;
_chemical_formula_sum "Si O2"
_cell_formula_units_Z 36
_cell_length_a 18.000000
_cell_length_b 9.000000
_cell_length_c 24.000000
_cell_angle_alpha 90.000000
_cell_angle_beta 90.000000
_cell_angle_gamma 90.000000
_cell_volume 3888.000000
_symmetry_space_group_name_H-M "C M M M"
_symmetry_group_IT_number 65
_symmetry_cell_setting 'orthorhombic'
loop_
_space_group_symop_operation_xyz
x,y,z
-x,-y,z
x,-y,-z
-x,y,-z
-x,-y,-z
x,y,-z
-x,y,z
x,-y,z
1/2+x,1/2+y,z
1/2-x,1/2-y,z
1/2+x,1/2-y,-z
1/2-x,1/2+y,-z
1/2-x,1/2-y,-z
1/2+x,1/2+y,-z
1/2-x,1/2+y,z
1/2+x,1/2-y,z
loop_
_atom_site_type_symbol
_atom_site_label
_atom_site_fract_x
_atom_site_fract_y
_atom_site_fract_z
Si Si1 0.668520 0.822296 0.760652
Si Si2 0.828456 0.675099 0.434304
Si Si3 0.832057 0.678746 0.881270
Si Si4 0.332622 0.820522 0.000000
Si Si5 0.912286 0.168236 0.659600
O O1 0.750000 0.750000 0.758115
O O2 0.634227 0.782127 0.821389
O O3 0.622018 0.759095 0.710193
O O4 0.674680 0.000000 0.756764
O O5 0.840775 0.697092 0.500000
O O6 0.825248 0.500000 0.423050
O O7 0.750000 0.750000 0.419496
O O8 0.890071 0.753006 0.397507
O O9 0.824461 0.500000 0.881356
O O10 0.750000 0.750000 0.881315
O O11 0.868117 0.722007 0.940518
O O12 0.250000 0.750000 0.000000
O O13 0.325942 0.000000 0.000000
O O14 0.000000 0.164027 0.665327
O O15 0.882621 0.000000 0.660084
#
# Coordination Sequence:
#
# PCOD9494628 Si02
#       5
#    16  16  16   8  16
#     4  10  19  32  51  74 101 133 170 210 252 300
#     4  10  21  38  61  86 110 136 166 201 242 291
#     4   8  14  23  38  62  91 124 158 196 243 293
#     4   8  12  20  34  56  89 122 153 191 239 293
#     4  11  24  39  54  74 102 136 172 211 255 298
#
# _framework density 9.2592590000000001
#
# number of rings (size 3 to 8) (size 9 to 14) (size 15 to 20)
#    0.000    2.444    0.000    2.667    0.000    4.444 
#    0.000    2.222    0.000    0.000    0.000    0.778 
#    0.000    6.222    0.000    0.000    0.000    0.444 
#
# Total GULP energy -200481.774898 kJ/mol
# GULP energy per Si atom -5568.938192 kJ/mol
# Density = 0.923818 g / cm^3
# Si number density = 9.259259 Si / 1000 Ang^3
#
#
#
# Elastic Constant Matrix: (Units=GPa)
#
#
# Indices 1 2 3 4 5 6 
#
# 1 29.4495 24.8288 38.4616 0.0000 0.0000 0.0000
# 2 24.8288 62.8680 59.1420 0.0000 0.0000 0.0000
# 3 38.4616 59.1420 42.1326 0.0000 0.0000 0.0000
# 4 0.0000 0.0000 0.0000 22.5597 0.0000 0.0000
# 5 0.0000 0.0000 0.0000 0.0000 -43.9920 0.0000
# 6 0.0000 0.0000 0.0000 0.0000 0.0000 16.7509
#
#
#
# Elastic Compliance Matrix: (Units=1/GPa)
#
#
# Indices 1 2 3 4 5 6 
#
# 1 0.027369 -0.039607 0.030612 0.000000 0.000000 0.000000
# 2 -0.039607 0.007689 0.025363 0.000000 0.000000 0.000000
# 3 0.030612 0.025363 -0.039812 0.000000 0.000000 0.000000
# 4 0.000000 0.000000 0.000000 0.044327 0.000000 0.000000
# 5 0.000000 0.000000 0.000000 0.000000 -0.022731 0.000000
# 6 0.000000 0.000000 0.000000 0.000000 0.000000 0.059698
#
#
# Mechanical properties :
#
#
# Convention : Reuss Voigt Hill
#
# Bulk Modulus (GPa) = 35.73739 42.14609 38.94174
# Shear Modulus (GPa) = 94.10726 -0.13510 46.98608
#
# Velocity S-wave (km/s) = 7.13640 -0.27039 5.04258
# Velocity P-wave (km/s) = 9.34047 4.76559 7.41469
#
# Compressibility (1/GPa) = 0.02798189
#
# Stress axis : x y z
#
# Youngs Moduli (GPa) = 36.53768 130.05826 -25.11808
#
# Poissons Ratio (x) = 5.15117 0.76891
# Poissons Ratio (y) = 1.44713 0.63706
# Poissons Ratio (z) = -1.11849 -3.29863
#
# Static dielectric constant tensor:
#      x y z
#    x 1.593900 0.000000 0.000000 
#    y 0.000000 1.635020 0.000000 
#    z 0.000000 0.000000 1.708970 
# 
# From -- ./inp_files/67206.got.cif
#   From: 2010.05.17/outbox.ucp.g08.bks.cvg/sg65_34_cif.got.tgz:67206.got - 2010.06.11 16:39:57.
