data_PCOD9494353
_publ_section_title
;
Structure prediction by ZEFSAII (Michael W. Deem and Ramdas Pophale) SiO2 
 PCOD9494353
Probable space group: C M M M
;
_chemical_formula_sum "Si O2"
_cell_formula_units_Z 80
_cell_length_a 7.480594
_cell_length_b 29.824775
_cell_length_c 23.578237
_cell_angle_alpha 90.000000
_cell_angle_beta 90.000000
_cell_angle_gamma 90.000000
_cell_volume 5260.470498
_symmetry_space_group_name_H-M "C M M M"
_symmetry_group_IT_number 65
_symmetry_cell_setting 'orthorhombic'
loop_
_space_group_symop_operation_xyz
x,y,z
-x,-y,z
x,-y,-z
-x,y,-z
-x,-y,-z
x,y,-z
-x,y,z
x,-y,z
1/2+x,1/2+y,z
1/2-x,1/2-y,z
1/2+x,1/2-y,-z
1/2-x,1/2+y,-z
1/2-x,1/2-y,-z
1/2+x,1/2+y,-z
1/2-x,1/2+y,z
1/2+x,1/2-y,z
loop_
_atom_site_type_symbol
_atom_site_label
_atom_site_fract_x
_atom_site_fract_y
_atom_site_fract_z
Si Si1 0.000000 0.554692 0.564947
Si Si2 0.295802 0.445459 0.346606
Si Si3 0.213724 0.199968 0.064954
Si Si4 0.781652 0.051712 0.779479
Si Si5 0.281420 0.606727 0.111500
Si Si6 0.281977 0.551564 0.000000
O O1 0.829010 0.568789 0.601890
O O2 0.000000 0.500000 0.563765
O O3 0.000000 0.569970 0.500000
O O4 0.500000 0.430453 0.353624
O O5 0.297200 0.500000 0.346057
O O6 0.228048 0.433167 0.283679
O O7 0.250000 0.250000 0.086588
O O8 0.277910 0.157819 0.101337
O O9 0.000000 0.195399 0.061477
O O10 0.282979 0.197068 0.000000
O O11 0.722258 0.083241 0.830611
O O12 0.000000 0.051310 0.778814
O O13 0.726030 0.000000 0.788766
O O14 0.500000 0.606227 0.112574
O O15 0.227026 0.577752 0.056624
O O16 0.223719 0.500000 0.000000
O O17 0.500000 0.551486 0.000000
#
# Coordination Sequence:
#
# PCOD9494353 Si02
#       6
#     8  16  16  16  16   8
#     4   9  16  24  36  54  74  99 133 169 199 224
#     4   8  14  24  36  51  73 100 130 163 195 230
#     4   9  16  26  39  53  70  92 119 155 195 234
#     4   8  13  21  34  51  71  97 126 157 193 234
#     4   9  14  21  33  51  72  94 123 157 195 239
#     4   9  14  18  27  48  77  97 113 153 204 237
#
# _framework density 15.207765
#
# number of rings (size 3 to 8) (size 9 to 14) (size 15 to 20)
#    0.000    3.400    1.000    1.800    0.000    2.800 
#    0.000    2.000    2.200    0.000    0.000    0.000 
#    0.000    0.800    0.000    0.000    0.000    1.000 
#
# Total GULP energy -222824.216345 kJ/mol
# GULP energy per Si atom -5570.605409 kJ/mol
# Density = 1.517315 g / cm^3
# Si number density = 15.207765 Si / 1000 Ang^3
#
#
#
# Elastic Constant Matrix: (Units=GPa)
#
#
# Indices 1 2 3 4 5 6 
#
# 1 52.4963 13.3800 35.7836 0.0000 0.0000 0.0000
# 2 13.3800 89.8963 61.5688 0.0000 0.0000 0.0000
# 3 35.7836 61.5688 152.6535 0.0000 0.0000 0.0000
# 4 0.0000 0.0000 0.0000 2.4152 0.0000 0.0000
# 5 0.0000 0.0000 0.0000 0.0000 -275.4108 0.0000
# 6 0.0000 0.0000 0.0000 0.0000 0.0000 7.2427
#
#
#
# Elastic Compliance Matrix: (Units=1/GPa)
#
#
# Indices 1 2 3 4 5 6 
#
# 1 0.022680 0.000367 -0.005464 0.000000 0.000000 0.000000
# 2 0.000367 0.015375 -0.006287 0.000000 0.000000 0.000000
# 3 -0.005464 -0.006287 0.010368 0.000000 0.000000 0.000000
# 4 0.000000 0.000000 0.000000 0.414045 0.000000 0.000000
# 5 0.000000 0.000000 0.000000 0.000000 -0.003631 0.000000
# 6 0.000000 0.000000 0.000000 0.000000 0.000000 0.138071
#
#
# Mechanical properties :
#
#
# Convention : Reuss Voigt Hill
#
# Bulk Modulus (GPa) = 38.98112 57.39009 48.18561
# Shear Modulus (GPa) = 7.95889 -40.86301 -16.45206
#
# Velocity S-wave (km/s) = 2.29015 -5.18924 -3.29267
# Velocity P-wave (km/s) = 5.71674 1.38386 4.15910
#
# Compressibility (1/GPa) = 0.02565344
#
# Stress axis : x y z
#
# Youngs Moduli (GPa) = 44.09119 65.03906 96.45517
#
# Poissons Ratio (x) = -0.02386 0.52708
# Poissons Ratio (y) = -0.01618 0.60644
# Poissons Ratio (z) = 0.24093 0.40892
#
# Static dielectric constant tensor:
#      x y z
#    x 1.591230 0.000000 0.000000 
#    y 0.000000 1.483760 0.000000 
#    z 0.000000 0.000000 1.498200 
# 
# From -- ./inp_files/60572.got.cif
#   From: 2010.05.17/outbox.cif.g08.bks.cpg/sg65_31_cif.got.tgz:60572.got - 2010.06.03 17:01:31.
