data_PCOD9494516
_publ_section_title
;
Structure prediction by ZEFSAII (Michael W. Deem and Ramdas Pophale) SiO2 
 PCOD9494516
Probable space group: C M M M
;
_chemical_formula_sum "Si O2"
_cell_formula_units_Z 120
_cell_length_a 28.820467
_cell_length_b 27.780126
_cell_length_c 7.489690
_cell_angle_alpha 90.000000
_cell_angle_beta 90.000000
_cell_angle_gamma 90.000000
_cell_volume 5996.516976
_symmetry_space_group_name_H-M "C M M M"
_symmetry_group_IT_number 65
_symmetry_cell_setting 'orthorhombic'
loop_
_space_group_symop_operation_xyz
x,y,z
-x,-y,z
x,-y,-z
-x,y,-z
-x,-y,-z
x,y,-z
-x,y,z
x,-y,z
1/2+x,1/2+y,z
1/2-x,1/2-y,z
1/2+x,1/2-y,-z
1/2-x,1/2+y,-z
1/2-x,1/2-y,-z
1/2+x,1/2+y,-z
1/2-x,1/2+y,z
1/2+x,1/2-y,z
loop_
_atom_site_type_symbol
_atom_site_label
_atom_site_fract_x
_atom_site_fract_y
_atom_site_fract_z
Si Si1 0.784072 0.098884 0.290748
Si Si2 0.236862 0.696723 0.216361
Si Si3 0.052160 0.705924 0.211725
Si Si4 0.359214 0.151341 0.787952
Si Si5 0.188180 0.446101 0.284609
Si Si6 0.946991 0.183710 0.715179
Si Si7 0.112089 0.092818 0.718998
Si Si8 0.946757 0.000000 0.717896
O O1 0.785762 0.086306 0.500000
O O2 0.772722 0.155448 0.273338
O O3 0.738852 0.071423 0.216761
O O4 0.834954 0.088123 0.217687
O O5 0.250000 0.750000 0.276759
O O6 0.186170 0.679639 0.281169
O O7 0.236439 0.696734 0.000000
O O8 0.092598 0.671841 0.285121
O O9 0.065756 0.761890 0.234167
O O10 0.000000 0.699980 0.286362
O O11 0.048881 0.696809 0.000000
O O12 0.348665 0.095108 0.761830
O O13 0.359959 0.160160 0.000000
O O14 0.190483 0.446868 0.500000
O O15 0.177717 0.500000 0.222666
O O16 0.947734 0.181675 0.500000
O O17 0.911971 0.142534 0.777178
O O18 0.000000 0.174802 0.777052
O O19 0.113013 0.093499 0.500000
O O20 0.080744 0.047708 0.772929
O O21 0.947390 0.000000 0.500000
O O22 0.000000 0.000000 0.777320
#
# Coordination Sequence:
#
# PCOD9494516 Si02
#       8
#    16  16  16  16  16  16  16   8
#     4   9  18  30  44  67  94 121 153 190 233 273
#     4   9  18  31  46  65  92 124 154 186 224 271
#     4   9  18  32  50  72  96 122 154 190 227 272
#     4   9  18  32  49  70  94 122 155 189 229 276
#     4   9  18  32  50  70  94 122 153 192 233 278
#     4   9  17  29  44  65  94 124 155 193 234 274
#     4   9  17  27  42  65  92 122 157 198 239 279
#     4   9  16  26  42  64  91 125 161 199 244 285
#
# _framework density 20.011617999999999
#
# number of rings (size 3 to 8) (size 9 to 14) (size 15 to 20)
#    0.000    3.000    0.000    0.400    2.800    2.667 
#    0.000    0.000    0.000    0.400    0.000    4.200 
#    0.000    4.267    0.000    0.000    0.000    0.000 
#
# Total GULP energy -334752.774253 kJ/mol
# GULP energy per Si atom -5579.212904 kJ/mol
# Density = 1.996607 g / cm^3
# Si number density = 20.011618 Si / 1000 Ang^3
#
#
#
# Elastic Constant Matrix: (Units=GPa)
#
#
# Indices 1 2 3 4 5 6 
#
# 1 157.0696 102.8351 4.7148 0.0000 0.0000 0.0000
# 2 102.8351 138.5861 -10.5437 0.0000 0.0000 0.0000
# 3 4.7148 -10.5437 53.7366 0.0000 0.0000 0.0000
# 4 0.0000 0.0000 0.0000 25.5398 0.0000 0.0000
# 5 0.0000 0.0000 0.0000 0.0000 -3.6592 0.0000
# 6 0.0000 0.0000 0.0000 0.0000 0.0000 18.8412
#
#
#
# Elastic Compliance Matrix: (Units=1/GPa)
#
#
# Indices 1 2 3 4 5 6 
#
# 1 0.012855 -0.009770 -0.003045 0.000000 0.000000 0.000000
# 2 -0.009770 0.014751 0.003752 0.000000 0.000000 0.000000
# 3 -0.003045 0.003752 0.019613 0.000000 0.000000 0.000000
# 4 0.000000 0.000000 0.000000 0.039155 0.000000 0.000000
# 5 0.000000 0.000000 0.000000 0.000000 -0.273280 0.000000
# 6 0.000000 0.000000 0.000000 0.000000 0.000000 0.053075
#
#
# Mechanical properties :
#
#
# Convention : Reuss Voigt Hill
#
# Bulk Modulus (GPa) = 34.37487 60.37828 47.37658
# Shear Modulus (GPa) = -47.16602 24.97009 -11.09797
#
# Velocity S-wave (km/s) = -4.86009 3.53622 -2.35750
# Velocity P-wave (km/s) = 3.77879 6.84911 4.03925
#
# Compressibility (1/GPa) = 0.02909102
#
# Stress axis : x y z
#
# Youngs Moduli (GPa) = 77.79286 67.79236 50.98780
#
# Poissons Ratio (x) = 0.66234 0.15525
# Poissons Ratio (y) = 0.76005 -0.19128
# Poissons Ratio (z) = 0.23687 -0.25432
#
# Static dielectric constant tensor:
#      x y z
#    x 1.709130 0.000000 0.000000 
#    y 0.000000 1.671830 0.000000 
#    z 0.000000 0.000000 1.778220 
# 
# From -- ./inp_files/17115.got.cif
#   From: 2010.05.17/outbox.cif.g08.bks.cpg/sg65_9_cif.got.tgz:17115.got - 2010.06.03 17:01:31.
