data_PCOD9494653
_publ_section_title
;
Structure prediction by ZEFSAII (Michael W. Deem and Ramdas Pophale) SiO2 
 PCOD9494653
Probable space group: C M M M
;
_chemical_formula_sum "Si O2"
_cell_formula_units_Z 48
_cell_length_a 9.000000
_cell_length_b 27.000000
_cell_length_c 21.000000
_cell_angle_alpha 90.000000
_cell_angle_beta 90.000000
_cell_angle_gamma 90.000000
_cell_volume 5103.000000
_symmetry_space_group_name_H-M "C M M M"
_symmetry_group_IT_number 65
_symmetry_cell_setting 'orthorhombic'
loop_
_space_group_symop_operation_xyz
x,y,z
-x,-y,z
x,-y,-z
-x,y,-z
-x,-y,-z
x,y,-z
-x,y,z
x,-y,z
1/2+x,1/2+y,z
1/2-x,1/2-y,z
1/2+x,1/2-y,-z
1/2-x,1/2+y,-z
1/2-x,1/2-y,-z
1/2+x,1/2+y,-z
1/2-x,1/2+y,z
1/2+x,1/2-y,z
loop_
_atom_site_type_symbol
_atom_site_label
_atom_site_fract_x
_atom_site_fract_y
_atom_site_fract_z
Si Si1 0.321140 0.303944 0.069013
Si Si2 0.675717 0.652595 0.800503
Si Si3 0.669882 0.445047 0.270744
Si Si4 0.331300 0.943123 0.401848
Si Si5 0.826441 0.300172 0.319481
Si Si6 0.170712 0.852825 0.430809
O O1 0.500000 0.299180 0.070730
O O2 0.250000 0.250000 0.074887
O O3 0.273580 0.335732 0.128921
O O4 0.279552 0.324680 0.000000
O O5 0.500000 0.664108 0.794976
O O6 0.696704 0.596100 0.781282
O O7 0.760570 0.684026 0.747940
O O8 0.500000 0.437167 0.296149
O O9 0.675188 0.500000 0.244083
O O10 0.788135 0.441491 0.327174
O O11 0.500000 0.925410 0.413341
O O12 0.206331 0.910639 0.434521
O O13 0.324888 0.000000 0.421387
O O14 0.750000 0.250000 0.339698
O O15 0.778127 0.337014 0.374665
O O16 0.000000 0.295103 0.314903
O O17 0.201825 0.830005 0.500000
O O18 0.000000 0.842996 0.414115
#
# Coordination Sequence:
#
# PCOD9494653 Si02
#       6
#    16  16  16  16  16  16
#     4   9  18  32  50  75 108 145 182 222 269 319
#     4  10  19  33  55  81 110 142 180 224 268 318
#     4   9  17  30  51  77 106 141 179 219 264 317
#     4  10  20  34  54  81 111 141 176 221 271 321
#     4  12  25  40  59  81 107 138 176 224 273 325
#     4  11  24  41  59  79 106 141 181 223 270 325
#
# _framework density 9.4062319999999993
#
# number of rings (size 3 to 8) (size 9 to 14) (size 15 to 20)
#    0.000    1.833    1.667    3.000    0.000    5.000 
#    0.000    1.667    0.000    0.500    0.000    3.500 
#    0.000    0.000    0.000    9.833    0.000   10.333 
#
# Total GULP energy -267474.397871 kJ/mol
# GULP energy per Si atom -5572.383289 kJ/mol
# Density = 0.938482 g / cm^3
# Si number density = 9.406232 Si / 1000 Ang^3
#
#
#
# Elastic Constant Matrix: (Units=GPa)
#
#
# Indices 1 2 3 4 5 6 
#
# 1 21.9242 12.2353 16.6570 0.0000 0.0000 0.0000
# 2 12.2353 48.1559 19.6965 0.0000 0.0000 0.0000
# 3 16.6570 19.6965 77.2819 0.0000 0.0000 0.0000
# 4 0.0000 0.0000 0.0000 14.9188 0.0000 0.0000
# 5 0.0000 0.0000 0.0000 0.0000 14.0259 0.0000
# 6 0.0000 0.0000 0.0000 0.0000 0.0000 187.2975
#
#
#
# Elastic Compliance Matrix: (Units=1/GPa)
#
#
# Indices 1 2 3 4 5 6 
#
# 1 0.059333 -0.010990 -0.009987 0.000000 0.000000 0.000000
# 2 -0.010990 0.025218 -0.004058 0.000000 0.000000 0.000000
# 3 -0.009987 -0.004058 0.016127 0.000000 0.000000 0.000000
# 4 0.000000 0.000000 0.000000 0.067029 0.000000 0.000000
# 5 0.000000 0.000000 0.000000 0.000000 0.071297 0.000000
# 6 0.000000 0.000000 0.000000 0.000000 0.000000 0.005339
#
#
# Mechanical properties :
#
#
# Convention : Reuss Voigt Hill
#
# Bulk Modulus (GPa) = 19.76058 27.17108 23.46583
# Shear Modulus (GPa) = 16.06251 49.83332 32.94791
#
# Velocity S-wave (km/s) = 2.92519 5.15238 4.18950
# Velocity P-wave (km/s) = 4.68357 7.06191 5.99192
#
# Compressibility (1/GPa) = 0.05060580
#
# Stress axis : x y z
#
# Youngs Moduli (GPa) = 16.85401 39.65384 62.00918
#
# Poissons Ratio (x) = 0.43580 0.61931
# Poissons Ratio (y) = 0.18523 0.25166
# Poissons Ratio (z) = 0.16833 0.16093
#
# Static dielectric constant tensor:
#      x y z
#    x 1.645700 0.000000 0.000000 
#    y 0.000000 1.730690 0.000000 
#    z 0.000000 0.000000 1.089100 
# 
# From -- ./inp_files/60276.got.cif
#   From: 2010.05.17/outbox.ucp.g08.bks.cvg/sg65_31_cif.got.tgz:60276.got - 2010.06.11 16:39:57.
