data_PCOD9494736
_publ_section_title
;
Structure prediction by ZEFSAII (Michael W. Deem and Ramdas Pophale) SiO2 
 PCOD9494736
Probable space group: C M M M
;
_chemical_formula_sum "Si O2"
_cell_formula_units_Z 60
_cell_length_a 27.000000
_cell_length_b 9.000000
_cell_length_c 27.000000
_cell_angle_alpha 90.000000
_cell_angle_beta 90.000000
_cell_angle_gamma 90.000000
_cell_volume 6561.000000
_symmetry_space_group_name_H-M "C M M M"
_symmetry_group_IT_number 65
_symmetry_cell_setting 'orthorhombic'
loop_
_space_group_symop_operation_xyz
x,y,z
-x,-y,z
x,-y,-z
-x,y,-z
-x,-y,-z
x,y,-z
-x,y,z
x,-y,z
1/2+x,1/2+y,z
1/2-x,1/2-y,z
1/2+x,1/2-y,-z
1/2-x,1/2+y,-z
1/2-x,1/2-y,-z
1/2+x,1/2+y,-z
1/2-x,1/2+y,z
1/2+x,1/2-y,z
loop_
_atom_site_type_symbol
_atom_site_label
_atom_site_fract_x
_atom_site_fract_y
_atom_site_fract_z
Si Si1 0.441396 0.829396 0.000000
Si Si2 0.443893 0.818690 0.204474
Si Si3 0.896613 0.676922 0.692872
Si Si4 0.802017 0.676876 0.944290
Si Si5 0.444541 0.822998 0.411535
Si Si6 0.700659 0.323665 0.344972
Si Si7 0.100753 0.681374 0.897367
Si Si8 0.844314 0.178831 0.553581
O O1 0.425157 0.763520 0.947592
O O2 0.500000 0.837760 0.000000
O O3 0.421002 0.000000 0.000000
O O4 0.500000 0.770279 0.205681
O O5 0.418183 0.775642 0.254981
O O6 0.420046 0.763610 0.153958
O O7 0.443082 0.000000 0.203490
O O8 0.885795 0.500000 0.693597
O O9 0.934168 0.699617 0.647081
O O10 0.847428 0.768151 0.683115
O O11 0.796936 0.500000 0.943871
O O12 0.750000 0.750000 0.935616
O O13 0.842243 0.719382 0.904339
O O14 0.819223 0.718417 0.000000
O O15 0.500000 0.773551 0.424683
O O16 0.399466 0.741834 0.438365
O O17 0.441246 0.000000 0.421043
O O18 0.704881 0.500000 0.344108
O O19 0.750000 0.250000 0.325379
O O20 0.689975 0.271336 0.401361
O O21 0.095462 0.500000 0.897060
O O22 0.825551 0.225520 0.500000
O O23 0.847064 0.000000 0.555575
#
# Coordination Sequence:
#
# PCOD9494736 Si02
#       8
#     8  16  16  16  16  16  16  16
#     4   9  14  20  33  56  91 129 155 181 228 287
#     4   9  16  26  44  70  97 126 160 196 237 286
#     4   9  17  31  50  71  96 126 161 201 242 284
#     4   9  16  27  43  62  86 117 153 191 231 273
#     4   9  17  29  46  68  94 126 165 206 244 282
#     4  10  20  35  55  76  97 124 159 197 239 286
#     4   9  15  24  38  62  95 126 155 192 238 285
#     4   9  19  34  49  69  99 130 159 193 235 286
#
# _framework density 9.1449470000000002
#
# number of rings (size 3 to 8) (size 9 to 14) (size 15 to 20)
#    0.000    2.867    0.667    1.200    0.000    4.800 
#    0.000    2.000    0.000    3.600    0.000    0.000 
#    0.000    2.133    0.000    0.000    0.000    0.000 
#
# Total GULP energy -334050.003410 kJ/mol
# GULP energy per Si atom -5567.500057 kJ/mol
# Density = 0.912413 g / cm^3
# Si number density = 9.144947 Si / 1000 Ang^3
#
#
#
# Elastic Constant Matrix: (Units=GPa)
#
#
# Indices 1 2 3 4 5 6 
#
# 1 76.5793 13.8231 30.7896 0.0000 0.0000 0.0000
# 2 13.8231 -5.1630 8.2845 0.0000 0.0000 0.0000
# 3 30.7896 8.2845 99.2446 0.0000 0.0000 0.0000
# 4 0.0000 0.0000 0.0000 5.5894 0.0000 0.0000
# 5 0.0000 0.0000 0.0000 0.0000 -105.9844 0.0000
# 6 0.0000 0.0000 0.0000 0.0000 0.0000 14.9836
#
#
#
# Elastic Compliance Matrix: (Units=1/GPa)
#
#
# Indices 1 2 3 4 5 6 
#
# 1 0.011280 0.021680 -0.005309 0.000000 0.000000 0.000000
# 2 0.021680 -0.129137 0.004054 0.000000 0.000000 0.000000
# 3 -0.005309 0.004054 0.011385 0.000000 0.000000 0.000000
# 4 0.000000 0.000000 0.000000 0.178909 0.000000 0.000000
# 5 0.000000 0.000000 0.000000 0.000000 -0.009435 0.000000
# 6 0.000000 0.000000 0.000000 0.000000 0.000000 0.066740
#
#
# Mechanical properties :
#
#
# Convention : Reuss Voigt Hill
#
# Bulk Modulus (GPa) = -15.23865 30.71725 7.73930
# Shear Modulus (GPa) = 74.60793 -9.23136 32.68829
#
# Velocity S-wave (km/s) = 6.39378 -2.24904 4.23215
# Velocity P-wave (km/s) = 6.79393 3.17598 5.30303
#
# Compressibility (1/GPa) = -0.06562263
#
# Stress axis : x y z
#
# Youngs Moduli (GPa) = 88.65622 -7.74374 87.83613
#
# Poissons Ratio (x) = 0.16789 0.46633
# Poissons Ratio (y) = -1.92209 -0.35606
# Poissons Ratio (z) = 0.47069 0.03139
#
# Static dielectric constant tensor:
#      x y z
#    x 1.611510 0.000000 0.000000 
#    y 0.000000 1.609770 0.000000 
#    z 0.000000 0.000000 1.626400 
# 
# From -- ./inp_files/76165.got.cif
#   From: 2010.05.17/outbox.ucp.g08.bks.cvg/sg65_39_cif.got.tgz:76165.got - 2010.06.11 16:39:57.
