data_PCOD9494861
_publ_section_title
;
Structure prediction by ZEFSAII (Michael W. Deem and Ramdas Pophale) SiO2 
 PCOD9494861
Probable space group: C M M M
;
_chemical_formula_sum "Si O2"
_cell_formula_units_Z 44
_cell_length_a 9.000000
_cell_length_b 18.000000
_cell_length_c 30.000000
_cell_angle_alpha 90.000000
_cell_angle_beta 90.000000
_cell_angle_gamma 90.000000
_cell_volume 4860.000000
_symmetry_space_group_name_H-M "C M M M"
_symmetry_group_IT_number 65
_symmetry_cell_setting 'orthorhombic'
loop_
_space_group_symop_operation_xyz
x,y,z
-x,-y,z
x,-y,-z
-x,y,-z
-x,-y,-z
x,y,-z
-x,y,z
x,-y,z
1/2+x,1/2+y,z
1/2-x,1/2-y,z
1/2+x,1/2-y,-z
1/2-x,1/2+y,-z
1/2-x,1/2-y,-z
1/2+x,1/2+y,-z
1/2-x,1/2+y,z
1/2+x,1/2-y,z
loop_
_atom_site_type_symbol
_atom_site_label
_atom_site_fract_x
_atom_site_fract_y
_atom_site_fract_z
Si Si1 0.672460 0.090645 0.318918
Si Si2 0.173985 0.089286 0.050067
Si Si3 0.329013 0.090677 0.500000
Si Si4 0.818882 0.414204 0.221392
Si Si5 0.670958 0.409347 0.409347
Si Si6 0.322166 0.830183 0.867999
O O1 0.500000 0.111715 0.323235
O O2 0.730386 0.114257 0.270148
O O3 0.758213 0.115892 0.362788
O O4 0.677069 0.000000 0.317877
O O5 0.269499 0.123132 0.089467
O O6 0.000000 0.109247 0.055963
O O7 0.183425 0.000000 0.051536
O O8 0.219209 0.113069 0.000000
O O9 0.500000 0.112199 0.500000
O O10 0.252646 0.115669 0.545753
O O11 0.321880 0.000000 0.500000
O O12 0.772252 0.500000 0.216184
O O13 0.772520 0.368307 0.178354
O O14 0.000000 0.414185 0.222889
O O15 0.500000 0.388149 0.411498
O O16 0.679043 0.500000 0.409016
O O17 0.500000 0.825530 0.867483
O O18 0.250000 0.750000 0.871228
#
# Coordination Sequence:
#
# PCOD9494861 Si02
#       6
#    16  16   8  16  16  16
#     4   8  13  23  39  56  74 100 138 182 225 272
#     4   9  19  37  59  81 105 132 163 202 247 293
#     4   9  15  21  29  41  61  97 142 179 214 263
#     4   8  15  29  49  70  90 117 157 202 243 285
#     4   9  15  21  29  45  71 100 132 174 223 271
#     4  11  22  35  52  75 104 136 169 205 246 292
#
# _framework density 9.0534979999999994
#
# number of rings (size 3 to 8) (size 9 to 14) (size 15 to 20)
#    0.000    3.000    0.000    3.545    0.000    5.091 
#    0.000    2.727    0.000    4.364    0.000    0.000 
#    0.000    0.000    0.000    0.818    0.000   10.727 
#
# Total GULP energy -245136.437823 kJ/mol
# GULP energy per Si atom -5571.282678 kJ/mol
# Density = 0.903289 g / cm^3
# Si number density = 9.053498 Si / 1000 Ang^3
#
#
#
# Elastic Constant Matrix: (Units=GPa)
#
#
# Indices 1 2 3 4 5 6 
#
# 1 73.0869 19.0452 84.1696 0.0000 0.0000 0.0000
# 2 19.0452 16.9843 34.1215 0.0000 0.0000 0.0000
# 3 84.1696 34.1215 201.4394 0.0000 0.0000 0.0000
# 4 0.0000 0.0000 0.0000 -8.4995 0.0000 0.0000
# 5 0.0000 0.0000 0.0000 0.0000 -2.1827 0.0000
# 6 0.0000 0.0000 0.0000 0.0000 0.0000 4.4007
#
#
#
# Elastic Compliance Matrix: (Units=1/GPa)
#
#
# Indices 1 2 3 4 5 6 
#
# 1 0.027877 -0.011912 -0.009630 0.000000 0.000000 0.000000
# 2 -0.011912 0.094340 -0.011003 0.000000 0.000000 0.000000
# 3 -0.009630 -0.011003 0.010852 0.000000 0.000000 0.000000
# 4 0.000000 0.000000 0.000000 -0.117654 0.000000 0.000000
# 5 0.000000 0.000000 0.000000 0.000000 -0.458147 0.000000
# 6 0.000000 0.000000 0.000000 0.000000 0.000000 0.227239
#
#
# Mechanical properties :
#
#
# Convention : Reuss Voigt Hill
#
# Bulk Modulus (GPa) = 14.71059 62.90925 38.80992
# Shear Modulus (GPa) = -39.14103 9.02198 -15.05953
#
# Velocity S-wave (km/s) = -4.65440 2.23459 -2.88704
# Velocity P-wave (km/s) = 4.55442 6.44021 3.21976
#
# Compressibility (1/GPa) = 0.06797824
#
# Stress axis : x y z
#
# Youngs Moduli (GPa) = 35.87144 10.59998 92.14910
#
# Poissons Ratio (x) = 0.12627 0.88744
# Poissons Ratio (y) = 0.42732 1.01388
# Poissons Ratio (z) = 0.34546 0.11663
#
# Static dielectric constant tensor:
#      x y z
#    x 1.611690 0.000000 0.000000 
#    y 0.000000 1.597480 0.000000 
#    z 0.000000 0.000000 1.634930 
# 
# From -- ./inp_files/76494.got.cif
#   From: 2010.05.17/outbox.ucp.g08.bks.cvg/sg65_39_cif.got.tgz:76494.got - 2010.06.11 16:39:57.
