data_PCOD9494219
_publ_section_title
;
Structure prediction by ZEFSAII (Michael W. Deem and Ramdas Pophale) SiO2 
 PCOD9494219
Probable space group: C M M M
;
_chemical_formula_sum "Si O2"
_cell_formula_units_Z 88
_cell_length_a 7.218520
_cell_length_b 14.550778
_cell_length_c 31.716367
_cell_angle_alpha 90.000000
_cell_angle_beta 90.000000
_cell_angle_gamma 90.000000
_cell_volume 3331.331209
_symmetry_space_group_name_H-M "C M M M"
_symmetry_group_IT_number 65
_symmetry_cell_setting 'orthorhombic'
loop_
_space_group_symop_operation_xyz
x,y,z
-x,-y,z
x,-y,-z
-x,y,-z
-x,-y,-z
x,y,-z
-x,y,z
x,-y,z
1/2+x,1/2+y,z
1/2-x,1/2-y,z
1/2+x,1/2-y,-z
1/2-x,1/2+y,-z
1/2-x,1/2-y,-z
1/2+x,1/2+y,-z
1/2-x,1/2+y,z
1/2+x,1/2-y,z
loop_
_atom_site_type_symbol
_atom_site_label
_atom_site_fract_x
_atom_site_fract_y
_atom_site_fract_z
Si Si1 0.220662 0.860512 0.954534
Si Si2 0.279171 0.639408 0.772683
Si Si3 0.280442 0.641516 0.317923
Si Si4 0.720662 0.639488 0.136400
Si Si5 0.273367 0.607417 0.500000
Si Si6 0.290584 0.609429 0.410351
O O1 0.250000 0.750000 0.954545
O O2 0.291529 0.893638 0.909067
O O3 0.000000 0.877291 0.954524
O O4 0.291555 0.893627 0.000000
O O5 0.500000 0.623218 0.772415
O O6 0.250000 0.750000 0.773113
O O7 0.209521 0.605252 0.727198
O O8 0.208582 0.606168 0.818145
O O9 0.500000 0.618444 0.319171
O O10 0.250000 0.750000 0.315014
O O11 0.204175 0.618773 0.364148
O O12 0.500000 0.622708 0.136459
O O13 0.750000 0.750000 0.136334
O O14 0.219492 0.500000 0.500000
O O15 0.500000 0.610971 0.500000
O O16 0.210543 0.645428 0.454628
O O17 0.500000 0.648282 0.407014
O O18 0.304974 0.500000 0.416337
#
# Coordination Sequence:
#
# PCOD9494219 Si02
#       6
#    16  16  16  16   8  16
#     4   8  12  16  21  29  41  58  82 113 146 175
#     4   8  13  20  29  41  57  78 102 126 154 188
#     4   9  16  25  37  53  73  94 115 141 172 204
#     4   8  12  17  24  33  46  65  90 118 146 178
#     4   7  10  18  33  52  71  89 112 143 172 196
#     4   8  13  22  37  55  72  91 117 146 172 199
#
# _framework density 26.415866999999999
#
# number of rings (size 3 to 8) (size 9 to 14) (size 15 to 20)
#    0.000    3.909    0.000    1.091    0.000    0.000 
#    0.000    0.455    0.000    0.545    0.000    0.000 
#    0.000    2.182    0.000    0.000    0.000    0.909 
#
# Total GULP energy -245104.590896 kJ/mol
# GULP energy per Si atom -5570.558884 kJ/mol
# Density = 2.635574 g / cm^3
# Si number density = 26.415867 Si / 1000 Ang^3
#
#
#
# Elastic Constant Matrix: (Units=GPa)
#
#
# Indices 1 2 3 4 5 6 
#
# 1 139.9475 -11.1504 25.1749 0.0000 0.0000 0.0000
# 2 -11.1504 93.0245 19.2943 0.0000 0.0000 0.0000
# 3 25.1749 19.2943 453.0982 0.0000 0.0000 0.0000
# 4 0.0000 0.0000 0.0000 -90.1542 0.0000 0.0000
# 5 0.0000 0.0000 0.0000 0.0000 -5.0309 0.0000
# 6 0.0000 0.0000 0.0000 0.0000 0.0000 -17.5061
#
#
#
# Elastic Compliance Matrix: (Units=1/GPa)
#
#
# Indices 1 2 3 4 5 6 
#
# 1 0.007303 0.000968 -0.000447 0.000000 0.000000 0.000000
# 2 0.000968 0.010974 -0.000521 0.000000 0.000000 0.000000
# 3 -0.000447 -0.000521 0.002254 0.000000 0.000000 0.000000
# 4 0.000000 0.000000 0.000000 -0.011092 0.000000 0.000000
# 5 0.000000 0.000000 0.000000 0.000000 -0.198773 0.000000
# 6 0.000000 0.000000 0.000000 0.000000 0.000000 -0.057123
#
#
# Mechanical properties :
#
#
# Convention : Reuss Voigt Hill
#
# Bulk Modulus (GPa) = 48.70655 83.63421 66.17038
# Shear Modulus (GPa) = -20.86692 20.97855 0.05581
#
# Velocity S-wave (km/s) = -2.81363 2.82115 0.14551
# Velocity P-wave (km/s) = 2.81478 6.50701 5.01319
#
# Compressibility (1/GPa) = 0.02053112
#
# Stress axis : x y z
#
# Youngs Moduli (GPa) = 136.92858 91.12469 443.64536
#
# Poissons Ratio (x) = -0.08822 0.19831
# Poissons Ratio (y) = -0.13256 0.23118
# Poissons Ratio (z) = 0.06121 0.04748
#
# Static dielectric constant tensor:
#      x y z
#    x 1.978810 0.000000 0.000000 
#    y 0.000000 2.061020 0.000000 
#    z 0.000000 0.000000 2.172180 
# 
# From -- ./inp_files/76810.got.cif
#   From: 2010.05.17/outbox.cif.g08.bks.cpg/sg65_39_cif.got.tgz:76810.got - 2010.06.03 17:01:31.
