data_PCOD9494317
_publ_section_title
;
Structure prediction by ZEFSAII (Michael W. Deem and Ramdas Pophale) SiO2 
 PCOD9494317
Probable space group: C M M M
;
_chemical_formula_sum "Si O2"
_cell_formula_units_Z 104
_cell_length_a 28.938621
_cell_length_b 23.964688
_cell_length_c 7.329330
_cell_angle_alpha 90.000000
_cell_angle_beta 90.000000
_cell_angle_gamma 90.000000
_cell_volume 5082.927173
_symmetry_space_group_name_H-M "C M M M"
_symmetry_group_IT_number 65
_symmetry_cell_setting 'orthorhombic'
loop_
_space_group_symop_operation_xyz
x,y,z
-x,-y,z
x,-y,-z
-x,y,-z
-x,-y,-z
x,y,-z
-x,y,z
x,-y,z
1/2+x,1/2+y,z
1/2-x,1/2-y,z
1/2+x,1/2-y,-z
1/2-x,1/2+y,-z
1/2-x,1/2-y,-z
1/2+x,1/2+y,-z
1/2-x,1/2+y,z
1/2+x,1/2-y,z
loop_
_atom_site_type_symbol
_atom_site_label
_atom_site_fract_x
_atom_site_fract_y
_atom_site_fract_z
Si Si1 0.500000 0.436470 0.283979
Si Si2 0.265315 0.937534 0.778222
Si Si3 0.099387 0.937230 0.214014
Si Si4 0.552772 0.935214 0.222062
Si Si5 0.355072 0.126182 0.777823
Si Si6 0.696617 0.239304 0.778258
Si Si7 0.181101 0.861321 0.777182
O O1 0.500000 0.500000 0.207001
O O2 0.500000 0.440008 0.500000
O O3 0.548635 0.410954 0.229855
O O4 0.316910 0.920105 0.726521
O O5 0.229032 0.890229 0.720020
O O6 0.252830 0.000000 0.718257
O O7 0.263867 0.937882 0.000000
O O8 0.139779 0.899851 0.289550
O O9 0.098133 0.000000 0.291341
O O10 0.109131 0.942634 0.000000
O O11 0.500000 0.921000 0.278160
O O12 0.594088 0.894022 0.281935
O O13 0.561788 0.000000 0.274719
O O14 0.553052 0.934457 0.000000
O O15 0.332219 0.185112 0.717592
O O16 0.356621 0.128328 0.000000
O O17 0.750000 0.250000 0.721508
O O18 0.673670 0.297628 0.724364
O O19 0.698436 0.234641 0.000000
O O20 0.182092 0.860952 0.000000
#
# Coordination Sequence:
#
# PCOD9494317 Si02
#       7
#     8  16  16  16  16  16  16
#     4   9  17  29  45  63  81 103 133 167 202 243
#     4   9  14  18  26  42  62  83 112 151 192 234
#     4   9  16  26  41  60  82 107 133 164 205 247
#     4   8  13  20  28  37  49  67  98 143 189 229
#     4   9  14  19  28  39  54  80 112 147 190 234
#     4   9  14  21  30  41  60  90 122 153 189 231
#     4   9  15  22  32  47  69  97 127 157 191 235
#
# _framework density 20.460650000000001
#
# number of rings (size 3 to 8) (size 9 to 14) (size 15 to 20)
#    0.000    3.154    1.538    1.615    0.000    4.615 
#    0.000    0.000    1.692    0.000    0.000    0.000 
#    0.000    0.615    0.000    0.000    0.000    0.000 
#
# Total GULP energy -289833.393151 kJ/mol
# GULP energy per Si atom -5573.719099 kJ/mol
# Density = 2.041408 g / cm^3
# Si number density = 20.460650 Si / 1000 Ang^3
#
#
#
# Elastic Constant Matrix: (Units=GPa)
#
#
# Indices 1 2 3 4 5 6 
#
# 1 165.4993 74.2166 -1.8977 0.0000 0.0000 0.0000
# 2 74.2166 126.9474 2.0602 0.0000 0.0000 0.0000
# 3 -1.8977 2.0602 77.7578 0.0000 0.0000 0.0000
# 4 0.0000 0.0000 0.0000 -15.1798 0.0000 0.0000
# 5 0.0000 0.0000 0.0000 0.0000 -157.4530 0.0000
# 6 0.0000 0.0000 0.0000 0.0000 0.0000 22.4737
#
#
#
# Elastic Compliance Matrix: (Units=1/GPa)
#
#
# Indices 1 2 3 4 5 6 
#
# 1 0.008198 -0.004798 0.000327 0.000000 0.000000 0.000000
# 2 -0.004798 0.010689 -0.000400 0.000000 0.000000 0.000000
# 3 0.000327 -0.000400 0.012879 0.000000 0.000000 0.000000
# 4 0.000000 0.000000 0.000000 -0.065877 0.000000 0.000000
# 5 0.000000 0.000000 0.000000 0.000000 -0.006351 0.000000
# 6 0.000000 0.000000 0.000000 0.000000 0.000000 0.044496
#
#
# Mechanical properties :
#
#
# Convention : Reuss Voigt Hill
#
# Bulk Modulus (GPa) = 45.40612 57.66254 51.53433
# Shear Modulus (GPa) = 236.77976 -10.31012 113.23482
#
# Velocity S-wave (km/s) = 10.76920 -2.24721 7.44734
# Velocity P-wave (km/s) = 13.29941 4.63790 9.95953
#
# Compressibility (1/GPa) = 0.02202346
#
# Stress axis : x y z
#
# Youngs Moduli (GPa) = 121.98657 93.55659 77.64559
#
# Poissons Ratio (x) = 0.44887 -0.02540
# Poissons Ratio (y) = 0.58527 0.03108
# Poissons Ratio (z) = -0.03991 0.03745
#
# Static dielectric constant tensor:
#      x y z
#    x 1.736810 0.000000 0.000000 
#    y 0.000000 1.722450 0.000000 
#    z 0.000000 0.000000 1.782960 
# 
# From -- ./inp_files/18854.got.cif
#   From: 2010.05.17/outbox.cif.g08.bks.cpg/sg65_10_cif.got.tgz:18854.got - 2010.06.03 17:01:31.
