data_PCOD9494423
_publ_section_title
;
Structure prediction by ZEFSAII (Michael W. Deem and Ramdas Pophale) SiO2 
 PCOD9494423
Probable space group: C M M M
;
_chemical_formula_sum "Si O2"
_cell_formula_units_Z 104
_cell_length_a 26.926030
_cell_length_b 24.114165
_cell_length_c 7.344337
_cell_angle_alpha 90.000000
_cell_angle_beta 90.000000
_cell_angle_gamma 90.000000
_cell_volume 4768.668688
_symmetry_space_group_name_H-M "C M M M"
_symmetry_group_IT_number 65
_symmetry_cell_setting 'orthorhombic'
loop_
_space_group_symop_operation_xyz
x,y,z
-x,-y,z
x,-y,-z
-x,y,-z
-x,-y,-z
x,y,-z
-x,y,z
x,-y,z
1/2+x,1/2+y,z
1/2-x,1/2-y,z
1/2+x,1/2-y,-z
1/2-x,1/2+y,-z
1/2-x,1/2-y,-z
1/2+x,1/2+y,-z
1/2-x,1/2+y,z
1/2+x,1/2-y,z
loop_
_atom_site_type_symbol
_atom_site_label
_atom_site_fract_x
_atom_site_fract_y
_atom_site_fract_z
Si Si1 0.000000 0.934630 0.280513
Si Si2 0.850362 0.217015 0.780584
Si Si3 0.367005 0.162315 0.221503
Si Si4 0.895869 0.099335 0.290373
Si Si5 0.206374 0.059045 0.721175
Si Si6 0.745221 0.174398 0.207754
Si Si7 0.057873 0.435942 0.778461
O O1 0.050618 0.909141 0.207215
O O2 0.000000 0.925156 0.500000
O O3 0.000000 0.000000 0.249177
O O4 0.879208 0.273484 0.732491
O O5 0.878437 0.162759 0.714327
O O6 0.791987 0.211303 0.719373
O O7 0.848257 0.213856 0.000000
O O8 0.309568 0.163646 0.287530
O O9 0.403486 0.112432 0.282274
O O10 0.366519 0.157826 0.000000
O O11 0.899492 0.080977 0.500000
O O12 0.850371 0.064104 0.214810
O O13 0.207176 0.062848 0.500000
O O14 0.232776 0.112790 0.793841
O O15 0.228310 0.000000 0.773477
O O16 0.736392 0.192576 0.000000
O O17 0.070235 0.500000 0.724119
O O18 0.000000 0.425253 0.725530
O O19 0.058676 0.435465 0.000000
#
# Coordination Sequence:
#
# PCOD9494423 Si02
#       7
#     8  16  16  16  16  16  16
#     4   9  16  28  49  71  87 113 158 199 226 260
#     4   9  17  30  45  64  92 122 148 179 223 270
#     4   9  16  27  44  64  86 118 153 180 214 268
#     4   9  17  30  47  66  88 117 153 192 227 261
#     4   9  17  29  44  63  90 121 150 183 227 273
#     4   9  17  28  44  65  90 118 150 186 221 261
#     4   8  14  25  40  59  85 113 142 182 227 264
#
# _framework density 21.809021000000001
#
# number of rings (size 3 to 8) (size 9 to 14) (size 15 to 20)
#    0.000    3.154    0.000    1.385    0.000    4.615 
#    1.385    2.692    0.000    5.538    0.000    0.000 
#    0.000    0.000    0.000    5.385    0.000    5.538 
#
# Total GULP energy -289639.307164 kJ/mol
# GULP energy per Si atom -5569.986676 kJ/mol
# Density = 2.175938 g / cm^3
# Si number density = 21.809021 Si / 1000 Ang^3
#
#
#
# Elastic Constant Matrix: (Units=GPa)
#
#
# Indices 1 2 3 4 5 6 
#
# 1 88.7337 31.6317 1.5315 0.0000 0.0000 0.0000
# 2 31.6317 107.2027 -0.3982 0.0000 0.0000 0.0000
# 3 1.5315 -0.3982 80.8760 0.0000 0.0000 0.0000
# 4 0.0000 0.0000 0.0000 -10.9837 0.0000 0.0000
# 5 0.0000 0.0000 0.0000 0.0000 18.2827 0.0000
# 6 0.0000 0.0000 0.0000 0.0000 0.0000 28.3935
#
#
#
# Elastic Compliance Matrix: (Units=1/GPa)
#
#
# Indices 1 2 3 4 5 6 
#
# 1 0.012600 -0.003719 -0.000257 0.000000 0.000000 0.000000
# 2 -0.003719 0.010426 0.000122 0.000000 0.000000 0.000000
# 3 -0.000257 0.000122 0.012370 0.000000 0.000000 0.000000
# 4 0.000000 0.000000 0.000000 -0.091044 0.000000 0.000000
# 5 0.000000 0.000000 0.000000 0.000000 0.054696 0.000000
# 6 0.000000 0.000000 0.000000 0.000000 0.000000 0.035219
#
#
# Mechanical properties :
#
#
# Convention : Reuss Voigt Hill
#
# Bulk Modulus (GPa) = 36.11679 38.03806 37.07742
# Shear Modulus (GPa) = 97.64796 23.40832 60.52814
#
# Velocity S-wave (km/s) = 6.69861 3.27973 5.27390
# Velocity P-wave (km/s) = 8.74213 5.64105 7.35684
#
# Compressibility (1/GPa) = 0.02768795
#
# Stress axis : x y z
#
# Youngs Moduli (GPa) = 79.36663 95.91556 80.84027
#
# Poissons Ratio (x) = 0.35668 0.02077
# Poissons Ratio (y) = 0.29514 -0.00984
# Poissons Ratio (z) = 0.02039 -0.01168
#
# Static dielectric constant tensor:
#      x y z
#    x 1.810570 0.000000 0.000000 
#    y 0.000000 1.788390 0.000000 
#    z 0.000000 0.000000 1.849270 
# 
# From -- ./inp_files/16781.got.cif
#   From: 2010.05.17/outbox.cif.g08.bks.cpg/sg65_9_cif.got.tgz:16781.got - 2010.06.03 17:01:31.
