data_PCOD9494139
_publ_section_title
;
Structure prediction by ZEFSAII (Michael W. Deem and Ramdas Pophale) SiO2 
 PCOD9494139
Probable space group: C M M M
;
_chemical_formula_sum "Si O2"
_cell_formula_units_Z 64
_cell_length_a 20.617418
_cell_length_b 24.258036
_cell_length_c 7.426578
_cell_angle_alpha 90.000000
_cell_angle_beta 90.000000
_cell_angle_gamma 90.000000
_cell_volume 3714.314373
_symmetry_space_group_name_H-M "C M M M"
_symmetry_group_IT_number 65
_symmetry_cell_setting 'orthorhombic'
loop_
_space_group_symop_operation_xyz
x,y,z
-x,-y,z
x,-y,-z
-x,y,-z
-x,-y,-z
x,y,-z
-x,y,z
x,-y,z
1/2+x,1/2+y,z
1/2-x,1/2-y,z
1/2+x,1/2-y,-z
1/2-x,1/2+y,-z
1/2-x,1/2-y,-z
1/2+x,1/2+y,-z
1/2-x,1/2+y,z
1/2+x,1/2-y,z
loop_
_atom_site_type_symbol
_atom_site_label
_atom_site_fract_x
_atom_site_fract_y
_atom_site_fract_z
Si Si1 0.609378 0.378729 0.286862
Si Si2 0.759941 0.500000 0.718711
Si Si3 0.266473 0.879539 0.287267
Si Si4 0.390922 0.500000 0.281116
Si Si5 0.428087 0.288996 0.000000
Si Si6 0.308913 0.206882 0.000000
O O1 0.596613 0.372724 0.500000
O O2 0.687986 0.377605 0.262747
O O3 0.584143 0.439593 0.227863
O O4 0.581407 0.329498 0.170353
O O5 0.759021 0.500000 0.500000
O O6 0.788071 0.558958 0.772179
O O7 0.684582 0.500000 0.774169
O O8 0.278422 0.873107 0.500000
O O9 0.299757 0.832474 0.171952
O O10 0.392967 0.500000 0.500000
O O11 0.500000 0.265560 0.000000
O O12 0.374201 0.241881 0.000000
O O13 0.250000 0.250000 0.000000
#
# Coordination Sequence:
#
# PCOD9494139 Si02
#       6
#    16   8  16   8   8   8
#     4   9  17  33  54  75 101 134 168 208 255 298
#     4   7  12  25  47  81 111 126 147 195 264 314
#     4   9  17  31  55  82 107 129 159 209 259 304
#     4   7  12  25  49  76 100 127 163 205 250 297
#     4  12  26  39  48  67 102 140 179 218 248 291
#     4  12  22  35  51  77 101 133 183 213 244 294
#
# _framework density 17.230636000000001
#
# number of rings (size 3 to 8) (size 9 to 14) (size 15 to 20)
#    0.000    2.750    2.500    3.000    0.000    3.000 
#    0.000    5.000    0.000    2.250    0.000    1.750 
#    0.000    3.000    0.000    0.000    0.000    0.000 
#
# Total GULP energy -178386.897306 kJ/mol
# GULP energy per Si atom -5574.590541 kJ/mol
# Density = 1.719142 g / cm^3
# Si number density = 17.230636 Si / 1000 Ang^3
#
#
#
# Elastic Constant Matrix: (Units=GPa)
#
#
# Indices 1 2 3 4 5 6 
#
# 1 73.2933 61.3389 31.6186 0.0000 0.0000 0.0000
# 2 61.3389 149.4549 49.0653 0.0000 0.0000 0.0000
# 3 31.6186 49.0653 68.9923 0.0000 0.0000 0.0000
# 4 0.0000 0.0000 0.0000 37.8508 0.0000 0.0000
# 5 0.0000 0.0000 0.0000 0.0000 -10.4338 0.0000
# 6 0.0000 0.0000 0.0000 0.0000 0.0000 4.3542
#
#
#
# Elastic Compliance Matrix: (Units=1/GPa)
#
#
# Indices 1 2 3 4 5 6 
#
# 1 0.021917 -0.007433 -0.004758 0.000000 0.000000 0.000000
# 2 -0.007433 0.011250 -0.004594 0.000000 0.000000 0.000000
# 3 -0.004758 -0.004594 0.019942 0.000000 0.000000 0.000000
# 4 0.000000 0.000000 0.000000 0.026420 0.000000 0.000000
# 5 0.000000 0.000000 0.000000 0.000000 -0.095842 0.000000
# 6 0.000000 0.000000 0.000000 0.000000 0.000000 0.229666
#
#
# Mechanical properties :
#
#
# Convention : Reuss Voigt Hill
#
# Bulk Modulus (GPa) = 51.18115 63.97624 57.57870
# Shear Modulus (GPa) = 19.72885 16.33541 18.03213
#
# Velocity S-wave (km/s) = 3.38744 3.08237 3.23850
# Velocity P-wave (km/s) = 6.71325 7.06244 6.89005
#
# Compressibility (1/GPa) = 0.01953844
#
# Stress axis : x y z
#
# Youngs Moduli (GPa) = 45.62607 88.89003 50.14495
#
# Poissons Ratio (x) = 0.66073 0.23861
# Poissons Ratio (y) = 0.33914 0.23037
# Poissons Ratio (z) = 0.21710 0.40836
#
# Static dielectric constant tensor:
#      x y z
#    x 1.561260 0.000000 0.000000 
#    y 0.000000 1.605150 0.000000 
#    z 0.000000 0.000000 1.617720 
# 
# From -- ./inp_files/11184.got.cif
#   From: 2010.05.17/outbox.cif.g08.bks.cpg/sg65_6_cif.got.tgz:11184.got - 2010.06.03 17:01:31.
