data_PCOD9494342
_publ_section_title
;
Structure prediction by ZEFSAII (Michael W. Deem and Ramdas Pophale) SiO2 
 PCOD9494342
Probable space group: C M M M
;
_chemical_formula_sum "Si O2"
_cell_formula_units_Z 80
_cell_length_a 14.425311
_cell_length_b 32.774816
_cell_length_c 7.611935
_cell_angle_alpha 90.000000
_cell_angle_beta 90.000000
_cell_angle_gamma 90.000000
_cell_volume 3598.823256
_symmetry_space_group_name_H-M "C M M M"
_symmetry_group_IT_number 65
_symmetry_cell_setting 'orthorhombic'
loop_
_space_group_symop_operation_xyz
x,y,z
-x,-y,z
x,-y,-z
-x,y,-z
-x,-y,-z
x,y,-z
-x,y,z
x,-y,z
1/2+x,1/2+y,z
1/2-x,1/2-y,z
1/2+x,1/2-y,-z
1/2-x,1/2+y,-z
1/2-x,1/2-y,-z
1/2+x,1/2+y,-z
1/2-x,1/2+y,z
1/2+x,1/2-y,z
loop_
_atom_site_type_symbol
_atom_site_label
_atom_site_fract_x
_atom_site_fract_y
_atom_site_fract_z
Si Si1 0.862180 0.289149 0.500000
Si Si2 0.137434 0.804110 0.500000
Si Si3 0.900565 0.559517 0.786437
Si Si4 0.690552 0.455610 0.214447
Si Si5 0.366423 0.151387 0.802214
Si Si6 0.354398 0.634158 0.200636
O O1 0.893468 0.242589 0.500000
O O2 0.749774 0.296557 0.500000
O O3 0.892946 0.313135 0.327974
O O4 0.109439 0.831617 0.333064
O O5 0.798991 0.545065 0.727492
O O6 0.902143 0.607403 0.745656
O O7 0.000000 0.542840 0.725603
O O8 0.899108 0.554873 0.000000
O O9 0.651164 0.500000 0.265387
O O10 0.641518 0.413054 0.266331
O O11 0.691301 0.453914 0.000000
O O12 0.255470 0.144272 0.806023
O O13 0.395703 0.159879 0.000000
O O14 0.389388 0.636454 0.000000
#
# Coordination Sequence:
#
# PCOD9494342 Si02
#       6
#     8   8  16  16  16  16
#     4   9  16  24  35  50  63  77 100 127 159 204
#     4   9  16  24  35  50  63  77 100 127 159 204
#     4   8  13  21  33  48  66  89 115 142 173 206
#     4   8  13  21  33  48  66  89 115 142 173 206
#     4   8  14  24  35  47  65  85 103 128 163 199
#     4   8  14  24  35  47  65  85 103 128 163 199
#
# _framework density 22.229489000000001
#
# number of rings (size 3 to 8) (size 9 to 14) (size 15 to 20)
#    0.000    3.800    0.000    2.400    0.000    1.200 
#    0.000    7.000    0.000    0.000    0.000    0.000 
#    0.000    8.000    0.000    0.800    0.000    0.000 
#
# Total GULP energy -222863.359371 kJ/mol
# GULP energy per Si atom -5571.583984 kJ/mol
# Density = 2.217889 g / cm^3
# Si number density = 22.229489 Si / 1000 Ang^3
#
#
#
# Elastic Constant Matrix: (Units=GPa)
#
#
# Indices 1 2 3 4 5 6 
#
# 1 53.0130 6.2531 1.0295 0.0000 0.0000 0.0000
# 2 6.2531 249.4059 92.0950 0.0000 0.0000 0.0000
# 3 1.0295 92.0950 76.1891 0.0000 0.0000 0.0000
# 4 0.0000 0.0000 0.0000 -11.7842 0.0000 0.0000
# 5 0.0000 0.0000 0.0000 0.0000 -10.2948 0.0000
# 6 0.0000 0.0000 0.0000 0.0000 0.0000 -27.7732
#
#
#
# Elastic Compliance Matrix: (Units=1/GPa)
#
#
# Indices 1 2 3 4 5 6 
#
# 1 0.018933 -0.000687 0.000574 0.000000 0.000000 0.000000
# 2 -0.000687 0.007267 -0.008775 0.000000 0.000000 0.000000
# 3 0.000574 -0.008775 0.023724 0.000000 0.000000 0.000000
# 4 0.000000 0.000000 0.000000 -0.084859 0.000000 0.000000
# 5 0.000000 0.000000 0.000000 0.000000 -0.097137 0.000000
# 6 0.000000 0.000000 0.000000 0.000000 0.000000 -0.036006
#
#
# Mechanical properties :
#
#
# Convention : Reuss Voigt Hill
#
# Bulk Modulus (GPa) = 31.10441 64.15147 47.62794
# Shear Modulus (GPa) = -35.81997 8.64492 -13.58752
#
# Velocity S-wave (km/s) = -4.01854 1.97418 -2.47501
# Velocity P-wave (km/s) = 2.74022 5.84105 3.64754
#
# Compressibility (1/GPa) = 0.03214978
#
# Stress axis : x y z
#
# Youngs Moduli (GPa) = 52.81737 137.61112 42.15141
#
# Poissons Ratio (x) = 0.09451 -0.02421
# Poissons Ratio (y) = 0.03627 0.36986
# Poissons Ratio (z) = -0.03033 1.20749
#
# Static dielectric constant tensor:
#      x y z
#    x 1.851490 0.000000 0.000000 
#    y 0.000000 1.795670 0.000000 
#    z 0.000000 0.000000 1.818420 
# 
# From -- ./inp_files/9925.got.cif
#   From: 2010.05.17/outbox.cif.g08.bks.cpg/sg65_5_cif.got.tgz:9925.got - 2010.06.03 17:01:31.
