data_PCOD9494451
_publ_section_title
;
Structure prediction by ZEFSAII (Michael W. Deem and Ramdas Pophale) SiO2 
 PCOD9494451
Probable space group: C M M M
;
_chemical_formula_sum "Si O2"
_cell_formula_units_Z 72
_cell_length_a 19.974207
_cell_length_b 7.614210
_cell_length_c 24.262717
_cell_angle_alpha 90.000000
_cell_angle_beta 90.000000
_cell_angle_gamma 90.000000
_cell_volume 3690.063413
_symmetry_space_group_name_H-M "C M M M"
_symmetry_group_IT_number 65
_symmetry_cell_setting 'orthorhombic'
loop_
_space_group_symop_operation_xyz
x,y,z
-x,-y,z
x,-y,-z
-x,y,-z
-x,-y,-z
x,y,-z
-x,y,z
x,-y,z
1/2+x,1/2+y,z
1/2-x,1/2-y,z
1/2+x,1/2-y,-z
1/2-x,1/2+y,-z
1/2-x,1/2-y,-z
1/2+x,1/2+y,-z
1/2-x,1/2+y,z
1/2+x,1/2-y,z
loop_
_atom_site_type_symbol
_atom_site_label
_atom_site_fract_x
_atom_site_fract_y
_atom_site_fract_z
Si Si1 0.576497 0.710864 0.282178
Si Si2 0.671105 0.288422 0.620302
Si Si3 0.672404 0.788901 0.938137
Si Si4 0.076282 0.288902 0.841871
Si Si5 0.829218 0.210369 0.500000
O O1 0.500000 0.777440 0.287704
O O2 0.573804 0.500000 0.287449
O O3 0.626030 0.778140 0.329451
O O4 0.599949 0.749330 0.220071
O O5 0.665439 0.500000 0.619339
O O6 0.750000 0.250000 0.627307
O O7 0.647382 0.223146 0.559772
O O8 0.750000 0.750000 0.926522
O O9 0.624259 0.721376 0.890066
O O10 0.665381 0.000000 0.939617
O O11 0.656978 0.722796 0.000000
O O12 0.073883 0.500000 0.846685
O O13 0.000000 0.222394 0.847101
O O14 0.750000 0.250000 0.500000
O O15 0.838965 0.000000 0.500000
#
# Coordination Sequence:
#
# PCOD9494451 Si02
#       5
#    16  16  16  16   8
#     4   9  18  32  47  64  90 121 149 180 221 265
#     4   9  17  29  46  67  89 115 148 184 221 262
#     4   9  18  32  49  69  93 119 146 180 222 264
#     4   9  18  32  49  68  89 116 151 186 219 258
#     4   8  14  26  43  63  87 113 143 180 220 260
#
# _framework density 19.511859000000001
#
# number of rings (size 3 to 8) (size 9 to 14) (size 15 to 20)
#    0.000    3.111    0.000    0.000    0.000    3.111 
#    0.000    7.222    0.000    3.333    0.000    6.222 
#    0.000   12.444    0.000    0.000    0.000    0.000 
#
# Total GULP energy -200596.345590 kJ/mol
# GULP energy per Si atom -5572.120711 kJ/mol
# Density = 1.946745 g / cm^3
# Si number density = 19.511859 Si / 1000 Ang^3
#
#
#
# Elastic Constant Matrix: (Units=GPa)
#
#
# Indices 1 2 3 4 5 6 
#
# 1 81.0605 2.0116 121.0601 0.0000 0.0000 0.0000
# 2 2.0116 42.0854 5.9997 0.0000 0.0000 0.0000
# 3 121.0601 5.9997 240.0653 0.0000 0.0000 0.0000
# 4 0.0000 0.0000 0.0000 17.1891 0.0000 0.0000
# 5 0.0000 0.0000 0.0000 0.0000 -404.4610 0.0000
# 6 0.0000 0.0000 0.0000 0.0000 0.0000 16.5222
#
#
#
# Elastic Compliance Matrix: (Units=1/GPa)
#
#
# Indices 1 2 3 4 5 6 
#
# 1 0.050031 0.001210 -0.025260 0.000000 0.000000 0.000000
# 2 0.001210 0.023875 -0.001207 0.000000 0.000000 0.000000
# 3 -0.025260 -0.001207 0.016934 0.000000 0.000000 0.000000
# 4 0.000000 0.000000 0.000000 0.058177 0.000000 0.000000
# 5 0.000000 0.000000 0.000000 0.000000 -0.002472 0.000000
# 6 0.000000 0.000000 0.000000 0.000000 0.000000 0.060525
#
#
# Mechanical properties :
#
#
# Convention : Reuss Voigt Hill
#
# Bulk Modulus (GPa) = 24.79779 69.03934 46.91857
# Shear Modulus (GPa) = 18.44858 -58.54063 -20.04603
#
# Velocity S-wave (km/s) = 3.07824 -5.48340 -3.20875
# Velocity P-wave (km/s) = 5.03694 2.15179 3.22029
#
# Compressibility (1/GPa) = 0.04032617
#
# Stress axis : x y z
#
# Youngs Moduli (GPa) = 19.98779 41.88413 59.05412
#
# Poissons Ratio (x) = -0.05066 1.49169
# Poissons Ratio (y) = -0.02418 0.07126
# Poissons Ratio (z) = 0.50488 0.05054
#
# Static dielectric constant tensor:
#      x y z
#    x 1.650480 0.000000 0.000000 
#    y 0.000000 1.752180 0.000000 
#    z 0.000000 0.000000 1.709750 
# 
# From -- ./inp_files/54110.got.cif
#   From: 2010.05.17/outbox.cif.g08.bks.cpg/sg65_28_cif.got.tgz:54110.got - 2010.06.03 17:01:31.
