data_PCOD9494994
_publ_section_title
;
Structure prediction by ZEFSAII (Michael W. Deem and Ramdas Pophale) SiO2 
 PCOD9494994
Probable space group: C C C M
;
_chemical_formula_sum "Si O2"
_cell_formula_units_Z 64
_cell_length_a 34.457610
_cell_length_b 5.380415
_cell_length_c 14.797818
_cell_angle_alpha 90.000000
_cell_angle_beta 90.000000
_cell_angle_gamma 90.000000
_cell_volume 2743.459843
_symmetry_space_group_name_H-M "C C C M"
_symmetry_group_IT_number 66
_symmetry_cell_setting 'orthorhombic'
loop_
_space_group_symop_operation_xyz
x,y,z
-x,-y,z
x,-y,1/2-z
-x,y,1/2-z
-x,-y,-z
x,y,-z
-x,y,1/2+z
x,-y,1/2+z
1/2+x,1/2+y,z
1/2-x,1/2-y,z
1/2+x,1/2-y,1/2-z
1/2-x,1/2+y,1/2-z
1/2-x,1/2-y,-z
1/2+x,1/2+y,-z
1/2-x,1/2+y,1/2+z
1/2+x,1/2-y,1/2+z
loop_
_atom_site_type_symbol
_atom_site_label
_atom_site_fract_x
_atom_site_fract_y
_atom_site_fract_z
Si Si1 0.895540 0.544227 0.354777
Si Si2 0.637547 0.468279 0.645128
Si Si3 0.772608 0.001421 0.609189
Si Si4 0.483272 0.242866 0.646647
O O1 0.884498 0.500000 0.250000
O O2 0.886376 0.268796 0.392844
O O3 0.937962 0.674375 0.352941
O O4 0.870528 0.762672 0.397723
O O5 0.625100 0.500000 0.750000
O O6 0.683677 0.447716 0.641681
O O7 0.774287 0.987199 0.500000
O O8 0.750000 0.750000 0.639626
O O9 0.750000 0.250000 0.634945
O O10 0.500000 0.500000 0.608447
O O11 0.500000 0.245666 0.750000
O O12 0.500000 0.000000 0.600214
#
# Coordination Sequence:
#
# PCOD9494994 Si02
#       4
#    16  16  16  16
#     4  10  18  30  43  69 108 141 166 203 262 305
#     4  10  21  32  50  75 107 139 161 212 261 318
#     4  10  21  38  58  77  99 131 176 220 255 305
#     4  10  17  24  41  63  95 143 170 204 238 303
#
# _framework density 23.328206999999999
#
# number of rings (size 3 to 8) (size 9 to 14) (size 15 to 20)
#    0.000    2.000    2.500    3.000    7.000    1.000 
#    0.000    0.000    0.000    0.000    0.000    0.000 
#    0.000   20.000    0.000    0.000    0.000    1.000 
#
# Total GULP energy -178199.921740 kJ/mol
# GULP energy per Si atom -5568.747554 kJ/mol
# Density = 2.327511 g / cm^3
# Si number density = 23.328207 Si / 1000 Ang^3
#
#
#
# Elastic Constant Matrix: (Units=GPa)
#
#
# Indices 1 2 3 4 5 6 
#
# 1 129.4190 78.7240 -3.3590 0.0000 0.0000 0.0000
# 2 78.7240 286.5094 16.6544 0.0000 0.0000 0.0000
# 3 -3.3590 16.6544 80.7083 0.0000 0.0000 0.0000
# 4 0.0000 0.0000 0.0000 -20.1873 0.0000 0.0000
# 5 0.0000 0.0000 0.0000 0.0000 95.2615 0.0000
# 6 0.0000 0.0000 0.0000 0.0000 0.0000 52.5263
#
#
#
# Elastic Compliance Matrix: (Units=1/GPa)
#
#
# Indices 1 2 3 4 5 6 
#
# 1 0.009346 -0.002622 0.000930 0.000000 0.000000 0.000000
# 2 -0.002622 0.004268 -0.000990 0.000000 0.000000 0.000000
# 3 0.000930 -0.000990 0.012633 0.000000 0.000000 0.000000
# 4 0.000000 0.000000 0.000000 -0.049536 0.000000 0.000000
# 5 0.000000 0.000000 0.000000 0.000000 0.010497 0.000000
# 6 0.000000 0.000000 0.000000 0.000000 0.000000 0.019038
#
#
# Mechanical properties :
#
#
# Convention : Reuss Voigt Hill
#
# Bulk Modulus (GPa) = 47.88428 75.63061 61.75745
# Shear Modulus (GPa) = 269.22291 52.49457 160.85874
#
# Velocity S-wave (km/s) = 10.75440 4.74884 8.31290
# Velocity P-wave (km/s) = 13.22045 7.90944 10.89357
#
# Compressibility (1/GPa) = 0.02088368
#
# Stress axis : x y z
#
# Youngs Moduli (GPa) = 106.99841 234.28625 79.15603
#
# Poissons Ratio (x) = 0.61431 -0.07362
# Poissons Ratio (y) = 0.28055 0.07836
# Poissons Ratio (z) = -0.09951 0.23192
#
# Static dielectric constant tensor:
#      x y z
#    x 1.913890 0.000000 0.000000 
#    y 0.000000 1.923150 0.000000 
#    z 0.000000 0.000000 1.854020 
# 
# From -- ./inp_files/35055.got.cif
#   From: 2010.05.17/outbox.cif.g08.bks.cpg/sg66_18_cif.got.tgz:35055.got - 2010.06.03 17:51:23.
