data_PCOD9494401
_publ_section_title
;
Structure prediction by ZEFSAII (Michael W. Deem and Ramdas Pophale) SiO2 
 PCOD9494401
Probable space group: C M M M
;
_chemical_formula_sum "Si O2"
_cell_formula_units_Z 72
_cell_length_a 7.373811
_cell_length_b 19.938678
_cell_length_c 24.395953
_cell_angle_alpha 90.000000
_cell_angle_beta 90.000000
_cell_angle_gamma 90.000000
_cell_volume 3586.791647
_symmetry_space_group_name_H-M "C M M M"
_symmetry_group_IT_number 65
_symmetry_cell_setting 'orthorhombic'
loop_
_space_group_symop_operation_xyz
x,y,z
-x,-y,z
x,-y,-z
-x,y,-z
-x,-y,-z
x,y,-z
-x,y,z
x,-y,z
1/2+x,1/2+y,z
1/2-x,1/2-y,z
1/2+x,1/2-y,-z
1/2-x,1/2+y,-z
1/2-x,1/2-y,-z
1/2+x,1/2+y,-z
1/2-x,1/2+y,z
1/2+x,1/2-y,z
loop_
_atom_site_type_symbol
_atom_site_label
_atom_site_fract_x
_atom_site_fract_y
_atom_site_fract_z
Si Si1 0.716749 0.828434 0.438703
Si Si2 0.278927 0.922526 0.218020
Si Si3 0.783811 0.329920 0.000000
Si Si4 0.217206 0.670482 0.880417
Si Si5 0.778944 0.577345 0.341292
O O1 0.786603 0.843963 0.500000
O O2 0.500000 0.837894 0.440500
O O3 0.750000 0.750000 0.428051
O O4 0.786010 0.874614 0.389645
O O5 0.500000 0.921273 0.217817
O O6 0.214733 0.873106 0.170407
O O7 0.222193 0.903101 0.279683
O O8 0.226301 0.000000 0.208510
O O9 0.750000 0.250000 0.000000
O O10 0.713717 0.352528 0.940538
O O11 0.000000 0.341649 0.000000
O O12 0.250000 0.750000 0.873662
O O13 0.000000 0.662302 0.881763
O O14 0.726596 0.500000 0.350479
O O15 0.000000 0.578972 0.341380
#
# Coordination Sequence:
#
# PCOD9494401 Si02
#       5
#    16  16   8  16  16
#     4   9  17  28  42  61  84 107 130 160 198 235
#     4   8  14  25  40  58  81 106 130 160 199 237
#     4   8  14  24  37  55  79 103 127 158 194 230
#     4   9  16  26  41  60  80 103 132 163 195 232
#     4   8  14  25  41  60  80 103 133 166 196 228
#
# _framework density 20.073651000000002
#
# number of rings (size 3 to 8) (size 9 to 14) (size 15 to 20)
#    0.000    3.556    0.000    1.333    0.000    1.333 
#    0.000    2.778    0.000    4.667    0.000    6.222 
#    0.000    8.889    0.000    0.000    0.000    0.000 
#
# Total GULP energy -200608.023721 kJ/mol
# GULP energy per Si atom -5572.445103 kJ/mol
# Density = 2.002796 g / cm^3
# Si number density = 20.073651 Si / 1000 Ang^3
#
#
#
# Elastic Constant Matrix: (Units=GPa)
#
#
# Indices 1 2 3 4 5 6 
#
# 1 73.5814 1.3304 11.4718 0.0000 0.0000 0.0000
# 2 1.3304 91.6267 138.9054 0.0000 0.0000 0.0000
# 3 11.4718 138.9054 267.8642 0.0000 0.0000 0.0000
# 4 0.0000 0.0000 0.0000 110.1484 0.0000 0.0000
# 5 0.0000 0.0000 0.0000 0.0000 -3.3286 0.0000
# 6 0.0000 0.0000 0.0000 0.0000 0.0000 11.2486
#
#
#
# Elastic Compliance Matrix: (Units=1/GPa)
#
#
# Indices 1 2 3 4 5 6 
#
# 1 0.013889 0.003273 -0.002292 0.000000 0.000000 0.000000
# 2 0.003273 0.051805 -0.027005 0.000000 0.000000 0.000000
# 3 -0.002292 -0.027005 0.017835 0.000000 0.000000 0.000000
# 4 0.000000 0.000000 0.000000 0.009079 0.000000 0.000000
# 5 0.000000 0.000000 0.000000 0.000000 -0.300423 0.000000
# 6 0.000000 0.000000 0.000000 0.000000 0.000000 0.088900
#
#
# Mechanical properties :
#
#
# Convention : Reuss Voigt Hill
#
# Bulk Modulus (GPa) = 31.76429 81.83196 56.79813
# Shear Modulus (GPa) = -88.69200 42.37131 -23.16035
#
# Velocity S-wave (km/s) = -6.65426 4.59932 -3.40040
# Velocity P-wave (km/s) = 6.57120 8.31020 3.59713
#
# Compressibility (1/GPa) = 0.03148189
#
# Stress axis : x y z
#
# Youngs Moduli (GPa) = 72.00159 19.30315 56.06934
#
# Poissons Ratio (x) = -0.06319 0.12853
# Poissons Ratio (y) = -0.23570 1.51413
# Poissons Ratio (z) = 0.16505 0.52127
#
# Static dielectric constant tensor:
#      x y z
#    x 1.787090 0.000000 0.000000 
#    y 0.000000 1.648740 0.000000 
#    z 0.000000 0.000000 1.739550 
# 
# From -- ./inp_files/51275.got.cif
#   From: 2010.05.17/outbox.cif.g08.bks.cpg/sg65_26_cif.got.tgz:51275.got - 2010.06.03 17:01:31.
