data_PCOD9494026
_publ_section_title
;
Structure prediction by ZEFSAII (Michael W. Deem and Ramdas Pophale) SiO2 
 PCOD9494026
Probable space group: C M M M
;
_chemical_formula_sum "Si O2"
_cell_formula_units_Z 120
_cell_length_a 14.557875
_cell_length_b 19.929068
_cell_length_c 23.821692
_cell_angle_alpha 90.000000
_cell_angle_beta 90.000000
_cell_angle_gamma 90.000000
_cell_volume 6911.265552
_symmetry_space_group_name_H-M "C M M M"
_symmetry_group_IT_number 65
_symmetry_cell_setting 'orthorhombic'
loop_
_space_group_symop_operation_xyz
x,y,z
-x,-y,z
x,-y,-z
-x,y,-z
-x,-y,-z
x,y,-z
-x,y,z
x,-y,z
1/2+x,1/2+y,z
1/2-x,1/2-y,z
1/2+x,1/2-y,-z
1/2-x,1/2+y,-z
1/2-x,1/2-y,-z
1/2+x,1/2+y,-z
1/2-x,1/2+y,z
1/2+x,1/2-y,z
loop_
_atom_site_type_symbol
_atom_site_label
_atom_site_fract_x
_atom_site_fract_y
_atom_site_fract_z
Si Si1 0.609386 0.500000 0.064688
Si Si2 0.103986 0.418365 0.331809
Si Si3 0.774289 0.418223 0.436325
Si Si4 0.773917 0.081202 0.255986
Si Si5 0.104041 0.081571 0.638199
Si Si6 0.394452 0.279823 0.064147
Si Si7 0.604006 0.882080 0.064648
Si Si8 0.786019 0.115859 0.128328
O O1 0.500000 0.500000 0.063961
O O2 0.646357 0.436274 0.098224
O O3 0.642002 0.500000 0.000000
O O4 0.102657 0.500000 0.331876
O O5 0.147809 0.397915 0.391630
O O6 0.176296 0.399000 0.283586
O O7 0.000000 0.394739 0.324026
O O8 0.787422 0.395117 0.500000
O O9 0.774889 0.500000 0.437110
O O10 0.676259 0.397739 0.409808
O O11 0.851283 0.099663 0.301836
O O12 0.789270 0.111182 0.195016
O O13 0.774859 0.000000 0.250693
O O14 0.000000 0.105572 0.631269
O O15 0.102189 0.000000 0.636866
O O16 0.500000 0.300993 0.076016
O O17 0.394198 0.199263 0.065502
O O18 0.321882 0.313159 0.105276
O O19 0.372227 0.300564 0.000000
O O20 0.500000 0.903478 0.079206
O O21 0.684544 0.902936 0.106111
O O22 0.622291 0.902741 0.000000
#
# Coordination Sequence:
#
# PCOD9494026 Si02
#       8
#     8  16  16  16  16  16  16  16
#     4  11  24  36  45  65  95 119 141 176 224 278
#     4   8  14  25  39  49  68 104 140 177 215 247
#     4   8  13  20  31  51  74  91 124 178 223 257
#     4   9  18  30  37  55  81 108 148 181 204 246
#     4   8  14  24  36  47  68 105 140 170 205 243
#     4   9  18  33  52  72  90 109 139 180 226 276
#     4   9  19  35  53  71  88 108 141 184 226 273
#     4  12  20  31  49  68  89 119 148 179 224 270
#
# _framework density 17.362956000000001
#
# number of rings (size 3 to 8) (size 9 to 14) (size 15 to 20)
#    0.000    2.867    0.667    4.400    0.000    4.267 
#    0.000    3.000    0.000    1.200    0.000    0.000 
#    0.000    0.000    0.000    0.000    0.000   42.667 
#
# Total GULP energy -334341.423259 kJ/mol
# GULP energy per Si atom -5572.357054 kJ/mol
# Density = 1.732344 g / cm^3
# Si number density = 17.362956 Si / 1000 Ang^3
#
#
#
# Elastic Constant Matrix: (Units=GPa)
#
#
# Indices 1 2 3 4 5 6 
#
# 1 81.2868 5.3819 29.2699 0.0000 0.0000 0.0000
# 2 5.3819 8.9241 7.9017 0.0000 0.0000 0.0000
# 3 29.2699 7.9017 108.4561 0.0000 0.0000 0.0000
# 4 0.0000 0.0000 0.0000 25.6645 0.0000 0.0000
# 5 0.0000 0.0000 0.0000 0.0000 -1.6245 0.0000
# 6 0.0000 0.0000 0.0000 0.0000 0.0000 8.6439
#
#
#
# Elastic Compliance Matrix: (Units=1/GPa)
#
#
# Indices 1 2 3 4 5 6 
#
# 1 0.013865 -0.005397 -0.003349 0.000000 0.000000 0.000000
# 2 -0.005397 0.121884 -0.007423 0.000000 0.000000 0.000000
# 3 -0.003349 -0.007423 0.010665 0.000000 0.000000 0.000000
# 4 0.000000 0.000000 0.000000 0.038964 0.000000 0.000000
# 5 0.000000 0.000000 0.000000 0.000000 -0.615574 0.000000
# 6 0.000000 0.000000 0.000000 0.000000 0.000000 0.115688
#
#
# Mechanical properties :
#
#
# Convention : Reuss Voigt Hill
#
# Bulk Modulus (GPa) = 8.76607 31.53043 20.14825
# Shear Modulus (GPa) = -20.47975 16.94435 -1.76770
#
# Velocity S-wave (km/s) = -3.43812 3.12731 -1.01010
# Velocity P-wave (km/s) = 3.27127 5.58920 3.20452
#
# Compressibility (1/GPa) = 0.11407619
#
# Stress axis : x y z
#
# Youngs Moduli (GPa) = 72.12271 8.20453 93.76532
#
# Poissons Ratio (x) = 0.04428 0.31400
# Poissons Ratio (y) = 0.38923 0.69607
# Poissons Ratio (z) = 0.24152 0.06091
#
# Static dielectric constant tensor:
#      x y z
#    x 1.618310 0.000000 0.000000 
#    y 0.000000 1.604410 0.000000 
#    z 0.000000 0.000000 1.571610 
# 
# From -- ./inp_files/63027.got.cif
#   From: 2010.05.17/outbox.cif.g08.bks.cpg/sg65_32_cif.got.tgz:63027.got - 2010.06.03 17:01:31.
