data_PCOD9494099
_publ_section_title
;
Structure prediction by ZEFSAII (Michael W. Deem and Ramdas Pophale) SiO2 
 PCOD9494099
Probable space group: C M M M
;
_chemical_formula_sum "Si O2"
_cell_formula_units_Z 64
_cell_length_a 21.950410
_cell_length_b 17.922165
_cell_length_c 7.782432
_cell_angle_alpha 90.000000
_cell_angle_beta 90.000000
_cell_angle_gamma 90.000000
_cell_volume 3061.599953
_symmetry_space_group_name_H-M "C M M M"
_symmetry_group_IT_number 65
_symmetry_cell_setting 'orthorhombic'
loop_
_space_group_symop_operation_xyz
x,y,z
-x,-y,z
x,-y,-z
-x,y,-z
-x,-y,-z
x,y,-z
-x,y,z
x,-y,z
1/2+x,1/2+y,z
1/2-x,1/2-y,z
1/2+x,1/2-y,-z
1/2-x,1/2+y,-z
1/2-x,1/2-y,-z
1/2+x,1/2+y,-z
1/2-x,1/2+y,z
1/2+x,1/2-y,z
loop_
_atom_site_type_symbol
_atom_site_label
_atom_site_fract_x
_atom_site_fract_y
_atom_site_fract_z
Si Si1 0.069556 0.835685 0.794268
Si Si2 0.426302 0.500000 0.803707
Si Si3 0.000000 0.590449 0.193968
Si Si4 0.368084 0.085187 0.209630
Si Si5 0.184182 0.734838 0.698834
O O1 0.123691 0.776845 0.765493
O O2 0.000000 0.816379 0.733412
O O3 0.088162 0.918579 0.726088
O O4 0.064415 0.843653 0.000000
O O5 0.500000 0.500000 0.812042
O O6 0.401967 0.500000 0.000000
O O7 0.935611 0.608090 0.274449
O O8 0.000000 0.500000 0.178984
O O9 0.000000 0.622230 0.000000
O O10 0.323979 0.146600 0.280576
O O11 0.355534 0.000000 0.258334
O O12 0.369540 0.087691 0.000000
O O13 0.187163 0.756646 0.500000
O O14 0.250000 0.750000 0.781702
#
# Coordination Sequence:
#
# PCOD9494099 Si02
#       5
#    16   8   8  16  16
#     4   9  18  35  62  90 113 141 181 235 291 336
#     4   7  12  28  55  87 115 135 168 225 288 339
#     4   7  12  26  51  83 111 130 159 214 277 327
#     4   9  18  35  60  86 110 140 182 233 284 331
#     4  11  25  41  53  75 117 161 193 225 271 330
#
# _framework density 20.904102000000002
#
# number of rings (size 3 to 8) (size 9 to 14) (size 15 to 20)
#    0.000    3.000    0.000    3.750    1.750    3.000 
#    2.250    0.625    0.000    4.500    0.000    0.000 
#    0.000    0.000    0.000    0.000    0.000    0.000 
#
# Total GULP energy -178138.904471 kJ/mol
# GULP energy per Si atom -5566.840765 kJ/mol
# Density = 2.085652 g / cm^3
# Si number density = 20.904102 Si / 1000 Ang^3
#
#
#
# Elastic Constant Matrix: (Units=GPa)
#
#
# Indices 1 2 3 4 5 6 
#
# 1 126.1162 69.1460 5.7209 0.0000 0.0000 0.0000
# 2 69.1460 106.0062 -3.0941 0.0000 0.0000 0.0000
# 3 5.7209 -3.0941 29.2394 0.0000 0.0000 0.0000
# 4 0.0000 0.0000 0.0000 73.3305 0.0000 0.0000
# 5 0.0000 0.0000 0.0000 0.0000 10.2719 0.0000
# 6 0.0000 0.0000 0.0000 0.0000 0.0000 31.4587
#
#
#
# Elastic Compliance Matrix: (Units=1/GPa)
#
#
# Indices 1 2 3 4 5 6 
#
# 1 0.012665 -0.008359 -0.003363 0.000000 0.000000 0.000000
# 2 -0.008359 0.014980 0.003221 0.000000 0.000000 0.000000
# 3 -0.003363 0.003221 0.035199 0.000000 0.000000 0.000000
# 4 0.000000 0.000000 0.000000 0.013637 0.000000 0.000000
# 5 0.000000 0.000000 0.000000 0.000000 0.097353 0.000000
# 6 0.000000 0.000000 0.000000 0.000000 0.000000 0.031788
#
#
# Mechanical properties :
#
#
# Convention : Reuss Voigt Hill
#
# Bulk Modulus (GPa) = 21.81411 44.98969 33.40190
# Shear Modulus (GPa) = 21.01689 35.65149 28.33419
#
# Velocity S-wave (km/s) = 3.17424 4.13422 3.68562
# Velocity P-wave (km/s) = 4.88798 6.66016 5.84166
#
# Compressibility (1/GPa) = 0.04584190
#
# Stress axis : x y z
#
# Youngs Moduli (GPa) = 78.95876 66.75582 28.40980
#
# Poissons Ratio (x) = 0.55802 0.09553
# Poissons Ratio (y) = 0.66003 -0.09150
# Poissons Ratio (z) = 0.26550 -0.21500
#
# Static dielectric constant tensor:
#      x y z
#    x 1.778260 0.000000 0.000000 
#    y 0.000000 1.776260 0.000000 
#    z 0.000000 0.000000 1.784040 
# 
# From -- ./inp_files/10858.got.cif
#   From: 2010.05.17/outbox.cif.g08.bks.cpg/sg65_6_cif.got.tgz:10858.got - 2010.06.03 17:01:31.
