data_PCOD9494572
_publ_section_title
;
Structure prediction by ZEFSAII (Michael W. Deem and Ramdas Pophale) SiO2 
 PCOD9494572
Probable space group: C M M M
;
_chemical_formula_sum "Si O2"
_cell_formula_units_Z 36
_cell_length_a 9.000000
_cell_length_b 21.000000
_cell_length_c 21.000000
_cell_angle_alpha 90.000000
_cell_angle_beta 90.000000
_cell_angle_gamma 90.000000
_cell_volume 3969.000000
_symmetry_space_group_name_H-M "C M M M"
_symmetry_group_IT_number 65
_symmetry_cell_setting 'orthorhombic'
loop_
_space_group_symop_operation_xyz
x,y,z
-x,-y,z
x,-y,-z
-x,y,-z
-x,-y,-z
x,y,-z
-x,y,z
x,-y,z
1/2+x,1/2+y,z
1/2-x,1/2-y,z
1/2+x,1/2-y,-z
1/2-x,1/2+y,-z
1/2-x,1/2-y,-z
1/2+x,1/2+y,-z
1/2-x,1/2+y,z
1/2+x,1/2-y,z
loop_
_atom_site_type_symbol
_atom_site_label
_atom_site_fract_x
_atom_site_fract_y
_atom_site_fract_z
Si Si1 0.321251 0.820767 0.000000
Si Si2 0.175353 0.071794 0.767420
Si Si3 0.834916 0.188908 0.575894
Si Si4 0.821599 0.819851 0.129057
Si Si5 0.676610 0.070407 0.368897
O O1 0.250000 0.750000 0.000000
O O2 0.255091 0.847620 0.934700
O O3 0.500000 0.819136 0.000000
O O4 0.205452 0.129255 0.815435
O O5 0.269396 0.078665 0.703449
O O6 0.000000 0.074539 0.751199
O O7 0.203268 0.000000 0.793464
O O8 0.845439 0.196870 0.500000
O O9 0.750000 0.250000 0.602607
O O10 0.747255 0.125346 0.589930
O O11 0.000000 0.185070 0.602954
O O12 0.750000 0.750000 0.141702
O O13 0.000000 0.812488 0.119978
O O14 0.500000 0.073780 0.371871
O O15 0.725041 0.000000 0.390017
#
# Coordination Sequence:
#
# PCOD9494572 Si02
#       5
#     8  16  16  16  16
#     4  10  18  30  49  72 101 133 165 205 251 300
#     4   9  19  36  55  74 100 136 175 214 256 302
#     4  10  21  37  57  80 107 139 174 215 262 310
#     4  10  19  32  52  76 101 130 167 210 254 302
#     4  10  21  36  55  79 107 140 176 215 259 308
#
# _framework density 9.0702949999999998
#
# number of rings (size 3 to 8) (size 9 to 14) (size 15 to 20)
#    0.000    2.222    0.000    4.333    0.000    5.778 
#    0.000    5.000    0.000    3.333    0.000    0.000 
#    0.000    0.000    0.000    0.000    0.000    0.000 
#
# Total GULP energy -200671.244948 kJ/mol
# GULP energy per Si atom -5574.201249 kJ/mol
# Density = 0.904965 g / cm^3
# Si number density = 9.070295 Si / 1000 Ang^3
#
#
#
# Elastic Constant Matrix: (Units=GPa)
#
#
# Indices 1 2 3 4 5 6 
#
# 1 79.0978 51.3269 17.9136 0.0000 0.0000 0.0000
# 2 51.3269 95.3550 20.4682 0.0000 0.0000 0.0000
# 3 17.9136 20.4682 -0.4016 0.0000 0.0000 0.0000
# 4 0.0000 0.0000 0.0000 -15.0431 0.0000 0.0000
# 5 0.0000 0.0000 0.0000 0.0000 26.5996 0.0000
# 6 0.0000 0.0000 0.0000 0.0000 0.0000 25.9099
#
#
#
# Elastic Compliance Matrix: (Units=1/GPa)
#
#
# Indices 1 2 3 4 5 6 
#
# 1 0.016290 -0.013797 0.023427 0.000000 0.000000 0.000000
# 2 -0.013797 0.012564 0.024922 0.000000 0.000000 0.000000
# 3 0.023427 0.024922 -0.174853 0.000000 0.000000 0.000000
# 4 0.000000 0.000000 0.000000 -0.066476 0.000000 0.000000
# 5 0.000000 0.000000 0.000000 0.000000 0.037594 0.000000
# 6 0.000000 0.000000 0.000000 0.000000 0.000000 0.038595
#
#
# Mechanical properties :
#
#
# Convention : Reuss Voigt Hill
#
# Bulk Modulus (GPa) = -13.00498 39.27428 13.13465
# Shear Modulus (GPa) = -21.64310 13.11612 -4.26349
#
# Velocity S-wave (km/s) = -3.45784 2.69183 -1.53472
# Velocity P-wave (km/s) = 4.80903 5.59984 2.02872
#
# Compressibility (1/GPa) = -0.07689363
#
# Stress axis : x y z
#
# Youngs Moduli (GPa) = 61.38767 79.59148 -5.71910
#
# Poissons Ratio (x) = 1.09814 0.13398
# Poissons Ratio (y) = 0.84698 0.14253
# Poissons Ratio (z) = -1.43816 -1.98359
#
# Static dielectric constant tensor:
#      x y z
#    x 1.621710 0.000000 0.000000 
#    y 0.000000 1.626640 0.000000 
#    z 0.000000 0.000000 1.640360 
# 
# From -- ./inp_files/49525.got.cif
#   From: 2010.05.17/outbox.ucp.g08.bks.cvg/sg65_25_cif.got.tgz:49525.got - 2010.06.11 16:39:57.
