data_PCOD9494321
_publ_section_title
;
Structure prediction by ZEFSAII (Michael W. Deem and Ramdas Pophale) SiO2 
 PCOD9494321
Probable space group: C M M M
;
_chemical_formula_sum "Si O2"
_cell_formula_units_Z 80
_cell_length_a 9.756023
_cell_length_b 14.303612
_cell_length_c 26.483752
_cell_angle_alpha 90.000000
_cell_angle_beta 90.000000
_cell_angle_gamma 90.000000
_cell_volume 3695.711393
_symmetry_space_group_name_H-M "C M M M"
_symmetry_group_IT_number 65
_symmetry_cell_setting 'orthorhombic'
loop_
_space_group_symop_operation_xyz
x,y,z
-x,-y,z
x,-y,-z
-x,y,-z
-x,-y,-z
x,y,-z
-x,y,z
x,-y,z
1/2+x,1/2+y,z
1/2-x,1/2-y,z
1/2+x,1/2-y,-z
1/2-x,1/2+y,-z
1/2-x,1/2-y,-z
1/2+x,1/2+y,-z
1/2-x,1/2+y,z
1/2+x,1/2-y,z
loop_
_atom_site_type_symbol
_atom_site_label
_atom_site_fract_x
_atom_site_fract_y
_atom_site_fract_z
Si Si1 0.155753 0.113999 0.442369
Si Si2 0.844613 0.114261 0.744142
Si Si3 0.156143 0.385910 0.649641
Si Si4 0.652978 0.891472 0.167530
Si Si5 0.162838 0.343942 0.054466
O O1 0.184882 0.142548 0.500000
O O2 0.267673 0.143174 0.401641
O O3 0.000000 0.142963 0.429056
O O4 0.155052 0.000000 0.441977
O O5 0.748909 0.140879 0.697275
O O6 0.770236 0.145149 0.795669
O O7 0.000000 0.148723 0.739760
O O8 0.852021 0.000000 0.743843
O O9 0.151780 0.500000 0.649585
O O10 0.000000 0.352594 0.653178
O O11 0.500000 0.849125 0.173742
O O12 0.691360 0.889863 0.108419
O O13 0.639648 0.000000 0.181818
O O14 0.250000 0.250000 0.054452
O O15 0.000000 0.325002 0.054855
O O16 0.191091 0.391594 0.000000
#
# Coordination Sequence:
#
# PCOD9494321 Si02
#       5
#    16  16  16  16  16
#     4   8  13  20  28  38  55  82 118 160 203 245
#     4   9  16  25  37  53  74 100 130 165 207 254
#     4   9  15  21  30  44  63  89 122 161 204 248
#     4   9  17  29  45  65  88 112 141 179 218 254
#     4   9  18  32  49  68  90 117 146 175 210 254
#
# _framework density 21.646712000000001
#
# number of rings (size 3 to 8) (size 9 to 14) (size 15 to 20)
#    0.000    3.200    0.000    1.800    0.000    6.400 
#    0.000    4.000    0.000    0.000    0.000    5.600 
#    0.000    0.000    0.000    0.000    0.000    1.000 
#
# Total GULP energy -223111.200866 kJ/mol
# GULP energy per Si atom -5577.780022 kJ/mol
# Density = 2.159744 g / cm^3
# Si number density = 21.646712 Si / 1000 Ang^3
#
#
#
# Elastic Constant Matrix: (Units=GPa)
#
#
# Indices 1 2 3 4 5 6 
#
# 1 179.7755 15.8191 141.1306 0.0000 0.0000 0.0000
# 2 15.8191 54.8725 -1.5352 0.0000 0.0000 0.0000
# 3 141.1306 -1.5352 180.2139 0.0000 0.0000 0.0000
# 4 0.0000 0.0000 0.0000 84.1028 0.0000 0.0000
# 5 0.0000 0.0000 0.0000 0.0000 46.0231 0.0000
# 6 0.0000 0.0000 0.0000 0.0000 0.0000 3.1000
#
#
#
# Elastic Compliance Matrix: (Units=1/GPa)
#
#
# Indices 1 2 3 4 5 6 
#
# 1 0.015632 -0.004850 -0.012283 0.000000 0.000000 0.000000
# 2 -0.004850 0.019733 0.003966 0.000000 0.000000 0.000000
# 3 -0.012283 0.003966 0.015202 0.000000 0.000000 0.000000
# 4 0.000000 0.000000 0.000000 0.011890 0.000000 0.000000
# 5 0.000000 0.000000 0.000000 0.000000 0.021728 0.000000
# 6 0.000000 0.000000 0.000000 0.000000 0.000000 0.322586
#
#
# Mechanical properties :
#
#
# Convention : Reuss Voigt Hill
#
# Bulk Modulus (GPa) = 41.26526 80.63231 60.94878
# Shear Modulus (GPa) = 11.33315 43.94167 27.63741
#
# Velocity S-wave (km/s) = 2.29061 4.51038 3.57704
# Velocity P-wave (km/s) = 5.10884 8.02837 6.72886
#
# Compressibility (1/GPa) = 0.02423346
#
# Stress axis : x y z
#
# Youngs Moduli (GPa) = 63.97090 50.67578 65.78028
#
# Poissons Ratio (x) = 0.24579 0.80800
# Poissons Ratio (y) = 0.31027 -0.26091
# Poissons Ratio (z) = 0.78577 -0.20100
#
# Static dielectric constant tensor:
#      x y z
#    x 1.752370 0.000000 0.000000 
#    y 0.000000 1.826880 0.000000 
#    z 0.000000 0.000000 1.790350 
# 
# From -- ./inp_files/72806.got.cif
#   From: 2010.05.17/outbox.cif.g08.bks.cpg/sg65_37_cif.got.tgz:72806.got - 2010.06.03 17:01:31.
