data_PCOD9494903
_publ_section_title
;
Structure prediction by ZEFSAII (Michael W. Deem and Ramdas Pophale) SiO2 
 PCOD9494903
Probable space group: C C C M
;
_chemical_formula_sum "Si O2"
_cell_formula_units_Z 64
_cell_length_a 7.683681
_cell_length_b 20.289077
_cell_length_c 18.791147
_cell_angle_alpha 90.000000
_cell_angle_beta 90.000000
_cell_angle_gamma 90.000000
_cell_volume 2929.442018
_symmetry_space_group_name_H-M "C C C M"
_symmetry_group_IT_number 66
_symmetry_cell_setting 'orthorhombic'
loop_
_space_group_symop_operation_xyz
x,y,z
-x,-y,z
x,-y,1/2-z
-x,y,1/2-z
-x,-y,-z
x,y,-z
-x,y,1/2+z
x,-y,1/2+z
1/2+x,1/2+y,z
1/2-x,1/2-y,z
1/2+x,1/2-y,1/2-z
1/2-x,1/2+y,1/2-z
1/2-x,1/2-y,-z
1/2+x,1/2+y,-z
1/2-x,1/2+y,1/2+z
1/2+x,1/2-y,1/2+z
loop_
_atom_site_type_symbol
_atom_site_label
_atom_site_fract_x
_atom_site_fract_y
_atom_site_fract_z
Si Si1 0.530704 0.149189 0.666407
Si Si2 0.456971 0.270455 0.581084
Si Si3 0.187066 0.461443 0.919004
Si Si4 0.308397 0.401889 0.584603
O O1 0.500000 0.149960 0.750000
O O2 0.553937 0.222134 0.634629
O O3 0.670874 0.096843 0.637480
O O4 0.353373 0.122921 0.630418
O O5 0.515861 0.259310 0.500000
O O6 0.250000 0.250000 0.582828
O O7 0.458759 0.348368 0.597642
O O8 0.320513 0.520382 0.902475
O O9 0.000000 0.500000 0.919982
O O10 0.217050 0.436999 0.000000
O O11 0.267826 0.395363 0.500000
#
# Coordination Sequence:
#
# PCOD9494903 Si02
#       4
#    16  16  16  16
#     4  10  16  19  28  50  78 101 120 148 193 238
#     4   8  13  23  36  46  62  97 138 164 181 214
#     4   8  13  21  31  44  65  94 126 157 187 220
#     4   8  14  24  36  46  62  98 140 164 180 215
#
# _framework density 21.847163999999999
#
# number of rings (size 3 to 8) (size 9 to 14) (size 15 to 20)
#    0.000    3.500    0.000    5.250    0.000    4.500 
#    0.000    0.000    0.000    0.000    0.000    0.000 
#    0.000   81.000    0.000   45.000    0.000  364.500 
#
# Total GULP energy -178379.991098 kJ/mol
# GULP energy per Si atom -5574.374722 kJ/mol
# Density = 2.179744 g / cm^3
# Si number density = 21.847164 Si / 1000 Ang^3
#
#
#
# Elastic Constant Matrix: (Units=GPa)
#
#
# Indices 1 2 3 4 5 6 
#
# 1 56.9159 44.0726 29.0184 0.0000 0.0000 0.0000
# 2 44.0726 189.5973 128.4119 0.0000 0.0000 0.0000
# 3 29.0184 128.4119 125.7063 0.0000 0.0000 0.0000
# 4 0.0000 0.0000 0.0000 16.9323 0.0000 0.0000
# 5 0.0000 0.0000 0.0000 0.0000 -5.9659 0.0000
# 6 0.0000 0.0000 0.0000 0.0000 0.0000 8.1965
#
#
#
# Elastic Compliance Matrix: (Units=1/GPa)
#
#
# Indices 1 2 3 4 5 6 
#
# 1 0.021435 -0.005294 0.000460 0.000000 0.000000 0.000000
# 2 -0.005294 0.018425 -0.017599 0.000000 0.000000 0.000000
# 3 0.000460 -0.017599 0.025827 0.000000 0.000000 0.000000
# 4 0.000000 0.000000 0.000000 0.059059 0.000000 0.000000
# 5 0.000000 0.000000 0.000000 0.000000 -0.167620 0.000000
# 6 0.000000 0.000000 0.000000 0.000000 0.000000 0.122003
#
#
# Mechanical properties :
#
#
# Convention : Reuss Voigt Hill
#
# Bulk Modulus (GPa) = 48.03136 86.13615 67.08376
# Shear Modulus (GPa) = 38.18733 15.21370 26.70052
#
# Velocity S-wave (km/s) = 4.18536 2.64174 3.49972
# Velocity P-wave (km/s) = 6.73715 6.98694 6.86318
#
# Compressibility (1/GPa) = 0.02081973
#
# Stress axis : x y z
#
# Youngs Moduli (GPa) = 46.65321 54.27531 38.71972
#
# Poissons Ratio (x) = 0.28734 -0.01781
# Poissons Ratio (y) = 0.24699 0.68143
# Poissons Ratio (z) = -0.02146 0.95519
#
# Static dielectric constant tensor:
#      x y z
#    x 1.887620 0.000000 0.000000 
#    y 0.000000 1.891750 0.000000 
#    z 0.000000 0.000000 1.717720 
# 
# From -- ./inp_files/25982.got.cif
#   From: 2010.05.17/outbox.cif.g08.bks.cpg/sg66_13_cif.got.tgz:25982.got - 2010.06.03 17:51:23.
