data_PCOD9494379
_publ_section_title
;
Structure prediction by ZEFSAII (Michael W. Deem and Ramdas Pophale) SiO2 
 PCOD9494379
Probable space group: C M M M
;
_chemical_formula_sum "Si O2"
_cell_formula_units_Z 72
_cell_length_a 7.387141
_cell_length_b 14.682343
_cell_length_c 30.850595
_cell_angle_alpha 90.000000
_cell_angle_beta 90.000000
_cell_angle_gamma 90.000000
_cell_volume 3346.072130
_symmetry_space_group_name_H-M "C M M M"
_symmetry_group_IT_number 65
_symmetry_cell_setting 'orthorhombic'
loop_
_space_group_symop_operation_xyz
x,y,z
-x,-y,z
x,-y,-z
-x,y,-z
-x,-y,-z
x,y,-z
-x,y,z
x,-y,z
1/2+x,1/2+y,z
1/2-x,1/2-y,z
1/2+x,1/2-y,-z
1/2-x,1/2+y,-z
1/2-x,1/2-y,-z
1/2+x,1/2+y,-z
1/2-x,1/2+y,z
1/2+x,1/2-y,z
loop_
_atom_site_type_symbol
_atom_site_label
_atom_site_fract_x
_atom_site_fract_y
_atom_site_fract_z
Si Si1 0.216188 0.357236 0.859108
Si Si2 0.221265 0.500000 0.450542
Si Si3 0.216462 0.640975 0.953373
Si Si4 0.778728 0.500000 0.690387
Si Si5 0.215523 0.643043 0.380074
Si Si6 0.221465 0.500000 0.789302
O O1 0.250000 0.250000 0.854630
O O2 0.285993 0.389496 0.906381
O O3 0.280794 0.413701 0.817959
O O4 0.000000 0.370186 0.860806
O O5 0.283382 0.500000 0.500000
O O6 0.279635 0.588035 0.422556
O O7 0.000000 0.500000 0.451745
O O8 0.250000 0.750000 0.953312
O O9 0.000000 0.625326 0.953647
O O10 0.286232 0.607064 0.000000
O O11 0.720352 0.588047 0.662411
O O12 0.716477 0.500000 0.739842
O O13 0.000000 0.500000 0.691544
O O14 0.250000 0.750000 0.380074
O O15 0.000000 0.631994 0.380077
O O16 0.000000 0.500000 0.787754
#
# Coordination Sequence:
#
# PCOD9494379 Si02
#       6
#    16   8  16   8  16   8
#     4   9  17  29  45  64  85 111 142 175 213 258
#     4   8  15  29  47  67  95 130 160 182 214 268
#     4   8  13  22  37  57  80 105 133 166 205 249
#     4   8  16  31  47  63  87 120 151 178 218 274
#     4   9  17  30  49  70  91 119 155 190 223 261
#     4   9  17  30  47  65  87 115 146 179 218 266
#
# _framework density 21.517765000000001
#
# number of rings (size 3 to 8) (size 9 to 14) (size 15 to 20)
#    0.000    3.444    0.000    1.333    0.000    1.333 
#    0.000    3.333    0.000    5.333    0.000    0.000 
#    0.000   17.778    0.000    0.000    0.000    0.000 
#
# Total GULP energy -200696.826977 kJ/mol
# GULP energy per Si atom -5574.911860 kJ/mol
# Density = 2.146879 g / cm^3
# Si number density = 21.517765 Si / 1000 Ang^3
#
#
#
# Elastic Constant Matrix: (Units=GPa)
#
#
# Indices 1 2 3 4 5 6 
#
# 1 75.7589 -4.8241 12.1371 0.0000 0.0000 0.0000
# 2 -4.8241 162.6809 120.2092 0.0000 0.0000 0.0000
# 3 12.1371 120.2092 288.9852 0.0000 0.0000 0.0000
# 4 0.0000 0.0000 0.0000 16.9178 0.0000 0.0000
# 5 0.0000 0.0000 0.0000 0.0000 -1.3418 0.0000
# 6 0.0000 0.0000 0.0000 0.0000 0.0000 12.3521
#
#
#
# Elastic Compliance Matrix: (Units=1/GPa)
#
#
# Indices 1 2 3 4 5 6 
#
# 1 0.013444 0.001178 -0.001055 0.000000 0.000000 0.000000
# 2 0.001178 0.008978 -0.003784 0.000000 0.000000 0.000000
# 3 -0.001055 -0.003784 0.005079 0.000000 0.000000 0.000000
# 4 0.000000 0.000000 0.000000 0.059109 0.000000 0.000000
# 5 0.000000 0.000000 0.000000 0.000000 -0.745243 0.000000
# 6 0.000000 0.000000 0.000000 0.000000 0.000000 0.080958
#
#
# Mechanical properties :
#
#
# Convention : Reuss Voigt Hill
#
# Bulk Modulus (GPa) = 49.55633 86.94104 68.24869
# Shear Modulus (GPa) = -8.87111 32.24580 11.68734
#
# Velocity S-wave (km/s) = -2.03264 3.87533 2.33308
# Velocity P-wave (km/s) = 4.19185 7.77922 6.24851
#
# Compressibility (1/GPa) = 0.02017906
#
# Stress axis : x y z
#
# Youngs Moduli (GPa) = 74.38407 111.38213 196.89896
#
# Poissons Ratio (x) = -0.13120 0.20765
# Poissons Ratio (y) = -0.08762 0.74508
# Poissons Ratio (z) = 0.07845 0.42148
#
# Static dielectric constant tensor:
#      x y z
#    x 1.819880 0.000000 0.000000 
#    y 0.000000 1.764730 0.000000 
#    z 0.000000 0.000000 1.783750 
# 
# From -- ./inp_files/76373.got.cif
#   From: 2010.05.17/outbox.cif.g08.bks.cpg/sg65_39_cif.got.tgz:76373.got - 2010.06.03 17:01:31.
