data_PCOD9494900
_publ_section_title
;
Structure prediction by ZEFSAII (Michael W. Deem and Ramdas Pophale) SiO2 
 PCOD9494900
Probable space group: C C C M
;
_chemical_formula_sum "Si O2"
_cell_formula_units_Z 96
_cell_length_a 7.143046
_cell_length_b 23.745953
_cell_length_c 24.422233
_cell_angle_alpha 90.000000
_cell_angle_beta 90.000000
_cell_angle_gamma 90.000000
_cell_volume 4142.460931
_symmetry_space_group_name_H-M "C C C M"
_symmetry_group_IT_number 66
_symmetry_cell_setting 'orthorhombic'
loop_
_space_group_symop_operation_xyz
x,y,z
-x,-y,z
x,-y,1/2-z
-x,y,1/2-z
-x,-y,-z
x,y,-z
-x,y,1/2+z
x,-y,1/2+z
1/2+x,1/2+y,z
1/2-x,1/2-y,z
1/2+x,1/2-y,1/2-z
1/2-x,1/2+y,1/2-z
1/2-x,1/2-y,-z
1/2+x,1/2+y,-z
1/2-x,1/2+y,1/2+z
1/2+x,1/2-y,1/2+z
loop_
_atom_site_type_symbol
_atom_site_label
_atom_site_fract_x
_atom_site_fract_y
_atom_site_fract_z
Si Si1 0.203801 0.819593 0.000000
Si Si2 0.016335 0.858106 0.814293
Si Si3 0.469640 0.767081 0.311520
Si Si4 0.730331 0.040752 0.562136
Si Si5 0.656589 0.584643 0.584585
Si Si6 0.762692 0.184139 0.500000
Si Si7 0.130945 0.639490 0.382961
O O1 0.250000 0.750000 0.000000
O O2 0.244625 0.861679 0.051843
O O3 0.981904 0.823836 0.000000
O O4 0.142451 0.898166 0.851763
O O5 0.000000 0.871595 0.750000
O O6 0.075339 0.792243 0.818521
O O7 0.813225 0.860763 0.843326
O O8 0.500000 0.787638 0.250000
O O9 0.250000 0.750000 0.317147
O O10 0.504818 0.816420 0.354108
O O11 0.666814 0.049597 0.500000
O O12 0.600805 0.074044 0.604867
O O13 0.939530 0.069118 0.566939
O O14 0.748794 0.974885 0.572477
O O15 0.750000 0.250000 0.500000
O O16 0.675791 0.162969 0.443486
#
# Coordination Sequence:
#
# PCOD9494900 Si02
#       7
#     8  16  16  16  16   8  16
#     4  12  22  34  52  87 131 152 188 248 318 359
#     4   9  17  30  49  73 117 154 190 230 296 349
#     4   9  18  33  54  82 124 158 189 235 294 364
#     4  10  15  29  54  82 116 149 195 243 299 337
#     4  10  17  31  50  80 120 152 190 244 302 348
#     4  12  20  33  59  80 122 154 197 251 290 363
#     4  10  18  31  54  85 112 145 202 243 284 344
#
# _framework density 23.174628999999999
#
# number of rings (size 3 to 8) (size 9 to 14) (size 15 to 20)
#    0.000    2.000    5.833    2.000    0.000    0.000 
#    0.000   13.333    0.000    0.000    0.000    2.333 
#   15.000    0.000    0.000    0.000    0.000    0.000 
#
# Total GULP energy -267815.187540 kJ/mol
# GULP energy per Si atom -5579.483074 kJ/mol
# Density = 2.312188 g / cm^3
# Si number density = 23.174629 Si / 1000 Ang^3
#
#
#
# Elastic Constant Matrix: (Units=GPa)
#
#
# Indices 1 2 3 4 5 6 
#
# 1 61.5081 22.8936 22.8226 0.0000 0.0000 0.0000
# 2 22.8936 188.5859 96.1720 0.0000 0.0000 0.0000
# 3 22.8226 96.1720 191.1819 0.0000 0.0000 0.0000
# 4 0.0000 0.0000 0.0000 7.6187 0.0000 0.0000
# 5 0.0000 0.0000 0.0000 0.0000 19.5282 0.0000
# 6 0.0000 0.0000 0.0000 0.0000 0.0000 38.7850
#
#
#
# Elastic Compliance Matrix: (Units=1/GPa)
#
#
# Indices 1 2 3 4 5 6 
#
# 1 0.017285 -0.001407 -0.001356 0.000000 0.000000 0.000000
# 2 -0.001407 0.007247 -0.003477 0.000000 0.000000 0.000000
# 3 -0.001356 -0.003477 0.007142 0.000000 0.000000 0.000000
# 4 0.000000 0.000000 0.000000 0.131256 0.000000 0.000000
# 5 0.000000 0.000000 0.000000 0.000000 0.051208 0.000000
# 6 0.000000 0.000000 0.000000 0.000000 0.000000 0.025783
#
#
# Mechanical properties :
#
#
# Convention : Reuss Voigt Hill
#
# Bulk Modulus (GPa) = 52.10194 80.56136 66.33165
# Shear Modulus (GPa) = 19.32002 33.14554 26.23278
#
# Velocity S-wave (km/s) = 2.89047 3.78597 3.36811
# Velocity P-wave (km/s) = 5.80266 7.34504 6.61893
#
# Compressibility (1/GPa) = 0.01919314
#
# Stress axis : x y z
#
# Youngs Moduli (GPa) = 57.85456 137.99176 140.02159
#
# Poissons Ratio (x) = 0.19415 0.18982
# Poissons Ratio (y) = 0.08140 0.48692
# Poissons Ratio (z) = 0.07843 0.47986
#
# Static dielectric constant tensor:
#      x y z
#    x 1.610630 0.000000 0.000000 
#    y 0.000000 1.895850 0.000000 
#    z 0.000000 0.000000 1.818390 
# 
# From -- ./inp_files/55707.got.cif
#   From: 2010.05.17/outbox.cif.g08.bks.cpg/sg66_28_cif.got.tgz:55707.got - 2010.06.03 17:51:23.
