data_PCOD9494426
_publ_section_title
;
Structure prediction by ZEFSAII (Michael W. Deem and Ramdas Pophale) SiO2 
 PCOD9494426
Probable space group: C M M M
;
_chemical_formula_sum "Si O2"
_cell_formula_units_Z 88
_cell_length_a 20.023344
_cell_length_b 7.395035
_cell_length_c 29.190717
_cell_angle_alpha 90.000000
_cell_angle_beta 90.000000
_cell_angle_gamma 90.000000
_cell_volume 4322.366662
_symmetry_space_group_name_H-M "C M M M"
_symmetry_group_IT_number 65
_symmetry_cell_setting 'orthorhombic'
loop_
_space_group_symop_operation_xyz
x,y,z
-x,-y,z
x,-y,-z
-x,y,-z
-x,-y,-z
x,y,-z
-x,y,z
x,-y,z
1/2+x,1/2+y,z
1/2-x,1/2-y,z
1/2+x,1/2-y,-z
1/2-x,1/2+y,-z
1/2-x,1/2-y,-z
1/2+x,1/2+y,-z
1/2-x,1/2+y,z
1/2+x,1/2-y,z
loop_
_atom_site_type_symbol
_atom_site_label
_atom_site_fract_x
_atom_site_fract_y
_atom_site_fract_z
Si Si1 0.672091 0.216247 0.051351
Si Si2 0.173012 0.716084 0.684961
Si Si3 0.422851 0.779487 0.132209
Si Si4 0.577070 0.779509 0.234921
Si Si5 0.672742 0.216212 0.581473
Si Si6 0.422649 0.778519 0.500000
O O1 0.750000 0.250000 0.060947
O O2 0.624935 0.285181 0.091752
O O3 0.662958 0.000000 0.049787
O O4 0.657475 0.285887 0.000000
O O5 0.163470 0.500000 0.682812
O O6 0.250000 0.750000 0.697028
O O7 0.124089 0.785364 0.724262
O O8 0.162358 0.786449 0.633224
O O9 0.500000 0.726916 0.124986
O O10 0.402495 0.723125 0.183582
O O11 0.421502 0.000000 0.132025
O O12 0.500000 0.727097 0.241935
O O13 0.578695 0.000000 0.235122
O O14 0.750000 0.250000 0.568151
O O15 0.619411 0.281611 0.544432
O O16 0.665382 0.000000 0.583255
O O17 0.500000 0.722348 0.500000
O O18 0.422608 0.000000 0.500000
#
# Coordination Sequence:
#
# PCOD9494426 Si02
#       6
#    16  16  16  16  16   8
#     4   9  17  28  42  61  84 108 134 166 204 244
#     4   9  17  28  43  64  86 108 137 170 203 241
#     4   8  14  25  41  61  83 106 135 171 206 238
#     4   8  14  25  41  61  84 108 135 169 206 241
#     4   9  17  29  45  63  84 111 139 168 203 243
#     4   9  17  28  43  65  88 107 134 174 212 241
#
# _framework density 20.359219
#
# number of rings (size 3 to 8) (size 9 to 14) (size 15 to 20)
#    0.000    3.364    0.000    1.364    0.000    1.818 
#    0.000    5.455    0.000    2.182    0.000   10.182 
#    0.000    0.000    0.000    0.000    0.000    0.000 
#
# Total GULP energy -245415.128405 kJ/mol
# GULP energy per Si atom -5577.616555 kJ/mol
# Density = 2.031288 g / cm^3
# Si number density = 20.359219 Si / 1000 Ang^3
#
#
#
# Elastic Constant Matrix: (Units=GPa)
#
#
# Indices 1 2 3 4 5 6 
#
# 1 153.2124 1.3126 159.1703 0.0000 0.0000 0.0000
# 2 1.3126 70.5977 8.6989 0.0000 0.0000 0.0000
# 3 159.1703 8.6989 207.2689 0.0000 0.0000 0.0000
# 4 0.0000 0.0000 0.0000 -0.2895 0.0000 0.0000
# 5 0.0000 0.0000 0.0000 0.0000 75.0917 0.0000
# 6 0.0000 0.0000 0.0000 0.0000 0.0000 17.0462
#
#
#
# Elastic Compliance Matrix: (Units=1/GPa)
#
#
# Indices 1 2 3 4 5 6 
#
# 1 0.032713 0.002500 -0.025227 0.000000 0.000000 0.000000
# 2 0.002500 0.014429 -0.002526 0.000000 0.000000 0.000000
# 3 -0.025227 -0.002526 0.024303 0.000000 0.000000 0.000000
# 4 0.000000 0.000000 0.000000 -3.454415 0.000000 0.000000
# 5 0.000000 0.000000 0.000000 0.000000 0.013317 0.000000
# 6 0.000000 0.000000 0.000000 0.000000 0.000000 0.058664
#
#
# Mechanical properties :
#
#
# Convention : Reuss Voigt Hill
#
# Bulk Modulus (GPa) = 47.75171 85.49361 66.62266
# Shear Modulus (GPa) = -1.53680 35.82950 17.14635
#
# Velocity S-wave (km/s) = -0.86976 4.19963 2.90520
# Velocity P-wave (km/s) = 4.74309 8.09936 6.63688
#
# Compressibility (1/GPa) = 0.02094166
#
# Stress axis : x y z
#
# Youngs Moduli (GPa) = 30.56877 69.30264 41.14677
#
# Poissons Ratio (x) = -0.17327 1.03800
# Poissons Ratio (y) = -0.07643 0.10392
# Poissons Ratio (z) = 0.77115 0.17503
#
# Static dielectric constant tensor:
#      x y z
#    x 1.664320 0.000000 0.000000 
#    y 0.000000 1.871090 0.000000 
#    z 0.000000 0.000000 1.728320 
# 
# From -- ./inp_files/77329.got.cif
#   From: 2010.05.17/outbox.cif.g08.bks.cpg/sg65_39_cif.got.tgz:77329.got - 2010.06.03 17:01:31.
