data_PCOD9494838
_publ_section_title
;
Structure prediction by ZEFSAII (Michael W. Deem and Ramdas Pophale) SiO2 
 PCOD9494838
Probable space group: C M M M
;
_chemical_formula_sum "Si O2"
_cell_formula_units_Z 36
_cell_length_a 21.000000
_cell_length_b 21.000000
_cell_length_c 9.000000
_cell_angle_alpha 90.000000
_cell_angle_beta 90.000000
_cell_angle_gamma 90.000000
_cell_volume 3969.000000
_symmetry_space_group_name_H-M "C M M M"
_symmetry_group_IT_number 65
_symmetry_cell_setting 'orthorhombic'
loop_
_space_group_symop_operation_xyz
x,y,z
-x,-y,z
x,-y,-z
-x,y,-z
-x,-y,-z
x,y,-z
-x,y,z
x,-y,z
1/2+x,1/2+y,z
1/2-x,1/2-y,z
1/2+x,1/2-y,-z
1/2-x,1/2+y,-z
1/2-x,1/2-y,-z
1/2+x,1/2+y,-z
1/2-x,1/2+y,z
1/2+x,1/2-y,z
loop_
_atom_site_type_symbol
_atom_site_label
_atom_site_fract_x
_atom_site_fract_y
_atom_site_fract_z
Si Si1 0.664236 0.119969 0.680368
Si Si2 0.573082 0.775314 0.821195
Si Si3 0.426618 0.365594 0.320476
Si Si4 0.701817 0.576332 0.177336
Si Si5 0.574011 0.000000 0.679583
O O1 0.668518 0.124017 0.500000
O O2 0.627330 0.180727 0.748161
O O3 0.735077 0.107982 0.747470
O O4 0.616784 0.061209 0.720371
O O5 0.500000 0.799251 0.793021
O O6 0.576540 0.705407 0.748144
O O7 0.581252 0.771738 0.000000
O O8 0.420384 0.364188 0.500000
O O9 0.500000 0.389265 0.288166
O O10 0.365744 0.402389 0.250674
O O11 0.708264 0.500000 0.195449
O O12 0.700826 0.590684 0.000000
O O13 0.500000 0.000000 0.734071
O O14 0.570085 0.000000 0.500000
#
# Coordination Sequence:
#
# PCOD9494838 Si02
#       5
#    16  16  16  16   8
#     4  11  21  36  59  86 120 159 201 246 292 346
#     4  10  21  38  60  88 123 159 196 242 297 355
#     4  10  22  41  65  91 117 149 195 248 298 352
#     4  11  24  41  61  86 121 159 196 242 297 357
#     4   9  18  32  53  83 116 153 196 241 287 336
#
# _framework density 9.0702949999999998
#
# number of rings (size 3 to 8) (size 9 to 14) (size 15 to 20)
#    0.000    1.667    1.111    3.333    0.000    6.222 
#    0.000    6.667    0.000    2.667    0.000    0.000 
#    0.000    0.000    0.000    0.000    0.000    0.000 
#
# Total GULP energy -200934.206740 kJ/mol
# GULP energy per Si atom -5581.505743 kJ/mol
# Density = 0.904965 g / cm^3
# Si number density = 9.070295 Si / 1000 Ang^3
#
#
#
# Elastic Constant Matrix: (Units=GPa)
#
#
# Indices 1 2 3 4 5 6 
#
# 1 199.1479 50.9039 75.8658 0.0000 0.0000 0.0000
# 2 50.9039 53.8691 33.3007 0.0000 0.0000 0.0000
# 3 75.8658 33.3007 122.1497 0.0000 0.0000 0.0000
# 4 0.0000 0.0000 0.0000 28.3835 0.0000 0.0000
# 5 0.0000 0.0000 0.0000 0.0000 41.7723 0.0000
# 6 0.0000 0.0000 0.0000 0.0000 0.0000 45.5431
#
#
#
# Elastic Compliance Matrix: (Units=1/GPa)
#
#
# Indices 1 2 3 4 5 6 
#
# 1 0.007597 -0.005126 -0.003321 0.000000 0.000000 0.000000
# 2 -0.005126 0.025784 -0.003846 0.000000 0.000000 0.000000
# 3 -0.003321 -0.003846 0.011298 0.000000 0.000000 0.000000
# 4 0.000000 0.000000 0.000000 0.035232 0.000000 0.000000
# 5 0.000000 0.000000 0.000000 0.000000 0.023939 0.000000
# 6 0.000000 0.000000 0.000000 0.000000 0.000000 0.021957
#
#
# Mechanical properties :
#
#
# Convention : Reuss Voigt Hill
#
# Bulk Modulus (GPa) = 49.76609 77.25640 63.51124
# Shear Modulus (GPa) = 31.82892 37.47952 34.65422
#
# Velocity S-wave (km/s) = 4.19330 4.55032 4.37546
# Velocity P-wave (km/s) = 7.13710 8.38375 7.78542
#
# Compressibility (1/GPa) = 0.02009400
#
# Stress axis : x y z
#
# Youngs Moduli (GPa) = 131.63761 38.78307 88.51366
#
# Poissons Ratio (x) = 0.19879 0.29394
# Poissons Ratio (y) = 0.67472 0.34042
# Poissons Ratio (z) = 0.43714 0.14916
#
# Static dielectric constant tensor:
#      x y z
#    x 1.616140 0.000000 0.000000 
#    y 0.000000 1.630420 0.000000 
#    z 0.000000 0.000000 1.608440 
# 
# From -- ./inp_files/11238.got.cif
#   From: 2010.05.17/outbox.ucp.g08.bks.cvg/sg65_6_cif.got.tgz:11238.got - 2010.06.11 16:39:57.
