data_PCOD9494932
_publ_section_title
;
Structure prediction by ZEFSAII (Michael W. Deem and Ramdas Pophale) SiO2 
 PCOD9494932
Probable space group: C C C M
;
_chemical_formula_sum "Si O2"
_cell_formula_units_Z 64
_cell_length_a 8.286518
_cell_length_b 19.247777
_cell_length_c 21.914299
_cell_angle_alpha 90.000000
_cell_angle_beta 90.000000
_cell_angle_gamma 90.000000
_cell_volume 3495.266056
_symmetry_space_group_name_H-M "C C C M"
_symmetry_group_IT_number 66
_symmetry_cell_setting 'orthorhombic'
loop_
_space_group_symop_operation_xyz
x,y,z
-x,-y,z
x,-y,1/2-z
-x,y,1/2-z
-x,-y,-z
x,y,-z
-x,y,1/2+z
x,-y,1/2+z
1/2+x,1/2+y,z
1/2-x,1/2-y,z
1/2+x,1/2-y,1/2-z
1/2-x,1/2+y,1/2-z
1/2-x,1/2-y,-z
1/2+x,1/2+y,-z
1/2-x,1/2+y,1/2+z
1/2+x,1/2-y,1/2+z
loop_
_atom_site_type_symbol
_atom_site_label
_atom_site_fract_x
_atom_site_fract_y
_atom_site_fract_z
Si Si1 0.866725 0.356102 0.625089
Si Si2 0.516872 0.303939 0.620152
Si Si3 0.250000 0.250000 0.707945
Si Si4 0.177824 0.828157 0.000000
Si Si5 0.505035 0.082434 0.500000
Si Si6 0.000000 0.643167 0.250000
O O1 0.674826 0.348521 0.636166
O O2 0.928817 0.276832 0.614076
O O3 0.905069 0.393758 0.561733
O O4 0.964639 0.388925 0.683127
O O5 0.374274 0.295893 0.668914
O O6 0.434755 0.332712 0.559201
O O7 0.150263 0.304701 0.745946
O O8 0.250000 0.750000 0.000000
O O9 0.327853 0.881101 0.000000
O O10 0.500000 0.000000 0.500000
#
# Coordination Sequence:
#
# PCOD9494932 Si02
#       6
#    16  16   8   8   8   8
#     4  10  20  35  54  86 114 150 186 236 289 338
#     4  10  18  30  57  85 118 143 189 239 285 338
#     4  10  16  27  44  85 120 146 174 236 292 326
#     4  12  17  33  57  85 109 153 199 235 284 344
#     4  12  25  41  57  80 116 152 191 236 289 347
#     4  10  18  30  53  80 118 148 189 226 286 344
#
# _framework density 18.310480999999999
#
# number of rings (size 3 to 8) (size 9 to 14) (size 15 to 20)
#    0.000    1.500    3.750    5.250    0.000    2.000 
#    0.000    3.125    0.000    0.000    0.000    3.500 
#    0.000    0.000    0.000    0.000    0.000    0.000 
#
# Total GULP energy -178325.846752 kJ/mol
# GULP energy per Si atom -5572.682711 kJ/mol
# Density = 1.826881 g / cm^3
# Si number density = 18.310481 Si / 1000 Ang^3
#
#
#
# Elastic Constant Matrix: (Units=GPa)
#
#
# Indices 1 2 3 4 5 6 
#
# 1 117.1849 23.4853 43.4288 0.0000 0.0000 0.0000
# 2 23.4853 48.6896 22.2565 0.0000 0.0000 0.0000
# 3 43.4288 22.2565 136.5184 0.0000 0.0000 0.0000
# 4 0.0000 0.0000 0.0000 2.3892 0.0000 0.0000
# 5 0.0000 0.0000 0.0000 0.0000 21.0542 0.0000
# 6 0.0000 0.0000 0.0000 0.0000 0.0000 10.5975
#
#
#
# Elastic Compliance Matrix: (Units=1/GPa)
#
#
# Indices 1 2 3 4 5 6 
#
# 1 0.010267 -0.003738 -0.002657 0.000000 0.000000 0.000000
# 2 -0.003738 0.023553 -0.002651 0.000000 0.000000 0.000000
# 3 -0.002657 -0.002651 0.008602 0.000000 0.000000 0.000000
# 4 0.000000 0.000000 0.000000 0.418554 0.000000 0.000000
# 5 0.000000 0.000000 0.000000 0.000000 0.047496 0.000000
# 6 0.000000 0.000000 0.000000 0.000000 0.000000 0.094362
#
#
# Mechanical properties :
#
#
# Convention : Reuss Voigt Hill
#
# Bulk Modulus (GPa) = 41.09878 53.41489 47.25684
# Shear Modulus (GPa) = 7.94866 21.02300 14.48583
#
# Velocity S-wave (km/s) = 2.08578 3.39210 2.81574
# Velocity P-wave (km/s) = 5.31929 6.67659 6.03621
#
# Compressibility (1/GPa) = 0.02433162
#
# Stress axis : x y z
#
# Youngs Moduli (GPa) = 97.39698 42.45759 116.24754
#
# Poissons Ratio (x) = 0.15870 0.30885
# Poissons Ratio (y) = 0.36406 0.30814
# Poissons Ratio (z) = 0.25876 0.11254
#
# Static dielectric constant tensor:
#      x y z
#    x 1.692340 0.000000 0.000000 
#    y 0.000000 1.579010 0.000000 
#    z 0.000000 0.000000 1.728790 
# 
# From -- ./inp_files/46685.got.cif
#   From: 2010.05.17/outbox.cif.g08.bks.cpg/sg66_24_cif.got.tgz:46685.got - 2010.06.03 17:51:23.
