data_PCOD9494745
_publ_section_title
;
Structure prediction by ZEFSAII (Michael W. Deem and Ramdas Pophale) SiO2 
 PCOD9494745
Probable space group: C M M M
;
_chemical_formula_sum "Si O2"
_cell_formula_units_Z 52
_cell_length_a 21.000000
_cell_length_b 27.000000
_cell_length_c 9.000000
_cell_angle_alpha 90.000000
_cell_angle_beta 90.000000
_cell_angle_gamma 90.000000
_cell_volume 5103.000000
_symmetry_space_group_name_H-M "C M M M"
_symmetry_group_IT_number 65
_symmetry_cell_setting 'orthorhombic'
loop_
_space_group_symop_operation_xyz
x,y,z
-x,-y,z
x,-y,-z
-x,y,-z
-x,-y,-z
x,y,-z
-x,y,z
x,-y,z
1/2+x,1/2+y,z
1/2-x,1/2-y,z
1/2+x,1/2-y,-z
1/2-x,1/2+y,-z
1/2-x,1/2-y,-z
1/2+x,1/2+y,-z
1/2-x,1/2+y,z
1/2+x,1/2-y,z
loop_
_atom_site_type_symbol
_atom_site_label
_atom_site_fract_x
_atom_site_fract_y
_atom_site_fract_z
Si Si1 0.500000 0.557515 0.673401
Si Si2 0.672689 0.944742 0.676272
Si Si3 0.389098 0.617567 0.331232
Si Si4 0.567481 0.725576 0.331458
Si Si5 0.574582 0.868015 0.672812
Si Si6 0.740192 0.637689 0.823495
Si Si7 0.838071 0.711621 0.174326
O O1 0.500000 0.500000 0.671149
O O2 0.500000 0.575384 0.500000
O O3 0.565294 0.576885 0.738349
O O4 0.686723 0.944224 0.500000
O O5 0.602095 0.922819 0.695747
O O6 0.718149 0.906488 0.757108
O O7 0.679549 0.000000 0.732579
O O8 0.368621 0.604402 0.500000
O O9 0.430665 0.666938 0.338396
O O10 0.329413 0.629090 0.233005
O O11 0.569056 0.744506 0.500000
O O12 0.500000 0.742079 0.263059
O O13 0.630795 0.741982 0.251146
O O14 0.590098 0.855422 0.500000
O O15 0.500000 0.865020 0.692525
O O16 0.611413 0.831324 0.782026
O O17 0.771470 0.689463 0.771568
O O18 0.744389 0.637384 0.000000
O O19 0.834710 0.720223 0.000000
#
# Coordination Sequence:
#
# PCOD9494745 Si02
#       7
#     8  16  16  16  16  16  16
#     4   9  18  36  63  91 115 139 173 221 276 333
#     4   9  18  33  53  76 102 136 180 225 269 322
#     4  10  20  37  60  85 111 139 175 220 270 327
#     4  10  20  35  56  81 111 144 179 223 274 325
#     4   9  17  30  49  74 105 139 177 224 274 320
#     4  10  22  38  54  76 110 147 181 224 274 324
#     4  10  21  35  51  75 108 147 188 225 265 317
#
# _framework density 10.190084000000001
#
# number of rings (size 3 to 8) (size 9 to 14) (size 15 to 20)
#    0.000    2.385    0.769    1.385    0.000    6.769 
#    0.000    6.538    0.000    0.462    0.000    4.308 
#    0.000    0.000    0.000    0.000    0.000    0.000 
#
# Total GULP energy -289583.572315 kJ/mol
# GULP energy per Si atom -5568.914852 kJ/mol
# Density = 1.016689 g / cm^3
# Si number density = 10.190084 Si / 1000 Ang^3
#
#
#
# Elastic Constant Matrix: (Units=GPa)
#
#
# Indices 1 2 3 4 5 6 
#
# 1 35.5588 33.2100 -16.9859 0.0000 0.0000 0.0000
# 2 33.2100 94.4265 7.2802 0.0000 0.0000 0.0000
# 3 -16.9859 7.2802 -9.3680 0.0000 0.0000 0.0000
# 4 0.0000 0.0000 0.0000 39.8515 0.0000 0.0000
# 5 0.0000 0.0000 0.0000 0.0000 26.6085 0.0000
# 6 0.0000 0.0000 0.0000 0.0000 0.0000 20.0474
#
#
#
# Elastic Compliance Matrix: (Units=1/GPa)
#
#
# Indices 1 2 3 4 5 6 
#
# 1 0.016037 -0.003206 -0.031569 0.000000 0.000000 0.000000
# 2 -0.003206 0.010633 0.014076 0.000000 0.000000 0.000000
# 3 -0.031569 0.014076 -0.038566 0.000000 0.000000 0.000000
# 4 0.000000 0.000000 0.000000 0.025093 0.000000 0.000000
# 5 0.000000 0.000000 0.000000 0.000000 0.037582 0.000000
# 6 0.000000 0.000000 0.000000 0.000000 0.000000 0.049882
#
#
# Mechanical properties :
#
#
# Convention : Reuss Voigt Hill
#
# Bulk Modulus (GPa) = -18.76353 18.62510 -0.06922
# Shear Modulus (GPa) = 40.22763 23.77570 32.00167
#
# Velocity S-wave (km/s) = 4.44764 3.41927 3.96692
# Velocity P-wave (km/s) = 4.14108 4.97466 4.57689
#
# Compressibility (1/GPa) = -0.05329486
#
# Stress axis : x y z
#
# Youngs Moduli (GPa) = 62.35700 94.05050 -25.92937
#
# Poissons Ratio (x) = 0.30154 -0.81857
# Poissons Ratio (y) = 0.19993 0.36499
# Poissons Ratio (z) = 1.96855 -1.32389
#
# Static dielectric constant tensor:
#      x y z
#    x 1.795750 0.000000 0.000000 
#    y 0.000000 1.753370 0.000000 
#    z 0.000000 0.000000 1.675810 
# 
# From -- ./inp_files/12457.got.cif
#   From: 2010.05.17/outbox.ucp.g08.bks.cvg/sg65_7_cif.got.tgz:12457.got - 2010.06.11 16:39:57.
