data_PCOD9494806
_publ_section_title
;
Structure prediction by ZEFSAII (Michael W. Deem and Ramdas Pophale) SiO2 
 PCOD9494806
Probable space group: C M M M
;
_chemical_formula_sum "Si O2"
_cell_formula_units_Z 48
_cell_length_a 21.000000
_cell_length_b 9.000000
_cell_length_c 27.000000
_cell_angle_alpha 90.000000
_cell_angle_beta 90.000000
_cell_angle_gamma 90.000000
_cell_volume 5103.000000
_symmetry_space_group_name_H-M "C M M M"
_symmetry_group_IT_number 65
_symmetry_cell_setting 'orthorhombic'
loop_
_space_group_symop_operation_xyz
x,y,z
-x,-y,z
x,-y,-z
-x,y,-z
-x,-y,-z
x,y,-z
-x,y,z
x,-y,z
1/2+x,1/2+y,z
1/2-x,1/2-y,z
1/2+x,1/2-y,-z
1/2-x,1/2+y,-z
1/2-x,1/2-y,-z
1/2+x,1/2+y,-z
1/2-x,1/2+y,z
1/2+x,1/2-y,z
loop_
_atom_site_type_symbol
_atom_site_label
_atom_site_fract_x
_atom_site_fract_y
_atom_site_fract_z
Si Si1 0.428446 0.320740 0.218406
Si Si2 0.178642 0.178982 0.704672
Si Si3 0.184381 0.330345 0.559392
Si Si4 0.070742 0.323772 0.889644
Si Si5 0.575838 0.678840 0.616899
Si Si6 0.813536 0.168743 0.059521
O O1 0.500000 0.281494 0.239489
O O2 0.427540 0.500000 0.216492
O O3 0.364554 0.275869 0.247838
O O4 0.425709 0.251759 0.164082
O O5 0.250000 0.250000 0.701452
O O6 0.125793 0.212463 0.661772
O O7 0.187455 0.000000 0.704753
O O8 0.188818 0.333646 0.500000
O O9 0.184389 0.500000 0.578191
O O10 0.250000 0.250000 0.577320
O O11 0.117572 0.251916 0.573094
O O12 0.078270 0.500000 0.884354
O O13 0.125017 0.257015 0.923500
O O14 0.000000 0.293925 0.909993
O O15 0.500000 0.724067 0.621417
O O16 0.574551 0.500000 0.611924
O O17 0.750000 0.250000 0.077684
O O18 0.815928 0.000000 0.077937
O O19 0.811124 0.165454 0.000000
#
# Coordination Sequence:
#
# PCOD9494806 Si02
#       6
#    16  16  16  16  16  16
#     4   9  18  35  57  77 102 139 180 220 264 316
#     4  10  21  36  55  80 108 139 177 221 269 321
#     4  10  21  37  57  81 110 144 182 224 270 321
#     4  10  21  36  55  81 112 144 179 221 268 318
#     4  10  21  37  57  81 110 144 182 224 271 323
#     4  10  21  37  57  80 107 141 181 224 270 321
#
# _framework density 9.4062319999999993
#
# number of rings (size 3 to 8) (size 9 to 14) (size 15 to 20)
#    0.000    2.167    0.000    2.500    0.000    9.333 
#    0.000    5.000    0.000    3.000    0.000    0.000 
#    0.000    0.000    0.000    0.000    0.000    0.000 
#
# Total GULP energy -267399.475618 kJ/mol
# GULP energy per Si atom -5570.822409 kJ/mol
# Density = 0.938482 g / cm^3
# Si number density = 9.406232 Si / 1000 Ang^3
#
#
#
# Elastic Constant Matrix: (Units=GPa)
#
#
# Indices 1 2 3 4 5 6 
#
# 1 203.1561 63.7503 29.1220 0.0000 0.0000 0.0000
# 2 63.7503 44.3108 19.4081 0.0000 0.0000 0.0000
# 3 29.1220 19.4081 8.4215 0.0000 0.0000 0.0000
# 4 0.0000 0.0000 0.0000 17.4537 0.0000 0.0000
# 5 0.0000 0.0000 0.0000 0.0000 63.5216 0.0000
# 6 0.0000 0.0000 0.0000 0.0000 0.0000 41.2576
#
#
#
# Elastic Compliance Matrix: (Units=1/GPa)
#
#
# Indices 1 2 3 4 5 6 
#
# 1 0.007716 -0.062274 0.116834 0.000000 0.000000 0.000000
# 2 -0.062274 -1.896509 4.586021 0.000000 0.000000 0.000000
# 3 0.116834 4.586021-10.854169 0.000000 0.000000 0.000000
# 4 0.000000 0.000000 0.000000 0.057294 0.000000 0.000000
# 5 0.000000 0.000000 0.000000 0.000000 0.015743 0.000000
# 6 0.000000 0.000000 0.000000 0.000000 0.000000 0.024238
#
#
# Mechanical properties :
#
#
# Convention : Reuss Voigt Hill
#
# Bulk Modulus (GPa) = -0.28887 53.38326 26.54719
# Shear Modulus (GPa) = -0.21663 34.02047 16.90192
#
# Velocity S-wave (km/s) = -0.33971 4.25714 3.00066
# Velocity P-wave (km/s) = 0.55476 7.25276 5.11345
#
# Compressibility (1/GPa) = -3.46179969
#
# Stress axis : x y z
#
# Youngs Moduli (GPa) = 129.60097 -0.52728 -0.09213
#
# Poissons Ratio (x) = -0.03284 0.01076
# Poissons Ratio (y) = 8.07077 0.42251
# Poissons Ratio (z) = -15.14176 2.41814
#
# Static dielectric constant tensor:
#      x y z
#    x 1.638490 0.000000 0.000000 
#    y 0.000000 1.649610 0.000000 
#    z 0.000000 0.000000 1.715050 
# 
# From -- ./inp_files/73164.got.cif
#   From: 2010.05.17/outbox.ucp.g08.bks.cvg/sg65_37_cif.got.tgz:73164.got - 2010.06.11 16:39:57.
