data_PCOD9494039
_publ_section_title
;
Structure prediction by ZEFSAII (Michael W. Deem and Ramdas Pophale) SiO2 
 PCOD9494039
Probable space group: C M M M
;
_chemical_formula_sum "Si O2"
_cell_formula_units_Z 72
_cell_length_a 21.741190
_cell_length_b 8.136977
_cell_length_c 20.541600
_cell_angle_alpha 90.000000
_cell_angle_beta 90.000000
_cell_angle_gamma 90.000000
_cell_volume 3633.964396
_symmetry_space_group_name_H-M "C M M M"
_symmetry_group_IT_number 65
_symmetry_cell_setting 'orthorhombic'
loop_
_space_group_symop_operation_xyz
x,y,z
-x,-y,z
x,-y,-z
-x,y,-z
-x,-y,-z
x,y,-z
-x,y,z
x,-y,z
1/2+x,1/2+y,z
1/2-x,1/2-y,z
1/2+x,1/2-y,-z
1/2-x,1/2+y,-z
1/2-x,1/2-y,-z
1/2+x,1/2+y,-z
1/2-x,1/2+y,z
1/2+x,1/2-y,z
loop_
_atom_site_type_symbol
_atom_site_label
_atom_site_fract_x
_atom_site_fract_y
_atom_site_fract_z
Si Si1 0.429950 0.695070 0.787184
Si Si2 0.925700 0.307106 0.929422
Si Si3 0.866283 0.301013 0.573970
Si Si4 0.000000 0.313200 0.578927
Si Si5 0.184326 0.804560 0.295110
O O1 0.500000 0.762300 0.778090
O O2 0.434063 0.500000 0.775536
O O3 0.409414 0.721119 0.862063
O O4 0.376048 0.764365 0.741597
O O5 0.909674 0.500000 0.924998
O O6 0.000000 0.297195 0.931544
O O7 0.903273 0.243764 0.000000
O O8 0.852471 0.247013 0.500000
O O9 0.870047 0.500000 0.572431
O O10 0.820541 0.248081 0.629735
O O11 0.934377 0.235646 0.594486
O O12 0.000000 0.500000 0.604944
O O13 0.000000 0.324354 0.500000
O O14 0.250000 0.750000 0.267641
O O15 0.181929 0.000000 0.291462
#
# Coordination Sequence:
#
# PCOD9494039 Si02
#       5
#    16  16  16   8  16
#     4   9  19  35  54  78 107 139 175 215 261 312
#     4   8  14  26  47  78 112 140 169 209 255 303
#     4   9  18  34  56  80 105 134 172 217 265 319
#     4   7  12  26  49  77 105 129 156 199 254 309
#     4  11  24  39  55  75 105 142 179 221 268 318
#
# _framework density 19.813071000000001
#
# number of rings (size 3 to 8) (size 9 to 14) (size 15 to 20)
#    0.000    3.000    0.000    2.667    1.556    3.111 
#    0.000    2.222    0.000    2.667    0.000    0.000 
#    0.000    0.000    0.000    0.000    0.000    0.000 
#
# Total GULP energy -200475.473391 kJ/mol
# GULP energy per Si atom -5568.763150 kJ/mol
# Density = 1.976798 g / cm^3
# Si number density = 19.813071 Si / 1000 Ang^3
#
#
#
# Elastic Constant Matrix: (Units=GPa)
#
#
# Indices 1 2 3 4 5 6 
#
# 1 107.3070 11.7180 65.1141 0.0000 0.0000 0.0000
# 2 11.7180 14.4953 7.1082 0.0000 0.0000 0.0000
# 3 65.1141 7.1082 99.0340 0.0000 0.0000 0.0000
# 4 0.0000 0.0000 0.0000 23.5317 0.0000 0.0000
# 5 0.0000 0.0000 0.0000 0.0000 4.3750 0.0000
# 6 0.0000 0.0000 0.0000 0.0000 0.0000 10.8487
#
#
#
# Elastic Compliance Matrix: (Units=1/GPa)
#
#
# Indices 1 2 3 4 5 6 
#
# 1 0.016408 -0.008265 -0.010195 0.000000 0.000000 0.000000
# 2 -0.008265 0.075668 0.000003 0.000000 0.000000 0.000000
# 3 -0.010195 0.000003 0.016800 0.000000 0.000000 0.000000
# 4 0.000000 0.000000 0.000000 0.042496 0.000000 0.000000
# 5 0.000000 0.000000 0.000000 0.000000 0.228571 0.000000
# 6 0.000000 0.000000 0.000000 0.000000 0.000000 0.092177
#
#
# Mechanical properties :
#
#
# Convention : Reuss Voigt Hill
#
# Bulk Modulus (GPa) = 13.89608 43.19076 28.54342
# Shear Modulus (GPa) = 9.38049 16.87746 13.12898
#
# Velocity S-wave (km/s) = 2.17825 2.92179 2.57698
# Velocity P-wave (km/s) = 3.65447 5.76445 4.82618
#
# Compressibility (1/GPa) = 0.07196274
#
# Stress axis : x y z
#
# Youngs Moduli (GPa) = 60.94657 13.21565 59.52262
#
# Poissons Ratio (x) = 0.10922 0.60682
# Poissons Ratio (y) = 0.50371 -0.00018
# Poissons Ratio (z) = 0.62134 -0.00004
#
# Static dielectric constant tensor:
#      x y z
#    x 1.735980 0.000000 0.000000 
#    y 0.000000 1.700680 0.000000 
#    z 0.000000 0.000000 1.742740 
# 
# From -- ./inp_files/64303.got.cif
#   From: 2010.05.17/outbox.cif.g08.bks.cpg/sg65_33_cif.got.tgz:64303.got - 2010.06.03 17:01:31.
