data_PCOD9494560
_publ_section_title
;
Structure prediction by ZEFSAII (Michael W. Deem and Ramdas Pophale) SiO2 
 PCOD9494560
Probable space group: C M M M
;
_chemical_formula_sum "Si O2"
_cell_formula_units_Z 48
_cell_length_a 18.000000
_cell_length_b 18.000000
_cell_length_c 18.000000
_cell_angle_alpha 90.000000
_cell_angle_beta 90.000000
_cell_angle_gamma 90.000000
_cell_volume 5832.000000
_symmetry_space_group_name_H-M "C M M M"
_symmetry_group_IT_number 65
_symmetry_cell_setting 'orthorhombic'
loop_
_space_group_symop_operation_xyz
x,y,z
-x,-y,z
x,-y,-z
-x,y,-z
-x,-y,-z
x,y,-z
-x,y,z
x,-y,z
1/2+x,1/2+y,z
1/2-x,1/2-y,z
1/2+x,1/2-y,-z
1/2-x,1/2+y,-z
1/2-x,1/2-y,-z
1/2+x,1/2+y,-z
1/2-x,1/2+y,z
1/2+x,1/2-y,z
loop_
_atom_site_type_symbol
_atom_site_label
_atom_site_fract_x
_atom_site_fract_y
_atom_site_fract_z
Si Si1 0.802429 0.412643 0.227096
Si Si2 0.918411 0.205327 0.084639
Si Si3 0.415682 0.584795 0.589141
Si Si4 0.239001 0.161391 0.085871
Si Si5 0.915744 0.292670 0.768055
Si Si6 0.806409 0.811789 0.324849
O O1 0.801716 0.500000 0.238199
O O2 0.782087 0.389294 0.143073
O O3 0.880847 0.373339 0.243751
O O4 0.742109 0.369743 0.277379
O O5 0.849483 0.150884 0.096115
O O6 0.914652 0.270160 0.145109
O O7 0.000000 0.170363 0.092260
O O8 0.911125 0.233606 0.000000
O O9 0.415757 0.585082 0.500000
O O10 0.500000 0.602722 0.614029
O O11 0.399134 0.500000 0.613372
O O12 0.356234 0.642544 0.618578
O O13 0.250000 0.250000 0.101583
O O14 0.258559 0.149028 0.000000
O O15 0.861856 0.233811 0.728518
O O16 0.000000 0.286687 0.741443
O O17 0.750000 0.750000 0.357109
#
# Coordination Sequence:
#
# PCOD9494560 Si02
#       6
#    16  16  16  16  16  16
#     4  11  21  32  45  68 100 127 156 195 243 292
#     4   9  16  27  47  68  85 112 154 202 242 276
#     4   9  18  33  53  77 104 130 153 183 232 288
#     4  10  17  30  48  64  87 119 160 202 238 283
#     4  10  19  32  50  69  91 123 164 203 237 277
#     4  10  19  33  51  73  97 126 164 200 228 266
#
# _framework density 8.2304530000000007
#
# number of rings (size 3 to 8) (size 9 to 14) (size 15 to 20)
#    0.000    2.167    3.333    2.000    0.000    1.000 
#    0.000    0.000    0.000    1.500    0.000    5.833 
#    0.000    0.000    0.000   31.000    0.000    0.000 
#
# Total GULP energy -267318.681131 kJ/mol
# GULP energy per Si atom -5569.139190 kJ/mol
# Density = 0.821172 g / cm^3
# Si number density = 8.230453 Si / 1000 Ang^3
#
#
#
# Elastic Constant Matrix: (Units=GPa)
#
#
# Indices 1 2 3 4 5 6 
#
# 1 76.7019 19.4488 19.5183 0.0000 0.0000 0.0000
# 2 19.4488 78.7248 23.5841 0.0000 0.0000 0.0000
# 3 19.5183 23.5841 29.7009 0.0000 0.0000 0.0000
# 4 0.0000 0.0000 0.0000 17.3503 0.0000 0.0000
# 5 0.0000 0.0000 0.0000 0.0000 21.9905 0.0000
# 6 0.0000 0.0000 0.0000 0.0000 0.0000 18.2429
#
#
#
# Elastic Compliance Matrix: (Units=1/GPa)
#
#
# Indices 1 2 3 4 5 6 
#
# 1 0.015720 -0.001035 -0.009508 0.000000 0.000000 0.000000
# 2 -0.001035 0.016735 -0.012609 0.000000 0.000000 0.000000
# 3 -0.009508 -0.012609 0.049929 0.000000 0.000000 0.000000
# 4 0.000000 0.000000 0.000000 0.057636 0.000000 0.000000
# 5 0.000000 0.000000 0.000000 0.000000 0.045474 0.000000
# 6 0.000000 0.000000 0.000000 0.000000 0.000000 0.054816
#
#
# Mechanical properties :
#
#
# Convention : Reuss Voigt Hill
#
# Bulk Modulus (GPa) = 27.71596 34.47000 31.09298
# Shear Modulus (GPa) = 16.74251 19.68851 18.21551
#
# Velocity S-wave (km/s) = 3.19267 3.46219 3.33016
# Velocity P-wave (km/s) = 5.51950 6.08016 5.80660
#
# Compressibility (1/GPa) = 0.03608030
#
# Stress axis : x y z
#
# Youngs Moduli (GPa) = 63.61511 59.75353 20.02826
#
# Poissons Ratio (x) = 0.06184 0.19044
# Poissons Ratio (y) = 0.06584 0.25253
# Poissons Ratio (z) = 0.60488 0.75341
#
# Static dielectric constant tensor:
#      x y z
#    x 1.610970 0.000000 0.000000 
#    y 0.000000 1.522730 0.000000 
#    z 0.000000 0.000000 1.554210 
# 
# From -- ./inp_files/54510.got.cif
#   From: 2010.05.17/outbox.ucp.g08.bks.cvg/sg65_28_cif.got.tgz:54510.got - 2010.06.11 16:39:57.
