data_PCOD9494537
_publ_section_title
;
Structure prediction by ZEFSAII (Michael W. Deem and Ramdas Pophale) SiO2 
 PCOD9494537
Probable space group: C M M M
;
_chemical_formula_sum "Si O2"
_cell_formula_units_Z 80
_cell_length_a 14.382117
_cell_length_b 28.285043
_cell_length_c 10.285324
_cell_angle_alpha 90.000000
_cell_angle_beta 90.000000
_cell_angle_gamma 90.000000
_cell_volume 4184.057438
_symmetry_space_group_name_H-M "C M M M"
_symmetry_group_IT_number 65
_symmetry_cell_setting 'orthorhombic'
loop_
_space_group_symop_operation_xyz
x,y,z
-x,-y,z
x,-y,-z
-x,y,-z
-x,-y,-z
x,y,-z
-x,y,z
x,-y,z
1/2+x,1/2+y,z
1/2-x,1/2-y,z
1/2+x,1/2-y,-z
1/2-x,1/2+y,-z
1/2-x,1/2-y,-z
1/2+x,1/2+y,-z
1/2-x,1/2+y,z
1/2+x,1/2-y,z
loop_
_atom_site_type_symbol
_atom_site_label
_atom_site_fract_x
_atom_site_fract_y
_atom_site_fract_z
Si Si1 0.765436 0.051436 0.151795
Si Si2 0.856554 0.767453 0.646552
Si Si3 0.606566 0.072140 0.646526
Si Si4 0.100362 0.670248 0.772534
Si Si5 0.810312 0.155548 0.853064
O O1 0.676620 0.053371 0.245758
O O2 0.821794 0.099726 0.176230
O O3 0.811765 0.000000 0.169476
O O4 0.736750 0.054610 0.000000
O O5 0.888117 0.778363 0.500000
O O6 0.750000 0.750000 0.637762
O O7 0.903064 0.721637 0.709074
O O8 0.857141 0.811421 0.745213
O O9 0.634489 0.059690 0.500000
O O10 0.500000 0.056927 0.666788
O O11 0.607589 0.129022 0.664492
O O12 0.198035 0.665381 0.848279
O O13 0.000000 0.661862 0.840200
O O14 0.842384 0.165806 0.000000
#
# Coordination Sequence:
#
# PCOD9494537 Si02
#       5
#    16  16  16  16  16
#     4   9  18  31  44  57  75 103 139 175 210 249
#     4   9  17  28  43  62  84 112 143 172 206 251
#     4   9  17  28  41  58  81 108 138 171 204 238
#     4   9  17  28  44  65  88 115 146 176 205 243
#     4   9  18  31  45  61  84 113 143 177 216 253
#
# _framework density 19.120197000000001
#
# number of rings (size 3 to 8) (size 9 to 14) (size 15 to 20)
#    0.000    3.000    0.000    0.600    0.000   11.200 
#    0.000    6.000    0.000    0.000    0.000    0.000 
#    0.000    0.800    0.000    6.800    0.000    0.200 
#
# Total GULP energy -222676.067965 kJ/mol
# GULP energy per Si atom -5566.901699 kJ/mol
# Density = 1.907668 g / cm^3
# Si number density = 19.120197 Si / 1000 Ang^3
#
#
#
# Elastic Constant Matrix: (Units=GPa)
#
#
# Indices 1 2 3 4 5 6 
#
# 1 14.8519 5.4620 -11.2063 0.0000 0.0000 0.0000
# 2 5.4620 171.7727 63.8708 0.0000 0.0000 0.0000
# 3 -11.2063 63.8708 86.8153 0.0000 0.0000 0.0000
# 4 0.0000 0.0000 0.0000 8.1863 0.0000 0.0000
# 5 0.0000 0.0000 0.0000 0.0000 -4.3674 0.0000
# 6 0.0000 0.0000 0.0000 0.0000 0.0000 6.5135
#
#
#
# Elastic Compliance Matrix: (Units=1/GPa)
#
#
# Indices 1 2 3 4 5 6 
#
# 1 0.084035 -0.009231 0.017639 0.000000 0.000000 0.000000
# 2 -0.009231 0.009028 -0.007833 0.000000 0.000000 0.000000
# 3 0.017639 -0.007833 0.019559 0.000000 0.000000 0.000000
# 4 0.000000 0.000000 0.000000 0.122156 0.000000 0.000000
# 5 0.000000 0.000000 0.000000 0.000000 -0.228972 0.000000
# 6 0.000000 0.000000 0.000000 0.000000 0.000000 0.153528
#
#
# Mechanical properties :
#
#
# Convention : Reuss Voigt Hill
#
# Bulk Modulus (GPa) = 8.78961 43.29920 26.04441
# Shear Modulus (GPa) = 25.49602 16.42070 20.95836
#
# Velocity S-wave (km/s) = 3.65562 2.93373 3.31439
# Velocity P-wave (km/s) = 4.73551 5.84557 5.31957
#
# Compressibility (1/GPa) = 0.11377069
#
# Stress axis : x y z
#
# Youngs Moduli (GPa) = 11.89977 110.76775 51.12823
#
# Poissons Ratio (x) = 1.02247 -0.90183
# Poissons Ratio (y) = 0.10984 0.40051
# Poissons Ratio (z) = -0.20990 0.86769
#
# Static dielectric constant tensor:
#      x y z
#    x 1.674260 0.000000 0.000000 
#    y 0.000000 1.707790 0.000000 
#    z 0.000000 0.000000 1.651530 
# 
# From -- ./inp_files/12538.got.cif
#   From: 2010.05.17/outbox.cif.g08.bks.cpg/sg65_7_cif.got.tgz:12538.got - 2010.06.03 17:01:31.
