data_PCOD9494093
_publ_section_title
;
Structure prediction by ZEFSAII (Michael W. Deem and Ramdas Pophale) SiO2 
 PCOD9494093
Probable space group: C M M M
;
_chemical_formula_sum "Si O2"
_cell_formula_units_Z 112
_cell_length_a 16.045188
_cell_length_b 15.149267
_cell_length_c 23.911480
_cell_angle_alpha 90.000000
_cell_angle_beta 90.000000
_cell_angle_gamma 90.000000
_cell_volume 5812.231282
_symmetry_space_group_name_H-M "C M M M"
_symmetry_group_IT_number 65
_symmetry_cell_setting 'orthorhombic'
loop_
_space_group_symop_operation_xyz
x,y,z
-x,-y,z
x,-y,-z
-x,y,-z
-x,-y,-z
x,y,-z
-x,y,z
x,-y,z
1/2+x,1/2+y,z
1/2-x,1/2-y,z
1/2+x,1/2-y,-z
1/2-x,1/2+y,-z
1/2-x,1/2-y,-z
1/2+x,1/2+y,-z
1/2-x,1/2+y,z
1/2+x,1/2-y,z
loop_
_atom_site_type_symbol
_atom_site_label
_atom_site_fract_x
_atom_site_fract_y
_atom_site_fract_z
Si Si1 0.099799 0.103006 0.255774
Si Si2 0.154901 0.230384 0.158573
Si Si3 0.092188 0.104301 0.381132
Si Si4 0.764021 0.646260 0.438036
Si Si5 0.900130 0.098547 0.063785
Si Si6 0.095771 0.393739 0.346083
Si Si7 0.400488 0.100092 0.778409
O O1 0.143248 0.164300 0.210833
O O2 0.111434 0.138992 0.318807
O O3 0.000000 0.105045 0.245159
O O4 0.126378 0.000000 0.252078
O O5 0.250000 0.250000 0.147930
O O6 0.120824 0.177063 0.105611
O O7 0.116570 0.324548 0.176364
O O8 0.172663 0.113776 0.419408
O O9 0.000000 0.137248 0.400127
O O10 0.082646 0.000000 0.372620
O O11 0.785834 0.612155 0.500000
O O12 0.750000 0.750000 0.441042
O O13 0.837404 0.629448 0.393570
O O14 0.000000 0.094235 0.061866
O O15 0.871144 0.000000 0.082565
O O16 0.870291 0.112556 0.000000
O O17 0.090722 0.500000 0.344933
O O18 0.127622 0.369362 0.283754
O O19 0.000000 0.360711 0.355217
O O20 0.500000 0.093284 0.772865
O O21 0.368808 0.000000 0.790211
#
# Coordination Sequence:
#
# PCOD9494093 Si02
#       7
#    16  16  16  16  16  16  16
#     4   9  19  36  57  83 113 145 188 242 292 342
#     4  12  24  32  53  90 124 157 187 228 292 348
#     4   9  20  38  59  82 108 143 185 232 292 358
#     4  11  25  39  54  80 113 146 184 233 294 360
#     4   9  19  39  66  90 115 154 203 249 287 329
#     4   9  20  39  61  81 103 141 194 248 295 339
#     4   9  20  38  56  78 111 152 197 240 282 337
#
# _framework density 19.269708000000001
#
# number of rings (size 3 to 8) (size 9 to 14) (size 15 to 20)
#    0.000    2.286    0.000    4.286    4.000    4.857 
#    0.000    2.857    0.000    0.429    0.000    2.000 
#    0.000    0.000    0.000    0.000    0.000    0.000 
#
# Total GULP energy -312200.525882 kJ/mol
# GULP energy per Si atom -5575.009391 kJ/mol
# Density = 1.922585 g / cm^3
# Si number density = 19.269708 Si / 1000 Ang^3
#
#
#
# Elastic Constant Matrix: (Units=GPa)
#
#
# Indices 1 2 3 4 5 6 
#
# 1 58.2250 24.4486 45.9585 0.0000 0.0000 0.0000
# 2 24.4486 93.1354 62.0261 0.0000 0.0000 0.0000
# 3 45.9585 62.0261 113.7437 0.0000 0.0000 0.0000
# 4 0.0000 0.0000 0.0000 24.1416 0.0000 0.0000
# 5 0.0000 0.0000 0.0000 0.0000 35.8016 0.0000
# 6 0.0000 0.0000 0.0000 0.0000 0.0000 18.3416
#
#
#
# Elastic Compliance Matrix: (Units=1/GPa)
#
#
# Indices 1 2 3 4 5 6 
#
# 1 0.025221 0.000261 -0.010333 0.000000 0.000000 0.000000
# 2 0.000261 0.016863 -0.009301 0.000000 0.000000 0.000000
# 3 -0.010333 -0.009301 0.018039 0.000000 0.000000 0.000000
# 4 0.000000 0.000000 0.000000 0.041422 0.000000 0.000000
# 5 0.000000 0.000000 0.000000 0.000000 0.027932 0.000000
# 6 0.000000 0.000000 0.000000 0.000000 0.000000 0.054521
#
#
# Mechanical properties :
#
#
# Convention : Reuss Voigt Hill
#
# Bulk Modulus (GPa) = 46.78002 58.88560 52.83281
# Shear Modulus (GPa) = 21.75149 24.50168 23.12658
#
# Velocity S-wave (km/s) = 3.36339 3.56970 3.46808
# Velocity P-wave (km/s) = 6.27793 6.90038 6.59650
#
# Compressibility (1/GPa) = 0.02137665
#
# Stress axis : x y z
#
# Youngs Moduli (GPa) = 39.64896 59.30217 55.43647
#
# Poissons Ratio (x) = -0.01546 0.57282
# Poissons Ratio (y) = -0.01034 0.51561
# Poissons Ratio (z) = 0.40969 0.55156
#
# Static dielectric constant tensor:
#      x y z
#    x 1.524180 0.000000 0.000000 
#    y 0.000000 1.582640 0.000000 
#    z 0.000000 0.000000 1.702230 
# 
# From -- ./inp_files/69968.got.cif
#   From: 2010.05.17/outbox.cif.g08.bks.cpg/sg65_35_cif.got.tgz:69968.got - 2010.06.03 17:01:31.
