data_PCOD9494688
_publ_section_title
;
Structure prediction by ZEFSAII (Michael W. Deem and Ramdas Pophale) SiO2 
 PCOD9494688
Probable space group: C M M M
;
_chemical_formula_sum "Si O2"
_cell_formula_units_Z 44
_cell_length_a 9.000000
_cell_length_b 18.000000
_cell_length_c 30.000000
_cell_angle_alpha 90.000000
_cell_angle_beta 90.000000
_cell_angle_gamma 90.000000
_cell_volume 4860.000000
_symmetry_space_group_name_H-M "C M M M"
_symmetry_group_IT_number 65
_symmetry_cell_setting 'orthorhombic'
loop_
_space_group_symop_operation_xyz
x,y,z
-x,-y,z
x,-y,-z
-x,y,-z
-x,-y,-z
x,y,-z
-x,y,z
x,-y,z
1/2+x,1/2+y,z
1/2-x,1/2-y,z
1/2+x,1/2-y,-z
1/2-x,1/2+y,-z
1/2-x,1/2-y,-z
1/2+x,1/2+y,-z
1/2-x,1/2+y,z
1/2+x,1/2-y,z
loop_
_atom_site_type_symbol
_atom_site_label
_atom_site_fract_x
_atom_site_fract_y
_atom_site_fract_z
Si Si1 0.673216 0.589513 0.821492
Si Si2 0.675014 0.089647 0.914992
Si Si3 0.178177 0.668055 0.737472
Si Si4 0.678100 0.832494 0.637935
Si Si5 0.321730 0.667288 0.450621
Si Si6 0.678704 0.668283 0.000000
O O1 0.500000 0.612082 0.822656
O O2 0.679116 0.500000 0.819560
O O3 0.755114 0.612186 0.867345
O O4 0.752702 0.621900 0.777902
O O5 0.500000 0.108822 0.916841
O O6 0.761770 0.126186 0.956015
O O7 0.687074 0.000000 0.918435
O O8 0.250000 0.750000 0.739186
O O9 0.207872 0.635795 0.687517
O O10 0.000000 0.673422 0.742174
O O11 0.500000 0.827359 0.632262
O O12 0.750000 0.750000 0.639750
O O13 0.750379 0.868651 0.593740
O O14 0.292345 0.633835 0.500000
O O15 0.500000 0.672882 0.445385
O O16 0.250000 0.750000 0.452241
O O17 0.750000 0.750000 0.000000
O O18 0.500000 0.671385 0.000000
#
# Coordination Sequence:
#
# PCOD9494688 Si02
#       6
#    16  16  16  16  16   8
#     4  10  21  37  57  81 107 136 173 215 257 302
#     4  10  21  39  62  85 110 141 176 213 256 306
#     4  10  20  33  50  73 101 134 171 210 256 308
#     4   9  16  25  38  57  83 117 156 197 242 294
#     4   9  15  21  31  49  75 110 151 193 238 289
#     4  12  25  40  59  85 117 147 179 218 257 300
#
# _framework density 9.0534979999999994
#
# number of rings (size 3 to 8) (size 9 to 14) (size 15 to 20)
#    0.000    2.182    0.000    4.909    0.000    7.273 
#    0.000    3.636    0.000    0.000    0.000    0.000 
#    0.000    0.727    0.000    8.000    0.000    8.909 
#
# Total GULP energy -245353.784529 kJ/mol
# GULP energy per Si atom -5576.222376 kJ/mol
# Density = 0.903289 g / cm^3
# Si number density = 9.053498 Si / 1000 Ang^3
#
#
#
# Elastic Constant Matrix: (Units=GPa)
#
#
# Indices 1 2 3 4 5 6 
#
# 1 158.2927 27.0341 101.9242 0.0000 0.0000 0.0000
# 2 27.0341 13.6232 35.1704 0.0000 0.0000 0.0000
# 3 101.9242 35.1704 224.3486 0.0000 0.0000 0.0000
# 4 0.0000 0.0000 0.0000 -4.9843 0.0000 0.0000
# 5 0.0000 0.0000 0.0000 0.0000 41.6704 0.0000
# 6 0.0000 0.0000 0.0000 0.0000 0.0000 20.7653
#
#
#
# Elastic Compliance Matrix: (Units=1/GPa)
#
#
# Indices 1 2 3 4 5 6 
#
# 1 0.010318 -0.014067 -0.002483 0.000000 0.000000 0.000000
# 2 -0.014067 0.142487 -0.015946 0.000000 0.000000 0.000000
# 3 -0.002483 -0.015946 0.008085 0.000000 0.000000 0.000000
# 4 0.000000 0.000000 0.000000 -0.200629 0.000000 0.000000
# 5 0.000000 0.000000 0.000000 0.000000 0.023998 0.000000
# 6 0.000000 0.000000 0.000000 0.000000 0.000000 0.048157
#
#
# Mechanical properties :
#
#
# Convention : Reuss Voigt Hill
#
# Bulk Modulus (GPa) = 10.42769 80.50242 45.46506
# Shear Modulus (GPa) = 38.64769 26.96599 32.80684
#
# Velocity S-wave (km/s) = 4.62498 3.86328 4.26118
# Velocity P-wave (km/s) = 5.85593 8.02843 7.02665
#
# Compressibility (1/GPa) = 0.09589853
#
# Stress axis : x y z
#
# Youngs Moduli (GPa) = 96.91522 7.01820 123.68482
#
# Poissons Ratio (x) = 0.09872 0.30705
# Poissons Ratio (y) = 1.36328 1.97234
# Poissons Ratio (z) = 0.24059 0.11192
#
# Static dielectric constant tensor:
#      x y z
#    x 1.604150 0.000000 0.000000 
#    y 0.000000 1.599990 0.000000 
#    z 0.000000 0.000000 1.664390 
# 
# From -- ./inp_files/76504.got.cif
#   From: 2010.05.17/outbox.ucp.g08.bks.cvg/sg65_39_cif.got.tgz:76504.got - 2010.06.11 16:39:57.
