data_PCOD9494552
_publ_section_title
;
Structure prediction by ZEFSAII (Michael W. Deem and Ramdas Pophale) SiO2 
 PCOD9494552
Probable space group: C M M M
;
_chemical_formula_sum "Si O2"
_cell_formula_units_Z 56
_cell_length_a 41.354160
_cell_length_b 9.723562
_cell_length_c 7.617196
_cell_angle_alpha 90.000000
_cell_angle_beta 90.000000
_cell_angle_gamma 90.000000
_cell_volume 3062.948693
_symmetry_space_group_name_H-M "C M M M"
_symmetry_group_IT_number 65
_symmetry_cell_setting 'orthorhombic'
loop_
_space_group_symop_operation_xyz
x,y,z
-x,-y,z
x,-y,-z
-x,y,-z
-x,-y,-z
x,y,-z
-x,y,z
x,-y,z
1/2+x,1/2+y,z
1/2-x,1/2-y,z
1/2+x,1/2-y,-z
1/2-x,1/2+y,-z
1/2-x,1/2-y,-z
1/2+x,1/2+y,-z
1/2-x,1/2+y,z
1/2+x,1/2-y,z
loop_
_atom_site_type_symbol
_atom_site_label
_atom_site_fract_x
_atom_site_fract_y
_atom_site_fract_z
Si Si1 0.149014 0.342810 0.789324
Si Si2 0.221035 0.343904 0.710224
Si Si3 0.963266 0.833125 0.500000
Si Si4 0.087750 0.163983 0.207855
O O1 0.146099 0.500000 0.722059
O O2 0.184847 0.290527 0.744045
O O3 0.119574 0.246641 0.732778
O O4 0.147313 0.348349 0.000000
O O5 0.224744 0.351435 0.500000
O O6 0.222653 0.500000 0.780022
O O7 0.250000 0.250000 0.779294
O O8 0.942545 0.794741 0.328221
O O9 0.000000 0.781285 0.500000
O O10 0.964833 0.000000 0.500000
O O11 0.092968 0.000000 0.229103
O O12 0.082129 0.189254 0.000000
#
# Coordination Sequence:
#
# PCOD9494552 Si02
#       4
#    16  16   8  16
#     4   9  18  32  49  69  94 126 162 199 242 289
#     4   9  18  31  45  64  91 123 159 198 241 287
#     4   9  18  32  51  77 104 129 160 197 240 289
#     4   9  18  32  50  74 101 128 162 202 241 284
#
# _framework density 18.283035000000002
#
# number of rings (size 3 to 8) (size 9 to 14) (size 15 to 20)
#    0.000    3.000    0.000    0.000    2.000    2.286 
#    0.000    2.857    0.000    1.714    0.000    4.000 
#    0.000    0.000    0.000    0.000    0.000    0.000 
#
# Total GULP energy -156038.017157 kJ/mol
# GULP energy per Si atom -5572.786327 kJ/mol
# Density = 1.824142 g / cm^3
# Si number density = 18.283035 Si / 1000 Ang^3
#
#
#
# Elastic Constant Matrix: (Units=GPa)
#
#
# Indices 1 2 3 4 5 6 
#
# 1 213.9883 71.7643 51.5012 0.0000 0.0000 0.0000
# 2 71.7643 38.7254 26.2285 0.0000 0.0000 0.0000
# 3 51.5012 26.2285 59.0830 0.0000 0.0000 0.0000
# 4 0.0000 0.0000 0.0000 -5.2642 0.0000 0.0000
# 5 0.0000 0.0000 0.0000 0.0000 41.6569 0.0000
# 6 0.0000 0.0000 0.0000 0.0000 0.0000 23.8717
#
#
#
# Elastic Compliance Matrix: (Units=1/GPa)
#
#
# Indices 1 2 3 4 5 6 
#
# 1 0.012377 -0.022349 -0.000867 0.000000 0.000000 0.000000
# 2 -0.022349 0.077280 -0.014826 0.000000 0.000000 0.000000
# 3 -0.000867 -0.014826 0.024263 0.000000 0.000000 0.000000
# 4 0.000000 0.000000 0.000000 -0.189961 0.000000 0.000000
# 5 0.000000 0.000000 0.000000 0.000000 0.024006 0.000000
# 6 0.000000 0.000000 0.000000 0.000000 0.000000 0.041891
#
#
# Mechanical properties :
#
#
# Convention : Reuss Voigt Hill
#
# Bulk Modulus (GPa) = 26.42982 67.86498 47.14740
# Shear Modulus (GPa) = 63.65213 22.87304 43.26259
#
# Velocity S-wave (km/s) = 5.90681 3.54086 4.86971
# Velocity P-wave (km/s) = 7.81076 7.34279 7.58039
#
# Compressibility (1/GPa) = 0.03783605
#
# Stress axis : x y z
#
# Youngs Moduli (GPa) = 80.79507 12.93991 41.21509
#
# Poissons Ratio (x) = 0.28919 0.03575
# Poissons Ratio (y) = 1.80569 0.61104
# Poissons Ratio (z) = 0.07008 0.19184
#
# Static dielectric constant tensor:
#      x y z
#    x 1.612530 0.000000 0.000000 
#    y 0.000000 1.631670 0.000000 
#    z 0.000000 0.000000 1.656290 
# 
# From -- ./inp_files/4429.got.cif
#   From: 2010.05.17/outbox.cif.g08.bks.cpg/sg65_3_cif.got.tgz:4429.got - 2010.06.03 17:01:31.
