data_PCOD9494348
_publ_section_title
;
Structure prediction by ZEFSAII (Michael W. Deem and Ramdas Pophale) SiO2 
 PCOD9494348
Probable space group: C M M M
;
_chemical_formula_sum "Si O2"
_cell_formula_units_Z 80
_cell_length_a 19.799056
_cell_length_b 7.370899
_cell_length_c 27.364450
_cell_angle_alpha 90.000000
_cell_angle_beta 90.000000
_cell_angle_gamma 90.000000
_cell_volume 3993.481418
_symmetry_space_group_name_H-M "C M M M"
_symmetry_group_IT_number 65
_symmetry_cell_setting 'orthorhombic'
loop_
_space_group_symop_operation_xyz
x,y,z
-x,-y,z
x,-y,-z
-x,y,-z
-x,-y,-z
x,y,-z
-x,y,z
x,-y,z
1/2+x,1/2+y,z
1/2-x,1/2-y,z
1/2+x,1/2-y,-z
1/2-x,1/2+y,-z
1/2-x,1/2-y,-z
1/2+x,1/2+y,-z
1/2-x,1/2+y,z
1/2+x,1/2-y,z
loop_
_atom_site_type_symbol
_atom_site_label
_atom_site_fract_x
_atom_site_fract_y
_atom_site_fract_z
Si Si1 0.330738 0.216733 0.447450
Si Si2 0.578124 0.778860 0.747923
Si Si3 0.921985 0.278879 0.857524
Si Si4 0.330046 0.782785 0.340787
Si Si5 0.329141 0.216818 0.945480
O O1 0.356752 0.286640 0.500000
O O2 0.250000 0.250000 0.447623
O O3 0.353235 0.286325 0.394362
O O4 0.341514 0.000000 0.447623
O O5 0.500000 0.726459 0.740032
O O6 0.598454 0.721981 0.802745
O O7 0.626812 0.714473 0.704863
O O8 0.579511 0.000000 0.747748
O O9 0.920254 0.500000 0.857611
O O10 0.874566 0.213779 0.901169
O O11 0.000000 0.226758 0.865137
O O12 0.250000 0.750000 0.334955
O O13 0.338569 0.000000 0.342009
O O14 0.250000 0.250000 0.936684
O O15 0.338803 0.000000 0.946980
O O16 0.345636 0.286639 0.000000
#
# Coordination Sequence:
#
# PCOD9494348 Si02
#       5
#    16  16  16  16  16
#     4   8  13  21  33  50  73  98 122 151 187 224
#     4   8  14  25  40  57  78 104 131 158 191 231
#     4   8  14  25  41  60  79 100 131 167 194 219
#     4   9  16  25  39  59  79  99 127 161 193 227
#     4   9  17  28  42  61  84 107 129 156 193 233
#
# _framework density 20.032647000000001
#
# number of rings (size 3 to 8) (size 9 to 14) (size 15 to 20)
#    0.000    3.600    0.000    1.200    0.000    1.200 
#    0.000    2.000    0.000    1.800    0.000    9.800 
#    0.000    0.000    0.000   32.400    0.000   15.200 
#
# Total GULP energy -222799.522503 kJ/mol
# GULP energy per Si atom -5569.988063 kJ/mol
# Density = 1.998705 g / cm^3
# Si number density = 20.032647 Si / 1000 Ang^3
#
#
#
# Elastic Constant Matrix: (Units=GPa)
#
#
# Indices 1 2 3 4 5 6 
#
# 1 68.4842 0.8138 121.5846 0.0000 0.0000 0.0000
# 2 0.8138 74.6795 12.1130 0.0000 0.0000 0.0000
# 3 121.5846 12.1130 279.7008 0.0000 0.0000 0.0000
# 4 0.0000 0.0000 0.0000 -3.3250 0.0000 0.0000
# 5 0.0000 0.0000 0.0000 0.0000 80.5044 0.0000
# 6 0.0000 0.0000 0.0000 0.0000 0.0000 8.7833
#
#
#
# Elastic Compliance Matrix: (Units=1/GPa)
#
#
# Indices 1 2 3 4 5 6 
#
# 1 0.065084 0.003907 -0.028461 0.000000 0.000000 0.000000
# 2 0.003907 0.013720 -0.002293 0.000000 0.000000 0.000000
# 3 -0.028461 -0.002293 0.016046 0.000000 0.000000 0.000000
# 4 0.000000 0.000000 0.000000 -0.300751 0.000000 0.000000
# 5 0.000000 0.000000 0.000000 0.000000 0.012422 0.000000
# 6 0.000000 0.000000 0.000000 0.000000 0.000000 0.113852
#
#
# Mechanical properties :
#
#
# Convention : Reuss Voigt Hill
#
# Bulk Modulus (GPa) = 24.29690 76.87636 50.58663
# Shear Modulus (GPa) = -409.30867 36.41608 -186.44629
#
# Velocity S-wave (km/s) = -14.30959 4.26824 -9.65781
# Velocity P-wave (km/s) = 16.15129 7.92145 9.95276
#
# Compressibility (1/GPa) = 0.04115752
#
# Stress axis : x y z
#
# Youngs Moduli (GPa) = 15.36477 72.88714 62.31951
#
# Poissons Ratio (x) = -0.28478 1.77367
# Poissons Ratio (y) = -0.06003 0.14287
# Poissons Ratio (z) = 0.43729 0.16710
#
# Static dielectric constant tensor:
#      x y z
#    x 1.631350 0.000000 0.000000 
#    y 0.000000 1.781260 0.000000 
#    z 0.000000 0.000000 1.756960 
# 
# From -- ./inp_files/68821.got.cif
#   From: 2010.05.17/outbox.cif.g08.bks.cpg/sg65_35_cif.got.tgz:68821.got - 2010.06.03 17:01:31.
