data_PCOD9494925
_publ_section_title
;
Structure prediction by ZEFSAII (Michael W. Deem and Ramdas Pophale) SiO2 
 PCOD9494925
Probable space group: C C C M
;
_chemical_formula_sum "Si O2"
_cell_formula_units_Z 56
_cell_length_a 5.154580
_cell_length_b 14.787317
_cell_length_c 34.013088
_cell_angle_alpha 90.000000
_cell_angle_beta 90.000000
_cell_angle_gamma 90.000000
_cell_volume 2592.559487
_symmetry_space_group_name_H-M "C C C M"
_symmetry_group_IT_number 66
_symmetry_cell_setting 'orthorhombic'
loop_
_space_group_symop_operation_xyz
x,y,z
-x,-y,z
x,-y,1/2-z
-x,y,1/2-z
-x,-y,-z
x,y,-z
-x,y,1/2+z
x,-y,1/2+z
1/2+x,1/2+y,z
1/2-x,1/2-y,z
1/2+x,1/2-y,1/2-z
1/2-x,1/2+y,1/2-z
1/2-x,1/2-y,-z
1/2+x,1/2+y,-z
1/2-x,1/2+y,1/2+z
1/2+x,1/2-y,1/2+z
loop_
_atom_site_type_symbol
_atom_site_label
_atom_site_fract_x
_atom_site_fract_y
_atom_site_fract_z
Si Si1 0.251016 0.563716 0.042848
Si Si2 0.238956 0.639819 0.328494
Si Si3 0.000000 0.313372 0.750000
Si Si4 0.744906 0.357812 0.127439
O O1 0.500000 0.500000 0.041230
O O2 0.289228 0.622505 0.081644
O O3 0.000000 0.500000 0.047285
O O4 0.228112 0.610867 0.000000
O O5 0.250000 0.750000 0.330258
O O6 0.516911 0.607642 0.343819
O O7 0.124791 0.627372 0.284831
O O8 0.021994 0.606864 0.358536
O O9 0.250000 0.250000 0.736833
O O10 0.750000 0.250000 0.132300
#
# Coordination Sequence:
#
# PCOD9494925 Si02
#       4
#    16  16   8  16
#     4  10  21  37  55  75 101 136 177 215 255 312
#     4   9  17  28  45  73 106 135 164 206 254 300
#     4  10  16  26  44  70 107 142 167 200 254 306
#     4  10  19  32  51  77 106 132 167 214 259 300
#
# _framework density 21.600276000000001
#
# number of rings (size 3 to 8) (size 9 to 14) (size 15 to 20)
#    0.000    2.286    0.000    6.000    0.000    0.571 
#    0.000    0.000    0.000   10.286    0.000   15.000 
#    0.000    0.000    0.000    0.000    0.000    0.000 
#
# Total GULP energy -156123.900663 kJ/mol
# GULP energy per Si atom -5575.853595 kJ/mol
# Density = 2.155111 g / cm^3
# Si number density = 21.600276 Si / 1000 Ang^3
#
#
#
# Elastic Constant Matrix: (Units=GPa)
#
#
# Indices 1 2 3 4 5 6 
#
# 1 147.8270 5.0236 38.0104 0.0000 0.0000 0.0000
# 2 5.0236 35.2306 10.1434 0.0000 0.0000 0.0000
# 3 38.0104 10.1434 170.9785 0.0000 0.0000 0.0000
# 4 0.0000 0.0000 0.0000 96.3173 0.0000 0.0000
# 5 0.0000 0.0000 0.0000 0.0000 27.3401 0.0000
# 6 0.0000 0.0000 0.0000 0.0000 0.0000 1.4083
#
#
#
# Elastic Compliance Matrix: (Units=1/GPa)
#
#
# Indices 1 2 3 4 5 6 
#
# 1 0.007186 -0.000575 -0.001563 0.000000 0.000000 0.000000
# 2 -0.000575 0.028924 -0.001588 0.000000 0.000000 0.000000
# 3 -0.001563 -0.001588 0.006290 0.000000 0.000000 0.000000
# 4 0.000000 0.000000 0.000000 0.010382 0.000000 0.000000
# 5 0.000000 0.000000 0.000000 0.000000 0.036576 0.000000
# 6 0.000000 0.000000 0.000000 0.000000 0.000000 0.710072
#
#
# Mechanical properties :
#
#
# Convention : Reuss Voigt Hill
#
# Bulk Modulus (GPa) = 28.61406 51.15456 39.88431
# Shear Modulus (GPa) = 6.10849 45.07038 25.58944
#
# Velocity S-wave (km/s) = 1.68348 4.57285 3.44565
# Velocity P-wave (km/s) = 4.12973 7.18436 5.85959
#
# Compressibility (1/GPa) = 0.03494785
#
# Stress axis : x y z
#
# Youngs Moduli (GPa) = 139.15554 34.57384 158.97009
#
# Poissons Ratio (x) = 0.01986 0.24855
# Poissons Ratio (y) = 0.07995 0.25247
# Poissons Ratio (z) = 0.21757 0.05491
#
# Static dielectric constant tensor:
#      x y z
#    x 1.786740 0.000000 0.000000 
#    y 0.000000 1.789620 0.000000 
#    z 0.000000 0.000000 1.851600 
# 
# From -- ./inp_files/61187.got.cif
#   From: 2010.05.17/outbox.cif.g08.bks.cpg/sg66_31_cif.got.tgz:61187.got - 2010.06.03 17:51:23.
