data_PCOD9494571
_publ_section_title
;
Structure prediction by ZEFSAII (Michael W. Deem and Ramdas Pophale) SiO2 
 PCOD9494571
Probable space group: C M M M
;
_chemical_formula_sum "Si O2"
_cell_formula_units_Z 40
_cell_length_a 27.000000
_cell_length_b 15.000000
_cell_length_c 12.000000
_cell_angle_alpha 90.000000
_cell_angle_beta 90.000000
_cell_angle_gamma 90.000000
_cell_volume 4860.000000
_symmetry_space_group_name_H-M "C M M M"
_symmetry_group_IT_number 65
_symmetry_cell_setting 'orthorhombic'
loop_
_space_group_symop_operation_xyz
x,y,z
-x,-y,z
x,-y,-z
-x,y,-z
-x,-y,-z
x,y,-z
-x,y,z
x,-y,z
1/2+x,1/2+y,z
1/2-x,1/2-y,z
1/2+x,1/2-y,-z
1/2-x,1/2+y,-z
1/2-x,1/2-y,-z
1/2+x,1/2+y,-z
1/2-x,1/2+y,z
1/2+x,1/2-y,z
loop_
_atom_site_type_symbol
_atom_site_label
_atom_site_fract_x
_atom_site_fract_y
_atom_site_fract_z
Si Si1 0.402707 0.391976 0.000000
Si Si2 0.272125 0.395252 0.753782
Si Si3 0.212047 0.107847 0.000000
Si Si4 0.332942 0.098051 0.366445
Si Si5 0.942384 0.893890 0.759687
Si Si6 0.360065 0.708825 0.632527
O O1 0.428558 0.364444 0.885478
O O2 0.403644 0.500000 0.000000
O O3 0.345450 0.364232 0.000000
O O4 0.288430 0.500000 0.753764
O O5 0.220860 0.391015 0.688353
O O6 0.313503 0.335889 0.694805
O O7 0.265135 0.365445 0.881916
O O8 0.213480 0.000000 0.000000
O O9 0.327044 0.097738 0.500000
O O10 0.363278 0.186456 0.338072
O O11 0.352592 0.000000 0.333509
O O12 0.908095 0.842741 0.673817
O O13 0.000000 0.879417 0.739248
O O14 0.932438 0.000000 0.752711
O O15 0.353163 0.700287 0.500000
#
# Coordination Sequence:
#
# PCOD9494571 Si02
#       6
#     8  16   8  16  16  16
#     4   9  15  30  50  70  97 131 165 191 222 275
#     4  10  18  30  48  72 101 130 161 195 234 282
#     4   9  16  27  46  70 100 133 162 192 228 276
#     4   9  19  35  52  68  90 126 170 208 238 276
#     4  10  20  33  51  75 101 128 157 192 237 288
#     4  11  21  32  48  70  98 129 162 199 240 287
#
# _framework density 8.2304530000000007
#
# number of rings (size 3 to 8) (size 9 to 14) (size 15 to 20)
#    0.000    2.200    2.000    2.100    0.000    5.600 
#    0.000    4.000    0.000    0.600    0.000    2.800 
#    0.000    1.600    0.000    0.000    0.000    0.000 
#
# Total GULP energy -222967.589373 kJ/mol
# GULP energy per Si atom -5574.189734 kJ/mol
# Density = 0.821172 g / cm^3
# Si number density = 8.230453 Si / 1000 Ang^3
#
#
#
# Elastic Constant Matrix: (Units=GPa)
#
#
# Indices 1 2 3 4 5 6 
#
# 1 17.5536 11.6586 -9.3604 0.0000 0.0000 0.0000
# 2 11.6586 44.9587 12.7349 0.0000 0.0000 0.0000
# 3 -9.3604 12.7349 19.3310 0.0000 0.0000 0.0000
# 4 0.0000 0.0000 0.0000 -0.7681 0.0000 0.0000
# 5 0.0000 0.0000 0.0000 0.0000 20.0008 0.0000
# 6 0.0000 0.0000 0.0000 0.0000 0.0000 14.2315
#
#
#
# Elastic Compliance Matrix: (Units=1/GPa)
#
#
# Indices 1 2 3 4 5 6 
#
# 1 0.230805 -0.112502 0.185873 0.000000 0.000000 0.000000
# 2 -0.112502 0.082182 -0.108615 0.000000 0.000000 0.000000
# 3 0.185873 -0.108615 0.213287 0.000000 0.000000 0.000000
# 4 0.000000 0.000000 0.000000 -1.301888 0.000000 0.000000
# 5 0.000000 0.000000 0.000000 0.000000 0.049998 0.000000
# 6 0.000000 0.000000 0.000000 0.000000 0.000000 0.070267
#
#
# Mechanical properties :
#
#
# Convention : Reuss Voigt Hill
#
# Bulk Modulus (GPa) = 2.19401 12.43439 7.31420
# Shear Modulus (GPa) = -11.54912 11.14687 -0.20113
#
# Velocity S-wave (km/s) = -2.65166 2.60508 -0.34993
# Velocity P-wave (km/s) = 2.83537 4.07662 2.07117
#
# Compressibility (1/GPa) = 0.45578665
#
# Stress axis : x y z
#
# Youngs Moduli (GPa) = 4.33267 12.16806 4.68852
#
# Poissons Ratio (x) = 1.36893 -0.87147
# Poissons Ratio (y) = 0.48743 0.50925
# Poissons Ratio (z) = -0.80533 1.32164
#
# Static dielectric constant tensor:
#      x y z
#    x 1.519660 0.000000 0.000000 
#    y 0.000000 1.583440 0.000000 
#    z 0.000000 0.000000 1.564320 
# 
# From -- ./inp_files/24708.got.cif
#   From: 2010.05.17/outbox.ucp.g08.bks.cvg/sg65_13_cif.got.tgz:24708.got - 2010.06.11 16:39:57.
