data_PCOD9494338
_publ_section_title
;
Structure prediction by ZEFSAII (Michael W. Deem and Ramdas Pophale) SiO2 
 PCOD9494338
Probable space group: C M M M
;
_chemical_formula_sum "Si O2"
_cell_formula_units_Z 88
_cell_length_a 9.658215
_cell_length_b 14.421415
_cell_length_c 29.761342
_cell_angle_alpha 90.000000
_cell_angle_beta 90.000000
_cell_angle_gamma 90.000000
_cell_volume 4145.312290
_symmetry_space_group_name_H-M "C M M M"
_symmetry_group_IT_number 65
_symmetry_cell_setting 'orthorhombic'
loop_
_space_group_symop_operation_xyz
x,y,z
-x,-y,z
x,-y,-z
-x,y,-z
-x,-y,-z
x,y,-z
-x,y,z
x,-y,z
1/2+x,1/2+y,z
1/2-x,1/2-y,z
1/2+x,1/2-y,-z
1/2-x,1/2+y,-z
1/2-x,1/2-y,-z
1/2+x,1/2+y,-z
1/2-x,1/2+y,z
1/2+x,1/2-y,z
loop_
_atom_site_type_symbol
_atom_site_label
_atom_site_fract_x
_atom_site_fract_y
_atom_site_fract_z
Si Si1 0.339830 0.386970 0.329436
Si Si2 0.841881 0.886797 0.771019
Si Si3 0.653556 0.108798 0.851664
Si Si4 0.341151 0.113330 0.413986
Si Si5 0.333419 0.845149 0.951578
Si Si6 0.340743 0.613198 0.500000
O O1 0.500000 0.357478 0.336901
O O2 0.342601 0.500000 0.330536
O O3 0.294413 0.360159 0.279076
O O4 0.234869 0.357729 0.368178
O O5 0.752041 0.854212 0.812925
O O6 0.000000 0.856294 0.776031
O O7 0.843123 0.000000 0.771572
O O8 0.500000 0.151230 0.849484
O O9 0.704214 0.113435 0.903189
O O10 0.640408 0.000000 0.842019
O O11 0.500000 0.145533 0.417417
O O12 0.245695 0.140529 0.456009
O O13 0.345372 0.000000 0.414168
O O14 0.500000 0.832460 0.950563
O O15 0.250000 0.750000 0.952853
O O16 0.304051 0.892589 0.000000
O O17 0.346089 0.500000 0.500000
O O18 0.500000 0.645845 0.500000
#
# Coordination Sequence:
#
# PCOD9494338 Si02
#       6
#    16  16  16  16  16   8
#     4   8  13  21  31  42  58  82 111 141 178 227
#     4   8  14  24  37  53  74  99 125 155 193 238
#     4   9  17  28  43  64  87 109 135 170 211 251
#     4   9  15  20  26  37  52  71 100 141 186 228
#     4   9  18  32  48  65  86 113 143 173 206 246
#     4   9  15  21  27  33  45  69 101 139 184 231
#
# _framework density 21.228798000000001
#
# number of rings (size 3 to 8) (size 9 to 14) (size 15 to 20)
#    0.000    3.364    0.000    1.909    0.000    5.091 
#    0.000    5.455    0.000    0.000    0.000    5.091 
#    0.000    0.000    0.000    0.000    0.000    0.000 
#
# Total GULP energy -245244.466718 kJ/mol
# GULP energy per Si atom -5573.737880 kJ/mol
# Density = 2.118048 g / cm^3
# Si number density = 21.228798 Si / 1000 Ang^3
#
#
#
# Elastic Constant Matrix: (Units=GPa)
#
#
# Indices 1 2 3 4 5 6 
#
# 1 116.2144 10.9396 129.5432 0.0000 0.0000 0.0000
# 2 10.9396 50.7902 6.5226 0.0000 0.0000 0.0000
# 3 129.5432 6.5226 249.8975 0.0000 0.0000 0.0000
# 4 0.0000 0.0000 0.0000 91.4612 0.0000 0.0000
# 5 0.0000 0.0000 0.0000 0.0000 37.9762 0.0000
# 6 0.0000 0.0000 0.0000 0.0000 0.0000 0.9724
#
#
#
# Elastic Compliance Matrix: (Units=1/GPa)
#
#
# Indices 1 2 3 4 5 6 
#
# 1 0.020863 -0.003115 -0.010734 0.000000 0.000000 0.000000
# 2 -0.003115 0.020220 0.001087 0.000000 0.000000 0.000000
# 3 -0.010734 0.001087 0.009537 0.000000 0.000000 0.000000
# 4 0.000000 0.000000 0.000000 0.010934 0.000000 0.000000
# 5 0.000000 0.000000 0.000000 0.000000 0.026332 0.000000
# 6 0.000000 0.000000 0.000000 0.000000 0.000000 1.028401
#
#
# Mechanical properties :
#
#
# Convention : Reuss Voigt Hill
#
# Bulk Modulus (GPa) = 39.84548 78.99032 59.41790
# Shear Modulus (GPa) = 4.34716 44.07507 24.21112
#
# Velocity S-wave (km/s) = 1.43255 4.56147 3.38077
# Velocity P-wave (km/s) = 4.64183 8.06427 6.57948
#
# Compressibility (1/GPa) = 0.02509695
#
# Stress axis : x y z
#
# Youngs Moduli (GPa) = 47.93248 49.45556 104.85022
#
# Poissons Ratio (x) = 0.15406 1.12542
# Poissons Ratio (y) = 0.14932 -0.11398
# Poissons Ratio (z) = 0.51449 -0.05376
#
# Static dielectric constant tensor:
#      x y z
#    x 1.742270 0.000000 0.000000 
#    y 0.000000 1.779760 0.000000 
#    z 0.000000 0.000000 1.782490 
# 
# From -- ./inp_files/76785.got.cif
#   From: 2010.05.17/outbox.cif.g08.bks.cpg/sg65_39_cif.got.tgz:76785.got - 2010.06.03 17:01:31.
