data_PCOD9494724
_publ_section_title
;
Structure prediction by ZEFSAII (Michael W. Deem and Ramdas Pophale) SiO2 
 PCOD9494724
Probable space group: C M M M
;
_chemical_formula_sum "Si O2"
_cell_formula_units_Z 48
_cell_length_a 15.000000
_cell_length_b 15.000000
_cell_length_c 21.000000
_cell_angle_alpha 90.000000
_cell_angle_beta 90.000000
_cell_angle_gamma 90.000000
_cell_volume 4725.000000
_symmetry_space_group_name_H-M "C M M M"
_symmetry_group_IT_number 65
_symmetry_cell_setting 'orthorhombic'
loop_
_space_group_symop_operation_xyz
x,y,z
-x,-y,z
x,-y,-z
-x,y,-z
-x,-y,-z
x,y,-z
-x,y,z
x,-y,z
1/2+x,1/2+y,z
1/2-x,1/2-y,z
1/2+x,1/2-y,-z
1/2-x,1/2+y,-z
1/2-x,1/2-y,-z
1/2+x,1/2+y,-z
1/2-x,1/2+y,z
1/2+x,1/2-y,z
loop_
_atom_site_type_symbol
_atom_site_label
_atom_site_fract_x
_atom_site_fract_y
_atom_site_fract_z
Si Si1 0.404556 0.898913 0.206331
Si Si2 0.238748 0.897603 0.427385
Si Si3 0.598966 0.834686 0.346460
Si Si4 0.215164 0.155982 0.806626
Si Si5 0.106634 0.106353 0.927082
Si Si6 0.897322 0.128368 0.314188
O O1 0.500000 0.850177 0.193945
O O2 0.387506 0.891731 0.282451
O O3 0.311726 0.878849 0.172959
O O4 0.417920 0.000000 0.190446
O O5 0.217330 0.868750 0.500000
O O6 0.320627 0.844883 0.395657
O O7 0.155829 0.897084 0.378320
O O8 0.269237 0.000000 0.430447
O O9 0.500000 0.855332 0.373042
O O10 0.597613 0.734798 0.320143
O O11 0.250000 0.250000 0.779389
O O12 0.154262 0.157469 0.869303
O O13 0.160774 0.108696 0.749337
O O14 0.000000 0.118110 0.922398
O O15 0.124572 0.000000 0.918771
O O16 0.132908 0.130404 0.000000
O O17 0.000000 0.096832 0.310564
#
# Coordination Sequence:
#
# PCOD9494724 Si02
#       6
#    16  16  16  16  16  16
#     4  10  20  34  54  81 113 146 181 225 278 333
#     4  11  24  40  57  80 112 147 185 234 289 341
#     4  10  20  37  58  81 108 143 185 231 282 335
#     4  12  21  34  60  89 118 147 184 237 284 335
#     4   9  20  39  60  84 117 157 198 236 276 325
#     4  11  23  39  58  82 112 147 188 232 280 338
#
# _framework density 10.15873
#
# number of rings (size 3 to 8) (size 9 to 14) (size 15 to 20)
#    0.000    1.500    3.333    2.500    0.000    5.000 
#    0.000    3.333    0.000    0.500    0.000    2.333 
#    0.000    0.000    0.000    0.000    0.000    0.000 
#
# Total GULP energy -267311.186202 kJ/mol
# GULP energy per Si atom -5568.983046 kJ/mol
# Density = 1.013561 g / cm^3
# Si number density = 10.158730 Si / 1000 Ang^3
#
#
#
# Elastic Constant Matrix: (Units=GPa)
#
#
# Indices 1 2 3 4 5 6 
#
# 1 143.7004 18.8430 61.7330 0.0000 0.0000 0.0000
# 2 18.8430 44.1420 -13.4229 0.0000 0.0000 0.0000
# 3 61.7330 -13.4229 104.1635 0.0000 0.0000 0.0000
# 4 0.0000 0.0000 0.0000 20.3640 0.0000 0.0000
# 5 0.0000 0.0000 0.0000 0.0000 42.2650 0.0000
# 6 0.0000 0.0000 0.0000 0.0000 0.0000 14.5728
#
#
#
# Elastic Compliance Matrix: (Units=1/GPa)
#
#
# Indices 1 2 3 4 5 6 
#
# 1 0.011089 -0.007006 -0.007475 0.000000 0.000000 0.000000
# 2 -0.007006 0.028005 0.007761 0.000000 0.000000 0.000000
# 3 -0.007475 0.007761 0.015030 0.000000 0.000000 0.000000
# 4 0.000000 0.000000 0.000000 0.049106 0.000000 0.000000
# 5 0.000000 0.000000 0.000000 0.000000 0.023660 0.000000
# 6 0.000000 0.000000 0.000000 0.000000 0.000000 0.068621
#
#
# Mechanical properties :
#
#
# Convention : Reuss Voigt Hill
#
# Bulk Modulus (GPa) = 24.57943 47.36801 35.97372
# Shear Modulus (GPa) = 22.47064 30.43056 26.45060
#
# Velocity S-wave (km/s) = 3.32923 3.87428 3.61205
# Velocity P-wave (km/s) = 5.18674 6.58619 5.92791
#
# Compressibility (1/GPa) = 0.04068443
#
# Stress axis : x y z
#
# Youngs Moduli (GPa) = 90.18171 35.70781 66.53220
#
# Poissons Ratio (x) = 0.25018 0.49731
# Poissons Ratio (y) = 0.63185 -0.51637
# Poissons Ratio (z) = 0.67408 -0.27714
#
# Static dielectric constant tensor:
#      x y z
#    x 1.695170 0.000000 0.000000 
#    y 0.000000 1.838910 0.000000 
#    z 0.000000 0.000000 1.673450 
# 
# From -- ./inp_files/62581.got.cif
#   From: 2010.05.17/outbox.ucp.g08.bks.cvg/sg65_32_cif.got.tgz:62581.got - 2010.06.11 16:39:57.
