data_PCOD9494185
_publ_section_title
;
Structure prediction by ZEFSAII (Michael W. Deem and Ramdas Pophale) SiO2 
 PCOD9494185
Probable space group: C M M M
;
_chemical_formula_sum "Si O2"
_cell_formula_units_Z 48
_cell_length_a 35.722094
_cell_length_b 9.320432
_cell_length_c 7.280104
_cell_angle_alpha 90.000000
_cell_angle_beta 90.000000
_cell_angle_gamma 90.000000
_cell_volume 2423.876760
_symmetry_space_group_name_H-M "C M M M"
_symmetry_group_IT_number 65
_symmetry_cell_setting 'orthorhombic'
loop_
_space_group_symop_operation_xyz
x,y,z
-x,-y,z
x,-y,-z
-x,y,-z
-x,-y,-z
x,y,-z
-x,y,z
x,-y,z
1/2+x,1/2+y,z
1/2-x,1/2-y,z
1/2+x,1/2-y,-z
1/2-x,1/2+y,-z
1/2-x,1/2-y,-z
1/2+x,1/2+y,-z
1/2-x,1/2+y,z
1/2+x,1/2-y,z
loop_
_atom_site_type_symbol
_atom_site_label
_atom_site_fract_x
_atom_site_fract_y
_atom_site_fract_z
Si Si1 0.072769 0.664414 0.223183
Si Si2 0.842504 0.670230 0.219873
Si Si3 0.000000 0.835982 0.224258
Si Si4 0.790033 0.827675 0.500000
O O1 0.067160 0.500000 0.279870
O O2 0.114796 0.708552 0.275343
O O3 0.037979 0.758615 0.284766
O O4 0.072663 0.665660 0.000000
O O5 0.837150 0.500000 0.261884
O O6 0.813393 0.768525 0.326082
O O7 0.839195 0.685499 0.000000
O O8 0.000000 0.000000 0.280104
O O9 0.000000 0.831060 0.000000
O O10 0.750000 0.750000 0.500000
O O11 0.786754 0.000000 0.500000
#
# Coordination Sequence:
#
# PCOD9494185 Si02
#       4
#    16  16   8   8
#     4   8  14  26  46  72 103 142 185 226 271 324
#     4   9  19  38  63  88 115 149 190 236 284 336
#     4   9  15  21  35  66 107 146 184 227 269 314
#     4  12  26  42  62  87 116 149 184 228 283 344
#
# _framework density 19.802989
#
# number of rings (size 3 to 8) (size 9 to 14) (size 15 to 20)
#    0.000    2.833    0.000    4.000    0.000    4.667 
#    0.000    3.333    0.000    1.000    0.000    7.000 
#    0.000    0.000    0.000    0.000    0.000    0.000 
#
# Total GULP energy -134006.035573 kJ/mol
# GULP energy per Si atom -5583.584816 kJ/mol
# Density = 1.975792 g / cm^3
# Si number density = 19.802989 Si / 1000 Ang^3
#
#
#
# Elastic Constant Matrix: (Units=GPa)
#
#
# Indices 1 2 3 4 5 6 
#
# 1 213.2317 138.3229 46.1439 0.0000 0.0000 0.0000
# 2 138.3229 144.5441 41.4084 0.0000 0.0000 0.0000
# 3 46.1439 41.4084 94.9398 0.0000 0.0000 0.0000
# 4 0.0000 0.0000 0.0000 15.1387 0.0000 0.0000
# 5 0.0000 0.0000 0.0000 0.0000 44.4054 0.0000
# 6 0.0000 0.0000 0.0000 0.0000 0.0000 34.9399
#
#
#
# Elastic Compliance Matrix: (Units=1/GPa)
#
#
# Indices 1 2 3 4 5 6 
#
# 1 0.012445 -0.011630 -0.000976 0.000000 0.000000 0.000000
# 2 -0.011630 0.018774 -0.002536 0.000000 0.000000 0.000000
# 3 -0.000976 -0.002536 0.012114 0.000000 0.000000 0.000000
# 4 0.000000 0.000000 0.000000 0.066056 0.000000 0.000000
# 5 0.000000 0.000000 0.000000 0.000000 0.022520 0.000000
# 6 0.000000 0.000000 0.000000 0.000000 0.000000 0.028621
#
#
# Mechanical properties :
#
#
# Convention : Reuss Voigt Hill
#
# Bulk Modulus (GPa) = 76.63646 100.49622 88.56634
# Shear Modulus (GPa) = 25.61951 34.01949 29.81950
#
# Velocity S-wave (km/s) = 3.60073 4.14925 3.88468
# Velocity P-wave (km/s) = 7.48802 8.59146 8.05865
#
# Compressibility (1/GPa) = 0.01304862
#
# Stress axis : x y z
#
# Youngs Moduli (GPa) = 80.35092 53.26442 82.55196
#
# Poissons Ratio (x) = 0.61947 0.08060
# Poissons Ratio (y) = 0.93448 0.20934
# Poissons Ratio (z) = 0.07845 0.13507
#
# Static dielectric constant tensor:
#      x y z
#    x 1.674040 0.000000 0.000000 
#    y 0.000000 1.650500 0.000000 
#    z 0.000000 0.000000 1.777320 
# 
# From -- ./inp_files/3113.got.cif
#   From: 2010.05.17/outbox.cif.g08.bks.cpg/sg65_2_cif.got.tgz:3113.got - 2010.06.03 17:01:31.
