data_PCOD9494138
_publ_section_title
;
Structure prediction by ZEFSAII (Michael W. Deem and Ramdas Pophale) SiO2 
 PCOD9494138
Probable space group: C M M M
;
_chemical_formula_sum "Si O2"
_cell_formula_units_Z 112
_cell_length_a 17.590181
_cell_length_b 21.457640
_cell_length_c 14.992115
_cell_angle_alpha 90.000000
_cell_angle_beta 90.000000
_cell_angle_gamma 90.000000
_cell_volume 5658.680427
_symmetry_space_group_name_H-M "C M M M"
_symmetry_group_IT_number 65
_symmetry_cell_setting 'orthorhombic'
loop_
_space_group_symop_operation_xyz
x,y,z
-x,-y,z
x,-y,-z
-x,y,-z
-x,-y,-z
x,y,-z
-x,y,z
x,-y,z
1/2+x,1/2+y,z
1/2-x,1/2-y,z
1/2+x,1/2-y,-z
1/2-x,1/2+y,-z
1/2-x,1/2-y,-z
1/2+x,1/2+y,-z
1/2-x,1/2+y,z
1/2+x,1/2-y,z
loop_
_atom_site_type_symbol
_atom_site_label
_atom_site_fract_x
_atom_site_fract_y
_atom_site_fract_z
Si Si1 0.090714 0.270174 0.603084
Si Si2 0.664445 0.164011 0.231926
Si Si3 0.587901 0.623299 0.393863
Si Si4 0.701287 0.568728 0.744512
Si Si5 0.412676 0.744878 0.895069
Si Si6 0.913580 0.904806 0.896434
Si Si7 0.909088 0.570927 0.098050
O O1 0.112760 0.281254 0.500000
O O2 0.133812 0.312946 0.673177
O O3 0.103268 0.196852 0.623139
O O4 0.000000 0.280366 0.610458
O O5 0.743129 0.127823 0.244978
O O6 0.650865 0.222754 0.165737
O O7 0.615033 0.112654 0.179829
O O8 0.594309 0.613592 0.500000
O O9 0.500000 0.611376 0.368156
O O10 0.645792 0.582356 0.338253
O O11 0.737849 0.500000 0.734528
O O12 0.648442 0.567992 0.831552
O O13 0.500000 0.764108 0.868995
O O14 0.409900 0.670388 0.887041
O O15 0.403801 0.759914 0.000000
O O16 0.000000 0.923401 0.873879
O O17 0.900333 0.919854 0.000000
O O18 0.882090 0.500000 0.108209
O O19 0.000000 0.570006 0.094576
O O20 0.881863 0.593473 0.000000
#
# Coordination Sequence:
#
# PCOD9494138 Si02
#       7
#    16  16  16  16  16  16  16
#     4   9  19  37  63  93 117 139 175 224 280 344
#     4  12  22  33  52  81 119 158 184 218 277 338
#     4   9  20  42  69  91 109 132 173 235 296 341
#     4  12  27  40  52  79 117 155 195 232 268 323
#     4   9  18  34  59  89 114 140 184 240 291 337
#     4   9  20  40  62  83 110 144 185 237 292 342
#     4   9  18  33  53  76 104 146 202 251 279 306
#
# _framework density 19.7926
#
# number of rings (size 3 to 8) (size 9 to 14) (size 15 to 20)
#    0.000    2.143    0.000    5.571    0.000    9.143 
#    0.000    4.286    0.000    1.286    0.000    5.000 
#    0.000    0.000    0.000    0.000    0.000    0.000 
#
# Total GULP energy -312674.773272 kJ/mol
# GULP energy per Si atom -5583.478094 kJ/mol
# Density = 1.974755 g / cm^3
# Si number density = 19.792600 Si / 1000 Ang^3
#
#
#
# Elastic Constant Matrix: (Units=GPa)
#
#
# Indices 1 2 3 4 5 6 
#
# 1 59.9120 31.8146 44.1785 0.0000 0.0000 0.0000
# 2 31.8146 78.7236 37.6174 0.0000 0.0000 0.0000
# 3 44.1785 37.6174 85.0548 0.0000 0.0000 0.0000
# 4 0.0000 0.0000 0.0000 33.2981 0.0000 0.0000
# 5 0.0000 0.0000 0.0000 0.0000 217.8020 0.0000
# 6 0.0000 0.0000 0.0000 0.0000 0.0000 11.5076
#
#
#
# Elastic Compliance Matrix: (Units=1/GPa)
#
#
# Indices 1 2 3 4 5 6 
#
# 1 0.028954 -0.005725 -0.012507 0.000000 0.000000 0.000000
# 2 -0.005725 0.017238 -0.004651 0.000000 0.000000 0.000000
# 3 -0.012507 -0.004651 0.020310 0.000000 0.000000 0.000000
# 4 0.000000 0.000000 0.000000 0.030032 0.000000 0.000000
# 5 0.000000 0.000000 0.000000 0.000000 0.004591 0.000000
# 6 0.000000 0.000000 0.000000 0.000000 0.000000 0.086899
#
#
# Mechanical properties :
#
#
# Convention : Reuss Voigt Hill
#
# Bulk Modulus (GPa) = 48.22128 50.10126 49.16127
# Shear Modulus (GPa) = 20.77261 59.86020 40.31640
#
# Velocity S-wave (km/s) = 3.24313 5.50540 4.51815
# Velocity P-wave (km/s) = 6.20001 8.11052 7.21875
#
# Compressibility (1/GPa) = 0.02073773
#
# Stress axis : x y z
#
# Youngs Moduli (GPa) = 34.53797 58.00978 49.23613
#
# Poissons Ratio (x) = 0.33209 0.61580
# Poissons Ratio (y) = 0.19772 0.22898
# Poissons Ratio (z) = 0.43197 0.26978
#
# Static dielectric constant tensor:
#      x y z
#    x 1.694590 0.000000 0.000000 
#    y 0.000000 1.722650 0.000000 
#    z 0.000000 0.000000 1.680020 
# 
# From -- ./inp_files/40815.got.cif
#   From: 2010.05.17/outbox.cif.g08.bks.cpg/sg65_21_cif.got.tgz:40815.got - 2010.06.03 17:01:31.
