data_PCOD9494624
_publ_section_title
;
Structure prediction by ZEFSAII (Michael W. Deem and Ramdas Pophale) SiO2 
 PCOD9494624
Probable space group: C M M M
;
_chemical_formula_sum "Si O2"
_cell_formula_units_Z 52
_cell_length_a 27.000000
_cell_length_b 9.000000
_cell_length_c 24.000000
_cell_angle_alpha 90.000000
_cell_angle_beta 90.000000
_cell_angle_gamma 90.000000
_cell_volume 5832.000000
_symmetry_space_group_name_H-M "C M M M"
_symmetry_group_IT_number 65
_symmetry_cell_setting 'orthorhombic'
loop_
_space_group_symop_operation_xyz
x,y,z
-x,-y,z
x,-y,-z
-x,y,-z
-x,-y,-z
x,y,-z
-x,y,z
x,-y,z
1/2+x,1/2+y,z
1/2-x,1/2-y,z
1/2+x,1/2-y,-z
1/2-x,1/2+y,-z
1/2-x,1/2-y,-z
1/2+x,1/2+y,-z
1/2-x,1/2+y,z
1/2+x,1/2-y,z
loop_
_atom_site_type_symbol
_atom_site_label
_atom_site_fract_x
_atom_site_fract_y
_atom_site_fract_z
Si Si1 0.358303 0.822906 0.169197
Si Si2 0.704693 0.666729 0.256752
Si Si3 0.000000 0.667207 0.067248
Si Si4 0.056083 0.678570 0.256651
Si Si5 0.302847 0.322311 0.565942
Si Si6 0.102873 0.177280 0.064748
Si Si7 0.882122 0.831445 0.347312
O O1 0.312413 0.762563 0.204293
O O2 0.406360 0.778060 0.206836
O O3 0.360449 0.748431 0.109039
O O4 0.358058 0.000000 0.164532
O O5 0.717802 0.500000 0.240443
O O6 0.750000 0.750000 0.284644
O O7 0.660078 0.660507 0.299927
O O8 0.950548 0.755359 0.080972
O O9 0.000000 0.500000 0.091049
O O10 0.000000 0.655408 0.000000
O O11 0.057283 0.500000 0.258950
O O12 0.075352 0.740212 0.315962
O O13 0.000000 0.727670 0.245327
O O14 0.309849 0.297968 0.500000
O O15 0.299302 0.500000 0.576243
O O16 0.250000 0.250000 0.581224
O O17 0.351092 0.269227 0.600280
O O18 0.101920 0.000000 0.069062
O O19 0.112558 0.216308 0.000000
O O20 0.899025 0.000000 0.359857
#
# Coordination Sequence:
#
# PCOD9494624 Si02
#       7
#    16  16   8  16  16  16  16
#     4  10  20  33  51  73  97 126 161 198 243 294
#     4  10  19  32  50  72  99 126 159 200 243 290
#     4   9  17  29  45  65  89 121 159 193 228 275
#     4   9  19  34  50  70  96 126 161 204 247 286
#     4   9  17  29  46  71 103 134 164 200 242 288
#     4  10  20  33  48  69  98 128 159 197 241 289
#     4   9  18  31  48  72  99 129 164 200 240 289
#
# _framework density 8.9163239999999995
#
# number of rings (size 3 to 8) (size 9 to 14) (size 15 to 20)
#    0.000    2.538    0.000    2.077    1.077    4.000 
#    0.000    0.000    0.000    0.923    0.000    3.231 
#    0.000    0.000    0.000    0.000    0.000    0.000 
#
# Total GULP energy -289705.580394 kJ/mol
# GULP energy per Si atom -5571.261161 kJ/mol
# Density = 0.889603 g / cm^3
# Si number density = 8.916324 Si / 1000 Ang^3
#
#
#
# Elastic Constant Matrix: (Units=GPa)
#
#
# Indices 1 2 3 4 5 6 
#
# 1 33.8254 19.8216 7.9904 0.0000 0.0000 0.0000
# 2 19.8216 43.4093 30.6828 0.0000 0.0000 0.0000
# 3 7.9904 30.6828 79.3722 0.0000 0.0000 0.0000
# 4 0.0000 0.0000 0.0000 21.3082 0.0000 0.0000
# 5 0.0000 0.0000 0.0000 0.0000 17.4636 0.0000
# 6 0.0000 0.0000 0.0000 0.0000 0.0000 23.6694
#
#
#
# Elastic Compliance Matrix: (Units=1/GPa)
#
#
# Indices 1 2 3 4 5 6 
#
# 1 0.041414 -0.021965 0.004322 0.000000 0.000000 0.000000
# 2 -0.021965 0.043348 -0.014546 0.000000 0.000000 0.000000
# 3 0.004322 -0.014546 0.017787 0.000000 0.000000 0.000000
# 4 0.000000 0.000000 0.000000 0.046930 0.000000 0.000000
# 5 0.000000 0.000000 0.000000 0.000000 0.057262 0.000000
# 6 0.000000 0.000000 0.000000 0.000000 0.000000 0.042249
#
#
# Mechanical properties :
#
#
# Convention : Reuss Voigt Hill
#
# Bulk Modulus (GPa) = 26.19832 30.39961 28.29897
# Shear Modulus (GPa) = 15.33316 19.02906 17.18111
#
# Velocity S-wave (km/s) = 2.93548 3.27018 3.10734
# Velocity P-wave (km/s) = 5.11981 5.59848 5.36449
#
# Compressibility (1/GPa) = 0.03817038
#
# Stress axis : x y z
#
# Youngs Moduli (GPa) = 24.14627 23.06933 56.22208
#
# Poissons Ratio (x) = 0.50673 -0.24299
# Poissons Ratio (y) = 0.53038 0.81778
# Poissons Ratio (z) = -0.10436 0.33556
#
# Static dielectric constant tensor:
#      x y z
#    x 1.591690 0.000000 0.000000 
#    y 0.000000 1.613790 0.000000 
#    z 0.000000 0.000000 1.619410 
# 
# From -- ./inp_files/68578.got.cif
#   From: 2010.05.17/outbox.ucp.g08.bks.cvg/sg65_35_cif.got.tgz:68578.got - 2010.06.11 16:39:57.
