data_PCOD9494053
_publ_section_title
;
Structure prediction by ZEFSAII (Michael W. Deem and Ramdas Pophale) SiO2 
 PCOD9494053
Probable space group: C M M M
;
_chemical_formula_sum "Si O2"
_cell_formula_units_Z 104
_cell_length_a 28.336249
_cell_length_b 17.589935
_cell_length_c 11.139554
_cell_angle_alpha 90.000000
_cell_angle_beta 90.000000
_cell_angle_gamma 90.000000
_cell_volume 5552.318847
_symmetry_space_group_name_H-M "C M M M"
_symmetry_group_IT_number 65
_symmetry_cell_setting 'orthorhombic'
loop_
_space_group_symop_operation_xyz
x,y,z
-x,-y,z
x,-y,-z
-x,y,-z
-x,-y,-z
x,y,-z
-x,y,z
x,-y,z
1/2+x,1/2+y,z
1/2-x,1/2-y,z
1/2+x,1/2-y,-z
1/2-x,1/2+y,-z
1/2-x,1/2-y,-z
1/2+x,1/2+y,-z
1/2-x,1/2+y,z
1/2+x,1/2-y,z
loop_
_atom_site_type_symbol
_atom_site_label
_atom_site_fract_x
_atom_site_fract_y
_atom_site_fract_z
Si Si1 0.942537 0.000000 0.637525
Si Si2 0.296092 0.695955 0.134775
Si Si3 0.447202 0.084225 0.143480
Si Si4 0.055419 0.167360 0.354659
Si Si5 0.123051 0.289027 0.768759
Si Si6 0.320532 0.082656 0.636494
Si Si7 0.793128 0.087953 0.635620
O O1 0.929906 0.917626 0.689377
O O2 0.925354 0.000000 0.500000
O O3 0.000000 0.000000 0.633336
O O4 0.250000 0.750000 0.154688
O O5 0.343171 0.746491 0.138575
O O6 0.303354 0.639207 0.247899
O O7 0.290468 0.661950 0.000000
O O8 0.500000 0.099545 0.189421
O O9 0.412618 0.150707 0.176251
O O10 0.433204 0.000000 0.186900
O O11 0.449402 0.080536 0.000000
O O12 0.056741 0.166677 0.500000
O O13 0.091512 0.229070 0.304658
O O14 0.000000 0.180813 0.321430
O O15 0.158124 0.342186 0.692672
O O16 0.337651 0.080187 0.500000
O O17 0.263928 0.087141 0.633491
O O18 0.331990 0.000000 0.693778
O O19 0.808617 0.113836 0.500000
O O20 0.809098 0.000000 0.649695
#
# Coordination Sequence:
#
# PCOD9494053 Si02
#       7
#     8  16  16  16  16  16  16
#     4   7  12  28  50  70 101 141 175 219 273 323
#     4  11  24  40  55  81 120 157 194 240 290 344
#     4   9  19  36  56  79 107 138 180 236 286 330
#     4   9  18  32  52  80 111 144 186 236 290 345
#     4  12  20  32  54  81 110 150 190 229 282 356
#     4   9  18  32  51  77 108 142 183 233 286 340
#     4   9  19  39  63  82 104 144 198 246 288 341
#
# _framework density 18.730912
#
# number of rings (size 3 to 8) (size 9 to 14) (size 15 to 20)
#    0.000    2.385    1.538    4.154    0.000    1.846 
#    1.385    0.000    0.000    0.000    0.000    6.462 
#    0.000    4.923    0.000    0.000    0.000    0.000 
#
# Total GULP energy -289561.759847 kJ/mol
# GULP energy per Si atom -5568.495382 kJ/mol
# Density = 1.868828 g / cm^3
# Si number density = 18.730912 Si / 1000 Ang^3
#
#
#
# Elastic Constant Matrix: (Units=GPa)
#
#
# Indices 1 2 3 4 5 6 
#
# 1 63.7935 37.8285 18.2397 0.0000 0.0000 0.0000
# 2 37.8285 114.5612 48.5213 0.0000 0.0000 0.0000
# 3 18.2397 48.5213 87.8441 0.0000 0.0000 0.0000
# 4 0.0000 0.0000 0.0000 27.1549 0.0000 0.0000
# 5 0.0000 0.0000 0.0000 0.0000 -91.1666 0.0000
# 6 0.0000 0.0000 0.0000 0.0000 0.0000 32.2889
#
#
#
# Elastic Compliance Matrix: (Units=1/GPa)
#
#
# Indices 1 2 3 4 5 6 
#
# 1 0.019520 -0.006173 -0.000643 0.000000 0.000000 0.000000
# 2 -0.006173 0.013347 -0.006091 0.000000 0.000000 0.000000
# 3 -0.000643 -0.006091 0.014882 0.000000 0.000000 0.000000
# 4 0.000000 0.000000 0.000000 0.036826 0.000000 0.000000
# 5 0.000000 0.000000 0.000000 0.000000 -0.010969 0.000000
# 6 0.000000 0.000000 0.000000 0.000000 0.000000 0.030970
#
#
# Mechanical properties :
#
#
# Convention : Reuss Voigt Hill
#
# Bulk Modulus (GPa) = 45.59000 52.81976 49.20488
# Shear Modulus (GPa) = 36.31048 4.42938 20.36993
#
# Velocity S-wave (km/s) = 4.40765 1.53944 3.30131
# Velocity P-wave (km/s) = 7.09193 5.60538 6.39202
#
# Compressibility (1/GPa) = 0.02193463
#
# Stress axis : x y z
#
# Youngs Moduli (GPa) = 51.22924 74.92356 67.19741
#
# Poissons Ratio (x) = 0.46251 0.04323
# Poissons Ratio (y) = 0.31625 0.40927
# Poissons Ratio (z) = 0.03296 0.45632
#
# Static dielectric constant tensor:
#      x y z
#    x 1.674750 0.000000 0.000000 
#    y 0.000000 1.686620 0.000000 
#    z 0.000000 0.000000 1.648480 
# 
# From -- ./inp_files/34134.got.cif
#   From: 2010.05.17/outbox.cif.g08.bks.cpg/sg65_18_cif.got.tgz:34134.got - 2010.06.03 17:01:31.
