data_PCOD9494085
_publ_section_title
;
Structure prediction by ZEFSAII (Michael W. Deem and Ramdas Pophale) SiO2 
 PCOD9494085
Probable space group: C M M M
;
_chemical_formula_sum "Si O2"
_cell_formula_units_Z 72
_cell_length_a 10.341397
_cell_length_b 15.171764
_cell_length_c 25.861609
_cell_angle_alpha 90.000000
_cell_angle_beta 90.000000
_cell_angle_gamma 90.000000
_cell_volume 4057.614937
_symmetry_space_group_name_H-M "C M M M"
_symmetry_group_IT_number 65
_symmetry_cell_setting 'orthorhombic'
loop_
_space_group_symop_operation_xyz
x,y,z
-x,-y,z
x,-y,-z
-x,y,-z
-x,-y,-z
x,y,-z
-x,y,z
x,-y,z
1/2+x,1/2+y,z
1/2-x,1/2-y,z
1/2+x,1/2-y,-z
1/2-x,1/2+y,-z
1/2-x,1/2-y,-z
1/2+x,1/2+y,-z
1/2-x,1/2+y,z
1/2+x,1/2-y,z
loop_
_atom_site_type_symbol
_atom_site_label
_atom_site_fract_x
_atom_site_fract_y
_atom_site_fract_z
Si Si1 0.155049 0.000000 0.938611
Si Si2 0.846605 0.603769 0.560769
Si Si3 0.000000 0.749448 0.293483
Si Si4 0.745363 0.647302 0.862575
Si Si5 0.000000 0.602643 0.203618
Si Si6 0.750000 0.250000 0.634255
Si Si7 0.000000 0.895713 0.208835
O O1 0.218839 0.915419 0.911290
O O2 0.000000 0.000000 0.927670
O O3 0.172423 0.000000 0.000000
O O4 0.821412 0.620346 0.500000
O O5 0.825701 0.500000 0.570515
O O6 0.761653 0.665269 0.597112
O O7 0.000000 0.621540 0.569658
O O8 0.000000 0.668548 0.252507
O O9 0.874405 0.748001 0.329218
O O10 0.000000 0.838648 0.260329
O O11 0.750000 0.750000 0.876637
O O12 0.625762 0.630511 0.824047
O O13 0.874647 0.621536 0.831669
O O14 0.000000 0.500000 0.219530
O O15 0.000000 0.000000 0.217738
#
# Coordination Sequence:
#
# PCOD9494085 Si02
#       7
#     8  16   8  16   8   8   8
#     4  11  24  43  67  99 129 163 205 251 322 383
#     4   9  19  39  67  92 120 166 214 252 310 390
#     4  12  26  38  59  94 127 166 208 268 306 372
#     4  12  21  40  68  91 122 161 205 260 302 362
#     4  12  24  40  64  92 119 162 217 258 300 360
#     4  12  23  40  60  92 136 156 203 266 330 354
#     4  12  22  42  64  86 117 170 219 242 302 376
#
# _framework density 17.744413999999999
#
# number of rings (size 3 to 8) (size 9 to 14) (size 15 to 20)
#    0.000    0.778    6.667    2.333    0.000    2.222 
#    0.000    1.111    0.000    1.333    0.000    0.000 
#    0.000    0.000    0.000    0.000    0.000    0.000 
#
# Total GULP energy -201198.665999 kJ/mol
# GULP energy per Si atom -5588.851833 kJ/mol
# Density = 1.770403 g / cm^3
# Si number density = 17.744414 Si / 1000 Ang^3
#
#
#
# Elastic Constant Matrix: (Units=GPa)
#
#
# Indices 1 2 3 4 5 6 
#
# 1 142.8211 53.5153 74.5191 0.0000 0.0000 0.0000
# 2 53.5153 180.4658 89.0862 0.0000 0.0000 0.0000
# 3 74.5191 89.0862 134.0525 0.0000 0.0000 0.0000
# 4 0.0000 0.0000 0.0000 31.4902 0.0000 0.0000
# 5 0.0000 0.0000 0.0000 0.0000 10.0777 0.0000
# 6 0.0000 0.0000 0.0000 0.0000 0.0000 28.9079
#
#
#
# Elastic Compliance Matrix: (Units=1/GPa)
#
#
# Indices 1 2 3 4 5 6 
#
# 1 0.009875 -0.000325 -0.005273 0.000000 0.000000 0.000000
# 2 -0.000325 0.008257 -0.005307 0.000000 0.000000 0.000000
# 3 -0.005273 -0.005307 0.013918 0.000000 0.000000 0.000000
# 4 0.000000 0.000000 0.000000 0.031756 0.000000 0.000000
# 5 0.000000 0.000000 0.000000 0.000000 0.099229 0.000000
# 6 0.000000 0.000000 0.000000 0.000000 0.000000 0.034593
#
#
# Mechanical properties :
#
#
# Convention : Reuss Voigt Hill
#
# Bulk Modulus (GPa) = 97.65964 99.06451 98.36207
# Shear Modulus (GPa) = 22.43651 30.10977 26.27314
#
# Velocity S-wave (km/s) = 3.55974 4.12376 3.85209
# Velocity P-wave (km/s) = 8.48834 8.86700 8.67973
#
# Compressibility (1/GPa) = 0.01023964
#
# Stress axis : x y z
#
# Youngs Moduli (GPa) = 101.26491 121.10527 71.85006
#
# Poissons Ratio (x) = 0.03938 0.37890
# Poissons Ratio (y) = 0.03293 0.38129
# Poissons Ratio (z) = 0.53401 0.64267
#
# Static dielectric constant tensor:
#      x y z
#    x 1.593950 0.000000 0.000000 
#    y 0.000000 1.603420 0.000000 
#    z 0.000000 0.000000 1.579340 
# 
# From -- ./inp_files/72643.got.cif
#   From: 2010.05.17/outbox.cif.g08.bks.cpg/sg65_37_cif.got.tgz:72643.got - 2010.06.03 17:01:31.
