data_PCOD9494706
_publ_section_title
;
Structure prediction by ZEFSAII (Michael W. Deem and Ramdas Pophale) SiO2 
 PCOD9494706
Probable space group: C M M M
;
_chemical_formula_sum "Si O2"
_cell_formula_units_Z 52
_cell_length_a 15.000000
_cell_length_b 18.000000
_cell_length_c 24.000000
_cell_angle_alpha 90.000000
_cell_angle_beta 90.000000
_cell_angle_gamma 90.000000
_cell_volume 6480.000000
_symmetry_space_group_name_H-M "C M M M"
_symmetry_group_IT_number 65
_symmetry_cell_setting 'orthorhombic'
loop_
_space_group_symop_operation_xyz
x,y,z
-x,-y,z
x,-y,-z
-x,y,-z
-x,-y,-z
x,y,-z
-x,y,z
x,-y,z
1/2+x,1/2+y,z
1/2-x,1/2-y,z
1/2+x,1/2-y,-z
1/2-x,1/2+y,-z
1/2-x,1/2-y,-z
1/2+x,1/2+y,-z
1/2-x,1/2+y,z
1/2+x,1/2-y,z
loop_
_atom_site_type_symbol
_atom_site_label
_atom_site_fract_x
_atom_site_fract_y
_atom_site_fract_z
Si Si1 0.103796 0.409128 0.377911
Si Si2 0.788234 0.409489 0.269712
Si Si3 0.401403 0.410899 0.902735
Si Si4 0.605562 0.089322 0.842810
Si Si5 0.598412 0.590204 0.228770
Si Si6 0.776111 0.665878 0.063378
Si Si7 0.391634 0.914238 0.500000
O O1 0.105509 0.500000 0.379438
O O2 0.165017 0.384635 0.326699
O O3 0.133431 0.382375 0.439533
O O4 0.000000 0.388882 0.368712
O O5 0.786728 0.500000 0.271153
O O6 0.846848 0.389859 0.215450
O O7 0.686482 0.383623 0.260740
O O8 0.500000 0.385511 0.921445
O O9 0.399708 0.500000 0.907076
O O10 0.392323 0.392243 0.836926
O O11 0.316872 0.378430 0.933529
O O12 0.500000 0.104810 0.841044
O O13 0.655208 0.130759 0.892999
O O14 0.617002 0.000000 0.849806
O O15 0.500000 0.615952 0.247509
O O16 0.597899 0.500000 0.232073
O O17 0.750000 0.750000 0.078116
O O18 0.810829 0.664172 0.000000
O O19 0.500000 0.915602 0.500000
O O20 0.361032 0.000000 0.500000
#
# Coordination Sequence:
#
# PCOD9494706 Si02
#       7
#    16  16  16  16  16  16   8
#     4   8  12  17  27  47  76 110 145 177 210 252
#     4   9  14  22  39  62  85 108 139 181 222 261
#     4   9  17  32  54  74  88 105 138 187 233 267
#     4  10  20  34  52  72  93 118 150 188 227 270
#     4   8  13  22  39  62  83 100 124 168 224 268
#     4  11  24  38  50  66  91 122 151 180 219 273
#     4   7  10  16  24  38  69 111 148 177 204 244
#
# _framework density 8.0246910000000007
#
# number of rings (size 3 to 8) (size 9 to 14) (size 15 to 20)
#    0.000    3.000    1.538    2.769    0.000    4.308 
#    0.000    3.077    0.000    0.000    0.000    0.538 
#    0.000    4.308    0.000    0.692    0.000    1.154 
#
# Total GULP energy -289479.008366 kJ/mol
# GULP energy per Si atom -5566.904007 kJ/mol
# Density = 0.800643 g / cm^3
# Si number density = 8.024691 Si / 1000 Ang^3
#
#
#
# Elastic Constant Matrix: (Units=GPa)
#
#
# Indices 1 2 3 4 5 6 
#
# 1 118.5896 21.1898 73.5368 0.0000 0.0000 0.0000
# 2 21.1898 11.3790 23.4632 0.0000 0.0000 0.0000
# 3 73.5368 23.4632 119.2061 0.0000 0.0000 0.0000
# 4 0.0000 0.0000 0.0000 1.5041 0.0000 0.0000
# 5 0.0000 0.0000 0.0000 0.0000 24.0209 0.0000
# 6 0.0000 0.0000 0.0000 0.0000 0.0000 4.4423
#
#
#
# Elastic Compliance Matrix: (Units=1/GPa)
#
#
# Indices 1 2 3 4 5 6 
#
# 1 0.015025 -0.014925 -0.006331 0.000000 0.000000 0.000000
# 2 -0.014925 0.162738 -0.022824 0.000000 0.000000 0.000000
# 3 -0.006331 -0.022824 0.016787 0.000000 0.000000 0.000000
# 4 0.000000 0.000000 0.000000 0.664864 0.000000 0.000000
# 5 0.000000 0.000000 0.000000 0.000000 0.041630 0.000000
# 6 0.000000 0.000000 0.000000 0.000000 0.000000 0.225107
#
#
# Mechanical properties :
#
#
# Convention : Reuss Voigt Hill
#
# Bulk Modulus (GPa) = 9.39950 53.95045 31.67497
# Shear Modulus (GPa) = 4.00072 14.72578 9.36325
#
# Velocity S-wave (km/s) = 1.58056 3.03236 2.41799
# Velocity P-wave (km/s) = 3.03319 6.77854 5.25113
#
# Compressibility (1/GPa) = 0.10638869
#
# Stress axis : x y z
#
# Youngs Moduli (GPa) = 66.55488 6.14486 59.56990
#
# Poissons Ratio (x) = 0.09171 0.37715
# Poissons Ratio (y) = 0.99332 1.35965
# Poissons Ratio (z) = 0.42137 0.14025
#
# Static dielectric constant tensor:
#      x y z
#    x 1.549170 0.000000 0.000000 
#    y 0.000000 1.533990 0.000000 
#    z 0.000000 0.000000 1.555390 
# 
# From -- ./inp_files/70142.got.cif
#   From: 2010.05.17/outbox.ucp.g08.bks.cvg/sg65_36_cif.got.tgz:70142.got - 2010.06.11 16:39:57.
