data_PCOD9494794
_publ_section_title
;
Structure prediction by ZEFSAII (Michael W. Deem and Ramdas Pophale) SiO2 
 PCOD9494794
Probable space group: C M M M
;
_chemical_formula_sum "Si O2"
_cell_formula_units_Z 52
_cell_length_a 9.000000
_cell_length_b 21.000000
_cell_length_c 27.000000
_cell_angle_alpha 90.000000
_cell_angle_beta 90.000000
_cell_angle_gamma 90.000000
_cell_volume 5103.000000
_symmetry_space_group_name_H-M "C M M M"
_symmetry_group_IT_number 65
_symmetry_cell_setting 'orthorhombic'
loop_
_space_group_symop_operation_xyz
x,y,z
-x,-y,z
x,-y,-z
-x,y,-z
-x,-y,-z
x,y,-z
-x,y,z
x,-y,z
1/2+x,1/2+y,z
1/2-x,1/2-y,z
1/2+x,1/2-y,-z
1/2-x,1/2+y,-z
1/2-x,1/2-y,-z
1/2+x,1/2+y,-z
1/2-x,1/2+y,z
1/2+x,1/2-y,z
loop_
_atom_site_type_symbol
_atom_site_label
_atom_site_fract_x
_atom_site_fract_y
_atom_site_fract_z
Si Si1 0.179870 0.073055 0.608255
Si Si2 0.165225 0.311062 0.652491
Si Si3 0.176587 0.431376 0.914150
Si Si4 0.324597 0.569109 0.806503
Si Si5 0.338179 0.692169 0.942284
Si Si6 0.335056 0.810310 0.230305
Si Si7 0.669258 0.577187 0.500000
O O1 0.243872 0.124650 0.644903
O O2 0.235548 0.092872 0.553183
O O3 0.000000 0.074423 0.607829
O O4 0.223783 0.000000 0.618327
O O5 0.250000 0.250000 0.631024
O O6 0.150700 0.299942 0.711108
O O7 0.000000 0.317068 0.631551
O O8 0.217434 0.500000 0.936290
O O9 0.241351 0.430062 0.858883
O O10 0.246284 0.371836 0.940606
O O11 0.000000 0.426508 0.913132
O O12 0.500000 0.575274 0.814400
O O13 0.296738 0.500000 0.782746
O O14 0.260955 0.627112 0.776437
O O15 0.500000 0.683235 0.919347
O O16 0.250000 0.750000 0.918114
O O17 0.357732 0.708058 0.000000
O O18 0.500000 0.817909 0.208869
O O19 0.250000 0.750000 0.208325
O O20 0.660015 0.500000 0.500000
O O21 0.500000 0.601829 0.500000
#
# Coordination Sequence:
#
# PCOD9494794 Si02
#       7
#    16  16  16  16  16  16   8
#     4   9  17  31  53  78 103 133 170 211 255 306
#     4  10  21  36  53  74 103 137 172 213 259 307
#     4  10  21  37  57  81 110 143 178 217 262 312
#     4  10  21  37  57  81 109 139 173 215 260 308
#     4  10  21  37  57  81 110 143 180 223 267 311
#     4  10  21  37  56  77 103 136 174 215 259 309
#     4   7  12  26  48  73 100 131 167 207 252 301
#
# _framework density 10.190084000000001
#
# number of rings (size 3 to 8) (size 9 to 14) (size 15 to 20)
#    0.000    2.385    0.000    3.231    0.000    6.462 
#    0.000    8.462    0.000    1.385    0.000    0.000 
#    0.000    0.000    0.000    0.000    0.000    0.000 
#
# Total GULP energy -289627.736891 kJ/mol
# GULP energy per Si atom -5569.764171 kJ/mol
# Density = 1.016689 g / cm^3
# Si number density = 10.190084 Si / 1000 Ang^3
#
#
#
# Elastic Constant Matrix: (Units=GPa)
#
#
# Indices 1 2 3 4 5 6 
#
# 1 89.5161 84.8884 15.7462 0.0000 0.0000 0.0000
# 2 84.8884 142.1177 13.8156 0.0000 0.0000 0.0000
# 3 15.7462 13.8156 14.2613 0.0000 0.0000 0.0000
# 4 0.0000 0.0000 0.0000-2964.4274 0.0000 0.0000
# 5 0.0000 0.0000 0.0000 0.0000 7.1315 0.0000
# 6 0.0000 0.0000 0.0000 0.0000 0.0000 13.6521
#
#
#
# Elastic Compliance Matrix: (Units=1/GPa)
#
#
# Indices 1 2 3 4 5 6 
#
# 1 0.029016 -0.015695 -0.016832 0.000000 0.000000 0.000000
# 2 -0.015695 0.016258 0.001580 0.000000 0.000000 0.000000
# 3 -0.016832 0.001580 0.087174 0.000000 0.000000 0.000000
# 4 0.000000 0.000000 0.000000 -0.000337 0.000000 0.000000
# 5 0.000000 0.000000 0.000000 0.000000 0.140224 0.000000
# 6 0.000000 0.000000 0.000000 0.000000 0.000000 0.073249
#
#
# Mechanical properties :
#
#
# Convention : Reuss Voigt Hill
#
# Bulk Modulus (GPa) = 14.17386 52.75504 33.46445
# Shear Modulus (GPa) = 11.60103 -579.96577 -284.18237
#
# Velocity S-wave (km/s) = 2.38845 -16.88761 -11.82131
# Velocity P-wave (km/s) = 3.81786 18.82322 13.03337
#
# Compressibility (1/GPa) = 0.07055241
#
# Stress axis : x y z
#
# Youngs Moduli (GPa) = 34.46402 61.50935 11.47125
#
# Poissons Ratio (x) = 0.96540 0.19309
# Poissons Ratio (y) = 0.54092 -0.01812
# Poissons Ratio (z) = 0.58011 -0.09717
#
# Static dielectric constant tensor:
#      x y z
#    x 1.695270 0.000000 0.000000 
#    y 0.000000 1.752600 0.000000 
#    z 0.000000 0.000000 1.765210 
# 
# From -- ./inp_files/73315.got.cif
#   From: 2010.05.17/outbox.ucp.g08.bks.cvg/sg65_37_cif.got.tgz:73315.got - 2010.06.11 16:39:57.
