data_PCOD9494115
_publ_section_title
;
Structure prediction by ZEFSAII (Michael W. Deem and Ramdas Pophale) SiO2 
 PCOD9494115
Probable space group: C M M M
;
_chemical_formula_sum "Si O2"
_cell_formula_units_Z 68
_cell_length_a 14.749450
_cell_length_b 11.859204
_cell_length_c 20.282492
_cell_angle_alpha 90.000000
_cell_angle_beta 90.000000
_cell_angle_gamma 90.000000
_cell_volume 3547.747307
_symmetry_space_group_name_H-M "C M M M"
_symmetry_group_IT_number 65
_symmetry_cell_setting 'orthorhombic'
loop_
_space_group_symop_operation_xyz
x,y,z
-x,-y,z
x,-y,-z
-x,y,-z
-x,-y,-z
x,y,-z
-x,y,z
x,-y,z
1/2+x,1/2+y,z
1/2-x,1/2-y,z
1/2+x,1/2-y,-z
1/2-x,1/2+y,-z
1/2-x,1/2-y,-z
1/2+x,1/2+y,-z
1/2-x,1/2+y,z
1/2+x,1/2-y,z
loop_
_atom_site_type_symbol
_atom_site_label
_atom_site_fract_x
_atom_site_fract_y
_atom_site_fract_z
Si Si1 0.257268 0.500000 0.000000
Si Si2 0.500000 0.866033 0.225603
Si Si3 0.299439 0.866231 0.422063
Si Si4 0.143203 0.235039 0.856217
Si Si5 0.500000 0.134670 0.625150
Si Si6 0.398034 0.812860 0.000000
Si Si7 0.101517 0.000000 0.879750
O O1 0.187273 0.396453 0.000000
O O2 0.321016 0.500000 0.936003
O O3 0.412424 0.824052 0.185788
O O4 0.500000 0.820385 0.300007
O O5 0.500000 0.000000 0.226326
O O6 0.279587 0.871322 0.500000
O O7 0.250000 0.750000 0.396094
O O8 0.405927 0.840175 0.410831
O O9 0.283129 0.000000 0.397903
O O10 0.250000 0.250000 0.851902
O O11 0.112469 0.244446 0.932652
O O12 0.114992 0.110334 0.836250
O O13 0.500000 0.000000 0.631213
O O14 0.500000 0.863288 0.000000
O O15 0.000000 0.000000 0.908393
#
# Coordination Sequence:
#
# PCOD9494115 Si02
#       7
#     4   8  16  16   8   8   8
#     4  12  24  36  62  92 114 138 178 232 310 370
#     4  11  26  43  63  84 113 157 202 243 284 345
#     4   9  17  32  61  96 128 160 199 245 294 344
#     4  12  25  42  62  85 114 146 190 239 301 357
#     4   9  19  38  60  85 119 161 204 239 282 340
#     4  12  23  39  60  89 112 140 179 243 305 355
#     4  12  23  41  61  84 115 147 178 235 290 369
#
# _framework density 19.167092
#
# number of rings (size 3 to 8) (size 9 to 14) (size 15 to 20)
#    0.000    1.176    4.706    1.765    3.294    2.353 
#    0.000    0.588    5.176    2.824    0.000    0.000 
#    0.000    0.000    0.000    0.000    0.000    0.000 
#
# Total GULP energy -189476.739462 kJ/mol
# GULP energy per Si atom -5572.845278 kJ/mol
# Density = 1.912347 g / cm^3
# Si number density = 19.167092 Si / 1000 Ang^3
#
#
#
# Elastic Constant Matrix: (Units=GPa)
#
#
# Indices 1 2 3 4 5 6 
#
# 1 151.9605 45.3065 -3.2419 0.0000 0.0000 0.0000
# 2 45.3065 126.4904 4.5609 0.0000 0.0000 0.0000
# 3 -3.2419 4.5609 13.3400 0.0000 0.0000 0.0000
# 4 0.0000 0.0000 0.0000 5.6846 0.0000 0.0000
# 5 0.0000 0.0000 0.0000 0.0000 -8.9128 0.0000
# 6 0.0000 0.0000 0.0000 0.0000 0.0000 -9.8438
#
#
#
# Elastic Compliance Matrix: (Units=1/GPa)
#
#
# Indices 1 2 3 4 5 6 
#
# 1 0.007467 -0.002774 0.002763 0.000000 0.000000 0.000000
# 2 -0.002774 0.009035 -0.003763 0.000000 0.000000 0.000000
# 3 0.002763 -0.003763 0.076921 0.000000 0.000000 0.000000
# 4 0.000000 0.000000 0.000000 0.175915 0.000000 0.000000
# 5 0.000000 0.000000 0.000000 0.000000 -0.112199 0.000000
# 6 0.000000 0.000000 0.000000 0.000000 0.000000 -0.101587
#
#
# Mechanical properties :
#
#
# Convention : Reuss Voigt Hill
#
# Bulk Modulus (GPa) = 11.64498 42.78241 27.21369
# Shear Modulus (GPa) = 54.51082 13.72997 34.12039
#
# Velocity S-wave (km/s) = 5.33868 2.67934 4.22377
# Velocity P-wave (km/s) = 6.64009 5.65164 6.16570
#
# Compressibility (1/GPa) = 0.08587395
#
# Stress axis : x y z
#
# Youngs Moduli (GPa) = 133.92838 110.68014 13.00040
#
# Poissons Ratio (x) = 0.30703 -0.03592
# Poissons Ratio (y) = 0.37152 0.04892
# Poissons Ratio (z) = -0.37005 0.41651
#
# Static dielectric constant tensor:
#      x y z
#    x 1.669570 0.000000 0.000000 
#    y 0.000000 1.772970 0.000000 
#    z 0.000000 0.000000 1.694570 
# 
# From -- ./inp_files/61257.got.cif
#   From: 2010.05.17/outbox.cif.g08.bks.cpg/sg65_31_cif.got.tgz:61257.got - 2010.06.03 17:01:31.
