data_PCOD9494056
_publ_section_title
;
Structure prediction by ZEFSAII (Michael W. Deem and Ramdas Pophale) SiO2 
 PCOD9494056
Probable space group: C M M M
;
_chemical_formula_sum "Si O2"
_cell_formula_units_Z 72
_cell_length_a 10.288796
_cell_length_b 28.797962
_cell_length_c 13.929401
_cell_angle_alpha 90.000000
_cell_angle_beta 90.000000
_cell_angle_gamma 90.000000
_cell_volume 4127.230761
_symmetry_space_group_name_H-M "C M M M"
_symmetry_group_IT_number 65
_symmetry_cell_setting 'orthorhombic'
loop_
_space_group_symop_operation_xyz
x,y,z
-x,-y,z
x,-y,-z
-x,y,-z
-x,-y,-z
x,y,-z
-x,y,z
x,-y,z
1/2+x,1/2+y,z
1/2-x,1/2-y,z
1/2+x,1/2-y,-z
1/2-x,1/2+y,-z
1/2-x,1/2-y,-z
1/2+x,1/2+y,-z
1/2-x,1/2+y,z
1/2+x,1/2-y,z
loop_
_atom_site_type_symbol
_atom_site_label
_atom_site_fract_x
_atom_site_fract_y
_atom_site_fract_z
Si Si1 0.842058 0.603064 0.612843
Si Si2 0.500000 0.305738 0.885453
Si Si3 0.347255 0.552323 0.884254
Si Si4 0.852221 0.500000 0.616376
Si Si5 0.000000 0.694575 0.112796
Si Si6 0.248905 0.645365 0.201948
O O1 0.817273 0.611063 0.500000
O O2 0.795732 0.550486 0.638985
O O3 0.772699 0.638283 0.684649
O O4 0.000000 0.604633 0.625717
O O5 0.500000 0.250182 0.876950
O O6 0.374950 0.327201 0.833788
O O7 0.500000 0.317631 0.000000
O O8 0.500000 0.558978 0.858379
O O9 0.308812 0.500000 0.854638
O O10 0.263079 0.593652 0.841613
O O11 0.340622 0.554283 0.000000
O O12 0.860808 0.500000 0.500000
O O13 0.000000 0.500000 0.654238
O O14 0.125773 0.671985 0.160069
O O15 0.000000 0.684082 0.000000
#
# Coordination Sequence:
#
# PCOD9494056 Si02
#       6
#    16   8  16   8   8  16
#     4   9  18  34  55  82 117 154 192 237 284 336
#     4  11  24  42  62  82 115 154 192 240 295 357
#     4   9  18  33  53  79 117 161 194 219 269 353
#     4   7  12  26  50  77 110 151 191 227 275 335
#     4  11  24  40  60  88 115 142 192 254 301 341
#     4  12  21  36  61  88 111 155 194 237 289 345
#
# _framework density 17.445111000000001
#
# number of rings (size 3 to 8) (size 9 to 14) (size 15 to 20)
#    0.000    2.111    2.222    4.667    1.556    1.778 
#    0.000    1.111    0.000    6.000    0.000    3.889 
#    0.000    0.000    0.000    0.000    0.000    0.000 
#
# Total GULP energy -200737.525063 kJ/mol
# GULP energy per Si atom -5576.042363 kJ/mol
# Density = 1.740540 g / cm^3
# Si number density = 17.445111 Si / 1000 Ang^3
#
#
#
# Elastic Constant Matrix: (Units=GPa)
#
#
# Indices 1 2 3 4 5 6 
#
# 1 101.4027 53.5219 54.2291 0.0000 0.0000 0.0000
# 2 53.5219 94.3766 66.3300 0.0000 0.0000 0.0000
# 3 54.2291 66.3300 114.7905 0.0000 0.0000 0.0000
# 4 0.0000 0.0000 0.0000 25.9588 0.0000 0.0000
# 5 0.0000 0.0000 0.0000 0.0000 23.7013 0.0000
# 6 0.0000 0.0000 0.0000 0.0000 0.0000 18.1353
#
#
#
# Elastic Compliance Matrix: (Units=1/GPa)
#
#
# Indices 1 2 3 4 5 6 
#
# 1 0.014925 -0.005908 -0.003637 0.000000 0.000000 0.000000
# 2 -0.005908 0.020180 -0.008870 0.000000 0.000000 0.000000
# 3 -0.003637 -0.008870 0.015555 0.000000 0.000000 0.000000
# 4 0.000000 0.000000 0.000000 0.038523 0.000000 0.000000
# 5 0.000000 0.000000 0.000000 0.000000 0.042192 0.000000
# 6 0.000000 0.000000 0.000000 0.000000 0.000000 0.055141
#
#
# Mechanical properties :
#
#
# Convention : Reuss Voigt Hill
#
# Bulk Modulus (GPa) = 72.30311 73.19242 72.74777
# Shear Modulus (GPa) = 21.93410 22.65833 22.29621
#
# Velocity S-wave (km/s) = 3.54972 3.60785 3.57890
# Velocity P-wave (km/s) = 7.63785 7.70729 7.67265
#
# Compressibility (1/GPa) = 0.01383066
#
# Stress axis : x y z
#
# Youngs Moduli (GPa) = 67.00164 49.55349 64.28786
#
# Poissons Ratio (x) = 0.29276 0.23382
# Poissons Ratio (y) = 0.39584 0.57022
# Poissons Ratio (z) = 0.24369 0.43953
#
# Static dielectric constant tensor:
#      x y z
#    x 1.793330 0.000000 0.000000 
#    y 0.000000 1.608770 0.000000 
#    z 0.000000 0.000000 1.592170 
# 
# From -- ./inp_files/36626.got.cif
#   From: 2010.05.17/outbox.cif.g08.bks.cpg/sg65_19_cif.got.tgz:36626.got - 2010.06.03 17:01:31.
