data_PCOD9494779
_publ_section_title
;
Structure prediction by ZEFSAII (Michael W. Deem and Ramdas Pophale) SiO2 
 PCOD9494779
Probable space group: C M M M
;
_chemical_formula_sum "Si O2"
_cell_formula_units_Z 44
_cell_length_a 9.000000
_cell_length_b 18.000000
_cell_length_c 30.000000
_cell_angle_alpha 90.000000
_cell_angle_beta 90.000000
_cell_angle_gamma 90.000000
_cell_volume 4860.000000
_symmetry_space_group_name_H-M "C M M M"
_symmetry_group_IT_number 65
_symmetry_cell_setting 'orthorhombic'
loop_
_space_group_symop_operation_xyz
x,y,z
-x,-y,z
x,-y,-z
-x,y,-z
-x,-y,-z
x,y,-z
-x,y,z
x,-y,z
1/2+x,1/2+y,z
1/2-x,1/2-y,z
1/2+x,1/2-y,-z
1/2-x,1/2+y,-z
1/2-x,1/2-y,-z
1/2+x,1/2+y,-z
1/2-x,1/2+y,z
1/2+x,1/2-y,z
loop_
_atom_site_type_symbol
_atom_site_label
_atom_site_fract_x
_atom_site_fract_y
_atom_site_fract_z
Si Si1 0.178262 0.912975 0.590186
Si Si2 0.321654 0.913262 0.138898
Si Si3 0.678214 0.087037 0.319048
Si Si4 0.320189 0.830420 0.228817
Si Si5 0.324094 0.589885 0.048610
Si Si6 0.179752 0.169571 0.500000
O O1 0.249820 0.883003 0.635598
O O2 0.225412 0.872576 0.545068
O O3 0.000000 0.907882 0.593725
O O4 0.217850 0.000000 0.586501
O O5 0.500000 0.909873 0.136163
O O6 0.273620 0.872224 0.183705
O O7 0.255190 0.882064 0.092979
O O8 0.279302 0.000000 0.142659
O O9 0.500000 0.092285 0.322690
O O10 0.725104 0.127228 0.273844
O O11 0.717565 0.000000 0.315399
O O12 0.500000 0.826983 0.228649
O O13 0.250000 0.750000 0.229104
O O14 0.500000 0.603911 0.051478
O O15 0.304637 0.500000 0.048353
O O16 0.270294 0.616903 0.000000
O O17 0.250000 0.250000 0.500000
O O18 0.000000 0.173117 0.500000
#
# Coordination Sequence:
#
# PCOD9494779 Si02
#       6
#    16  16  16  16  16   8
#     4   9  18  34  55  76  98 127 164 203 242 285
#     4   9  17  30  49  71  94 123 160 199 237 280
#     4   9  18  34  55  76  98 126 161 201 244 288
#     4  10  21  35  50  70  98 130 161 196 240 288
#     4   8  14  25  42  67  98 126 152 189 239 288
#     4  10  21  35  51  73 103 136 166 200 242 286
#
# _framework density 9.0534979999999994
#
# number of rings (size 3 to 8) (size 9 to 14) (size 15 to 20)
#    0.000    2.909    0.000    1.364    0.000    6.545 
#    0.000    5.455    0.000    8.727    0.000    0.000 
#    0.000    0.000    0.000    0.000    0.000    0.000 
#
# Total GULP energy -245175.978712 kJ/mol
# GULP energy per Si atom -5572.181334 kJ/mol
# Density = 0.903289 g / cm^3
# Si number density = 9.053498 Si / 1000 Ang^3
#
#
#
# Elastic Constant Matrix: (Units=GPa)
#
#
# Indices 1 2 3 4 5 6 
#
# 1 -0.4209 22.3186 46.6964 0.0000 0.0000 0.0000
# 2 22.3186 56.8384 82.6449 0.0000 0.0000 0.0000
# 3 46.6964 82.6449 244.8960 0.0000 0.0000 0.0000
# 4 0.0000 0.0000 0.0000 -26.2735 0.0000 0.0000
# 5 0.0000 0.0000 0.0000 0.0000 33.4790 0.0000
# 6 0.0000 0.0000 0.0000 0.0000 0.0000 22.4128
#
#
#
# Elastic Compliance Matrix: (Units=1/GPa)
#
#
# Indices 1 2 3 4 5 6 
#
# 1 -0.092494 0.020960 0.010563 0.000000 0.000000 0.000000
# 2 0.020960 0.029795 -0.014051 0.000000 0.000000 0.000000
# 3 0.010563 -0.014051 0.006811 0.000000 0.000000 0.000000
# 4 0.000000 0.000000 0.000000 -0.038061 0.000000 0.000000
# 5 0.000000 0.000000 0.000000 0.000000 0.029869 0.000000
# 6 0.000000 0.000000 0.000000 0.000000 0.000000 0.044617
#
#
# Mechanical properties :
#
#
# Convention : Reuss Voigt Hill
#
# Bulk Modulus (GPa) = -47.74496 67.18148 9.71826
# Shear Modulus (GPa) = -81.44873 15.90057 -32.77408
#
# Velocity S-wave (km/s) = -6.71413 2.96657 -4.25905
# Velocity P-wave (km/s) = 9.30223 6.99407 4.33673
#
# Compressibility (1/GPa) = -0.02094462
#
# Stress axis : x y z
#
# Youngs Moduli (GPa) = -10.81148 33.56311 146.81914
#
# Poissons Ratio (x) = -0.70349 -1.55089
# Poissons Ratio (y) = 0.22661 2.06302
# Poissons Ratio (z) = 0.11420 0.47161
#
# Static dielectric constant tensor:
#      x y z
#    x 1.610440 0.000000 0.000000 
#    y 0.000000 1.600560 0.000000 
#    z 0.000000 0.000000 1.636990 
# 
# From -- ./inp_files/68926.got.cif
#   From: 2010.05.17/outbox.ucp.g08.bks.cvg/sg65_35_cif.got.tgz:68926.got - 2010.06.11 16:39:57.
