data_PCOD9494547
_publ_section_title
;
Structure prediction by ZEFSAII (Michael W. Deem and Ramdas Pophale) SiO2 
 PCOD9494547
Probable space group: C M M M
;
_chemical_formula_sum "Si O2"
_cell_formula_units_Z 64
_cell_length_a 21.407867
_cell_length_b 18.514117
_cell_length_c 7.666495
_cell_angle_alpha 90.000000
_cell_angle_beta 90.000000
_cell_angle_gamma 90.000000
_cell_volume 3038.598077
_symmetry_space_group_name_H-M "C M M M"
_symmetry_group_IT_number 65
_symmetry_cell_setting 'orthorhombic'
loop_
_space_group_symop_operation_xyz
x,y,z
-x,-y,z
x,-y,-z
-x,y,-z
-x,-y,-z
x,y,-z
-x,y,z
x,-y,z
1/2+x,1/2+y,z
1/2-x,1/2-y,z
1/2+x,1/2-y,-z
1/2-x,1/2+y,-z
1/2-x,1/2-y,-z
1/2+x,1/2+y,-z
1/2-x,1/2+y,z
1/2+x,1/2-y,z
loop_
_atom_site_type_symbol
_atom_site_label
_atom_site_fract_x
_atom_site_fract_y
_atom_site_fract_z
Si Si1 0.571394 0.000000 0.708387
Si Si2 0.136229 0.080356 0.798194
Si Si3 0.500000 0.587023 0.303616
Si Si4 0.819892 0.229011 0.785456
Si Si5 0.072241 0.660931 0.207444
O O1 0.596190 0.078471 0.764027
O O2 0.500000 0.000000 0.776325
O O3 0.570797 0.000000 0.500000
O O4 0.063778 0.104316 0.791528
O O5 0.171216 0.147566 0.718685
O O6 0.142227 0.000000 0.719962
O O7 0.154750 0.074501 0.000000
O O8 0.500000 0.500000 0.313688
O O9 0.500000 0.616192 0.500000
O O10 0.750000 0.250000 0.737123
O O11 0.876126 0.281958 0.726720
O O12 0.822859 0.228569 0.000000
O O13 0.000000 0.667432 0.276418
O O14 0.067821 0.671751 0.000000
#
# Coordination Sequence:
#
# PCOD9494547 Si02
#       5
#     8  16   8  16  16
#     4   9  17  31  51  75 103 129 162 211 256 298
#     4   9  17  30  50  74 101 133 168 206 249 296
#     4   9  17  29  47  73 101 128 163 206 249 293
#     4   9  18  32  49  75 108 134 165 210 253 295
#     4   9  17  30  51  76 101 132 167 204 249 301
#
# _framework density 21.062344
#
# number of rings (size 3 to 8) (size 9 to 14) (size 15 to 20)
#    0.000    3.000    0.000    0.750    1.750    3.000 
#    2.250    1.250    0.000    3.000    0.000    0.000 
#    0.000    0.000    0.000    0.000    0.000    0.000 
#
# Total GULP energy -178187.100987 kJ/mol
# GULP energy per Si atom -5568.346906 kJ/mol
# Density = 2.101440 g / cm^3
# Si number density = 21.062344 Si / 1000 Ang^3
#
#
#
# Elastic Constant Matrix: (Units=GPa)
#
#
# Indices 1 2 3 4 5 6 
#
# 1 116.5246 101.0829 2.0649 0.0000 0.0000 0.0000
# 2 101.0829 181.8174 4.2917 0.0000 0.0000 0.0000
# 3 2.0649 4.2917 42.9558 0.0000 0.0000 0.0000
# 4 0.0000 0.0000 0.0000 -11.3039 0.0000 0.0000
# 5 0.0000 0.0000 0.0000 0.0000 138.4319 0.0000
# 6 0.0000 0.0000 0.0000 0.0000 0.0000 21.8279
#
#
#
# Elastic Compliance Matrix: (Units=1/GPa)
#
#
# Indices 1 2 3 4 5 6 
#
# 1 0.016577 -0.009219 0.000124 0.000000 0.000000 0.000000
# 2 -0.009219 0.010640 -0.000620 0.000000 0.000000 0.000000
# 3 0.000124 -0.000620 0.023336 0.000000 0.000000 0.000000
# 4 0.000000 0.000000 0.000000 -0.088465 0.000000 0.000000
# 5 0.000000 0.000000 0.000000 0.000000 0.007224 0.000000
# 6 0.000000 0.000000 0.000000 0.000000 0.000000 0.045813
#
#
# Mechanical properties :
#
#
# Convention : Reuss Voigt Hill
#
# Bulk Modulus (GPa) = 32.13022 61.79743 46.96382
# Shear Modulus (GPa) = 111.28703 45.38171 78.33437
#
# Velocity S-wave (km/s) = 7.27679 4.64684 6.10511
# Velocity P-wave (km/s) = 9.26769 7.62855 8.48778
#
# Compressibility (1/GPa) = 0.03112335
#
# Stress axis : x y z
#
# Youngs Moduli (GPa) = 60.32422 93.98410 42.85278
#
# Poissons Ratio (x) = 0.86645 -0.00532
# Poissons Ratio (y) = 0.55614 0.02656
# Poissons Ratio (z) = -0.00749 0.05826
#
# Static dielectric constant tensor:
#      x y z
#    x 1.739490 0.000000 0.000000 
#    y 0.000000 1.800800 0.000000 
#    z 0.000000 0.000000 1.770670 
# 
# From -- ./inp_files/8819.got.cif
#   From: 2010.05.17/outbox.cif.g08.bks.cpg/sg65_5_cif.got.tgz:8819.got - 2010.06.03 17:01:31.
