data_PCOD9494634
_publ_section_title
;
Structure prediction by ZEFSAII (Michael W. Deem and Ramdas Pophale) SiO2 
 PCOD9494634
Probable space group: C M M M
;
_chemical_formula_sum "Si O2"
_cell_formula_units_Z 36
_cell_length_a 21.000000
_cell_length_b 9.000000
_cell_length_c 21.000000
_cell_angle_alpha 90.000000
_cell_angle_beta 90.000000
_cell_angle_gamma 90.000000
_cell_volume 3969.000000
_symmetry_space_group_name_H-M "C M M M"
_symmetry_group_IT_number 65
_symmetry_cell_setting 'orthorhombic'
loop_
_space_group_symop_operation_xyz
x,y,z
-x,-y,z
x,-y,-z
-x,y,-z
-x,-y,-z
x,y,-z
-x,y,z
x,-y,z
1/2+x,1/2+y,z
1/2-x,1/2-y,z
1/2+x,1/2-y,-z
1/2-x,1/2+y,-z
1/2-x,1/2-y,-z
1/2+x,1/2+y,-z
1/2-x,1/2+y,z
1/2+x,1/2-y,z
loop_
_atom_site_type_symbol
_atom_site_label
_atom_site_fract_x
_atom_site_fract_y
_atom_site_fract_z
Si Si1 0.319724 0.822821 0.139161
Si Si2 0.928834 0.830047 0.632687
Si Si3 0.180603 0.677790 0.000000
Si Si4 0.570548 0.327812 0.214449
Si Si5 0.812105 0.325107 0.426733
O O1 0.250000 0.750000 0.147051
O O2 0.371104 0.765795 0.188745
O O3 0.312390 0.000000 0.142798
O O4 0.346874 0.781320 0.068656
O O5 0.929032 0.826288 0.709083
O O6 0.875992 0.721492 0.607356
O O7 0.000000 0.793060 0.610335
O O8 0.914443 0.000000 0.613139
O O9 0.250000 0.750000 0.000000
O O10 0.186761 0.500000 0.000000
O O11 0.500000 0.275521 0.193766
O O12 0.577724 0.500000 0.194542
O O13 0.816943 0.273196 0.500000
O O14 0.803294 0.500000 0.426142
O O15 0.750000 0.250000 0.396940
#
# Coordination Sequence:
#
# PCOD9494634 Si02
#       5
#    16  16   8  16  16
#     4  10  19  32  52  76 101 131 168 208 251 299
#     4   9  19  36  56  76 100 133 170 207 249 297
#     4   8  16  30  47  70  99 129 163 205 249 294
#     4   9  19  36  54  73 101 134 168 208 251 295
#     4  10  21  36  54  77 105 135 167 206 250 295
#
# _framework density 9.0702949999999998
#
# number of rings (size 3 to 8) (size 9 to 14) (size 15 to 20)
#    0.000    2.667    0.000    2.667    0.000    5.333 
#    0.000    5.000    0.000    3.333    0.000    0.000 
#    0.000    0.000    0.000    0.000    0.000    0.000 
#
# Total GULP energy -200467.463369 kJ/mol
# GULP energy per Si atom -5568.540649 kJ/mol
# Density = 0.904965 g / cm^3
# Si number density = 9.070295 Si / 1000 Ang^3
#
#
#
# Elastic Constant Matrix: (Units=GPa)
#
#
# Indices 1 2 3 4 5 6 
#
# 1 85.0408 51.1034 24.9787 0.0000 0.0000 0.0000
# 2 51.1034 37.6923 21.6725 0.0000 0.0000 0.0000
# 3 24.9787 21.6725 16.5357 0.0000 0.0000 0.0000
# 4 0.0000 0.0000 0.0000 20.7152 0.0000 0.0000
# 5 0.0000 0.0000 0.0000 0.0000 6.1314 0.0000
# 6 0.0000 0.0000 0.0000 0.0000 0.0000 30.1905
#
#
#
# Elastic Compliance Matrix: (Units=1/GPa)
#
#
# Indices 1 2 3 4 5 6 
#
# 1 0.090973 -0.179895 0.098356 0.000000 0.000000 0.000000
# 2 -0.179895 0.463408 -0.335618 0.000000 0.000000 0.000000
# 3 0.098356 -0.335618 0.351778 0.000000 0.000000 0.000000
# 4 0.000000 0.000000 0.000000 0.048274 0.000000 0.000000
# 5 0.000000 0.000000 0.000000 0.000000 0.163094 0.000000
# 6 0.000000 0.000000 0.000000 0.000000 0.000000 0.033123
#
#
# Mechanical properties :
#
#
# Convention : Reuss Voigt Hill
#
# Bulk Modulus (GPa) = 13.91890 37.19756 25.55823
# Shear Modulus (GPa) = 2.48891 14.17503 8.33197
#
# Velocity S-wave (km/s) = 1.17260 2.79838 2.14545
# Velocity P-wave (km/s) = 3.08590 5.56695 4.50076
#
# Compressibility (1/GPa) = 0.07184476
#
# Stress axis : x y z
#
# Youngs Moduli (GPa) = 10.99223 2.15792 2.84270
#
# Poissons Ratio (x) = 0.38820 -0.27960
# Poissons Ratio (y) = 1.97745 0.95406
# Poissons Ratio (z) = -1.08115 0.72424
#
# Static dielectric constant tensor:
#      x y z
#    x 1.603280 0.000000 0.000000 
#    y 0.000000 1.611180 0.000000 
#    z 0.000000 0.000000 1.659040 
# 
# From -- ./inp_files/56461.got.cif
#   From: 2010.05.17/outbox.ucp.g08.bks.cvg/sg65_29_cif.got.tgz:56461.got - 2010.06.11 16:39:57.
