data_PCOD9494346
_publ_section_title
;
Structure prediction by ZEFSAII (Michael W. Deem and Ramdas Pophale) SiO2 
 PCOD9494346
Probable space group: C M M M
;
_chemical_formula_sum "Si O2"
_cell_formula_units_Z 104
_cell_length_a 9.575101
_cell_length_b 19.336833
_cell_length_c 34.456659
_cell_angle_alpha 90.000000
_cell_angle_beta 90.000000
_cell_angle_gamma 90.000000
_cell_volume 6379.723772
_symmetry_space_group_name_H-M "C M M M"
_symmetry_group_IT_number 65
_symmetry_cell_setting 'orthorhombic'
loop_
_space_group_symop_operation_xyz
x,y,z
-x,-y,z
x,-y,-z
-x,y,-z
-x,-y,-z
x,y,-z
-x,y,z
x,-y,z
1/2+x,1/2+y,z
1/2-x,1/2-y,z
1/2+x,1/2-y,-z
1/2-x,1/2+y,-z
1/2-x,1/2-y,-z
1/2+x,1/2+y,-z
1/2-x,1/2+y,z
1/2+x,1/2-y,z
loop_
_atom_site_type_symbol
_atom_site_label
_atom_site_fract_x
_atom_site_fract_y
_atom_site_fract_z
Si Si1 0.334556 0.581862 0.192856
Si Si2 0.839381 0.415640 0.117288
Si Si3 0.339167 0.084195 0.500000
Si Si4 0.338302 0.584169 0.043641
Si Si5 0.166391 0.179251 0.647257
Si Si6 0.334742 0.417954 0.424606
Si Si7 0.166494 0.820770 0.264580
O O1 0.500000 0.590977 0.184828
O O2 0.311157 0.500000 0.198877
O O3 0.245182 0.604855 0.155735
O O4 0.298314 0.624097 0.231466
O O5 0.838059 0.500000 0.116676
O O6 0.760884 0.392056 0.078285
O O7 0.000000 0.393339 0.118419
O O8 0.500000 0.106965 0.500000
O O9 0.256742 0.105436 0.461286
O O10 0.338201 0.000000 0.500000
O O11 0.500000 0.603753 0.050369
O O12 0.335127 0.500000 0.043818
O O13 0.297504 0.605975 0.000000
O O14 0.250000 0.250000 0.641010
O O15 0.200879 0.123885 0.614202
O O16 0.196266 0.154857 0.691333
O O17 0.000000 0.192588 0.645029
O O18 0.500000 0.408315 0.432944
O O19 0.312636 0.500000 0.418792
O O20 0.250000 0.750000 0.258427
O O21 0.000000 0.807688 0.262287
#
# Coordination Sequence:
#
# PCOD9494346 Si02
#       7
#    16  16   8  16  16  16  16
#     4   9  17  29  45  64  87 116 149 184 221 263
#     4   9  16  24  35  54  81 111 142 179 223 265
#     4   9  17  29  46  69  96 123 151 185 224 265
#     4   8  13  21  33  49  72 106 145 179 213 259
#     4   9  18  32  49  69  93 120 149 183 225 270
#     4   9  17  30  49  71  94 121 153 188 224 263
#     4   9  18  32  49  68  90 118 150 184 224 268
#
# _framework density 16.301646000000002
#
# number of rings (size 3 to 8) (size 9 to 14) (size 15 to 20)
#    0.000    3.154    0.000    1.154    0.000    4.923 
#    0.000    5.000    0.000    0.000    0.000    8.615 
#    0.000    0.615    0.000    2.000    0.000    4.000 
#
# Total GULP energy -289555.764055 kJ/mol
# GULP energy per Si atom -5568.380078 kJ/mol
# Density = 1.626454 g / cm^3
# Si number density = 16.301646 Si / 1000 Ang^3
#
#
#
# Elastic Constant Matrix: (Units=GPa)
#
#
# Indices 1 2 3 4 5 6 
#
# 1 74.9990 37.3916 99.5924 0.0000 0.0000 0.0000
# 2 37.3916 27.6913 61.6566 0.0000 0.0000 0.0000
# 3 99.5924 61.6566 190.9651 0.0000 0.0000 0.0000
# 4 0.0000 0.0000 0.0000 -5.5986 0.0000 0.0000
# 5 0.0000 0.0000 0.0000 0.0000 19.8651 0.0000
# 6 0.0000 0.0000 0.0000 0.0000 0.0000 16.1199
#
#
#
# Elastic Compliance Matrix: (Units=1/GPa)
#
#
# Indices 1 2 3 4 5 6 
#
# 1 0.051185 -0.034431 -0.015577 0.000000 0.000000 0.000000
# 2 -0.034431 0.151624 -0.030998 0.000000 0.000000 0.000000
# 3 -0.015577 -0.030998 0.023369 0.000000 0.000000 0.000000
# 4 0.000000 0.000000 0.000000 -0.178618 0.000000 0.000000
# 5 0.000000 0.000000 0.000000 0.000000 0.050339 0.000000
# 6 0.000000 0.000000 0.000000 0.000000 0.000000 0.062035
#
#
# Mechanical properties :
#
#
# Convention : Reuss Voigt Hill
#
# Bulk Modulus (GPa) = 15.58481 76.77072 46.17777
# Shear Modulus (GPa) = 14.56296 12.41162 13.48729
#
# Velocity S-wave (km/s) = 2.99213 2.76229 2.87950
# Velocity P-wave (km/s) = 4.63876 7.57428 6.28044
#
# Compressibility (1/GPa) = 0.06416503
#
# Stress axis : x y z
#
# Youngs Moduli (GPa) = 19.53699 6.59524 42.79207
#
# Poissons Ratio (x) = 0.22708 0.66659
# Poissons Ratio (y) = 0.67268 1.32648
# Poissons Ratio (z) = 0.30433 0.20444
#
# Static dielectric constant tensor:
#      x y z
#    x 1.544390 0.000000 0.000000 
#    y 0.000000 1.515610 0.000000 
#    z 0.000000 0.000000 1.549280 
# 
# From -- ./inp_files/77013.got.cif
#   From: 2010.05.17/outbox.cif.g08.bks.cpg/sg65_39_cif.got.tgz:77013.got - 2010.06.03 17:01:31.
