data_PCOD9494162
_publ_section_title
;
Structure prediction by ZEFSAII (Michael W. Deem and Ramdas Pophale) SiO2 
 PCOD9494162
Probable space group: C M M M
;
_chemical_formula_sum "Si O2"
_cell_formula_units_Z 80
_cell_length_a 20.066793
_cell_length_b 14.664153
_cell_length_c 13.970295
_cell_angle_alpha 90.000000
_cell_angle_beta 90.000000
_cell_angle_gamma 90.000000
_cell_volume 4110.934251
_symmetry_space_group_name_H-M "C M M M"
_symmetry_group_IT_number 65
_symmetry_cell_setting 'orthorhombic'
loop_
_space_group_symop_operation_xyz
x,y,z
-x,-y,z
x,-y,-z
-x,y,-z
-x,-y,-z
x,y,-z
-x,y,z
x,-y,z
1/2+x,1/2+y,z
1/2-x,1/2-y,z
1/2+x,1/2-y,-z
1/2-x,1/2+y,-z
1/2-x,1/2-y,-z
1/2+x,1/2+y,-z
1/2-x,1/2+y,z
1/2+x,1/2-y,z
loop_
_atom_site_type_symbol
_atom_site_label
_atom_site_fract_x
_atom_site_fract_y
_atom_site_fract_z
Si Si1 0.310631 0.893034 0.115183
Si Si2 0.639757 0.765507 0.386317
Si Si3 0.760563 0.102379 0.384504
Si Si4 0.424821 0.764211 0.197861
Si Si5 0.160422 0.891999 0.114566
O O1 0.370743 0.834747 0.156437
O O2 0.235681 0.865100 0.146775
O O3 0.318658 0.000000 0.137535
O O4 0.311082 0.883878 0.000000
O O5 0.625280 0.767554 0.500000
O O6 0.691068 0.847676 0.362646
O O7 0.680195 0.672520 0.363009
O O8 0.579753 0.770523 0.312789
O O9 0.761253 0.096278 0.500000
O O10 0.766835 0.000000 0.345655
O O11 0.500000 0.779741 0.164564
O O12 0.396302 0.666872 0.164077
O O13 0.153157 0.000000 0.130164
O O14 0.157398 0.876158 0.000000
#
# Coordination Sequence:
#
# PCOD9494162 Si02
#       5
#    16  16  16  16  16
#     4   9  20  40  64  87 111 144 188 237 287 338
#     4   9  20  36  52  78 113 148 189 231 275 331
#     4   8  15  31  56  81 101 128 178 242 292 322
#     4  12  25  36  53  85 120 156 192 227 277 339
#     4   9  20  40  64  87 111 144 188 237 287 338
#
# _framework density 19.460296
#
# number of rings (size 3 to 8) (size 9 to 14) (size 15 to 20)
#    0.000    2.600    0.000    3.600    5.600    6.000 
#    0.000    2.000    0.000    0.000    0.000    8.400 
#    0.000    0.000    0.000    0.000    0.000    0.000 
#
# Total GULP energy -223317.388807 kJ/mol
# GULP energy per Si atom -5582.934720 kJ/mol
# Density = 1.941600 g / cm^3
# Si number density = 19.460296 Si / 1000 Ang^3
#
#
#
# Elastic Constant Matrix: (Units=GPa)
#
#
# Indices 1 2 3 4 5 6 
#
# 1 42.4570 -13.3478 7.7840 0.0000 0.0000 0.0000
# 2 -13.3478 48.6002 -9.8958 0.0000 0.0000 0.0000
# 3 7.7840 -9.8958 48.8587 0.0000 0.0000 0.0000
# 4 0.0000 0.0000 0.0000 -19.1109 0.0000 0.0000
# 5 0.0000 0.0000 0.0000 0.0000 18.2202 0.0000
# 6 0.0000 0.0000 0.0000 0.0000 0.0000 -6.0067
#
#
#
# Elastic Compliance Matrix: (Units=1/GPa)
#
#
# Indices 1 2 3 4 5 6 
#
# 1 0.026148 0.006606 -0.002828 0.000000 0.000000 0.000000
# 2 0.006606 0.023130 0.003632 0.000000 0.000000 0.000000
# 3 -0.002828 0.003632 0.021653 0.000000 0.000000 0.000000
# 4 0.000000 0.000000 0.000000 -0.052326 0.000000 0.000000
# 5 0.000000 0.000000 0.000000 0.000000 0.054884 0.000000
# 6 0.000000 0.000000 0.000000 0.000000 0.000000 -0.166481
#
#
# Mechanical properties :
#
#
# Convention : Reuss Voigt Hill
#
# Bulk Modulus (GPa) = 11.66155 12.11074 11.88614
# Shear Modulus (GPa) = -63.10944 8.97889 -27.06528
#
# Velocity S-wave (km/s) = -5.70090 2.15034 -3.73338
# Velocity P-wave (km/s) = 6.10968 3.52166 3.53030
#
# Compressibility (1/GPa) = 0.08575192
#
# Stress axis : x y z
#
# Youngs Moduli (GPa) = 38.24315 43.23411 46.18211
#
# Poissons Ratio (x) = -0.28559 0.13060
# Poissons Ratio (y) = -0.25262 -0.16775
# Poissons Ratio (z) = 0.10815 -0.15704
#
# Static dielectric constant tensor:
#      x y z
#    x 1.629610 0.000000 0.000000 
#    y 0.000000 1.688700 0.000000 
#    z 0.000000 0.000000 1.733820 
# 
# From -- ./inp_files/40034.got.cif
#   From: 2010.05.17/outbox.cif.g08.bks.cpg/sg65_21_cif.got.tgz:40034.got - 2010.06.03 17:01:31.
