data_PCOD9494933
_publ_section_title
;
Structure prediction by ZEFSAII (Michael W. Deem and Ramdas Pophale) SiO2 
 PCOD9494933
Probable space group: C C C M
;
_chemical_formula_sum "Si O2"
_cell_formula_units_Z 92
_cell_length_a 20.427544
_cell_length_b 9.525988
_cell_length_c 27.728184
_cell_angle_alpha 90.000000
_cell_angle_beta 90.000000
_cell_angle_gamma 90.000000
_cell_volume 5395.697727
_symmetry_space_group_name_H-M "C C C M"
_symmetry_group_IT_number 66
_symmetry_cell_setting 'orthorhombic'
loop_
_space_group_symop_operation_xyz
x,y,z
-x,-y,z
x,-y,1/2-z
-x,y,1/2-z
-x,-y,-z
x,y,-z
-x,y,1/2+z
x,-y,1/2+z
1/2+x,1/2+y,z
1/2-x,1/2-y,z
1/2+x,1/2-y,1/2-z
1/2-x,1/2+y,1/2-z
1/2-x,1/2-y,-z
1/2+x,1/2+y,-z
1/2-x,1/2+y,1/2+z
1/2+x,1/2-y,1/2+z
loop_
_atom_site_type_symbol
_atom_site_label
_atom_site_fract_x
_atom_site_fract_y
_atom_site_fract_z
Si Si1 0.667155 0.907582 0.608912
Si Si2 0.057646 0.107831 0.894325
Si Si3 0.059262 0.405294 0.843910
Si Si4 0.350162 0.999317 0.500000
Si Si5 0.000000 0.500000 0.750000
Si Si6 0.417198 0.293655 0.000000
Si Si7 0.680036 0.591709 0.395750
Si Si8 0.299827 0.504606 0.000000
O O1 0.657950 0.744161 0.622532
O O2 0.744395 0.938245 0.617422
O O3 0.624381 0.015041 0.639689
O O4 0.646624 0.924763 0.552238
O O5 0.056340 0.249272 0.863725
O O6 0.050068 0.155058 0.950469
O O7 0.126688 0.027890 0.886221
O O8 0.000000 0.000000 0.882467
O O9 0.000000 0.500000 0.865175
O O10 0.044982 0.411752 0.786691
O O11 0.401358 0.871292 0.500000
O O12 0.274219 0.950772 0.500000
O O13 0.347505 0.372776 0.000000
O O14 0.685687 0.598002 0.453684
#
# Coordination Sequence:
#
# PCOD9494933 Si02
#       8
#    16  16  16   8   4   8  16   8
#     4  10  18  33  56  82 120 149 195 222 272 331
#     4  11  21  35  55  83 122 155 192 226 273 330
#     4  10  21  40  62  81 102 144 183 233 286 348
#     4  10  16  27  48  81 110 159 200 225 256 329
#     4   8  24  44  66  82 100 140 180 236 316 338
#     4  10  18  30  44  81 121 160 190 229 266 308
#     4   9  19  31  52  84 117 159 182 231 265 322
#     4   8  16  27  44  70 122 160 193 217 267 309
#
# _framework density 17.050622000000001
#
# number of rings (size 3 to 8) (size 9 to 14) (size 15 to 20)
#    0.522    1.739    1.739    2.087    0.000    2.783 
#    0.000    3.913    0.000    4.174    0.000    0.000 
#    0.000    0.000    0.000    0.000    0.000    0.000 
#
# Total GULP energy -256080.540784 kJ/mol
# GULP energy per Si atom -5566.968278 kJ/mol
# Density = 1.701181 g / cm^3
# Si number density = 17.050622 Si / 1000 Ang^3
#
#
#
# Elastic Constant Matrix: (Units=GPa)
#
#
# Indices 1 2 3 4 5 6 
#
# 1 77.1211 71.7505 39.2315 0.0000 0.0000 0.0000
# 2 71.7505 142.2541 54.0592 0.0000 0.0000 0.0000
# 3 39.2315 54.0592 88.3824 0.0000 0.0000 0.0000
# 4 0.0000 0.0000 0.0000 -0.3290 0.0000 0.0000
# 5 0.0000 0.0000 0.0000 0.0000 5.6130 0.0000
# 6 0.0000 0.0000 0.0000 0.0000 0.0000 26.3418
#
#
#
# Elastic Compliance Matrix: (Units=1/GPa)
#
#
# Indices 1 2 3 4 5 6 
#
# 1 0.025759 -0.011266 -0.004543 0.000000 0.000000 0.000000
# 2 -0.011266 0.014086 -0.003615 0.000000 0.000000 0.000000
# 3 -0.004543 -0.003615 0.015542 0.000000 0.000000 0.000000
# 4 0.000000 0.000000 0.000000 -3.039208 0.000000 0.000000
# 5 0.000000 0.000000 0.000000 0.000000 0.178159 0.000000
# 6 0.000000 0.000000 0.000000 0.000000 0.000000 0.037962
#
#
# Mechanical properties :
#
#
# Convention : Reuss Voigt Hill
#
# Bulk Modulus (GPa) = 60.46291 70.87113 65.66702
# Shear Modulus (GPa) = -1.83598 15.83958 7.00180
#
# Velocity S-wave (km/s) = -1.03881 3.05121 2.02864
# Velocity P-wave (km/s) = 5.83943 7.35313 6.63956
#
# Compressibility (1/GPa) = 0.01653907
#
# Stress axis : x y z
#
# Youngs Moduli (GPa) = 38.82111 70.99389 64.34132
#
# Poissons Ratio (x) = 0.79982 0.29232
# Poissons Ratio (y) = 0.43736 0.23258
# Poissons Ratio (z) = 0.17637 0.25663
#
# Static dielectric constant tensor:
#      x y z
#    x 1.594860 0.000000 0.000000 
#    y 0.000000 1.578200 0.000000 
#    z 0.000000 0.000000 1.572900 
# 
# From -- ./inp_files/70171.got.cif
#   From: 2010.05.17/outbox.cif.g08.bks.cpg/sg66_36_cif.got.tgz:70171.got - 2010.06.03 17:51:23.
