data_PCOD9494910
_publ_section_title
;
Structure prediction by ZEFSAII (Michael W. Deem and Ramdas Pophale) SiO2 
 PCOD9494910
Probable space group: C C C M
;
_chemical_formula_sum "Si O2"
_cell_formula_units_Z 96
_cell_length_a 18.826433
_cell_length_b 7.632949
_cell_length_c 28.271739
_cell_angle_alpha 90.000000
_cell_angle_beta 90.000000
_cell_angle_gamma 90.000000
_cell_volume 4062.682904
_symmetry_space_group_name_H-M "C C C M"
_symmetry_group_IT_number 66
_symmetry_cell_setting 'orthorhombic'
loop_
_space_group_symop_operation_xyz
x,y,z
-x,-y,z
x,-y,1/2-z
-x,y,1/2-z
-x,-y,-z
x,y,-z
-x,y,1/2+z
x,-y,1/2+z
1/2+x,1/2+y,z
1/2-x,1/2-y,z
1/2+x,1/2-y,1/2-z
1/2-x,1/2+y,1/2-z
1/2-x,1/2-y,-z
1/2+x,1/2+y,-z
1/2-x,1/2+y,1/2+z
1/2+x,1/2-y,1/2+z
loop_
_atom_site_type_symbol
_atom_site_label
_atom_site_fract_x
_atom_site_fract_y
_atom_site_fract_z
Si Si1 0.368110 0.314483 0.223154
Si Si2 0.273528 0.521027 0.353698
Si Si3 0.975544 0.201709 0.052283
Si Si4 0.006637 0.215181 0.846186
Si Si5 0.812539 0.895032 0.446036
Si Si6 0.852253 0.668446 0.320564
O O1 0.386170 0.500000 0.250000
O O2 0.309415 0.357059 0.184487
O O3 0.434692 0.247529 0.193164
O O4 0.342455 0.187345 0.264413
O O5 0.294807 0.545725 0.408053
O O6 0.190975 0.488921 0.343761
O O7 0.314403 0.338899 0.342567
O O8 0.890440 0.191391 0.061974
O O9 0.016086 0.270474 0.098883
O O10 0.987551 0.281108 0.000000
O O11 0.000000 0.000000 0.048925
O O12 0.934571 0.308759 0.830536
O O13 0.000000 0.000000 0.846436
O O14 0.813205 0.959071 0.500000
O O15 0.750000 0.750000 0.441559
#
# Coordination Sequence:
#
# PCOD9494910 Si02
#       6
#    16  16  16  16  16  16
#     4  10  19  26  40  57  79 113 146 185 212 259
#     4  10  16  28  37  54  84 112 141 185 225 258
#     4   9  16  23  32  49  73 106 137 168 211 258
#     4  11  15  24  37  54  79 104 138 178 209 248
#     4  10  16  24  36  51  73 112 149 173 214 276
#     4  10  18  25  38  57  80 110 146 184 216 258
#
# _framework density 23.629707
#
# number of rings (size 3 to 8) (size 9 to 14) (size 15 to 20)
#    0.000    2.000    6.667    1.500    0.000    0.000 
#    0.000    0.000    0.000    0.000    0.000    0.000 
#    0.000  100.000    0.000   82.500    0.000    5.000 
#
# Total GULP energy -268189.082041 kJ/mol
# GULP energy per Si atom -5587.272543 kJ/mol
# Density = 2.357592 g / cm^3
# Si number density = 23.629707 Si / 1000 Ang^3
#
#
#
# Elastic Constant Matrix: (Units=GPa)
#
#
# Indices 1 2 3 4 5 6 
#
# 1 125.9818 9.1043 29.8575 0.0000 0.0000 0.0000
# 2 9.1043 50.7282 9.0647 0.0000 0.0000 0.0000
# 3 29.8575 9.0647 205.6259 0.0000 0.0000 0.0000
# 4 0.0000 0.0000 0.0000 -12.5449 0.0000 0.0000
# 5 0.0000 0.0000 0.0000 0.0000 33.2881 0.0000
# 6 0.0000 0.0000 0.0000 0.0000 0.0000 18.6844
#
#
#
# Elastic Compliance Matrix: (Units=1/GPa)
#
#
# Indices 1 2 3 4 5 6 
#
# 1 0.008303 -0.001285 -0.001149 0.000000 0.000000 0.000000
# 2 -0.001285 0.020068 -0.000698 0.000000 0.000000 0.000000
# 3 -0.001149 -0.000698 0.005061 0.000000 0.000000 0.000000
# 4 0.000000 0.000000 0.000000 -0.079714 0.000000 0.000000
# 5 0.000000 0.000000 0.000000 0.000000 0.030041 0.000000
# 6 0.000000 0.000000 0.000000 0.000000 0.000000 0.053520
#
#
# Mechanical properties :
#
#
# Convention : Reuss Voigt Hill
#
# Bulk Modulus (GPa) = 36.80793 53.15434 44.98113
# Shear Modulus (GPa) = 95.05903 30.17283 62.61593
#
# Velocity S-wave (km/s) = 6.34948 3.57725 5.15328
# Velocity P-wave (km/s) = 8.32859 6.29332 7.38144
#
# Compressibility (1/GPa) = 0.02716806
#
# Stress axis : x y z
#
# Youngs Moduli (GPa) = 120.44129 49.83003 197.59688
#
# Poissons Ratio (x) = 0.06402 0.22703
# Poissons Ratio (y) = 0.15474 0.13795
# Poissons Ratio (z) = 0.13838 0.03479
#
# Static dielectric constant tensor:
#      x y z
#    x 1.900830 0.000000 0.000000 
#    y 0.000000 1.973360 0.000000 
#    z 0.000000 0.000000 1.952080 
# 
# From -- ./inp_files/65225.got.cif
#   From: 2010.05.17/outbox.cif.g08.bks.cpg/sg66_33_cif.got.tgz:65225.got - 2010.06.03 17:51:23.
