data_PCOD9494979
_publ_section_title
;
Structure prediction by ZEFSAII (Michael W. Deem and Ramdas Pophale) SiO2 
 PCOD9494979
Probable space group: C C C M
;
_chemical_formula_sum "Si O2"
_cell_formula_units_Z 60
_cell_length_a 17.021269
_cell_length_b 16.836860
_cell_length_c 9.727050
_cell_angle_alpha 90.000000
_cell_angle_beta 90.000000
_cell_angle_gamma 90.000000
_cell_volume 2787.623932
_symmetry_space_group_name_H-M "C C C M"
_symmetry_group_IT_number 66
_symmetry_cell_setting 'orthorhombic'
loop_
_space_group_symop_operation_xyz
x,y,z
-x,-y,z
x,-y,1/2-z
-x,y,1/2-z
-x,-y,-z
x,y,-z
-x,y,1/2+z
x,-y,1/2+z
1/2+x,1/2+y,z
1/2-x,1/2-y,z
1/2+x,1/2-y,1/2-z
1/2-x,1/2+y,1/2-z
1/2-x,1/2-y,-z
1/2+x,1/2+y,-z
1/2-x,1/2+y,1/2+z
1/2+x,1/2-y,1/2+z
loop_
_atom_site_type_symbol
_atom_site_label
_atom_site_fract_x
_atom_site_fract_y
_atom_site_fract_z
Si Si1 0.469002 0.601074 0.500000
Si Si2 0.000000 0.000000 0.250000
Si Si3 0.808478 0.123842 0.500000
Si Si4 0.927665 0.417834 0.835801
Si Si5 0.239392 0.340848 0.290543
Si Si6 0.843880 0.933981 0.500000
O O1 0.453967 0.555546 0.355233
O O2 0.397095 0.662470 0.500000
O O3 0.564935 0.598303 0.500000
O O4 0.760034 0.148889 0.368092
O O5 0.822808 0.027940 0.500000
O O6 0.914803 0.500000 0.750000
O O7 0.848268 0.368511 0.823696
O O8 0.000000 0.379875 0.750000
O O9 0.943971 0.429173 0.000000
O O10 0.250000 0.250000 0.332415
O O11 0.300759 0.396142 0.370131
#
# Coordination Sequence:
#
# PCOD9494979 Si02
#       6
#     8   4   8  16  16   8
#     4  11  22  36  64 102 134 168 219 272 323 396
#     4  10  16  34  56  90 148 142 210 274 318 366
#     4  12  24  43  70 102 133 186 234 279 327 408
#     4  11  24  46  77 105 133 178 240 297 347 411
#     4  12  28  46  64 103 146 181 224 288 357 413
#     4  12  22  43  74  96 135 178 238 273 337 408
#
# _framework density 21.523707000000002
#
# number of rings (size 3 to 8) (size 9 to 14) (size 15 to 20)
#    0.000    0.533    4.000    6.400    3.733    0.000 
#    4.800    0.000    0.000    0.000    0.000    0.000 
#    0.000    0.000    0.000    0.000    0.000    0.000 
#
# Total GULP energy -167246.466148 kJ/mol
# GULP energy per Si atom -5574.882205 kJ/mol
# Density = 2.147472 g / cm^3
# Si number density = 21.523707 Si / 1000 Ang^3
#
#
#
# Elastic Constant Matrix: (Units=GPa)
#
#
# Indices 1 2 3 4 5 6 
#
# 1 176.6696 40.7567 54.8297 0.0000 0.0000 0.0000
# 2 40.7567 64.7559 6.9891 0.0000 0.0000 0.0000
# 3 54.8297 6.9891 185.8585 0.0000 0.0000 0.0000
# 4 0.0000 0.0000 0.0000 14.6365 0.0000 0.0000
# 5 0.0000 0.0000 0.0000 0.0000 40.6537 0.0000
# 6 0.0000 0.0000 0.0000 0.0000 0.0000 -17.3827
#
#
#
# Elastic Compliance Matrix: (Units=1/GPa)
#
#
# Indices 1 2 3 4 5 6 
#
# 1 0.007284 -0.004371 -0.001985 0.000000 0.000000 0.000000
# 2 -0.004371 0.018128 0.000608 0.000000 0.000000 0.000000
# 3 -0.001985 0.000608 0.005943 0.000000 0.000000 0.000000
# 4 0.000000 0.000000 0.000000 0.068322 0.000000 0.000000
# 5 0.000000 0.000000 0.000000 0.000000 0.024598 0.000000
# 6 0.000000 0.000000 0.000000 0.000000 0.000000 -0.057529
#
#
# Mechanical properties :
#
#
# Convention : Reuss Voigt Hill
#
# Bulk Modulus (GPa) = 50.35171 70.27056 60.31114
# Shear Modulus (GPa) = 58.91884 29.22872 44.07378
#
# Velocity S-wave (km/s) = 5.23769 3.68907 4.53005
# Velocity P-wave (km/s) = 7.74740 7.13194 7.44603
#
# Compressibility (1/GPa) = 0.01986030
#
# Stress axis : x y z
#
# Youngs Moduli (GPa) = 137.27805 55.16382 168.26332
#
# Poissons Ratio (x) = 0.24110 0.33394
# Poissons Ratio (y) = 0.59999 -0.10225
# Poissons Ratio (z) = 0.27245 -0.03352
#
# Static dielectric constant tensor:
#      x y z
#    x 1.848250 0.000000 0.000000 
#    y 0.000000 1.799420 0.000000 
#    z 0.000000 0.000000 2.049600 
# 
# From -- ./inp_files/6058.got.cif
#   From: 2010.05.17/outbox.cif.g08.bks.cpg/sg66_4_cif.got.tgz:6058.got - 2010.06.03 17:51:23.
