data_PCOD9494441
_publ_section_title
;
Structure prediction by ZEFSAII (Michael W. Deem and Ramdas Pophale) SiO2 
 PCOD9494441
Probable space group: C M M M
;
_chemical_formula_sum "Si O2"
_cell_formula_units_Z 88
_cell_length_a 7.307907
_cell_length_b 15.793103
_cell_length_c 32.866637
_cell_angle_alpha 90.000000
_cell_angle_beta 90.000000
_cell_angle_gamma 90.000000
_cell_volume 3793.287395
_symmetry_space_group_name_H-M "C M M M"
_symmetry_group_IT_number 65
_symmetry_cell_setting 'orthorhombic'
loop_
_space_group_symop_operation_xyz
x,y,z
-x,-y,z
x,-y,-z
-x,y,-z
-x,-y,-z
x,y,-z
-x,y,z
x,-y,z
1/2+x,1/2+y,z
1/2-x,1/2-y,z
1/2+x,1/2-y,-z
1/2-x,1/2+y,-z
1/2-x,1/2-y,-z
1/2+x,1/2+y,-z
1/2-x,1/2+y,z
1/2+x,1/2-y,z
loop_
_atom_site_type_symbol
_atom_site_label
_atom_site_fract_x
_atom_site_fract_y
_atom_site_fract_z
Si Si1 0.718074 0.649735 0.456329
Si Si2 0.276308 0.500000 0.046726
Si Si3 0.706648 0.599933 0.630843
Si Si4 0.218130 0.851493 0.805277
Si Si5 0.781285 0.149343 0.894592
Si Si6 0.718038 0.350196 0.717994
O O1 0.786479 0.615273 0.500000
O O2 0.500000 0.631239 0.455655
O O3 0.750000 0.750000 0.457665
O O4 0.792560 0.622172 0.412590
O O5 0.500000 0.500000 0.046485
O O6 0.217143 0.415596 0.071002
O O7 0.217189 0.500000 0.000000
O O8 0.500000 0.638988 0.630729
O O9 0.689928 0.500000 0.631081
O O10 0.792718 0.622957 0.674158
O O11 0.250000 0.750000 0.805081
O O12 0.288479 0.877681 0.849622
O O13 0.287478 0.884679 0.761589
O O14 0.000000 0.866561 0.805005
O O15 0.750000 0.250000 0.901445
O O16 0.000000 0.140476 0.892924
O O17 0.500000 0.369010 0.717084
O O18 0.750000 0.250000 0.719774
#
# Coordination Sequence:
#
# PCOD9494441 Si02
#       6
#    16   8  16  16  16  16
#     4   9  17  29  46  65  82 104 137 174 210 250
#     4   9  18  32  49  71  99 129 161 197 240 288
#     4   9  17  28  41  61  88 112 137 172 212 252
#     4   8  14  25  42  65  88 112 145 182 220 263
#     4   9  17  31  50  71  96 126 160 198 239 284
#     4   9  16  27  44  64  85 112 143 177 216 256
#
# _framework density 23.198875000000001
#
# number of rings (size 3 to 8) (size 9 to 14) (size 15 to 20)
#    0.000    3.182    0.000    0.545    0.000    0.727 
#    1.636    2.273    0.000    2.727    0.000    2.545 
#    0.000    0.000    0.000    0.000    0.000    0.000 
#
# Total GULP energy -245095.436158 kJ/mol
# GULP energy per Si atom -5570.350822 kJ/mol
# Density = 2.314607 g / cm^3
# Si number density = 23.198875 Si / 1000 Ang^3
#
#
#
# Elastic Constant Matrix: (Units=GPa)
#
#
# Indices 1 2 3 4 5 6 
#
# 1 101.7284 -6.4583 18.0322 0.0000 0.0000 0.0000
# 2 -6.4583 62.6697 85.9386 0.0000 0.0000 0.0000
# 3 18.0322 85.9386 333.6985 0.0000 0.0000 0.0000
# 4 0.0000 0.0000 0.0000 35.7748 0.0000 0.0000
# 5 0.0000 0.0000 0.0000 0.0000 19.5247 0.0000
# 6 0.0000 0.0000 0.0000 0.0000 0.0000 7.2786
#
#
#
# Elastic Compliance Matrix: (Units=1/GPa)
#
#
# Indices 1 2 3 4 5 6 
#
# 1 0.010234 0.002803 -0.001275 0.000000 0.000000 0.000000
# 2 0.002803 0.025436 -0.006702 0.000000 0.000000 0.000000
# 3 -0.001275 -0.006702 0.004792 0.000000 0.000000 0.000000
# 4 0.000000 0.000000 0.000000 0.027953 0.000000 0.000000
# 5 0.000000 0.000000 0.000000 0.000000 0.051217 0.000000
# 6 0.000000 0.000000 0.000000 0.000000 0.000000 0.137390
#
#
# Mechanical properties :
#
#
# Convention : Reuss Voigt Hill
#
# Bulk Modulus (GPa) = 33.20774 77.01352 55.11063
# Shear Modulus (GPa) = 18.02404 39.22122 28.62263
#
# Velocity S-wave (km/s) = 2.79038 4.11621 3.51635
# Velocity P-wave (km/s) = 4.97263 7.47396 6.34772
#
# Compressibility (1/GPa) = 0.03011346
#
# Stress axis : x y z
#
# Youngs Moduli (GPa) = 97.71344 39.31425 208.69758
#
# Poissons Ratio (x) = -0.11019 0.26606
# Poissons Ratio (y) = -0.27387 1.39871
# Poissons Ratio (z) = 0.12457 0.26349
#
# Static dielectric constant tensor:
#      x y z
#    x 1.417290 0.000000 0.000000 
#    y 0.000000 1.793820 0.000000 
#    z 0.000000 0.000000 1.948760 
# 
# From -- ./inp_files/76659.got.cif
#   From: 2010.05.17/outbox.cif.g08.bks.cpg/sg65_39_cif.got.tgz:76659.got - 2010.06.03 17:01:31.
