data_PCOD9494055
_publ_section_title
;
Structure prediction by ZEFSAII (Michael W. Deem and Ramdas Pophale) SiO2 
 PCOD9494055
Probable space group: C M M M
;
_chemical_formula_sum "Si O2"
_cell_formula_units_Z 88
_cell_length_a 14.475354
_cell_length_b 26.170146
_cell_length_c 11.576045
_cell_angle_alpha 90.000000
_cell_angle_beta 90.000000
_cell_angle_gamma 90.000000
_cell_volume 4385.261996
_symmetry_space_group_name_H-M "C M M M"
_symmetry_group_IT_number 65
_symmetry_cell_setting 'orthorhombic'
loop_
_space_group_symop_operation_xyz
x,y,z
-x,-y,z
x,-y,-z
-x,y,-z
-x,-y,-z
x,y,-z
-x,y,z
x,-y,z
1/2+x,1/2+y,z
1/2-x,1/2-y,z
1/2+x,1/2-y,-z
1/2-x,1/2+y,-z
1/2-x,1/2-y,-z
1/2+x,1/2+y,-z
1/2-x,1/2+y,z
1/2+x,1/2-y,z
loop_
_atom_site_type_symbol
_atom_site_label
_atom_site_fract_x
_atom_site_fract_y
_atom_site_fract_z
Si Si1 0.606627 0.500000 0.137379
Si Si2 0.888596 0.283427 0.370234
Si Si3 0.805314 0.303992 0.125856
Si Si4 0.102285 0.833686 0.634316
Si Si5 0.226423 0.097287 0.215627
Si Si6 0.605062 0.938395 0.632089
O O1 0.500000 0.500000 0.183462
O O2 0.665944 0.549801 0.172268
O O3 0.599837 0.500000 0.000000
O O4 0.856279 0.300420 0.500000
O O5 0.857925 0.307900 0.249219
O O6 0.860788 0.223941 0.356307
O O7 0.000000 0.284813 0.375080
O O8 0.750000 0.250000 0.129011
O O9 0.744549 0.355790 0.128239
O O10 0.855365 0.303491 0.000000
O O11 0.093015 0.843303 0.500000
O O12 0.167821 0.875241 0.685951
O O13 0.000000 0.835136 0.689039
O O14 0.321853 0.078575 0.272821
O O15 0.629431 0.922754 0.500000
O O16 0.500000 0.920035 0.654238
O O17 0.603113 0.000000 0.632403
#
# Coordination Sequence:
#
# PCOD9494055 Si02
#       6
#     8  16  16  16  16  16
#     4  11  26  46  66  91 120 156 212 269 316 380
#     4   9  19  38  62  89 124 166 212 260 315 382
#     4  11  24  40  58  88 128 166 207 254 312 379
#     4   9  18  33  56  90 128 163 204 258 319 385
#     4  12  21  39  66  90 119 167 212 260 320 378
#     4   9  19  37  61  91 126 161 203 256 313 374
#
# _framework density 20.067215999999998
#
# number of rings (size 3 to 8) (size 9 to 14) (size 15 to 20)
#    0.000    1.909    2.727    3.273    0.000    2.909 
#    0.000    1.818    0.000    4.364    0.000    0.000 
#    0.000    0.000    0.000    0.000    0.000    0.000 
#
# Total GULP energy -245229.615997 kJ/mol
# GULP energy per Si atom -5573.400364 kJ/mol
# Density = 2.002154 g / cm^3
# Si number density = 20.067216 Si / 1000 Ang^3
#
#
#
# Elastic Constant Matrix: (Units=GPa)
#
#
# Indices 1 2 3 4 5 6 
#
# 1 83.1479 45.5000 49.4866 0.0000 0.0000 0.0000
# 2 45.5000 128.4018 45.0132 0.0000 0.0000 0.0000
# 3 49.4866 45.0132 123.4694 0.0000 0.0000 0.0000
# 4 0.0000 0.0000 0.0000 -77.1781 0.0000 0.0000
# 5 0.0000 0.0000 0.0000 0.0000 25.0435 0.0000
# 6 0.0000 0.0000 0.0000 0.0000 0.0000 -0.5042
#
#
#
# Elastic Compliance Matrix: (Units=1/GPa)
#
#
# Indices 1 2 3 4 5 6 
#
# 1 0.017674 -0.004333 -0.005504 0.000000 0.000000 0.000000
# 2 -0.004333 0.009992 -0.001906 0.000000 0.000000 0.000000
# 3 -0.005504 -0.001906 0.011000 0.000000 0.000000 0.000000
# 4 0.000000 0.000000 0.000000 -0.012957 0.000000 0.000000
# 5 0.000000 0.000000 0.000000 0.000000 0.039931 0.000000
# 6 0.000000 0.000000 0.000000 0.000000 0.000000 -1.983512
#
#
# Mechanical properties :
#
#
# Convention : Reuss Voigt Hill
#
# Bulk Modulus (GPa) = 65.87926 68.33543 67.10734
# Shear Modulus (GPa) = -2.64644 2.47352 -0.08646
#
# Velocity S-wave (km/s) = -1.14963 1.11144 -0.20780
# Velocity P-wave (km/s) = 5.58018 5.98116 5.78414
#
# Compressibility (1/GPa) = 0.01517929
#
# Stress axis : x y z
#
# Youngs Moduli (GPa) = 56.58112 100.08268 90.90957
#
# Poissons Ratio (x) = 0.43369 0.50035
# Poissons Ratio (y) = 0.24519 0.17326
# Poissons Ratio (z) = 0.31141 0.19075
#
# Static dielectric constant tensor:
#      x y z
#    x 1.761440 0.000000 0.000000 
#    y 0.000000 1.733540 0.000000 
#    z 0.000000 0.000000 1.724520 
# 
# From -- ./inp_files/24790.got.cif
#   From: 2010.05.17/outbox.cif.g08.bks.cpg/sg65_13_cif.got.tgz:24790.got - 2010.06.03 17:01:31.
