data_PCOD9494799
_publ_section_title
;
Structure prediction by ZEFSAII (Michael W. Deem and Ramdas Pophale) SiO2 
 PCOD9494799
Probable space group: C M M M
;
_chemical_formula_sum "Si O2"
_cell_formula_units_Z 48
_cell_length_a 9.000000
_cell_length_b 21.000000
_cell_length_c 27.000000
_cell_angle_alpha 90.000000
_cell_angle_beta 90.000000
_cell_angle_gamma 90.000000
_cell_volume 5103.000000
_symmetry_space_group_name_H-M "C M M M"
_symmetry_group_IT_number 65
_symmetry_cell_setting 'orthorhombic'
loop_
_space_group_symop_operation_xyz
x,y,z
-x,-y,z
x,-y,-z
-x,y,-z
-x,-y,-z
x,y,-z
-x,y,z
x,-y,z
1/2+x,1/2+y,z
1/2-x,1/2-y,z
1/2+x,1/2-y,-z
1/2-x,1/2+y,-z
1/2-x,1/2-y,-z
1/2+x,1/2+y,-z
1/2-x,1/2+y,z
1/2+x,1/2-y,z
loop_
_atom_site_type_symbol
_atom_site_label
_atom_site_fract_x
_atom_site_fract_y
_atom_site_fract_z
Si Si1 0.823443 0.686909 0.212570
Si Si2 0.175070 0.928159 0.732808
Si Si3 0.678275 0.814284 0.443015
Si Si4 0.326459 0.811117 0.902008
Si Si5 0.675173 0.928978 0.627068
Si Si6 0.666489 0.570582 0.059243
O O1 0.750000 0.750000 0.235100
O O2 0.766426 0.623859 0.238056
O O3 0.776684 0.684140 0.155092
O O4 0.000000 0.691958 0.215332
O O5 0.227344 0.925112 0.676104
O O6 0.000000 0.916088 0.736949
O O7 0.205227 0.000000 0.750681
O O8 0.726244 0.821648 0.500000
O O9 0.500000 0.808388 0.442343
O O10 0.750000 0.750000 0.422791
O O11 0.719295 0.875258 0.411303
O O12 0.500000 0.800661 0.902886
O O13 0.250000 0.750000 0.925911
O O14 0.281850 0.876486 0.926531
O O15 0.500000 0.920332 0.640096
O O16 0.689606 0.000000 0.605823
O O17 0.500000 0.587705 0.076952
O O18 0.702751 0.500000 0.078086
O O19 0.660341 0.567410 0.000000
#
# Coordination Sequence:
#
# PCOD9494799 Si02
#       6
#    16  16  16  16  16  16
#     4  10  21  37  56  78 105 136 172 214 259 308
#     4  10  21  36  54  77 105 137 173 212 255 306
#     4   9  18  32  50  73 100 130 165 205 250 301
#     4  10  21  36  55  79 106 137 173 214 259 307
#     4   9  18  33  52  73  99 132 169 210 254 298
#     4   9  19  36  56  78 106 140 176 214 257 305
#
# _framework density 9.4062319999999993
#
# number of rings (size 3 to 8) (size 9 to 14) (size 15 to 20)
#    0.000    2.500    0.000    2.000    0.000    6.333 
#    0.000    7.500    0.000    0.000    0.000    4.667 
#    0.000    0.000    0.000    0.000    0.000    0.000 
#
# Total GULP energy -267542.958965 kJ/mol
# GULP energy per Si atom -5573.811645 kJ/mol
# Density = 0.938482 g / cm^3
# Si number density = 9.406232 Si / 1000 Ang^3
#
#
#
# Elastic Constant Matrix: (Units=GPa)
#
#
# Indices 1 2 3 4 5 6 
#
# 1 -2.6431 31.5175 16.0392 0.0000 0.0000 0.0000
# 2 31.5175 74.5985 34.2063 0.0000 0.0000 0.0000
# 3 16.0392 34.2063 18.4586 0.0000 0.0000 0.0000
# 4 0.0000 0.0000 0.0000 34.6671 0.0000 0.0000
# 5 0.0000 0.0000 0.0000 0.0000 15.3600 0.0000
# 6 0.0000 0.0000 0.0000 0.0000 0.0000 31.2761
#
#
#
# Elastic Compliance Matrix: (Units=1/GPa)
#
#
# Indices 1 2 3 4 5 6 
#
# 1 -0.059286 0.009491 0.033927 0.000000 0.000000 0.000000
# 2 0.009491 0.087692 -0.170753 0.000000 0.000000 0.000000
# 3 0.033927 -0.170753 0.341125 0.000000 0.000000 0.000000
# 4 0.000000 0.000000 0.000000 0.028846 0.000000 0.000000
# 5 0.000000 0.000000 0.000000 0.000000 0.065104 0.000000
# 6 0.000000 0.000000 0.000000 0.000000 0.000000 0.031973
#
#
# Mechanical properties :
#
#
# Convention : Reuss Voigt Hill
#
# Bulk Modulus (GPa) = 8.70619 28.21555 18.46087
# Shear Modulus (GPa) = 6.34187 16.83737 11.58962
#
# Velocity S-wave (km/s) = 1.83805 2.99492 2.48475
# Velocity P-wave (km/s) = 3.02365 5.19522 4.25046
#
# Compressibility (1/GPa) = 0.11486086
#
# Stress axis : x y z
#
# Youngs Moduli (GPa) = -16.86738 11.40353 2.93148
#
# Poissons Ratio (x) = -0.10823 -0.09946
# Poissons Ratio (y) = 0.16009 0.50056
# Poissons Ratio (z) = 0.57226 1.94719
#
# Static dielectric constant tensor:
#      x y z
#    x 1.633810 0.000000 0.000000 
#    y 0.000000 1.667100 0.000000 
#    z 0.000000 0.000000 1.643960 
# 
# From -- ./inp_files/73068.got.cif
#   From: 2010.05.17/outbox.ucp.g08.bks.cvg/sg65_37_cif.got.tgz:73068.got - 2010.06.11 16:39:57.
