data_PCOD9494187
_publ_section_title
;
Structure prediction by ZEFSAII (Michael W. Deem and Ramdas Pophale) SiO2 
 PCOD9494187
Probable space group: C M M M
;
_chemical_formula_sum "Si O2"
_cell_formula_units_Z 56
_cell_length_a 7.290017
_cell_length_b 29.914956
_cell_length_c 12.863306
_cell_angle_alpha 90.000000
_cell_angle_beta 90.000000
_cell_angle_gamma 90.000000
_cell_volume 2805.236690
_symmetry_space_group_name_H-M "C M M M"
_symmetry_group_IT_number 65
_symmetry_cell_setting 'orthorhombic'
loop_
_space_group_symop_operation_xyz
x,y,z
-x,-y,z
x,-y,-z
-x,y,-z
-x,-y,-z
x,y,-z
-x,y,z
x,-y,z
1/2+x,1/2+y,z
1/2-x,1/2-y,z
1/2+x,1/2-y,-z
1/2-x,1/2+y,-z
1/2-x,1/2-y,-z
1/2+x,1/2+y,-z
1/2-x,1/2+y,z
1/2+x,1/2-y,z
loop_
_atom_site_type_symbol
_atom_site_label
_atom_site_fract_x
_atom_site_fract_y
_atom_site_fract_z
Si Si1 0.276735 0.873283 0.835353
Si Si2 0.781764 0.697514 0.000000
Si Si3 0.204559 0.500000 0.374542
Si Si4 0.722835 0.948188 0.000000
Si Si5 0.775565 0.401941 0.617659
O O1 0.500000 0.873966 0.834890
O O2 0.214930 0.830183 0.900091
O O3 0.219644 0.872537 0.715425
O O4 0.223015 0.917932 0.900027
O O5 0.750000 0.750000 0.000000
O O6 0.000000 0.691834 0.000000
O O7 0.187373 0.500000 0.500000
O O8 0.287981 0.452115 0.352786
O O9 0.000000 0.500000 0.326734
O O10 0.500000 0.949458 0.000000
O O11 0.784162 0.000000 0.000000
O O12 0.717282 0.390770 0.500000
O O13 0.000000 0.403618 0.614294
#
# Coordination Sequence:
#
# PCOD9494187 Si02
#       5
#    16   8   8   8  16
#     4   8  14  22  32  49  71  95 125 157 187 224
#     4   9  17  30  45  59  75  96 126 164 200 232
#     4   7  10  14  20  35  61  97 133 149 160 200
#     4   8  13  18  25  40  65  98 125 147 183 225
#     4   8  12  17  26  42  67  99 129 152 177 216
#
# _framework density 19.962665000000001
#
# number of rings (size 3 to 8) (size 9 to 14) (size 15 to 20)
#    0.000    4.000    0.000    3.429    2.000    0.000 
#    0.000    0.000    0.000    0.857    0.000    0.000 
#    0.000    9.143    0.000    0.000    0.000    8.000 
#
# Total GULP energy -155871.213459 kJ/mol
# GULP energy per Si atom -5566.829052 kJ/mol
# Density = 1.991723 g / cm^3
# Si number density = 19.962665 Si / 1000 Ang^3
#
#
#
# Elastic Constant Matrix: (Units=GPa)
#
#
# Indices 1 2 3 4 5 6 
#
# 1 81.6773 1.1816 5.4266 0.0000 0.0000 0.0000
# 2 1.1816 142.8966 91.7262 0.0000 0.0000 0.0000
# 3 5.4266 91.7262 195.1779 0.0000 0.0000 0.0000
# 4 0.0000 0.0000 0.0000 15.4702 0.0000 0.0000
# 5 0.0000 0.0000 0.0000 0.0000 -20.6122 0.0000
# 6 0.0000 0.0000 0.0000 0.0000 0.0000 -18.2925
#
#
#
# Elastic Compliance Matrix: (Units=1/GPa)
#
#
# Indices 1 2 3 4 5 6 
#
# 1 0.012269 0.000168 -0.000420 0.000000 0.000000 0.000000
# 2 0.000168 0.010023 -0.004715 0.000000 0.000000 0.000000
# 3 -0.000420 -0.004715 0.007351 0.000000 0.000000 0.000000
# 4 0.000000 0.000000 0.000000 0.064641 0.000000 0.000000
# 5 0.000000 0.000000 0.000000 0.000000 -0.048515 0.000000
# 6 0.000000 0.000000 0.000000 0.000000 0.000000 -0.054667
#
#
# Mechanical properties :
#
#
# Convention : Reuss Voigt Hill
#
# Bulk Modulus (GPa) = 50.73822 68.49117 59.61470
# Shear Modulus (GPa) = 657.38560 16.74093 337.06326
#
# Velocity S-wave (km/s) = 18.16652 2.89902 13.00820
# Velocity P-wave (km/s) = 21.57549 6.75203 15.98580
#
# Compressibility (1/GPa) = 0.01970901
#
# Stress axis : x y z
#
# Youngs Moduli (GPa) = 81.50763 99.76573 136.03139
#
# Poissons Ratio (x) = -0.01679 0.05716
# Poissons Ratio (y) = -0.01372 0.64143
# Poissons Ratio (z) = 0.03425 0.47043
#
# Static dielectric constant tensor:
#      x y z
#    x 1.853400 0.000000 0.000000 
#    y 0.000000 1.695030 0.000000 
#    z 0.000000 0.000000 1.720480 
# 
# From -- ./inp_files/36249.got.cif
#   From: 2010.05.17/outbox.cif.g08.bks.cpg/sg65_19_cif.got.tgz:36249.got - 2010.06.03 17:01:31.
