data_PCOD9494303
_publ_section_title
;
Structure prediction by ZEFSAII (Michael W. Deem and Ramdas Pophale) SiO2 
 PCOD9494303
Probable space group: C M M M
;
_chemical_formula_sum "Si O2"
_cell_formula_units_Z 120
_cell_length_a 30.245318
_cell_length_b 7.326846
_cell_length_c 26.187770
_cell_angle_alpha 90.000000
_cell_angle_beta 90.000000
_cell_angle_gamma 90.000000
_cell_volume 5803.282823
_symmetry_space_group_name_H-M "C M M M"
_symmetry_group_IT_number 65
_symmetry_cell_setting 'orthorhombic'
loop_
_space_group_symop_operation_xyz
x,y,z
-x,-y,z
x,-y,-z
-x,y,-z
-x,-y,-z
x,y,-z
-x,y,z
x,-y,z
1/2+x,1/2+y,z
1/2-x,1/2-y,z
1/2+x,1/2-y,-z
1/2-x,1/2+y,-z
1/2-x,1/2-y,-z
1/2+x,1/2+y,-z
1/2-x,1/2+y,z
1/2+x,1/2-y,z
loop_
_atom_site_type_symbol
_atom_site_label
_atom_site_fract_x
_atom_site_fract_y
_atom_site_fract_z
Si Si1 0.800905 0.282696 0.252161
Si Si2 0.051287 0.722963 0.000000
Si Si3 0.949879 0.278388 0.807716
Si Si4 0.858637 0.723518 0.652343
Si Si5 0.891697 0.722693 0.097502
Si Si6 0.698662 0.217763 0.442552
Si Si7 0.199532 0.282236 0.135998
Si Si8 0.450493 0.777862 0.309173
O O1 0.808048 0.500000 0.249203
O O2 0.750000 0.250000 0.267153
O O3 0.833252 0.215638 0.296316
O O4 0.806185 0.211441 0.194286
O O5 0.078704 0.781419 0.950171
O O6 0.050423 0.500000 0.000000
O O7 0.000000 0.781031 0.000000
O O8 0.948834 0.500000 0.807483
O O9 0.915161 0.219522 0.849899
O O10 0.941442 0.221755 0.749532
O O11 0.000000 0.225022 0.821561
O O12 0.857363 0.500000 0.652411
O O13 0.833021 0.786430 0.602053
O O14 0.909648 0.779192 0.656217
O O15 0.892291 0.500000 0.096047
O O16 0.840597 0.781832 0.100447
O O17 0.690931 0.289030 0.500000
O O18 0.750000 0.250000 0.429516
O O19 0.692596 0.000000 0.444694
O O20 0.194954 0.500000 0.139120
O O21 0.250000 0.250000 0.119544
O O22 0.500000 0.718314 0.323148
O O23 0.451067 0.000000 0.309053
#
# Coordination Sequence:
#
# PCOD9494303 Si02
#       8
#    16   8  16  16  16  16  16  16
#     4   9  16  25  38  57  80 104 129 158 192 228
#     4   9  16  24  35  54  79 103 125 153 194 239
#     4   8  12  18  30  49  73  99 125 154 190 232
#     4   9  15  23  36  53  75 103 131 158 191 230
#     4   9  15  23  35  51  74 103 130 156 191 232
#     4   9  17  28  41  57  78 103 129 158 192 229
#     4   9  17  28  41  57  79 106 133 160 189 223
#     4   8  13  20  31  49  72  98 127 156 187 226
#
# _framework density 20.677952000000001
#
# number of rings (size 3 to 8) (size 9 to 14) (size 15 to 20)
#    0.000    3.267    0.000    2.400    0.000    4.800 
#    0.000    0.333    0.000    0.400    0.000    2.800 
#    0.000    4.800    0.000   23.067    0.000   22.667 
#
# Total GULP energy -334786.902679 kJ/mol
# GULP energy per Si atom -5579.781711 kJ/mol
# Density = 2.063089 g / cm^3
# Si number density = 20.677952 Si / 1000 Ang^3
#
#
#
# Elastic Constant Matrix: (Units=GPa)
#
#
# Indices 1 2 3 4 5 6 
#
# 1 207.8345 0.8889 117.8186 0.0000 0.0000 0.0000
# 2 0.8889 81.0330 4.1103 0.0000 0.0000 0.0000
# 3 117.8186 4.1103 93.8417 0.0000 0.0000 0.0000
# 4 0.0000 0.0000 0.0000 -10.0780 0.0000 0.0000
# 5 0.0000 0.0000 0.0000 0.0000 57.7485 0.0000
# 6 0.0000 0.0000 0.0000 0.0000 0.0000 6.9050
#
#
#
# Elastic Compliance Matrix: (Units=1/GPa)
#
#
# Indices 1 2 3 4 5 6 
#
# 1 0.016754 0.000885 -0.021074 0.000000 0.000000 0.000000
# 2 0.000885 0.012415 -0.001655 0.000000 0.000000 0.000000
# 3 -0.021074 -0.001655 0.037187 0.000000 0.000000 0.000000
# 4 0.000000 0.000000 0.000000 -0.099226 0.000000 0.000000
# 5 0.000000 0.000000 0.000000 0.000000 0.017316 0.000000
# 6 0.000000 0.000000 0.000000 0.000000 0.000000 0.144823
#
#
# Mechanical properties :
#
#
# Convention : Reuss Voigt Hill
#
# Bulk Modulus (GPa) = 44.11376 69.81608 56.96492
# Shear Modulus (GPa) = 27.69897 28.24119 27.97008
#
# Velocity S-wave (km/s) = 3.66394 3.69963 3.68183
# Velocity P-wave (km/s) = 6.26732 7.21710 6.75892
#
# Compressibility (1/GPa) = 0.02266866
#
# Stress axis : x y z
#
# Youngs Moduli (GPa) = 59.68717 80.54841 26.89140
#
# Poissons Ratio (x) = -0.07130 0.56670
# Poissons Ratio (y) = -0.05283 0.04451
# Poissons Ratio (z) = 1.25782 0.13331
#
# Static dielectric constant tensor:
#      x y z
#    x 1.727430 0.000000 0.000000 
#    y 0.000000 1.868410 0.000000 
#    z 0.000000 0.000000 1.707250 
# 
# From -- ./inp_files/72315.got.cif
#   From: 2010.05.17/outbox.cif.g08.bks.cpg/sg65_37_cif.got.tgz:72315.got - 2010.06.03 17:01:31.
