data_PCOD9494395
_publ_section_title
;
Structure prediction by ZEFSAII (Michael W. Deem and Ramdas Pophale) SiO2 
 PCOD9494395
Probable space group: C M M M
;
_chemical_formula_sum "Si O2"
_cell_formula_units_Z 80
_cell_length_a 30.461122
_cell_length_b 13.942838
_cell_length_c 9.426470
_cell_angle_alpha 90.000000
_cell_angle_beta 90.000000
_cell_angle_gamma 90.000000
_cell_volume 4003.558392
_symmetry_space_group_name_H-M "C M M M"
_symmetry_group_IT_number 65
_symmetry_cell_setting 'orthorhombic'
loop_
_space_group_symop_operation_xyz
x,y,z
-x,-y,z
x,-y,-z
-x,y,-z
-x,-y,-z
x,y,-z
-x,y,z
x,-y,z
1/2+x,1/2+y,z
1/2-x,1/2-y,z
1/2+x,1/2-y,-z
1/2-x,1/2+y,-z
1/2-x,1/2-y,-z
1/2+x,1/2+y,-z
1/2-x,1/2+y,z
1/2+x,1/2-y,z
loop_
_atom_site_type_symbol
_atom_site_label
_atom_site_fract_x
_atom_site_fract_y
_atom_site_fract_z
Si Si1 0.639427 0.115221 0.336833
Si Si2 0.408121 0.608108 0.672254
Si Si3 0.452069 0.201243 0.672768
Si Si4 0.724560 0.882584 0.162624
Si Si5 0.690416 0.382998 0.337266
O O1 0.643439 0.149241 0.500000
O O2 0.591635 0.145795 0.281044
O O3 0.681316 0.148370 0.247905
O O4 0.640626 0.000000 0.339373
O O5 0.407443 0.604241 0.500000
O O6 0.416238 0.500000 0.723557
O O7 0.443269 0.687967 0.711852
O O8 0.358877 0.641553 0.711806
O O9 0.452524 0.194677 0.500000
O O10 0.500000 0.168355 0.722514
O O11 0.769580 0.852782 0.238703
O O12 0.724475 0.000000 0.164492
O O13 0.722844 0.852200 0.000000
O O14 0.697342 0.351627 0.500000
O O15 0.690371 0.500000 0.340042
#
# Coordination Sequence:
#
# PCOD9494395 Si02
#       5
#    16  16  16  16  16
#     4   9  17  29  45  65  91 123 154 183 220 266
#     4   8  14  25  42  65  92 120 148 180 222 270
#     4   9  17  28  43  65  90 115 149 192 230 265
#     4   9  16  26  43  67  92 118 150 187 224 262
#     4   8  13  23  41  64  90 119 147 175 214 267
#
# _framework density 19.982225
#
# number of rings (size 3 to 8) (size 9 to 14) (size 15 to 20)
#    0.000    3.400    0.000    1.800    0.000    3.200 
#    0.000    5.000    0.000    7.800    0.000    2.800 
#    0.000    0.000    0.000    9.600    0.000   10.000 
#
# Total GULP energy -223082.753577 kJ/mol
# GULP energy per Si atom -5577.068839 kJ/mol
# Density = 1.993674 g / cm^3
# Si number density = 19.982225 Si / 1000 Ang^3
#
#
#
# Elastic Constant Matrix: (Units=GPa)
#
#
# Indices 1 2 3 4 5 6 
#
# 1 132.1237 9.7351 38.9353 0.0000 0.0000 0.0000
# 2 9.7351 41.2696 2.0237 0.0000 0.0000 0.0000
# 3 38.9353 2.0237 42.8082 0.0000 0.0000 0.0000
# 4 0.0000 0.0000 0.0000 4.2734 0.0000 0.0000
# 5 0.0000 0.0000 0.0000 0.0000 -4.7748 0.0000
# 6 0.0000 0.0000 0.0000 0.0000 0.0000 28.9106
#
#
#
# Elastic Compliance Matrix: (Units=1/GPa)
#
#
# Indices 1 2 3 4 5 6 
#
# 1 0.010505 -0.002014 -0.009459 0.000000 0.000000 0.000000
# 2 -0.002014 0.024673 0.000665 0.000000 0.000000 0.000000
# 3 -0.009459 0.000665 0.031932 0.000000 0.000000 0.000000
# 4 0.000000 0.000000 0.000000 0.234004 0.000000 0.000000
# 5 0.000000 0.000000 0.000000 0.000000 -0.209433 0.000000
# 6 0.000000 0.000000 0.000000 0.000000 0.000000 0.034589
#
#
# Mechanical properties :
#
#
# Convention : Reuss Voigt Hill
#
# Bulk Modulus (GPa) = 21.98069 35.28776 28.63422
# Shear Modulus (GPa) = 30.66543 16.71568 23.69055
#
# Velocity S-wave (km/s) = 3.92169 2.89542 3.44696
# Velocity P-wave (km/s) = 5.61518 5.37362 5.49573
#
# Compressibility (1/GPa) = 0.04549448
#
# Stress axis : x y z
#
# Youngs Moduli (GPa) = 95.19724 40.52953 31.31677
#
# Poissons Ratio (x) = 0.08163 0.29622
# Poissons Ratio (y) = 0.19173 -0.02084
# Poissons Ratio (z) = 0.90047 -0.02697
#
# Static dielectric constant tensor:
#      x y z
#    x 1.695890 0.000000 0.000000 
#    y 0.000000 1.776780 0.000000 
#    z 0.000000 0.000000 1.661410 
# 
# From -- ./inp_files/9618.got.cif
#   From: 2010.05.17/outbox.cif.g08.bks.cpg/sg65_5_cif.got.tgz:9618.got - 2010.06.03 17:01:31.
