data_PCOD9494970
_publ_section_title
;
Structure prediction by ZEFSAII (Michael W. Deem and Ramdas Pophale) SiO2 
 PCOD9494970
Probable space group: C C C M
;
_chemical_formula_sum "Si O2"
_cell_formula_units_Z 88
_cell_length_a 13.810362
_cell_length_b 24.658221
_cell_length_c 14.670710
_cell_angle_alpha 90.000000
_cell_angle_beta 90.000000
_cell_angle_gamma 90.000000
_cell_volume 4995.948301
_symmetry_space_group_name_H-M "C C C M"
_symmetry_group_IT_number 66
_symmetry_cell_setting 'orthorhombic'
loop_
_space_group_symop_operation_xyz
x,y,z
-x,-y,z
x,-y,1/2-z
-x,y,1/2-z
-x,-y,-z
x,y,-z
-x,y,1/2+z
x,-y,1/2+z
1/2+x,1/2+y,z
1/2-x,1/2-y,z
1/2+x,1/2-y,1/2-z
1/2-x,1/2+y,1/2-z
1/2-x,1/2-y,-z
1/2+x,1/2+y,-z
1/2-x,1/2+y,1/2+z
1/2+x,1/2-y,1/2+z
loop_
_atom_site_type_symbol
_atom_site_label
_atom_site_fract_x
_atom_site_fract_y
_atom_site_fract_z
Si Si1 0.250000 0.750000 0.291106
Si Si2 0.338252 0.639301 0.237127
Si Si3 0.041044 0.274922 0.853048
Si Si4 0.346024 0.064434 0.746964
Si Si5 0.008590 0.153457 0.103145
Si Si6 0.504499 0.896752 0.896116
O O1 0.288629 0.698777 0.234305
O O2 0.157941 0.728982 0.348615
O O3 0.255715 0.594604 0.240057
O O4 0.411917 0.633258 0.153359
O O5 0.402566 0.639036 0.329568
O O6 0.005112 0.219162 0.896665
O O7 0.007374 0.331280 0.895054
O O8 0.000000 0.274591 0.750000
O O9 0.403194 0.083936 0.837325
O O10 0.412944 0.082310 0.661672
O O11 0.336969 0.000000 0.750000
O O12 0.019868 0.134039 0.000000
O O13 0.504944 0.916132 0.000000
#
# Coordination Sequence:
#
# PCOD9494970 Si02
#       6
#     8  16  16  16  16  16
#     4  10  16  32  58  78 112 152 182 226 276 332
#     4  10  20  38  59  81 117 149 189 240 280 347
#     4  11  17  34  56  84 122 151 186 228 281 343
#     4  11  24  41  60  82 114 155 196 239 288 335
#     4  10  21  36  58  87 118 151 183 235 295 343
#     4  11  22  37  59  87 118 154 193 233 279 339
#
# _framework density 17.614273000000001
#
# number of rings (size 3 to 8) (size 9 to 14) (size 15 to 20)
#    0.000    1.455    7.273    1.636    0.000    2.909 
#    0.000    4.545    0.000    1.091    0.000    0.000 
#    0.000    0.000    0.000    0.000    0.000    0.000 
#
# Total GULP energy -245554.472104 kJ/mol
# GULP energy per Si atom -5580.783457 kJ/mol
# Density = 1.757418 g / cm^3
# Si number density = 17.614273 Si / 1000 Ang^3
#
#
#
# Elastic Constant Matrix: (Units=GPa)
#
#
# Indices 1 2 3 4 5 6 
#
# 1 135.3438 62.1996 55.5847 0.0000 0.0000 0.0000
# 2 62.1996 88.2264 19.9864 0.0000 0.0000 0.0000
# 3 55.5847 19.9864 139.8523 0.0000 0.0000 0.0000
# 4 0.0000 0.0000 0.0000 6.8358 0.0000 0.0000
# 5 0.0000 0.0000 0.0000 0.0000 -0.1049 0.0000
# 6 0.0000 0.0000 0.0000 0.0000 0.0000 16.6456
#
#
#
# Elastic Compliance Matrix: (Units=1/GPa)
#
#
# Indices 1 2 3 4 5 6 
#
# 1 0.012695 -0.008068 -0.003893 0.000000 0.000000 0.000000
# 2 -0.008068 0.016841 0.000800 0.000000 0.000000 0.000000
# 3 -0.003893 0.000800 0.008583 0.000000 0.000000 0.000000
# 4 0.000000 0.000000 0.000000 0.146289 0.000000 0.000000
# 5 0.000000 0.000000 0.000000 0.000000 -9.530274 0.000000
# 6 0.000000 0.000000 0.000000 0.000000 0.000000 0.060076
#
#
# Mechanical properties :
#
#
# Convention : Reuss Voigt Hill
#
# Bulk Modulus (GPa) = 63.30008 70.99600 67.14804
# Shear Modulus (GPa) = -0.54006 19.71876 9.58935
#
# Velocity S-wave (km/s) = -0.55432 3.34949 2.33579
# Velocity P-wave (km/s) = 5.96700 7.43991 6.74379
#
# Compressibility (1/GPa) = 0.01579777
#
# Stress axis : x y z
#
# Youngs Moduli (GPa) = 78.76982 59.37749 116.50607
#
# Poissons Ratio (x) = 0.47907 0.45352
# Poissons Ratio (y) = 0.63554 -0.09320
# Poissons Ratio (z) = 0.30663 -0.04750
#
# Static dielectric constant tensor:
#      x y z
#    x 1.595980 0.000000 0.000000 
#    y 0.000000 1.591470 0.000000 
#    z 0.000000 0.000000 1.617480 
# 
# From -- ./inp_files/28784.got.cif
#   From: 2010.05.17/outbox.cif.g08.bks.cpg/sg66_15_cif.got.tgz:28784.got - 2010.06.03 17:51:23.
