data_PCOD9494011
_publ_section_title
;
Structure prediction by ZEFSAII (Michael W. Deem and Ramdas Pophale) SiO2 
 PCOD9494011
Probable space group: C M M M
;
_chemical_formula_sum "Si O2"
_cell_formula_units_Z 88
_cell_length_a 17.021759
_cell_length_b 12.284113
_cell_length_c 21.257551
_cell_angle_alpha 90.000000
_cell_angle_beta 90.000000
_cell_angle_gamma 90.000000
_cell_volume 4444.894627
_symmetry_space_group_name_H-M "C M M M"
_symmetry_group_IT_number 65
_symmetry_cell_setting 'orthorhombic'
loop_
_space_group_symop_operation_xyz
x,y,z
-x,-y,z
x,-y,-z
-x,y,-z
-x,-y,-z
x,y,-z
-x,y,z
x,-y,z
1/2+x,1/2+y,z
1/2-x,1/2-y,z
1/2+x,1/2-y,-z
1/2-x,1/2+y,-z
1/2-x,1/2-y,-z
1/2+x,1/2+y,-z
1/2-x,1/2+y,z
1/2+x,1/2-y,z
loop_
_atom_site_type_symbol
_atom_site_label
_atom_site_fract_x
_atom_site_fract_y
_atom_site_fract_z
Si Si1 0.406182 0.875092 0.311308
Si Si2 0.843314 0.267508 0.070603
Si Si3 0.408799 0.500000 0.258870
Si Si4 0.843772 0.239500 0.430706
Si Si5 0.842225 0.219791 0.794934
Si Si6 0.588243 0.000000 0.924695
Si Si7 0.409668 0.500000 0.408864
O O1 0.500000 0.877369 0.312986
O O2 0.378001 0.806014 0.371782
O O3 0.381068 0.813885 0.247416
O O4 0.376558 0.000000 0.313136
O O5 0.750000 0.250000 0.066222
O O6 0.871666 0.206698 0.132947
O O7 0.863574 0.391687 0.088454
O O8 0.875608 0.244254 0.000000
O O9 0.500000 0.500000 0.236345
O O10 0.362547 0.393230 0.237730
O O11 0.411531 0.500000 0.333710
O O12 0.869224 0.281300 0.500000
O O13 0.750000 0.250000 0.426956
O O14 0.868222 0.112595 0.427697
O O15 0.750000 0.250000 0.796757
O O16 0.500000 0.000000 0.897035
O O17 0.579537 0.000000 0.000000
O O18 0.500000 0.500000 0.430737
#
# Coordination Sequence:
#
# PCOD9494011 Si02
#       7
#    16  16   8  16  16   8   8
#     4  11  25  42  63  93 128 166 206 254 313 376
#     4   9  20  38  59  88 125 162 205 257 314 376
#     4  11  24  42  64  92 128 167 207 259 318 371
#     4  11  25  42  66  97 129 164 207 260 312 365
#     4  11  24  39  66  93 123 164 212 260 314 372
#     4   9  18  33  56  86 116 152 200 252 306 361
#     4  11  23  42  68  94 124 168 220 263 300 364
#
# _framework density 19.797995
#
# number of rings (size 3 to 8) (size 9 to 14) (size 15 to 20)
#    0.000    1.545    1.818    1.909    3.818    5.818 
#    0.000    2.273    0.000    0.545    0.000    0.000 
#    0.000    0.000    0.000    0.000    0.000    0.000 
#
# Total GULP energy -245458.107322 kJ/mol
# GULP energy per Si atom -5578.593348 kJ/mol
# Density = 1.975293 g / cm^3
# Si number density = 19.797995 Si / 1000 Ang^3
#
#
#
# Elastic Constant Matrix: (Units=GPa)
#
#
# Indices 1 2 3 4 5 6 
#
# 1 84.9187 51.7446 21.0855 0.0000 0.0000 0.0000
# 2 51.7446 123.7725 42.1682 0.0000 0.0000 0.0000
# 3 21.0855 42.1682 166.2089 0.0000 0.0000 0.0000
# 4 0.0000 0.0000 0.0000 -191.2319 0.0000 0.0000
# 5 0.0000 0.0000 0.0000 0.0000 76.6182 0.0000
# 6 0.0000 0.0000 0.0000 0.0000 0.0000 16.9789
#
#
#
# Elastic Compliance Matrix: (Units=1/GPa)
#
#
# Indices 1 2 3 4 5 6 
#
# 1 0.015821 -0.006491 -0.000360 0.000000 0.000000 0.000000
# 2 -0.006491 0.011507 -0.002096 0.000000 0.000000 0.000000
# 3 -0.000360 -0.002096 0.006594 0.000000 0.000000 0.000000
# 4 0.000000 0.000000 0.000000 -0.005229 0.000000 0.000000
# 5 0.000000 0.000000 0.000000 0.000000 0.013052 0.000000
# 6 0.000000 0.000000 0.000000 0.000000 0.000000 0.058897
#
#
# Mechanical properties :
#
#
# Convention : Reuss Voigt Hill
#
# Bulk Modulus (GPa) = 62.39445 67.21075 64.80260
# Shear Modulus (GPa) = 40.36211 -2.20018 19.08096
#
# Velocity S-wave (km/s) = 4.52009 -1.05533 3.10785
# Velocity P-wave (km/s) = 7.66978 5.70412 6.75879
#
# Compressibility (1/GPa) = 0.01602707
#
# Stress axis : x y z
#
# Youngs Moduli (GPa) = 63.20758 86.90198 151.65373
#
# Poissons Ratio (x) = 0.56412 0.05462
# Poissons Ratio (y) = 0.41031 0.31786
# Poissons Ratio (z) = 0.02276 0.18214
#
# Static dielectric constant tensor:
#      x y z
#    x 1.680940 0.000000 0.000000 
#    y 0.000000 1.674710 0.000000 
#    z 0.000000 0.000000 1.727350 
# 
# From -- ./inp_files/63679.got.cif
#   From: 2010.05.17/outbox.cif.g08.bks.cpg/sg65_32_cif.got.tgz:63679.got - 2010.06.03 17:01:31.
