data_PCOD9494025
_publ_section_title
;
Structure prediction by ZEFSAII (Michael W. Deem and Ramdas Pophale) SiO2 
 PCOD9494025
Probable space group: C M M M
;
_chemical_formula_sum "Si O2"
_cell_formula_units_Z 88
_cell_length_a 14.442177
_cell_length_b 26.316752
_cell_length_c 14.916260
_cell_angle_alpha 90.000000
_cell_angle_beta 90.000000
_cell_angle_gamma 90.000000
_cell_volume 5669.240695
_symmetry_space_group_name_H-M "C M M M"
_symmetry_group_IT_number 65
_symmetry_cell_setting 'orthorhombic'
loop_
_space_group_symop_operation_xyz
x,y,z
-x,-y,z
x,-y,-z
-x,y,-z
-x,-y,-z
x,y,-z
-x,y,z
x,-y,z
1/2+x,1/2+y,z
1/2-x,1/2-y,z
1/2+x,1/2-y,-z
1/2-x,1/2+y,-z
1/2-x,1/2-y,-z
1/2+x,1/2+y,-z
1/2-x,1/2+y,z
1/2+x,1/2-y,z
loop_
_atom_site_type_symbol
_atom_site_label
_atom_site_fract_x
_atom_site_fract_y
_atom_site_fract_z
Si Si1 0.782309 0.884390 0.838916
Si Si2 0.395925 0.174033 0.892612
Si Si3 0.252609 0.561293 0.650447
Si Si4 0.611407 0.711218 0.894974
Si Si5 0.109218 0.061003 0.000000
Si Si6 0.897136 0.938485 0.500000
Si Si7 0.393837 0.938242 0.500000
O O1 0.680114 0.867269 0.869246
O O2 0.768186 0.912741 0.745435
O O3 0.840810 0.832081 0.836836
O O4 0.836833 0.917785 0.912941
O O5 0.500000 0.163433 0.858655
O O6 0.366857 0.231249 0.865381
O O7 0.401438 0.176856 0.000000
O O8 0.249361 0.500000 0.661200
O O9 0.339289 0.575089 0.587506
O O10 0.163364 0.576338 0.589732
O O11 0.500000 0.706449 0.893505
O O12 0.641037 0.704356 0.000000
O O13 0.000000 0.077163 0.000000
O O14 0.111010 0.000000 0.000000
O O15 0.000000 0.917876 0.500000
O O16 0.900944 0.000000 0.500000
O O17 0.500000 0.920866 0.500000
O O18 0.393618 0.000000 0.500000
#
# Coordination Sequence:
#
# PCOD9494025 Si02
#       7
#    16  16  16  16   8   8   8
#     4  12  19  30  50  71  99 135 165 197 238 288
#     4   9  18  32  49  70  94 123 164 213 254 282
#     4   9  19  31  46  73  99 122 159 199 237 287
#     4   9  17  30  48  70  95 125 168 213 247 278
#     4  11  24  36  44  63 101 145 178 196 222 277
#     4   8  15  31  50  65  87 118 152 198 248 280
#     4   8  15  33  56  71  89 118 156 210 262 294
#
# _framework density 15.522361
#
# number of rings (size 3 to 8) (size 9 to 14) (size 15 to 20)
#    0.000    2.455    1.818    3.818    0.000    3.636 
#    0.000    1.818    0.000    2.182    0.000   10.182 
#    0.000   17.455    0.000    0.000    0.000    0.000 
#
# Total GULP energy -245076.324877 kJ/mol
# GULP energy per Si atom -5569.916474 kJ/mol
# Density = 1.548703 g / cm^3
# Si number density = 15.522361 Si / 1000 Ang^3
#
#
#
# Elastic Constant Matrix: (Units=GPa)
#
#
# Indices 1 2 3 4 5 6 
#
# 1 126.0511 50.9339 63.1416 0.0000 0.0000 0.0000
# 2 50.9339 62.8650 48.2122 0.0000 0.0000 0.0000
# 3 63.1416 48.2122 111.1576 0.0000 0.0000 0.0000
# 4 0.0000 0.0000 0.0000 11.9746 0.0000 0.0000
# 5 0.0000 0.0000 0.0000 0.0000 3.4763 0.0000
# 6 0.0000 0.0000 0.0000 0.0000 0.0000 21.4641
#
#
#
# Elastic Compliance Matrix: (Units=1/GPa)
#
#
# Indices 1 2 3 4 5 6 
#
# 1 0.012992 -0.007292 -0.004217 0.000000 0.000000 0.000000
# 2 -0.007292 0.027929 -0.007971 0.000000 0.000000 0.000000
# 3 -0.004217 -0.007971 0.014849 0.000000 0.000000 0.000000
# 4 0.000000 0.000000 0.000000 0.083510 0.000000 0.000000
# 5 0.000000 0.000000 0.000000 0.000000 0.287665 0.000000
# 6 0.000000 0.000000 0.000000 0.000000 0.000000 0.046589
#
#
# Mechanical properties :
#
#
# Convention : Reuss Voigt Hill
#
# Bulk Modulus (GPa) = 59.49303 69.40544 64.44924
# Shear Modulus (GPa) = 9.65066 16.56873 13.10969
#
# Velocity S-wave (km/s) = 2.49615 3.27067 2.90930
# Velocity P-wave (km/s) = 6.83507 7.68592 7.27295
#
# Compressibility (1/GPa) = 0.01680869
#
# Stress axis : x y z
#
# Youngs Moduli (GPa) = 76.96773 35.80560 67.34401
#
# Poissons Ratio (x) = 0.26111 0.28401
# Poissons Ratio (y) = 0.56127 0.53681
# Poissons Ratio (z) = 0.32460 0.28541
#
# Static dielectric constant tensor:
#      x y z
#    x 1.553990 0.000000 0.000000 
#    y 0.000000 1.515740 0.000000 
#    z 0.000000 0.000000 1.493940 
# 
# From -- ./inp_files/40964.got.cif
#   From: 2010.05.17/outbox.cif.g08.bks.cpg/sg65_21_cif.got.tgz:40964.got - 2010.06.03 17:01:31.
