data_PCOD9494506
_publ_section_title
;
Structure prediction by ZEFSAII (Michael W. Deem and Ramdas Pophale) SiO2 
 PCOD9494506
Probable space group: C M M M
;
_chemical_formula_sum "Si O2"
_cell_formula_units_Z 88
_cell_length_a 23.756869
_cell_length_b 22.909566
_cell_length_c 7.523944
_cell_angle_alpha 90.000000
_cell_angle_beta 90.000000
_cell_angle_gamma 90.000000
_cell_volume 4094.978438
_symmetry_space_group_name_H-M "C M M M"
_symmetry_group_IT_number 65
_symmetry_cell_setting 'orthorhombic'
loop_
_space_group_symop_operation_xyz
x,y,z
-x,-y,z
x,-y,-z
-x,y,-z
-x,-y,-z
x,y,-z
-x,y,z
x,-y,z
1/2+x,1/2+y,z
1/2-x,1/2-y,z
1/2+x,1/2-y,-z
1/2-x,1/2+y,-z
1/2-x,1/2-y,-z
1/2+x,1/2+y,-z
1/2-x,1/2+y,z
1/2+x,1/2-y,z
loop_
_atom_site_type_symbol
_atom_site_label
_atom_site_fract_x
_atom_site_fract_y
_atom_site_fract_z
Si Si1 0.438802 0.709795 0.717207
Si Si2 0.710435 0.000000 0.797372
Si Si3 0.500000 0.932493 0.282928
Si Si4 0.838745 0.870172 0.708145
Si Si5 0.346321 0.500000 0.200437
Si Si6 0.788079 0.629164 0.295994
Si Si7 0.407191 0.839570 0.282473
O O1 0.437614 0.707631 0.500000
O O2 0.500000 0.687170 0.773363
O O3 0.385795 0.672666 0.783273
O O4 0.433401 0.777569 0.766630
O O5 0.695611 0.939467 0.706253
O O6 0.778304 0.000000 0.799596
O O7 0.689959 0.000000 0.000000
O O8 0.500000 0.933361 0.500000
O O9 0.445560 0.894346 0.227187
O O10 0.500000 0.000000 0.224276
O O11 0.833166 0.856510 0.500000
O O12 0.774839 0.865295 0.783386
O O13 0.859882 0.937176 0.718677
O O14 0.367360 0.500000 0.000000
O O15 0.784114 0.649006 0.500000
O O16 0.842867 0.659133 0.215914
O O17 0.405683 0.841712 0.500000
#
# Coordination Sequence:
#
# PCOD9494506 Si02
#       7
#    16   8   8  16   8  16  16
#     4   9  16  28  45  65  93 128 159 188 230 281
#     4   9  17  29  45  65  93 127 157 184 225 284
#     4   9  16  24  36  60  96 129 156 189 227 268
#     4   9  17  29  47  71  98 122 149 191 238 279
#     4   9  17  31  50  70  94 123 154 188 229 280
#     4   9  17  27  43  70  96 119 149 193 239 275
#     4   9  16  26  41  64  96 127 156 191 230 273
#
# _framework density 21.489733999999999
#
# number of rings (size 3 to 8) (size 9 to 14) (size 15 to 20)
#    0.000    3.000    0.909    0.545    1.273    2.909 
#    0.000    4.091    0.000    4.364    0.000    6.364 
#    0.000    0.000    0.000    0.000    0.000    0.000 
#
# Total GULP energy -245171.003954 kJ/mol
# GULP energy per Si atom -5572.068272 kJ/mol
# Density = 2.144082 g / cm^3
# Si number density = 21.489734 Si / 1000 Ang^3
#
#
#
# Elastic Constant Matrix: (Units=GPa)
#
#
# Indices 1 2 3 4 5 6 
#
# 1 164.3476 79.8747 6.5804 0.0000 0.0000 0.0000
# 2 79.8747 91.3063 -4.3924 0.0000 0.0000 0.0000
# 3 6.5804 -4.3924 54.7582 0.0000 0.0000 0.0000
# 4 0.0000 0.0000 0.0000 -46.6623 0.0000 0.0000
# 5 0.0000 0.0000 0.0000 0.0000 -9.1726 0.0000
# 6 0.0000 0.0000 0.0000 0.0000 0.0000 53.3461
#
#
#
# Elastic Compliance Matrix: (Units=1/GPa)
#
#
# Indices 1 2 3 4 5 6 
#
# 1 0.010813 -0.009559 -0.002066 0.000000 0.000000 0.000000
# 2 -0.009559 0.019444 0.002708 0.000000 0.000000 0.000000
# 3 -0.002066 0.002708 0.018728 0.000000 0.000000 0.000000
# 4 0.000000 0.000000 0.000000 -0.021431 0.000000 0.000000
# 5 0.000000 0.000000 0.000000 0.000000 -0.109021 0.000000
# 6 0.000000 0.000000 0.000000 0.000000 0.000000 0.018746
#
#
# Mechanical properties :
#
#
# Convention : Reuss Voigt Hill
#
# Bulk Modulus (GPa) = 32.10048 52.72642 42.41345
# Shear Modulus (GPa) = -144.90968 14.72554 -65.09207
#
# Velocity S-wave (km/s) = -8.22061 2.62054 -5.50959
# Velocity P-wave (km/s) = 8.66802 5.80906 4.54914
#
# Compressibility (1/GPa) = 0.03115218
#
# Stress axis : x y z
#
# Youngs Moduli (GPa) = 92.48162 51.42902 53.39703
#
# Poissons Ratio (x) = 0.49159 0.11033
# Poissons Ratio (y) = 0.88399 -0.14462
# Poissons Ratio (z) = 0.19108 -0.13929
#
# Static dielectric constant tensor:
#      x y z
#    x 1.797570 0.000000 0.000000 
#    y 0.000000 1.765380 0.000000 
#    z 0.000000 0.000000 1.806040 
# 
# From -- ./inp_files/14071.got.cif
#   From: 2010.05.17/outbox.cif.g08.bks.cpg/sg65_8_cif.got.tgz:14071.got - 2010.06.03 17:01:31.
