data_PCOD9494094
_publ_section_title
;
Structure prediction by ZEFSAII (Michael W. Deem and Ramdas Pophale) SiO2 
 PCOD9494094
Probable space group: C M M M
;
_chemical_formula_sum "Si O2"
_cell_formula_units_Z 64
_cell_length_a 25.896298
_cell_length_b 15.205204
_cell_length_c 7.475852
_cell_angle_alpha 90.000000
_cell_angle_beta 90.000000
_cell_angle_gamma 90.000000
_cell_volume 2943.680224
_symmetry_space_group_name_H-M "C M M M"
_symmetry_group_IT_number 65
_symmetry_cell_setting 'orthorhombic'
loop_
_space_group_symop_operation_xyz
x,y,z
-x,-y,z
x,-y,-z
-x,y,-z
-x,-y,-z
x,y,-z
-x,y,z
x,-y,z
1/2+x,1/2+y,z
1/2-x,1/2-y,z
1/2+x,1/2-y,-z
1/2-x,1/2+y,-z
1/2-x,1/2-y,-z
1/2+x,1/2+y,-z
1/2-x,1/2+y,z
1/2+x,1/2-y,z
loop_
_atom_site_type_symbol
_atom_site_label
_atom_site_fract_x
_atom_site_fract_y
_atom_site_fract_z
Si Si1 0.941916 0.000000 0.711800
Si Si2 0.139004 0.150580 0.213333
Si Si3 0.250265 0.142613 0.206475
Si Si4 0.558891 0.000000 0.781471
Si Si5 0.136941 0.649379 0.219566
O O1 0.907862 0.084863 0.759109
O O2 0.946467 0.000000 0.500000
O O3 0.000000 0.000000 0.787919
O O4 0.194671 0.117162 0.285020
O O5 0.129023 0.249785 0.277561
O O6 0.146617 0.157848 0.000000
O O7 0.250000 0.250000 0.206491
O O8 0.306170 0.118218 0.281836
O O9 0.250984 0.112427 0.000000
O O10 0.591447 0.914889 0.725266
O O11 0.500000 0.000000 0.720633
O O12 0.558116 0.000000 0.000000
O O13 0.138357 0.648840 0.000000
#
# Coordination Sequence:
#
# PCOD9494094 Si02
#       5
#     8  16  16   8  16
#     4  11  25  40  49  63  93 131 168 207 254 300
#     4   9  17  31  53  76  94 118 158 203 240 283
#     4   7  11  22  42  70  98 118 143 185 236 282
#     4   9  16  23  32  56  97 135 158 177 214 272
#     4   8  14  25  43  70 103 130 150 185 238 286
#
# _framework density 21.741491
#
# number of rings (size 3 to 8) (size 9 to 14) (size 15 to 20)
#    0.000    3.500    0.000    3.375    0.000    3.000 
#    0.000    6.250    0.000    6.750    0.000    0.875 
#    0.000    3.000    0.000    0.000    0.000    0.000 
#
# Total GULP energy -178422.484169 kJ/mol
# GULP energy per Si atom -5575.702630 kJ/mol
# Density = 2.169201 g / cm^3
# Si number density = 21.741491 Si / 1000 Ang^3
#
#
#
# Elastic Constant Matrix: (Units=GPa)
#
#
# Indices 1 2 3 4 5 6 
#
# 1 273.1020 119.4529 6.8213 0.0000 0.0000 0.0000
# 2 119.4529 123.6139 2.2165 0.0000 0.0000 0.0000
# 3 6.8213 2.2165 59.2928 0.0000 0.0000 0.0000
# 4 0.0000 0.0000 0.0000 31.6573 0.0000 0.0000
# 5 0.0000 0.0000 0.0000 0.0000 43.7999 0.0000
# 6 0.0000 0.0000 0.0000 0.0000 0.0000 38.6822
#
#
#
# Elastic Compliance Matrix: (Units=1/GPa)
#
#
# Indices 1 2 3 4 5 6 
#
# 1 0.006357 -0.006134 -0.000502 0.000000 0.000000 0.000000
# 2 -0.006134 0.014014 0.000182 0.000000 0.000000 0.000000
# 3 -0.000502 0.000182 0.016916 0.000000 0.000000 0.000000
# 4 0.000000 0.000000 0.000000 0.031588 0.000000 0.000000
# 5 0.000000 0.000000 0.000000 0.000000 0.022831 0.000000
# 6 0.000000 0.000000 0.000000 0.000000 0.000000 0.025852
#
#
# Mechanical properties :
#
#
# Convention : Reuss Voigt Hill
#
# Bulk Modulus (GPa) = 41.01902 79.22113 60.12007
# Shear Modulus (GPa) = 36.07653 44.66242 40.36947
#
# Velocity S-wave (km/s) = 4.07792 4.53730 4.31373
# Velocity P-wave (km/s) = 6.40939 7.99789 7.24729
#
# Compressibility (1/GPa) = 0.02437894
#
# Stress axis : x y z
#
# Youngs Moduli (GPa) = 157.30053 71.35610 59.11413
#
# Poissons Ratio (x) = 0.43772 0.02968
# Poissons Ratio (y) = 0.96492 -0.01075
# Poissons Ratio (z) = 0.07897 -0.01298
#
# Static dielectric constant tensor:
#      x y z
#    x 1.812710 0.000000 0.000000 
#    y 0.000000 1.782370 0.000000 
#    z 0.000000 0.000000 1.818650 
# 
# From -- ./inp_files/15650.got.cif
#   From: 2010.05.17/outbox.cif.g08.bks.cpg/sg65_8_cif.got.tgz:15650.got - 2010.06.03 17:01:31.
