data_PCOD9494687
_publ_section_title
;
Structure prediction by ZEFSAII (Michael W. Deem and Ramdas Pophale) SiO2 
 PCOD9494687
Probable space group: C M M M
;
_chemical_formula_sum "Si O2"
_cell_formula_units_Z 48
_cell_length_a 21.000000
_cell_length_b 27.000000
_cell_length_c 9.000000
_cell_angle_alpha 90.000000
_cell_angle_beta 90.000000
_cell_angle_gamma 90.000000
_cell_volume 5103.000000
_symmetry_space_group_name_H-M "C M M M"
_symmetry_group_IT_number 65
_symmetry_cell_setting 'orthorhombic'
loop_
_space_group_symop_operation_xyz
x,y,z
-x,-y,z
x,-y,-z
-x,y,-z
-x,-y,-z
x,y,-z
-x,y,z
x,-y,z
1/2+x,1/2+y,z
1/2-x,1/2-y,z
1/2+x,1/2-y,-z
1/2-x,1/2+y,-z
1/2-x,1/2-y,-z
1/2+x,1/2+y,-z
1/2-x,1/2+y,z
1/2+x,1/2-y,z
loop_
_atom_site_type_symbol
_atom_site_label
_atom_site_fract_x
_atom_site_fract_y
_atom_site_fract_z
Si Si1 0.070252 0.699293 0.180402
Si Si2 0.311890 0.377872 0.320564
Si Si3 0.179969 0.227486 0.824851
Si Si4 0.070054 0.942919 0.680890
Si Si5 0.301039 0.945716 0.677069
Si Si6 0.429183 0.083880 0.178871
O O1 0.127196 0.733901 0.231600
O O2 0.077062 0.641839 0.222209
O O3 0.000000 0.716598 0.227832
O O4 0.071306 0.699601 0.000000
O O5 0.310842 0.378853 0.500000
O O6 0.320843 0.323103 0.263327
O O7 0.371418 0.410413 0.267733
O O8 0.246328 0.403142 0.268112
O O9 0.250000 0.250000 0.811825
O O10 0.167921 0.218178 0.000000
O O11 0.070923 0.942439 0.500000
O O12 0.000000 0.924974 0.727468
O O13 0.076952 0.000000 0.725930
O O14 0.308745 0.940318 0.500000
O O15 0.369653 0.943095 0.751081
O O16 0.271631 0.000000 0.703579
O O17 0.500000 0.066849 0.223824
O O18 0.426132 0.080602 0.000000
#
# Coordination Sequence:
#
# PCOD9494687 Si02
#       6
#    16  16  16  16  16  16
#     4   8  15  30  51  72  95 125 159 194 236 289
#     4  10  20  33  50  73 100 128 162 205 246 284
#     4  10  20  33  50  71  95 126 163 199 238 289
#     4   8  14  27  49  74  98 127 163 200 239 286
#     4  10  21  35  50  70  99 134 166 197 240 294
#     4   9  18  34  56  78  98 124 162 205 243 282
#
# _framework density 9.4062319999999993
#
# number of rings (size 3 to 8) (size 9 to 14) (size 15 to 20)
#    0.000    2.833    0.000    3.000    0.000    6.000 
#    0.000    2.500    0.000    2.500    0.000    1.167 
#    0.000    0.000    0.000    0.000    0.000    0.000 
#
# Total GULP energy -267518.052967 kJ/mol
# GULP energy per Si atom -5573.292770 kJ/mol
# Density = 0.938482 g / cm^3
# Si number density = 9.406232 Si / 1000 Ang^3
#
#
#
# Elastic Constant Matrix: (Units=GPa)
#
#
# Indices 1 2 3 4 5 6 
#
# 1 94.7306 42.4181 20.5986 0.0000 0.0000 0.0000
# 2 42.4181 60.2865 13.9757 0.0000 0.0000 0.0000
# 3 20.5986 13.9757 -2.2310 0.0000 0.0000 0.0000
# 4 0.0000 0.0000 0.0000 42.1942 0.0000 0.0000
# 5 0.0000 0.0000 0.0000 0.0000 6.7092 0.0000
# 6 0.0000 0.0000 0.0000 0.0000 0.0000 32.6850
#
#
#
# Elastic Compliance Matrix: (Units=1/GPa)
#
#
# Indices 1 2 3 4 5 6 
#
# 1 0.011619 -0.013475 0.022863 0.000000 0.000000 0.000000
# 2 -0.013475 0.022392 0.015859 0.000000 0.000000 0.000000
# 3 0.022863 0.015859 -0.137800 0.000000 0.000000 0.000000
# 4 0.000000 0.000000 0.000000 0.023700 0.000000 0.000000
# 5 0.000000 0.000000 0.000000 0.000000 0.149049 0.000000
# 6 0.000000 0.000000 0.000000 0.000000 0.000000 0.030595
#
#
# Mechanical properties :
#
#
# Convention : Reuss Voigt Hill
#
# Bulk Modulus (GPa) = -18.76294 34.08565 7.66135
# Shear Modulus (GPa) = 159.75623 21.37059 90.56341
#
# Velocity S-wave (km/s) = 9.22523 3.37409 6.94583
# Velocity P-wave (km/s) = 10.17240 5.77384 8.27088
#
# Compressibility (1/GPa) = -0.05329656
#
# Stress axis : x y z
#
# Youngs Moduli (GPa) = 86.06769 44.65814 -7.25691
#
# Poissons Ratio (x) = 0.60177 0.16591
# Poissons Ratio (y) = 1.15977 0.11508
# Poissons Ratio (z) = -1.96773 -0.70821
#
# Static dielectric constant tensor:
#      x y z
#    x 1.641860 0.000000 0.000000 
#    y 0.000000 1.642720 0.000000 
#    z 0.000000 0.000000 1.631050 
# 
# From -- ./inp_files/12221.got.cif
#   From: 2010.05.17/outbox.ucp.g08.bks.cvg/sg65_7_cif.got.tgz:12221.got - 2010.06.11 16:39:57.
