data_PCOD9494004
_publ_section_title
;
Structure prediction by ZEFSAII (Michael W. Deem and Ramdas Pophale) SiO2 
 PCOD9494004
Probable space group: C M M M
;
_chemical_formula_sum "Si O2"
_cell_formula_units_Z 80
_cell_length_a 23.750606
_cell_length_b 19.389654
_cell_length_c 8.910703
_cell_angle_alpha 90.000000
_cell_angle_beta 90.000000
_cell_angle_gamma 90.000000
_cell_volume 4103.521594
_symmetry_space_group_name_H-M "C M M M"
_symmetry_group_IT_number 65
_symmetry_cell_setting 'orthorhombic'
loop_
_space_group_symop_operation_xyz
x,y,z
-x,-y,z
x,-y,-z
-x,y,-z
-x,-y,-z
x,y,-z
-x,y,z
x,-y,z
1/2+x,1/2+y,z
1/2-x,1/2-y,z
1/2+x,1/2-y,-z
1/2-x,1/2+y,-z
1/2-x,1/2-y,-z
1/2+x,1/2+y,-z
1/2-x,1/2+y,z
1/2+x,1/2-y,z
loop_
_atom_site_type_symbol
_atom_site_label
_atom_site_fract_x
_atom_site_fract_y
_atom_site_fract_z
Si Si1 0.657685 0.418685 0.320151
Si Si2 0.259350 0.167571 0.827114
Si Si3 0.624545 0.808139 0.673033
Si Si4 0.066484 0.175359 0.819915
Si Si5 0.567090 0.077440 0.833514
O O1 0.658022 0.410020 0.500000
O O2 0.664154 0.500000 0.286393
O O3 0.708403 0.373831 0.249123
O O4 0.599624 0.388536 0.253257
O O5 0.250000 0.250000 0.827199
O O6 0.317125 0.162202 0.736721
O O7 0.264798 0.145100 0.000000
O O8 0.630313 0.788887 0.500000
O O9 0.599861 0.742992 0.762991
O O10 0.582604 0.870768 0.703426
O O11 0.000000 0.178727 0.779989
O O12 0.070568 0.171850 0.000000
O O13 0.500000 0.073548 0.840488
O O14 0.589250 0.000000 0.811647
O O15 0.586236 0.102472 0.000000
#
# Coordination Sequence:
#
# PCOD9494004 Si02
#       5
#    16  16  16  16  16
#     4  11  25  44  67  97 131 165 205 258 318 376
#     4  11  23  41  67  93 120 161 208 251 302 365
#     4  12  24  37  61  93 127 163 204 257 316 372
#     4  11  24  42  65  93 126 168 217 262 307 369
#     4   9  19  37  59  83 117 162 208 254 304 360
#
# _framework density 19.495450999999999
#
# number of rings (size 3 to 8) (size 9 to 14) (size 15 to 20)
#    0.000    1.200    2.000    4.800    0.000    8.400 
#    0.000    3.000    0.000    0.000    0.000    0.000 
#    0.000    0.000    0.000    0.000    0.000    0.000 
#
# Total GULP energy -223401.162277 kJ/mol
# GULP energy per Si atom -5585.029057 kJ/mol
# Density = 1.945108 g / cm^3
# Si number density = 19.495451 Si / 1000 Ang^3
#
#
#
# Elastic Constant Matrix: (Units=GPa)
#
#
# Indices 1 2 3 4 5 6 
#
# 1 118.9806 42.4921 52.0103 0.0000 0.0000 0.0000
# 2 42.4921 89.8561 45.0890 0.0000 0.0000 0.0000
# 3 52.0103 45.0890 102.8529 0.0000 0.0000 0.0000
# 4 0.0000 0.0000 0.0000 28.7441 0.0000 0.0000
# 5 0.0000 0.0000 0.0000 0.0000 246.8581 0.0000
# 6 0.0000 0.0000 0.0000 0.0000 0.0000 30.0530
#
#
#
# Elastic Compliance Matrix: (Units=1/GPa)
#
#
# Indices 1 2 3 4 5 6 
#
# 1 0.011475 -0.003224 -0.004389 0.000000 0.000000 0.000000
# 2 -0.003224 0.015173 -0.005021 0.000000 0.000000 0.000000
# 3 -0.004389 -0.005021 0.014143 0.000000 0.000000 0.000000
# 4 0.000000 0.000000 0.000000 0.034790 0.000000 0.000000
# 5 0.000000 0.000000 0.000000 0.000000 0.004051 0.000000
# 6 0.000000 0.000000 0.000000 0.000000 0.000000 0.033275
#
#
# Mechanical properties :
#
#
# Convention : Reuss Voigt Hill
#
# Bulk Modulus (GPa) = 64.42321 65.65249 65.03785
# Shear Modulus (GPa) = 34.87973 72.60424 53.74199
#
# Velocity S-wave (km/s) = 4.23439 6.10921 5.25607
# Velocity P-wave (km/s) = 7.55141 9.13850 8.38260
#
# Compressibility (1/GPa) = 0.01552236
#
# Stress axis : x y z
#
# Youngs Moduli (GPa) = 87.14787 65.90601 70.70391
#
# Poissons Ratio (x) = 0.21247 0.31034
# Poissons Ratio (y) = 0.28095 0.35504
# Poissons Ratio (z) = 0.38251 0.33094
#
# Static dielectric constant tensor:
#      x y z
#    x 1.745460 0.000000 0.000000 
#    y 0.000000 1.688030 0.000000 
#    z 0.000000 0.000000 1.684350 
# 
# From -- ./inp_files/16035.got.cif
#   From: 2010.05.17/outbox.cif.g08.bks.cpg/sg65_9_cif.got.tgz:16035.got - 2010.06.03 17:01:31.
