data_PCOD9494632
_publ_section_title
;
Structure prediction by ZEFSAII (Michael W. Deem and Ramdas Pophale) SiO2 
 PCOD9494632
Probable space group: C M M M
;
_chemical_formula_sum "Si O2"
_cell_formula_units_Z 52
_cell_length_a 9.000000
_cell_length_b 27.000000
_cell_length_c 24.000000
_cell_angle_alpha 90.000000
_cell_angle_beta 90.000000
_cell_angle_gamma 90.000000
_cell_volume 5832.000000
_symmetry_space_group_name_H-M "C M M M"
_symmetry_group_IT_number 65
_symmetry_cell_setting 'orthorhombic'
loop_
_space_group_symop_operation_xyz
x,y,z
-x,-y,z
x,-y,-z
-x,y,-z
-x,-y,-z
x,y,-z
-x,y,z
x,-y,z
1/2+x,1/2+y,z
1/2-x,1/2-y,z
1/2+x,1/2-y,-z
1/2-x,1/2+y,-z
1/2-x,1/2-y,-z
1/2+x,1/2+y,-z
1/2-x,1/2+y,z
1/2+x,1/2-y,z
loop_
_atom_site_type_symbol
_atom_site_label
_atom_site_fract_x
_atom_site_fract_y
_atom_site_fract_z
Si Si1 0.667013 0.941770 0.286166
Si Si2 0.323834 0.442710 0.596135
Si Si3 0.678688 0.195264 0.878199
Si Si4 0.174096 0.198942 0.669902
Si Si5 0.174552 0.133177 0.780478
Si Si6 0.323052 0.154005 0.439420
Si Si7 0.322779 0.195975 0.000000
O O1 0.500000 0.921960 0.297213
O O2 0.771126 0.935151 0.340159
O O3 0.739715 0.917050 0.232746
O O4 0.656201 0.000000 0.278080
O O5 0.500000 0.433652 0.591305
O O6 0.294873 0.500000 0.581121
O O7 0.232288 0.402677 0.562174
O O8 0.500000 0.198646 0.872161
O O9 0.750000 0.250000 0.875115
O O10 0.749460 0.162858 0.829922
O O11 0.714967 0.173537 0.939864
O O12 0.250000 0.250000 0.685778
O O13 0.192337 0.162842 0.722299
O O14 0.247601 0.179635 0.613248
O O15 0.000000 0.205706 0.659903
O O16 0.000000 0.126473 0.790673
O O17 0.282078 0.175544 0.500000
O O18 0.500000 0.156098 0.433538
O O19 0.250000 0.250000 0.000000
O O20 0.500000 0.202369 0.000000
#
# Coordination Sequence:
#
# PCOD9494632 Si02
#       7
#    16  16  16  16  16  16   8
#     4  10  20  34  55  81 108 139 173 213 262 314
#     4  10  20  35  56  81 108 137 169 209 260 318
#     4  10  19  32  51  77 111 149 187 226 265 310
#     4  11  24  40  58  78 103 137 174 218 266 315
#     4  11  22  35  54  82 111 141 178 218 263 314
#     4  11  24  40  58  79 103 134 175 220 265 318
#     4   8  16  30  48  72 105 146 187 224 264 307
#
# _framework density 8.9163239999999995
#
# number of rings (size 3 to 8) (size 9 to 14) (size 15 to 20)
#    0.000    1.692    1.538    3.231    0.000    7.385 
#    0.000    1.538    0.000    0.000    0.000    0.538 
#    0.000    4.308    0.000    0.000    0.000    0.000 
#
# Total GULP energy -290122.696712 kJ/mol
# GULP energy per Si atom -5579.282629 kJ/mol
# Density = 0.889603 g / cm^3
# Si number density = 8.916324 Si / 1000 Ang^3
#
#
#
# Elastic Constant Matrix: (Units=GPa)
#
#
# Indices 1 2 3 4 5 6 
#
# 1 57.0681 8.8071 41.5571 0.0000 0.0000 0.0000
# 2 8.8071 22.3773 6.9699 0.0000 0.0000 0.0000
# 3 41.5571 6.9699 79.6608 0.0000 0.0000 0.0000
# 4 0.0000 0.0000 0.0000 19.6443 0.0000 0.0000
# 5 0.0000 0.0000 0.0000 0.0000 10.5120 0.0000
# 6 0.0000 0.0000 0.0000 0.0000 0.0000 24.8691
#
#
#
# Elastic Compliance Matrix: (Units=1/GPa)
#
#
# Indices 1 2 3 4 5 6 
#
# 1 0.029274 -0.006954 -0.014663 0.000000 0.000000 0.000000
# 2 -0.006954 0.047592 -0.000536 0.000000 0.000000 0.000000
# 3 -0.014663 -0.000536 0.020249 0.000000 0.000000 0.000000
# 4 0.000000 0.000000 0.000000 0.050905 0.000000 0.000000
# 5 0.000000 0.000000 0.000000 0.000000 0.095129 0.000000
# 6 0.000000 0.000000 0.000000 0.000000 0.000000 0.040211
#
#
# Mechanical properties :
#
#
# Convention : Reuss Voigt Hill
#
# Bulk Modulus (GPa) = 18.93634 30.41940 24.67787
# Shear Modulus (GPa) = 14.48142 17.78988 16.13565
#
# Velocity S-wave (km/s) = 2.85278 3.16191 3.01132
# Velocity P-wave (km/s) = 4.63607 5.51593 5.09503
#
# Compressibility (1/GPa) = 0.05280850
#
# Stress axis : x y z
#
# Youngs Moduli (GPa) = 34.16033 21.01186 49.38412
#
# Poissons Ratio (x) = 0.14612 0.72412
# Poissons Ratio (y) = 0.23756 0.02648
# Poissons Ratio (z) = 0.50089 0.01127
#
# Static dielectric constant tensor:
#      x y z
#    x 1.606570 0.000000 0.000000 
#    y 0.000000 1.637490 0.000000 
#    z 0.000000 0.000000 1.629830 
# 
# From -- ./inp_files/68217.got.cif
#   From: 2010.05.17/outbox.ucp.g08.bks.cvg/sg65_35_cif.got.tgz:68217.got - 2010.06.11 16:39:57.
