data_PCOD9494868
_publ_section_title
;
Structure prediction by ZEFSAII (Michael W. Deem and Ramdas Pophale) SiO2 
 PCOD9494868
Probable space group: C M M M
;
_chemical_formula_sum "Si O2"
_cell_formula_units_Z 40
_cell_length_a 9.000000
_cell_length_b 18.000000
_cell_length_c 27.000000
_cell_angle_alpha 90.000000
_cell_angle_beta 90.000000
_cell_angle_gamma 90.000000
_cell_volume 4374.000000
_symmetry_space_group_name_H-M "C M M M"
_symmetry_group_IT_number 65
_symmetry_cell_setting 'orthorhombic'
loop_
_space_group_symop_operation_xyz
x,y,z
-x,-y,z
x,-y,-z
-x,y,-z
-x,-y,-z
x,y,-z
-x,y,z
x,-y,z
1/2+x,1/2+y,z
1/2-x,1/2-y,z
1/2+x,1/2-y,-z
1/2-x,1/2+y,-z
1/2-x,1/2-y,-z
1/2+x,1/2+y,-z
1/2-x,1/2+y,z
1/2+x,1/2-y,z
loop_
_atom_site_type_symbol
_atom_site_label
_atom_site_fract_x
_atom_site_fract_y
_atom_site_fract_z
Si Si1 0.174360 0.500000 0.559196
Si Si2 0.821767 0.327839 0.714928
Si Si3 0.327362 0.411313 0.000000
Si Si4 0.680630 0.083239 0.190644
Si Si5 0.679135 0.830558 0.091964
Si Si6 0.180041 0.666896 0.598880
O O1 0.187811 0.500000 0.500000
O O2 0.226744 0.584740 0.576168
O O3 0.000000 0.500000 0.574031
O O4 0.750000 0.250000 0.729414
O O5 0.772764 0.387904 0.755352
O O6 0.785288 0.341861 0.657455
O O7 0.000000 0.322172 0.717414
O O8 0.243887 0.381203 0.951627
O O9 0.324815 0.500000 0.000000
O O10 0.500000 0.386379 0.000000
O O11 0.500000 0.081696 0.190911
O O12 0.723055 0.136400 0.145532
O O13 0.734207 0.000000 0.181485
O O14 0.500000 0.827645 0.089026
O O15 0.750000 0.750000 0.086069
O O16 0.250000 0.750000 0.584305
O O17 0.000000 0.673311 0.591683
#
# Coordination Sequence:
#
# PCOD9494868 Si02
#       6
#     8  16   8  16  16  16
#     4   9  18  32  51  77 107 141 185 230 271 320
#     4   9  17  30  50  74 101 132 169 211 258 313
#     4  11  24  41  60  81 105 133 168 213 260 307
#     4   9  18  31  50  77 104 131 167 212 257 305
#     4  11  22  37  57  79 105 137 172 211 255 307
#     4   9  18  32  52  77 105 141 181 226 275 325
#
# _framework density 9.1449470000000002
#
# number of rings (size 3 to 8) (size 9 to 14) (size 15 to 20)
#    0.000    2.400    0.000    2.400    1.400    2.000 
#    0.000    1.500    0.000    3.600    0.000    0.000 
#    0.000    0.000    0.000    0.000    0.000    0.000 
#
# Total GULP energy -222712.187123 kJ/mol
# GULP energy per Si atom -5567.804678 kJ/mol
# Density = 0.912413 g / cm^3
# Si number density = 9.144947 Si / 1000 Ang^3
#
#
#
# Elastic Constant Matrix: (Units=GPa)
#
#
# Indices 1 2 3 4 5 6 
#
# 1 36.3324 28.7902 16.6540 0.0000 0.0000 0.0000
# 2 28.7902 139.4892 47.5133 0.0000 0.0000 0.0000
# 3 16.6540 47.5133 59.7505 0.0000 0.0000 0.0000
# 4 0.0000 0.0000 0.0000 40.9570 0.0000 0.0000
# 5 0.0000 0.0000 0.0000 0.0000 9.0742 0.0000
# 6 0.0000 0.0000 0.0000 0.0000 0.0000 26.9251
#
#
#
# Elastic Compliance Matrix: (Units=1/GPa)
#
#
# Indices 1 2 3 4 5 6 
#
# 1 0.034113 -0.005215 -0.005362 0.000000 0.000000 0.000000
# 2 -0.005215 0.010629 -0.006999 0.000000 0.000000 0.000000
# 3 -0.005362 -0.006999 0.023796 0.000000 0.000000 0.000000
# 4 0.000000 0.000000 0.000000 0.024416 0.000000 0.000000
# 5 0.000000 0.000000 0.000000 0.000000 0.110203 0.000000
# 6 0.000000 0.000000 0.000000 0.000000 0.000000 0.037140
#
#
# Mechanical properties :
#
#
# Convention : Reuss Voigt Hill
#
# Bulk Modulus (GPa) = 29.95037 46.83187 38.39112
# Shear Modulus (GPa) = 17.44728 24.89890 21.17309
#
# Velocity S-wave (km/s) = 3.09193 3.69365 3.40610
# Velocity P-wave (km/s) = 5.39978 6.62206 6.04190
#
# Compressibility (1/GPa) = 0.03338857
#
# Stress axis : x y z
#
# Youngs Moduli (GPa) = 29.31393 94.07972 42.02353
#
# Poissons Ratio (x) = 0.49059 0.22532
# Poissons Ratio (y) = 0.15286 0.29412
# Poissons Ratio (z) = 0.15717 0.65845
#
# Static dielectric constant tensor:
#      x y z
#    x 1.622600 0.000000 0.000000 
#    y 0.000000 1.646170 0.000000 
#    z 0.000000 0.000000 1.624270 
# 
# From -- ./inp_files/72903.got.cif
#   From: 2010.05.17/outbox.ucp.g08.bks.cvg/sg65_37_cif.got.tgz:72903.got - 2010.06.11 16:39:57.
