data_PCOD9494208
_publ_section_title
;
Structure prediction by ZEFSAII (Michael W. Deem and Ramdas Pophale) SiO2 
 PCOD9494208
Probable space group: C M M M
;
_chemical_formula_sum "Si O2"
_cell_formula_units_Z 88
_cell_length_a 18.324426
_cell_length_b 26.839755
_cell_length_c 7.371715
_cell_angle_alpha 90.000000
_cell_angle_beta 90.000000
_cell_angle_gamma 90.000000
_cell_volume 3625.579756
_symmetry_space_group_name_H-M "C M M M"
_symmetry_group_IT_number 65
_symmetry_cell_setting 'orthorhombic'
loop_
_space_group_symop_operation_xyz
x,y,z
-x,-y,z
x,-y,-z
-x,y,-z
-x,-y,-z
x,y,-z
-x,y,z
x,-y,z
1/2+x,1/2+y,z
1/2-x,1/2-y,z
1/2+x,1/2-y,-z
1/2-x,1/2+y,-z
1/2-x,1/2-y,-z
1/2+x,1/2+y,-z
1/2-x,1/2+y,z
1/2+x,1/2-y,z
loop_
_atom_site_type_symbol
_atom_site_label
_atom_site_fract_x
_atom_site_fract_y
_atom_site_fract_z
Si Si1 0.274671 0.307747 0.793994
Si Si2 0.871240 0.445282 0.212059
Si Si3 0.084965 0.938765 0.000000
Si Si4 0.878794 0.660666 0.777121
Si Si5 0.921625 0.771359 0.778090
Si Si6 0.699926 0.440774 0.702159
O O1 0.250000 0.250000 0.805565
O O2 0.205097 0.334415 0.712889
O O3 0.353886 0.303373 0.709892
O O4 0.281182 0.326864 0.000000
O O5 0.888217 0.500000 0.291012
O O6 0.905395 0.393683 0.282910
O O7 0.782984 0.438326 0.224163
O O8 0.890439 0.447571 0.000000
O O9 0.134957 0.921951 0.830125
O O10 0.000000 0.922335 0.000000
O O11 0.083420 0.000000 0.000000
O O12 0.915177 0.712927 0.724924
O O13 0.879575 0.660600 0.000000
O O14 0.000000 0.790852 0.725062
O O15 0.916625 0.771513 0.000000
O O16 0.697271 0.419686 0.500000
O O17 0.686824 0.500000 0.690708
#
# Coordination Sequence:
#
# PCOD9494208 Si02
#       6
#    16  16   8  16  16  16
#     4   7  10  17  28  44  66  92 125 165 207 261
#     4   9  15  24  38  54  75 107 146 183 216 252
#     4   9  16  26  40  58  80 104 134 177 229 283
#     4   8  13  20  32  50  71 102 139 173 213 264
#     4   8  12  18  30  49  74 100 126 165 220 274
#     4   9  16  26  40  58  80 107 143 187 230 266
#
# _framework density 24.271982000000001
#
# number of rings (size 3 to 8) (size 9 to 14) (size 15 to 20)
#    0.000    3.727    0.909    2.182    0.000    0.364 
#    0.000    1.818    0.000    1.636    0.000    3.818 
#    0.000    7.273    0.000    4.909    0.000    4.727 
#
# Total GULP energy -245249.051481 kJ/mol
# GULP energy per Si atom -5573.842079 kJ/mol
# Density = 2.421674 g / cm^3
# Si number density = 24.271982 Si / 1000 Ang^3
#
#
#
# Elastic Constant Matrix: (Units=GPa)
#
#
# Indices 1 2 3 4 5 6 
#
# 1 81.1332 -10.0212 -4.9664 0.0000 0.0000 0.0000
# 2 -10.0212 85.7076 -0.9318 0.0000 0.0000 0.0000
# 3 -4.9664 -0.9318 91.1115 0.0000 0.0000 0.0000
# 4 0.0000 0.0000 0.0000 -12.7103 0.0000 0.0000
# 5 0.0000 0.0000 0.0000 0.0000 -8.0884 0.0000
# 6 0.0000 0.0000 0.0000 0.0000 0.0000 -1.3840
#
#
#
# Elastic Compliance Matrix: (Units=1/GPa)
#
#
# Indices 1 2 3 4 5 6 
#
# 1 0.012550 0.001475 0.000699 0.000000 0.000000 0.000000
# 2 0.001475 0.011842 0.000202 0.000000 0.000000 0.000000
# 3 0.000699 0.000202 0.011016 0.000000 0.000000 0.000000
# 4 0.000000 0.000000 0.000000 -0.078677 0.000000 0.000000
# 5 0.000000 0.000000 0.000000 0.000000 -0.123633 0.000000
# 6 0.000000 0.000000 0.000000 0.000000 0.000000 -0.722519
#
#
# Mechanical properties :
#
#
# Convention : Reuss Voigt Hill
#
# Bulk Modulus (GPa) = 24.90048 25.12372 25.01210
# Shear Modulus (GPa) = -5.67675 13.82156 4.07240
#
# Velocity S-wave (km/s) = -1.53098 2.38889 1.29671
# Velocity P-wave (km/s) = 2.67508 4.24057 3.54531
#
# Compressibility (1/GPa) = 0.04015986
#
# Stress axis : x y z
#
# Youngs Moduli (GPa) = 79.67871 84.44350 90.77923
#
# Poissons Ratio (x) = -0.12456 -0.06347
# Poissons Ratio (y) = -0.11753 -0.01829
# Poissons Ratio (z) = -0.05571 -0.01702
#
# Static dielectric constant tensor:
#      x y z
#    x 1.904110 0.000000 0.000000 
#    y 0.000000 1.977450 0.000000 
#    z 0.000000 0.000000 1.998720 
# 
# From -- ./inp_files/12598.got.cif
#   From: 2010.05.17/outbox.cif.g08.bks.cpg/sg65_7_cif.got.tgz:12598.got - 2010.06.03 17:01:31.
