data_PCOD9494374
_publ_section_title
;
Structure prediction by ZEFSAII (Michael W. Deem and Ramdas Pophale) SiO2 
 PCOD9494374
Probable space group: C M M M
;
_chemical_formula_sum "Si O2"
_cell_formula_units_Z 96
_cell_length_a 17.123058
_cell_length_b 14.372421
_cell_length_c 15.803911
_cell_angle_alpha 90.000000
_cell_angle_beta 90.000000
_cell_angle_gamma 90.000000
_cell_volume 3889.339311
_symmetry_space_group_name_H-M "C M M M"
_symmetry_group_IT_number 65
_symmetry_cell_setting 'orthorhombic'
loop_
_space_group_symop_operation_xyz
x,y,z
-x,-y,z
x,-y,-z
-x,y,-z
-x,-y,-z
x,y,-z
-x,y,z
x,-y,z
1/2+x,1/2+y,z
1/2-x,1/2-y,z
1/2+x,1/2-y,-z
1/2-x,1/2+y,-z
1/2-x,1/2-y,-z
1/2+x,1/2+y,-z
1/2-x,1/2+y,z
1/2+x,1/2-y,z
loop_
_atom_site_type_symbol
_atom_site_label
_atom_site_fract_x
_atom_site_fract_y
_atom_site_fract_z
Si Si1 0.249029 0.104850 0.365347
Si Si2 0.915812 0.850452 0.145431
Si Si3 0.250433 0.363413 0.831321
Si Si4 0.584050 0.865696 0.901141
Si Si5 0.915501 0.113112 0.344859
Si Si6 0.417015 0.108224 0.601308
O O1 0.242666 0.102932 0.264347
O O2 0.164018 0.141618 0.392150
O O3 0.333017 0.151555 0.378789
O O4 0.255483 0.000000 0.400362
O O5 0.831020 0.891404 0.122182
O O6 0.916110 0.745896 0.110573
O O7 0.915403 0.848699 0.248509
O O8 0.000000 0.892898 0.121136
O O9 0.250000 0.250000 0.831498
O O10 0.166735 0.396173 0.864072
O O11 0.500000 0.897282 0.864618
O O12 0.584198 0.887855 0.000000
O O13 0.000000 0.135708 0.383830
O O14 0.911793 0.000000 0.337780
O O15 0.420725 0.106529 0.500000
O O16 0.500000 0.148307 0.633334
O O17 0.415067 0.000000 0.630985
#
# Coordination Sequence:
#
# PCOD9494374 Si02
#       6
#    16  16  16  16  16  16
#     4   9  16  26  42  63  84 106 134 167 201 237
#     4   8  14  24  37  54  75  99 129 163 197 234
#     4   9  17  27  41  61  83 105 132 166 202 238
#     4   9  17  28  41  56  75 102 135 168 201 238
#     4   8  13  22  37  56  78 103 129 160 201 245
#     4   8  14  25  41  61  84 109 137 168 201 237
#
# _framework density 24.682856000000001
#
# number of rings (size 3 to 8) (size 9 to 14) (size 15 to 20)
#    0.000    3.500    0.000    0.500    0.000    3.667 
#    0.000    0.000    0.000    2.000    0.000   15.167 
#    0.000    0.000    0.000    0.000    0.000    0.000 
#
# Total GULP energy -267373.439061 kJ/mol
# GULP energy per Si atom -5570.279980 kJ/mol
# Density = 2.462668 g / cm^3
# Si number density = 24.682856 Si / 1000 Ang^3
#
#
#
# Elastic Constant Matrix: (Units=GPa)
#
#
# Indices 1 2 3 4 5 6 
#
# 1 356.1213 8.7166 31.5613 0.0000 0.0000 0.0000
# 2 8.7166 119.6443 2.6766 0.0000 0.0000 0.0000
# 3 31.5613 2.6766 32.2986 0.0000 0.0000 0.0000
# 4 0.0000 0.0000 0.0000 37.3523 0.0000 0.0000
# 5 0.0000 0.0000 0.0000 0.0000 120.5865 0.0000
# 6 0.0000 0.0000 0.0000 0.0000 0.0000 -18.6400
#
#
#
# Elastic Compliance Matrix: (Units=1/GPa)
#
#
# Indices 1 2 3 4 5 6 
#
# 1 0.003077 -0.000157 -0.002994 0.000000 0.000000 0.000000
# 2 -0.000157 0.008382 -0.000541 0.000000 0.000000 0.000000
# 3 -0.002994 -0.000541 0.033931 0.000000 0.000000 0.000000
# 4 0.000000 0.000000 0.000000 0.026772 0.000000 0.000000
# 5 0.000000 0.000000 0.000000 0.000000 0.008293 0.000000
# 6 0.000000 0.000000 0.000000 0.000000 0.000000 -0.053648
#
#
# Mechanical properties :
#
#
# Convention : Reuss Voigt Hill
#
# Bulk Modulus (GPa) = 26.31155 65.99702 46.15428
# Shear Modulus (GPa) = 106.70038 58.86707 82.78373
#
# Velocity S-wave (km/s) = 6.58197 4.88888 5.79757
# Velocity P-wave (km/s) = 8.27322 7.65926 7.97215
#
# Compressibility (1/GPa) = 0.03800613
#
# Stress axis : x y z
#
# Youngs Moduli (GPa) = 324.96881 119.30802 29.47114
#
# Poissons Ratio (x) = 0.01876 0.08823
# Poissons Ratio (y) = 0.05109 0.01594
# Poissons Ratio (z) = 0.97294 0.06454
#
# Static dielectric constant tensor:
#      x y z
#    x 2.121190 0.000000 0.000000 
#    y 0.000000 1.916120 0.000000 
#    z 0.000000 0.000000 1.872800 
# 
# From -- ./inp_files/54454.got.cif
#   From: 2010.05.17/outbox.cif.g08.bks.cpg/sg65_28_cif.got.tgz:54454.got - 2010.06.03 17:01:31.
