data_PCOD9494659
_publ_section_title
;
Structure prediction by ZEFSAII (Michael W. Deem and Ramdas Pophale) SiO2 
 PCOD9494659
Probable space group: C M M M
;
_chemical_formula_sum "Si O2"
_cell_formula_units_Z 44
_cell_length_a 30.000000
_cell_length_b 9.000000
_cell_length_c 18.000000
_cell_angle_alpha 90.000000
_cell_angle_beta 90.000000
_cell_angle_gamma 90.000000
_cell_volume 4860.000000
_symmetry_space_group_name_H-M "C M M M"
_symmetry_group_IT_number 65
_symmetry_cell_setting 'orthorhombic'
loop_
_space_group_symop_operation_xyz
x,y,z
-x,-y,z
x,-y,-z
-x,y,-z
-x,-y,-z
x,y,-z
-x,y,z
x,-y,z
1/2+x,1/2+y,z
1/2-x,1/2-y,z
1/2+x,1/2-y,-z
1/2-x,1/2+y,-z
1/2-x,1/2-y,-z
1/2+x,1/2+y,-z
1/2-x,1/2+y,z
1/2+x,1/2-y,z
loop_
_atom_site_type_symbol
_atom_site_label
_atom_site_fract_x
_atom_site_fract_y
_atom_site_fract_z
Si Si1 0.052499 0.500000 0.588756
Si Si2 0.448083 0.672294 0.799543
Si Si3 0.203273 0.176650 0.328526
Si Si4 0.384342 0.176034 0.086196
Si Si5 0.296394 0.322186 0.152875
Si Si6 0.899788 0.817799 0.359352
O O1 0.051585 0.500000 0.500000
O O2 0.076279 0.662720 0.609441
O O3 0.000000 0.500000 0.615356
O O4 0.500000 0.711401 0.785562
O O5 0.446847 0.500000 0.823774
O O6 0.424526 0.770916 0.861576
O O7 0.418878 0.680798 0.724466
O O8 0.250000 0.250000 0.355887
O O9 0.199169 0.214994 0.240811
O O10 0.153976 0.208404 0.362706
O O11 0.209376 0.000000 0.334427
O O12 0.339306 0.258667 0.111399
O O13 0.377608 0.000000 0.094935
O O14 0.393646 0.208028 0.000000
O O15 0.294569 0.500000 0.145847
O O16 0.250000 0.250000 0.126566
O O17 0.906967 0.000000 0.384083
#
# Coordination Sequence:
#
# PCOD9494659 Si02
#       6
#     8  16  16  16  16  16
#     4  11  26  44  66 100 133 169 211 245 301 373
#     4  10  21  38  60  84 111 148 198 250 303 360
#     4   9  18  31  55  91 122 153 198 251 306 362
#     4  11  24  38  52  75 110 152 198 249 307 363
#     4  10  19  34  54  78 110 145 189 242 296 357
#     4  10  21  40  65  96 129 164 206 256 306 363
#
# _framework density 9.0534979999999994
#
# number of rings (size 3 to 8) (size 9 to 14) (size 15 to 20)
#    0.000    1.909    1.818    1.636    2.545    4.727 
#    0.000    2.727    0.000    0.545    0.000    0.000 
#    0.000    0.000    0.000    0.000    0.000    0.000 
#
# Total GULP energy -244961.623321 kJ/mol
# GULP energy per Si atom -5567.309621 kJ/mol
# Density = 0.903289 g / cm^3
# Si number density = 9.053498 Si / 1000 Ang^3
#
#
#
# Elastic Constant Matrix: (Units=GPa)
#
#
# Indices 1 2 3 4 5 6 
#
# 1 139.3795 42.8180 15.6484 0.0000 0.0000 0.0000
# 2 42.8180 91.6290 31.1543 0.0000 0.0000 0.0000
# 3 15.6484 31.1543 32.8189 0.0000 0.0000 0.0000
# 4 0.0000 0.0000 0.0000 25.7142 0.0000 0.0000
# 5 0.0000 0.0000 0.0000 0.0000 20.2858 0.0000
# 6 0.0000 0.0000 0.0000 0.0000 0.0000 46.1356
#
#
#
# Elastic Compliance Matrix: (Units=1/GPa)
#
#
# Indices 1 2 3 4 5 6 
#
# 1 0.008381 -0.003777 -0.000411 0.000000 0.000000 0.000000
# 2 -0.003777 0.017817 -0.015112 0.000000 0.000000 0.000000
# 3 -0.000411 -0.015112 0.045012 0.000000 0.000000 0.000000
# 4 0.000000 0.000000 0.000000 0.038889 0.000000 0.000000
# 5 0.000000 0.000000 0.000000 0.000000 0.049296 0.000000
# 6 0.000000 0.000000 0.000000 0.000000 0.000000 0.021675
#
#
# Mechanical properties :
#
#
# Convention : Reuss Voigt Hill
#
# Bulk Modulus (GPa) = 30.66570 49.22986 39.94778
# Shear Modulus (GPa) = 21.68830 30.04090 25.86460
#
# Velocity S-wave (km/s) = 3.46466 4.07760 3.78356
# Velocity P-wave (km/s) = 5.74262 7.02968 6.41849
#
# Compressibility (1/GPa) = 0.03260973
#
# Stress axis : x y z
#
# Youngs Moduli (GPa) = 119.31731 56.12733 22.21636
#
# Poissons Ratio (x) = 0.21197 0.00913
# Poissons Ratio (y) = 0.45062 0.33574
# Poissons Ratio (z) = 0.04904 0.84821
#
# Static dielectric constant tensor:
#      x y z
#    x 1.627820 0.000000 0.000000 
#    y 0.000000 1.646700 0.000000 
#    z 0.000000 0.000000 1.619090 
# 
# From -- ./inp_files/57958.got.cif
#   From: 2010.05.17/outbox.ucp.g08.bks.cvg/sg65_29_cif.got.tgz:57958.got - 2010.06.11 16:39:57.
