data_PCOD9494392
_publ_section_title
;
Structure prediction by ZEFSAII (Michael W. Deem and Ramdas Pophale) SiO2 
 PCOD9494392
Probable space group: C M M M
;
_chemical_formula_sum "Si O2"
_cell_formula_units_Z 80
_cell_length_a 39.323206
_cell_length_b 14.285978
_cell_length_c 7.504590
_cell_angle_alpha 90.000000
_cell_angle_beta 90.000000
_cell_angle_gamma 90.000000
_cell_volume 4215.856945
_symmetry_space_group_name_H-M "C M M M"
_symmetry_group_IT_number 65
_symmetry_cell_setting 'orthorhombic'
loop_
_space_group_symop_operation_xyz
x,y,z
-x,-y,z
x,-y,-z
-x,y,-z
-x,-y,-z
x,y,-z
-x,y,z
x,-y,z
1/2+x,1/2+y,z
1/2-x,1/2-y,z
1/2+x,1/2-y,-z
1/2-x,1/2+y,-z
1/2-x,1/2-y,-z
1/2+x,1/2+y,-z
1/2-x,1/2+y,z
1/2+x,1/2-y,z
loop_
_atom_site_type_symbol
_atom_site_label
_atom_site_fract_x
_atom_site_fract_y
_atom_site_fract_z
Si Si1 0.039041 0.606559 0.217557
Si Si2 0.664690 0.106342 0.783681
Si Si3 0.349508 0.393780 0.286798
Si Si4 0.600858 0.772257 0.213538
Si Si5 0.713153 0.269877 0.295182
O O1 0.049354 0.500000 0.269096
O O2 0.064862 0.687431 0.278955
O O3 0.000000 0.621120 0.273465
O O4 0.039213 0.607088 0.000000
O O5 0.629248 0.152900 0.728545
O O6 0.694050 0.171102 0.708517
O O7 0.667246 0.000000 0.727755
O O8 0.666300 0.110193 0.000000
O O9 0.345705 0.397625 0.500000
O O10 0.352808 0.500000 0.220109
O O11 0.382523 0.328296 0.256328
O O12 0.315232 0.341420 0.217666
O O13 0.599090 0.774698 0.000000
O O14 0.719191 0.300539 0.500000
O O15 0.750000 0.250000 0.211815
#
# Coordination Sequence:
#
# PCOD9494392 Si02
#       5
#    16  16  16  16  16
#     4   8  13  22  40  68  97 120 141 168 208 257
#     4   9  17  28  42  62  88 115 139 165 204 253
#     4   9  18  32  47  62  83 113 147 181 218 258
#     4   9  16  27  45  67  89 112 142 179 211 245
#     4   9  18  31  46  64  84 107 139 179 219 257
#
# _framework density 18.975975999999999
#
# number of rings (size 3 to 8) (size 9 to 14) (size 15 to 20)
#    0.000    3.200    0.000    1.200    0.000    4.400 
#    0.000    2.000    0.000    3.000    0.000    5.600 
#    0.000    0.000    0.000    0.000    0.000    0.000 
#
# Total GULP energy -222761.409528 kJ/mol
# GULP energy per Si atom -5569.035238 kJ/mol
# Density = 1.893279 g / cm^3
# Si number density = 18.975976 Si / 1000 Ang^3
#
#
#
# Elastic Constant Matrix: (Units=GPa)
#
#
# Indices 1 2 3 4 5 6 
#
# 1 140.9862 89.7205 7.3266 0.0000 0.0000 0.0000
# 2 89.7205 165.4125 2.6605 0.0000 0.0000 0.0000
# 3 7.3266 2.6605 47.7536 0.0000 0.0000 0.0000
# 4 0.0000 0.0000 0.0000 16.9676 0.0000 0.0000
# 5 0.0000 0.0000 0.0000 0.0000 -13.8489 0.0000
# 6 0.0000 0.0000 0.0000 0.0000 0.0000 8.8531
#
#
#
# Elastic Compliance Matrix: (Units=1/GPa)
#
#
# Indices 1 2 3 4 5 6 
#
# 1 0.010918 -0.005900 -0.001346 0.000000 0.000000 0.000000
# 2 -0.005900 0.009239 0.000390 0.000000 0.000000 0.000000
# 3 -0.001346 0.000390 0.021126 0.000000 0.000000 0.000000
# 4 0.000000 0.000000 0.000000 0.058936 0.000000 0.000000
# 5 0.000000 0.000000 0.000000 0.000000 -0.072208 0.000000
# 6 0.000000 0.000000 0.000000 0.000000 0.000000 0.112955
#
#
# Mechanical properties :
#
#
# Convention : Reuss Voigt Hill
#
# Bulk Modulus (GPa) = 36.27030 61.50749 48.88890
# Shear Modulus (GPa) = 30.51244 19.35734 24.93489
#
# Velocity S-wave (km/s) = 4.01428 3.19736 3.62888
# Velocity P-wave (km/s) = 6.37504 6.79077 6.58619
#
# Compressibility (1/GPa) = 0.02757077
#
# Stress axis : x y z
#
# Youngs Moduli (GPa) = 91.59588 108.23179 47.33585
#
# Poissons Ratio (x) = 0.63857 0.06373
# Poissons Ratio (y) = 0.54042 -0.01848
# Poissons Ratio (z) = 0.12332 -0.04226
#
# Static dielectric constant tensor:
#      x y z
#    x 1.673470 0.000000 0.000000 
#    y 0.000000 1.646370 0.000000 
#    z 0.000000 0.000000 1.742020 
# 
# From -- ./inp_files/22853.got.cif
#   From: 2010.05.17/outbox.cif.g08.bks.cpg/sg65_12_cif.got.tgz:22853.got - 2010.06.03 17:01:31.
