data_PCOD9494690
_publ_section_title
;
Structure prediction by ZEFSAII (Michael W. Deem and Ramdas Pophale) SiO2 
 PCOD9494690
Probable space group: C M M M
;
_chemical_formula_sum "Si O2"
_cell_formula_units_Z 36
_cell_length_a 15.000000
_cell_length_b 30.000000
_cell_length_c 9.000000
_cell_angle_alpha 90.000000
_cell_angle_beta 90.000000
_cell_angle_gamma 90.000000
_cell_volume 4050.000000
_symmetry_space_group_name_H-M "C M M M"
_symmetry_group_IT_number 65
_symmetry_cell_setting 'orthorhombic'
loop_
_space_group_symop_operation_xyz
x,y,z
-x,-y,z
x,-y,-z
-x,y,-z
-x,-y,-z
x,y,-z
-x,y,z
x,-y,z
1/2+x,1/2+y,z
1/2-x,1/2-y,z
1/2+x,1/2-y,-z
1/2-x,1/2+y,-z
1/2-x,1/2-y,-z
1/2+x,1/2+y,-z
1/2-x,1/2+y,z
1/2+x,1/2-y,z
loop_
_atom_site_type_symbol
_atom_site_label
_atom_site_fract_x
_atom_site_fract_y
_atom_site_fract_z
Si Si1 0.108448 0.000000 0.828950
Si Si2 0.606922 0.589918 0.330385
Si Si3 0.722912 0.659476 0.824902
Si Si4 0.902262 0.335271 0.322941
Si Si5 0.900300 0.761561 0.177438
O O1 0.135967 0.957164 0.735948
O O2 0.000000 0.000000 0.833957
O O3 0.139190 0.000000 0.000000
O O4 0.637280 0.597012 0.500000
O O5 0.500000 0.591215 0.331038
O O6 0.645716 0.625936 0.219759
O O7 0.813681 0.644532 0.747016
O O8 0.680897 0.706841 0.777140
O O9 0.737462 0.661506 0.000000
O O10 0.897207 0.336449 0.500000
O O11 0.898875 0.284469 0.264773
O O12 0.000000 0.353300 0.277620
O O13 0.000000 0.781690 0.200719
O O14 0.892232 0.753066 0.000000
#
# Coordination Sequence:
#
# PCOD9494690 Si02
#       5
#     8  16  16  16  16
#     4   9  17  31  51  73 100 133 164 193 229 279
#     4  10  20  33  50  74 104 134 162 194 235 284
#     4  11  21  32  49  72  97 127 164 204 244 287
#     4  10  21  35  49  66  91 125 165 208 252 294
#     4   9  18  32  48  67  94 127 161 198 242 292
#
# _framework density 8.8888890000000007
#
# number of rings (size 3 to 8) (size 9 to 14) (size 15 to 20)
#    0.000    2.111    0.000    3.667    0.000    9.333 
#    0.000    2.222    0.000    0.000    0.000    0.778 
#    0.000    6.222    0.000    0.000    0.000    0.000 
#
# Total GULP energy -200612.048716 kJ/mol
# GULP energy per Si atom -5572.556909 kJ/mol
# Density = 0.886866 g / cm^3
# Si number density = 8.888889 Si / 1000 Ang^3
#
#
#
# Elastic Constant Matrix: (Units=GPa)
#
#
# Indices 1 2 3 4 5 6 
#
# 1 48.1198 0.6281 28.7856 0.0000 0.0000 0.0000
# 2 0.6281 26.7405 -19.5144 0.0000 0.0000 0.0000
# 3 28.7856 -19.5144 -11.2756 0.0000 0.0000 0.0000
# 4 0.0000 0.0000 0.0000 18.2542 0.0000 0.0000
# 5 0.0000 0.0000 0.0000 0.0000 26.7760 0.0000
# 6 0.0000 0.0000 0.0000 0.0000 0.0000 -20.6618
#
#
#
# Elastic Compliance Matrix: (Units=1/GPa)
#
#
# Indices 1 2 3 4 5 6 
#
# 1 0.012252 0.009959 0.014041 0.000000 0.000000 0.000000
# 2 0.009959 0.024621 -0.017186 0.000000 0.000000 0.000000
# 3 0.014041 -0.017186 -0.023098 0.000000 0.000000 0.000000
# 4 0.000000 0.000000 0.000000 0.054782 0.000000 0.000000
# 5 0.000000 0.000000 0.000000 0.000000 0.037347 0.000000
# 6 0.000000 0.000000 0.000000 0.000000 0.000000 -0.048399
#
#
# Mechanical properties :
#
#
# Convention : Reuss Voigt Hill
#
# Bulk Modulus (GPa) = 36.48968 9.26480 22.87724
# Shear Modulus (GPa) = 94.32139 8.45273 51.38706
#
# Velocity S-wave (km/s) = 7.29184 2.18288 5.38219
# Velocity P-wave (km/s) = 9.56371 3.40236 7.17777
#
# Compressibility (1/GPa) = 0.02740501
#
# Stress axis : x y z
#
# Youngs Moduli (GPa) = 81.62071 40.61594 -43.29457
#
# Poissons Ratio (x) = -0.40450 0.60792
# Poissons Ratio (y) = -0.81288 -0.74405
# Poissons Ratio (z) = -1.14607 0.69801
#
# Static dielectric constant tensor:
#      x y z
#    x 1.679890 0.000000 0.000000 
#    y 0.000000 1.521070 0.000000 
#    z 0.000000 0.000000 1.594080 
# 
# From -- ./inp_files/7304.got.cif
#   From: 2010.05.17/outbox.ucp.g08.bks.cvg/sg65_4_cif.got.tgz:7304.got - 2010.06.11 16:39:57.
