data_PCOD9494427
_publ_section_title
;
Structure prediction by ZEFSAII (Michael W. Deem and Ramdas Pophale) SiO2 
 PCOD9494427
Probable space group: C M M M
;
_chemical_formula_sum "Si O2"
_cell_formula_units_Z 80
_cell_length_a 7.408756
_cell_length_b 19.709530
_cell_length_c 26.550111
_cell_angle_alpha 90.000000
_cell_angle_beta 90.000000
_cell_angle_gamma 90.000000
_cell_volume 3876.929478
_symmetry_space_group_name_H-M "C M M M"
_symmetry_group_IT_number 65
_symmetry_cell_setting 'orthorhombic'
loop_
_space_group_symop_operation_xyz
x,y,z
-x,-y,z
x,-y,-z
-x,y,-z
-x,-y,-z
x,y,-z
-x,y,z
x,-y,z
1/2+x,1/2+y,z
1/2-x,1/2-y,z
1/2+x,1/2-y,-z
1/2-x,1/2+y,-z
1/2-x,1/2-y,-z
1/2+x,1/2+y,-z
1/2-x,1/2+y,z
1/2+x,1/2-y,z
loop_
_atom_site_type_symbol
_atom_site_label
_atom_site_fract_x
_atom_site_fract_y
_atom_site_fract_z
Si Si1 0.715803 0.828831 0.646998
Si Si2 0.221146 0.578326 0.852119
Si Si3 0.284269 0.827906 0.943018
Si Si4 0.279921 0.921422 0.556085
Si Si5 0.715874 0.829010 0.760157
O O1 0.500000 0.838640 0.648946
O O2 0.750000 0.750000 0.635981
O O3 0.785148 0.875776 0.602128
O O4 0.785760 0.842453 0.703569
O O5 0.276678 0.500000 0.851576
O O6 0.281768 0.618902 0.901802
O O7 0.281924 0.620295 0.803106
O O8 0.000000 0.579029 0.852145
O O9 0.500000 0.835973 0.945425
O O10 0.250000 0.750000 0.927518
O O11 0.213530 0.836880 0.000000
O O12 0.223311 0.898942 0.500000
O O13 0.500000 0.919597 0.556323
O O14 0.228194 0.000000 0.562482
O O15 0.500000 0.836965 0.758348
O O16 0.750000 0.750000 0.772552
#
# Coordination Sequence:
#
# PCOD9494427 Si02
#       5
#    16  16  16  16  16
#     4   9  17  28  43  64  86 108 137 172 209 247
#     4   9  17  28  43  65  89 110 137 175 213 245
#     4   9  17  29  46  66  86 111 142 173 206 246
#     4   8  14  25  41  61  84 109 138 172 207 243
#     4   9  17  29  45  63  84 111 140 171 207 247
#
# _framework density 20.634886000000002
#
# number of rings (size 3 to 8) (size 9 to 14) (size 15 to 20)
#    0.000    3.200    0.000    1.200    0.000    1.600 
#    0.000    6.000    0.000    3.000    0.000    9.800 
#    0.000    0.000    0.000    0.000    0.000    0.000 
#
# Total GULP energy -223182.768679 kJ/mol
# GULP energy per Si atom -5579.569217 kJ/mol
# Density = 2.058792 g / cm^3
# Si number density = 20.634886 Si / 1000 Ang^3
#
#
#
# Elastic Constant Matrix: (Units=GPa)
#
#
# Indices 1 2 3 4 5 6 
#
# 1 69.8483 0.4607 8.4930 0.0000 0.0000 0.0000
# 2 0.4607 168.5618 159.8204 0.0000 0.0000 0.0000
# 3 8.4930 159.8204 198.9252 0.0000 0.0000 0.0000
# 4 0.0000 0.0000 0.0000 2078.9787 0.0000 0.0000
# 5 0.0000 0.0000 0.0000 0.0000 28.5328 0.0000
# 6 0.0000 0.0000 0.0000 0.0000 0.0000 18.0487
#
#
#
# Elastic Compliance Matrix: (Units=1/GPa)
#
#
# Indices 1 2 3 4 5 6 
#
# 1 0.014603 0.002314 -0.002482 0.000000 0.000000 0.000000
# 2 0.002314 0.025268 -0.020399 0.000000 0.000000 0.000000
# 3 -0.002482 -0.020399 0.021522 0.000000 0.000000 0.000000
# 4 0.000000 0.000000 0.000000 0.000481 0.000000 0.000000
# 5 0.000000 0.000000 0.000000 0.000000 0.035047 0.000000
# 6 0.000000 0.000000 0.000000 0.000000 0.000000 0.055406
#
#
# Mechanical properties :
#
#
# Convention : Reuss Voigt Hill
#
# Bulk Modulus (GPa) = 49.36498 86.09814 67.73156
# Shear Modulus (GPa) = 24.97310 443.01612 233.99461
#
# Velocity S-wave (km/s) = 3.48262 14.66829 10.66038
# Velocity P-wave (km/s) = 6.33613 18.12991 13.58014
#
# Compressibility (1/GPa) = 0.02025728
#
# Stress axis : x y z
#
# Youngs Moduli (GPa) = 68.47753 39.57634 46.46370
#
# Poissons Ratio (x) = -0.09157 0.11534
# Poissons Ratio (y) = -0.15844 0.94783
# Poissons Ratio (z) = 0.16999 0.80733
#
# Static dielectric constant tensor:
#      x y z
#    x 1.795650 0.000000 0.000000 
#    y 0.000000 1.674010 0.000000 
#    z 0.000000 0.000000 1.744060 
# 
# From -- ./inp_files/68815.got.cif
#   From: 2010.05.17/outbox.cif.g08.bks.cpg/sg65_35_cif.got.tgz:68815.got - 2010.06.03 17:01:31.
