data_PCOD9494178
_publ_section_title
;
Structure prediction by ZEFSAII (Michael W. Deem and Ramdas Pophale) SiO2 
 PCOD9494178
Probable space group: C M M M
;
_chemical_formula_sum "Si O2"
_cell_formula_units_Z 80
_cell_length_a 8.658133
_cell_length_b 19.675002
_cell_length_c 26.124694
_cell_angle_alpha 90.000000
_cell_angle_beta 90.000000
_cell_angle_gamma 90.000000
_cell_volume 4450.309858
_symmetry_space_group_name_H-M "C M M M"
_symmetry_group_IT_number 65
_symmetry_cell_setting 'orthorhombic'
loop_
_space_group_symop_operation_xyz
x,y,z
-x,-y,z
x,-y,-z
-x,y,-z
-x,-y,-z
x,y,-z
-x,y,z
x,-y,z
1/2+x,1/2+y,z
1/2-x,1/2-y,z
1/2+x,1/2-y,-z
1/2-x,1/2+y,-z
1/2-x,1/2-y,-z
1/2+x,1/2+y,-z
1/2-x,1/2+y,z
1/2+x,1/2-y,z
loop_
_atom_site_type_symbol
_atom_site_label
_atom_site_fract_x
_atom_site_fract_y
_atom_site_fract_z
Si Si1 0.313476 0.079311 0.735190
Si Si2 0.816688 0.825958 0.353711
Si Si3 0.185976 0.422372 0.440072
Si Si4 0.813322 0.325826 0.942737
Si Si5 0.188169 0.422328 0.851618
O O1 0.500000 0.083301 0.731870
O O2 0.242017 0.130105 0.694473
O O3 0.266885 0.096422 0.793634
O O4 0.272126 0.000000 0.725537
O O5 0.750000 0.750000 0.352893
O O6 0.761610 0.867137 0.403739
O O7 0.000000 0.822148 0.352874
O O8 0.223174 0.412443 0.500000
O O9 0.230885 0.500000 0.425964
O O10 0.000000 0.418307 0.434908
O O11 0.750000 0.250000 0.936649
O O12 0.757853 0.373227 0.896604
O O13 0.000000 0.323808 0.940957
O O14 0.769600 0.350093 0.000000
O O15 0.236344 0.500000 0.860908
O O16 0.000000 0.421715 0.852142
#
# Coordination Sequence:
#
# PCOD9494178 Si02
#       5
#    16  16  16  16  16
#     4   9  18  35  57  77 102 136 171 211 261 316
#     4  12  25  38  54  78 109 142 177 218 261 306
#     4   9  19  38  63  87 111 141 175 210 253 307
#     4   9  17  29  46  69  98 131 166 205 249 299
#     4   8  15  29  50  75  99 126 164 208 253 300
#
# _framework density 17.976275999999999
#
# number of rings (size 3 to 8) (size 9 to 14) (size 15 to 20)
#    0.000    2.600    0.000    4.200    0.000    5.200 
#    0.000    6.000    0.000    1.800    0.000    2.800 
#    0.000    0.000    0.000    0.000    0.000    0.000 
#
# Total GULP energy -223144.815186 kJ/mol
# GULP energy per Si atom -5578.620380 kJ/mol
# Density = 1.793536 g / cm^3
# Si number density = 17.976276 Si / 1000 Ang^3
#
#
#
# Elastic Constant Matrix: (Units=GPa)
#
#
# Indices 1 2 3 4 5 6 
#
# 1 37.2685 50.6589 52.5964 0.0000 0.0000 0.0000
# 2 50.6589 146.4427 125.3908 0.0000 0.0000 0.0000
# 3 52.5964 125.3908 155.1961 0.0000 0.0000 0.0000
# 4 0.0000 0.0000 0.0000 -263.5421 0.0000 0.0000
# 5 0.0000 0.0000 0.0000 0.0000 15.5465 0.0000
# 6 0.0000 0.0000 0.0000 0.0000 0.0000 27.6539
#
#
#
# Elastic Compliance Matrix: (Units=1/GPa)
#
#
# Indices 1 2 3 4 5 6 
#
# 1 0.055658 -0.010067 -0.010729 0.000000 0.000000 0.000000
# 2 -0.010067 0.023978 -0.015961 0.000000 0.000000 0.000000
# 3 -0.010729 -0.015961 0.022975 0.000000 0.000000 0.000000
# 4 0.000000 0.000000 0.000000 -0.003794 0.000000 0.000000
# 5 0.000000 0.000000 0.000000 0.000000 0.064323 0.000000
# 6 0.000000 0.000000 0.000000 0.000000 0.000000 0.036161
#
#
# Mechanical properties :
#
#
# Convention : Reuss Voigt Hill
#
# Bulk Modulus (GPa) = 34.36808 88.46663 61.41735
# Shear Modulus (GPa) = 17.69826 -36.71759 -9.50967
#
# Velocity S-wave (km/s) = 3.14113 -4.52437 -2.30252
# Velocity P-wave (km/s) = 5.68469 4.69325 5.21259
#
# Compressibility (1/GPa) = 0.02909677
#
# Stress axis : x y z
#
# Youngs Moduli (GPa) = 17.96686 41.70539 43.52544
#
# Poissons Ratio (x) = 0.41987 0.46697
# Poissons Ratio (y) = 0.18088 0.69471
# Poissons Ratio (z) = 0.19276 0.66566
#
# Static dielectric constant tensor:
#      x y z
#    x 1.611450 0.000000 0.000000 
#    y 0.000000 1.586250 0.000000 
#    z 0.000000 0.000000 1.623930 
# 
# From -- ./inp_files/72800.got.cif
#   From: 2010.05.17/outbox.cif.g08.bks.cpg/sg65_37_cif.got.tgz:72800.got - 2010.06.03 17:01:31.
