data_PCOD9494574
_publ_section_title
;
Structure prediction by ZEFSAII (Michael W. Deem and Ramdas Pophale) SiO2 
 PCOD9494574
Probable space group: C M M M
;
_chemical_formula_sum "Si O2"
_cell_formula_units_Z 48
_cell_length_a 24.000000
_cell_length_b 27.000000
_cell_length_c 9.000000
_cell_angle_alpha 90.000000
_cell_angle_beta 90.000000
_cell_angle_gamma 90.000000
_cell_volume 5832.000000
_symmetry_space_group_name_H-M "C M M M"
_symmetry_group_IT_number 65
_symmetry_cell_setting 'orthorhombic'
loop_
_space_group_symop_operation_xyz
x,y,z
-x,-y,z
x,-y,-z
-x,y,-z
-x,-y,-z
x,y,-z
-x,y,z
x,-y,z
1/2+x,1/2+y,z
1/2-x,1/2-y,z
1/2+x,1/2-y,-z
1/2-x,1/2+y,-z
1/2-x,1/2-y,-z
1/2+x,1/2+y,-z
1/2-x,1/2+y,z
1/2+x,1/2-y,z
loop_
_atom_site_type_symbol
_atom_site_label
_atom_site_fract_x
_atom_site_fract_y
_atom_site_fract_z
Si Si1 0.682422 0.798974 0.677022
Si Si2 0.378121 0.892782 0.821451
Si Si3 0.118661 0.791021 0.822579
Si Si4 0.295624 0.646211 0.323366
Si Si5 0.280879 0.055910 0.324806
Si Si6 0.000000 0.251474 0.181086
Si Si7 0.500000 0.866906 0.179843
O O1 0.675265 0.792906 0.500000
O O2 0.647345 0.845081 0.739362
O O3 0.658141 0.752563 0.762813
O O4 0.746840 0.813067 0.703383
O O5 0.337699 0.935947 0.765638
O O6 0.443015 0.894312 0.778248
O O7 0.374318 0.887287 0.000000
O O8 0.147792 0.839892 0.758678
O O9 0.056182 0.776822 0.772719
O O10 0.119082 0.792086 0.000000
O O11 0.305526 0.645131 0.500000
O O12 0.265937 0.595146 0.277098
O O13 0.292333 0.066214 0.500000
O O14 0.261270 0.000000 0.310470
O O15 0.000000 0.309200 0.230747
O O16 0.000000 0.252893 0.000000
O O17 0.500000 0.864506 0.000000
#
# Coordination Sequence:
#
# PCOD9494574 Si02
#       7
#    16  16  16  16  16   8   8
#     4  10  19  31  46  67  99 133 161 195 239 286
#     4  10  18  30  50  72  95 127 167 208 241 278
#     4  11  20  31  48  69  96 130 166 198 232 279
#     4   9  19  33  48  69  97 124 153 195 243 290
#     4   9  19  37  56  72  95 126 155 193 252 306
#     4   9  18  32  46  65  98 137 167 195 232 276
#     4   9  16  30  47  65  96 134 168 200 239 279
#
# _framework density 8.2304530000000007
#
# number of rings (size 3 to 8) (size 9 to 14) (size 15 to 20)
#    0.000    2.333    1.667    3.000    0.000    5.667 
#    0.000    4.583    0.000    2.500    0.000    0.583 
#    0.000    4.667    0.000    0.000    0.000    0.000 
#
# Total GULP energy -267461.152120 kJ/mol
# GULP energy per Si atom -5572.107336 kJ/mol
# Density = 0.821172 g / cm^3
# Si number density = 8.230453 Si / 1000 Ang^3
#
#
#
# Elastic Constant Matrix: (Units=GPa)
#
#
# Indices 1 2 3 4 5 6 
#
# 1 62.6720 52.1000 33.0621 0.0000 0.0000 0.0000
# 2 52.1000 68.3989 16.5843 0.0000 0.0000 0.0000
# 3 33.0621 16.5843 25.5717 0.0000 0.0000 0.0000
# 4 0.0000 0.0000 0.0000 15.1199 0.0000 0.0000
# 5 0.0000 0.0000 0.0000 0.0000 58.2238 0.0000
# 6 0.0000 0.0000 0.0000 0.0000 0.0000 6.6664
#
#
#
# Elastic Compliance Matrix: (Units=1/GPa)
#
#
# Indices 1 2 3 4 5 6 
#
# 1 0.276247 -0.146923 -0.261878 0.000000 0.000000 0.000000
# 2 -0.146923 0.095490 0.128030 0.000000 0.000000 0.000000
# 3 -0.261878 0.128030 0.294660 0.000000 0.000000 0.000000
# 4 0.000000 0.000000 0.000000 0.066138 0.000000 0.000000
# 5 0.000000 0.000000 0.000000 0.000000 0.017175 0.000000
# 6 0.000000 0.000000 0.000000 0.000000 0.000000 0.150007
#
#
# Mechanical properties :
#
#
# Convention : Reuss Voigt Hill
#
# Bulk Modulus (GPa) = 9.53709 40.01504 24.77606
# Shear Modulus (GPa) = 3.34178 19.66175 11.50176
#
# Velocity S-wave (km/s) = 1.42637 3.45983 2.64622
# Velocity P-wave (km/s) = 2.91874 6.35000 4.94174
#
# Compressibility (1/GPa) = 0.10485383
#
# Stress axis : x y z
#
# Youngs Moduli (GPa) = 3.61995 10.47232 3.39375
#
# Poissons Ratio (x) = 1.53863 0.88875
# Poissons Ratio (y) = 0.53185 -0.43450
# Poissons Ratio (z) = 0.94799 -1.34077
#
# Static dielectric constant tensor:
#      x y z
#    x 1.562370 0.000000 0.000000 
#    y 0.000000 1.595740 0.000000 
#    z 0.000000 0.000000 1.554560 
# 
# From -- ./inp_files/14652.got.cif
#   From: 2010.05.17/outbox.ucp.g08.bks.cvg/sg65_8_cif.got.tgz:14652.got - 2010.06.11 16:39:57.
