data_PCOD9494784
_publ_section_title
;
Structure prediction by ZEFSAII (Michael W. Deem and Ramdas Pophale) SiO2 
 PCOD9494784
Probable space group: C M M M
;
_chemical_formula_sum "Si O2"
_cell_formula_units_Z 32
_cell_length_a 24.000000
_cell_length_b 15.000000
_cell_length_c 9.000000
_cell_angle_alpha 90.000000
_cell_angle_beta 90.000000
_cell_angle_gamma 90.000000
_cell_volume 3240.000000
_symmetry_space_group_name_H-M "C M M M"
_symmetry_group_IT_number 65
_symmetry_cell_setting 'orthorhombic'
loop_
_space_group_symop_operation_xyz
x,y,z
-x,-y,z
x,-y,-z
-x,y,-z
-x,-y,-z
x,y,-z
-x,y,z
x,-y,z
1/2+x,1/2+y,z
1/2-x,1/2-y,z
1/2+x,1/2-y,-z
1/2-x,1/2+y,-z
1/2-x,1/2-y,-z
1/2+x,1/2+y,-z
1/2-x,1/2+y,z
1/2+x,1/2-y,z
loop_
_atom_site_type_symbol
_atom_site_label
_atom_site_fract_x
_atom_site_fract_y
_atom_site_fract_z
Si Si1 0.717355 0.891871 0.831152
Si Si2 0.939467 0.773752 0.178186
Si Si3 0.602614 0.102358 0.323496
Si Si4 0.660865 0.602655 0.181266
O O1 0.665479 0.873899 0.726763
O O2 0.777958 0.861269 0.777782
O O3 0.722230 0.000000 0.839746
O O4 0.706412 0.859286 0.000000
O O5 0.934848 0.675836 0.246080
O O6 0.889193 0.835446 0.232488
O O7 0.000000 0.813106 0.212835
O O8 0.934664 0.766681 0.000000
O O9 0.597021 0.106315 0.500000
O O10 0.591703 0.000000 0.275855
O O11 0.654264 0.500000 0.230119
O O12 0.660835 0.601324 0.000000
#
# Coordination Sequence:
#
# PCOD9494784 Si02
#       4
#    16  16  16  16
#     4   8  14  28  52  78 102 129 162 201 247 301
#     4  10  21  35  52  76 103 133 172 212 247 290
#     4  10  21  36  53  73 100 134 169 209 257 303
#     4   8  15  30  53  80 107 133 162 200 248 299
#
# _framework density 9.8765429999999999
#
# number of rings (size 3 to 8) (size 9 to 14) (size 15 to 20)
#    0.000    3.000    0.000    2.250    0.000    4.000 
#    0.000   11.250    0.000    2.250    0.000    1.750 
#    0.000    0.000    0.000    0.000    0.000    0.000 
#
# Total GULP energy -178448.744824 kJ/mol
# GULP energy per Si atom -5576.523276 kJ/mol
# Density = 0.985406 g / cm^3
# Si number density = 9.876543 Si / 1000 Ang^3
#
#
#
# Elastic Constant Matrix: (Units=GPa)
#
#
# Indices 1 2 3 4 5 6 
#
# 1 81.5088 25.0297 3.1416 0.0000 0.0000 0.0000
# 2 25.0297 50.9455 0.6781 0.0000 0.0000 0.0000
# 3 3.1416 0.6781 -4.8550 0.0000 0.0000 0.0000
# 4 0.0000 0.0000 0.0000 12.9873 0.0000 0.0000
# 5 0.0000 0.0000 0.0000 0.0000 -42.3646 0.0000
# 6 0.0000 0.0000 0.0000 0.0000 0.0000 -39.2546
#
#
#
# Elastic Compliance Matrix: (Units=1/GPa)
#
#
# Indices 1 2 3 4 5 6 
#
# 1 0.014118 -0.007045 0.008151 0.000000 0.000000 0.000000
# 2 -0.007045 0.023108 -0.001331 0.000000 0.000000 0.000000
# 3 0.008151 -0.001331 -0.200885 0.000000 0.000000 0.000000
# 4 0.000000 0.000000 0.000000 0.076998 0.000000 0.000000
# 5 0.000000 0.000000 0.000000 0.000000 -0.023605 0.000000
# 6 0.000000 0.000000 0.000000 0.000000 0.000000 -0.025475
#
#
# Mechanical properties :
#
#
# Convention : Reuss Voigt Hill
#
# Bulk Modulus (GPa) = -6.09355 20.58868 7.24757
# Shear Modulus (GPa) = -26.31638 -7.14304 -16.72971
#
# Velocity S-wave (km/s) = -3.65398 -1.90368 -2.91338
# Velocity P-wave (km/s) = 4.57096 2.36931 2.76406
#
# Compressibility (1/GPa) = -0.16410805
#
# Stress axis : x y z
#
# Youngs Moduli (GPa) = 70.83319 43.27586 -4.97797
#
# Poissons Ratio (x) = 0.30486 0.04058
# Poissons Ratio (y) = 0.49899 -0.00662
# Poissons Ratio (z) = -0.57739 0.05759
#
# Static dielectric constant tensor:
#      x y z
#    x 1.739920 0.000000 0.000000 
#    y 0.000000 1.708420 0.000000 
#    z 0.000000 0.000000 1.655420 
# 
# From -- ./inp_files/6675.got.cif
#   From: 2010.05.17/outbox.ucp.g08.bks.cvg/sg65_4_cif.got.tgz:6675.got - 2010.06.11 16:39:57.
