data_PCOD9494406
_publ_section_title
;
Structure prediction by ZEFSAII (Michael W. Deem and Ramdas Pophale) SiO2 
 PCOD9494406
Probable space group: C M M M
;
_chemical_formula_sum "Si O2"
_cell_formula_units_Z 112
_cell_length_a 25.411397
_cell_length_b 29.702208
_cell_length_c 7.580823
_cell_angle_alpha 90.000000
_cell_angle_beta 90.000000
_cell_angle_gamma 90.000000
_cell_volume 5721.812642
_symmetry_space_group_name_H-M "C M M M"
_symmetry_group_IT_number 65
_symmetry_cell_setting 'orthorhombic'
loop_
_space_group_symop_operation_xyz
x,y,z
-x,-y,z
x,-y,-z
-x,y,-z
-x,-y,-z
x,y,-z
-x,y,z
x,-y,z
1/2+x,1/2+y,z
1/2-x,1/2-y,z
1/2+x,1/2-y,-z
1/2-x,1/2+y,-z
1/2-x,1/2-y,-z
1/2+x,1/2+y,-z
1/2-x,1/2+y,z
1/2+x,1/2-y,z
loop_
_atom_site_type_symbol
_atom_site_label
_atom_site_fract_x
_atom_site_fract_y
_atom_site_fract_z
Si Si1 0.828712 0.378133 0.213872
Si Si2 0.250444 0.301268 0.710482
Si Si3 0.560036 0.331060 0.716127
Si Si4 0.063166 0.266660 0.698598
Si Si5 0.441477 0.133472 0.201814
Si Si6 0.242897 0.050630 0.210094
Si Si7 0.835884 0.874085 0.287496
O O1 0.802832 0.329882 0.259060
O O2 0.887923 0.385481 0.282360
O O3 0.789123 0.416776 0.279100
O O4 0.830763 0.379765 0.000000
O O5 0.257980 0.297920 0.500000
O O6 0.250000 0.250000 0.779493
O O7 0.297121 0.334045 0.778306
O O8 0.558615 0.329407 0.500000
O O9 0.500000 0.339065 0.774782
O O10 0.580211 0.281340 0.772231
O O11 0.604490 0.365958 0.771543
O O12 0.084588 0.272552 0.500000
O O13 0.069900 0.312878 0.799684
O O14 0.000000 0.261037 0.685046
O O15 0.500000 0.127145 0.281977
O O16 0.444789 0.117667 0.000000
O O17 0.189593 0.078478 0.239013
O O18 0.242638 0.000000 0.281177
O O19 0.250840 0.047736 0.000000
O O20 0.835627 0.871333 0.500000
#
# Coordination Sequence:
#
# PCOD9494406 Si02
#       7
#    16  16  16  16  16  16  16
#     4   9  18  31  46  65  87 115 150 182 221 270
#     4   9  18  29  42  63  92 122 149 182 220 255
#     4   8  14  25  42  64  90 119 150 182 213 249
#     4   8  14  24  39  59  83 118 159 185 202 236
#     4   9  17  28  41  60  89 120 148 181 219 257
#     4   9  18  34  53  68  84 109 144 187 231 274
#     4   9  17  29  46  69  92 115 146 182 222 264
#
# _framework density 19.574216
#
# number of rings (size 3 to 8) (size 9 to 14) (size 15 to 20)
#    0.000    3.286    0.000    0.857    2.000    1.143 
#    0.000    0.714    0.000    2.143    0.000    6.000 
#    0.000    0.000    0.000   10.714    0.000   11.143 
#
# Total GULP energy -311853.049453 kJ/mol
# GULP energy per Si atom -5568.804455 kJ/mol
# Density = 1.952966 g / cm^3
# Si number density = 19.574216 Si / 1000 Ang^3
#
#
#
# Elastic Constant Matrix: (Units=GPa)
#
#
# Indices 1 2 3 4 5 6 
#
# 1 92.8482 25.2941 -0.0599 0.0000 0.0000 0.0000
# 2 25.2941 90.9334 4.6737 0.0000 0.0000 0.0000
# 3 -0.0599 4.6737 42.3287 0.0000 0.0000 0.0000
# 4 0.0000 0.0000 0.0000 13.5638 0.0000 0.0000
# 5 0.0000 0.0000 0.0000 0.0000 10.2822 0.0000
# 6 0.0000 0.0000 0.0000 0.0000 0.0000 12.0897
#
#
#
# Elastic Compliance Matrix: (Units=1/GPa)
#
#
# Indices 1 2 3 4 5 6 
#
# 1 0.011659 -0.003263 0.000377 0.000000 0.000000 0.000000
# 2 -0.003263 0.011973 -0.001327 0.000000 0.000000 0.000000
# 3 0.000377 -0.001327 0.023772 0.000000 0.000000 0.000000
# 4 0.000000 0.000000 0.000000 0.073725 0.000000 0.000000
# 5 0.000000 0.000000 0.000000 0.000000 0.097255 0.000000
# 6 0.000000 0.000000 0.000000 0.000000 0.000000 0.082715
#
#
# Mechanical properties :
#
#
# Convention : Reuss Voigt Hill
#
# Bulk Modulus (GPa) = 25.65487 31.76956 28.71222
# Shear Modulus (GPa) = 15.50306 20.26731 17.88518
#
# Velocity S-wave (km/s) = 2.81733 3.22127 3.02605
# Velocity P-wave (km/s) = 4.87012 5.48643 5.18744
#
# Compressibility (1/GPa) = 0.03897896
#
# Stress axis : x y z
#
# Youngs Moduli (GPa) = 85.76841 83.52296 42.06692
#
# Poissons Ratio (x) = 0.27250 -0.01585
# Poissons Ratio (y) = 0.27982 0.05580
# Poissons Ratio (z) = -0.03231 0.11080
#
# Static dielectric constant tensor:
#      x y z
#    x 1.729950 0.000000 0.000000 
#    y 0.000000 1.674920 0.000000 
#    z 0.000000 0.000000 1.742590 
# 
# From -- ./inp_files/31237.got.cif
#   From: 2010.05.17/outbox.cif.g08.bks.cpg/sg65_16_cif.got.tgz:31237.got - 2010.06.03 17:01:31.
