data_PCOD9494007
_publ_section_title
;
Structure prediction by ZEFSAII (Michael W. Deem and Ramdas Pophale) SiO2 
 PCOD9494007
Probable space group: C M M M
;
_chemical_formula_sum "Si O2"
_cell_formula_units_Z 80
_cell_length_a 8.580697
_cell_length_b 15.693261
_cell_length_c 30.442844
_cell_angle_alpha 90.000000
_cell_angle_beta 90.000000
_cell_angle_gamma 90.000000
_cell_volume 4099.406510
_symmetry_space_group_name_H-M "C M M M"
_symmetry_group_IT_number 65
_symmetry_cell_setting 'orthorhombic'
loop_
_space_group_symop_operation_xyz
x,y,z
-x,-y,z
x,-y,-z
-x,y,-z
-x,-y,-z
x,y,-z
-x,y,z
x,-y,z
1/2+x,1/2+y,z
1/2-x,1/2-y,z
1/2+x,1/2-y,-z
1/2-x,1/2+y,-z
1/2-x,1/2-y,-z
1/2+x,1/2+y,-z
1/2-x,1/2+y,z
1/2+x,1/2-y,z
loop_
_atom_site_type_symbol
_atom_site_label
_atom_site_fract_x
_atom_site_fract_y
_atom_site_fract_z
Si Si1 0.813553 0.102747 0.142720
Si Si2 0.690477 0.500000 0.389598
Si Si3 0.186690 0.000000 0.288626
Si Si4 0.188079 0.156637 0.550471
Si Si5 0.815777 0.340713 0.765246
Si Si6 0.312376 0.397443 0.047043
O O1 0.731341 0.144516 0.184005
O O2 0.755560 0.133130 0.094608
O O3 0.000000 0.117583 0.145722
O O4 0.791550 0.000000 0.145111
O O5 0.500000 0.500000 0.389745
O O6 0.740911 0.500000 0.339132
O O7 0.741126 0.416380 0.416281
O O8 0.244959 0.082853 0.262975
O O9 0.000000 0.000000 0.288049
O O10 0.235545 0.137681 0.500000
O O11 0.250000 0.250000 0.561999
O O12 0.000000 0.158430 0.551209
O O13 0.750000 0.250000 0.750616
O O14 0.000000 0.341834 0.761286
O O15 0.500000 0.385517 0.047117
O O16 0.288090 0.500000 0.046962
O O17 0.251106 0.364330 0.000000
#
# Coordination Sequence:
#
# PCOD9494007 Si02
#       6
#    16   8   8  16  16  16
#     4   9  16  29  53  81 111 145 181 226 278 332
#     4   9  19  35  58  84 112 151 191 230 279 336
#     4  11  23  42  63  86 117 149 190 242 295 349
#     4   9  17  32  55  84 118 155 194 232 272 322
#     4  12  25  41  61  84 111 147 191 239 292 348
#     4   7  10  18  37  70 107 140 175 213 259 322
#
# _framework density 19.515021000000001
#
# number of rings (size 3 to 8) (size 9 to 14) (size 15 to 20)
#    0.000    2.600    1.000    4.200    0.000    2.000 
#    0.000    4.500    0.000    3.600    0.000    2.800 
#    0.000    0.000    0.000    0.000    0.000    0.000 
#
# Total GULP energy -223154.134374 kJ/mol
# GULP energy per Si atom -5578.853359 kJ/mol
# Density = 1.947060 g / cm^3
# Si number density = 19.515021 Si / 1000 Ang^3
#
#
#
# Elastic Constant Matrix: (Units=GPa)
#
#
# Indices 1 2 3 4 5 6 
#
# 1 42.6500 36.7576 33.2531 0.0000 0.0000 0.0000
# 2 36.7576 123.7449 99.9210 0.0000 0.0000 0.0000
# 3 33.2531 99.9210 172.6770 0.0000 0.0000 0.0000
# 4 0.0000 0.0000 0.0000 -18.4579 0.0000 0.0000
# 5 0.0000 0.0000 0.0000 0.0000 10.1653 0.0000
# 6 0.0000 0.0000 0.0000 0.0000 0.0000 24.7453
#
#
#
# Elastic Compliance Matrix: (Units=1/GPa)
#
#
# Indices 1 2 3 4 5 6 
#
# 1 0.031653 -0.008410 -0.001229 0.000000 0.000000 0.000000
# 2 -0.008410 0.017403 -0.008451 0.000000 0.000000 0.000000
# 3 -0.001229 -0.008451 0.010918 0.000000 0.000000 0.000000
# 4 0.000000 0.000000 0.000000 -0.054177 0.000000 0.000000
# 5 0.000000 0.000000 0.000000 0.000000 0.098374 0.000000
# 6 0.000000 0.000000 0.000000 0.000000 0.000000 0.040412
#
#
# Mechanical properties :
#
#
# Convention : Reuss Voigt Hill
#
# Bulk Modulus (GPa) = 42.02676 75.43728 58.73202
# Shear Modulus (GPa) = 26.49791 14.56653 20.53222
#
# Velocity S-wave (km/s) = 3.68886 2.73505 3.24716
# Velocity P-wave (km/s) = 6.30285 6.97953 6.64981
#
# Compressibility (1/GPa) = 0.02379437
#
# Stress axis : x y z
#
# Youngs Moduli (GPa) = 31.59263 57.46070 91.59106
#
# Poissons Ratio (x) = 0.48323 0.11258
# Poissons Ratio (y) = 0.26569 0.77404
# Poissons Ratio (z) = 0.03883 0.48560
#
# Static dielectric constant tensor:
#      x y z
#    x 1.651740 0.000000 0.000000 
#    y 0.000000 1.679190 0.000000 
#    z 0.000000 0.000000 1.708090 
# 
# From -- ./inp_files/72889.got.cif
#   From: 2010.05.17/outbox.cif.g08.bks.cpg/sg65_37_cif.got.tgz:72889.got - 2010.06.03 17:01:31.
