data_PCOD9494739
_publ_section_title
;
Structure prediction by ZEFSAII (Michael W. Deem and Ramdas Pophale) SiO2 
 PCOD9494739
Probable space group: C M M M
;
_chemical_formula_sum "Si O2"
_cell_formula_units_Z 44
_cell_length_a 18.000000
_cell_length_b 9.000000
_cell_length_c 30.000000
_cell_angle_alpha 90.000000
_cell_angle_beta 90.000000
_cell_angle_gamma 90.000000
_cell_volume 4860.000000
_symmetry_space_group_name_H-M "C M M M"
_symmetry_group_IT_number 65
_symmetry_cell_setting 'orthorhombic'
loop_
_space_group_symop_operation_xyz
x,y,z
-x,-y,z
x,-y,-z
-x,y,-z
-x,-y,-z
x,y,-z
-x,y,z
x,-y,z
1/2+x,1/2+y,z
1/2-x,1/2-y,z
1/2+x,1/2-y,-z
1/2-x,1/2+y,-z
1/2-x,1/2-y,-z
1/2+x,1/2+y,-z
1/2-x,1/2+y,z
1/2+x,1/2-y,z
loop_
_atom_site_type_symbol
_atom_site_label
_atom_site_fract_x
_atom_site_fract_y
_atom_site_fract_z
Si Si1 0.330681 0.679432 0.000000
Si Si2 0.087050 0.321848 0.361191
Si Si3 0.668464 0.177571 0.826657
Si Si4 0.910156 0.823855 0.548644
Si Si5 0.587631 0.323579 0.909077
Si Si6 0.669078 0.178954 0.727976
O O1 0.250000 0.750000 0.000000
O O2 0.373247 0.723746 0.954973
O O3 0.326062 0.500000 0.000000
O O4 0.093186 0.500000 0.363808
O O5 0.118744 0.253920 0.406845
O O6 0.124256 0.270628 0.315348
O O7 0.000000 0.283849 0.358894
O O8 0.750000 0.250000 0.830073
O O9 0.619467 0.238705 0.866647
O O10 0.637618 0.215035 0.777148
O O11 0.675287 0.000000 0.829728
O O12 0.883025 0.770180 0.500000
O O13 0.000000 0.803093 0.548358
O O14 0.896821 0.000000 0.551361
O O15 0.500000 0.301452 0.913175
O O16 0.601638 0.500000 0.903178
O O17 0.750000 0.250000 0.725989
O O18 0.674661 0.000000 0.725931
#
# Coordination Sequence:
#
# PCOD9494739 Si02
#       6
#     8  16  16  16  16  16
#     4  10  21  37  57  79 105 140 177 212 252 298
#     4   9  17  29  46  69  95 122 155 196 241 288
#     4  10  20  35  55  77 102 134 172 211 252 301
#     4   8  14  25  41  63  92 123 154 191 237 287
#     4  10  21  37  56  79 108 139 171 210 256 302
#     4   9  19  34  51  71  97 130 164 200 243 291
#
# _framework density 9.0534979999999994
#
# number of rings (size 3 to 8) (size 9 to 14) (size 15 to 20)
#    0.000    2.727    0.000    1.909    0.000    6.182 
#    0.000    3.636    0.000    4.364    0.000    0.000 
#    0.000    0.000    0.000    0.000    0.000    0.000 
#
# Total GULP energy -245191.032984 kJ/mol
# GULP energy per Si atom -5572.523477 kJ/mol
# Density = 0.903289 g / cm^3
# Si number density = 9.053498 Si / 1000 Ang^3
#
#
#
# Elastic Constant Matrix: (Units=GPa)
#
#
# Indices 1 2 3 4 5 6 
#
# 1 35.3891 32.2050 70.0683 0.0000 0.0000 0.0000
# 2 32.2050 17.1904 62.6039 0.0000 0.0000 0.0000
# 3 70.0683 62.6039 229.7058 0.0000 0.0000 0.0000
# 4 0.0000 0.0000 0.0000 36.2066 0.0000 0.0000
# 5 0.0000 0.0000 0.0000 0.0000 32.8549 0.0000
# 6 0.0000 0.0000 0.0000 0.0000 0.0000 20.4305
#
#
#
# Elastic Compliance Matrix: (Units=1/GPa)
#
#
# Indices 1 2 3 4 5 6 
#
# 1 -0.000755 0.077093 -0.020781 0.000000 0.000000 0.000000
# 2 0.077093 -0.082429 -0.001051 0.000000 0.000000 0.000000
# 3 -0.020781 -0.001051 0.010979 0.000000 0.000000 0.000000
# 4 0.000000 0.000000 0.000000 0.027619 0.000000 0.000000
# 5 0.000000 0.000000 0.000000 0.000000 0.030437 0.000000
# 6 0.000000 0.000000 0.000000 0.000000 0.000000 0.048946
#
#
# Mechanical properties :
#
#
# Convention : Reuss Voigt Hill
#
# Bulk Modulus (GPa) = 26.09745 68.00440 47.05093
# Shear Modulus (GPa) = -79.42353 25.72561 -26.84896
#
# Velocity S-wave (km/s) = -6.63013 3.77338 -3.85489
# Velocity P-wave (km/s) = 6.64585 7.52483 2.49556
#
# Compressibility (1/GPa) = 0.03831792
#
# Stress axis : x y z
#
# Youngs Moduli (GPa) = -1324.09730 -12.13167 91.08593
#
# Poissons Ratio (x) = 0.93527 1.89282
# Poissons Ratio (y) = 102.07906 0.09573
# Poissons Ratio (z) = -27.51554 -0.01275
#
# Static dielectric constant tensor:
#      x y z
#    x 1.599410 0.000000 0.000000 
#    y 0.000000 1.592240 0.000000 
#    z 0.000000 0.000000 1.650070 
# 
# From -- ./inp_files/77877.got.cif
#   From: 2010.05.17/outbox.ucp.g08.bks.cvg/sg65_39_cif.got.tgz:77877.got - 2010.06.11 16:39:57.
