data_PCOD9494251
_publ_section_title
;
Structure prediction by ZEFSAII (Michael W. Deem and Ramdas Pophale) SiO2 
 PCOD9494251
Probable space group: C M M M
;
_chemical_formula_sum "Si O2"
_cell_formula_units_Z 96
_cell_length_a 7.287370
_cell_length_b 28.219827
_cell_length_c 25.415339
_cell_angle_alpha 90.000000
_cell_angle_beta 90.000000
_cell_angle_gamma 90.000000
_cell_volume 5226.621785
_symmetry_space_group_name_H-M "C M M M"
_symmetry_group_IT_number 65
_symmetry_cell_setting 'orthorhombic'
loop_
_space_group_symop_operation_xyz
x,y,z
-x,-y,z
x,-y,-z
-x,y,-z
-x,-y,-z
x,y,-z
-x,y,z
x,-y,z
1/2+x,1/2+y,z
1/2-x,1/2-y,z
1/2+x,1/2-y,-z
1/2-x,1/2+y,-z
1/2-x,1/2-y,-z
1/2+x,1/2+y,-z
1/2-x,1/2+y,z
1/2+x,1/2-y,z
loop_
_atom_site_type_symbol
_atom_site_label
_atom_site_fract_x
_atom_site_fract_y
_atom_site_fract_z
Si Si1 0.281999 0.695906 0.335322
Si Si2 0.223515 0.897225 0.721496
Si Si3 0.721407 0.443569 0.943366
Si Si4 0.276419 0.649002 0.558565
Si Si5 0.222910 0.052952 0.386068
Si Si6 0.776239 0.944701 0.171398
O O1 0.500000 0.689415 0.337430
O O2 0.250000 0.750000 0.320812
O O3 0.215507 0.655360 0.295457
O O4 0.214615 0.683165 0.394139
O O5 0.275716 0.931591 0.673123
O O6 0.285759 0.915539 0.777984
O O7 0.000000 0.897659 0.722920
O O8 0.500000 0.439006 0.943784
O O9 0.760210 0.500000 0.943151
O O10 0.783985 0.426173 0.886131
O O11 0.787315 0.424564 0.000000
O O12 0.214312 0.661122 0.500000
O O13 0.500000 0.649855 0.557919
O O14 0.221997 0.595643 0.575482
O O15 0.000000 0.052432 0.387050
O O16 0.285207 0.000000 0.398956
O O17 0.000000 0.944100 0.171192
O O18 0.723919 0.000000 0.176745
#
# Coordination Sequence:
#
# PCOD9494251 Si02
#       6
#    16  16  16  16  16  16
#     4   9  17  28  40  52  67  87 109 137 172 203
#     4   8  13  20  29  43  63  84 107 135 165 196
#     4   7   9  12  17  28  50  81 114 139 154 176
#     4   8  14  23  33  47  67  88 109 133 162 196
#     4   8  12  17  26  41  63  89 109 125 152 193
#     4   8  11  14  23  39  60  87 112 132 159 195
#
# _framework density 18.367504
#
# number of rings (size 3 to 8) (size 9 to 14) (size 15 to 20)
#    0.000    4.000    0.000    4.000    0.000    2.667 
#    0.000    1.667    0.000    0.000    0.000    0.000 
#    0.000   17.333    0.000    6.500    0.000    7.833 
#
# Total GULP energy -267310.447495 kJ/mol
# GULP energy per Si atom -5568.967656 kJ/mol
# Density = 1.832570 g / cm^3
# Si number density = 18.367504 Si / 1000 Ang^3
#
#
#
# Elastic Constant Matrix: (Units=GPa)
#
#
# Indices 1 2 3 4 5 6 
#
# 1 75.1450 -1.2149 5.6399 0.0000 0.0000 0.0000
# 2 -1.2149 68.5340 29.2139 0.0000 0.0000 0.0000
# 3 5.6399 29.2139 150.2061 0.0000 0.0000 0.0000
# 4 0.0000 0.0000 0.0000 13.7960 0.0000 0.0000
# 5 0.0000 0.0000 0.0000 0.0000 -24.5680 0.0000
# 6 0.0000 0.0000 0.0000 0.0000 0.0000 -14.8247
#
#
#
# Elastic Compliance Matrix: (Units=1/GPa)
#
#
# Indices 1 2 3 4 5 6 
#
# 1 0.013360 0.000491 -0.000597 0.000000 0.000000 0.000000
# 2 0.000491 0.015928 -0.003116 0.000000 0.000000 0.000000
# 3 -0.000597 -0.003116 0.007286 0.000000 0.000000 0.000000
# 4 0.000000 0.000000 0.000000 0.072485 0.000000 0.000000
# 5 0.000000 0.000000 0.000000 0.000000 -0.040703 0.000000
# 6 0.000000 0.000000 0.000000 0.000000 0.000000 -0.067455
#
#
# Mechanical properties :
#
#
# Convention : Reuss Voigt Hill
#
# Bulk Modulus (GPa) = 33.18903 40.12920 36.65911
# Shear Modulus (GPa) = 287.53281 12.23041 149.88161
#
# Velocity S-wave (km/s) = 12.52534 2.58325 9.04316
# Velocity P-wave (km/s) = 15.07606 5.54914 11.35959
#
# Compressibility (1/GPa) = 0.03013044
#
# Stress axis : x y z
#
# Youngs Moduli (GPa) = 74.84825 62.78080 137.24838
#
# Poissons Ratio (x) = -0.03085 0.08197
# Poissons Ratio (y) = -0.03678 0.42772
# Poissons Ratio (z) = 0.04470 0.19565
#
# Static dielectric constant tensor:
#      x y z
#    x 1.757330 0.000000 0.000000 
#    y 0.000000 1.605470 0.000000 
#    z 0.000000 0.000000 1.660460 
# 
# From -- ./inp_files/69205.got.cif
#   From: 2010.05.17/outbox.cif.g08.bks.cpg/sg65_35_cif.got.tgz:69205.got - 2010.06.03 17:01:31.
