data_PCOD9494614
_publ_section_title
;
Structure prediction by ZEFSAII (Michael W. Deem and Ramdas Pophale) SiO2 
 PCOD9494614
Probable space group: C M M M
;
_chemical_formula_sum "Si O2"
_cell_formula_units_Z 40
_cell_length_a 18.000000
_cell_length_b 9.000000
_cell_length_c 27.000000
_cell_angle_alpha 90.000000
_cell_angle_beta 90.000000
_cell_angle_gamma 90.000000
_cell_volume 4374.000000
_symmetry_space_group_name_H-M "C M M M"
_symmetry_group_IT_number 65
_symmetry_cell_setting 'orthorhombic'
loop_
_space_group_symop_operation_xyz
x,y,z
-x,-y,z
x,-y,-z
-x,y,-z
-x,-y,-z
x,y,-z
-x,y,z
x,-y,z
1/2+x,1/2+y,z
1/2-x,1/2-y,z
1/2+x,1/2-y,-z
1/2-x,1/2+y,-z
1/2-x,1/2-y,-z
1/2+x,1/2+y,-z
1/2-x,1/2+y,z
1/2+x,1/2-y,z
loop_
_atom_site_type_symbol
_atom_site_label
_atom_site_fract_x
_atom_site_fract_y
_atom_site_fract_z
Si Si1 0.330211 0.180015 0.000000
Si Si2 0.085469 0.318957 0.099179
Si Si3 0.911460 0.671268 0.500000
Si Si4 0.331485 0.677880 0.408751
Si Si5 0.910472 0.672159 0.207425
Si Si6 0.669273 0.676454 0.702560
O O1 0.250000 0.250000 0.000000
O O2 0.371291 0.227384 0.050352
O O3 0.327557 0.000000 0.000000
O O4 0.085380 0.500000 0.100440
O O5 0.115351 0.272313 0.153134
O O6 0.000000 0.271319 0.094740
O O7 0.885426 0.500000 0.500000
O O8 0.881416 0.753282 0.548561
O O9 0.000000 0.672914 0.500000
O O10 0.326353 0.500000 0.414149
O O11 0.250000 0.750000 0.413155
O O12 0.359277 0.711688 0.352954
O O13 0.887339 0.500000 0.213373
O O14 0.881110 0.764017 0.253396
O O15 0.000000 0.674829 0.205953
O O16 0.676846 0.500000 0.705854
O O17 0.750000 0.750000 0.707255
#
# Coordination Sequence:
#
# PCOD9494614 Si02
#       6
#     8  16   8  16  16  16
#     4  10  19  31  49  73 101 130 164 210 258 304
#     4   8  15  30  52  74  95 128 174 213 247 297
#     4  11  24  39  56  81 111 141 174 213 258 307
#     4  10  21  38  59  80 105 139 177 216 257 306
#     4   9  18  33  53  77 105 136 171 213 261 311
#     4  10  21  36  55  79 106 138 176 215 257 306
#
# _framework density 9.1449470000000002
#
# number of rings (size 3 to 8) (size 9 to 14) (size 15 to 20)
#    0.000    2.500    0.000    3.300    0.000    6.400 
#    0.000    7.000    0.000    2.400    0.000    0.000 
#    0.000    0.000    0.000    0.000    0.000    0.000 
#
# Total GULP energy -223063.199727 kJ/mol
# GULP energy per Si atom -5576.579993 kJ/mol
# Density = 0.912413 g / cm^3
# Si number density = 9.144947 Si / 1000 Ang^3
#
#
#
# Elastic Constant Matrix: (Units=GPa)
#
#
# Indices 1 2 3 4 5 6 
#
# 1 47.2885 27.8119 73.8745 0.0000 0.0000 0.0000
# 2 27.8119 56.5852 70.0493 0.0000 0.0000 0.0000
# 3 73.8745 70.0493 202.6056 0.0000 0.0000 0.0000
# 4 0.0000 0.0000 0.0000 33.8144 0.0000 0.0000
# 5 0.0000 0.0000 0.0000 0.0000 27.8357 0.0000
# 6 0.0000 0.0000 0.0000 0.0000 0.0000 29.1876
#
#
#
# Elastic Compliance Matrix: (Units=1/GPa)
#
#
# Indices 1 2 3 4 5 6 
#
# 1 0.049522 -0.003474 -0.016856 0.000000 0.000000 0.000000
# 2 -0.003474 0.031140 -0.009500 0.000000 0.000000 0.000000
# 3 -0.016856 -0.009500 0.014366 0.000000 0.000000 0.000000
# 4 0.000000 0.000000 0.000000 0.029573 0.000000 0.000000
# 5 0.000000 0.000000 0.000000 0.000000 0.035925 0.000000
# 6 0.000000 0.000000 0.000000 0.000000 0.000000 0.034261
#
#
# Mechanical properties :
#
#
# Convention : Reuss Voigt Hill
#
# Bulk Modulus (GPa) = 28.27286 72.21673 50.24479
# Shear Modulus (GPa) = 18.78028 27.15047 22.96537
#
# Velocity S-wave (km/s) = 3.20787 3.85704 3.54733
# Velocity P-wave (km/s) = 5.40484 7.70752 6.65651
#
# Compressibility (1/GPa) = 0.03536961
#
# Stress axis : x y z
#
# Youngs Moduli (GPa) = 20.19291 32.11300 69.60771
#
# Poissons Ratio (x) = 0.11155 1.17330
# Poissons Ratio (y) = 0.07015 0.66126
# Poissons Ratio (z) = 0.34037 0.30507
#
# Static dielectric constant tensor:
#      x y z
#    x 1.604160 0.000000 0.000000 
#    y 0.000000 1.614390 0.000000 
#    z 0.000000 0.000000 1.643910 
# 
# From -- ./inp_files/75110.got.cif
#   From: 2010.05.17/outbox.ucp.g08.bks.cvg/sg65_38_cif.got.tgz:75110.got - 2010.06.11 16:39:57.
