data_PCOD9494323
_publ_section_title
;
Structure prediction by ZEFSAII (Michael W. Deem and Ramdas Pophale) SiO2 
 PCOD9494323
Probable space group: C M M M
;
_chemical_formula_sum "Si O2"
_cell_formula_units_Z 88
_cell_length_a 14.554295
_cell_length_b 7.461161
_cell_length_c 33.129953
_cell_angle_alpha 90.000000
_cell_angle_beta 90.000000
_cell_angle_gamma 90.000000
_cell_volume 3597.645810
_symmetry_space_group_name_H-M "C M M M"
_symmetry_group_IT_number 65
_symmetry_cell_setting 'orthorhombic'
loop_
_space_group_symop_operation_xyz
x,y,z
-x,-y,z
x,-y,-z
-x,y,-z
-x,-y,-z
x,y,-z
-x,y,z
x,-y,z
1/2+x,1/2+y,z
1/2-x,1/2-y,z
1/2+x,1/2-y,-z
1/2-x,1/2+y,-z
1/2-x,1/2-y,-z
1/2+x,1/2+y,-z
1/2-x,1/2+y,z
1/2+x,1/2-y,z
loop_
_atom_site_type_symbol
_atom_site_label
_atom_site_fract_x
_atom_site_fract_y
_atom_site_fract_z
Si Si1 0.887590 0.500000 0.045942
Si Si2 0.605278 0.785107 0.716435
Si Si3 0.358094 0.785649 0.456736
Si Si4 0.390896 0.797065 0.368412
Si Si5 0.112599 0.794370 0.890642
Si Si6 0.104860 0.214246 0.196159
O O1 0.859667 0.671370 0.072304
O O2 0.000000 0.500000 0.044724
O O3 0.854722 0.500000 0.000000
O O4 0.500000 0.715887 0.719526
O O5 0.644581 0.715300 0.673732
O O6 0.647930 0.749986 0.760172
O O7 0.602585 0.000000 0.711962
O O8 0.395563 0.718667 0.500000
O O9 0.250000 0.750000 0.458641
O O10 0.383178 0.712044 0.412646
O O11 0.378158 0.000000 0.456037
O O12 0.500000 0.811601 0.361776
O O13 0.351819 0.000000 0.372206
O O14 0.143803 0.722104 0.846660
O O15 0.000000 0.792899 0.888827
O O16 0.141054 0.000000 0.896020
O O17 0.000000 0.285610 0.198458
O O18 0.100465 0.000000 0.191980
#
# Coordination Sequence:
#
# PCOD9494323 Si02
#       6
#     8  16  16  16  16  16
#     4   9  16  22  28  38  50  70 104 144 187 233
#     4   8  13  20  32  49  67  88 110 137 178 227
#     4   9  17  29  45  62  80 105 136 169 202 240
#     4   8  14  25  40  60  83 102 127 164 204 246
#     4   8  14  22  29  38  53  73 100 138 181 227
#     4   8  13  20  29  42  60  81 105 133 169 220
#
# _framework density 24.460440999999999
#
# number of rings (size 3 to 8) (size 9 to 14) (size 15 to 20)
#    0.000    3.727    0.000    2.182    1.273    0.727 
#    0.000    4.545    0.000    1.636    0.000    2.545 
#    0.000    0.000    0.000    0.000    0.000    0.000 
#
# Total GULP energy -245133.122882 kJ/mol
# GULP energy per Si atom -5571.207338 kJ/mol
# Density = 2.440477 g / cm^3
# Si number density = 24.460441 Si / 1000 Ang^3
#
#
#
# Elastic Constant Matrix: (Units=GPa)
#
#
# Indices 1 2 3 4 5 6 
#
# 1 73.1963 -5.5587 12.2105 0.0000 0.0000 0.0000
# 2 -5.5587 94.5436 63.3117 0.0000 0.0000 0.0000
# 3 12.2105 63.3117 357.2427 0.0000 0.0000 0.0000
# 4 0.0000 0.0000 0.0000 50.4404 0.0000 0.0000
# 5 0.0000 0.0000 0.0000 0.0000 48.4487 0.0000
# 6 0.0000 0.0000 0.0000 0.0000 0.0000 -4.7813
#
#
#
# Elastic Compliance Matrix: (Units=1/GPa)
#
#
# Indices 1 2 3 4 5 6 
#
# 1 0.013877 0.001286 -0.000702 0.000000 0.000000 0.000000
# 2 0.001286 0.012121 -0.002192 0.000000 0.000000 0.000000
# 3 -0.000702 -0.002192 0.003212 0.000000 0.000000 0.000000
# 4 0.000000 0.000000 0.000000 0.019825 0.000000 0.000000
# 5 0.000000 0.000000 0.000000 0.000000 0.020640 0.000000
# 6 0.000000 0.000000 0.000000 0.000000 0.000000 -0.209148
#
#
# Mechanical properties :
#
#
# Convention : Reuss Voigt Hill
#
# Bulk Modulus (GPa) = 38.47214 73.87884 56.17549
# Shear Modulus (GPa) = -39.18733 49.15616 4.98441
#
# Velocity S-wave (km/s) = -4.00693 4.48774 1.42904
# Velocity P-wave (km/s) = 2.37589 7.55791 5.07332
#
# Compressibility (1/GPa) = 0.02599283
#
# Stress axis : x y z
#
# Youngs Moduli (GPa) = 72.06318 82.50379 311.36179
#
# Poissons Ratio (x) = -0.10611 0.21865
# Poissons Ratio (y) = -0.09268 0.68251
# Poissons Ratio (z) = 0.05061 0.18085
#
# Static dielectric constant tensor:
#      x y z
#    x 2.133560 0.000000 0.000000 
#    y 0.000000 1.858520 0.000000 
#    z 0.000000 0.000000 2.028190 
# 
# From -- ./inp_files/78087.got.cif
#   From: 2010.05.17/outbox.cif.g08.bks.cpg/sg65_40_cif.got.tgz:78087.got - 2010.06.03 17:01:31.
