data_PCOD9494993
_publ_section_title
;
Structure prediction by ZEFSAII (Michael W. Deem and Ramdas Pophale) SiO2 
 PCOD9494993
Probable space group: C C C M
;
_chemical_formula_sum "Si O2"
_cell_formula_units_Z 80
_cell_length_a 6.758945
_cell_length_b 26.589025
_cell_length_c 16.792334
_cell_angle_alpha 90.000000
_cell_angle_beta 90.000000
_cell_angle_gamma 90.000000
_cell_volume 3017.813442
_symmetry_space_group_name_H-M "C C C M"
_symmetry_group_IT_number 66
_symmetry_cell_setting 'orthorhombic'
loop_
_space_group_symop_operation_xyz
x,y,z
-x,-y,z
x,-y,1/2-z
-x,y,1/2-z
-x,-y,-z
x,y,-z
-x,y,1/2+z
x,-y,1/2+z
1/2+x,1/2+y,z
1/2-x,1/2-y,z
1/2+x,1/2-y,1/2-z
1/2-x,1/2+y,1/2-z
1/2-x,1/2-y,-z
1/2+x,1/2+y,-z
1/2-x,1/2+y,1/2+z
1/2+x,1/2-y,1/2+z
loop_
_atom_site_type_symbol
_atom_site_label
_atom_site_fract_x
_atom_site_fract_y
_atom_site_fract_z
Si Si1 0.524783 0.767926 0.659484
Si Si2 0.636248 0.440256 0.592198
Si Si3 0.921560 0.832963 0.090919
Si Si4 0.769980 0.531165 0.331788
Si Si5 0.117345 0.629704 0.090658
O O1 0.500000 0.784083 0.750000
O O2 0.750000 0.750000 0.646447
O O3 0.404675 0.716372 0.644145
O O4 0.504279 0.817754 0.606762
O O5 0.568075 0.440243 0.500000
O O6 0.700395 0.383534 0.609971
O O7 0.455241 0.450553 0.652208
O O8 0.785100 0.486119 0.603830
O O9 0.150181 0.852606 0.094339
O O10 0.886444 0.817389 0.000000
O O11 0.794210 0.500000 0.250000
O O12 0.891334 0.582083 0.349133
O O13 0.078274 0.612262 0.000000
#
# Coordination Sequence:
#
# PCOD9494993 Si02
#       5
#    16  16  16  16  16
#     4  10  20  33  53  80 109 141 179 229 279 323
#     4   9  15  24  39  64 104 143 172 211 277 349
#     4   8  15  27  46  73 102 135 174 217 268 328
#     4  10  17  24  39  67 100 134 173 223 274 315
#     4   9  17  31  50  72 101 139 184 222 260 324
#
# _framework density 26.509262
#
# number of rings (size 3 to 8) (size 9 to 14) (size 15 to 20)
#    0.000    2.800    0.000    5.400    0.000    7.200 
#    0.000    0.000    0.000    3.000    0.000    9.800 
#    0.000    0.000    0.000    0.000    0.000    0.000 
#
# Total GULP energy -223580.633702 kJ/mol
# GULP energy per Si atom -5589.515843 kJ/mol
# Density = 2.644893 g / cm^3
# Si number density = 26.509262 Si / 1000 Ang^3
#
#
#
# Elastic Constant Matrix: (Units=GPa)
#
#
# Indices 1 2 3 4 5 6 
#
# 1 69.2541 39.0653 7.1178 0.0000 0.0000 0.0000
# 2 39.0653 206.8245 80.8625 0.0000 0.0000 0.0000
# 3 7.1178 80.8625 129.2066 0.0000 0.0000 0.0000
# 4 0.0000 0.0000 0.0000 54.3274 0.0000 0.0000
# 5 0.0000 0.0000 0.0000 0.0000 1.1198 0.0000
# 6 0.0000 0.0000 0.0000 0.0000 0.0000 92.6643
#
#
#
# Elastic Compliance Matrix: (Units=1/GPa)
#
#
# Indices 1 2 3 4 5 6 
#
# 1 0.016342 -0.003621 0.001366 0.000000 0.000000 0.000000
# 2 -0.003621 0.007203 -0.004309 0.000000 0.000000 0.000000
# 3 0.001366 -0.004309 0.010361 0.000000 0.000000 0.000000
# 4 0.000000 0.000000 0.000000 0.018407 0.000000 0.000000
# 5 0.000000 0.000000 0.000000 0.000000 0.892986 0.000000
# 6 0.000000 0.000000 0.000000 0.000000 0.000000 0.010792
#
#
# Mechanical properties :
#
#
# Convention : Reuss Voigt Hill
#
# Bulk Modulus (GPa) = 48.12649 73.26405 60.69527
# Shear Modulus (GPa) = 5.12219 48.17159 26.64689
#
# Velocity S-wave (km/s) = 1.39155 4.26744 3.17392
# Velocity P-wave (km/s) = 4.55806 7.20962 6.03135
#
# Compressibility (1/GPa) = 0.02077858
#
# Stress axis : x y z
#
# Youngs Moduli (GPa) = 61.19380 138.82190 96.51666
#
# Poissons Ratio (x) = 0.50261 -0.13181
# Poissons Ratio (y) = 0.22155 0.41587
# Poissons Ratio (z) = -0.08357 0.59815
#
# Static dielectric constant tensor:
#      x y z
#    x 2.317530 0.000000 0.000000 
#    y 0.000000 2.033610 0.000000 
#    z 0.000000 0.000000 1.883540 
# 
# From -- ./inp_files/26382.got.cif
#   From: 2010.05.17/outbox.cif.g08.bks.cpg/sg66_14_cif.got.tgz:26382.got - 2010.06.03 17:51:23.
