data_PCOD9494268
_publ_section_title
;
Structure prediction by ZEFSAII (Michael W. Deem and Ramdas Pophale) SiO2 
 PCOD9494268
Probable space group: C M M M
;
_chemical_formula_sum "Si O2"
_cell_formula_units_Z 72
_cell_length_a 19.333959
_cell_length_b 7.347191
_cell_length_c 24.702763
_cell_angle_alpha 90.000000
_cell_angle_beta 90.000000
_cell_angle_gamma 90.000000
_cell_volume 3509.034637
_symmetry_space_group_name_H-M "C M M M"
_symmetry_group_IT_number 65
_symmetry_cell_setting 'orthorhombic'
loop_
_space_group_symop_operation_xyz
x,y,z
-x,-y,z
x,-y,-z
-x,y,-z
-x,-y,-z
x,y,-z
-x,y,z
x,-y,z
1/2+x,1/2+y,z
1/2-x,1/2-y,z
1/2+x,1/2-y,-z
1/2-x,1/2+y,-z
1/2-x,1/2-y,-z
1/2+x,1/2+y,-z
1/2-x,1/2+y,z
1/2+x,1/2-y,z
loop_
_atom_site_type_symbol
_atom_site_label
_atom_site_fract_x
_atom_site_fract_y
_atom_site_fract_z
Si Si1 0.080593 0.777722 0.823926
Si Si2 0.331129 0.282655 0.601788
Si Si3 0.579875 0.277177 0.500000
Si Si4 0.330991 0.282763 0.277295
Si Si5 0.082596 0.219517 0.058191
O O1 0.123818 0.713232 0.772516
O O2 0.108199 0.717543 0.883057
O O3 0.000000 0.726665 0.819059
O O4 0.082375 0.000000 0.824307
O O5 0.340207 0.500000 0.603690
O O6 0.250000 0.250000 0.590530
O O7 0.379314 0.215378 0.553515
O O8 0.347019 0.212142 0.662256
O O9 0.581232 0.500000 0.500000
O O10 0.500000 0.222459 0.500000
O O11 0.341731 0.500000 0.279050
O O12 0.250000 0.250000 0.267537
O O13 0.000000 0.256425 0.058481
O O14 0.089748 0.000000 0.057688
O O15 0.110177 0.286168 0.000000
#
# Coordination Sequence:
#
# PCOD9494268 Si02
#       5
#    16  16   8  16  16
#     4   8  13  21  35  56  78  99 128 166 201 231
#     4   9  17  29  45  62  80 106 137 164 191 229
#     4   9  17  28  43  65  88 105 126 162 204 237
#     4   9  17  28  42  60  81 106 134 162 194 232
#     4   7   9  14  26  46  72  98 122 153 195 235
#
# _framework density 20.518463000000001
#
# number of rings (size 3 to 8) (size 9 to 14) (size 15 to 20)
#    0.000    3.667    0.000    2.333    0.000    0.889 
#    0.000    4.444    0.000    2.667    0.000    6.222 
#    0.000    0.000    0.000    5.556    0.000    4.444 
#
# Total GULP energy -200564.023192 kJ/mol
# GULP energy per Si atom -5571.222866 kJ/mol
# Density = 2.047176 g / cm^3
# Si number density = 20.518463 Si / 1000 Ang^3
#
#
#
# Elastic Constant Matrix: (Units=GPa)
#
#
# Indices 1 2 3 4 5 6 
#
# 1 77.4794 -0.0609 127.6398 0.0000 0.0000 0.0000
# 2 -0.0609 77.3037 11.8759 0.0000 0.0000 0.0000
# 3 127.6398 11.8759 277.4875 0.0000 0.0000 0.0000
# 4 0.0000 0.0000 0.0000 -3.3683 0.0000 0.0000
# 5 0.0000 0.0000 0.0000 0.0000 13.2540 0.0000
# 6 0.0000 0.0000 0.0000 0.0000 0.0000 6.7872
#
#
#
# Elastic Compliance Matrix: (Units=1/GPa)
#
#
# Indices 1 2 3 4 5 6 
#
# 1 0.054437 0.003915 -0.025208 0.000000 0.000000 0.000000
# 2 0.003915 0.013303 -0.002370 0.000000 0.000000 0.000000
# 3 -0.025208 -0.002370 0.015300 0.000000 0.000000 0.000000
# 4 0.000000 0.000000 0.000000 -0.296883 0.000000 0.000000
# 5 0.000000 0.000000 0.000000 0.000000 0.075449 0.000000
# 6 0.000000 0.000000 0.000000 0.000000 0.000000 0.147336
#
#
# Mechanical properties :
#
#
# Convention : Reuss Voigt Hill
#
# Bulk Modulus (GPa) = 27.99924 79.02003 53.50963
# Shear Modulus (GPa) = 73.34292 22.85563 48.09928
#
# Velocity S-wave (km/s) = 5.98519 3.34114 4.84694
# Velocity P-wave (km/s) = 7.83829 7.31297 7.58018
#
# Compressibility (1/GPa) = 0.03571525
#
# Stress axis : x y z
#
# Youngs Moduli (GPa) = 18.36990 75.16968 65.35806
#
# Poissons Ratio (x) = -0.29432 1.64752
# Poissons Ratio (y) = -0.07193 0.15493
# Poissons Ratio (z) = 0.46306 0.17818
#
# Static dielectric constant tensor:
#      x y z
#    x 1.657860 0.000000 0.000000 
#    y 0.000000 1.793140 0.000000 
#    z 0.000000 0.000000 1.782740 
# 
# From -- ./inp_files/67245.got.cif
#   From: 2010.05.17/outbox.cif.g08.bks.cpg/sg65_34_cif.got.tgz:67245.got - 2010.06.03 17:01:31.
