data_PCOD9494927
_publ_section_title
;
Structure prediction by ZEFSAII (Michael W. Deem and Ramdas Pophale) SiO2 
 PCOD9494927
Probable space group: C C C M
;
_chemical_formula_sum "Si O2"
_cell_formula_units_Z 48
_cell_length_a 5.113265
_cell_length_b 14.645907
_cell_length_c 28.305067
_cell_angle_alpha 90.000000
_cell_angle_beta 90.000000
_cell_angle_gamma 90.000000
_cell_volume 2119.721283
_symmetry_space_group_name_H-M "C C C M"
_symmetry_group_IT_number 66
_symmetry_cell_setting 'orthorhombic'
loop_
_space_group_symop_operation_xyz
x,y,z
-x,-y,z
x,-y,1/2-z
-x,y,1/2-z
-x,-y,-z
x,y,-z
-x,y,1/2+z
x,-y,1/2+z
1/2+x,1/2+y,z
1/2-x,1/2-y,z
1/2+x,1/2-y,1/2-z
1/2-x,1/2+y,1/2-z
1/2-x,1/2-y,-z
1/2+x,1/2+y,-z
1/2-x,1/2+y,1/2+z
1/2+x,1/2-y,1/2+z
loop_
_atom_site_type_symbol
_atom_site_label
_atom_site_fract_x
_atom_site_fract_y
_atom_site_fract_z
Si Si1 0.973599 0.890662 0.850054
Si Si2 0.756924 0.568102 0.500000
Si Si3 0.964881 0.389548 0.902658
Si Si4 0.500000 0.689727 0.750000
O O1 0.752709 0.857449 0.887173
O O2 0.914346 0.866633 0.796199
O O3 0.259531 0.856516 0.864104
O O4 0.000000 0.000000 0.854405
O O5 0.500000 0.500000 0.500000
O O6 0.815439 0.625569 0.547430
O O7 0.000000 0.500000 0.500000
O O8 0.000000 0.500000 0.900439
O O9 0.750000 0.750000 0.736998
#
# Coordination Sequence:
#
# PCOD9494927 Si02
#       4
#    16   8  16   8
#     4  10  20  36  56  80 109 143 182 224 272 328
#     4  10  16  26  46  80 120 148 172 218 275 326
#     4   9  17  29  50  80 112 143 175 217 269 322
#     4  12  25  40  57  80 106 142 186 234 285 332
#
# _framework density 22.644487000000002
#
# number of rings (size 3 to 8) (size 9 to 14) (size 15 to 20)
#    0.000    2.000    0.000    7.500    0.000    0.000 
#    0.000    6.667    0.000    0.000    0.000   23.333 
#    0.000    0.000    0.000    0.000    0.000    0.000 
#
# Total GULP energy -133707.232891 kJ/mol
# GULP energy per Si atom -5571.134704 kJ/mol
# Density = 2.259295 g / cm^3
# Si number density = 22.644487 Si / 1000 Ang^3
#
#
#
# Elastic Constant Matrix: (Units=GPa)
#
#
# Indices 1 2 3 4 5 6 
#
# 1 159.4623 14.3373 39.6100 0.0000 0.0000 0.0000
# 2 14.3373 60.9347 12.5493 0.0000 0.0000 0.0000
# 3 39.6100 12.5493 150.1811 0.0000 0.0000 0.0000
# 4 0.0000 0.0000 0.0000 -7.5277 0.0000 0.0000
# 5 0.0000 0.0000 0.0000 0.0000 38.1850 0.0000
# 6 0.0000 0.0000 0.0000 0.0000 0.0000 4.4455
#
#
#
# Elastic Compliance Matrix: (Units=1/GPa)
#
#
# Indices 1 2 3 4 5 6 
#
# 1 0.006803 -0.001253 -0.001690 0.000000 0.000000 0.000000
# 2 -0.001253 0.016929 -0.001084 0.000000 0.000000 0.000000
# 3 -0.001690 -0.001084 0.007195 0.000000 0.000000 0.000000
# 4 0.000000 0.000000 0.000000 -0.132843 0.000000 0.000000
# 5 0.000000 0.000000 0.000000 0.000000 0.026188 0.000000
# 6 0.000000 0.000000 0.000000 0.000000 0.000000 0.224944
#
#
# Mechanical properties :
#
#
# Convention : Reuss Voigt Hill
#
# Bulk Modulus (GPa) = 43.71775 55.95237 49.83506
# Shear Modulus (GPa) = 30.32230 27.29268 28.80749
#
# Velocity S-wave (km/s) = 3.66329 3.47546 3.57061
# Velocity P-wave (km/s) = 6.10253 6.39279 6.24935
#
# Compressibility (1/GPa) = 0.02287400
#
# Stress axis : x y z
#
# Youngs Moduli (GPa) = 146.98465 59.07005 138.98769
#
# Poissons Ratio (x) = 0.07400 0.23485
# Poissons Ratio (y) = 0.18414 0.15069
# Poissons Ratio (z) = 0.24836 0.06404
#
# Static dielectric constant tensor:
#      x y z
#    x 1.805920 0.000000 0.000000 
#    y 0.000000 1.813120 0.000000 
#    z 0.000000 0.000000 1.957380 
# 
# From -- ./inp_files/53802.got.cif
#   From: 2010.05.17/outbox.cif.g08.bks.cpg/sg66_27_cif.got.tgz:53802.got - 2010.06.03 17:51:23.
