data_PCOD9494023
_publ_section_title
;
Structure prediction by ZEFSAII (Michael W. Deem and Ramdas Pophale) SiO2 
 PCOD9494023
Probable space group: C M M M
;
_chemical_formula_sum "Si O2"
_cell_formula_units_Z 48
_cell_length_a 35.586089
_cell_length_b 9.158574
_cell_length_c 7.680123
_cell_angle_alpha 90.000000
_cell_angle_beta 90.000000
_cell_angle_gamma 90.000000
_cell_volume 2503.089018
_symmetry_space_group_name_H-M "C M M M"
_symmetry_group_IT_number 65
_symmetry_cell_setting 'orthorhombic'
loop_
_space_group_symop_operation_xyz
x,y,z
-x,-y,z
x,-y,-z
-x,y,-z
-x,-y,-z
x,y,-z
-x,y,z
x,-y,z
1/2+x,1/2+y,z
1/2-x,1/2-y,z
1/2+x,1/2-y,-z
1/2-x,1/2+y,-z
1/2-x,1/2-y,-z
1/2+x,1/2+y,-z
1/2-x,1/2+y,z
1/2+x,1/2-y,z
loop_
_atom_site_type_symbol
_atom_site_label
_atom_site_fract_x
_atom_site_fract_y
_atom_site_fract_z
Si Si1 0.425311 0.336524 0.208173
Si Si2 0.658751 0.676624 0.207488
Si Si3 0.500000 0.161278 0.293389
Si Si4 0.790897 0.323692 0.500000
O O1 0.431013 0.500000 0.278742
O O2 0.384051 0.283270 0.263040
O O3 0.461751 0.242645 0.245541
O O4 0.422306 0.347174 0.000000
O O5 0.662371 0.500000 0.230256
O O6 0.687084 0.763283 0.330211
O O7 0.663706 0.705770 0.000000
O O8 0.500000 0.151186 0.500000
O O9 0.500000 0.000000 0.215411
O O10 0.788941 0.500000 0.500000
O O11 0.750000 0.250000 0.500000
#
# Coordination Sequence:
#
# PCOD9494023 Si02
#       4
#    16  16   8   8
#     4   9  19  37  60  83 108 146 196 243 289 345
#     4   9  20  41  67  93 122 157 200 251 304 359
#     4  11  24  35  46  76 120 157 194 239 288 340
#     4  12  26  42  64  93 126 161 198 242 297 362
#
# _framework density 19.176304999999999
#
# number of rings (size 3 to 8) (size 9 to 14) (size 15 to 20)
#    0.000    2.167    0.000    4.500    2.333    6.667 
#    0.000    3.333    0.000    0.000    0.000    0.000 
#    0.000    0.000    0.000    0.000    0.000    0.000 
#
# Total GULP energy -133912.602154 kJ/mol
# GULP energy per Si atom -5579.691756 kJ/mol
# Density = 1.913266 g / cm^3
# Si number density = 19.176305 Si / 1000 Ang^3
#
#
#
# Elastic Constant Matrix: (Units=GPa)
#
#
# Indices 1 2 3 4 5 6 
#
# 1 216.6194 113.3635 67.2018 0.0000 0.0000 0.0000
# 2 113.3635 109.8285 48.3736 0.0000 0.0000 0.0000
# 3 67.2018 48.3736 83.1990 0.0000 0.0000 0.0000
# 4 0.0000 0.0000 0.0000 30.8042 0.0000 0.0000
# 5 0.0000 0.0000 0.0000 0.0000 40.3332 0.0000
# 6 0.0000 0.0000 0.0000 0.0000 0.0000 31.3074
#
#
#
# Elastic Compliance Matrix: (Units=1/GPa)
#
#
# Indices 1 2 3 4 5 6 
#
# 1 0.010550 -0.009593 -0.002944 0.000000 0.000000 0.000000
# 2 -0.009593 0.020962 -0.004439 0.000000 0.000000 0.000000
# 3 -0.002944 -0.004439 0.016978 0.000000 0.000000 0.000000
# 4 0.000000 0.000000 0.000000 0.032463 0.000000 0.000000
# 5 0.000000 0.000000 0.000000 0.000000 0.024793 0.000000
# 6 0.000000 0.000000 0.000000 0.000000 0.000000 0.031941
#
#
# Mechanical properties :
#
#
# Convention : Reuss Voigt Hill
#
# Bulk Modulus (GPa) = 68.78519 96.39163 82.58841
# Shear Modulus (GPa) = 28.33076 32.53615 30.43345
#
# Velocity S-wave (km/s) = 3.84784 4.12355 3.98808
# Velocity P-wave (km/s) = 7.46250 8.54674 8.02296
#
# Compressibility (1/GPa) = 0.01453801
#
# Stress axis : x y z
#
# Youngs Moduli (GPa) = 94.78757 47.70535 58.89829
#
# Poissons Ratio (x) = 0.45763 0.17339
# Poissons Ratio (y) = 0.90928 0.26147
# Poissons Ratio (z) = 0.27905 0.21178
#
# Static dielectric constant tensor:
#      x y z
#    x 1.724190 0.000000 0.000000 
#    y 0.000000 1.688950 0.000000 
#    z 0.000000 0.000000 1.680250 
# 
# From -- ./inp_files/3069.got.cif
#   From: 2010.05.17/outbox.cif.g08.bks.cpg/sg65_2_cif.got.tgz:3069.got - 2010.06.03 17:01:31.
