data_PCOD9494002
_publ_section_title
;
Structure prediction by ZEFSAII (Michael W. Deem and Ramdas Pophale) SiO2 
 PCOD9494002
Probable space group: C M M M
;
_chemical_formula_sum "Si O2"
_cell_formula_units_Z 64
_cell_length_a 18.161296
_cell_length_b 7.974388
_cell_length_c 22.072422
_cell_angle_alpha 90.000000
_cell_angle_beta 90.000000
_cell_angle_gamma 90.000000
_cell_volume 3196.643392
_symmetry_space_group_name_H-M "C M M M"
_symmetry_group_IT_number 65
_symmetry_cell_setting 'orthorhombic'
loop_
_space_group_symop_operation_xyz
x,y,z
-x,-y,z
x,-y,-z
-x,y,-z
-x,-y,-z
x,y,-z
-x,y,z
x,-y,z
1/2+x,1/2+y,z
1/2-x,1/2-y,z
1/2+x,1/2-y,-z
1/2-x,1/2+y,-z
1/2-x,1/2-y,-z
1/2+x,1/2+y,-z
1/2-x,1/2+y,z
1/2+x,1/2-y,z
loop_
_atom_site_type_symbol
_atom_site_label
_atom_site_fract_x
_atom_site_fract_y
_atom_site_fract_z
Si Si1 0.914637 0.195964 0.244085
Si Si2 0.914994 0.201574 0.000000
Si Si3 0.165344 0.692655 0.638414
Si Si4 0.585973 0.500000 0.427512
Si Si5 0.664881 0.802768 0.123676
O O1 0.869978 0.295761 0.294749
O O2 0.877646 0.214994 0.178672
O O3 0.000000 0.248233 0.241772
O O4 0.911922 0.000000 0.261667
O O5 0.873530 0.261846 0.060028
O O6 0.000000 0.258617 0.000000
O O7 0.914441 0.000000 0.000000
O O8 0.160073 0.500000 0.616544
O O9 0.250000 0.750000 0.641539
O O10 0.123322 0.831648 0.598507
O O11 0.500000 0.500000 0.410051
O O12 0.591856 0.500000 0.500000
O O13 0.750000 0.750000 0.121987
O O14 0.660808 0.000000 0.134748
#
# Coordination Sequence:
#
# PCOD9494002 Si02
#       5
#    16   8  16   8  16
#     4  11  23  41  66  96 134 174 219 275 338 401
#     4  11  24  43  64  87 121 161 208 263 330 399
#     4  12  24  44  71 104 140 184 232 286 343 409
#     4  11  26  48  72 104 145 184 230 286 342 408
#     4  12  25  41  62  90 124 166 215 270 327 395
#
# _framework density 20.021000000000001
#
# number of rings (size 3 to 8) (size 9 to 14) (size 15 to 20)
#    0.000    0.500    2.500    6.000    0.000    8.500 
#    0.000    1.250    0.000    0.000    0.000    0.000 
#    0.000    0.000    0.000    0.000    0.000    0.000 
#
# Total GULP energy -179135.459296 kJ/mol
# GULP energy per Si atom -5597.983103 kJ/mol
# Density = 1.997543 g / cm^3
# Si number density = 20.021000 Si / 1000 Ang^3
#
#
#
# Elastic Constant Matrix: (Units=GPa)
#
#
# Indices 1 2 3 4 5 6 
#
# 1 191.6011 58.1711 64.8259 0.0000 0.0000 0.0000
# 2 58.1711 135.8548 35.6443 0.0000 0.0000 0.0000
# 3 64.8259 35.6443 100.7661 0.0000 0.0000 0.0000
# 4 0.0000 0.0000 0.0000 45.2947 0.0000 0.0000
# 5 0.0000 0.0000 0.0000 0.0000 35.0582 0.0000
# 6 0.0000 0.0000 0.0000 0.0000 0.0000 32.9268
#
#
#
# Elastic Compliance Matrix: (Units=1/GPa)
#
#
# Indices 1 2 3 4 5 6 
#
# 1 0.007152 -0.002045 -0.003878 0.000000 0.000000 0.000000
# 2 -0.002045 0.008699 -0.001761 0.000000 0.000000 0.000000
# 3 -0.003878 -0.001761 0.013042 0.000000 0.000000 0.000000
# 4 0.000000 0.000000 0.000000 0.022078 0.000000 0.000000
# 5 0.000000 0.000000 0.000000 0.000000 0.028524 0.000000
# 6 0.000000 0.000000 0.000000 0.000000 0.000000 0.030370
#
#
# Mechanical properties :
#
#
# Convention : Reuss Voigt Hill
#
# Bulk Modulus (GPa) = 73.94208 82.83386 78.38797
# Shear Modulus (GPa) = 38.53844 40.62798 39.58321
#
# Velocity S-wave (km/s) = 4.39213 4.50963 4.45127
# Velocity P-wave (km/s) = 7.92045 8.28124 8.10285
#
# Compressibility (1/GPa) = 0.01352410
#
# Stress axis : x y z
#
# Youngs Moduli (GPa) = 139.82034 114.96140 76.67712
#
# Poissons Ratio (x) = 0.23510 0.29733
# Poissons Ratio (y) = 0.28593 0.13506
# Poissons Ratio (z) = 0.54219 0.20249
#
# Static dielectric constant tensor:
#      x y z
#    x 1.739750 0.000000 0.000000 
#    y 0.000000 1.708600 0.000000 
#    z 0.000000 0.000000 1.711880 
# 
# From -- ./inp_files/69555.got.cif
#   From: 2010.05.17/outbox.cif.g08.bks.cpg/sg65_35_cif.got.tgz:69555.got - 2010.06.03 17:01:31.
