data_PCOD9494781
_publ_section_title
;
Structure prediction by ZEFSAII (Michael W. Deem and Ramdas Pophale) SiO2 
 PCOD9494781
Probable space group: C M M M
;
_chemical_formula_sum "Si O2"
_cell_formula_units_Z 52
_cell_length_a 24.000000
_cell_length_b 27.000000
_cell_length_c 9.000000
_cell_angle_alpha 90.000000
_cell_angle_beta 90.000000
_cell_angle_gamma 90.000000
_cell_volume 5832.000000
_symmetry_space_group_name_H-M "C M M M"
_symmetry_group_IT_number 65
_symmetry_cell_setting 'orthorhombic'
loop_
_space_group_symop_operation_xyz
x,y,z
-x,-y,z
x,-y,-z
-x,y,-z
-x,-y,-z
x,y,-z
-x,y,z
x,-y,z
1/2+x,1/2+y,z
1/2-x,1/2-y,z
1/2+x,1/2-y,-z
1/2-x,1/2+y,-z
1/2-x,1/2-y,-z
1/2+x,1/2+y,-z
1/2-x,1/2+y,z
1/2+x,1/2-y,z
loop_
_atom_site_type_symbol
_atom_site_label
_atom_site_fract_x
_atom_site_fract_y
_atom_site_fract_z
Si Si1 0.436769 0.724620 0.171256
Si Si2 0.747489 0.690271 0.328216
Si Si3 0.067851 0.500000 0.330402
Si Si4 0.639388 0.180054 0.829998
Si Si5 0.371280 0.357671 0.324610
Si Si6 0.937489 0.604628 0.321831
Si Si7 0.436887 0.442224 0.178456
O O1 0.500000 0.742970 0.199575
O O2 0.389411 0.766298 0.184413
O O3 0.419179 0.680983 0.278968
O O4 0.435617 0.706722 0.000000
O O5 0.758424 0.674959 0.500000
O O6 0.750000 0.750000 0.327955
O O7 0.797105 0.676340 0.218936
O O8 0.688209 0.666973 0.282533
O O9 0.089264 0.500000 0.500000
O O10 0.082675 0.448148 0.259230
O O11 0.000000 0.500000 0.338915
O O12 0.604010 0.146375 0.722283
O O13 0.632160 0.164631 0.000000
O O14 0.370095 0.364647 0.500000
O O15 0.389115 0.408249 0.246435
O O16 0.940413 0.599970 0.500000
O O17 0.000000 0.615065 0.267646
O O18 0.500000 0.427026 0.225264
O O19 0.430151 0.500000 0.217451
O O20 0.435238 0.438302 0.000000
#
# Coordination Sequence:
#
# PCOD9494781 Si02
#       7
#    16  16   8  16  16  16  16
#     4  10  21  35  50  73 109 146 174 207 258 322
#     4  10  21  39  57  74 103 141 181 222 264 314
#     4   7  12  26  49  75  99 129 171 209 246 305
#     4  11  22  34  52  77 106 139 179 223 264 313
#     4  11  22  35  56  83 108 138 180 231 272 310
#     4   9  17  31  53  78 105 138 174 214 264 319
#     4   9  19  37  60  85 115 150 181 213 267 338
#
# _framework density 8.9163239999999995
#
# number of rings (size 3 to 8) (size 9 to 14) (size 15 to 20)
#    0.000    2.231    1.538    3.231    0.000    5.846 
#    0.000    1.154    1.692    1.385    0.000    0.000 
#    0.000    0.000    0.000    0.000    0.000    0.000 
#
# Total GULP energy -289573.473249 kJ/mol
# GULP energy per Si atom -5568.720639 kJ/mol
# Density = 0.889603 g / cm^3
# Si number density = 8.916324 Si / 1000 Ang^3
#
#
#
# Elastic Constant Matrix: (Units=GPa)
#
#
# Indices 1 2 3 4 5 6 
#
# 1 96.6577 34.9814 31.7213 0.0000 0.0000 0.0000
# 2 34.9814 43.0271 28.3905 0.0000 0.0000 0.0000
# 3 31.7213 28.3905 19.4551 0.0000 0.0000 0.0000
# 4 0.0000 0.0000 0.0000 51.4703 0.0000 0.0000
# 5 0.0000 0.0000 0.0000 0.0000 52.6668 0.0000
# 6 0.0000 0.0000 0.0000 0.0000 0.0000 43.8275
#
#
#
# Elastic Compliance Matrix: (Units=1/GPa)
#
#
# Indices 1 2 3 4 5 6 
#
# 1 -0.028458 -0.201502 0.340450 0.000000 0.000000 0.000000
# 2 -0.201502 -0.800666 1.496948 0.000000 0.000000 0.000000
# 3 0.340450 1.496948 -2.688175 0.000000 0.000000 0.000000
# 4 0.000000 0.000000 0.000000 0.019429 0.000000 0.000000
# 5 0.000000 0.000000 0.000000 0.000000 0.018987 0.000000
# 6 0.000000 0.000000 0.000000 0.000000 0.000000 0.022817
#
#
# Mechanical properties :
#
#
# Convention : Reuss Voigt Hill
#
# Bulk Modulus (GPa) = -4.07319 38.81405 17.37043
# Shear Modulus (GPa) = -0.73425 33.86268 16.56422
#
# Velocity S-wave (km/s) = -0.64237 4.36238 3.05104
# Velocity P-wave (km/s) = 1.68501 6.86927 4.70890
#
# Compressibility (1/GPa) = -0.24550794
#
# Stress axis : x y z
#
# Youngs Moduli (GPa) = -35.13950 -1.24896 -0.37200
#
# Poissons Ratio (x) = -0.25167 0.12665
# Poissons Ratio (y) = -7.08068 0.55686
# Poissons Ratio (z) = 11.96324 1.86963
#
# Static dielectric constant tensor:
#      x y z
#    x 1.642040 0.000000 0.000000 
#    y 0.000000 1.648380 0.000000 
#    z 0.000000 0.000000 1.603340 
# 
# From -- ./inp_files/14729.got.cif
#   From: 2010.05.17/outbox.ucp.g08.bks.cvg/sg65_8_cif.got.tgz:14729.got - 2010.06.11 16:39:57.
