data_PCOD9494792
_publ_section_title
;
Structure prediction by ZEFSAII (Michael W. Deem and Ramdas Pophale) SiO2 
 PCOD9494792
Probable space group: C M M M
;
_chemical_formula_sum "Si O2"
_cell_formula_units_Z 44
_cell_length_a 9.000000
_cell_length_b 18.000000
_cell_length_c 30.000000
_cell_angle_alpha 90.000000
_cell_angle_beta 90.000000
_cell_angle_gamma 90.000000
_cell_volume 4860.000000
_symmetry_space_group_name_H-M "C M M M"
_symmetry_group_IT_number 65
_symmetry_cell_setting 'orthorhombic'
loop_
_space_group_symop_operation_xyz
x,y,z
-x,-y,z
x,-y,-z
-x,y,-z
-x,-y,-z
x,y,-z
-x,y,z
x,-y,z
1/2+x,1/2+y,z
1/2-x,1/2-y,z
1/2+x,1/2-y,-z
1/2-x,1/2+y,-z
1/2-x,1/2-y,-z
1/2+x,1/2+y,-z
1/2-x,1/2+y,z
1/2+x,1/2-y,z
loop_
_atom_site_type_symbol
_atom_site_label
_atom_site_fract_x
_atom_site_fract_y
_atom_site_fract_z
Si Si1 0.823713 0.912343 0.091004
Si Si2 0.820481 0.830721 0.000000
Si Si3 0.822966 0.669014 0.726907
Si Si4 0.326201 0.589566 0.355058
Si Si5 0.319776 0.588185 0.452047
Si Si6 0.677371 0.831258 0.826768
O O1 0.776084 0.873062 0.045149
O O2 0.738928 0.881365 0.133725
O O3 0.000000 0.897964 0.096948
O O4 0.802462 0.000000 0.086591
O O5 0.750000 0.750000 0.000000
O O6 0.000000 0.826332 0.000000
O O7 0.750000 0.750000 0.723148
O O8 0.762595 0.619889 0.686745
O O9 0.786214 0.640156 0.776799
O O10 0.000000 0.675634 0.724016
O O11 0.500000 0.610525 0.350548
O O12 0.319835 0.500000 0.355833
O O13 0.269623 0.617147 0.403758
O O14 0.268266 0.619554 0.500000
O O15 0.500000 0.593257 0.451397
O O16 0.285228 0.500000 0.452709
O O17 0.500000 0.824543 0.830089
O O18 0.750000 0.750000 0.831032
#
# Coordination Sequence:
#
# PCOD9494792 Si02
#       6
#    16   8  16  16  16  16
#     4  10  21  37  57  81 110 142 173 209 254 300
#     4  10  21  37  57  81 109 142 179 214 250 296
#     4  10  21  36  53  72  98 133 170 210 255 302
#     4   9  17  29  48  75 103 130 163 204 249 300
#     4   7  10  19  38  65  95 125 158 197 241 290
#     4  10  21  37  56  77 101 132 172 214 255 303
#
# _framework density 9.0534979999999994
#
# number of rings (size 3 to 8) (size 9 to 14) (size 15 to 20)
#    0.000    2.727    0.000    3.545    0.000    6.909 
#    0.000    3.636    0.000    2.727    0.000    2.545 
#    0.000    0.000    0.000    0.000    0.000    0.000 
#
# Total GULP energy -245172.337384 kJ/mol
# GULP energy per Si atom -5572.098577 kJ/mol
# Density = 0.903289 g / cm^3
# Si number density = 9.053498 Si / 1000 Ang^3
#
#
#
# Elastic Constant Matrix: (Units=GPa)
#
#
# Indices 1 2 3 4 5 6 
#
# 1 40.6673 30.9280 68.6872 0.0000 0.0000 0.0000
# 2 30.9280 29.1161 58.3910 0.0000 0.0000 0.0000
# 3 68.6872 58.3910 207.7280 0.0000 0.0000 0.0000
# 4 0.0000 0.0000 0.0000 32.2075 0.0000 0.0000
# 5 0.0000 0.0000 0.0000 0.0000 -32.0229 0.0000
# 6 0.0000 0.0000 0.0000 0.0000 0.0000 25.6359
#
#
#
# Elastic Compliance Matrix: (Units=1/GPa)
#
#
# Indices 1 2 3 4 5 6 
#
# 1 0.136521 -0.124889 -0.010037 0.000000 0.000000 0.000000
# 2 -0.124889 0.192970 -0.012947 0.000000 0.000000 0.000000
# 3 -0.010037 -0.012947 0.011772 0.000000 0.000000 0.000000
# 4 0.000000 0.000000 0.000000 0.031049 0.000000 0.000000
# 5 0.000000 0.000000 0.000000 0.000000 -0.031228 0.000000
# 6 0.000000 0.000000 0.000000 0.000000 0.000000 0.039008
#
#
# Mechanical properties :
#
#
# Convention : Reuss Voigt Hill
#
# Bulk Modulus (GPa) = 21.96903 65.94709 43.95806
# Shear Modulus (GPa) = 7.23578 13.13110 10.18344
#
# Velocity S-wave (km/s) = 2.00120 2.69587 2.37408
# Velocity P-wave (km/s) = 4.18318 6.79633 5.64310
#
# Compressibility (1/GPa) = 0.04551862
#
# Stress axis : x y z
#
# Youngs Moduli (GPa) = 7.32487 5.18214 84.94731
#
# Poissons Ratio (x) = 0.64719 0.85258
# Poissons Ratio (y) = 0.91479 1.09982
# Poissons Ratio (z) = 0.07352 0.06709
#
# Static dielectric constant tensor:
#      x y z
#    x 1.603870 0.000000 0.000000 
#    y 0.000000 1.596590 0.000000 
#    z 0.000000 0.000000 1.657890 
# 
# From -- ./inp_files/70957.got.cif
#   From: 2010.05.17/outbox.ucp.g08.bks.cvg/sg65_36_cif.got.tgz:70957.got - 2010.06.11 16:39:57.
