data_PCOD9494084
_publ_section_title
;
Structure prediction by ZEFSAII (Michael W. Deem and Ramdas Pophale) SiO2 
 PCOD9494084
Probable space group: C M M M
;
_chemical_formula_sum "Si O2"
_cell_formula_units_Z 40
_cell_length_a 8.043308
_cell_length_b 14.294564
_cell_length_c 16.017044
_cell_angle_alpha 90.000000
_cell_angle_beta 90.000000
_cell_angle_gamma 90.000000
_cell_volume 1841.568939
_symmetry_space_group_name_H-M "C M M M"
_symmetry_group_IT_number 65
_symmetry_cell_setting 'orthorhombic'
loop_
_space_group_symop_operation_xyz
x,y,z
-x,-y,z
x,-y,-z
-x,y,-z
-x,-y,-z
x,y,-z
-x,y,z
x,-y,z
1/2+x,1/2+y,z
1/2-x,1/2-y,z
1/2+x,1/2-y,-z
1/2-x,1/2+y,-z
1/2-x,1/2-y,-z
1/2+x,1/2+y,-z
1/2-x,1/2+y,z
1/2+x,1/2-y,z
loop_
_atom_site_type_symbol
_atom_site_label
_atom_site_fract_x
_atom_site_fract_y
_atom_site_fract_z
Si Si1 0.196405 0.895655 0.684935
Si Si2 0.000000 0.113083 0.099950
Si Si3 0.750000 0.250000 0.194460
Si Si4 0.197715 0.642534 0.500000
O O1 0.312037 0.825245 0.736149
O O2 0.231214 0.895286 0.586617
O O3 0.000000 0.870997 0.697446
O O4 0.221553 0.000000 0.716464
O O5 0.150452 0.177152 0.136136
O O6 0.000000 0.000000 0.121744
O O7 0.000000 0.115831 0.000000
O O8 0.250000 0.750000 0.500000
O O9 0.000000 0.630401 0.500000
#
# Coordination Sequence:
#
# PCOD9494084 Si02
#       4
#    16   8   8   8
#     4  11  24  43  67  98 139 185 234 288 347 409
#     4  11  26  50  77 106 141 180 227 286 356 430
#     4  12  23  43  74 106 136 180 228 281 349 416
#     4  12  25  40  61  94 134 190 242 294 345 399
#
# _framework density 21.720607999999999
#
# number of rings (size 3 to 8) (size 9 to 14) (size 15 to 20)
#    0.000    0.600    4.000    4.200    2.800    3.200 
#    0.000    3.000    0.000    7.200    0.000    0.000 
#    0.000    0.000    0.000    0.000    0.000    0.000 
#
# Total GULP energy -111340.128726 kJ/mol
# GULP energy per Si atom -5567.006436 kJ/mol
# Density = 2.167117 g / cm^3
# Si number density = 21.720608 Si / 1000 Ang^3
#
#
#
# Elastic Constant Matrix: (Units=GPa)
#
#
# Indices 1 2 3 4 5 6 
#
# 1 84.1055 64.7834 29.1712 0.0000 0.0000 0.0000
# 2 64.7834 225.1127 83.8380 0.0000 0.0000 0.0000
# 3 29.1712 83.8380 171.3243 0.0000 0.0000 0.0000
# 4 0.0000 0.0000 0.0000-2296.0154 0.0000 0.0000
# 5 0.0000 0.0000 0.0000 0.0000 88.1484 0.0000
# 6 0.0000 0.0000 0.0000 0.0000 0.0000 27.1029
#
#
#
# Elastic Compliance Matrix: (Units=1/GPa)
#
#
# Indices 1 2 3 4 5 6 
#
# 1 0.015319 -0.004203 -0.000552 0.000000 0.000000 0.000000
# 2 -0.004203 0.006585 -0.002507 0.000000 0.000000 0.000000
# 3 -0.000552 -0.002507 0.007158 0.000000 0.000000 0.000000
# 4 0.000000 0.000000 0.000000 -0.000436 0.000000 0.000000
# 5 0.000000 0.000000 0.000000 0.000000 0.011344 0.000000
# 6 0.000000 0.000000 0.000000 0.000000 0.000000 0.036896
#
#
# Mechanical properties :
#
#
# Convention : Reuss Voigt Hill
#
# Bulk Modulus (GPa) = 68.78251 92.90308 80.84280
# Shear Modulus (GPa) = 51.95559 -415.96949 -182.00695
#
# Velocity S-wave (km/s) = 4.89611 -13.85370 -9.16387
# Velocity P-wave (km/s) = 7.98111 14.59572 8.64109
#
# Compressibility (1/GPa) = 0.01453858
#
# Stress axis : x y z
#
# Youngs Moduli (GPa) = 65.28042 151.85051 139.71215
#
# Poissons Ratio (x) = 0.63823 0.07705
# Poissons Ratio (y) = 0.27437 0.35025
# Poissons Ratio (z) = 0.03600 0.38068
#
# Static dielectric constant tensor:
#      x y z
#    x 1.919370 0.000000 0.000000 
#    y 0.000000 1.784440 0.000000 
#    z 0.000000 0.000000 1.816030 
# 
# From -- ./inp_files/34778.got.cif
#   From: 2010.05.17/outbox.cif.g08.bks.cpg/sg65_18_cif.got.tgz:34778.got - 2010.06.03 17:01:31.
