data_PCOD9494471
_publ_section_title
;
Structure prediction by ZEFSAII (Michael W. Deem and Ramdas Pophale) SiO2 
 PCOD9494471
Probable space group: C M M M
;
_chemical_formula_sum "Si O2"
_cell_formula_units_Z 80
_cell_length_a 7.790917
_cell_length_b 26.571877
_cell_length_c 24.836989
_cell_angle_alpha 90.000000
_cell_angle_beta 90.000000
_cell_angle_gamma 90.000000
_cell_volume 5141.735785
_symmetry_space_group_name_H-M "C M M M"
_symmetry_group_IT_number 65
_symmetry_cell_setting 'orthorhombic'
loop_
_space_group_symop_operation_xyz
x,y,z
-x,-y,z
x,-y,-z
-x,y,-z
-x,-y,-z
x,y,-z
-x,y,z
x,-y,z
1/2+x,1/2+y,z
1/2-x,1/2-y,z
1/2+x,1/2-y,-z
1/2-x,1/2+y,-z
1/2-x,1/2-y,-z
1/2+x,1/2+y,-z
1/2-x,1/2+y,z
1/2+x,1/2-y,z
loop_
_atom_site_type_symbol
_atom_site_label
_atom_site_fract_x
_atom_site_fract_y
_atom_site_fract_z
Si Si1 0.289871 0.598283 0.629147
Si Si2 0.500000 0.438532 0.061885
Si Si3 0.190588 0.561191 0.137731
Si Si4 0.207675 0.941319 0.742952
Si Si5 0.206483 0.806701 0.561501
Si Si6 0.790301 0.000000 0.438050
O O1 0.500000 0.598395 0.629389
O O2 0.235720 0.589556 0.690697
O O3 0.231006 0.649544 0.600958
O O4 0.237096 0.550093 0.593646
O O5 0.500000 0.500000 0.061338
O O6 0.665723 0.422146 0.095826
O O7 0.500000 0.422066 0.000000
O O8 0.198671 0.500000 0.138927
O O9 0.226022 0.576745 0.199285
O O10 0.000000 0.576064 0.121193
O O11 0.000000 0.940617 0.745343
O O12 0.258202 0.000000 0.735440
O O13 0.270239 0.813759 0.500000
O O14 0.250000 0.750000 0.578468
O O15 0.000000 0.810692 0.559601
O O16 0.733961 0.000000 0.500000
O O17 0.000000 0.000000 0.438302
#
# Coordination Sequence:
#
# PCOD9494471 Si02
#       6
#    16   8  16  16  16   8
#     4   9  15  23  37  59  79 103 134 171 216 263
#     4   9  16  26  38  54  76 106 144 184 218 244
#     4   9  16  25  37  54  76 106 141 177 214 252
#     4   9  14  23  38  54  77 103 132 168 213 262
#     4   9  17  29  43  58  77 103 137 175 212 257
#     4   9  14  20  32  56  85 103 123 167 223 266
#
# _framework density 15.558947999999999
#
# number of rings (size 3 to 8) (size 9 to 14) (size 15 to 20)
#    0.000    3.000    2.000    0.600    0.000    2.800 
#    0.000    3.000    0.000    0.000    0.000    0.000 
#    0.000    4.800    0.000    0.000    0.000    1.000 
#
# Total GULP energy -222882.364477 kJ/mol
# GULP energy per Si atom -5572.059112 kJ/mol
# Density = 1.552353 g / cm^3
# Si number density = 15.558948 Si / 1000 Ang^3
#
#
#
# Elastic Constant Matrix: (Units=GPa)
#
#
# Indices 1 2 3 4 5 6 
#
# 1 54.3166 18.4742 50.8906 0.0000 0.0000 0.0000
# 2 18.4742 69.7373 54.7754 0.0000 0.0000 0.0000
# 3 50.8906 54.7754 149.6229 0.0000 0.0000 0.0000
# 4 0.0000 0.0000 0.0000 10.9037 0.0000 0.0000
# 5 0.0000 0.0000 0.0000 0.0000 -1.2212 0.0000
# 6 0.0000 0.0000 0.0000 0.0000 0.0000 8.7831
#
#
#
# Elastic Compliance Matrix: (Units=1/GPa)
#
#
# Indices 1 2 3 4 5 6 
#
# 1 0.027022 0.000085 -0.009222 0.000000 0.000000 0.000000
# 2 0.000085 0.020127 -0.007397 0.000000 0.000000 0.000000
# 3 -0.009222 -0.007397 0.012528 0.000000 0.000000 0.000000
# 4 0.000000 0.000000 0.000000 0.091712 0.000000 0.000000
# 5 0.000000 0.000000 0.000000 0.000000 -0.818840 0.000000
# 6 0.000000 0.000000 0.000000 0.000000 0.000000 0.113856
#
#
# Mechanical properties :
#
#
# Convention : Reuss Voigt Hill
#
# Bulk Modulus (GPa) = 37.58148 57.99525 47.78836
# Shear Modulus (GPa) = -9.77218 13.66220 1.94501
#
# Velocity S-wave (km/s) = -2.50886 2.96648 1.11929
# Velocity P-wave (km/s) = 3.97670 7.00634 5.69662
#
# Compressibility (1/GPa) = 0.02660885
#
# Stress axis : x y z
#
# Youngs Moduli (GPa) = 37.00694 49.68390 79.82004
#
# Poissons Ratio (x) = -0.00422 0.73610
# Poissons Ratio (y) = -0.00315 0.59045
# Poissons Ratio (z) = 0.34128 0.36753
#
# Static dielectric constant tensor:
#      x y z
#    x 1.574370 0.000000 0.000000 
#    y 0.000000 1.482890 0.000000 
#    z 0.000000 0.000000 1.516730 
# 
# From -- ./inp_files/67981.got.cif
#   From: 2010.05.17/outbox.cif.g08.bks.cpg/sg65_34_cif.got.tgz:67981.got - 2010.06.03 17:01:31.
