data_PCOD9494293
_publ_section_title
;
Structure prediction by ZEFSAII (Michael W. Deem and Ramdas Pophale) SiO2 
 PCOD9494293
Probable space group: C M M M
;
_chemical_formula_sum "Si O2"
_cell_formula_units_Z 88
_cell_length_a 7.350390
_cell_length_b 14.618287
_cell_length_c 31.633079
_cell_angle_alpha 90.000000
_cell_angle_beta 90.000000
_cell_angle_gamma 90.000000
_cell_volume 3398.977837
_symmetry_space_group_name_H-M "C M M M"
_symmetry_group_IT_number 65
_symmetry_cell_setting 'orthorhombic'
loop_
_space_group_symop_operation_xyz
x,y,z
-x,-y,z
x,-y,-z
-x,y,-z
-x,-y,-z
x,y,-z
-x,y,z
x,-y,z
1/2+x,1/2+y,z
1/2-x,1/2-y,z
1/2+x,1/2-y,-z
1/2-x,1/2+y,-z
1/2-x,1/2-y,-z
1/2+x,1/2+y,-z
1/2-x,1/2+y,z
1/2+x,1/2-y,z
loop_
_atom_site_type_symbol
_atom_site_label
_atom_site_fract_x
_atom_site_fract_y
_atom_site_fract_z
Si Si1 0.217685 0.606441 0.545110
Si Si2 0.716653 0.357828 0.818123
Si Si3 0.716244 0.604319 0.363039
Si Si4 0.282384 0.359727 0.000000
Si Si5 0.293995 0.391091 0.725592
Si Si6 0.217768 0.140198 0.091078
O O1 0.284381 0.645220 0.500000
O O2 0.280657 0.500000 0.545968
O O3 0.261374 0.647556 0.590803
O O4 0.000000 0.605544 0.543377
O O5 0.500000 0.379427 0.817180
O O6 0.750000 0.250000 0.820664
O O7 0.791613 0.382093 0.771906
O O8 0.786174 0.394303 0.863360
O O9 0.500000 0.599439 0.356565
O O10 0.788577 0.500000 0.367223
O O11 0.788900 0.644080 0.318654
O O12 0.250000 0.250000 0.000000
O O13 0.213119 0.393558 0.045536
O O14 0.500000 0.375007 0.000000
O O15 0.500000 0.352431 0.729605
O O16 0.306357 0.500000 0.718927
O O17 0.250000 0.250000 0.090723
O O18 0.000000 0.125480 0.091285
#
# Coordination Sequence:
#
# PCOD9494293 Si02
#       6
#    16  16  16   8  16  16
#     4   8  13  20  29  43  66  94 118 140 173 218
#     4   9  16  26  40  57  77 100 126 157 192 227
#     4   8  13  21  33  48  65  87 118 153 181 206
#     4   8  12  18  28  44  67  91 115 143 177 218
#     4   8  14  25  40  56  74  99 131 161 186 218
#     4   8  13  20  31  48  69  93 118 146 182 220
#
# _framework density 25.890134
#
# number of rings (size 3 to 8) (size 9 to 14) (size 15 to 20)
#    0.000    3.818    0.000    1.636    0.000    0.364 
#    0.000    2.727    0.000    1.636    0.000    0.636 
#    0.000    5.818    0.000    1.636    0.000  177.273 
#
# Total GULP energy -244982.447970 kJ/mol
# GULP energy per Si atom -5567.782908 kJ/mol
# Density = 2.583121 g / cm^3
# Si number density = 25.890134 Si / 1000 Ang^3
#
#
#
# Elastic Constant Matrix: (Units=GPa)
#
#
# Indices 1 2 3 4 5 6 
#
# 1 106.3236 -9.9406 17.4803 0.0000 0.0000 0.0000
# 2 -9.9406 84.1976 19.8314 0.0000 0.0000 0.0000
# 3 17.4803 19.8314 427.7459 0.0000 0.0000 0.0000
# 4 0.0000 0.0000 0.0000 9.2452 0.0000 0.0000
# 5 0.0000 0.0000 0.0000 0.0000 13.8328 0.0000
# 6 0.0000 0.0000 0.0000 0.0000 0.0000 -12.0492
#
#
#
# Elastic Compliance Matrix: (Units=1/GPa)
#
#
# Indices 1 2 3 4 5 6 
#
# 1 0.009595 0.001239 -0.000450 0.000000 0.000000 0.000000
# 2 0.001239 0.012168 -0.000615 0.000000 0.000000 0.000000
# 3 -0.000450 -0.000615 0.002385 0.000000 0.000000 0.000000
# 4 0.000000 0.000000 0.000000 0.108164 0.000000 0.000000
# 5 0.000000 0.000000 0.000000 0.000000 0.072292 0.000000
# 6 0.000000 0.000000 0.000000 0.000000 0.000000 -0.082993
#
#
# Mechanical properties :
#
#
# Convention : Reuss Voigt Hill
#
# Bulk Modulus (GPa) = 40.82246 74.77881 57.80063
# Shear Modulus (GPa) = 38.63183 41.59884 40.11533
#
# Velocity S-wave (km/s) = 3.86702 4.01277 3.94057
# Velocity P-wave (km/s) = 5.97832 7.10039 6.56338
#
# Compressibility (1/GPa) = 0.02449632
#
# Stress axis : x y z
#
# Youngs Moduli (GPa) = 104.22137 82.18373 419.33837
#
# Poissons Ratio (x) = -0.10180 0.18851
# Poissons Ratio (y) = -0.12910 0.25779
# Poissons Ratio (z) = 0.04685 0.05052
#
# Static dielectric constant tensor:
#      x y z
#    x 2.314710 0.000000 0.000000 
#    y 0.000000 2.167480 0.000000 
#    z 0.000000 0.000000 2.187540 
# 
# From -- ./inp_files/76778.got.cif
#   From: 2010.05.17/outbox.cif.g08.bks.cpg/sg65_39_cif.got.tgz:76778.got - 2010.06.03 17:01:31.
