data_PCOD9494753
_publ_section_title
;
Structure prediction by ZEFSAII (Michael W. Deem and Ramdas Pophale) SiO2 
 PCOD9494753
Probable space group: C M M M
;
_chemical_formula_sum "Si O2"
_cell_formula_units_Z 36
_cell_length_a 15.000000
_cell_length_b 9.000000
_cell_length_c 27.000000
_cell_angle_alpha 90.000000
_cell_angle_beta 90.000000
_cell_angle_gamma 90.000000
_cell_volume 3645.000000
_symmetry_space_group_name_H-M "C M M M"
_symmetry_group_IT_number 65
_symmetry_cell_setting 'orthorhombic'
loop_
_space_group_symop_operation_xyz
x,y,z
-x,-y,z
x,-y,-z
-x,y,-z
-x,-y,-z
x,y,-z
-x,y,z
x,-y,z
1/2+x,1/2+y,z
1/2-x,1/2-y,z
1/2+x,1/2-y,-z
1/2-x,1/2+y,-z
1/2-x,1/2-y,-z
1/2+x,1/2+y,-z
1/2-x,1/2+y,z
1/2+x,1/2-y,z
loop_
_atom_site_type_symbol
_atom_site_label
_atom_site_fract_x
_atom_site_fract_y
_atom_site_fract_z
Si Si1 0.103731 0.181353 0.500000
Si Si2 0.000000 0.172779 0.678197
Si Si3 0.839127 0.178670 0.838850
Si Si4 0.164736 0.825372 0.393818
Si Si5 0.500000 0.824378 0.781025
Si Si6 0.105446 0.179566 0.946684
O O1 0.145983 0.235751 0.551057
O O2 0.000000 0.220522 0.500000
O O3 0.107430 0.000000 0.500000
O O4 0.083084 0.195054 0.642386
O O5 0.000000 0.283136 0.723630
O O6 0.000000 0.000000 0.695786
O O7 0.750000 0.250000 0.818904
O O8 0.917360 0.245725 0.806973
O O9 0.850859 0.230402 0.896025
O O10 0.839408 0.000000 0.837591
O O11 0.250000 0.750000 0.371416
O O12 0.179893 0.000000 0.399329
O O13 0.500000 0.000000 0.789222
O O14 0.000000 0.212554 0.943662
O O15 0.113106 0.000000 0.947447
O O16 0.138616 0.236701 0.000000
#
# Coordination Sequence:
#
# PCOD9494753 Si02
#       6
#     8   8  16  16   8  16
#     4   9  15  30  57  86 117 156 197 227 270 342
#     4  10  22  41  62  83 111 154 198 240 294 355
#     4  11  22  39  63  91 121 157 197 243 295 355
#     4  10  20  35  59  88 119 154 192 235 283 342
#     4  12  26  44  64  86 115 153 200 257 308 355
#     4   8  14  28  54  86 118 154 192 231 284 348
#
# _framework density 9.8765429999999999
#
# number of rings (size 3 to 8) (size 9 to 14) (size 15 to 20)
#    0.000    2.111    2.222    2.667    0.000    2.222 
#    0.000    2.222    0.000    3.333    0.000    0.000 
#    0.000    0.000    0.000    0.000    0.000    0.000 
#
# Total GULP energy -200708.728683 kJ/mol
# GULP energy per Si atom -5575.242463 kJ/mol
# Density = 0.985406 g / cm^3
# Si number density = 9.876543 Si / 1000 Ang^3
#
#
#
# Elastic Constant Matrix: (Units=GPa)
#
#
# Indices 1 2 3 4 5 6 
#
# 1 126.3399 54.1854 16.9134 0.0000 0.0000 0.0000
# 2 54.1854 46.5086 55.6745 0.0000 0.0000 0.0000
# 3 16.9134 55.6745 39.7628 0.0000 0.0000 0.0000
# 4 0.0000 0.0000 0.0000 -54.6518 0.0000 0.0000
# 5 0.0000 0.0000 0.0000 0.0000 638.6323 0.0000
# 6 0.0000 0.0000 0.0000 0.0000 0.0000 9.8793
#
#
#
# Elastic Compliance Matrix: (Units=1/GPa)
#
#
# Indices 1 2 3 4 5 6 
#
# 1 0.006723 0.006522 -0.011992 0.000000 0.000000 0.000000
# 2 0.006522 -0.025475 0.032895 0.000000 0.000000 0.000000
# 3 -0.011992 0.032895 -0.015808 0.000000 0.000000 0.000000
# 4 0.000000 0.000000 0.000000 -0.018298 0.000000 0.000000
# 5 0.000000 0.000000 0.000000 0.000000 0.001566 0.000000
# 6 0.000000 0.000000 0.000000 0.000000 0.000000 0.101222
#
#
# Mechanical properties :
#
#
# Convention : Reuss Voigt Hill
#
# Bulk Modulus (GPa) = 49.28439 51.79531 50.53985
# Shear Modulus (GPa) = 2711.77350 124.49449 1418.13400
#
# Velocity S-wave (km/s) = 37.09199 7.94746 26.82329
# Velocity P-wave (km/s) = 43.12105 10.51164 31.38407
#
# Compressibility (1/GPa) = 0.02029040
#
# Stress axis : x y z
#
# Youngs Moduli (GPa) = 148.73674 -39.25457 -63.25892
#
# Poissons Ratio (x) = 0.25602 -0.75859
# Poissons Ratio (y) = -0.97007 2.08088
# Poissons Ratio (z) = 1.78362 1.29127
#
# Static dielectric constant tensor:
#      x y z
#    x 0.975710 0.000000 0.000000 
#    y 0.000000 1.643720 0.000000 
#    z 0.000000 0.000000 1.708260 
# 
# From -- ./inp_files/74644.got.cif
#   From: 2010.05.17/outbox.ucp.g08.bks.cvg/sg65_38_cif.got.tgz:74644.got - 2010.06.11 16:39:57.
