data_PCOD9494354
_publ_section_title
;
Structure prediction by ZEFSAII (Michael W. Deem and Ramdas Pophale) SiO2 
 PCOD9494354
Probable space group: C M M M
;
_chemical_formula_sum "Si O2"
_cell_formula_units_Z 120
_cell_length_a 14.144855
_cell_length_b 23.177539
_cell_length_c 22.315302
_cell_angle_alpha 90.000000
_cell_angle_beta 90.000000
_cell_angle_gamma 90.000000
_cell_volume 7315.913956
_symmetry_space_group_name_H-M "C M M M"
_symmetry_group_IT_number 65
_symmetry_cell_setting 'orthorhombic'
loop_
_space_group_symop_operation_xyz
x,y,z
-x,-y,z
x,-y,-z
-x,y,-z
-x,-y,-z
x,y,-z
-x,y,z
x,-y,z
1/2+x,1/2+y,z
1/2-x,1/2-y,z
1/2+x,1/2-y,-z
1/2-x,1/2+y,-z
1/2-x,1/2-y,-z
1/2+x,1/2+y,-z
1/2-x,1/2+y,z
1/2+x,1/2-y,z
loop_
_atom_site_type_symbol
_atom_site_label
_atom_site_fract_x
_atom_site_fract_y
_atom_site_fract_z
Si Si1 0.614316 0.067408 0.183363
Si Si2 0.615595 0.857792 0.068127
Si Si3 0.887148 0.569046 0.565054
Si Si4 0.606738 0.568130 0.733645
Si Si5 0.615033 0.274923 0.067866
Si Si6 0.384313 0.500000 0.068778
Si Si7 0.696146 0.930885 0.311458
Si Si8 0.114189 0.114399 0.137311
O O1 0.500000 0.069836 0.187020
O O2 0.644527 0.103147 0.124574
O O3 0.654911 0.089151 0.247253
O O4 0.641559 0.000000 0.176294
O O5 0.500000 0.859390 0.067309
O O6 0.644019 0.791039 0.078381
O O7 0.645437 0.874648 0.000000
O O8 0.853429 0.591583 0.500000
O O9 0.867704 0.500000 0.564873
O O10 0.846816 0.593058 0.627196
O O11 0.000000 0.575433 0.566818
O O12 0.500000 0.581072 0.713621
O O13 0.608470 0.500000 0.750662
O O14 0.691271 0.577405 0.687986
O O15 0.630407 0.603744 0.793031
O O16 0.500000 0.274172 0.070101
O O17 0.648650 0.324941 0.111865
O O18 0.641543 0.290971 0.000000
O O19 0.500000 0.500000 0.070624
O O20 0.352288 0.441700 0.101188
O O21 0.355314 0.500000 0.000000
O O22 0.676653 0.000000 0.310753
O O23 0.000000 0.114632 0.130081
#
# Coordination Sequence:
#
# PCOD9494354 Si02
#       8
#    16  16  16  16  16   8  16  16
#     4   9  16  25  39  60  81 101 130 169 210 252
#     4   8  14  24  37  54  76 102 132 166 207 258
#     4   8  13  22  38  61  88 114 138 164 196 240
#     4   9  16  26  38  53  75 105 138 170 203 242
#     4   8  13  21  34  52  72  96 130 169 211 262
#     4   9  14  18  28  48  70  90 120 169 222 262
#     4   9  16  25  39  58  80 109 137 167 202 242
#     4   9  14  21  33  50  71  96 129 171 214 253
#
# _framework density 16.402598000000001
#
# number of rings (size 3 to 8) (size 9 to 14) (size 15 to 20)
#    0.000    3.400    0.667    2.000    0.000    3.467 
#    0.000    1.333    0.000    2.800    0.000    4.667 
#    0.000    0.000    0.000    2.400    0.000   21.600 
#
# Total GULP energy -334150.300355 kJ/mol
# GULP energy per Si atom -5569.171673 kJ/mol
# Density = 1.636527 g / cm^3
# Si number density = 16.402598 Si / 1000 Ang^3
#
#
#
# Elastic Constant Matrix: (Units=GPa)
#
#
# Indices 1 2 3 4 5 6 
#
# 1 40.1398 15.2185 36.7520 0.0000 0.0000 0.0000
# 2 15.2185 38.3858 44.4240 0.0000 0.0000 0.0000
# 3 36.7520 44.4240 127.8934 0.0000 0.0000 0.0000
# 4 0.0000 0.0000 0.0000 3.2024 0.0000 0.0000
# 5 0.0000 0.0000 0.0000 0.0000 10.0053 0.0000
# 6 0.0000 0.0000 0.0000 0.0000 0.0000 5.5101
#
#
#
# Elastic Compliance Matrix: (Units=1/GPa)
#
#
# Indices 1 2 3 4 5 6 
#
# 1 0.034110 -0.003645 -0.008536 0.000000 0.000000 0.000000
# 2 -0.003645 0.043953 -0.014220 0.000000 0.000000 0.000000
# 3 -0.008536 -0.014220 0.015211 0.000000 0.000000 0.000000
# 4 0.000000 0.000000 0.000000 0.312262 0.000000 0.000000
# 5 0.000000 0.000000 0.000000 0.000000 0.099947 0.000000
# 6 0.000000 0.000000 0.000000 0.000000 0.000000 0.181485
#
#
# Mechanical properties :
#
#
# Convention : Reuss Voigt Hill
#
# Bulk Modulus (GPa) = 24.70756 44.35645 34.53200
# Shear Modulus (GPa) = 6.63781 11.07854 8.85817
#
# Velocity S-wave (km/s) = 2.01385 2.60169 2.32641
# Velocity P-wave (km/s) = 4.52806 6.01050 5.32116
#
# Compressibility (1/GPa) = 0.04047345
#
# Stress axis : x y z
#
# Youngs Moduli (GPa) = 29.31654 22.75173 65.74084
#
# Poissons Ratio (x) = 0.08292 0.56118
# Poissons Ratio (y) = 0.10685 0.93482
# Poissons Ratio (z) = 0.25025 0.32352
#
# Static dielectric constant tensor:
#      x y z
#    x 1.612320 0.000000 0.000000 
#    y 0.000000 1.543260 0.000000 
#    z 0.000000 0.000000 1.579140 
# 
# From -- ./inp_files/63140.got.cif
#   From: 2010.05.17/outbox.cif.g08.bks.cpg/sg65_32_cif.got.tgz:63140.got - 2010.06.03 17:01:31.
