data_PCOD9494014
_publ_section_title
;
Structure prediction by ZEFSAII (Michael W. Deem and Ramdas Pophale) SiO2 
 PCOD9494014
Probable space group: C M M M
;
_chemical_formula_sum "Si O2"
_cell_formula_units_Z 64
_cell_length_a 22.592814
_cell_length_b 10.539019
_cell_length_c 12.961634
_cell_angle_alpha 90.000000
_cell_angle_beta 90.000000
_cell_angle_gamma 90.000000
_cell_volume 3086.244070
_symmetry_space_group_name_H-M "C M M M"
_symmetry_group_IT_number 65
_symmetry_cell_setting 'orthorhombic'
loop_
_space_group_symop_operation_xyz
x,y,z
-x,-y,z
x,-y,-z
-x,y,-z
-x,-y,-z
x,y,-z
-x,y,z
x,-y,z
1/2+x,1/2+y,z
1/2-x,1/2-y,z
1/2+x,1/2-y,-z
1/2-x,1/2+y,-z
1/2-x,1/2-y,-z
1/2+x,1/2+y,-z
1/2-x,1/2+y,z
1/2+x,1/2-y,z
loop_
_atom_site_type_symbol
_atom_site_label
_atom_site_fract_x
_atom_site_fract_y
_atom_site_fract_z
Si Si1 0.434402 0.000000 0.122566
Si Si2 0.801486 0.146804 0.000000
Si Si3 0.696903 0.500000 0.377678
Si Si4 0.065111 0.000000 0.279455
Si Si5 0.811399 0.645702 0.619796
Si Si6 0.120032 0.235521 0.808232
O O1 0.402839 0.129923 0.152189
O O2 0.500000 0.000000 0.169097
O O3 0.438287 0.000000 0.000000
O O4 0.750000 0.250000 0.000000
O O5 0.838737 0.173521 0.896152
O O6 0.781218 0.000000 0.000000
O O7 0.691922 0.500000 0.500000
O O8 0.630417 0.500000 0.335025
O O9 0.742217 0.383515 0.352832
O O10 0.070515 0.869968 0.215085
O O11 0.000000 0.000000 0.332610
O O12 0.816055 0.688011 0.500000
O O13 0.836206 0.500000 0.622264
O O14 0.846926 0.726283 0.702455
#
# Coordination Sequence:
#
# PCOD9494014 Si02
#       6
#     8   8   8   8  16  16
#     4  11  23  42  70  99 128 179 242 291 334 410
#     4  12  30  46  69 106 146 182 223 284 371 424
#     4   8  19  42  68  99 136 177 228 283 345 417
#     4  12  28  43  62  96 143 194 232 282 342 415
#     4   8  18  39  72 107 134 172 224 290 359 418
#     4  12  24  45  71 100 143 178 229 290 354 427
#
# _framework density 20.737179999999999
#
# number of rings (size 3 to 8) (size 9 to 14) (size 15 to 20)
#    0.750    0.875    3.750    0.750    5.250    1.250 
#    0.000    3.125    0.000    3.000    0.000    0.000 
#    0.000    0.000    0.000    0.000    0.000    0.000 
#
# Total GULP energy -178391.099719 kJ/mol
# GULP energy per Si atom -5574.721866 kJ/mol
# Density = 2.068998 g / cm^3
# Si number density = 20.737180 Si / 1000 Ang^3
#
#
#
# Elastic Constant Matrix: (Units=GPa)
#
#
# Indices 1 2 3 4 5 6 
#
# 1 109.6355 53.7558 39.7529 0.0000 0.0000 0.0000
# 2 53.7558 173.6205 39.9620 0.0000 0.0000 0.0000
# 3 39.7529 39.9620 88.5084 0.0000 0.0000 0.0000
# 4 0.0000 0.0000 0.0000 -39.9365 0.0000 0.0000
# 5 0.0000 0.0000 0.0000 0.0000 16.3515 0.0000
# 6 0.0000 0.0000 0.0000 0.0000 0.0000 18.9411
#
#
#
# Elastic Compliance Matrix: (Units=1/GPa)
#
#
# Indices 1 2 3 4 5 6 
#
# 1 0.011970 -0.002755 -0.004132 0.000000 0.000000 0.000000
# 2 -0.002755 0.007062 -0.001951 0.000000 0.000000 0.000000
# 3 -0.004132 -0.001951 0.014035 0.000000 0.000000 0.000000
# 4 0.000000 0.000000 0.000000 -0.025040 0.000000 0.000000
# 5 0.000000 0.000000 0.000000 0.000000 0.061156 0.000000
# 6 0.000000 0.000000 0.000000 0.000000 0.000000 0.052795
#
#
# Mechanical properties :
#
#
# Convention : Reuss Voigt Hill
#
# Bulk Modulus (GPa) = 64.97570 70.96729 67.97150
# Shear Modulus (GPa) = 34.53359 14.95747 24.74553
#
# Velocity S-wave (km/s) = 4.08523 2.68859 3.45815
# Velocity P-wave (km/s) = 7.32483 6.62832 6.98526
#
# Compressibility (1/GPa) = 0.01539037
#
# Stress axis : x y z
#
# Youngs Moduli (GPa) = 83.53950 141.60773 71.24878
#
# Poissons Ratio (x) = 0.39014 0.29443
# Poissons Ratio (y) = 0.23016 0.13901
# Poissons Ratio (z) = 0.34523 0.27628
#
# Static dielectric constant tensor:
#      x y z
#    x 1.760180 0.000000 0.000000 
#    y 0.000000 1.925580 0.000000 
#    z 0.000000 0.000000 1.723810 
# 
# From -- ./inp_files/46454.got.cif
#   From: 2010.05.17/outbox.cif.g08.bks.cpg/sg65_24_cif.got.tgz:46454.got - 2010.06.03 17:01:31.
