data_PCOD9494318
_publ_section_title
;
Structure prediction by ZEFSAII (Michael W. Deem and Ramdas Pophale) SiO2 
 PCOD9494318
Probable space group: C M M M
;
_chemical_formula_sum "Si O2"
_cell_formula_units_Z 80
_cell_length_a 14.424718
_cell_length_b 7.512181
_cell_length_c 31.871109
_cell_angle_alpha 90.000000
_cell_angle_beta 90.000000
_cell_angle_gamma 90.000000
_cell_volume 3453.588190
_symmetry_space_group_name_H-M "C M M M"
_symmetry_group_IT_number 65
_symmetry_cell_setting 'orthorhombic'
loop_
_space_group_symop_operation_xyz
x,y,z
-x,-y,z
x,-y,-z
-x,y,-z
-x,-y,-z
x,y,-z
-x,y,z
x,-y,z
1/2+x,1/2+y,z
1/2-x,1/2-y,z
1/2+x,1/2-y,-z
1/2-x,1/2+y,-z
1/2-x,1/2-y,-z
1/2+x,1/2+y,-z
1/2-x,1/2+y,z
1/2+x,1/2-y,z
loop_
_atom_site_type_symbol
_atom_site_label
_atom_site_fract_x
_atom_site_fract_y
_atom_site_fract_z
Si Si1 0.141422 0.286833 0.544953
Si Si2 0.109760 0.701215 0.363153
Si Si3 0.387110 0.793170 0.727773
Si Si4 0.887059 0.703973 0.046704
Si Si5 0.113751 0.000000 0.792845
Si Si6 0.613633 0.500000 0.888579
O O1 0.102787 0.221497 0.500000
O O2 0.121349 0.500000 0.546132
O O3 0.250000 0.250000 0.542326
O O4 0.118614 0.212991 0.591025
O O5 0.150168 0.500000 0.366105
O O6 0.141911 0.777475 0.318555
O O7 0.000000 0.683903 0.357975
O O8 0.500000 0.788525 0.729123
O O9 0.356051 0.670413 0.765761
O O10 0.360280 0.000000 0.731200
O O11 0.857564 0.500000 0.051739
O O12 0.857028 0.829911 0.084206
O O13 0.000000 0.704782 0.047007
O O14 0.859873 0.767162 0.000000
O O15 0.146033 0.000000 0.840723
O O16 0.000000 0.000000 0.793917
O O17 0.500000 0.500000 0.887533
#
# Coordination Sequence:
#
# PCOD9494318 Si02
#       6
#    16  16  16  16   8   8
#     4   9  17  29  44  62  86 111 132 160 202 251
#     4   8  14  26  44  62  78 102 137 170 200 240
#     4   8  14  25  38  51  70  93 119 156 196 235
#     4   8  13  20  28  37  51  75 109 148 189 231
#     4   9  16  23  32  49  69  90 117 150 198 251
#     4   9  15  20  27  40  58  79 106 143 189 242
#
# _framework density 23.164313
#
# number of rings (size 3 to 8) (size 9 to 14) (size 15 to 20)
#    0.000    3.600    0.000    2.100    0.000    2.400 
#    1.800    6.000    0.000    0.000    0.000    2.800 
#    0.000    0.000    0.000    0.000    0.000    0.000 
#
# Total GULP energy -222937.181938 kJ/mol
# GULP energy per Si atom -5573.429548 kJ/mol
# Density = 2.311159 g / cm^3
# Si number density = 23.164313 Si / 1000 Ang^3
#
#
#
# Elastic Constant Matrix: (Units=GPa)
#
#
# Indices 1 2 3 4 5 6 
#
# 1 60.4084 -0.6669 5.9177 0.0000 0.0000 0.0000
# 2 -0.6669 104.8871 108.2244 0.0000 0.0000 0.0000
# 3 5.9177 108.2244 315.1589 0.0000 0.0000 0.0000
# 4 0.0000 0.0000 0.0000 176.0695 0.0000 0.0000
# 5 0.0000 0.0000 0.0000 0.0000 29.2226 0.0000
# 6 0.0000 0.0000 0.0000 0.0000 0.0000 1.5011
#
#
#
# Elastic Compliance Matrix: (Units=1/GPa)
#
#
# Indices 1 2 3 4 5 6 
#
# 1 0.016614 0.000662 -0.000539 0.000000 0.000000 0.000000
# 2 0.000662 0.014792 -0.005092 0.000000 0.000000 0.000000
# 3 -0.000539 -0.005092 0.004932 0.000000 0.000000 0.000000
# 4 0.000000 0.000000 0.000000 0.005680 0.000000 0.000000
# 5 0.000000 0.000000 0.000000 0.000000 0.034220 0.000000
# 6 0.000000 0.000000 0.000000 0.000000 0.000000 0.666173
#
#
# Mechanical properties :
#
#
# Convention : Reuss Voigt Hill
#
# Bulk Modulus (GPa) = 37.87924 78.60053 58.23988
# Shear Modulus (GPa) = 6.56901 65.82393 36.19647
#
# Velocity S-wave (km/s) = 1.68582 5.33646 3.95726
# Velocity P-wave (km/s) = 4.49191 8.48385 6.78797
#
# Compressibility (1/GPa) = 0.02639969
#
# Stress axis : x y z
#
# Youngs Moduli (GPa) = 60.18967 67.60241 202.76853
#
# Poissons Ratio (x) = -0.04476 0.10936
# Poissons Ratio (y) = -0.03985 1.03251
# Poissons Ratio (z) = 0.03246 0.34424
#
# Static dielectric constant tensor:
#      x y z
#    x 1.901640 0.000000 0.000000 
#    y 0.000000 1.960420 0.000000 
#    z 0.000000 0.000000 1.880600 
# 
# From -- ./inp_files/67387.got.cif
#   From: 2010.05.17/outbox.cif.g08.bks.cpg/sg65_34_cif.got.tgz:67387.got - 2010.06.03 17:01:31.
