data_PCOD9494703
_publ_section_title
;
Structure prediction by ZEFSAII (Michael W. Deem and Ramdas Pophale) SiO2 
 PCOD9494703
Probable space group: C M M M
;
_chemical_formula_sum "Si O2"
_cell_formula_units_Z 48
_cell_length_a 24.000000
_cell_length_b 24.000000
_cell_length_c 9.000000
_cell_angle_alpha 90.000000
_cell_angle_beta 90.000000
_cell_angle_gamma 90.000000
_cell_volume 5184.000000
_symmetry_space_group_name_H-M "C M M M"
_symmetry_group_IT_number 65
_symmetry_cell_setting 'orthorhombic'
loop_
_space_group_symop_operation_xyz
x,y,z
-x,-y,z
x,-y,-z
-x,y,-z
-x,-y,-z
x,y,-z
-x,y,z
x,-y,z
1/2+x,1/2+y,z
1/2-x,1/2-y,z
1/2+x,1/2-y,-z
1/2-x,1/2+y,-z
1/2-x,1/2-y,-z
1/2+x,1/2+y,-z
1/2-x,1/2+y,z
1/2+x,1/2-y,z
loop_
_atom_site_type_symbol
_atom_site_label
_atom_site_fract_x
_atom_site_fract_y
_atom_site_fract_z
Si Si1 0.176619 0.500000 0.677903
Si Si2 0.433187 0.792093 0.830577
Si Si3 0.859487 0.621287 0.322648
Si Si4 0.797604 0.000000 0.820615
Si Si5 0.149775 0.114437 0.176084
Si Si6 0.245068 0.814485 0.677674
Si Si7 0.933484 0.180737 0.666893
O O1 0.185864 0.500000 0.500000
O O2 0.145036 0.556570 0.715825
O O3 0.236021 0.500000 0.756213
O O4 0.500000 0.794175 0.826379
O O5 0.407475 0.847416 0.764018
O O6 0.414430 0.739746 0.732618
O O7 0.415497 0.783398 0.000000
O O8 0.867805 0.626898 0.500000
O O9 0.801085 0.651487 0.285405
O O10 0.830152 0.945479 0.770876
O O11 0.794404 0.000000 0.000000
O O12 0.193277 0.158297 0.241223
O O13 0.089748 0.131714 0.233447
O O14 0.151387 0.115744 0.000000
O O15 0.237509 0.818354 0.500000
O O16 0.250000 0.750000 0.717934
O O17 0.912508 0.174561 0.500000
O O18 0.000000 0.181132 0.666118
#
# Coordination Sequence:
#
# PCOD9494703 Si02
#       7
#     8  16  16   8  16  16  16
#     4  10  20  36  57  80 107 149 194 230 274 325
#     4  10  21  37  58  84 113 146 183 225 279 338
#     4  10  20  34  54  81 112 146 188 232 276 327
#     4  10  22  38  55  80 113 151 188 226 276 329
#     4  11  22  36  56  82 112 146 186 227 274 331
#     4  10  20  33  52  80 112 143 178 225 279 331
#     4  10  21  38  60  84 111 145 184 228 279 330
#
# _framework density 9.2592590000000001
#
# number of rings (size 3 to 8) (size 9 to 14) (size 15 to 20)
#    0.000    1.833    1.667    2.500    0.000    5.667 
#    0.000    0.833    0.000    5.000    0.000    0.000 
#    0.000    0.000    0.000    0.000    0.000    0.000 
#
# Total GULP energy -267930.927661 kJ/mol
# GULP energy per Si atom -5581.894326 kJ/mol
# Density = 0.923818 g / cm^3
# Si number density = 9.259259 Si / 1000 Ang^3
#
#
#
# Elastic Constant Matrix: (Units=GPa)
#
#
# Indices 1 2 3 4 5 6 
#
# 1 13.8260 47.1569 20.3448 0.0000 0.0000 0.0000
# 2 47.1569 38.2323 42.4799 0.0000 0.0000 0.0000
# 3 20.3448 42.4799 7.9512 0.0000 0.0000 0.0000
# 4 0.0000 0.0000 0.0000 12.9417 0.0000 0.0000
# 5 0.0000 0.0000 0.0000 0.0000 28.8703 0.0000
# 6 0.0000 0.0000 0.0000 0.0000 0.0000 -18.4547
#
#
#
# Elastic Compliance Matrix: (Units=1/GPa)
#
#
# Indices 1 2 3 4 5 6 
#
# 1 -0.055052 0.017951 0.044957 0.000000 0.000000 0.000000
# 2 0.017951 -0.011152 0.013650 0.000000 0.000000 0.000000
# 3 0.044957 0.013650 -0.062192 0.000000 0.000000 0.000000
# 4 0.000000 0.000000 0.000000 0.077270 0.000000 0.000000
# 5 0.000000 0.000000 0.000000 0.000000 0.034638 0.000000
# 6 0.000000 0.000000 0.000000 0.000000 0.000000 -0.054187
#
#
# Mechanical properties :
#
#
# Convention : Reuss Voigt Hill
#
# Bulk Modulus (GPa) = 40.45258 31.10810 35.78034
# Shear Modulus (GPa) = -23.19641 1.33998 -10.92822
#
# Velocity S-wave (km/s) = -3.54306 0.85156 -2.43188
# Velocity P-wave (km/s) = 2.27027 4.21921 3.38791
#
# Compressibility (1/GPa) = 0.02472030
#
# Stress axis : x y z
#
# Youngs Moduli (GPa) = -18.16480 -89.66866 -16.07928
#
# Poissons Ratio (x) = 1.60963 0.72287
# Poissons Ratio (y) = 0.32607 0.21949
# Poissons Ratio (z) = 0.81663 1.22401
#
# Static dielectric constant tensor:
#      x y z
#    x 1.631550 0.000000 0.000000 
#    y 0.000000 1.633260 0.000000 
#    z 0.000000 0.000000 1.621280 
# 
# From -- ./inp_files/14399.got.cif
#   From: 2010.05.17/outbox.ucp.g08.bks.cvg/sg65_8_cif.got.tgz:14399.got - 2010.06.11 16:39:57.
