data_PCOD9494261
_publ_section_title
;
Structure prediction by ZEFSAII (Michael W. Deem and Ramdas Pophale) SiO2 
 PCOD9494261
Probable space group: C M M M
;
_chemical_formula_sum "Si O2"
_cell_formula_units_Z 112
_cell_length_a 14.026114
_cell_length_b 14.007172
_cell_length_c 30.968619
_cell_angle_alpha 90.000000
_cell_angle_beta 90.000000
_cell_angle_gamma 90.000000
_cell_volume 6084.286624
_symmetry_space_group_name_H-M "C M M M"
_symmetry_group_IT_number 65
_symmetry_cell_setting 'orthorhombic'
loop_
_space_group_symop_operation_xyz
x,y,z
-x,-y,z
x,-y,-z
-x,y,-z
-x,-y,-z
x,y,-z
-x,y,z
x,-y,z
1/2+x,1/2+y,z
1/2-x,1/2-y,z
1/2+x,1/2-y,-z
1/2-x,1/2+y,-z
1/2-x,1/2-y,-z
1/2+x,1/2+y,-z
1/2-x,1/2+y,z
1/2+x,1/2-y,z
loop_
_atom_site_type_symbol
_atom_site_label
_atom_site_fract_x
_atom_site_fract_y
_atom_site_fract_z
Si Si1 0.116168 0.209450 0.272339
Si Si2 0.114824 0.607574 0.775416
Si Si3 0.107376 0.114937 0.817740
Si Si4 0.209900 0.383617 0.134559
Si Si5 0.611307 0.883710 0.952192
Si Si6 0.116602 0.111565 0.640395
Si Si7 0.886959 0.115827 0.453510
O O1 0.147300 0.315875 0.259764
O O2 0.138800 0.146253 0.230158
O O3 0.149685 0.169558 0.317947
O O4 0.000000 0.208999 0.274540
O O5 0.150142 0.500000 0.767848
O O6 0.146590 0.638806 0.823282
O O7 0.000000 0.605709 0.774762
O O8 0.183854 0.147572 0.852859
O O9 0.000000 0.150609 0.825193
O O10 0.105255 0.000000 0.818561
O O11 0.209676 0.500000 0.132370
O O12 0.170203 0.349414 0.088990
O O13 0.500000 0.858111 0.947083
O O14 0.614770 0.000000 0.952152
O O15 0.643526 0.852323 0.000000
O O16 0.150615 0.147501 0.593276
O O17 0.000000 0.114476 0.639424
O O18 0.142119 0.000000 0.645499
O O19 0.846482 0.148153 0.500000
O O20 0.000000 0.138315 0.454183
O O21 0.880645 0.000000 0.452748
#
# Coordination Sequence:
#
# PCOD9494261 Si02
#       7
#    16  16  16  16  16  16  16
#     4   9  16  25  37  54  76 104 138 172 207 246
#     4   9  17  28  41  58  80 104 132 168 209 254
#     4   9  17  28  41  58  81 109 142 175 200 232
#     4   9  16  26  41  60  83 111 137 165 208 254
#     4   8  13  22  39  64  90 112 137 174 217 256
#     4   8  12  18  30  48  72 104 139 173 209 251
#     4   7   9  13  22  39  65  97 132 168 206 249
#
# _framework density 18.408073000000002
#
# number of rings (size 3 to 8) (size 9 to 14) (size 15 to 20)
#    0.000    3.571    0.000    2.571    0.000    4.000 
#    0.000    0.000    0.000    0.429    0.000    5.000 
#    0.000    4.000    0.000   10.857    0.000   20.714 
#
# Total GULP energy -311910.317483 kJ/mol
# GULP energy per Si atom -5569.827098 kJ/mol
# Density = 1.836618 g / cm^3
# Si number density = 18.408073 Si / 1000 Ang^3
#
#
#
# Elastic Constant Matrix: (Units=GPa)
#
#
# Indices 1 2 3 4 5 6 
#
# 1 48.3253 10.9048 51.4512 0.0000 0.0000 0.0000
# 2 10.9048 52.8565 51.2554 0.0000 0.0000 0.0000
# 3 51.4512 51.2554 218.8859 0.0000 0.0000 0.0000
# 4 0.0000 0.0000 0.0000 10.6358 0.0000 0.0000
# 5 0.0000 0.0000 0.0000 0.0000 9.0153 0.0000
# 6 0.0000 0.0000 0.0000 0.0000 0.0000 7.4516
#
#
#
# Elastic Compliance Matrix: (Units=1/GPa)
#
#
# Indices 1 2 3 4 5 6 
#
# 1 0.027625 0.000773 -0.006675 0.000000 0.000000 0.000000
# 2 0.000773 0.024499 -0.005918 0.000000 0.000000 0.000000
# 3 -0.006675 -0.005918 0.007523 0.000000 0.000000 0.000000
# 4 0.000000 0.000000 0.000000 0.094022 0.000000 0.000000
# 5 0.000000 0.000000 0.000000 0.000000 0.110922 0.000000
# 6 0.000000 0.000000 0.000000 0.000000 0.000000 0.134200
#
#
# Mechanical properties :
#
#
# Convention : Reuss Voigt Hill
#
# Bulk Modulus (GPa) = 27.77217 60.81006 44.29111
# Shear Modulus (GPa) = 11.50922 19.18428 15.34675
#
# Velocity S-wave (km/s) = 2.50317 3.23176 2.89051
# Velocity P-wave (km/s) = 4.84501 6.85798 5.93743
#
# Compressibility (1/GPa) = 0.03600727
#
# Stress axis : x y z
#
# Youngs Moduli (GPa) = 36.19918 40.81823 132.91858
#
# Poissons Ratio (x) = -0.03155 0.88717
# Poissons Ratio (y) = -0.02798 0.78668
# Poissons Ratio (z) = 0.24161 0.24158
#
# Static dielectric constant tensor:
#      x y z
#    x 1.648150 0.000000 0.000000 
#    y 0.000000 1.650740 0.000000 
#    z 0.000000 0.000000 1.652060 
# 
# From -- ./inp_files/74855.got.cif
#   From: 2010.05.17/outbox.cif.g08.bks.cpg/sg65_38_cif.got.tgz:74855.got - 2010.06.03 17:01:31.
