data_PCOD9494020
_publ_section_title
;
Structure prediction by ZEFSAII (Michael W. Deem and Ramdas Pophale) SiO2 
 PCOD9494020
Probable space group: C M M M
;
_chemical_formula_sum "Si O2"
_cell_formula_units_Z 52
_cell_length_a 7.473200
_cell_length_b 15.192240
_cell_length_c 21.910430
_cell_angle_alpha 90.000000
_cell_angle_beta 90.000000
_cell_angle_gamma 90.000000
_cell_volume 2487.592957
_symmetry_space_group_name_H-M "C M M M"
_symmetry_group_IT_number 65
_symmetry_cell_setting 'orthorhombic'
loop_
_space_group_symop_operation_xyz
x,y,z
-x,-y,z
x,-y,-z
-x,y,-z
-x,-y,-z
x,y,-z
-x,y,z
x,-y,z
1/2+x,1/2+y,z
1/2-x,1/2-y,z
1/2+x,1/2-y,-z
1/2-x,1/2+y,-z
1/2-x,1/2-y,-z
1/2+x,1/2+y,-z
1/2-x,1/2+y,z
1/2+x,1/2-y,z
loop_
_atom_site_type_symbol
_atom_site_label
_atom_site_fract_x
_atom_site_fract_y
_atom_site_fract_z
Si Si1 0.000000 0.884244 0.500000
Si Si2 0.280833 0.500000 0.839286
Si Si3 0.295824 0.148586 0.395924
Si Si4 0.213960 0.852390 0.931794
Si Si5 0.784296 0.000000 0.699423
O O1 0.843891 0.882365 0.446884
O O2 0.500000 0.500000 0.837703
O O3 0.221114 0.584420 0.878364
O O4 0.222617 0.500000 0.769327
O O5 0.500000 0.146016 0.419003
O O6 0.250000 0.250000 0.381339
O O7 0.278913 0.085366 0.337883
O O8 0.250000 0.750000 0.920169
O O9 0.000000 0.864000 0.934241
O O10 0.283053 0.873985 0.000000
O O11 0.000000 0.000000 0.698540
#
# Coordination Sequence:
#
# PCOD9494020 Si02
#       5
#     4   8  16  16   8
#     4  12  24  45  72  99 130 160 208 259 324 383
#     4   9  19  35  60  81 114 164 208 244 301 367
#     4  12  25  43  69  97 130 164 207 262 319 379
#     4   9  17  32  55  87 119 152 200 254 305 359
#     4  11  23  44  60  88 126 169 216 260 312 378
#
# _framework density 20.903742000000001
#
# number of rings (size 3 to 8) (size 9 to 14) (size 15 to 20)
#    0.000    1.538    3.077    1.846    0.000    4.308 
#    0.000    8.462    0.000    3.692    0.000    0.000 
#    0.000    0.000    0.000    0.000    0.000    0.000 
#
# Total GULP energy -144806.465642 kJ/mol
# GULP energy per Si atom -5569.479448 kJ/mol
# Density = 2.085616 g / cm^3
# Si number density = 20.903742 Si / 1000 Ang^3
#
#
#
# Elastic Constant Matrix: (Units=GPa)
#
#
# Indices 1 2 3 4 5 6 
#
# 1 154.7389 22.5773 43.7842 0.0000 0.0000 0.0000
# 2 22.5773 102.0529 114.6923 0.0000 0.0000 0.0000
# 3 43.7842 114.6923 231.4482 0.0000 0.0000 0.0000
# 4 0.0000 0.0000 0.0000 -3.2221 0.0000 0.0000
# 5 0.0000 0.0000 0.0000 0.0000 15.7751 0.0000
# 6 0.0000 0.0000 0.0000 0.0000 0.0000 4.2923
#
#
#
# Elastic Compliance Matrix: (Units=1/GPa)
#
#
# Indices 1 2 3 4 5 6 
#
# 1 0.006829 -0.000133 -0.001226 0.000000 0.000000 0.000000
# 2 -0.000133 0.022118 -0.010935 0.000000 0.000000 0.000000
# 3 -0.001226 -0.010935 0.009971 0.000000 0.000000 0.000000
# 4 0.000000 0.000000 0.000000 -0.310354 0.000000 0.000000
# 5 0.000000 0.000000 0.000000 0.000000 0.063391 0.000000
# 6 0.000000 0.000000 0.000000 0.000000 0.000000 0.232976
#
#
# Mechanical properties :
#
#
# Convention : Reuss Voigt Hill
#
# Bulk Modulus (GPa) = 69.78464 94.48308 82.13386
# Shear Modulus (GPa) = 92.08929 23.84813 57.96871
#
# Velocity S-wave (km/s) = 6.64452 3.38132 5.27176
# Velocity P-wave (km/s) = 9.60846 7.78085 8.74254
#
# Compressibility (1/GPa) = 0.01432980
#
# Stress axis : x y z
#
# Youngs Moduli (GPa) = 146.43892 45.21279 100.28759
#
# Poissons Ratio (x) = 0.00601 0.12295
# Poissons Ratio (y) = 0.01947 1.09665
# Poissons Ratio (z) = 0.17953 0.49440
#
# Static dielectric constant tensor:
#      x y z
#    x 1.769390 0.000000 0.000000 
#    y 0.000000 1.757350 0.000000 
#    z 0.000000 0.000000 1.700780 
# 
# From -- ./inp_files/48674.got.cif
#   From: 2010.05.17/outbox.cif.g08.bks.cpg/sg65_25_cif.got.tgz:48674.got - 2010.06.03 17:01:31.
