data_PCOD9494844
_publ_section_title
;
Structure prediction by ZEFSAII (Michael W. Deem and Ramdas Pophale) SiO2 
 PCOD9494844
Probable space group: C M M M
;
_chemical_formula_sum "Si O2"
_cell_formula_units_Z 36
_cell_length_a 15.000000
_cell_length_b 27.000000
_cell_length_c 9.000000
_cell_angle_alpha 90.000000
_cell_angle_beta 90.000000
_cell_angle_gamma 90.000000
_cell_volume 3645.000000
_symmetry_space_group_name_H-M "C M M M"
_symmetry_group_IT_number 65
_symmetry_cell_setting 'orthorhombic'
loop_
_space_group_symop_operation_xyz
x,y,z
-x,-y,z
x,-y,-z
-x,y,-z
-x,-y,-z
x,y,-z
-x,y,z
x,-y,z
1/2+x,1/2+y,z
1/2-x,1/2-y,z
1/2+x,1/2-y,-z
1/2-x,1/2+y,-z
1/2-x,1/2-y,-z
1/2+x,1/2+y,-z
1/2-x,1/2+y,z
1/2+x,1/2-y,z
loop_
_atom_site_type_symbol
_atom_site_label
_atom_site_fract_x
_atom_site_fract_y
_atom_site_fract_z
Si Si1 0.817330 0.149470 0.823365
Si Si2 0.629172 0.860504 0.322837
Si Si3 0.602913 0.745234 0.329858
Si Si4 0.106188 0.944520 0.669934
Si Si5 0.500000 0.940632 0.179424
O O1 0.729675 0.138153 0.729288
O O2 0.849811 0.203989 0.770614
O O3 0.876307 0.102117 0.776184
O O4 0.803228 0.150159 0.000000
O O5 0.615611 0.864881 0.500000
O O6 0.603223 0.803221 0.282702
O O7 0.580480 0.906640 0.243437
O O8 0.638493 0.743274 0.500000
O O9 0.500000 0.729917 0.334300
O O10 0.138946 0.934935 0.500000
O O11 0.000000 0.948323 0.660915
O O12 0.139592 0.000000 0.715449
O O13 0.500000 0.000000 0.220920
O O14 0.500000 0.939028 0.000000
#
# Coordination Sequence:
#
# PCOD9494844 Si02
#       5
#    16  16  16  16   8
#     4  12  25  37  56  92 129 163 201 249 313 373
#     4  11  23  43  67  90 118 161 211 257 304 360
#     4  10  21  40  64  90 121 160 207 255 304 364
#     4   9  19  38  62  85 113 155 205 253 301 359
#     4  11  25  45  69  97 129 163 200 255 324 381
#
# _framework density 9.8765429999999999
#
# number of rings (size 3 to 8) (size 9 to 14) (size 15 to 20)
#    0.000    1.444    1.111    5.000    0.000   10.222 
#    0.000    1.111    0.000    0.000    0.000    0.000 
#    0.000    0.000    0.000    0.000    0.000    0.000 
#
# Total GULP energy -200627.692755 kJ/mol
# GULP energy per Si atom -5572.991465 kJ/mol
# Density = 0.985406 g / cm^3
# Si number density = 9.876543 Si / 1000 Ang^3
#
#
#
# Elastic Constant Matrix: (Units=GPa)
#
#
# Indices 1 2 3 4 5 6 
#
# 1 75.5740 33.0924 7.9059 0.0000 0.0000 0.0000
# 2 33.0924 176.2183 52.3946 0.0000 0.0000 0.0000
# 3 7.9059 52.3946 55.8081 0.0000 0.0000 0.0000
# 4 0.0000 0.0000 0.0000 36.1094 0.0000 0.0000
# 5 0.0000 0.0000 0.0000 0.0000 21.6577 0.0000
# 6 0.0000 0.0000 0.0000 0.0000 0.0000 358.5419
#
#
#
# Elastic Compliance Matrix: (Units=1/GPa)
#
#
# Indices 1 2 3 4 5 6 
#
# 1 0.014437 -0.002917 0.000694 0.000000 0.000000 0.000000
# 2 -0.002917 0.008462 -0.007531 0.000000 0.000000 0.000000
# 3 0.000694 -0.007531 0.024891 0.000000 0.000000 0.000000
# 4 0.000000 0.000000 0.000000 0.027694 0.000000 0.000000
# 5 0.000000 0.000000 0.000000 0.000000 0.046173 0.000000
# 6 0.000000 0.000000 0.000000 0.000000 0.000000 0.002789
#
#
# Mechanical properties :
#
#
# Convention : Reuss Voigt Hill
#
# Bulk Modulus (GPa) = 35.36039 54.93178 45.14609
# Shear Modulus (GPa) = 32.59856 97.54230 65.07043
#
# Velocity S-wave (km/s) = 4.06680 7.03477 5.74573
# Velocity P-wave (km/s) = 6.32391 9.68781 8.18063
#
# Compressibility (1/GPa) = 0.02828023
#
# Stress axis : x y z
#
# Youngs Moduli (GPa) = 69.26663 118.17790 40.17579
#
# Poissons Ratio (x) = 0.34478 -0.02787
# Poissons Ratio (y) = 0.20208 0.30256
# Poissons Ratio (z) = -0.04806 0.88999
#
# Static dielectric constant tensor:
#      x y z
#    x 1.814640 0.000000 0.000000 
#    y 0.000000 1.711990 0.000000 
#    z 0.000000 0.000000 1.672570 
# 
# From -- ./inp_files/7321.got.cif
#   From: 2010.05.17/outbox.ucp.g08.bks.cvg/sg65_4_cif.got.tgz:7321.got - 2010.06.11 16:39:57.
