data_PCOD9494222
_publ_section_title
;
Structure prediction by ZEFSAII (Michael W. Deem and Ramdas Pophale) SiO2 
 PCOD9494222
Probable space group: C M M M
;
_chemical_formula_sum "Si O2"
_cell_formula_units_Z 64
_cell_length_a 14.693753
_cell_length_b 7.213991
_cell_length_c 23.055419
_cell_angle_alpha 90.000000
_cell_angle_beta 90.000000
_cell_angle_gamma 90.000000
_cell_volume 2443.888291
_symmetry_space_group_name_H-M "C M M M"
_symmetry_group_IT_number 65
_symmetry_cell_setting 'orthorhombic'
loop_
_space_group_symop_operation_xyz
x,y,z
-x,-y,z
x,-y,-z
-x,y,-z
-x,-y,-z
x,y,-z
-x,y,z
x,-y,z
1/2+x,1/2+y,z
1/2-x,1/2-y,z
1/2+x,1/2-y,-z
1/2-x,1/2+y,-z
1/2-x,1/2-y,-z
1/2+x,1/2+y,-z
1/2-x,1/2+y,z
1/2+x,1/2-y,z
loop_
_atom_site_type_symbol
_atom_site_label
_atom_site_fract_x
_atom_site_fract_y
_atom_site_fract_z
Si Si1 0.142440 0.280284 0.249666
Si Si2 0.391459 0.209933 0.376624
Si Si3 0.606485 0.226715 0.500000
Si Si4 0.859542 0.279219 0.000000
Si Si5 0.640380 0.220941 0.874965
O O1 0.119730 0.500000 0.251259
O O2 0.250000 0.250000 0.245906
O O3 0.119066 0.203978 0.313115
O O4 0.106418 0.209372 0.187589
O O5 0.500000 0.196861 0.384482
O O6 0.355707 0.289451 0.437609
O O7 0.353559 0.000000 0.372292
O O8 0.500000 0.280429 0.500000
O O9 0.609804 0.000000 0.500000
O O10 0.750000 0.250000 0.000000
O O11 0.892742 0.208495 0.937486
O O12 0.876053 0.500000 0.000000
O O13 0.750000 0.250000 0.875498
O O14 0.624443 0.000000 0.874640
#
# Coordination Sequence:
#
# PCOD9494222 Si02
#       5
#    16  16   8   8  16
#     4   9  16  25  37  54  76  98 118 144 180 217
#     4   8  13  22  37  55  72  92 121 153 179 205
#     4   7  10  18  33  52  71  89 114 151 184 202
#     4   8  12  18  28  42  61  85 113 141 167 198
#     4   8  13  20  30  45  65  89 114 140 171 204
#
# _framework density 26.187774999999998
#
# number of rings (size 3 to 8) (size 9 to 14) (size 15 to 20)
#    0.000    3.875    0.000    1.500    0.000    0.000 
#    0.000    0.625    0.000    0.750    0.000    0.875 
#    0.000   10.000    0.000    0.000    0.000  237.750 
#
# Total GULP energy -178216.054755 kJ/mol
# GULP energy per Si atom -5569.251711 kJ/mol
# Density = 2.612817 g / cm^3
# Si number density = 26.187775 Si / 1000 Ang^3
#
#
#
# Elastic Constant Matrix: (Units=GPa)
#
#
# Indices 1 2 3 4 5 6 
#
# 1 74.5671 -11.4098 18.2807 0.0000 0.0000 0.0000
# 2 -11.4098 137.7798 26.2215 0.0000 0.0000 0.0000
# 3 18.2807 26.2215 442.3435 0.0000 0.0000 0.0000
# 4 0.0000 0.0000 0.0000 -32.1626 0.0000 0.0000
# 5 0.0000 0.0000 0.0000 0.0000 27.3929 0.0000
# 6 0.0000 0.0000 0.0000 0.0000 0.0000 -11.8860
#
#
#
# Elastic Compliance Matrix: (Units=1/GPa)
#
#
# Indices 1 2 3 4 5 6 
#
# 1 0.013762 0.001262 -0.000644 0.000000 0.000000 0.000000
# 2 0.001262 0.007457 -0.000494 0.000000 0.000000 0.000000
# 3 -0.000644 -0.000494 0.002317 0.000000 0.000000 0.000000
# 4 0.000000 0.000000 0.000000 -0.031092 0.000000 0.000000
# 5 0.000000 0.000000 0.000000 0.000000 0.036506 0.000000
# 6 0.000000 0.000000 0.000000 0.000000 0.000000 -0.084133
#
#
# Mechanical properties :
#
#
# Convention : Reuss Voigt Hill
#
# Bulk Modulus (GPa) = 42.04596 80.09725 61.07160
# Shear Modulus (GPa) = -105.25190 38.10874 -33.57158
#
# Velocity S-wave (km/s) = -6.34653 3.81886 -3.58433
# Velocity P-wave (km/s) = 6.13304 7.07793 2.49828
#
# Compressibility (1/GPa) = 0.02378350
#
# Stress axis : x y z
#
# Youngs Moduli (GPa) = 72.66584 134.11077 431.67165
#
# Poissons Ratio (x) = -0.16926 0.27780
# Poissons Ratio (y) = -0.09171 0.21332
# Poissons Ratio (z) = 0.04676 0.06627
#
# Static dielectric constant tensor:
#      x y z
#    x 2.018790 0.000000 0.000000 
#    y 0.000000 2.000880 0.000000 
#    z 0.000000 0.000000 2.166400 
# 
# From -- ./inp_files/49423.got.cif
#   From: 2010.05.17/outbox.cif.g08.bks.cpg/sg65_25_cif.got.tgz:49423.got - 2010.06.03 17:01:31.
