data_PCOD9494626
_publ_section_title
;
Structure prediction by ZEFSAII (Michael W. Deem and Ramdas Pophale) SiO2 
 PCOD9494626
Probable space group: C M M M
;
_chemical_formula_sum "Si O2"
_cell_formula_units_Z 52
_cell_length_a 30.000000
_cell_length_b 9.000000
_cell_length_c 21.000000
_cell_angle_alpha 90.000000
_cell_angle_beta 90.000000
_cell_angle_gamma 90.000000
_cell_volume 5670.000000
_symmetry_space_group_name_H-M "C M M M"
_symmetry_group_IT_number 65
_symmetry_cell_setting 'orthorhombic'
loop_
_space_group_symop_operation_xyz
x,y,z
-x,-y,z
x,-y,-z
-x,y,-z
-x,-y,-z
x,y,-z
-x,y,z
x,-y,z
1/2+x,1/2+y,z
1/2-x,1/2-y,z
1/2+x,1/2-y,-z
1/2-x,1/2+y,-z
1/2-x,1/2-y,-z
1/2+x,1/2+y,-z
1/2-x,1/2+y,z
1/2+x,1/2-y,z
loop_
_atom_site_type_symbol
_atom_site_label
_atom_site_fract_x
_atom_site_fract_y
_atom_site_fract_z
Si Si1 0.859816 0.179965 0.622685
Si Si2 0.500000 0.180183 0.073301
Si Si3 0.794518 0.176671 0.266629
Si Si4 0.199824 0.818630 0.500000
Si Si5 0.428473 0.178018 0.178690
Si Si6 0.162842 0.178667 0.863204
Si Si7 0.550312 0.320687 0.315917
Si Si8 0.798419 0.821248 0.000000
O O1 0.835011 0.223484 0.688185
O O2 0.829837 0.226477 0.562132
O O3 0.911037 0.227199 0.634501
O O4 0.860506 0.000000 0.618843
O O5 0.458697 0.223592 0.118095
O O6 0.500000 0.000000 0.069481
O O7 0.500000 0.235034 0.000000
O O8 0.750000 0.250000 0.291438
O O9 0.801685 0.211927 0.192407
O O10 0.791019 0.000000 0.271827
O O11 0.250000 0.750000 0.500000
O O12 0.204046 0.000000 0.500000
O O13 0.380028 0.233786 0.159902
O O14 0.442391 0.250470 0.245863
O O15 0.431201 0.000000 0.185094
O O16 0.154865 0.000000 0.861939
O O17 0.177189 0.221050 0.934332
O O18 0.500000 0.285580 0.337048
O O19 0.553879 0.500000 0.308744
O O20 0.750000 0.750000 0.000000
O O21 0.794514 0.000000 0.000000
#
# Coordination Sequence:
#
# PCOD9494626 Si02
#       8
#    16   8  16   8  16  16  16   8
#     4   9  18  34  54  81 112 146 181 222 272 318
#     4   9  20  36  51  73 109 142 171 220 284 333
#     4  10  19  32  51  73 104 137 173 220 266 314
#     4  10  20  36  59  83 117 153 186 226 269 326
#     4  11  21  34  55  80 106 138 180 229 274 323
#     4  10  21  37  53  73 105 140 175 222 273 327
#     4  10  19  35  59  81 108 146 183 220 276 336
#     4  10  22  38  56  75 102 139 179 225 276 331
#
# _framework density 9.1710759999999993
#
# number of rings (size 3 to 8) (size 9 to 14) (size 15 to 20)
#    0.000    2.077    2.308    1.385    1.077    1.231 
#    0.000    1.154    0.000    4.154    0.000    0.000 
#    0.000    1.846    0.000    0.000    0.000    0.000 
#
# Total GULP energy -289798.962535 kJ/mol
# GULP energy per Si atom -5573.056972 kJ/mol
# Density = 0.915020 g / cm^3
# Si number density = 9.171076 Si / 1000 Ang^3
#
#
#
# Elastic Constant Matrix: (Units=GPa)
#
#
# Indices 1 2 3 4 5 6 
#
# 1 153.7517 28.6455 60.3384 0.0000 0.0000 0.0000
# 2 28.6455 1.9196 17.0359 0.0000 0.0000 0.0000
# 3 60.3384 17.0359 122.2010 0.0000 0.0000 0.0000
# 4 0.0000 0.0000 0.0000 15.4874 0.0000 0.0000
# 5 0.0000 0.0000 0.0000 0.0000 341.3770 0.0000
# 6 0.0000 0.0000 0.0000 0.0000 0.0000 23.2416
#
#
#
# Elastic Compliance Matrix: (Units=1/GPa)
#
#
# Indices 1 2 3 4 5 6 
#
# 1 0.000978 0.043434 -0.006538 0.000000 0.000000 0.000000
# 2 0.043434 -0.266089 0.015649 0.000000 0.000000 0.000000
# 3 -0.006538 0.015649 0.009230 0.000000 0.000000 0.000000
# 4 0.000000 0.000000 0.000000 0.064569 0.000000 0.000000
# 5 0.000000 0.000000 0.000000 0.000000 0.002929 0.000000
# 6 0.000000 0.000000 0.000000 0.000000 0.000000 0.043026
#
#
# Mechanical properties :
#
#
# Convention : Reuss Voigt Hill
#
# Bulk Modulus (GPa) = -6.63168 54.43465 23.90149
# Shear Modulus (GPa) = -16.62723 87.47803 35.42540
#
# Velocity S-wave (km/s) = -3.01409 6.91346 4.39950
# Velocity P-wave (km/s) = 3.96691 9.66797 6.23431
#
# Compressibility (1/GPa) = -0.15079146
#
# Stress axis : x y z
#
# Youngs Moduli (GPa) = 1022.99115 -3.75814 108.34597
#
# Poissons Ratio (x) = 0.16323 0.70833
# Poissons Ratio (y) = -44.43225 -1.69552
# Poissons Ratio (z) = 6.68801 0.05881
#
# Static dielectric constant tensor:
#      x y z
#    x 1.695060 0.000000 0.000000 
#    y 0.000000 1.613540 0.000000 
#    z 0.000000 0.000000 1.634240 
# 
# From -- ./inp_files/66444.got.cif
#   From: 2010.05.17/outbox.ucp.g08.bks.cvg/sg65_34_cif.got.tgz:66444.got - 2010.06.11 16:39:57.
