data_PCOD9494747
_publ_section_title
;
Structure prediction by ZEFSAII (Michael W. Deem and Ramdas Pophale) SiO2 
 PCOD9494747
Probable space group: C M M M
;
_chemical_formula_sum "Si O2"
_cell_formula_units_Z 44
_cell_length_a 9.000000
_cell_length_b 18.000000
_cell_length_c 30.000000
_cell_angle_alpha 90.000000
_cell_angle_beta 90.000000
_cell_angle_gamma 90.000000
_cell_volume 4860.000000
_symmetry_space_group_name_H-M "C M M M"
_symmetry_group_IT_number 65
_symmetry_cell_setting 'orthorhombic'
loop_
_space_group_symop_operation_xyz
x,y,z
-x,-y,z
x,-y,-z
-x,y,-z
-x,-y,-z
x,y,-z
-x,y,z
x,-y,z
1/2+x,1/2+y,z
1/2-x,1/2-y,z
1/2+x,1/2-y,-z
1/2-x,1/2+y,-z
1/2-x,1/2-y,-z
1/2+x,1/2+y,-z
1/2-x,1/2+y,z
1/2+x,1/2-y,z
loop_
_atom_site_type_symbol
_atom_site_label
_atom_site_fract_x
_atom_site_fract_y
_atom_site_fract_z
Si Si1 0.327646 0.910333 0.591577
Si Si2 0.325704 0.909525 0.144339
Si Si3 0.821432 0.169310 0.325654
Si Si4 0.178338 0.913657 0.235315
Si Si5 0.180306 0.411663 0.047912
Si Si6 0.171468 0.090563 0.500000
O O1 0.500000 0.887618 0.593870
O O2 0.237727 0.878639 0.633121
O O3 0.255060 0.885751 0.544880
O O4 0.322215 0.000000 0.592780
O O5 0.500000 0.891603 0.148050
O O6 0.242763 0.884411 0.188698
O O7 0.267734 0.882337 0.095998
O O8 0.314391 0.000000 0.143217
O O9 0.750000 0.250000 0.328667
O O10 0.775914 0.131664 0.278844
O O11 0.000000 0.173105 0.326987
O O12 0.000000 0.912402 0.232757
O O13 0.224774 0.000000 0.240520
O O14 0.213890 0.500000 0.047247
O O15 0.000000 0.406318 0.048685
O O16 0.231919 0.380470 0.000000
O O17 0.000000 0.114364 0.500000
O O18 0.172602 0.000000 0.500000
#
# Coordination Sequence:
#
# PCOD9494747 Si02
#       6
#    16  16  16  16  16   8
#     4  10  20  35  57  84 111 138 170 207 245 287
#     4   8  13  21  36  59  84 112 150 193 231 272
#     4  11  23  38  54  73 100 133 169 208 253 302
#     4   9  18  32  49  68  92 124 159 196 241 293
#     4   7   9  14  26  47  77 111 144 179 222 271
#     4   9  17  31  54  83 112 141 172 205 241 283
#
# _framework density 9.0534979999999994
#
# number of rings (size 3 to 8) (size 9 to 14) (size 15 to 20)
#    0.000    3.000    0.000    3.545    0.000    4.364 
#    0.000    2.273    0.000    0.545    0.000    3.818 
#    0.000    0.727    0.000    1.636    0.000    4.364 
#
# Total GULP energy -245047.037346 kJ/mol
# GULP energy per Si atom -5569.250849 kJ/mol
# Density = 0.903289 g / cm^3
# Si number density = 9.053498 Si / 1000 Ang^3
#
#
#
# Elastic Constant Matrix: (Units=GPa)
#
#
# Indices 1 2 3 4 5 6 
#
# 1 52.1899 16.0201 53.6891 0.0000 0.0000 0.0000
# 2 16.0201 12.3910 26.3934 0.0000 0.0000 0.0000
# 3 53.6891 26.3934 201.2058 0.0000 0.0000 0.0000
# 4 0.0000 0.0000 0.0000 -7.3237 0.0000 0.0000
# 5 0.0000 0.0000 0.0000 0.0000 6.4855 0.0000
# 6 0.0000 0.0000 0.0000 0.0000 0.0000 14.2839
#
#
#
# Elastic Compliance Matrix: (Units=1/GPa)
#
#
# Indices 1 2 3 4 5 6 
#
# 1 0.034677 -0.034866 -0.004680 0.000000 0.000000 0.000000
# 2 -0.034866 0.147053 -0.009986 0.000000 0.000000 0.000000
# 3 -0.004680 -0.009986 0.007529 0.000000 0.000000 0.000000
# 4 0.000000 0.000000 0.000000 -0.136544 0.000000 0.000000
# 5 0.000000 0.000000 0.000000 0.000000 0.154190 0.000000
# 6 0.000000 0.000000 0.000000 0.000000 0.000000 0.070009
#
#
# Mechanical properties :
#
#
# Convention : Reuss Voigt Hill
#
# Bulk Modulus (GPa) = 11.08705 50.88798 30.98751
# Shear Modulus (GPa) = 12.31396 14.00141 13.15769
#
# Velocity S-wave (km/s) = 2.61064 2.78377 2.69859
# Velocity P-wave (km/s) = 3.90174 6.20464 5.18272
#
# Compressibility (1/GPa) = 0.09019535
#
# Stress axis : x y z
#
# Youngs Moduli (GPa) = 28.83741 6.80026 132.82520
#
# Poissons Ratio (x) = 0.23710 0.62156
# Poissons Ratio (y) = 1.00544 1.32645
# Poissons Ratio (z) = 0.13495 0.06791
#
# Static dielectric constant tensor:
#      x y z
#    x 1.606850 0.000000 0.000000 
#    y 0.000000 1.602610 0.000000 
#    z 0.000000 0.000000 1.653510 
# 
# From -- ./inp_files/76678.got.cif
#   From: 2010.05.17/outbox.ucp.g08.bks.cvg/sg65_39_cif.got.tgz:76678.got - 2010.06.11 16:39:57.
