data_PCOD9494288
_publ_section_title
;
Structure prediction by ZEFSAII (Michael W. Deem and Ramdas Pophale) SiO2 
 PCOD9494288
Probable space group: C M M M
;
_chemical_formula_sum "Si O2"
_cell_formula_units_Z 112
_cell_length_a 28.383133
_cell_length_b 7.350466
_cell_length_c 30.818048
_cell_angle_alpha 90.000000
_cell_angle_beta 90.000000
_cell_angle_gamma 90.000000
_cell_volume 6429.546367
_symmetry_space_group_name_H-M "C M M M"
_symmetry_group_IT_number 65
_symmetry_cell_setting 'orthorhombic'
loop_
_space_group_symop_operation_xyz
x,y,z
-x,-y,z
x,-y,-z
-x,y,-z
-x,-y,-z
x,y,-z
-x,y,z
x,-y,z
1/2+x,1/2+y,z
1/2-x,1/2-y,z
1/2+x,1/2-y,-z
1/2-x,1/2+y,-z
1/2-x,1/2-y,-z
1/2+x,1/2+y,-z
1/2-x,1/2+y,z
1/2+x,1/2-y,z
loop_
_atom_site_type_symbol
_atom_site_label
_atom_site_fract_x
_atom_site_fract_y
_atom_site_fract_z
Si Si1 0.946956 0.721276 0.722988
Si Si2 0.693700 0.782776 0.953302
Si Si3 0.104814 0.721820 0.634945
Si Si4 0.195829 0.283610 0.316539
Si Si5 0.306024 0.782305 0.858624
Si Si6 0.945393 0.721558 0.548457
Si Si7 0.646481 0.222230 0.770789
O O1 0.947385 0.500000 0.723461
O O2 0.929391 0.773797 0.674817
O O3 0.906176 0.777119 0.756595
O O4 0.000000 0.783083 0.731764
O O5 0.750000 0.750000 0.953442
O O6 0.678116 0.712605 0.906137
O O7 0.686147 0.000000 0.953427
O O8 0.675662 0.712645 0.000000
O O9 0.104515 0.500000 0.633714
O O10 0.157035 0.782410 0.649051
O O11 0.086079 0.784295 0.588565
O O12 0.189772 0.500000 0.315024
O O13 0.250000 0.250000 0.326551
O O14 0.180690 0.218286 0.268586
O O15 0.250000 0.750000 0.853232
O O16 0.334515 0.713859 0.817053
O O17 0.311898 0.000000 0.859671
O O18 0.930834 0.779061 0.500000
O O19 0.944585 0.500000 0.548633
O O20 0.000000 0.773910 0.554991
O O21 0.647104 0.000000 0.771651
#
# Coordination Sequence:
#
# PCOD9494288 Si02
#       7
#    16  16  16  16  16  16  16
#     4   8  12  18  29  44  63  85 105 128 161 198
#     4   8  13  20  29  41  57  79 106 131 156 187
#     4   8  13  20  30  45  65  88 110 132 161 194
#     4   9  16  25  36  49  67  90 114 138 161 187
#     4   9  15  22  32  45  64  87 108 133 161 188
#     4   8  12  17  27  45  68  90 108 128 160 202
#     4   8  14  22  31  46  66  86 108 134 163 191
#
# _framework density 17.41958
#
# number of rings (size 3 to 8) (size 9 to 14) (size 15 to 20)
#    0.000    3.714    0.000    3.000    0.000    1.714 
#    0.000    0.000    0.000    0.429    0.000    0.000 
#    0.000   20.000    0.000    9.571    0.000    1.429 
#
# Total GULP energy -311827.275039 kJ/mol
# GULP energy per Si atom -5568.344197 kJ/mol
# Density = 1.737993 g / cm^3
# Si number density = 17.419580 Si / 1000 Ang^3
#
#
#
# Elastic Constant Matrix: (Units=GPa)
#
#
# Indices 1 2 3 4 5 6 
#
# 1 112.8289 0.7622 91.5356 0.0000 0.0000 0.0000
# 2 0.7622 65.1255 9.0701 0.0000 0.0000 0.0000
# 3 91.5356 9.0701 205.7189 0.0000 0.0000 0.0000
# 4 0.0000 0.0000 0.0000 -8.8041 0.0000 0.0000
# 5 0.0000 0.0000 0.0000 0.0000 21.1287 0.0000
# 6 0.0000 0.0000 0.0000 0.0000 0.0000 4.4219
#
#
#
# Elastic Compliance Matrix: (Units=1/GPa)
#
#
# Indices 1 2 3 4 5 6 
#
# 1 0.013902 0.000703 -0.006217 0.000000 0.000000 0.000000
# 2 0.000703 0.015485 -0.000996 0.000000 0.000000 0.000000
# 3 -0.006217 -0.000996 0.007671 0.000000 0.000000 0.000000
# 4 0.000000 0.000000 0.000000 -0.113584 0.000000 0.000000
# 5 0.000000 0.000000 0.000000 0.000000 0.047329 0.000000
# 6 0.000000 0.000000 0.000000 0.000000 0.000000 0.226145
#
#
# Mechanical properties :
#
#
# Convention : Reuss Voigt Hill
#
# Bulk Modulus (GPa) = 41.59765 65.15657 53.37711
# Shear Modulus (GPa) = 22.93787 22.16966 22.55376
#
# Velocity S-wave (km/s) = 3.63269 3.57134 3.60215
# Velocity P-wave (km/s) = 6.44414 7.38183 6.92886
#
# Compressibility (1/GPa) = 0.02403982
#
# Stress axis : x y z
#
# Youngs Moduli (GPa) = 71.93408 64.57698 130.36111
#
# Poissons Ratio (x) = -0.04540 0.81040
# Poissons Ratio (y) = -0.05058 0.12979
# Poissons Ratio (z) = 0.44718 0.06429
#
# Static dielectric constant tensor:
#      x y z
#    x 1.566810 0.000000 0.000000 
#    y 0.000000 1.700140 0.000000 
#    z 0.000000 0.000000 1.622770 
# 
# From -- ./inp_files/75904.got.cif
#   From: 2010.05.17/outbox.cif.g08.bks.cpg/sg65_38_cif.got.tgz:75904.got - 2010.06.03 17:01:31.
