data_PCOD9494095
_publ_section_title
;
Structure prediction by ZEFSAII (Michael W. Deem and Ramdas Pophale) SiO2 
 PCOD9494095
Probable space group: C M M M
;
_chemical_formula_sum "Si O2"
_cell_formula_units_Z 72
_cell_length_a 11.065270
_cell_length_b 14.779267
_cell_length_c 20.026477
_cell_angle_alpha 90.000000
_cell_angle_beta 90.000000
_cell_angle_gamma 90.000000
_cell_volume 3275.061553
_symmetry_space_group_name_H-M "C M M M"
_symmetry_group_IT_number 65
_symmetry_cell_setting 'orthorhombic'
loop_
_space_group_symop_operation_xyz
x,y,z
-x,-y,z
x,-y,-z
-x,y,-z
-x,-y,-z
x,y,-z
-x,y,z
x,-y,z
1/2+x,1/2+y,z
1/2-x,1/2-y,z
1/2+x,1/2-y,-z
1/2-x,1/2+y,-z
1/2-x,1/2-y,-z
1/2+x,1/2+y,-z
1/2-x,1/2+y,z
1/2+x,1/2-y,z
loop_
_atom_site_type_symbol
_atom_site_label
_atom_site_fract_x
_atom_site_fract_y
_atom_site_fract_z
Si Si1 0.130821 0.892928 0.654202
Si Si2 0.866527 0.610384 0.577787
Si Si3 0.368877 0.690819 0.203903
Si Si4 0.500000 0.897050 0.080735
Si Si5 0.267343 0.609308 0.924095
O O1 0.251453 0.856703 0.619280
O O2 0.135721 0.876915 0.733397
O O3 0.000000 0.856564 0.630338
O O4 0.129696 0.000000 0.641281
O O5 0.855015 0.635743 0.500000
O O6 0.866134 0.500000 0.579990
O O7 0.000000 0.638527 0.602410
O O8 0.500000 0.737979 0.207771
O O9 0.250000 0.750000 0.211957
O O10 0.356547 0.641619 0.132799
O O11 0.631649 0.856792 0.095444
O O12 0.500000 0.000000 0.108097
O O13 0.500000 0.903548 0.000000
O O14 0.262246 0.500000 0.925120
O O15 0.295706 0.638789 0.000000
#
# Coordination Sequence:
#
# PCOD9494095 Si02
#       5
#    16  16  16   8  16
#     4   9  18  34  55  78 106 140 179 222 265 313
#     4   8  14  26  47  79 115 142 168 210 262 314
#     4  11  25  40  54  76 108 145 183 225 273 322
#     4   7  12  26  50  80 106 126 154 202 260 309
#     4   9  18  35  60  85 108 136 175 223 272 324
#
# _framework density 21.984318999999999
#
# number of rings (size 3 to 8) (size 9 to 14) (size 15 to 20)
#    0.000    3.000    0.000    2.667    1.556    3.556 
#    0.000    3.333    0.000    0.667    0.000    0.000 
#    0.000    0.000    0.000    0.000    0.000    0.000 
#
# Total GULP energy -200772.080295 kJ/mol
# GULP energy per Si atom -5577.002230 kJ/mol
# Density = 2.193428 g / cm^3
# Si number density = 21.984319 Si / 1000 Ang^3
#
#
#
# Elastic Constant Matrix: (Units=GPa)
#
#
# Indices 1 2 3 4 5 6 
#
# 1 217.3170 17.4739 82.2245 0.0000 0.0000 0.0000
# 2 17.4739 42.7858 5.1540 0.0000 0.0000 0.0000
# 3 82.2245 5.1540 78.8734 0.0000 0.0000 0.0000
# 4 0.0000 0.0000 0.0000 -128.6956 0.0000 0.0000
# 5 0.0000 0.0000 0.0000 0.0000 38.0843 0.0000
# 6 0.0000 0.0000 0.0000 0.0000 0.0000 13.8694
#
#
#
# Elastic Compliance Matrix: (Units=1/GPa)
#
#
# Indices 1 2 3 4 5 6 
#
# 1 0.007803 -0.002225 -0.007990 0.000000 0.000000 0.000000
# 2 -0.002225 0.024192 0.000738 0.000000 0.000000 0.000000
# 3 -0.007990 0.000738 0.020959 0.000000 0.000000 0.000000
# 4 0.000000 0.000000 0.000000 -0.007770 0.000000 0.000000
# 5 0.000000 0.000000 0.000000 0.000000 0.026258 0.000000
# 6 0.000000 0.000000 0.000000 0.000000 0.000000 0.072101
#
#
# Mechanical properties :
#
#
# Convention : Reuss Voigt Hill
#
# Bulk Modulus (GPa) = 29.40937 60.96456 45.18696
# Shear Modulus (GPa) = 28.76392 0.25988 14.51190
#
# Velocity S-wave (km/s) = 3.62108 0.34419 2.57203
# Velocity P-wave (km/s) = 5.55783 5.28669 5.42395
#
# Compressibility (1/GPa) = 0.03400277
#
# Stress axis : x y z
#
# Youngs Moduli (GPa) = 128.14932 41.33634 47.71140
#
# Poissons Ratio (x) = 0.09195 0.38119
# Poissons Ratio (y) = 0.28507 -0.03522
# Poissons Ratio (z) = 1.02386 -0.03051
#
# Static dielectric constant tensor:
#      x y z
#    x 1.852660 0.000000 0.000000 
#    y 0.000000 1.815930 0.000000 
#    z 0.000000 0.000000 1.766280 
# 
# From -- ./inp_files/51132.got.cif
#   From: 2010.05.17/outbox.cif.g08.bks.cpg/sg65_26_cif.got.tgz:51132.got - 2010.06.03 17:01:31.
