data_PCOD9494205
_publ_section_title
;
Structure prediction by ZEFSAII (Michael W. Deem and Ramdas Pophale) SiO2 
 PCOD9494205
Probable space group: C M M M
;
_chemical_formula_sum "Si O2"
_cell_formula_units_Z 112
_cell_length_a 14.305108
_cell_length_b 14.472078
_cell_length_c 22.369223
_cell_angle_alpha 90.000000
_cell_angle_beta 90.000000
_cell_angle_gamma 90.000000
_cell_volume 4630.980311
_symmetry_space_group_name_H-M "C M M M"
_symmetry_group_IT_number 65
_symmetry_cell_setting 'orthorhombic'
loop_
_space_group_symop_operation_xyz
x,y,z
-x,-y,z
x,-y,-z
-x,y,-z
-x,-y,-z
x,y,-z
-x,y,z
x,-y,z
1/2+x,1/2+y,z
1/2-x,1/2-y,z
1/2+x,1/2-y,-z
1/2-x,1/2+y,-z
1/2-x,1/2-y,-z
1/2+x,1/2+y,-z
1/2-x,1/2+y,z
1/2+x,1/2-y,z
loop_
_atom_site_type_symbol
_atom_site_label
_atom_site_fract_x
_atom_site_fract_y
_atom_site_fract_z
Si Si1 0.365192 0.891134 0.283050
Si Si2 0.863586 0.242508 0.067730
Si Si3 0.638217 0.105918 0.155850
Si Si4 0.357265 0.391697 0.304730
Si Si5 0.899343 0.613478 0.412835
Si Si6 0.815172 0.113252 0.434748
Si Si7 0.135400 0.892807 0.172658
O O1 0.394173 0.852960 0.219240
O O2 0.254208 0.885914 0.293900
O O3 0.404181 0.854565 0.344200
O O4 0.387935 0.000000 0.280369
O O5 0.750000 0.250000 0.066496
O O6 0.891690 0.338107 0.098475
O O7 0.894577 0.166083 0.115635
O O8 0.894014 0.227550 0.000000
O O9 0.751068 0.108752 0.165168
O O10 0.611133 0.000000 0.150691
O O11 0.384242 0.500000 0.306918
O O12 0.366593 0.355860 0.373220
O O13 0.391988 0.358169 0.239472
O O14 0.896682 0.500000 0.415130
O O15 0.795343 0.641217 0.433838
O O16 0.000000 0.640209 0.439204
O O17 0.854048 0.140458 0.500000
O O18 0.815894 0.000000 0.432287
O O19 0.108060 0.000000 0.168605
#
# Coordination Sequence:
#
# PCOD9494205 Si02
#       7
#    16  16  16  16  16  16  16
#     4   7  10  17  27  36  47  67  95 122 144 168
#     4   9  16  22  28  42  60  73  90 117 149 188
#     4   8  13  21  31  40  53  74  97 122 149 175
#     4   7  10  17  27  36  47  68  98 125 145 169
#     4   8  12  16  22  34  53  74  94 119 150 179
#     4   8  12  16  22  34  53  76 100 124 150 180
#     4   8  13  21  31  40  53  75  99 122 148 177
#
# _framework density 24.184944000000002
#
# number of rings (size 3 to 8) (size 9 to 14) (size 15 to 20)
#    0.000    4.143    0.000    3.429    0.000    0.857 
#    0.000    4.286    0.000    0.000    0.000    0.000 
#    0.000   28.571    0.000   11.571    0.000   44.000 
#
# Total GULP energy -311873.371419 kJ/mol
# GULP energy per Si atom -5569.167347 kJ/mol
# Density = 2.412990 g / cm^3
# Si number density = 24.184944 Si / 1000 Ang^3
#
#
#
# Elastic Constant Matrix: (Units=GPa)
#
#
# Indices 1 2 3 4 5 6 
#
# 1 89.4744 6.5394 13.0942 0.0000 0.0000 0.0000
# 2 6.5394 84.7622 70.1675 0.0000 0.0000 0.0000
# 3 13.0942 70.1675 298.2473 0.0000 0.0000 0.0000
# 4 0.0000 0.0000 0.0000 9.2670 0.0000 0.0000
# 5 0.0000 0.0000 0.0000 0.0000 -6.8736 0.0000
# 6 0.0000 0.0000 0.0000 0.0000 0.0000 28.3654
#
#
#
# Elastic Compliance Matrix: (Units=1/GPa)
#
#
# Indices 1 2 3 4 5 6 
#
# 1 0.011271 -0.000571 -0.000360 0.000000 0.000000 0.000000
# 2 -0.000571 0.014680 -0.003429 0.000000 0.000000 0.000000
# 3 -0.000360 -0.003429 0.004175 0.000000 0.000000 0.000000
# 4 0.000000 0.000000 0.000000 0.107910 0.000000 0.000000
# 5 0.000000 0.000000 0.000000 0.000000 -0.145485 0.000000
# 6 0.000000 0.000000 0.000000 0.000000 0.000000 0.035254
#
#
# Mechanical properties :
#
#
# Convention : Reuss Voigt Hill
#
# Bulk Modulus (GPa) = 46.71628 72.45401 59.58514
# Shear Modulus (GPa) = 114.51850 31.66397 73.09123
#
# Velocity S-wave (km/s) = 6.88868 3.62227 5.50340
# Velocity P-wave (km/s) = 9.09011 6.89332 8.06684
#
# Compressibility (1/GPa) = 0.02140581
#
# Stress axis : x y z
#
# Youngs Moduli (GPa) = 88.72427 68.11956 239.49847
#
# Poissons Ratio (x) = 0.03891 0.08633
# Poissons Ratio (y) = 0.05068 0.82116
# Poissons Ratio (z) = 0.03198 0.23356
#
# Static dielectric constant tensor:
#      x y z
#    x 1.922680 0.000000 0.000000 
#    y 0.000000 1.955960 0.000000 
#    z 0.000000 0.000000 1.929800 
# 
# From -- ./inp_files/64814.got.cif
#   From: 2010.05.17/outbox.cif.g08.bks.cpg/sg65_33_cif.got.tgz:64814.got - 2010.06.03 17:01:31.
