data_PCOD9494199
_publ_section_title
;
Structure prediction by ZEFSAII (Michael W. Deem and Ramdas Pophale) SiO2 
 PCOD9494199
Probable space group: C M M M
;
_chemical_formula_sum "Si O2"
_cell_formula_units_Z 64
_cell_length_a 21.842361
_cell_length_b 19.077537
_cell_length_c 7.463793
_cell_angle_alpha 90.000000
_cell_angle_beta 90.000000
_cell_angle_gamma 90.000000
_cell_volume 3110.150975
_symmetry_space_group_name_H-M "C M M M"
_symmetry_group_IT_number 65
_symmetry_cell_setting 'orthorhombic'
loop_
_space_group_symop_operation_xyz
x,y,z
-x,-y,z
x,-y,-z
-x,y,-z
-x,-y,-z
x,y,-z
-x,y,z
x,-y,z
1/2+x,1/2+y,z
1/2-x,1/2-y,z
1/2+x,1/2-y,-z
1/2-x,1/2+y,-z
1/2-x,1/2-y,-z
1/2+x,1/2+y,-z
1/2-x,1/2+y,z
1/2+x,1/2-y,z
loop_
_atom_site_type_symbol
_atom_site_label
_atom_site_fract_x
_atom_site_fract_y
_atom_site_fract_z
Si Si1 0.000000 0.920233 0.212550
Si Si2 0.866617 0.418825 0.719247
Si Si3 0.250996 0.669549 0.280590
Si Si4 0.633922 0.420011 0.712209
Si Si5 0.500000 0.085275 0.708546
O O1 0.934379 0.889322 0.264128
O O2 0.000000 0.000000 0.288298
O O3 0.000000 0.924340 0.000000
O O4 0.868379 0.418471 0.500000
O O5 0.857489 0.500000 0.771781
O O6 0.810050 0.371467 0.775307
O O7 0.933783 0.394010 0.783080
O O8 0.251516 0.669461 0.500000
O O9 0.250000 0.750000 0.223275
O O10 0.311420 0.628129 0.218645
O O11 0.643780 0.425860 0.500000
O O12 0.635059 0.500000 0.785515
O O13 0.500000 0.106724 0.500000
O O14 0.500000 0.000000 0.712490
#
# Coordination Sequence:
#
# PCOD9494199 Si02
#       5
#     8  16  16  16   8
#     4   9  17  29  46  67  87 107 138 183 224 254
#     4   8  12  19  31  46  66  95 131 167 201 238
#     4   9  16  24  34  52  80 111 141 172 204 241
#     4   9  16  27  44  64  86 114 145 175 212 259
#     4   7  10  16  27  42  58  80 114 154 192 229
#
# _framework density 20.577780000000001
#
# number of rings (size 3 to 8) (size 9 to 14) (size 15 to 20)
#    0.000    3.500    0.000    2.625    0.000    4.500 
#    0.000    1.250    0.000    6.750    0.000    0.000 
#    0.000    0.000    0.000    0.000    0.000   24.125 
#
# Total GULP energy -178310.178616 kJ/mol
# GULP energy per Si atom -5572.193082 kJ/mol
# Density = 2.053094 g / cm^3
# Si number density = 20.577780 Si / 1000 Ang^3
#
#
#
# Elastic Constant Matrix: (Units=GPa)
#
#
# Indices 1 2 3 4 5 6 
#
# 1 266.2720 112.8599 3.3062 0.0000 0.0000 0.0000
# 2 112.8599 97.6040 4.9303 0.0000 0.0000 0.0000
# 3 3.3062 4.9303 59.9490 0.0000 0.0000 0.0000
# 4 0.0000 0.0000 0.0000 -8.5207 0.0000 0.0000
# 5 0.0000 0.0000 0.0000 0.0000 -41.2476 0.0000
# 6 0.0000 0.0000 0.0000 0.0000 0.0000 24.4923
#
#
#
# Elastic Compliance Matrix: (Units=1/GPa)
#
#
# Indices 1 2 3 4 5 6 
#
# 1 0.007371 -0.008537 0.000296 0.000000 0.000000 0.000000
# 2 -0.008537 0.020177 -0.001189 0.000000 0.000000 0.000000
# 3 0.000296 -0.001189 0.016762 0.000000 0.000000 0.000000
# 4 0.000000 0.000000 0.000000 -0.117361 0.000000 0.000000
# 5 0.000000 0.000000 0.000000 0.000000 -0.024244 0.000000
# 6 0.000000 0.000000 0.000000 0.000000 0.000000 0.040829
#
#
# Mechanical properties :
#
#
# Convention : Reuss Voigt Hill
#
# Bulk Modulus (GPa) = 39.29364 74.00198 56.64781
# Shear Modulus (GPa) = -171.69188 15.12672 -78.28258
#
# Velocity S-wave (km/s) = -9.14422 2.71421 -6.17453
# Velocity P-wave (km/s) = 9.61001 6.77221 4.82128
#
# Compressibility (1/GPa) = 0.02544941
#
# Stress axis : x y z
#
# Youngs Moduli (GPa) = 135.67573 49.56030 59.65768
#
# Poissons Ratio (x) = 0.42312 -0.01764
# Poissons Ratio (y) = 1.15833 0.07091
# Poissons Ratio (z) = -0.04011 0.05891
#
# Static dielectric constant tensor:
#      x y z
#    x 1.761640 0.000000 0.000000 
#    y 0.000000 1.682610 0.000000 
#    z 0.000000 0.000000 1.759880 
# 
# From -- ./inp_files/11127.got.cif
#   From: 2010.05.17/outbox.cif.g08.bks.cpg/sg65_6_cif.got.tgz:11127.got - 2010.06.03 17:01:31.
