data_PCOD9494344
_publ_section_title
;
Structure prediction by ZEFSAII (Michael W. Deem and Ramdas Pophale) SiO2 
 PCOD9494344
Probable space group: C M M M
;
_chemical_formula_sum "Si O2"
_cell_formula_units_Z 80
_cell_length_a 14.486828
_cell_length_b 9.857441
_cell_length_c 27.118055
_cell_angle_alpha 90.000000
_cell_angle_beta 90.000000
_cell_angle_gamma 90.000000
_cell_volume 3872.541026
_symmetry_space_group_name_H-M "C M M M"
_symmetry_group_IT_number 65
_symmetry_cell_setting 'orthorhombic'
loop_
_space_group_symop_operation_xyz
x,y,z
-x,-y,z
x,-y,-z
-x,y,-z
-x,-y,-z
x,y,-z
-x,y,z
x,-y,z
1/2+x,1/2+y,z
1/2-x,1/2-y,z
1/2+x,1/2-y,-z
1/2-x,1/2+y,-z
1/2-x,1/2-y,-z
1/2+x,1/2+y,-z
1/2-x,1/2+y,z
1/2+x,1/2-y,z
loop_
_atom_site_type_symbol
_atom_site_label
_atom_site_fract_x
_atom_site_fract_y
_atom_site_fract_z
Si Si1 0.613113 0.153846 0.354963
Si Si2 0.612495 0.345585 0.556033
Si Si3 0.658175 0.338836 0.159703
Si Si4 0.107601 0.151041 0.730311
Si Si5 0.656184 0.661773 0.946782
O O1 0.500000 0.148987 0.354959
O O2 0.641382 0.238412 0.403065
O O3 0.643983 0.234968 0.306318
O O4 0.646328 0.000000 0.355730
O O5 0.640931 0.313172 0.500000
O O6 0.500000 0.346107 0.556279
O O7 0.641301 0.500000 0.567852
O O8 0.678182 0.500000 0.160155
O O9 0.750000 0.250000 0.159867
O O10 0.611177 0.310917 0.212001
O O11 0.610387 0.311306 0.106590
O O12 0.000000 0.138617 0.717279
O O13 0.149247 0.000000 0.724028
O O14 0.676733 0.500000 0.946908
O O15 0.750000 0.750000 0.946724
O O16 0.609914 0.690094 0.000000
#
# Coordination Sequence:
#
# PCOD9494344 Si02
#       5
#    16  16  16  16  16
#     4   9  16  24  35  53  76 102 134 171 208 243
#     4   8  13  21  33  49  71 101 134 165 200 244
#     4   9  17  28  43  63  84 107 136 171 209 245
#     4   9  17  29  43  57  78 111 145 171 199 244
#     4   8  13  22  37  57  80 103 128 161 201 244
#
# _framework density 20.658272
#
# number of rings (size 3 to 8) (size 9 to 14) (size 15 to 20)
#    0.000    3.400    0.000    1.200    0.000    3.600 
#    0.000    2.000    0.000    0.600    0.000    4.200 
#    0.000    0.800    0.000   40.000    0.000   25.600 
#
# Total GULP energy -222670.351579 kJ/mol
# GULP energy per Si atom -5566.758789 kJ/mol
# Density = 2.061125 g / cm^3
# Si number density = 20.658272 Si / 1000 Ang^3
#
#
#
# Elastic Constant Matrix: (Units=GPa)
#
#
# Indices 1 2 3 4 5 6 
#
# 1 46.4528 17.6781 4.7063 0.0000 0.0000 0.0000
# 2 17.6781 104.7938 123.5980 0.0000 0.0000 0.0000
# 3 4.7063 123.5980 211.0564 0.0000 0.0000 0.0000
# 4 0.0000 0.0000 0.0000 -11.1844 0.0000 0.0000
# 5 0.0000 0.0000 0.0000 0.0000 0.2484 0.0000
# 6 0.0000 0.0000 0.0000 0.0000 0.0000 1.3265
#
#
#
# Elastic Compliance Matrix: (Units=1/GPa)
#
#
# Indices 1 2 3 4 5 6 
#
# 1 0.025330 -0.011661 0.006264 0.000000 0.000000 0.000000
# 2 -0.011661 0.036221 -0.020951 0.000000 0.000000 0.000000
# 3 0.006264 -0.020951 0.016868 0.000000 0.000000 0.000000
# 4 0.000000 0.000000 0.000000 -0.089410 0.000000 0.000000
# 5 0.000000 0.000000 0.000000 0.000000 4.026277 0.000000
# 6 0.000000 0.000000 0.000000 0.000000 0.000000 0.753851
#
#
# Mechanical properties :
#
#
# Convention : Reuss Voigt Hill
#
# Bulk Modulus (GPa) = 38.87737 72.69641 55.78689
# Shear Modulus (GPa) = 1.03511 12.49948 6.76730
#
# Velocity S-wave (km/s) = 0.70863 2.46246 1.81189
# Velocity P-wave (km/s) = 4.41924 6.58417 5.60718
#
# Compressibility (1/GPa) = 0.02572191
#
# Stress axis : x y z
#
# Youngs Moduli (GPa) = 39.47817 27.60867 59.28464
#
# Poissons Ratio (x) = 0.32196 -0.37138
# Poissons Ratio (y) = 0.46037 1.24209
# Poissons Ratio (z) = -0.24730 0.57844
#
# Static dielectric constant tensor:
#      x y z
#    x 1.815560 0.000000 0.000000 
#    y 0.000000 1.702780 0.000000 
#    z 0.000000 0.000000 1.789290 
# 
# From -- ./inp_files/72782.got.cif
#   From: 2010.05.17/outbox.cif.g08.bks.cpg/sg65_37_cif.got.tgz:72782.got - 2010.06.03 17:01:31.
