data_PCOD9494271
_publ_section_title
;
Structure prediction by ZEFSAII (Michael W. Deem and Ramdas Pophale) SiO2 
 PCOD9494271
Probable space group: C M M M
;
_chemical_formula_sum "Si O2"
_cell_formula_units_Z 104
_cell_length_a 36.057757
_cell_length_b 7.248852
_cell_length_c 19.022855
_cell_angle_alpha 90.000000
_cell_angle_beta 90.000000
_cell_angle_gamma 90.000000
_cell_volume 4972.143314
_symmetry_space_group_name_H-M "C M M M"
_symmetry_group_IT_number 65
_symmetry_cell_setting 'orthorhombic'
loop_
_space_group_symop_operation_xyz
x,y,z
-x,-y,z
x,-y,-z
-x,y,-z
-x,-y,-z
x,y,-z
-x,y,z
x,-y,z
1/2+x,1/2+y,z
1/2-x,1/2-y,z
1/2+x,1/2-y,-z
1/2-x,1/2+y,-z
1/2-x,1/2-y,-z
1/2+x,1/2+y,-z
1/2-x,1/2+y,z
1/2+x,1/2-y,z
loop_
_atom_site_type_symbol
_atom_site_label
_atom_site_fract_x
_atom_site_fract_y
_atom_site_fract_z
Si Si1 0.846528 0.223710 0.722657
Si Si2 0.205981 0.780122 0.154280
Si Si3 0.294492 0.280596 0.000000
Si Si4 0.072345 0.223637 0.776566
Si Si5 0.040643 0.224276 0.369932
Si Si6 0.543397 0.276030 0.075551
Si Si7 0.621783 0.275280 0.422090
O O1 0.814968 0.289251 0.776256
O O2 0.885903 0.272471 0.757071
O O3 0.851496 0.284210 0.641708
O O4 0.843878 0.000000 0.720076
O O5 0.250000 0.750000 0.159730
O O6 0.199809 0.000000 0.152388
O O7 0.192937 0.710463 0.076919
O O8 0.250000 0.250000 0.000000
O O9 0.301428 0.500000 0.000000
O O10 0.046143 0.278198 0.711806
O O11 0.061741 0.290496 0.853276
O O12 0.070582 0.000000 0.777794
O O13 0.078909 0.281507 0.407449
O O14 0.000000 0.284349 0.395772
O O15 0.040606 0.000000 0.373312
O O16 0.500000 0.228795 0.077736
O O17 0.545434 0.500000 0.076165
O O18 0.558836 0.215704 0.000000
O O19 0.633001 0.217754 0.500000
O O20 0.621355 0.500000 0.420458
#
# Coordination Sequence:
#
# PCOD9494271 Si02
#       7
#    16  16   8  16  16  16  16
#     4   8  14  23  33  46  64  86 114 146 180 217
#     4   9  16  27  42  59  78  99 123 152 184 221
#     4   8  14  24  38  56  76  96 117 143 177 215
#     4   8  12  18  25  34  51  76 107 141 175 209
#     4   8  12  16  23  35  51  75 108 145 180 211
#     4   8  12  16  21  30  46  71 105 142 173 199
#     4   8  13  20  29  41  59  84 114 148 184 219
#
# _framework density 20.916532
#
# number of rings (size 3 to 8) (size 9 to 14) (size 15 to 20)
#    0.000    3.846    0.000    2.769    0.000    2.154 
#    1.385    1.538    0.000    0.462    0.000    0.000 
#    0.000    0.000    0.000    0.000    0.000   19.231 
#
# Total GULP energy -289661.550257 kJ/mol
# GULP energy per Si atom -5570.414428 kJ/mol
# Density = 2.086893 g / cm^3
# Si number density = 20.916532 Si / 1000 Ang^3
#
#
#
# Elastic Constant Matrix: (Units=GPa)
#
#
# Indices 1 2 3 4 5 6 
#
# 1 60.5370 0.3287 65.4697 0.0000 0.0000 0.0000
# 2 0.3287 94.8269 8.1502 0.0000 0.0000 0.0000
# 3 65.4697 8.1502 221.8509 0.0000 0.0000 0.0000
# 4 0.0000 0.0000 0.0000 -22.2201 0.0000 0.0000
# 5 0.0000 0.0000 0.0000 0.0000 10.1461 0.0000
# 6 0.0000 0.0000 0.0000 0.0000 0.0000 -62.1799
#
#
#
# Elastic Compliance Matrix: (Units=1/GPa)
#
#
# Indices 1 2 3 4 5 6 
#
# 1 0.024289 0.000534 -0.007187 0.000000 0.000000 0.000000
# 2 0.000534 0.010591 -0.000547 0.000000 0.000000 0.000000
# 3 -0.007187 -0.000547 0.006649 0.000000 0.000000 0.000000
# 4 0.000000 0.000000 0.000000 -0.045004 0.000000 0.000000
# 5 0.000000 0.000000 0.000000 0.000000 0.098560 0.000000
# 6 0.000000 0.000000 0.000000 0.000000 0.000000 -0.016082
#
#
# Mechanical properties :
#
#
# Convention : Reuss Voigt Hill
#
# Bulk Modulus (GPa) = 36.86291 58.34576 47.60434
# Shear Modulus (GPa) = 48.80649 5.36696 27.08672
#
# Velocity S-wave (km/s) = 4.83576 1.60358 3.60250
# Velocity P-wave (km/s) = 6.98867 5.60212 6.33345
#
# Compressibility (1/GPa) = 0.02712754
#
# Stress axis : x y z
#
# Youngs Moduli (GPa) = 41.17080 94.42282 150.40581
#
# Poissons Ratio (x) = -0.05038 1.08104
# Poissons Ratio (y) = -0.02197 0.08220
# Poissons Ratio (z) = 0.29591 0.05161
#
# Static dielectric constant tensor:
#      x y z
#    x 1.697200 0.000000 0.000000 
#    y 0.000000 1.744560 0.000000 
#    z 0.000000 0.000000 1.786450 
# 
# From -- ./inp_files/66487.got.cif
#   From: 2010.05.17/outbox.cif.g08.bks.cpg/sg65_34_cif.got.tgz:66487.got - 2010.06.03 17:01:31.
