data_PCOD9494295
_publ_section_title
;
Structure prediction by ZEFSAII (Michael W. Deem and Ramdas Pophale) SiO2 
 PCOD9494295
Probable space group: C M M M
;
_chemical_formula_sum "Si O2"
_cell_formula_units_Z 88
_cell_length_a 7.362682
_cell_length_b 18.200025
_cell_length_c 30.990418
_cell_angle_alpha 90.000000
_cell_angle_beta 90.000000
_cell_angle_gamma 90.000000
_cell_volume 4152.746893
_symmetry_space_group_name_H-M "C M M M"
_symmetry_group_IT_number 65
_symmetry_cell_setting 'orthorhombic'
loop_
_space_group_symop_operation_xyz
x,y,z
-x,-y,z
x,-y,-z
-x,y,-z
-x,-y,-z
x,y,-z
-x,y,z
x,-y,z
1/2+x,1/2+y,z
1/2-x,1/2-y,z
1/2+x,1/2-y,-z
1/2-x,1/2+y,-z
1/2-x,1/2-y,-z
1/2+x,1/2+y,-z
1/2-x,1/2+y,z
1/2+x,1/2-y,z
loop_
_atom_site_type_symbol
_atom_site_label
_atom_site_fract_x
_atom_site_fract_y
_atom_site_fract_z
Si Si1 0.717068 0.837147 0.186526
Si Si2 0.217335 0.661834 0.000000
Si Si3 0.217067 0.337146 0.640040
Si Si4 0.217077 0.338022 0.092925
Si Si5 0.778034 0.584847 0.273243
Si Si6 0.782901 0.661967 0.546437
O O1 0.500000 0.848049 0.185658
O O2 0.750000 0.750000 0.189830
O O3 0.786616 0.863914 0.139610
O O4 0.785890 0.876263 0.229444
O O5 0.250000 0.750000 0.000000
O O6 0.286825 0.634037 0.046481
O O7 0.000000 0.650896 0.000000
O O8 0.250000 0.250000 0.643339
O O9 0.285895 0.376261 0.682959
O O10 0.286644 0.363902 0.593124
O O11 0.000000 0.348056 0.639181
O O12 0.250000 0.250000 0.093027
O O13 0.000000 0.349529 0.092711
O O14 0.727721 0.500000 0.273244
O O15 0.000000 0.589000 0.273242
O O16 0.713051 0.634006 0.500000
O O17 0.750000 0.750000 0.546502
O O18 0.000000 0.650489 0.546260
#
# Coordination Sequence:
#
# PCOD9494295 Si02
#       6
#    16   8  16  16  16  16
#     4   9  16  26  41  59  77  98 126 159 191 223
#     4   8  12  18  28  44  69  95 115 139 175 218
#     4   9  16  26  42  61  79 101 128 158 190 223
#     4   8  13  20  31  49  71  94 118 145 180 218
#     4   9  17  28  41  57  77 102 131 159 188 226
#     4   8  13  21  34  54  78  99 120 149 184 220
#
# _framework density 21.190791999999998
#
# number of rings (size 3 to 8) (size 9 to 14) (size 15 to 20)
#    0.000    3.455    0.000    0.545    0.000    0.000 
#    0.000    0.000    0.000    2.727    0.000    4.455 
#    0.000    5.091    0.000   29.455    0.000  186.727 
#
# Total GULP energy -244955.172115 kJ/mol
# GULP energy per Si atom -5567.163003 kJ/mol
# Density = 2.114256 g / cm^3
# Si number density = 21.190792 Si / 1000 Ang^3
#
#
#
# Elastic Constant Matrix: (Units=GPa)
#
#
# Indices 1 2 3 4 5 6 
#
# 1 84.2308 -3.6735 15.6769 0.0000 0.0000 0.0000
# 2 -3.6735 36.7334 75.0007 0.0000 0.0000 0.0000
# 3 15.6769 75.0007 334.1777 0.0000 0.0000 0.0000
# 4 0.0000 0.0000 0.0000 -10.8078 0.0000 0.0000
# 5 0.0000 0.0000 0.0000 0.0000 3.6409 0.0000
# 6 0.0000 0.0000 0.0000 0.0000 0.0000 5.0555
#
#
#
# Elastic Compliance Matrix: (Units=1/GPa)
#
#
# Indices 1 2 3 4 5 6 
#
# 1 0.012362 0.004467 -0.001583 0.000000 0.000000 0.000000
# 2 0.004467 0.051864 -0.011850 0.000000 0.000000 0.000000
# 3 -0.001583 -0.011850 0.005726 0.000000 0.000000 0.000000
# 4 0.000000 0.000000 0.000000 -0.092526 0.000000 0.000000
# 5 0.000000 0.000000 0.000000 0.000000 0.274660 0.000000
# 6 0.000000 0.000000 0.000000 0.000000 0.000000 0.197806
#
#
# Mechanical properties :
#
#
# Convention : Reuss Voigt Hill
#
# Bulk Modulus (GPa) = 19.22261 69.90556 44.56409
# Shear Modulus (GPa) = 10.30581 24.12022 17.21302
#
# Velocity S-wave (km/s) = 2.20769 3.37744 2.85316
# Velocity P-wave (km/s) = 3.94835 6.94764 5.65063
#
# Compressibility (1/GPa) = 0.05202207
#
# Stress axis : x y z
#
# Youngs Moduli (GPa) = 80.89625 19.28119 174.63865
#
# Poissons Ratio (x) = -0.08614 0.27637
# Poissons Ratio (y) = -0.36139 2.06940
# Poissons Ratio (z) = 0.12802 0.22847
#
# Static dielectric constant tensor:
#      x y z
#    x 1.776720 0.000000 0.000000 
#    y 0.000000 1.658550 0.000000 
#    z 0.000000 0.000000 1.862690 
# 
# From -- ./inp_files/76496.got.cif
#   From: 2010.05.17/outbox.cif.g08.bks.cpg/sg65_39_cif.got.tgz:76496.got - 2010.06.03 17:01:31.
