data_PCOD9494660
_publ_section_title
;
Structure prediction by ZEFSAII (Michael W. Deem and Ramdas Pophale) SiO2 
 PCOD9494660
Probable space group: C M M M
;
_chemical_formula_sum "Si O2"
_cell_formula_units_Z 36
_cell_length_a 21.000000
_cell_length_b 9.000000
_cell_length_c 21.000000
_cell_angle_alpha 90.000000
_cell_angle_beta 90.000000
_cell_angle_gamma 90.000000
_cell_volume 3969.000000
_symmetry_space_group_name_H-M "C M M M"
_symmetry_group_IT_number 65
_symmetry_cell_setting 'orthorhombic'
loop_
_space_group_symop_operation_xyz
x,y,z
-x,-y,z
x,-y,-z
-x,y,-z
-x,-y,-z
x,y,-z
-x,y,z
x,-y,z
1/2+x,1/2+y,z
1/2-x,1/2-y,z
1/2+x,1/2-y,-z
1/2-x,1/2+y,-z
1/2-x,1/2-y,-z
1/2+x,1/2+y,-z
1/2-x,1/2+y,z
1/2+x,1/2-y,z
loop_
_atom_site_type_symbol
_atom_site_label
_atom_site_fract_x
_atom_site_fract_y
_atom_site_fract_z
Si Si1 0.426624 0.179926 0.500000
Si Si2 0.186747 0.176343 0.266333
Si Si3 0.576963 0.333464 0.071203
Si Si4 0.315411 0.820790 0.595024
Si Si5 0.575575 0.171487 0.805255
O O1 0.500000 0.235020 0.500000
O O2 0.380728 0.220644 0.441018
O O3 0.430719 0.000000 0.500000
O O4 0.250000 0.250000 0.235410
O O5 0.181054 0.255720 0.334513
O O6 0.121656 0.218652 0.231772
O O7 0.195283 0.000000 0.272219
O O8 0.500000 0.338863 0.068112
O O9 0.597544 0.500000 0.091858
O O10 0.591226 0.206173 0.121271
O O11 0.600849 0.306782 0.000000
O O12 0.250000 0.750000 0.568324
O O13 0.309849 0.000000 0.594138
O O14 0.500000 0.199357 0.795123
O O15 0.588190 0.000000 0.788631
#
# Coordination Sequence:
#
# PCOD9494660 Si02
#       5
#     8  16  16  16  16
#     4   9  19  34  53  79 108 137 168 206 254 303
#     4  11  22  37  56  77 104 137 176 218 262 312
#     4   8  14  26  45  70 101 136 173 213 257 305
#     4  10  19  34  56  78 102 134 173 212 252 303
#     4  10  20  33  51  77 107 138 174 216 262 311
#
# _framework density 9.0702949999999998
#
# number of rings (size 3 to 8) (size 9 to 14) (size 15 to 20)
#    0.000    2.333    0.000    5.667    0.000    2.667 
#    0.000    6.111    0.000    5.333    0.000    0.000 
#    0.000    0.000    0.000    0.000    0.000    0.000 
#
# Total GULP energy -200411.221401 kJ/mol
# GULP energy per Si atom -5566.978372 kJ/mol
# Density = 0.904965 g / cm^3
# Si number density = 9.070295 Si / 1000 Ang^3
#
#
#
# Elastic Constant Matrix: (Units=GPa)
#
#
# Indices 1 2 3 4 5 6 
#
# 1 103.7429 39.7055 28.0301 0.0000 0.0000 0.0000
# 2 39.7055 88.7005 19.9658 0.0000 0.0000 0.0000
# 3 28.0301 19.9658 51.6702 0.0000 0.0000 0.0000
# 4 0.0000 0.0000 0.0000 113.5481 0.0000 0.0000
# 5 0.0000 0.0000 0.0000 0.0000 31.8039 0.0000
# 6 0.0000 0.0000 0.0000 0.0000 0.0000 30.2340
#
#
#
# Elastic Compliance Matrix: (Units=1/GPa)
#
#
# Indices 1 2 3 4 5 6 
#
# 1 0.012781 -0.004557 -0.005173 0.000000 0.000000 0.000000
# 2 -0.004557 0.013973 -0.002927 0.000000 0.000000 0.000000
# 3 -0.005173 -0.002927 0.023291 0.000000 0.000000 0.000000
# 4 0.000000 0.000000 0.000000 0.008807 0.000000 0.000000
# 5 0.000000 0.000000 0.000000 0.000000 0.031443 0.000000
# 6 0.000000 0.000000 0.000000 0.000000 0.000000 0.033075
#
#
# Mechanical properties :
#
#
# Convention : Reuss Voigt Hill
#
# Bulk Modulus (GPa) = 40.43516 46.61295 43.52406
# Shear Modulus (GPa) = 31.86224 45.54468 38.70346
#
# Velocity S-wave (km/s) = 4.19550 5.01607 4.62402
# Velocity P-wave (km/s) = 6.76815 7.70060 7.24938
#
# Compressibility (1/GPa) = 0.02473095
#
# Stress axis : x y z
#
# Youngs Moduli (GPa) = 78.24228 71.56876 42.93578
#
# Poissons Ratio (x) = 0.32613 0.22209
# Poissons Ratio (y) = 0.35654 0.12568
# Poissons Ratio (z) = 0.40471 0.20949
#
# Static dielectric constant tensor:
#      x y z
#    x 1.637720 0.000000 0.000000 
#    y 0.000000 1.615920 0.000000 
#    z 0.000000 0.000000 1.688610 
# 
# From -- ./inp_files/64295.got.cif
#   From: 2010.05.17/outbox.ucp.g08.bks.cvg/sg65_33_cif.got.tgz:64295.got - 2010.06.11 16:39:57.
