data_PCOD9494787
_publ_section_title
;
Structure prediction by ZEFSAII (Michael W. Deem and Ramdas Pophale) SiO2 
 PCOD9494787
Probable space group: C M M M
;
_chemical_formula_sum "Si O2"
_cell_formula_units_Z 44
_cell_length_a 18.000000
_cell_length_b 9.000000
_cell_length_c 30.000000
_cell_angle_alpha 90.000000
_cell_angle_beta 90.000000
_cell_angle_gamma 90.000000
_cell_volume 4860.000000
_symmetry_space_group_name_H-M "C M M M"
_symmetry_group_IT_number 65
_symmetry_cell_setting 'orthorhombic'
loop_
_space_group_symop_operation_xyz
x,y,z
-x,-y,z
x,-y,-z
-x,y,-z
-x,-y,-z
x,y,-z
-x,y,z
x,-y,z
1/2+x,1/2+y,z
1/2-x,1/2-y,z
1/2+x,1/2-y,-z
1/2-x,1/2+y,-z
1/2-x,1/2-y,-z
1/2+x,1/2+y,-z
1/2-x,1/2+y,z
1/2+x,1/2-y,z
loop_
_atom_site_type_symbol
_atom_site_label
_atom_site_fract_x
_atom_site_fract_y
_atom_site_fract_z
Si Si1 0.667312 0.819586 0.724953
Si Si2 0.088640 0.322858 0.906759
Si Si3 0.331482 0.179941 0.000000
Si Si4 0.089600 0.823431 0.811931
Si Si5 0.667693 0.820899 0.448546
Si Si6 0.589227 0.677311 0.637496
O O1 0.750000 0.750000 0.724332
O O2 0.627466 0.761380 0.770379
O O3 0.625302 0.757105 0.680787
O O4 0.669168 0.000000 0.724207
O O5 0.101240 0.500000 0.900688
O O6 0.111875 0.239778 0.860962
O O7 0.000000 0.299893 0.911880
O O8 0.127414 0.277385 0.953466
O O9 0.250000 0.250000 0.000000
O O10 0.328000 0.000000 0.000000
O O11 0.000000 0.804924 0.808442
O O12 0.106016 0.000000 0.809338
O O13 0.641528 0.792056 0.500000
O O14 0.750000 0.750000 0.445214
O O15 0.619833 0.748967 0.408583
O O16 0.671021 0.000000 0.442976
O O17 0.500000 0.693540 0.639366
O O18 0.606657 0.500000 0.638516
#
# Coordination Sequence:
#
# PCOD9494787 Si02
#       6
#    16  16   8  16  16  16
#     4  12  25  41  62  86 115 151 191 235 284 340
#     4   9  18  35  58  81 107 145 192 234 275 329
#     4  10  21  35  53  79 111 146 184 232 284 334
#     4  10  21  38  60  87 118 149 185 232 284 338
#     4  10  21  38  61  88 119 155 195 239 286 339
#     4  11  24  41  61  86 118 154 192 237 287 339
#
# _framework density 9.0534979999999994
#
# number of rings (size 3 to 8) (size 9 to 14) (size 15 to 20)
#    0.000    1.636    0.000    4.636    0.000    8.727 
#    0.000    3.636    0.000    2.727    0.000    0.000 
#    0.000    0.000    0.000    0.000    0.000    0.000 
#
# Total GULP energy -245779.901075 kJ/mol
# GULP energy per Si atom -5585.906843 kJ/mol
# Density = 0.903289 g / cm^3
# Si number density = 9.053498 Si / 1000 Ang^3
#
#
#
# Elastic Constant Matrix: (Units=GPa)
#
#
# Indices 1 2 3 4 5 6 
#
# 1 89.7350 61.6307 84.7247 0.0000 0.0000 0.0000
# 2 61.6307 147.9904 98.7835 0.0000 0.0000 0.0000
# 3 84.7247 98.7835 220.9624 0.0000 0.0000 0.0000
# 4 0.0000 0.0000 0.0000 41.2014 0.0000 0.0000
# 5 0.0000 0.0000 0.0000 0.0000 42.3167 0.0000
# 6 0.0000 0.0000 0.0000 0.0000 0.0000 33.1938
#
#
#
# Elastic Compliance Matrix: (Units=1/GPa)
#
#
# Indices 1 2 3 4 5 6 
#
# 1 0.019300 -0.004415 -0.005426 0.000000 0.000000 0.000000
# 2 -0.004415 0.010641 -0.003064 0.000000 0.000000 0.000000
# 3 -0.005426 -0.003064 0.007976 0.000000 0.000000 0.000000
# 4 0.000000 0.000000 0.000000 0.024271 0.000000 0.000000
# 5 0.000000 0.000000 0.000000 0.000000 0.023631 0.000000
# 6 0.000000 0.000000 0.000000 0.000000 0.000000 0.030126
#
#
# Mechanical properties :
#
#
# Convention : Reuss Voigt Hill
#
# Bulk Modulus (GPa) = 82.60759 105.44064 94.02411
# Shear Modulus (GPa) = 34.29522 37.57896 35.93709
#
# Velocity S-wave (km/s) = 4.35677 4.56058 4.45984
# Velocity P-wave (km/s) = 8.42790 9.27848 8.86340
#
# Compressibility (1/GPa) = 0.01210543
#
# Stress axis : x y z
#
# Youngs Moduli (GPa) = 51.81428 93.97231 125.37254
#
# Poissons Ratio (x) = 0.41492 0.68030
# Poissons Ratio (y) = 0.22878 0.38419
# Poissons Ratio (z) = 0.28116 0.28797
#
# Static dielectric constant tensor:
#      x y z
#    x 1.612240 0.000000 0.000000 
#    y 0.000000 1.612910 0.000000 
#    z 0.000000 0.000000 1.607900 
# 
# From -- ./inp_files/77794.got.cif
#   From: 2010.05.17/outbox.ucp.g08.bks.cvg/sg65_39_cif.got.tgz:77794.got - 2010.06.11 16:39:57.
