data_PCOD9494204
_publ_section_title
;
Structure prediction by ZEFSAII (Michael W. Deem and Ramdas Pophale) SiO2 
 PCOD9494204
Probable space group: C M M M
;
_chemical_formula_sum "Si O2"
_cell_formula_units_Z 64
_cell_length_a 23.795045
_cell_length_b 18.067443
_cell_length_c 7.442415
_cell_angle_alpha 90.000000
_cell_angle_beta 90.000000
_cell_angle_gamma 90.000000
_cell_volume 3199.610453
_symmetry_space_group_name_H-M "C M M M"
_symmetry_group_IT_number 65
_symmetry_cell_setting 'orthorhombic'
loop_
_space_group_symop_operation_xyz
x,y,z
-x,-y,z
x,-y,-z
-x,y,-z
-x,-y,-z
x,y,-z
-x,y,z
x,-y,z
1/2+x,1/2+y,z
1/2-x,1/2-y,z
1/2+x,1/2-y,-z
1/2-x,1/2+y,-z
1/2-x,1/2-y,-z
1/2+x,1/2+y,-z
1/2-x,1/2+y,z
1/2+x,1/2-y,z
loop_
_atom_site_type_symbol
_atom_site_label
_atom_site_fract_x
_atom_site_fract_y
_atom_site_fract_z
Si Si1 0.122921 0.913706 0.780039
Si Si2 0.563942 0.090502 0.500000
Si Si3 0.235358 0.832846 0.781001
Si Si4 0.651457 0.911069 0.795075
Si Si5 0.500000 0.589966 0.789793
O O1 0.175661 0.864950 0.720343
O O2 0.061094 0.887787 0.716749
O O3 0.131008 0.000000 0.729674
O O4 0.121722 0.912646 0.000000
O O5 0.500000 0.116398 0.500000
O O6 0.600159 0.113926 0.328112
O O7 0.562617 0.000000 0.500000
O O8 0.250000 0.750000 0.723672
O O9 0.288199 0.883322 0.728921
O O10 0.233197 0.833484 0.000000
O O11 0.652136 0.000000 0.794459
O O12 0.643972 0.885336 0.000000
O O13 0.500000 0.500000 0.782254
O O14 0.500000 0.610976 0.000000
#
# Coordination Sequence:
#
# PCOD9494204 Si02
#       5
#    16   8  16  16   8
#     4   8  12  19  33  53  78 111 150 190 233 277
#     4   9  18  32  51  74  96 121 159 206 248 288
#     4   9  16  25  39  60  92 127 158 194 234 279
#     4   9  17  30  49  72  98 127 160 200 245 290
#     4   7  10  16  28  48  72  99 136 182 226 268
#
# _framework density 20.002434999999998
#
# number of rings (size 3 to 8) (size 9 to 14) (size 15 to 20)
#    0.000    3.500    0.000    2.250    0.000    3.500 
#    0.000    3.125    2.750    0.000    0.000    0.000 
#    0.000    0.000    0.000    9.250    0.000   21.625 
#
# Total GULP energy -178346.060852 kJ/mol
# GULP energy per Si atom -5573.314402 kJ/mol
# Density = 1.995691 g / cm^3
# Si number density = 20.002435 Si / 1000 Ang^3
#
#
#
# Elastic Constant Matrix: (Units=GPa)
#
#
# Indices 1 2 3 4 5 6 
#
# 1 262.6978 62.7402 51.9008 0.0000 0.0000 0.0000
# 2 62.7402 35.0900 11.4153 0.0000 0.0000 0.0000
# 3 51.9008 11.4153 73.2666 0.0000 0.0000 0.0000
# 4 0.0000 0.0000 0.0000 -9.4822 0.0000 0.0000
# 5 0.0000 0.0000 0.0000 0.0000 42.2086 0.0000
# 6 0.0000 0.0000 0.0000 0.0000 0.0000 1.5261
#
#
#
# Elastic Compliance Matrix: (Units=1/GPa)
#
#
# Indices 1 2 3 4 5 6 
#
# 1 0.007339 -0.012041 -0.003323 0.000000 0.000000 0.000000
# 2 -0.012041 0.049775 0.000774 0.000000 0.000000 0.000000
# 3 -0.003323 0.000774 0.015882 0.000000 0.000000 0.000000
# 4 0.000000 0.000000 0.000000 -0.105460 0.000000 0.000000
# 5 0.000000 0.000000 0.000000 0.000000 0.023692 0.000000
# 6 0.000000 0.000000 0.000000 0.000000 0.000000 0.655266
#
#
# Mechanical properties :
#
#
# Convention : Reuss Voigt Hill
#
# Bulk Modulus (GPa) = 22.82204 69.24077 46.03141
# Shear Modulus (GPa) = 7.24347 23.18370 15.21359
#
# Velocity S-wave (km/s) = 1.90503 3.40817 2.76087
# Velocity P-wave (km/s) = 4.03401 7.08370 5.76420
#
# Compressibility (1/GPa) = 0.04381729
#
# Stress axis : x y z
#
# Youngs Moduli (GPa) = 136.26213 20.09046 62.96491
#
# Poissons Ratio (x) = 0.24190 0.20921
# Poissons Ratio (y) = 1.64069 -0.04875
# Poissons Ratio (z) = 0.45275 -0.01556
#
# Static dielectric constant tensor:
#      x y z
#    x 1.701720 0.000000 0.000000 
#    y 0.000000 1.653600 0.000000 
#    z 0.000000 0.000000 1.776400 
# 
# From -- ./inp_files/13538.got.cif
#   From: 2010.05.17/outbox.cif.g08.bks.cpg/sg65_7_cif.got.tgz:13538.got - 2010.06.03 17:01:31.
