data_PCOD9494167
_publ_section_title
;
Structure prediction by ZEFSAII (Michael W. Deem and Ramdas Pophale) SiO2 
 PCOD9494167
Probable space group: C M M M
;
_chemical_formula_sum "Si O2"
_cell_formula_units_Z 64
_cell_length_a 14.977305
_cell_length_b 9.429053
_cell_length_c 21.377428
_cell_angle_alpha 90.000000
_cell_angle_beta 90.000000
_cell_angle_gamma 90.000000
_cell_volume 3018.958918
_symmetry_space_group_name_H-M "C M M M"
_symmetry_group_IT_number 65
_symmetry_cell_setting 'orthorhombic'
loop_
_space_group_symop_operation_xyz
x,y,z
-x,-y,z
x,-y,-z
-x,y,-z
-x,-y,-z
x,y,-z
-x,y,z
x,-y,z
1/2+x,1/2+y,z
1/2-x,1/2-y,z
1/2+x,1/2-y,-z
1/2-x,1/2+y,-z
1/2-x,1/2-y,-z
1/2+x,1/2+y,-z
1/2-x,1/2+y,z
1/2+x,1/2-y,z
loop_
_atom_site_type_symbol
_atom_site_label
_atom_site_fract_x
_atom_site_fract_y
_atom_site_fract_z
Si Si1 0.890597 0.662151 0.878076
Si Si2 0.105567 0.159003 0.381163
Si Si3 0.109249 0.162347 0.000000
Si Si4 0.342602 0.831414 0.500000
Si Si5 0.891106 0.835632 0.241929
O O1 0.861025 0.500000 0.883351
O O2 0.860656 0.733742 0.813379
O O3 0.000000 0.661511 0.877928
O O4 0.863108 0.754680 0.937701
O O5 0.115948 0.271575 0.436049
O O6 0.139887 0.201145 0.312344
O O7 0.000000 0.142784 0.373406
O O8 0.141116 0.000000 0.397779
O O9 0.000000 0.160314 0.000000
O O10 0.139676 0.000000 0.000000
O O11 0.250000 0.750000 0.500000
O O12 0.338950 0.000000 0.500000
O O13 0.000000 0.829246 0.241209
O O14 0.867398 0.000000 0.229991
#
# Coordination Sequence:
#
# PCOD9494167 Si02
#       5
#    16  16   8   8  16
#     4   9  15  21  30  47  73 104 140 184 228 267
#     4   9  18  34  55  76  99 127 159 197 241 289
#     4   9  15  21  29  41  63 101 146 185 222 271
#     4  12  25  38  53  73  99 129 161 198 241 290
#     4   8  14  25  41  60  82 111 146 182 223 273
#
# _framework density 21.199361
#
# number of rings (size 3 to 8) (size 9 to 14) (size 15 to 20)
#    0.000    2.875    0.000    4.125    0.000    7.500 
#    0.000    2.500    0.000    0.000    0.000    0.000 
#    0.000    0.000    0.000    1.125    0.000   16.250 
#
# Total GULP energy -178525.658260 kJ/mol
# GULP energy per Si atom -5578.926821 kJ/mol
# Density = 2.115111 g / cm^3
# Si number density = 21.199361 Si / 1000 Ang^3
#
#
#
# Elastic Constant Matrix: (Units=GPa)
#
#
# Indices 1 2 3 4 5 6 
#
# 1 27.7754 9.1199 6.9963 0.0000 0.0000 0.0000
# 2 9.1199 207.5311 158.9091 0.0000 0.0000 0.0000
# 3 6.9963 158.9091 210.7346 0.0000 0.0000 0.0000
# 4 0.0000 0.0000 0.0000 1452.1442 0.0000 0.0000
# 5 0.0000 0.0000 0.0000 0.0000 -46.8231 0.0000
# 6 0.0000 0.0000 0.0000 0.0000 0.0000 7.2855
#
#
#
# Elastic Compliance Matrix: (Units=1/GPa)
#
#
# Indices 1 2 3 4 5 6 
#
# 1 0.036530 -0.001601 -0.000005 0.000000 0.000000 0.000000
# 2 -0.001601 0.011472 -0.008598 0.000000 0.000000 0.000000
# 3 -0.000005 -0.008598 0.011229 0.000000 0.000000 0.000000
# 4 0.000000 0.000000 0.000000 0.000689 0.000000 0.000000
# 5 0.000000 0.000000 0.000000 0.000000 -0.021357 0.000000
# 6 0.000000 0.000000 0.000000 0.000000 0.000000 0.137258
#
#
# Mechanical properties :
#
#
# Convention : Reuss Voigt Hill
#
# Bulk Modulus (GPa) = 25.75817 88.45462 57.10639
# Shear Modulus (GPa) = 23.90387 300.58906 162.24646
#
# Velocity S-wave (km/s) = 3.36158 11.92054 8.75784
# Velocity P-wave (km/s) = 5.21956 15.20794 11.36937
#
# Compressibility (1/GPa) = 0.03882264
#
# Stress axis : x y z
#
# Youngs Moduli (GPa) = 27.37462 87.16561 89.05590
#
# Poissons Ratio (x) = 0.13957 0.00048
# Poissons Ratio (y) = 0.04383 0.76569
# Poissons Ratio (z) = 0.00015 0.74944
#
# Static dielectric constant tensor:
#      x y z
#    x 1.951670 0.000000 0.000000 
#    y 0.000000 1.698710 0.000000 
#    z 0.000000 0.000000 1.941840 
# 
# From -- ./inp_files/58799.got.cif
#   From: 2010.05.17/outbox.cif.g08.bks.cpg/sg65_30_cif.got.tgz:58799.got - 2010.06.03 17:01:31.
