data_PCOD9494142
_publ_section_title
;
Structure prediction by ZEFSAII (Michael W. Deem and Ramdas Pophale) SiO2 
 PCOD9494142
Probable space group: C M M M
;
_chemical_formula_sum "Si O2"
_cell_formula_units_Z 72
_cell_length_a 14.268307
_cell_length_b 17.855250
_cell_length_c 17.150008
_cell_angle_alpha 90.000000
_cell_angle_beta 90.000000
_cell_angle_gamma 90.000000
_cell_volume 4369.207872
_symmetry_space_group_name_H-M "C M M M"
_symmetry_group_IT_number 65
_symmetry_cell_setting 'orthorhombic'
loop_
_space_group_symop_operation_xyz
x,y,z
-x,-y,z
x,-y,-z
-x,y,-z
-x,-y,-z
x,y,-z
-x,y,z
x,-y,z
1/2+x,1/2+y,z
1/2-x,1/2-y,z
1/2+x,1/2-y,-z
1/2-x,1/2+y,-z
1/2-x,1/2-y,-z
1/2+x,1/2+y,-z
1/2-x,1/2+y,z
1/2+x,1/2-y,z
loop_
_atom_site_type_symbol
_atom_site_label
_atom_site_fract_x
_atom_site_fract_y
_atom_site_fract_z
Si Si1 0.610584 0.909936 0.410879
Si Si2 0.613268 0.585280 0.000000
Si Si3 0.736965 0.663708 0.695810
Si Si4 0.607327 0.417948 0.407155
Si Si5 0.109785 0.090834 0.827798
O O1 0.641073 0.888825 0.500000
O O2 0.500000 0.892777 0.404558
O O3 0.669632 0.872113 0.341845
O O4 0.620973 0.000000 0.405993
O O5 0.636388 0.618056 0.084631
O O6 0.649890 0.500000 0.000000
O O7 0.500000 0.580885 0.000000
O O8 0.750000 0.750000 0.715144
O O9 0.663441 0.650805 0.625941
O O10 0.684986 0.621231 0.766455
O O11 0.608593 0.417624 0.500000
O O12 0.500000 0.415319 0.381032
O O13 0.645956 0.500000 0.381799
O O14 0.000000 0.111953 0.811886
O O15 0.111175 0.000000 0.827679
#
# Coordination Sequence:
#
# PCOD9494142 Si02
#       5
#    16   8  16  16  16
#     4   9  19  36  53  64  80 118 172 217 241 259
#     4   7  12  26  51  80  99 113 143 187 232 279
#     4  12  23  30  42  70 102 130 155 186 232 287
#     4   9  18  33  52  71  91 119 157 201 248 294
#     4   9  17  32  55  78  98 120 149 189 236 285
#
# _framework density 16.478959
#
# number of rings (size 3 to 8) (size 9 to 14) (size 15 to 20)
#    0.000    2.556    0.000    6.000    0.000    7.111 
#    0.000    2.778    0.000    0.000    0.000    0.778 
#    0.000    4.444    0.000    0.000    0.000    0.667 
#
# Total GULP energy -200406.974746 kJ/mol
# GULP energy per Si atom -5566.860410 kJ/mol
# Density = 1.644145 g / cm^3
# Si number density = 16.478959 Si / 1000 Ang^3
#
#
#
# Elastic Constant Matrix: (Units=GPa)
#
#
# Indices 1 2 3 4 5 6 
#
# 1 80.3274 26.6065 49.8326 0.0000 0.0000 0.0000
# 2 26.6065 44.0357 29.0544 0.0000 0.0000 0.0000
# 3 49.8326 29.0544 116.5030 0.0000 0.0000 0.0000
# 4 0.0000 0.0000 0.0000 2.4741 0.0000 0.0000
# 5 0.0000 0.0000 0.0000 0.0000 30.2969 0.0000
# 6 0.0000 0.0000 0.0000 0.0000 0.0000 -30.9274
#
#
#
# Elastic Compliance Matrix: (Units=1/GPa)
#
#
# Indices 1 2 3 4 5 6 
#
# 1 0.018675 -0.007197 -0.006193 0.000000 0.000000 0.000000
# 2 -0.007197 0.029955 -0.004392 0.000000 0.000000 0.000000
# 3 -0.006193 -0.004392 0.012328 0.000000 0.000000 0.000000
# 4 0.000000 0.000000 0.000000 0.404183 0.000000 0.000000
# 5 0.000000 0.000000 0.000000 0.000000 0.033007 0.000000
# 6 0.000000 0.000000 0.000000 0.000000 0.000000 -0.032334
#
#
# Mechanical properties :
#
#
# Convention : Reuss Voigt Hill
#
# Bulk Modulus (GPa) = 39.38031 50.20589 44.79310
# Shear Modulus (GPa) = 9.80695 9.39357 9.60026
#
# Velocity S-wave (km/s) = 2.44215 2.39013 2.41628
# Velocity P-wave (km/s) = 5.64813 6.17655 5.91824
#
# Compressibility (1/GPa) = 0.02539340
#
# Stress axis : x y z
#
# Youngs Moduli (GPa) = 53.54758 33.38307 81.11784
#
# Poissons Ratio (x) = 0.24027 0.50237
# Poissons Ratio (y) = 0.38540 0.35626
# Poissons Ratio (z) = 0.33162 0.14662
#
# Static dielectric constant tensor:
#      x y z
#    x 1.575840 0.000000 0.000000 
#    y 0.000000 1.512380 0.000000 
#    z 0.000000 0.000000 1.602650 
# 
# From -- ./inp_files/52732.got.cif
#   From: 2010.05.17/outbox.cif.g08.bks.cpg/sg65_27_cif.got.tgz:52732.got - 2010.06.03 17:01:31.
