data_PCOD9494234
_publ_section_title
;
Structure prediction by ZEFSAII (Michael W. Deem and Ramdas Pophale) SiO2 
 PCOD9494234
Probable space group: C M M M
;
_chemical_formula_sum "Si O2"
_cell_formula_units_Z 56
_cell_length_a 24.844363
_cell_length_b 14.427812
_cell_length_c 7.491494
_cell_angle_alpha 90.000000
_cell_angle_beta 90.000000
_cell_angle_gamma 90.000000
_cell_volume 2685.324516
_symmetry_space_group_name_H-M "C M M M"
_symmetry_group_IT_number 65
_symmetry_cell_setting 'orthorhombic'
loop_
_space_group_symop_operation_xyz
x,y,z
-x,-y,z
x,-y,-z
-x,y,-z
-x,-y,-z
x,y,-z
-x,y,z
x,-y,z
1/2+x,1/2+y,z
1/2-x,1/2-y,z
1/2+x,1/2-y,-z
1/2-x,1/2+y,-z
1/2-x,1/2-y,-z
1/2+x,1/2+y,-z
1/2-x,1/2+y,z
1/2+x,1/2-y,z
loop_
_atom_site_type_symbol
_atom_site_label
_atom_site_fract_x
_atom_site_fract_y
_atom_site_fract_z
Si Si1 0.434370 0.000000 0.204656
Si Si2 0.767084 0.602863 0.718108
Si Si3 0.831895 0.782323 0.286896
Si Si4 0.560531 0.799017 0.213377
O O1 0.420474 0.099879 0.286505
O O2 0.500000 0.000000 0.200576
O O3 0.414696 0.000000 0.000000
O O4 0.769056 0.601635 0.500000
O O5 0.781108 0.500000 0.779662
O O6 0.805650 0.685855 0.779716
O O7 0.706754 0.634411 0.772522
O O8 0.826949 0.780936 0.500000
O O9 0.894723 0.778018 0.246167
O O10 0.500000 0.779365 0.278602
O O11 0.556881 0.810751 0.000000
#
# Coordination Sequence:
#
# PCOD9494234 Si02
#       4
#     8  16  16  16
#     4   7  12  24  39  55  79 115 149 165 192 255
#     4   8  15  29  46  64  90 119 143 175 222 266
#     4   9  17  28  46  70  88 111 149 183 214 256
#     4   9  17  29  44  62  89 122 147 173 216 264
#
# _framework density 20.854089999999999
#
# number of rings (size 3 to 8) (size 9 to 14) (size 15 to 20)
#    0.000    3.571    0.000    3.429    2.000    0.571 
#    0.000    2.857    0.000    6.000    0.000    6.000 
#    0.000    0.000    0.000    0.000    0.000    0.000 
#
# Total GULP energy -155992.700796 kJ/mol
# GULP energy per Si atom -5571.167886 kJ/mol
# Density = 2.080662 g / cm^3
# Si number density = 20.854090 Si / 1000 Ang^3
#
#
#
# Elastic Constant Matrix: (Units=GPa)
#
#
# Indices 1 2 3 4 5 6 
#
# 1 74.5415 -6.5467 -5.7245 0.0000 0.0000 0.0000
# 2 -6.5467 35.5201 2.5401 0.0000 0.0000 0.0000
# 3 -5.7245 2.5401 55.8297 0.0000 0.0000 0.0000
# 4 0.0000 0.0000 0.0000 -4.5152 0.0000 0.0000
# 5 0.0000 0.0000 0.0000 0.0000 18.5623 0.0000
# 6 0.0000 0.0000 0.0000 0.0000 0.0000 26.2158
#
#
#
# Elastic Compliance Matrix: (Units=1/GPa)
#
#
# Indices 1 2 3 4 5 6 
#
# 1 0.013729 0.002438 0.001297 0.000000 0.000000 0.000000
# 2 0.002438 0.028678 -0.001055 0.000000 0.000000 0.000000
# 3 0.001297 -0.001055 0.018093 0.000000 0.000000 0.000000
# 4 0.000000 0.000000 0.000000 -0.221476 0.000000 0.000000
# 5 0.000000 0.000000 0.000000 0.000000 0.053873 0.000000
# 6 0.000000 0.000000 0.000000 0.000000 0.000000 0.038145
#
#
# Mechanical properties :
#
#
# Convention : Reuss Voigt Hill
#
# Bulk Modulus (GPa) = 15.18401 16.26988 15.72695
# Shear Modulus (GPa) = -95.48224 19.76075 -37.86074
#
# Velocity S-wave (km/s) = -6.77387 3.08161 -4.26550
# Velocity P-wave (km/s) = 7.34054 4.52553 4.08675
#
# Compressibility (1/GPa) = 0.06585873
#
# Stress axis : x y z
#
# Youngs Moduli (GPa) = 72.83834 34.87019 55.27132
#
# Poissons Ratio (x) = -0.08500 -0.07168
# Poissons Ratio (y) = -0.17755 0.05830
# Poissons Ratio (z) = -0.09446 0.03678
#
# Static dielectric constant tensor:
#      x y z
#    x 1.784770 0.000000 0.000000 
#    y 0.000000 1.753320 0.000000 
#    z 0.000000 0.000000 1.803300 
# 
# From -- ./inp_files/6542.got.cif
#   From: 2010.05.17/outbox.cif.g08.bks.cpg/sg65_4_cif.got.tgz:6542.got - 2010.06.03 17:01:31.
