data_PCOD9494390
_publ_section_title
;
Structure prediction by ZEFSAII (Michael W. Deem and Ramdas Pophale) SiO2 
 PCOD9494390
Probable space group: C M M M
;
_chemical_formula_sum "Si O2"
_cell_formula_units_Z 80
_cell_length_a 18.507196
_cell_length_b 14.267394
_cell_length_c 17.490105
_cell_angle_alpha 90.000000
_cell_angle_beta 90.000000
_cell_angle_gamma 90.000000
_cell_volume 4618.252731
_symmetry_space_group_name_H-M "C M M M"
_symmetry_group_IT_number 65
_symmetry_cell_setting 'orthorhombic'
loop_
_space_group_symop_operation_xyz
x,y,z
-x,-y,z
x,-y,-z
-x,y,-z
-x,-y,-z
x,y,-z
-x,y,z
x,-y,z
1/2+x,1/2+y,z
1/2-x,1/2-y,z
1/2+x,1/2-y,-z
1/2-x,1/2+y,-z
1/2-x,1/2-y,-z
1/2+x,1/2+y,-z
1/2-x,1/2+y,z
1/2+x,1/2-y,z
loop_
_atom_site_type_symbol
_atom_site_label
_atom_site_fract_x
_atom_site_fract_y
_atom_site_fract_z
Si Si1 0.691168 0.385865 0.000000
Si Si2 0.856884 0.385851 0.000000
Si Si3 0.915249 0.765685 0.277284
Si Si4 0.419803 0.387557 0.871928
Si Si5 0.412859 0.107654 0.834109
Si Si6 0.088096 0.893250 0.411519
O O1 0.773630 0.355730 0.000000
O O2 0.644637 0.356883 0.926753
O O3 0.692506 0.500000 0.000000
O O4 0.892019 0.358071 0.919215
O O5 0.861076 0.500000 0.000000
O O6 0.912846 0.844583 0.211636
O O7 0.884869 0.674108 0.234096
O O8 0.884719 0.813407 0.353622
O O9 0.000000 0.744864 0.293050
O O10 0.500000 0.360482 0.901376
O O11 0.418262 0.500000 0.868306
O O12 0.500000 0.108763 0.831140
O O13 0.388265 0.000000 0.825445
O O14 0.107685 0.876919 0.500000
O O15 0.000000 0.892640 0.407621
O O16 0.110022 0.000000 0.390436
#
# Coordination Sequence:
#
# PCOD9494390 Si02
#       6
#     8   8  16  16  16  16
#     4   9  17  28  41  58  83 113 140 169 207 250
#     4   9  17  30  45  58  77 107 144 185 223 254
#     4   9  16  25  39  59  81 107 139 171 203 245
#     4   9  16  26  40  58  83 113 140 164 195 242
#     4   9  17  29  44  59  76 103 142 187 227 255
#     4   8  13  22  38  61  88 114 136 160 197 248
#
# _framework density 17.322568
#
# number of rings (size 3 to 8) (size 9 to 14) (size 15 to 20)
#    0.000    3.200    0.000    1.800    0.000    5.600 
#    0.000    5.000    0.000    0.600    0.000    4.200 
#    0.000    3.200    0.000   10.400    0.000   10.400 
#
# Total GULP energy -222689.175975 kJ/mol
# GULP energy per Si atom -5567.229399 kJ/mol
# Density = 1.728314 g / cm^3
# Si number density = 17.322568 Si / 1000 Ang^3
#
#
#
# Elastic Constant Matrix: (Units=GPa)
#
#
# Indices 1 2 3 4 5 6 
#
# 1 19.8563 4.9467 12.8472 0.0000 0.0000 0.0000
# 2 4.9467 88.6868 64.7399 0.0000 0.0000 0.0000
# 3 12.8472 64.7399 105.3774 0.0000 0.0000 0.0000
# 4 0.0000 0.0000 0.0000 61.9166 0.0000 0.0000
# 5 0.0000 0.0000 0.0000 0.0000 -7.6277 0.0000
# 6 0.0000 0.0000 0.0000 0.0000 0.0000 5.3110
#
#
#
# Elastic Compliance Matrix: (Units=1/GPa)
#
#
# Indices 1 2 3 4 5 6 
#
# 1 0.055210 0.003325 -0.008774 0.000000 0.000000 0.000000
# 2 0.003325 0.020645 -0.013089 0.000000 0.000000 0.000000
# 3 -0.008774 -0.013089 0.018601 0.000000 0.000000 0.000000
# 4 0.000000 0.000000 0.000000 0.016151 0.000000 0.000000
# 5 0.000000 0.000000 0.000000 0.000000 -0.131101 0.000000
# 6 0.000000 0.000000 0.000000 0.000000 0.000000 0.188289
#
#
# Mechanical properties :
#
#
# Convention : Reuss Voigt Hill
#
# Bulk Modulus (GPa) = 17.42738 42.10979 29.76858
# Shear Modulus (GPa) = 22.32185 20.67910 21.50048
#
# Velocity S-wave (km/s) = 3.59360 3.45884 3.52686
# Velocity P-wave (km/s) = 5.22503 6.34928 5.81440
#
# Compressibility (1/GPa) = 0.05738097
#
# Stress axis : x y z
#
# Youngs Moduli (GPa) = 18.11254 48.43848 53.76161
#
# Poissons Ratio (x) = -0.16108 0.47170
# Poissons Ratio (y) = -0.06023 0.70367
# Poissons Ratio (z) = 0.15892 0.63400
#
# Static dielectric constant tensor:
#      x y z
#    x 1.569430 0.000000 0.000000 
#    y 0.000000 1.654770 0.000000 
#    z 0.000000 0.000000 1.585740 
# 
# From -- ./inp_files/54247.got.cif
#   From: 2010.05.17/outbox.cif.g08.bks.cpg/sg65_28_cif.got.tgz:54247.got - 2010.06.03 17:01:31.
