data_PCOD9494605
_publ_section_title
;
Structure prediction by ZEFSAII (Michael W. Deem and Ramdas Pophale) SiO2 
 PCOD9494605
Probable space group: C M M M
;
_chemical_formula_sum "Si O2"
_cell_formula_units_Z 52
_cell_length_a 9.000000
_cell_length_b 27.000000
_cell_length_c 21.000000
_cell_angle_alpha 90.000000
_cell_angle_beta 90.000000
_cell_angle_gamma 90.000000
_cell_volume 5103.000000
_symmetry_space_group_name_H-M "C M M M"
_symmetry_group_IT_number 65
_symmetry_cell_setting 'orthorhombic'
loop_
_space_group_symop_operation_xyz
x,y,z
-x,-y,z
x,-y,-z
-x,y,-z
-x,-y,-z
x,y,-z
-x,y,z
x,-y,z
1/2+x,1/2+y,z
1/2-x,1/2-y,z
1/2+x,1/2-y,-z
1/2-x,1/2+y,-z
1/2-x,1/2-y,-z
1/2+x,1/2+y,-z
1/2-x,1/2+y,z
1/2+x,1/2-y,z
loop_
_atom_site_type_symbol
_atom_site_label
_atom_site_fract_x
_atom_site_fract_y
_atom_site_fract_z
Si Si1 0.334459 0.425410 0.500000
Si Si2 0.177069 0.105302 0.877477
Si Si3 0.330927 0.444546 0.751249
Si Si4 0.669675 0.941127 0.000000
Si Si5 0.831739 0.192438 0.500000
Si Si6 0.823151 0.298693 0.365929
Si Si7 0.828135 0.302382 0.926028
Si Si8 0.675760 0.087542 0.630296
O O1 0.500000 0.446492 0.500000
O O2 0.349586 0.366249 0.500000
O O3 0.249019 0.433791 0.434000
O O4 0.229287 0.087369 0.808913
O O5 0.230143 0.160840 0.885698
O O6 0.000000 0.099930 0.880089
O O7 0.248678 0.076424 0.936328
O O8 0.500000 0.429050 0.733858
O O9 0.339713 0.500000 0.776743
O O10 0.229740 0.443214 0.689904
O O11 0.500000 0.922449 0.000000
O O12 0.666653 0.000000 0.000000
O O13 0.734892 0.202896 0.438306
O O14 0.000000 0.213706 0.500000
O O15 0.750000 0.250000 0.333810
O O16 0.780416 0.355520 0.350033
O O17 0.000000 0.294004 0.361750
O O18 0.750000 0.250000 0.923496
O O19 0.000000 0.300829 0.906631
O O20 0.823363 0.318839 0.000000
O O21 0.500000 0.087953 0.620732
#
# Coordination Sequence:
#
# PCOD9494605 Si02
#       8
#     8  16  16   8   8  16  16  16
#     4   9  17  32  57  84 112 148 189 238 295 354
#     4  11  22  38  62  90 122 160 201 246 297 353
#     4  10  23  43  64  86 114 151 195 241 296 363
#     4  11  23  37  56  87 124 159 199 249 301 349
#     4   9  16  26  43  70 104 142 180 217 267 328
#     4  10  19  30  46  72 106 142 180 222 270 328
#     4  10  20  35  58  89 127 166 207 250 294 346
#     4  10  21  37  58  85 115 149 191 243 299 355
#
# _framework density 10.190084000000001
#
# number of rings (size 3 to 8) (size 9 to 14) (size 15 to 20)
#    0.000    1.923    0.769    3.231    0.000    7.077 
#    0.000    1.154    0.000    4.154    0.000    0.000 
#    0.000    0.000    0.000    0.000    0.000    0.000 
#
# Total GULP energy -289784.650694 kJ/mol
# GULP energy per Si atom -5572.781744 kJ/mol
# Density = 1.016689 g / cm^3
# Si number density = 10.190084 Si / 1000 Ang^3
#
#
#
# Elastic Constant Matrix: (Units=GPa)
#
#
# Indices 1 2 3 4 5 6 
#
# 1 51.7090 14.0664 39.3230 0.0000 0.0000 0.0000
# 2 14.0664 90.5394 35.7997 0.0000 0.0000 0.0000
# 3 39.3230 35.7997 101.8498 0.0000 0.0000 0.0000
# 4 0.0000 0.0000 0.0000 70.6071 0.0000 0.0000
# 5 0.0000 0.0000 0.0000 0.0000 -242.0156 0.0000
# 6 0.0000 0.0000 0.0000 0.0000 0.0000 20.3903
#
#
#
# Elastic Compliance Matrix: (Units=1/GPa)
#
#
# Indices 1 2 3 4 5 6 
#
# 1 0.027378 -0.000086 -0.010540 0.000000 0.000000 0.000000
# 2 -0.000086 0.012828 -0.004476 0.000000 0.000000 0.000000
# 3 -0.010540 -0.004476 0.015461 0.000000 0.000000 0.000000
# 4 0.000000 0.000000 0.000000 0.014163 0.000000 0.000000
# 5 0.000000 0.000000 0.000000 0.000000 -0.004132 0.000000
# 6 0.000000 0.000000 0.000000 0.000000 0.000000 0.049043
#
#
# Mechanical properties :
#
#
# Convention : Reuss Voigt Hill
#
# Bulk Modulus (GPa) = 39.27228 46.94180 43.10704
# Shear Modulus (GPa) = 32.58777 -19.87639 6.35569
#
# Velocity S-wave (km/s) = 4.00308 -3.12634 1.76786
# Velocity P-wave (km/s) = 6.37792 3.17035 5.03632
#
# Compressibility (1/GPa) = 0.02546325
#
# Stress axis : x y z
#
# Youngs Moduli (GPa) = 36.52609 77.95437 64.67896
#
# Poissons Ratio (x) = 0.00670 0.68172
# Poissons Ratio (y) = 0.00314 0.28949
# Poissons Ratio (z) = 0.38499 0.34891
#
# Static dielectric constant tensor:
#      x y z
#    x 1.716910 0.000000 0.000000 
#    y 0.000000 1.810430 0.000000 
#    z 0.000000 0.000000 1.676250 
# 
# From -- ./inp_files/60474.got.cif
#   From: 2010.05.17/outbox.ucp.g08.bks.cvg/sg65_31_cif.got.tgz:60474.got - 2010.06.11 16:39:57.
