data_PCOD9494936
_publ_section_title
;
Structure prediction by ZEFSAII (Michael W. Deem and Ramdas Pophale) SiO2 
 PCOD9494936
Probable space group: C C C M
;
_chemical_formula_sum "Si O2"
_cell_formula_units_Z 76
_cell_length_a 25.477845
_cell_length_b 7.075396
_cell_length_c 16.146538
_cell_angle_alpha 90.000000
_cell_angle_beta 90.000000
_cell_angle_gamma 90.000000
_cell_volume 2910.669278
_symmetry_space_group_name_H-M "C C C M"
_symmetry_group_IT_number 66
_symmetry_cell_setting 'orthorhombic'
loop_
_space_group_symop_operation_xyz
x,y,z
-x,-y,z
x,-y,1/2-z
-x,y,1/2-z
-x,-y,-z
x,y,-z
-x,y,1/2+z
x,-y,1/2+z
1/2+x,1/2+y,z
1/2-x,1/2-y,z
1/2+x,1/2-y,1/2-z
1/2-x,1/2+y,1/2-z
1/2-x,1/2-y,-z
1/2+x,1/2+y,-z
1/2-x,1/2+y,1/2+z
1/2+x,1/2-y,1/2+z
loop_
_atom_site_type_symbol
_atom_site_label
_atom_site_fract_x
_atom_site_fract_y
_atom_site_fract_z
Si Si1 0.664620 0.305284 0.098406
Si Si2 0.048874 0.766518 0.902239
Si Si3 0.325818 0.141038 0.142769
Si Si4 0.562973 0.188760 0.401644
Si Si5 0.750000 0.250000 0.212248
Si Si6 0.750000 0.750000 0.000000
O O1 0.604871 0.350246 0.125909
O O2 0.670501 0.077693 0.112688
O O3 0.714207 0.379396 0.151126
O O4 0.670857 0.340924 0.000000
O O5 0.054872 0.538294 0.896991
O O6 0.989413 0.793772 0.870559
O O7 0.046533 0.812921 0.000000
O O8 0.384444 0.220403 0.148987
O O9 0.294051 0.173915 0.225912
O O10 0.295425 0.244226 0.070836
O O11 0.570754 0.230196 0.500000
#
# Coordination Sequence:
#
# PCOD9494936 Si02
#       6
#    16  16  16  16   8   4
#     4  10  18  34  49  66  95 136 161 189 234 286
#     4   7  12  21  43  67  90 119 156 179 221 288
#     4  10  18  30  47  69 100 127 159 196 233 272
#     4   8  11  22  42  69  92 121 150 183 224 286
#     4  11  23  29  43  68 100 128 163 199 233 269
#     4  10  16  28  46  72  90 134 162 190 220 286
#
# _framework density 26.110835000000002
#
# number of rings (size 3 to 8) (size 9 to 14) (size 15 to 20)
#    0.000    2.947    2.105    3.474    0.000    0.000 
#    0.000    1.053    0.000    5.053    0.000    0.000 
#    0.000   30.316    0.000    0.000    0.000    0.000 
#
# Total GULP energy -211806.642432 kJ/mol
# GULP energy per Si atom -5573.859011 kJ/mol
# Density = 2.605141 g / cm^3
# Si number density = 26.110835 Si / 1000 Ang^3
#
#
#
# Elastic Constant Matrix: (Units=GPa)
#
#
# Indices 1 2 3 4 5 6 
#
# 1 308.4533 10.2436 75.1389 0.0000 0.0000 0.0000
# 2 10.2436 104.9208 15.6224 0.0000 0.0000 0.0000
# 3 75.1389 15.6224 112.9028 0.0000 0.0000 0.0000
# 4 0.0000 0.0000 0.0000 18.4003 0.0000 0.0000
# 5 0.0000 0.0000 0.0000 0.0000 51.4010 0.0000
# 6 0.0000 0.0000 0.0000 0.0000 0.0000 15.4061
#
#
#
# Elastic Compliance Matrix: (Units=1/GPa)
#
#
# Indices 1 2 3 4 5 6 
#
# 1 0.003869 0.000006 -0.002576 0.000000 0.000000 0.000000
# 2 0.000006 0.009732 -0.001350 0.000000 0.000000 0.000000
# 3 -0.002576 -0.001350 0.010758 0.000000 0.000000 0.000000
# 4 0.000000 0.000000 0.000000 0.054347 0.000000 0.000000
# 5 0.000000 0.000000 0.000000 0.000000 0.019455 0.000000
# 6 0.000000 0.000000 0.000000 0.000000 0.000000 0.064909
#
#
# Mechanical properties :
#
#
# Convention : Reuss Voigt Hill
#
# Bulk Modulus (GPa) = 60.53958 80.92073 70.73016
# Shear Modulus (GPa) = 28.34190 45.39294 36.86742
#
# Velocity S-wave (km/s) = 3.29818 4.17402 3.76168
# Velocity P-wave (km/s) = 6.14329 7.36807 6.78338
#
# Compressibility (1/GPa) = 0.01651812
#
# Stress axis : x y z
#
# Youngs Moduli (GPa) = 258.44676 102.75900 92.95133
#
# Poissons Ratio (x) = -0.00059 0.23943
# Poissons Ratio (y) = -0.00149 0.12552
# Poissons Ratio (z) = 0.66572 0.13877
#
# Static dielectric constant tensor:
#      x y z
#    x 2.154740 0.000000 0.000000 
#    y 0.000000 2.374590 0.000000 
#    z 0.000000 0.000000 1.936520 
# 
# From -- ./inp_files/32284.got.cif
#   From: 2010.05.17/outbox.cif.g08.bks.cpg/sg66_17_cif.got.tgz:32284.got - 2010.06.03 17:51:23.
