data_PCOD9494508
_publ_section_title
;
Structure prediction by ZEFSAII (Michael W. Deem and Ramdas Pophale) SiO2 
 PCOD9494508
Probable space group: C M M M
;
_chemical_formula_sum "Si O2"
_cell_formula_units_Z 56
_cell_length_a 10.101511
_cell_length_b 30.983257
_cell_length_c 7.371359
_cell_angle_alpha 90.000000
_cell_angle_beta 90.000000
_cell_angle_gamma 90.000000
_cell_volume 2307.071070
_symmetry_space_group_name_H-M "C M M M"
_symmetry_group_IT_number 65
_symmetry_cell_setting 'orthorhombic'
loop_
_space_group_symop_operation_xyz
x,y,z
-x,-y,z
x,-y,-z
-x,y,-z
-x,-y,-z
x,y,-z
-x,y,z
x,-y,z
1/2+x,1/2+y,z
1/2-x,1/2-y,z
1/2+x,1/2-y,-z
1/2-x,1/2+y,-z
1/2-x,1/2-y,-z
1/2+x,1/2+y,-z
1/2-x,1/2+y,z
1/2+x,1/2-y,z
loop_
_atom_site_type_symbol
_atom_site_label
_atom_site_fract_x
_atom_site_fract_y
_atom_site_fract_z
Si Si1 0.000000 0.551721 0.798222
Si Si2 0.642727 0.640472 0.278489
Si Si3 0.847318 0.288999 0.278666
Si Si4 0.705605 0.451615 0.706857
O O1 0.138386 0.560263 0.704027
O O2 0.000000 0.500000 0.814046
O O3 0.000000 0.570668 0.000000
O O4 0.648018 0.638951 0.500000
O O5 0.500000 0.660683 0.231684
O O6 0.769301 0.667882 0.220914
O O7 0.644288 0.591224 0.210944
O O8 0.851026 0.288643 0.500000
O O9 0.750000 0.250000 0.224731
O O10 0.000000 0.286156 0.218483
O O11 0.658864 0.454733 0.500000
O O12 0.688953 0.500000 0.786509
#
# Coordination Sequence:
#
# PCOD9494508 Si02
#       4
#     8  16  16  16
#     4   9  17  29  45  65  91 123 159 199 239 277
#     4   9  17  27  40  61  90 123 157 193 233 279
#     4   9  16  25  38  56  83 121 158 190 231 283
#     4   9  17  28  44  66  93 125 159 194 234 279
#
# _framework density 24.273199999999999
#
# number of rings (size 3 to 8) (size 9 to 14) (size 15 to 20)
#    0.000    3.000    0.000    1.286    2.000    5.714 
#    0.000    2.857    0.000    0.857    0.000    4.000 
#    0.000    1.143    0.000    0.000    0.571    0.000 
#
# Total GULP energy -156168.365194 kJ/mol
# GULP energy per Si atom -5577.441614 kJ/mol
# Density = 2.421795 g / cm^3
# Si number density = 24.273200 Si / 1000 Ang^3
#
#
#
# Elastic Constant Matrix: (Units=GPa)
#
#
# Indices 1 2 3 4 5 6 
#
# 1 227.7919 90.5617 6.9895 0.0000 0.0000 0.0000
# 2 90.5617 158.9627 3.3548 0.0000 0.0000 0.0000
# 3 6.9895 3.3548 91.1143 0.0000 0.0000 0.0000
# 4 0.0000 0.0000 0.0000 -20.6710 0.0000 0.0000
# 5 0.0000 0.0000 0.0000 0.0000 14.3176 0.0000
# 6 0.0000 0.0000 0.0000 0.0000 0.0000 32.8700
#
#
#
# Elastic Compliance Matrix: (Units=1/GPa)
#
#
# Indices 1 2 3 4 5 6 
#
# 1 0.005685 -0.003232 -0.000317 0.000000 0.000000 0.000000
# 2 -0.003232 0.008133 -0.000052 0.000000 0.000000 0.000000
# 3 -0.000317 -0.000052 0.011001 0.000000 0.000000 0.000000
# 4 0.000000 0.000000 0.000000 -0.048377 0.000000 0.000000
# 5 0.000000 0.000000 0.000000 0.000000 0.069844 0.000000
# 6 0.000000 0.000000 0.000000 0.000000 0.000000 0.030423
#
#
# Mechanical properties :
#
#
# Convention : Reuss Voigt Hill
#
# Bulk Modulus (GPa) = 56.75953 75.52009 66.13981
# Shear Modulus (GPa) = 55.69024 30.43421 43.06222
#
# Velocity S-wave (km/s) = 4.79509 3.54477 4.21653
# Velocity P-wave (km/s) = 7.35470 6.92344 7.14232
#
# Compressibility (1/GPa) = 0.01761819
#
# Stress axis : x y z
#
# Youngs Moduli (GPa) = 175.91527 122.95506 90.89714
#
# Poissons Ratio (x) = 0.39737 0.02882
# Poissons Ratio (y) = 0.56853 0.00468
# Poissons Ratio (z) = 0.05578 0.00634
#
# Static dielectric constant tensor:
#      x y z
#    x 1.936210 0.000000 0.000000 
#    y 0.000000 1.936580 0.000000 
#    z 0.000000 0.000000 1.940220 
# 
# From -- ./inp_files/4729.got.cif
#   From: 2010.05.17/outbox.cif.g08.bks.cpg/sg65_3_cif.got.tgz:4729.got - 2010.06.03 17:01:31.
