data_PCOD9494477
_publ_section_title
;
Structure prediction by ZEFSAII (Michael W. Deem and Ramdas Pophale) SiO2 
 PCOD9494477
Probable space group: C M M M
;
_chemical_formula_sum "Si O2"
_cell_formula_units_Z 88
_cell_length_a 18.239621
_cell_length_b 30.204103
_cell_length_c 7.570656
_cell_angle_alpha 90.000000
_cell_angle_beta 90.000000
_cell_angle_gamma 90.000000
_cell_volume 4170.760631
_symmetry_space_group_name_H-M "C M M M"
_symmetry_group_IT_number 65
_symmetry_cell_setting 'orthorhombic'
loop_
_space_group_symop_operation_xyz
x,y,z
-x,-y,z
x,-y,-z
-x,y,-z
-x,-y,-z
x,y,-z
-x,y,z
x,-y,z
1/2+x,1/2+y,z
1/2-x,1/2-y,z
1/2+x,1/2-y,-z
1/2-x,1/2+y,-z
1/2-x,1/2-y,-z
1/2+x,1/2+y,-z
1/2-x,1/2+y,z
1/2+x,1/2-y,z
loop_
_atom_site_type_symbol
_atom_site_label
_atom_site_fract_x
_atom_site_fract_y
_atom_site_fract_z
Si Si1 0.916269 0.294444 0.209637
Si Si2 0.215069 0.449120 0.716678
Si Si3 0.643449 0.605570 0.284107
Si Si4 0.082975 0.390908 0.708328
Si Si5 0.584441 0.697930 0.710932
Si Si6 0.500000 0.449199 0.715505
O O1 0.885084 0.341146 0.272778
O O2 0.883514 0.246665 0.253799
O O3 0.000000 0.293010 0.282585
O O4 0.919749 0.297219 0.000000
O O5 0.214939 0.448882 0.500000
O O6 0.222993 0.500000 0.771257
O O7 0.282994 0.418787 0.774045
O O8 0.139568 0.426815 0.778850
O O9 0.644950 0.605759 0.500000
O O10 0.630604 0.656023 0.224418
O O11 0.572590 0.577060 0.230422
O O12 0.076547 0.399261 0.500000
O O13 0.000000 0.391725 0.783126
O O14 0.579344 0.693419 0.500000
O O15 0.500000 0.696072 0.779966
O O16 0.500000 0.500000 0.774255
O O17 0.500000 0.449582 0.500000
#
# Coordination Sequence:
#
# PCOD9494477 Si02
#       6
#    16  16  16  16  16   8
#     4   9  17  29  47  70  93 118 152 192 233 275
#     4   9  17  28  43  65  93 122 152 190 232 271
#     4   9  15  24  38  62  94 126 155 184 224 270
#     4   9  17  30  48  69  92 120 154 189 229 277
#     4   9  15  25  43  67  95 124 153 184 221 269
#     4   9  14  20  34  58  91 127 157 185 222 269
#
# _framework density 21.099270000000001
#
# number of rings (size 3 to 8) (size 9 to 14) (size 15 to 20)
#    0.000    3.000    0.909    1.091    0.000    4.727 
#    0.000    2.727    0.000    7.091    0.000    2.545 
#    0.000    2.909    0.000    0.000    0.000    0.000 
#
# Total GULP energy -245365.704186 kJ/mol
# GULP energy per Si atom -5576.493277 kJ/mol
# Density = 2.105125 g / cm^3
# Si number density = 21.099270 Si / 1000 Ang^3
#
#
#
# Elastic Constant Matrix: (Units=GPa)
#
#
# Indices 1 2 3 4 5 6 
#
# 1 95.9883 61.3518 4.8908 0.0000 0.0000 0.0000
# 2 61.3518 108.3476 -4.8907 0.0000 0.0000 0.0000
# 3 4.8908 -4.8907 47.7224 0.0000 0.0000 0.0000
# 4 0.0000 0.0000 0.0000 -54.8632 0.0000 0.0000
# 5 0.0000 0.0000 0.0000 0.0000 -3.5171 0.0000
# 6 0.0000 0.0000 0.0000 0.0000 0.0000-1316.9409
#
#
#
# Elastic Compliance Matrix: (Units=1/GPa)
#
#
# Indices 1 2 3 4 5 6 
#
# 1 0.016663 -0.009557 -0.002687 0.000000 0.000000 0.000000
# 2 -0.009557 0.014754 0.002491 0.000000 0.000000 0.000000
# 3 -0.002687 0.002491 0.021485 0.000000 0.000000 0.000000
# 4 0.000000 0.000000 0.000000 -0.018227 0.000000 0.000000
# 5 0.000000 0.000000 0.000000 0.000000 -0.284329 0.000000
# 6 0.000000 0.000000 0.000000 0.000000 0.000000 -0.000759
#
#
# Mechanical properties :
#
#
# Convention : Reuss Voigt Hill
#
# Bulk Modulus (GPa) = 29.94290 41.64023 35.79157
# Shear Modulus (GPa) = -22.75046 -262.35047 -142.55046
#
# Velocity S-wave (km/s) = -3.28725 -11.16293 -8.22852
# Velocity P-wave (km/s) = 0.43098 12.09833 8.56024
#
# Compressibility (1/GPa) = 0.03339690
#
# Stress axis : x y z
#
# Youngs Moduli (GPa) = 60.01263 67.78034 46.54360
#
# Poissons Ratio (x) = 0.64776 0.12507
# Poissons Ratio (y) = 0.57353 -0.11596
# Poissons Ratio (z) = 0.16126 -0.16887
#
# Static dielectric constant tensor:
#      x y z
#    x 1.753190 0.000000 0.000000 
#    y 0.000000 1.761700 0.000000 
#    z 0.000000 0.000000 1.783630 
# 
# From -- ./inp_files/10064.got.cif
#   From: 2010.05.17/outbox.cif.g08.bks.cpg/sg65_6_cif.got.tgz:10064.got - 2010.06.03 17:01:31.
