data_PCOD9494689
_publ_section_title
;
Structure prediction by ZEFSAII (Michael W. Deem and Ramdas Pophale) SiO2 
 PCOD9494689
Probable space group: C M M M
;
_chemical_formula_sum "Si O2"
_cell_formula_units_Z 44
_cell_length_a 21.000000
_cell_length_b 24.000000
_cell_length_c 9.000000
_cell_angle_alpha 90.000000
_cell_angle_beta 90.000000
_cell_angle_gamma 90.000000
_cell_volume 4536.000000
_symmetry_space_group_name_H-M "C M M M"
_symmetry_group_IT_number 65
_symmetry_cell_setting 'orthorhombic'
loop_
_space_group_symop_operation_xyz
x,y,z
-x,-y,z
x,-y,-z
-x,y,-z
-x,-y,-z
x,y,-z
-x,y,z
x,-y,z
1/2+x,1/2+y,z
1/2-x,1/2-y,z
1/2+x,1/2-y,-z
1/2-x,1/2+y,-z
1/2-x,1/2-y,-z
1/2+x,1/2+y,-z
1/2-x,1/2+y,z
1/2+x,1/2-y,z
loop_
_atom_site_type_symbol
_atom_site_label
_atom_site_fract_x
_atom_site_fract_y
_atom_site_fract_z
Si Si1 0.500000 0.433017 0.325317
Si Si2 0.124918 0.063258 0.826895
Si Si3 0.923477 0.437340 0.170287
Si Si4 0.360685 0.837285 0.333050
Si Si5 0.325396 0.734697 0.164325
Si Si6 0.788475 0.865720 0.662670
O O1 0.500000 0.500000 0.291058
O O2 0.500000 0.426224 0.500000
O O3 0.564775 0.410007 0.255725
O O4 0.190805 0.092020 0.788373
O O5 0.130322 0.000000 0.774760
O O6 0.111631 0.064086 0.000000
O O7 0.902484 0.500000 0.209502
O O8 0.897699 0.391195 0.279731
O O9 0.000000 0.436833 0.171686
O O10 0.902984 0.425947 0.000000
O O11 0.378774 0.820353 0.500000
O O12 0.365436 0.787766 0.214675
O O13 0.285768 0.852457 0.335726
O O14 0.250000 0.750000 0.155922
O O15 0.326754 0.689675 0.294224
O O16 0.343701 0.714222 0.000000
O O17 0.806368 0.886821 0.500000
#
# Coordination Sequence:
#
# PCOD9494689 Si02
#       6
#     8  16  16  16  16  16
#     4   9  17  31  51  71  93 127 167 203 244 295
#     4  10  20  33  50  73 101 134 173 213 252 300
#     4   9  19  36  56  77 103 138 179 220 263 314
#     4  10  20  33  52  78 106 136 170 211 260 313
#     4   9  17  31  52  75  99 131 170 207 248 303
#     4  10  20  33  50  75 107 138 170 212 261 311
#
# _framework density 9.7001760000000008
#
# number of rings (size 3 to 8) (size 9 to 14) (size 15 to 20)
#    0.000    2.455    0.000    3.000    0.000    8.000 
#    0.000    4.545    2.000    0.000    0.000    0.000 
#    0.000    0.000    0.000    0.000    0.000    0.000 
#
# Total GULP energy -244955.368479 kJ/mol
# GULP energy per Si atom -5567.167465 kJ/mol
# Density = 0.967810 g / cm^3
# Si number density = 9.700176 Si / 1000 Ang^3
#
#
#
# Elastic Constant Matrix: (Units=GPa)
#
#
# Indices 1 2 3 4 5 6 
#
# 1 3.2216 9.2339 15.4081 0.0000 0.0000 0.0000
# 2 9.2339 35.9045 9.3441 0.0000 0.0000 0.0000
# 3 15.4081 9.3441 26.1263 0.0000 0.0000 0.0000
# 4 0.0000 0.0000 0.0000 21.5227 0.0000 0.0000
# 5 0.0000 0.0000 0.0000 0.0000 4.7950 0.0000
# 6 0.0000 0.0000 0.0000 0.0000 0.0000 27.0863
#
#
#
# Elastic Compliance Matrix: (Units=1/GPa)
#
#
# Indices 1 2 3 4 5 6 
#
# 1 -0.158954 0.018175 0.087244 0.000000 0.000000 0.000000
# 2 0.018175 0.028632 -0.020959 0.000000 0.000000 0.000000
# 3 0.087244 -0.020959 -0.005681 0.000000 0.000000 0.000000
# 4 0.000000 0.000000 0.000000 0.046463 0.000000 0.000000
# 5 0.000000 0.000000 0.000000 0.000000 0.208549 0.000000
# 6 0.000000 0.000000 0.000000 0.000000 0.000000 0.036919
#
#
# Mechanical properties :
#
#
# Convention : Reuss Voigt Hill
#
# Bulk Modulus (GPa) = 30.38022 14.80275 22.59149
# Shear Modulus (GPa) = -2475.53140 12.76522 -1231.38309
#
# Velocity S-wave (km/s) = -35.76023 2.56791 -25.22102
# Velocity P-wave (km/s) = 41.10189 4.05450 28.92167
#
# Compressibility (1/GPa) = 0.03291615
#
# Stress axis : x y z
#
# Youngs Moduli (GPa) = -6.29112 34.92590 -176.02757
#
# Poissons Ratio (x) = -0.63476 15.35733
# Poissons Ratio (y) = 0.11434 -3.68934
# Poissons Ratio (z) = 0.54886 0.73201
#
# Static dielectric constant tensor:
#      x y z
#    x 1.697890 0.000000 0.000000 
#    y 0.000000 1.740150 0.000000 
#    z 0.000000 0.000000 1.683500 
# 
# From -- ./inp_files/11725.got.cif
#   From: 2010.05.17/outbox.ucp.g08.bks.cvg/sg65_6_cif.got.tgz:11725.got - 2010.06.11 16:39:57.
