data_PCOD9494233
_publ_section_title
;
Structure prediction by ZEFSAII (Michael W. Deem and Ramdas Pophale) SiO2 
 PCOD9494233
Probable space group: C M M M
;
_chemical_formula_sum "Si O2"
_cell_formula_units_Z 88
_cell_length_a 26.886721
_cell_length_b 11.067568
_cell_length_c 14.276892
_cell_angle_alpha 90.000000
_cell_angle_beta 90.000000
_cell_angle_gamma 90.000000
_cell_volume 4248.383504
_symmetry_space_group_name_H-M "C M M M"
_symmetry_group_IT_number 65
_symmetry_cell_setting 'orthorhombic'
loop_
_space_group_symop_operation_xyz
x,y,z
-x,-y,z
x,-y,-z
-x,y,-z
-x,-y,-z
x,y,-z
-x,y,z
x,-y,z
1/2+x,1/2+y,z
1/2-x,1/2-y,z
1/2+x,1/2-y,-z
1/2-x,1/2+y,-z
1/2-x,1/2-y,-z
1/2+x,1/2+y,-z
1/2-x,1/2+y,z
1/2+x,1/2-y,z
loop_
_atom_site_type_symbol
_atom_site_label
_atom_site_fract_x
_atom_site_fract_y
_atom_site_fract_z
Si Si1 0.617509 0.632529 0.613656
Si Si2 0.767742 0.128576 0.355240
Si Si3 0.000000 0.641163 0.114823
Si Si4 0.057863 0.368049 0.614251
Si Si5 0.781203 0.361627 0.849114
Si Si6 0.107721 0.646063 0.109063
O O1 0.621638 0.637398 0.500000
O O2 0.595309 0.500000 0.636492
O O3 0.673007 0.635508 0.653324
O O4 0.587630 0.750354 0.644391
O O5 0.750000 0.250000 0.403099
O O6 0.741114 0.127669 0.254782
O O7 0.755730 0.000000 0.400051
O O8 0.946128 0.692176 0.144677
O O9 0.000000 0.500000 0.142219
O O10 0.000000 0.644027 0.000000
O O11 0.059022 0.368971 0.500000
O O12 0.077350 0.500000 0.646036
O O13 0.000000 0.359807 0.641236
O O14 0.778042 0.500000 0.889337
O O15 0.750000 0.250000 0.893077
O O16 0.839353 0.325500 0.845167
O O17 0.103927 0.500000 0.110960
O O18 0.112266 0.682149 0.000000
#
# Coordination Sequence:
#
# PCOD9494233 Si02
#       6
#    16  16   8  16  16  16
#     4   9  17  28  42  62  87 113 146 190 230 266
#     4   9  18  31  44  60  82 113 150 186 226 270
#     4   7  10  18  34  60  93 121 142 172 218 263
#     4   8  14  25  41  63  91 118 142 172 217 275
#     4   9  17  29  44  63  88 120 153 183 220 266
#     4   8  13  22  39  65  95 122 148 180 219 265
#
# _framework density 20.713761000000002
#
# number of rings (size 3 to 8) (size 9 to 14) (size 15 to 20)
#    0.000    3.545    0.000    1.636    0.000    1.818 
#    0.000    1.818    0.000    0.000    9.455    0.636 
#    0.000    2.182    0.000    0.091    0.000    8.000 
#
# Total GULP energy -244960.063904 kJ/mol
# GULP energy per Si atom -5567.274180 kJ/mol
# Density = 2.066662 g / cm^3
# Si number density = 20.713761 Si / 1000 Ang^3
#
#
#
# Elastic Constant Matrix: (Units=GPa)
#
#
# Indices 1 2 3 4 5 6 
#
# 1 148.1505 84.9075 28.0478 0.0000 0.0000 0.0000
# 2 84.9075 183.0774 18.4245 0.0000 0.0000 0.0000
# 3 28.0478 18.4245 70.4404 0.0000 0.0000 0.0000
# 4 0.0000 0.0000 0.0000 -0.9309 0.0000 0.0000
# 5 0.0000 0.0000 0.0000 0.0000 26.1838 0.0000
# 6 0.0000 0.0000 0.0000 0.0000 0.0000 33.0797
#
#
#
# Elastic Compliance Matrix: (Units=1/GPa)
#
#
# Indices 1 2 3 4 5 6 
#
# 1 0.009687 -0.004216 -0.002755 0.000000 0.000000 0.000000
# 2 -0.004216 0.007444 -0.000269 0.000000 0.000000 0.000000
# 3 -0.002755 -0.000269 0.015363 0.000000 0.000000 0.000000
# 4 0.000000 0.000000 0.000000 -1.074211 0.000000 0.000000
# 5 0.000000 0.000000 0.000000 0.000000 0.038192 0.000000
# 6 0.000000 0.000000 0.000000 0.000000 0.000000 0.030230
#
#
# Mechanical properties :
#
#
# Convention : Reuss Voigt Hill
#
# Bulk Modulus (GPa) = 55.50158 73.82532 64.66345
# Shear Modulus (GPa) = -5.24763 29.68574 12.21905
#
# Velocity S-wave (km/s) = -1.59339 3.78979 2.43142
# Velocity P-wave (km/s) = 4.84433 7.40730 6.25842
#
# Compressibility (1/GPa) = 0.01801750
#
# Stress axis : x y z
#
# Youngs Moduli (GPa) = 103.22648 134.33072 65.08934
#
# Poissons Ratio (x) = 0.56629 0.17930
# Poissons Ratio (y) = 0.43516 0.01748
# Poissons Ratio (z) = 0.28436 0.03608
#
# Static dielectric constant tensor:
#      x y z
#    x 1.740380 0.000000 0.000000 
#    y 0.000000 1.799970 0.000000 
#    z 0.000000 0.000000 1.712740 
# 
# From -- ./inp_files/63639.got.cif
#   From: 2010.05.17/outbox.cif.g08.bks.cpg/sg65_32_cif.got.tgz:63639.got - 2010.06.03 17:01:31.
