data_PCOD9494116
_publ_section_title
;
Structure prediction by ZEFSAII (Michael W. Deem and Ramdas Pophale) SiO2 
 PCOD9494116
Probable space group: C M M M
;
_chemical_formula_sum "Si O2"
_cell_formula_units_Z 88
_cell_length_a 14.749260
_cell_length_b 19.394399
_cell_length_c 16.334891
_cell_angle_alpha 90.000000
_cell_angle_beta 90.000000
_cell_angle_gamma 90.000000
_cell_volume 4672.645121
_symmetry_space_group_name_H-M "C M M M"
_symmetry_group_IT_number 65
_symmetry_cell_setting 'orthorhombic'
loop_
_space_group_symop_operation_xyz
x,y,z
-x,-y,z
x,-y,-z
-x,y,-z
-x,-y,-z
x,y,-z
-x,y,z
x,-y,z
1/2+x,1/2+y,z
1/2-x,1/2-y,z
1/2+x,1/2-y,-z
1/2-x,1/2+y,-z
1/2-x,1/2-y,-z
1/2+x,1/2+y,-z
1/2-x,1/2+y,z
1/2+x,1/2-y,z
loop_
_atom_site_type_symbol
_atom_site_label
_atom_site_fract_x
_atom_site_fract_y
_atom_site_fract_z
Si Si1 0.719331 0.883975 0.684232
Si Si2 0.397836 0.169378 0.000000
Si Si3 0.108033 0.500000 0.403912
Si Si4 0.103965 0.163721 0.000000
Si Si5 0.399833 0.387530 0.594774
Si Si6 0.252289 0.166306 0.135133
Si Si7 0.897233 0.720974 0.594683
O O1 0.645133 0.935663 0.647608
O O2 0.813927 0.909176 0.646129
O O3 0.736052 0.872817 0.779857
O O4 0.680625 0.811905 0.648994
O O5 0.339203 0.150141 0.078923
O O6 0.500000 0.143079 0.000000
O O7 0.400513 0.252850 0.000000
O O8 0.139038 0.500000 0.500000
O O9 0.000000 0.500000 0.405989
O O10 0.163908 0.146676 0.919365
O O11 0.000000 0.138038 0.000000
O O12 0.390492 0.408137 0.500000
O O13 0.500000 0.409022 0.623437
O O14 0.396932 0.303812 0.597140
O O15 0.250000 0.250000 0.147717
O O16 0.882803 0.699878 0.500000
O O17 0.000000 0.699467 0.618480
#
# Coordination Sequence:
#
# PCOD9494116 Si02
#       7
#    16   8   8   8  16  16  16
#     4  12  21  33  53  74 101 139 181 229 267 295
#     4   8  15  29  48  73 110 146 166 193 252 326
#     4  11  26  44  57  72  99 142 193 230 260 307
#     4   8  15  31  52  75 111 146 161 189 253 326
#     4   9  18  31  48  74 104 130 161 207 269 335
#     4   9  18  30  49  82 111 134 172 211 254 320
#     4   9  17  29  47  73 103 133 166 209 267 329
#
# _framework density 18.833016000000001
#
# number of rings (size 3 to 8) (size 9 to 14) (size 15 to 20)
#    0.000    2.455    0.000    6.000    0.000    5.091 
#    0.000    4.091    0.000    3.818    0.000    3.818 
#    0.000    0.000    0.000    0.000    0.000    0.000 
#
# Total GULP energy -245325.551882 kJ/mol
# GULP energy per Si atom -5575.580725 kJ/mol
# Density = 1.879015 g / cm^3
# Si number density = 18.833016 Si / 1000 Ang^3
#
#
#
# Elastic Constant Matrix: (Units=GPa)
#
#
# Indices 1 2 3 4 5 6 
#
# 1 158.0338 15.7980 80.3358 0.0000 0.0000 0.0000
# 2 15.7980 33.8238 26.0840 0.0000 0.0000 0.0000
# 3 80.3358 26.0840 125.5366 0.0000 0.0000 0.0000
# 4 0.0000 0.0000 0.0000 -420.6747 0.0000 0.0000
# 5 0.0000 0.0000 0.0000 0.0000 -49.4068 0.0000
# 6 0.0000 0.0000 0.0000 0.0000 0.0000 17.3419
#
#
#
# Elastic Compliance Matrix: (Units=1/GPa)
#
#
# Indices 1 2 3 4 5 6 
#
# 1 0.009381 0.000295 -0.006065 0.000000 0.000000 0.000000
# 2 0.000295 0.035215 -0.007506 0.000000 0.000000 0.000000
# 3 -0.006065 -0.007506 0.013407 0.000000 0.000000 0.000000
# 4 0.000000 0.000000 0.000000 -0.002377 0.000000 0.000000
# 5 0.000000 0.000000 0.000000 0.000000 -0.020240 0.000000
# 6 0.000000 0.000000 0.000000 0.000000 0.000000 0.057664
#
#
# Mechanical properties :
#
#
# Convention : Reuss Voigt Hill
#
# Bulk Modulus (GPa) = 31.79429 62.42552 47.10990
# Shear Modulus (GPa) = 38.43644 -77.53615 -19.54985
#
# Velocity S-wave (km/s) = 4.52254 -6.42337 -3.22539
# Velocity P-wave (km/s) = 6.64756 4.66842 3.34633
#
# Compressibility (1/GPa) = 0.03145219
#
# Stress axis : x y z
#
# Youngs Moduli (GPa) = 106.59565 28.39662 74.59063
#
# Poissons Ratio (x) = -0.00839 0.45238
# Poissons Ratio (y) = -0.03148 0.55988
# Poissons Ratio (z) = 0.64648 0.21315
#
# Static dielectric constant tensor:
#      x y z
#    x 1.677900 0.000000 0.000000 
#    y 0.000000 1.745210 0.000000 
#    z 0.000000 0.000000 1.630810 
# 
# From -- ./inp_files/40272.got.cif
#   From: 2010.05.17/outbox.cif.g08.bks.cpg/sg65_21_cif.got.tgz:40272.got - 2010.06.03 17:01:31.
