data_PCOD9494733
_publ_section_title
;
Structure prediction by ZEFSAII (Michael W. Deem and Ramdas Pophale) SiO2 
 PCOD9494733
Probable space group: C M M M
;
_chemical_formula_sum "Si O2"
_cell_formula_units_Z 48
_cell_length_a 24.000000
_cell_length_b 18.000000
_cell_length_c 12.000000
_cell_angle_alpha 90.000000
_cell_angle_beta 90.000000
_cell_angle_gamma 90.000000
_cell_volume 5184.000000
_symmetry_space_group_name_H-M "C M M M"
_symmetry_group_IT_number 65
_symmetry_cell_setting 'orthorhombic'
loop_
_space_group_symop_operation_xyz
x,y,z
-x,-y,z
x,-y,-z
-x,y,-z
-x,-y,-z
x,y,-z
-x,y,z
x,-y,z
1/2+x,1/2+y,z
1/2-x,1/2-y,z
1/2+x,1/2-y,-z
1/2-x,1/2+y,-z
1/2-x,1/2-y,-z
1/2+x,1/2+y,-z
1/2-x,1/2+y,z
1/2+x,1/2-y,z
loop_
_atom_site_type_symbol
_atom_site_label
_atom_site_fract_x
_atom_site_fract_y
_atom_site_fract_z
Si Si1 0.165343 0.416104 0.336176
Si Si2 0.610209 0.589129 0.500000
Si Si3 0.560365 0.813513 0.625738
Si Si4 0.436718 0.345255 0.727323
Si Si5 0.168188 0.816233 0.867834
Si Si6 0.261441 0.590003 0.500000
Si Si7 0.705559 0.149192 0.868953
O O1 0.156041 0.500000 0.372428
O O2 0.112343 0.366966 0.363832
O O3 0.222118 0.388336 0.396008
O O4 0.175608 0.410827 0.205424
O O5 0.611471 0.500000 0.500000
O O6 0.579049 0.616349 0.610742
O O7 0.674970 0.617699 0.500000
O O8 0.561298 0.782744 0.500000
O O9 0.500000 0.851253 0.641396
O O10 0.562887 0.743331 0.706068
O O11 0.500000 0.366742 0.761950
O O12 0.384021 0.354797 0.808786
O O13 0.228172 0.853578 0.847673
O O14 0.180493 0.730048 0.835526
O O15 0.158420 0.816083 0.000000
O O16 0.265746 0.500000 0.500000
O O17 0.697192 0.141251 0.000000
#
# Coordination Sequence:
#
# PCOD9494733 Si02
#       7
#    16   8  16  16  16   8  16
#     4  11  20  33  53  78 110 145 184 224 268 319
#     4  11  23  39  57  82 114 140 169 212 274 340
#     4  10  20  35  52  75 110 146 184 224 261 312
#     4  11  21  35  56  81 109 143 180 219 264 317
#     4   9  18  34  56  80 105 137 181 226 267 317
#     4   9  20  34  49  76 108 137 169 215 266 315
#     4   9  18  33  53  78 107 139 178 224 273 321
#
# _framework density 9.2592590000000001
#
# number of rings (size 3 to 8) (size 9 to 14) (size 15 to 20)
#    0.000    2.000    3.333    2.250    0.000    1.667 
#    0.000    1.667    0.000    2.000    0.000    2.333 
#    0.000    0.000    0.000    0.000    0.000    0.000 
#
# Total GULP energy -267347.544237 kJ/mol
# GULP energy per Si atom -5569.740505 kJ/mol
# Density = 0.923818 g / cm^3
# Si number density = 9.259259 Si / 1000 Ang^3
#
#
#
# Elastic Constant Matrix: (Units=GPa)
#
#
# Indices 1 2 3 4 5 6 
#
# 1 110.5751 12.2223 38.8298 0.0000 0.0000 0.0000
# 2 12.2223 29.7448 12.4011 0.0000 0.0000 0.0000
# 3 38.8298 12.4011 55.3969 0.0000 0.0000 0.0000
# 4 0.0000 0.0000 0.0000 10.0684 0.0000 0.0000
# 5 0.0000 0.0000 0.0000 0.0000 12.3986 0.0000
# 6 0.0000 0.0000 0.0000 0.0000 0.0000 21.6992
#
#
#
# Elastic Compliance Matrix: (Units=1/GPa)
#
#
# Indices 1 2 3 4 5 6 
#
# 1 0.012063 -0.001579 -0.008102 0.000000 0.000000 0.000000
# 2 -0.001579 0.037287 -0.007240 0.000000 0.000000 0.000000
# 3 -0.008102 -0.007240 0.025351 0.000000 0.000000 0.000000
# 4 0.000000 0.000000 0.000000 0.099320 0.000000 0.000000
# 5 0.000000 0.000000 0.000000 0.000000 0.080654 0.000000
# 6 0.000000 0.000000 0.000000 0.000000 0.000000 0.046085
#
#
# Mechanical properties :
#
#
# Convention : Reuss Voigt Hill
#
# Bulk Modulus (GPa) = 24.47455 35.84702 30.16079
# Shear Modulus (GPa) = 14.35861 17.65082 16.00471
#
# Velocity S-wave (km/s) = 2.78756 3.09065 2.94301
# Velocity P-wave (km/s) = 4.85856 5.66883 5.27926
#
# Compressibility (1/GPa) = 0.04085876
#
# Stress axis : x y z
#
# Youngs Moduli (GPa) = 82.89580 26.81923 39.44547
#
# Poissons Ratio (x) = 0.04235 0.31959
# Poissons Ratio (y) = 0.13089 0.28559
# Poissons Ratio (z) = 0.67164 0.19418
#
# Static dielectric constant tensor:
#      x y z
#    x 1.649930 0.000000 0.000000 
#    y 0.000000 1.654900 0.000000 
#    z 0.000000 0.000000 1.657230 
# 
# From -- ./inp_files/30826.got.cif
#   From: 2010.05.17/outbox.ucp.g08.bks.cvg/sg65_16_cif.got.tgz:30826.got - 2010.06.11 16:39:57.
