data_PCOD9494043
_publ_section_title
;
Structure prediction by ZEFSAII (Michael W. Deem and Ramdas Pophale) SiO2 
 PCOD9494043
Probable space group: C M M M
;
_chemical_formula_sum "Si O2"
_cell_formula_units_Z 96
_cell_length_a 15.477282
_cell_length_b 15.797909
_cell_length_c 19.821941
_cell_angle_alpha 90.000000
_cell_angle_beta 90.000000
_cell_angle_gamma 90.000000
_cell_volume 4846.636879
_symmetry_space_group_name_H-M "C M M M"
_symmetry_group_IT_number 65
_symmetry_cell_setting 'orthorhombic'
loop_
_space_group_symop_operation_xyz
x,y,z
-x,-y,z
x,-y,-z
-x,y,-z
-x,-y,-z
x,y,-z
-x,y,z
x,-y,z
1/2+x,1/2+y,z
1/2-x,1/2-y,z
1/2+x,1/2-y,-z
1/2-x,1/2+y,-z
1/2-x,1/2-y,-z
1/2+x,1/2+y,-z
1/2-x,1/2+y,z
1/2+x,1/2-y,z
loop_
_atom_site_type_symbol
_atom_site_label
_atom_site_fract_x
_atom_site_fract_y
_atom_site_fract_z
Si Si1 0.900033 0.597577 0.690261
Si Si2 0.600438 0.100441 0.079791
Si Si3 0.096821 0.899510 0.781176
Si Si4 0.398175 0.406067 0.369370
Si Si5 0.351044 0.767836 0.424512
Si Si6 0.225595 0.656222 0.808801
O O1 0.890652 0.500000 0.666614
O O2 0.883862 0.666358 0.631459
O O3 0.830962 0.612352 0.750019
O O4 0.000000 0.607732 0.714047
O O5 0.500000 0.119228 0.094908
O O6 0.664643 0.152993 0.126024
O O7 0.613864 0.000000 0.093782
O O8 0.613700 0.113424 0.000000
O O9 0.128394 0.876063 0.705511
O O10 0.180219 0.881805 0.826022
O O11 0.000000 0.863648 0.795193
O O12 0.087046 0.000000 0.779017
O O13 0.500000 0.417499 0.362816
O O14 0.360875 0.500000 0.385668
O O15 0.386826 0.327384 0.418004
O O16 0.367609 0.800764 0.500000
O O17 0.250000 0.750000 0.415075
O O18 0.250000 0.750000 0.786425
#
# Coordination Sequence:
#
# PCOD9494043 Si02
#       6
#    16  16  16  16  16  16
#     4  11  24  41  62  86 113 152 204 258 308 358
#     4   9  19  38  63  88 117 157 202 244 287 341
#     4   9  18  33  53  77 107 145 188 232 281 342
#     4   9  18  34  56  79 104 138 183 237 294 350
#     4  11  24  39  55  79 113 152 193 241 298 361
#     4  12  23  34  57  89 121 151 184 239 300 354
#
# _framework density 19.807549000000002
#
# number of rings (size 3 to 8) (size 9 to 14) (size 15 to 20)
#    0.000    1.833    0.000    6.500    0.000    8.333 
#    0.000    3.333    0.000    0.500    0.000    2.333 
#    0.000    0.000    0.000    0.000    0.000    0.000 
#
# Total GULP energy -267540.380039 kJ/mol
# GULP energy per Si atom -5573.757917 kJ/mol
# Density = 1.976247 g / cm^3
# Si number density = 19.807549 Si / 1000 Ang^3
#
#
#
# Elastic Constant Matrix: (Units=GPa)
#
#
# Indices 1 2 3 4 5 6 
#
# 1 107.7539 31.4788 40.4551 0.0000 0.0000 0.0000
# 2 31.4788 83.1507 29.4464 0.0000 0.0000 0.0000
# 3 40.4551 29.4464 48.5340 0.0000 0.0000 0.0000
# 4 0.0000 0.0000 0.0000 -5.5626 0.0000 0.0000
# 5 0.0000 0.0000 0.0000 0.0000 38.1770 0.0000
# 6 0.0000 0.0000 0.0000 0.0000 0.0000 21.1636
#
#
#
# Elastic Compliance Matrix: (Units=1/GPa)
#
#
# Indices 1 2 3 4 5 6 
#
# 1 0.013643 -0.001449 -0.010493 0.000000 0.000000 0.000000
# 2 -0.001449 0.015471 -0.008179 0.000000 0.000000 0.000000
# 3 -0.010493 -0.008179 0.034313 0.000000 0.000000 0.000000
# 4 0.000000 0.000000 0.000000 -0.179772 0.000000 0.000000
# 5 0.000000 0.000000 0.000000 0.000000 0.026194 0.000000
# 6 0.000000 0.000000 0.000000 0.000000 0.000000 0.047251
#
#
# Mechanical properties :
#
#
# Convention : Reuss Voigt Hill
#
# Bulk Modulus (GPa) = 43.13064 49.13326 46.13195
# Shear Modulus (GPa) = 986.20043 19.95950 503.07996
#
# Velocity S-wave (km/s) = 22.33768 3.17783 15.95416
# Velocity P-wave (km/s) = 26.21294 6.19063 19.04524
#
# Compressibility (1/GPa) = 0.02318537
#
# Stress axis : x y z
#
# Youngs Moduli (GPa) = 73.29643 64.63565 29.14371
#
# Poissons Ratio (x) = 0.09366 0.30581
# Poissons Ratio (y) = 0.10621 0.23836
# Poissons Ratio (z) = 0.76910 0.52865
#
# Static dielectric constant tensor:
#      x y z
#    x 1.626620 0.000000 0.000000 
#    y 0.000000 1.787590 0.000000 
#    z 0.000000 0.000000 1.715400 
# 
# From -- ./inp_files/62612.got.cif
#   From: 2010.05.17/outbox.cif.g08.bks.cpg/sg65_32_cif.got.tgz:62612.got - 2010.06.03 17:01:31.
