data_PCOD9494490
_publ_section_title
;
Structure prediction by ZEFSAII (Michael W. Deem and Ramdas Pophale) SiO2 
 PCOD9494490
Probable space group: C M M M
;
_chemical_formula_sum "Si O2"
_cell_formula_units_Z 72
_cell_length_a 14.427397
_cell_length_b 9.476317
_cell_length_c 24.139078
_cell_angle_alpha 90.000000
_cell_angle_beta 90.000000
_cell_angle_gamma 90.000000
_cell_volume 3300.260647
_symmetry_space_group_name_H-M "C M M M"
_symmetry_group_IT_number 65
_symmetry_cell_setting 'orthorhombic'
loop_
_space_group_symop_operation_xyz
x,y,z
-x,-y,z
x,-y,-z
-x,y,-z
-x,-y,-z
x,y,-z
-x,y,z
x,-y,z
1/2+x,1/2+y,z
1/2-x,1/2-y,z
1/2+x,1/2-y,-z
1/2-x,1/2+y,-z
1/2-x,1/2-y,-z
1/2+x,1/2+y,-z
1/2-x,1/2+y,z
1/2+x,1/2-y,z
loop_
_atom_site_type_symbol
_atom_site_label
_atom_site_fract_x
_atom_site_fract_y
_atom_site_fract_z
Si Si1 0.613418 0.159846 0.284982
Si Si2 0.886862 0.838683 0.392111
Si Si3 0.113236 0.338258 0.500000
Si Si4 0.391918 0.341991 0.816527
Si Si5 0.846803 0.830571 0.940323
O O1 0.500000 0.153530 0.285398
O O2 0.640255 0.259962 0.335811
O O3 0.644391 0.229049 0.227137
O O4 0.646900 0.000000 0.291693
O O5 0.859147 0.747112 0.445263
O O6 0.000000 0.843291 0.392522
O O7 0.853932 0.000000 0.394675
O O8 0.145847 0.500000 0.500000
O O9 0.000000 0.342742 0.500000
O O10 0.500000 0.356291 0.802365
O O11 0.350250 0.500000 0.811505
O O12 0.389080 0.295751 0.880678
O O13 0.750000 0.750000 0.940916
O O14 0.835194 0.000000 0.939827
O O15 0.893014 0.796909 0.000000
#
# Coordination Sequence:
#
# PCOD9494490 Si02
#       5
#    16  16   8  16  16
#     4   9  16  25  37  54  77 105 137 174 217 262
#     4   9  15  22  32  46  67  98 136 175 214 257
#     4   9  15  21  29  43  65  95 134 177 216 255
#     4   9  17  29  45  65  88 114 146 183 221 262
#     4   9  18  32  49  68  90 117 147 179 218 264
#
# _framework density 21.816459999999999
#
# number of rings (size 3 to 8) (size 9 to 14) (size 15 to 20)
#    0.000    3.000    0.000    1.667    0.000    8.000 
#    0.000    2.222    0.000    0.000    0.000    6.222 
#    0.000    0.000    0.000    1.000    0.000   14.667 
#
# Total GULP energy -200841.854208 kJ/mol
# GULP energy per Si atom -5578.940395 kJ/mol
# Density = 2.176680 g / cm^3
# Si number density = 21.816460 Si / 1000 Ang^3
#
#
#
# Elastic Constant Matrix: (Units=GPa)
#
#
# Indices 1 2 3 4 5 6 
#
# 1 50.2513 10.8082 -2.9728 0.0000 0.0000 0.0000
# 2 10.8082 166.7662 125.2530 0.0000 0.0000 0.0000
# 3 -2.9728 125.2530 205.3685 0.0000 0.0000 0.0000
# 4 0.0000 0.0000 0.0000 153.2813 0.0000 0.0000
# 5 0.0000 0.0000 0.0000 0.0000 118.5101 0.0000
# 6 0.0000 0.0000 0.0000 0.0000 0.0000 4.4187
#
#
#
# Elastic Compliance Matrix: (Units=1/GPa)
#
#
# Indices 1 2 3 4 5 6 
#
# 1 0.020642 -0.002883 0.002057 0.000000 0.000000 0.000000
# 2 -0.002883 0.011468 -0.007036 0.000000 0.000000 0.000000
# 3 0.002057 -0.007036 0.009190 0.000000 0.000000 0.000000
# 4 0.000000 0.000000 0.000000 0.006524 0.000000 0.000000
# 5 0.000000 0.000000 0.000000 0.000000 0.008438 0.000000
# 6 0.000000 0.000000 0.000000 0.000000 0.000000 0.226310
#
#
# Mechanical properties :
#
#
# Convention : Reuss Voigt Hill
#
# Bulk Modulus (GPa) = 39.09854 76.50698 57.80276
# Shear Modulus (GPa) = 16.29622 74.52855 45.41239
#
# Velocity S-wave (km/s) = 2.73604 5.85113 4.56737
# Velocity P-wave (km/s) = 5.28599 8.98845 7.37340
#
# Compressibility (1/GPa) = 0.02557640
#
# Stress axis : x y z
#
# Youngs Moduli (GPa) = 48.44565 87.20250 108.81257
#
# Poissons Ratio (x) = 0.25138 -0.22382
# Poissons Ratio (y) = 0.13965 0.76558
# Poissons Ratio (z) = -0.09965 0.61353
#
# Static dielectric constant tensor:
#      x y z
#    x 1.836810 0.000000 0.000000 
#    y 0.000000 1.752350 0.000000 
#    z 0.000000 0.000000 1.795160 
# 
# From -- ./inp_files/59257.got.cif
#   From: 2010.05.17/outbox.cif.g08.bks.cpg/sg65_30_cif.got.tgz:59257.got - 2010.06.03 17:01:31.
