data_PCOD9494692
_publ_section_title
;
Structure prediction by ZEFSAII (Michael W. Deem and Ramdas Pophale) SiO2 
 PCOD9494692
Probable space group: C M M M
;
_chemical_formula_sum "Si O2"
_cell_formula_units_Z 36
_cell_length_a 27.000000
_cell_length_b 9.000000
_cell_length_c 15.000000
_cell_angle_alpha 90.000000
_cell_angle_beta 90.000000
_cell_angle_gamma 90.000000
_cell_volume 3645.000000
_symmetry_space_group_name_H-M "C M M M"
_symmetry_group_IT_number 65
_symmetry_cell_setting 'orthorhombic'
loop_
_space_group_symop_operation_xyz
x,y,z
-x,-y,z
x,-y,-z
-x,y,-z
-x,-y,-z
x,y,-z
-x,y,z
x,-y,z
1/2+x,1/2+y,z
1/2-x,1/2-y,z
1/2+x,1/2-y,-z
1/2-x,1/2+y,-z
1/2-x,1/2-y,-z
1/2+x,1/2+y,-z
1/2-x,1/2+y,z
1/2+x,1/2-y,z
loop_
_atom_site_type_symbol
_atom_site_label
_atom_site_fract_x
_atom_site_fract_y
_atom_site_fract_z
Si Si1 0.589260 0.175055 0.323143
Si Si2 0.298048 0.825218 0.276879
Si Si3 0.658077 0.178410 0.904406
Si Si4 0.555555 0.322115 0.143982
Si Si5 0.941748 0.165812 0.500000
O O1 0.648617 0.195937 0.321072
O O2 0.562944 0.267866 0.245371
O O3 0.571733 0.238807 0.415062
O O4 0.579283 0.000000 0.310145
O O5 0.250000 0.750000 0.317403
O O6 0.308933 0.765899 0.177002
O O7 0.288219 0.000000 0.272564
O O8 0.603096 0.247042 0.901203
O O9 0.652395 0.000000 0.893412
O O10 0.680756 0.209781 0.000000
O O11 0.500000 0.279575 0.113454
O O12 0.559357 0.500000 0.136880
O O13 0.000000 0.147762 0.500000
O O14 0.918899 0.000000 0.500000
#
# Coordination Sequence:
#
# PCOD9494692 Si02
#       5
#    16  16  16  16   8
#     4  10  21  37  56  79 107 139 177 215 253 307
#     4   9  19  35  55  78 103 134 173 217 263 310
#     4   9  19  35  52  73 103 137 176 220 262 311
#     4  10  20  33  50  74 105 139 175 217 264 312
#     4  11  23  37  56  85 116 141 170 211 256 301
#
# _framework density 9.8765429999999999
#
# number of rings (size 3 to 8) (size 9 to 14) (size 15 to 20)
#    0.000    2.333    0.000    3.667    0.000   11.111 
#    0.000    2.778    0.000    0.000    0.000    0.000 
#    0.000    0.000    0.000    0.000    0.000    0.000 
#
# Total GULP energy -200639.929506 kJ/mol
# GULP energy per Si atom -5573.331375 kJ/mol
# Density = 0.985406 g / cm^3
# Si number density = 9.876543 Si / 1000 Ang^3
#
#
#
# Elastic Constant Matrix: (Units=GPa)
#
#
# Indices 1 2 3 4 5 6 
#
# 1 69.0340 25.4830 -5.8780 0.0000 0.0000 0.0000
# 2 25.4830 -0.4010 -0.3574 0.0000 0.0000 0.0000
# 3 -5.8780 -0.3574 75.7669 0.0000 0.0000 0.0000
# 4 0.0000 0.0000 0.0000 53.2194 0.0000 0.0000
# 5 0.0000 0.0000 0.0000 0.0000 -13.1368 0.0000
# 6 0.0000 0.0000 0.0000 0.0000 0.0000 31.2507
#
#
#
# Elastic Compliance Matrix: (Units=1/GPa)
#
#
# Indices 1 2 3 4 5 6 
#
# 1 0.000596 0.037679 0.000224 0.000000 0.000000 0.000000
# 2 0.037679 -0.101508 0.002444 0.000000 0.000000 0.000000
# 3 0.000224 0.002444 0.013227 0.000000 0.000000 0.000000
# 4 0.000000 0.000000 0.000000 0.018790 0.000000 0.000000
# 5 0.000000 0.000000 0.000000 0.000000 -0.076122 0.000000
# 6 0.000000 0.000000 0.000000 0.000000 0.000000 0.031999
#
#
# Mechanical properties :
#
#
# Convention : Reuss Voigt Hill
#
# Bulk Modulus (GPa) = -143.03500 20.32167 -61.35667
# Shear Modulus (GPa) = -25.50472 22.61017 -1.44728
#
# Velocity S-wave (km/s) = -3.59719 3.38692 -0.85690
# Velocity P-wave (km/s) = 9.47743 5.06016 5.66642
#
# Compressibility (1/GPa) = -0.00699130
#
# Stress axis : x y z
#
# Youngs Moduli (GPa) = 1677.60209 -9.85139 75.60128
#
# Poissons Ratio (x) = 0.37119 -0.01693
# Poissons Ratio (y) = -63.20982 -0.18479
# Poissons Ratio (z) = -0.37578 0.02408
#
# Static dielectric constant tensor:
#      x y z
#    x 1.763720 0.000000 0.000000 
#    y 0.000000 1.669550 0.000000 
#    z 0.000000 0.000000 1.652130 
# 
# From -- ./inp_files/36520.got.cif
#   From: 2010.05.17/outbox.ucp.g08.bks.cvg/sg65_19_cif.got.tgz:36520.got - 2010.06.11 16:39:57.
