data_PCOD9494057
_publ_section_title
;
Structure prediction by ZEFSAII (Michael W. Deem and Ramdas Pophale) SiO2 
 PCOD9494057
Probable space group: C M M M
;
_chemical_formula_sum "Si O2"
_cell_formula_units_Z 68
_cell_length_a 9.873718
_cell_length_b 21.095224
_cell_length_c 17.531905
_cell_angle_alpha 90.000000
_cell_angle_beta 90.000000
_cell_angle_gamma 90.000000
_cell_volume 3651.690564
_symmetry_space_group_name_H-M "C M M M"
_symmetry_group_IT_number 65
_symmetry_cell_setting 'orthorhombic'
loop_
_space_group_symop_operation_xyz
x,y,z
-x,-y,z
x,-y,-z
-x,y,-z
-x,-y,-z
x,y,-z
-x,y,z
x,-y,z
1/2+x,1/2+y,z
1/2-x,1/2-y,z
1/2+x,1/2-y,-z
1/2-x,1/2+y,-z
1/2-x,1/2-y,-z
1/2+x,1/2+y,-z
1/2-x,1/2+y,z
1/2+x,1/2-y,z
loop_
_atom_site_type_symbol
_atom_site_label
_atom_site_fract_x
_atom_site_fract_y
_atom_site_fract_z
Si Si1 0.335699 0.929695 0.411411
Si Si2 0.210479 0.383322 0.849372
Si Si3 0.500000 0.423813 0.910314
Si Si4 0.337452 0.811903 0.694302
Si Si5 0.854302 0.693614 0.000000
Si Si6 0.000000 0.500000 0.829264
O O1 0.296283 0.922122 0.500000
O O2 0.500000 0.930892 0.409210
O O3 0.295465 0.870821 0.359782
O O4 0.290884 0.000000 0.384831
O O5 0.365581 0.401015 0.867135
O O6 0.193494 0.334741 0.779904
O O7 0.159646 0.350445 0.926491
O O8 0.118322 0.444263 0.831327
O O9 0.500000 0.500000 0.911491
O O10 0.500000 0.403025 0.000000
O O11 0.500000 0.801450 0.686165
O O12 0.250000 0.750000 0.676086
O O13 0.750000 0.750000 0.000000
O O14 0.000000 0.724988 0.000000
#
# Coordination Sequence:
#
# PCOD9494057 Si02
#       6
#    16  16   8  16   8   4
#     4   8  16  33  62  95 125 160 206 256 306 367
#     4  12  25  41  63  89 123 162 208 261 313 371
#     4  11  24  40  60  90 119 154 198 259 321 376
#     4  11  24  40  61  92 128 167 209 257 313 377
#     4  12  26  42  59  84 116 164 209 255 312 374
#     4  12  24  43  66  96 121 156 212 272 313 368
#
# _framework density 18.621511999999999
#
# number of rings (size 3 to 8) (size 9 to 14) (size 15 to 20)
#    0.000    1.294    4.706    1.412    4.941    1.412 
#    0.000    0.000    0.000    0.000    0.000    1.647 
#    0.000    0.000    0.000    0.000    0.000    0.000 
#
# Total GULP energy -189317.997689 kJ/mol
# GULP energy per Si atom -5568.176403 kJ/mol
# Density = 1.857913 g / cm^3
# Si number density = 18.621512 Si / 1000 Ang^3
#
#
#
# Elastic Constant Matrix: (Units=GPa)
#
#
# Indices 1 2 3 4 5 6 
#
# 1 136.3220 45.3700 11.2350 0.0000 0.0000 0.0000
# 2 45.3700 144.5588 59.5398 0.0000 0.0000 0.0000
# 3 11.2350 59.5398 82.2096 0.0000 0.0000 0.0000
# 4 0.0000 0.0000 0.0000 39.4437 0.0000 0.0000
# 5 0.0000 0.0000 0.0000 0.0000 11.9544 0.0000
# 6 0.0000 0.0000 0.0000 0.0000 0.0000 43.7431
#
#
#
# Elastic Compliance Matrix: (Units=1/GPa)
#
#
# Indices 1 2 3 4 5 6 
#
# 1 0.008256 -0.003031 0.001066 0.000000 0.000000 0.000000
# 2 -0.003031 0.010971 -0.007531 0.000000 0.000000 0.000000
# 3 0.001066 -0.007531 0.017473 0.000000 0.000000 0.000000
# 4 0.000000 0.000000 0.000000 0.025353 0.000000 0.000000
# 5 0.000000 0.000000 0.000000 0.000000 0.083651 0.000000
# 6 0.000000 0.000000 0.000000 0.000000 0.000000 0.022861
#
#
# Mechanical properties :
#
#
# Convention : Reuss Voigt Hill
#
# Bulk Modulus (GPa) = 56.46807 66.15333 61.31070
# Shear Modulus (GPa) = 25.84539 35.49127 30.66833
#
# Velocity S-wave (km/s) = 3.72954 4.37043 4.06264
# Velocity P-wave (km/s) = 6.99542 7.81472 7.41639
#
# Compressibility (1/GPa) = 0.01770912
#
# Stress axis : x y z
#
# Youngs Moduli (GPa) = 121.11997 91.15225 57.23198
#
# Poissons Ratio (x) = 0.27624 -0.06104
# Poissons Ratio (y) = 0.36706 0.43103
# Poissons Ratio (z) = -0.12917 0.68649
#
# Static dielectric constant tensor:
#      x y z
#    x 1.640930 0.000000 0.000000 
#    y 0.000000 1.631320 0.000000 
#    z 0.000000 0.000000 1.646140 
# 
# From -- ./inp_files/49241.got.cif
#   From: 2010.05.17/outbox.cif.g08.bks.cpg/sg65_25_cif.got.tgz:49241.got - 2010.06.03 17:01:31.
