data_PCOD9494092
_publ_section_title
;
Structure prediction by ZEFSAII (Michael W. Deem and Ramdas Pophale) SiO2 
 PCOD9494092
Probable space group: C M M M
;
_chemical_formula_sum "Si O2"
_cell_formula_units_Z 88
_cell_length_a 19.252974
_cell_length_b 14.959045
_cell_length_c 13.646306
_cell_angle_alpha 90.000000
_cell_angle_beta 90.000000
_cell_angle_gamma 90.000000
_cell_volume 3930.219431
_symmetry_space_group_name_H-M "C M M M"
_symmetry_group_IT_number 65
_symmetry_cell_setting 'orthorhombic'
loop_
_space_group_symop_operation_xyz
x,y,z
-x,-y,z
x,-y,-z
-x,y,-z
-x,-y,-z
x,y,-z
-x,y,z
x,-y,z
1/2+x,1/2+y,z
1/2-x,1/2-y,z
1/2+x,1/2-y,-z
1/2-x,1/2+y,-z
1/2-x,1/2-y,-z
1/2+x,1/2+y,-z
1/2-x,1/2+y,z
1/2+x,1/2-y,z
loop_
_atom_site_type_symbol
_atom_site_label
_atom_site_fract_x
_atom_site_fract_y
_atom_site_fract_z
Si Si1 0.346786 0.841653 0.115411
Si Si2 0.642283 0.273106 0.383535
Si Si3 0.303846 0.632740 0.114070
Si Si4 0.722476 0.103131 0.381080
Si Si5 0.074598 0.094624 0.744997
Si Si6 0.000000 0.392659 0.884485
O O1 0.325220 0.737683 0.118520
O O2 0.274450 0.885366 0.152738
O O3 0.424567 0.859487 0.154592
O O4 0.350149 0.868071 0.000000
O O5 0.631227 0.271483 0.500000
O O6 0.662895 0.173554 0.349387
O O7 0.706888 0.341001 0.363050
O O8 0.582109 0.320667 0.324740
O O9 0.363789 0.591862 0.178294
O O10 0.305815 0.607431 0.000000
O O11 0.717220 0.099848 0.500000
O O12 0.721037 0.000000 0.348220
O O13 0.000000 0.099550 0.795938
O O14 0.077361 0.000000 0.687986
O O15 0.000000 0.500000 0.877140
O O16 0.000000 0.366727 0.000000
#
# Coordination Sequence:
#
# PCOD9494092 Si02
#       6
#    16  16  16  16  16   8
#     4   8  16  31  53  82 108 140 189 230 280 356
#     4   9  18  34  57  84 117 154 186 231 300 360
#     4   9  19  37  58  78 106 149 196 243 294 349
#     4   8  14  27  53  89 119 145 186 234 283 353
#     4  11  25  39  52  78 110 148 204 256 299 354
#     4   9  16  26  46  80 115 141 174 229 291 349
#
# _framework density 22.390606999999999
#
# number of rings (size 3 to 8) (size 9 to 14) (size 15 to 20)
#    0.000    3.000    0.000    2.727    1.273    5.818 
#    0.000    3.636    0.000    1.636    0.000    2.545 
#    0.000    0.000    0.000    0.000    0.000    1.182 
#
# Total GULP energy -245342.097902 kJ/mol
# GULP energy per Si atom -5575.956771 kJ/mol
# Density = 2.233965 g / cm^3
# Si number density = 22.390607 Si / 1000 Ang^3
#
#
#
# Elastic Constant Matrix: (Units=GPa)
#
#
# Indices 1 2 3 4 5 6 
#
# 1 208.0539 54.8845 46.4501 0.0000 0.0000 0.0000
# 2 54.8845 135.3067 30.1615 0.0000 0.0000 0.0000
# 3 46.4501 30.1615 62.7891 0.0000 0.0000 0.0000
# 4 0.0000 0.0000 0.0000 17.2744 0.0000 0.0000
# 5 0.0000 0.0000 0.0000 0.0000 27.3314 0.0000
# 6 0.0000 0.0000 0.0000 0.0000 0.0000 124.8263
#
#
#
# Elastic Compliance Matrix: (Units=1/GPa)
#
#
# Indices 1 2 3 4 5 6 
#
# 1 0.006064 -0.001635 -0.003701 0.000000 0.000000 0.000000
# 2 -0.001635 0.008718 -0.002978 0.000000 0.000000 0.000000
# 3 -0.003701 -0.002978 0.020095 0.000000 0.000000 0.000000
# 4 0.000000 0.000000 0.000000 0.057889 0.000000 0.000000
# 5 0.000000 0.000000 0.000000 0.000000 0.036588 0.000000
# 6 0.000000 0.000000 0.000000 0.000000 0.000000 0.008011
#
#
# Mechanical properties :
#
#
# Convention : Reuss Voigt Hill
#
# Bulk Modulus (GPa) = 54.79812 74.34910 64.57361
# Shear Modulus (GPa) = 31.23542 52.19666 41.71604
#
# Velocity S-wave (km/s) = 3.73905 4.83347 4.32105
# Velocity P-wave (km/s) = 6.57020 8.02668 7.33468
#
# Compressibility (1/GPa) = 0.01824880
#
# Stress axis : x y z
#
# Youngs Moduli (GPa) = 164.91004 114.71019 49.76449
#
# Poissons Ratio (x) = 0.18753 0.18416
# Poissons Ratio (y) = 0.26959 0.14821
# Poissons Ratio (z) = 0.61028 0.34163
#
# Static dielectric constant tensor:
#      x y z
#    x 1.853510 0.000000 0.000000 
#    y 0.000000 1.562920 0.000000 
#    z 0.000000 0.000000 1.867790 
# 
# From -- ./inp_files/54284.got.cif
#   From: 2010.05.17/outbox.cif.g08.bks.cpg/sg65_28_cif.got.tgz:54284.got - 2010.06.03 17:01:31.
