data_PCOD9494503
_publ_section_title
;
Structure prediction by ZEFSAII (Michael W. Deem and Ramdas Pophale) SiO2 
 PCOD9494503
Probable space group: C M M M
;
_chemical_formula_sum "Si O2"
_cell_formula_units_Z 104
_cell_length_a 14.035979
_cell_length_b 18.637145
_cell_length_c 19.676184
_cell_angle_alpha 90.000000
_cell_angle_beta 90.000000
_cell_angle_gamma 90.000000
_cell_volume 5147.104303
_symmetry_space_group_name_H-M "C M M M"
_symmetry_group_IT_number 65
_symmetry_cell_setting 'orthorhombic'
loop_
_space_group_symop_operation_xyz
x,y,z
-x,-y,z
x,-y,-z
-x,y,-z
-x,-y,-z
x,y,-z
-x,y,z
x,-y,z
1/2+x,1/2+y,z
1/2-x,1/2-y,z
1/2+x,1/2-y,-z
1/2-x,1/2+y,-z
1/2-x,1/2-y,-z
1/2+x,1/2+y,-z
1/2-x,1/2+y,z
1/2+x,1/2-y,z
loop_
_atom_site_type_symbol
_atom_site_label
_atom_site_fract_x
_atom_site_fract_y
_atom_site_fract_z
Si Si1 0.887388 0.857718 0.320850
Si Si2 0.764002 0.336487 0.576137
Si Si3 0.616539 0.852753 0.149114
Si Si4 0.383794 0.420495 0.178253
Si Si5 0.886893 0.689026 0.701824
Si Si6 0.883294 0.794490 0.922600
Si Si7 0.616549 0.000000 0.078082
O O1 0.830295 0.869721 0.390073
O O2 0.858072 0.905190 0.256504
O O3 0.867998 0.774672 0.299735
O O4 0.000000 0.865315 0.331281
O O5 0.785204 0.362009 0.500000
O O6 0.750000 0.250000 0.571597
O O7 0.842267 0.345707 0.634817
O O8 0.500000 0.852075 0.150107
O O9 0.648240 0.842424 0.226844
O O10 0.645019 0.783539 0.105200
O O11 0.645814 0.927684 0.116419
O O12 0.500000 0.418512 0.176941
O O13 0.354092 0.500000 0.156829
O O14 0.351905 0.356960 0.128657
O O15 0.000000 0.680525 0.699476
O O16 0.000000 0.795327 0.922469
O O17 0.852377 0.806103 0.000000
O O18 0.500000 0.000000 0.077039
O O19 0.648752 0.000000 0.000000
#
# Coordination Sequence:
#
# PCOD9494503 Si02
#       7
#    16  16  16  16  16  16   8
#     4   9  16  29  48  70  99 132 166 205 250 299
#     4   9  18  30  47  76 105 127 163 209 251 302
#     4   9  15  25  41  64  95 131 171 209 250 303
#     4   9  16  26  42  66  95 128 169 210 249 300
#     4   9  16  28  48  71 100 136 169 203 245 297
#     4   9  15  23  38  63  97 132 164 204 253 300
#     4   9  16  24  38  66 101 131 166 219 265 295
#
# _framework density 20.205535999999999
#
# number of rings (size 3 to 8) (size 9 to 14) (size 15 to 20)
#    0.000    3.000    1.538    0.462    0.000    2.769 
#    0.000    4.615    1.692    0.462    0.000    5.385 
#    0.000    3.077    0.000    0.000    0.000    0.000 
#
# Total GULP energy -290332.245619 kJ/mol
# GULP energy per Si atom -5583.312416 kJ/mol
# Density = 2.015955 g / cm^3
# Si number density = 20.205536 Si / 1000 Ang^3
#
#
#
# Elastic Constant Matrix: (Units=GPa)
#
#
# Indices 1 2 3 4 5 6 
#
# 1 34.6807 11.8013 4.1397 0.0000 0.0000 0.0000
# 2 11.8013 101.5170 61.5527 0.0000 0.0000 0.0000
# 3 4.1397 61.5527 171.1490 0.0000 0.0000 0.0000
# 4 0.0000 0.0000 0.0000 6.8122 0.0000 0.0000
# 5 0.0000 0.0000 0.0000 0.0000 -38.5532 0.0000
# 6 0.0000 0.0000 0.0000 0.0000 0.0000 13.0205
#
#
#
# Elastic Compliance Matrix: (Units=1/GPa)
#
#
# Indices 1 2 3 4 5 6 
#
# 1 0.030083 -0.003908 0.000678 0.000000 0.000000 0.000000
# 2 -0.003908 0.013105 -0.004619 0.000000 0.000000 0.000000
# 3 0.000678 -0.004619 0.007488 0.000000 0.000000 0.000000
# 4 0.000000 0.000000 0.000000 0.146796 0.000000 0.000000
# 5 0.000000 0.000000 0.000000 0.000000 -0.025938 0.000000
# 6 0.000000 0.000000 0.000000 0.000000 0.000000 0.076802
#
#
# Mechanical properties :
#
#
# Convention : Reuss Voigt Hill
#
# Bulk Modulus (GPa) = 28.58914 51.37046 39.97980
# Shear Modulus (GPa) = 18.13609 11.57943 14.85776
#
# Velocity S-wave (km/s) = 2.99921 2.39651 2.71464
# Velocity P-wave (km/s) = 5.11601 5.75646 5.44566
#
# Compressibility (1/GPa) = 0.03497832
#
# Stress axis : x y z
#
# Youngs Moduli (GPa) = 33.24082 76.30462 133.55475
#
# Poissons Ratio (x) = 0.29822 -0.09054
# Poissons Ratio (y) = 0.12991 0.61685
# Poissons Ratio (z) = -0.02253 0.35243
#
# Static dielectric constant tensor:
#      x y z
#    x 1.793060 0.000000 0.000000 
#    y 0.000000 1.697590 0.000000 
#    z 0.000000 0.000000 1.681400 
# 
# From -- ./inp_files/53301.got.cif
#   From: 2010.05.17/outbox.cif.g08.bks.cpg/sg65_27_cif.got.tgz:53301.got - 2010.06.03 17:01:31.
