data_PCOD9494362
_publ_section_title
;
Structure prediction by ZEFSAII (Michael W. Deem and Ramdas Pophale) SiO2 
 PCOD9494362
Probable space group: C M M M
;
_chemical_formula_sum "Si O2"
_cell_formula_units_Z 88
_cell_length_a 14.954811
_cell_length_b 7.278767
_cell_length_c 33.291193
_cell_angle_alpha 90.000000
_cell_angle_beta 90.000000
_cell_angle_gamma 90.000000
_cell_volume 3623.832409
_symmetry_space_group_name_H-M "C M M M"
_symmetry_group_IT_number 65
_symmetry_cell_setting 'orthorhombic'
loop_
_space_group_symop_operation_xyz
x,y,z
-x,-y,z
x,-y,-z
-x,y,-z
-x,-y,-z
x,y,-z
-x,y,z
x,-y,z
1/2+x,1/2+y,z
1/2-x,1/2-y,z
1/2+x,1/2-y,-z
1/2-x,1/2+y,-z
1/2-x,1/2-y,-z
1/2+x,1/2+y,-z
1/2-x,1/2+y,z
1/2+x,1/2-y,z
loop_
_atom_site_type_symbol
_atom_site_label
_atom_site_fract_x
_atom_site_fract_y
_atom_site_fract_z
Si Si1 0.644227 0.281052 0.609136
Si Si2 0.857728 0.219532 0.783113
Si Si3 0.393047 0.711607 0.957050
Si Si4 0.644747 0.718229 0.130771
Si Si5 0.142656 0.218902 0.696676
Si Si6 0.000000 0.224480 0.454090
O O1 0.631511 0.500000 0.610885
O O2 0.750000 0.250000 0.604283
O O3 0.613471 0.210272 0.653079
O O4 0.585773 0.215693 0.571885
O O5 0.750000 0.250000 0.782521
O O6 0.892167 0.288035 0.826390
O O7 0.890917 0.289484 0.739858
O O8 0.872255 0.000000 0.783507
O O9 0.500000 0.705554 0.959444
O O10 0.359533 0.500000 0.955817
O O11 0.376172 0.794900 0.913321
O O12 0.361159 0.790542 0.000000
O O13 0.623060 0.500000 0.129185
O O14 0.750000 0.750000 0.134341
O O15 0.250000 0.250000 0.696568
O O16 0.126186 0.000000 0.697045
O O17 0.000000 0.286414 0.500000
O O18 0.000000 0.000000 0.455275
#
# Coordination Sequence:
#
# PCOD9494362 Si02
#       6
#    16  16  16  16  16   8
#     4   9  17  30  49  70  92 121 157 192 227 271
#     4   8  13  21  34  54  80 105 129 159 198 244
#     4   8  14  25  40  55  72  99 133 163 193 235
#     4   9  16  25  39  59  81 102 127 161 201 241
#     4   8  13  22  38  59  82 108 139 171 204 245
#     4   9  18  32  49  69  95 127 157 187 230 282
#
# _framework density 24.283684999999998
#
# number of rings (size 3 to 8) (size 9 to 14) (size 15 to 20)
#    0.000    3.545    0.000    0.545    0.000    0.727 
#    0.000    0.455    2.000    1.091    0.000    1.273 
#    0.000    0.000    0.000    0.000    0.000    0.000 
#
# Total GULP energy -245103.488354 kJ/mol
# GULP energy per Si atom -5570.533826 kJ/mol
# Density = 2.422841 g / cm^3
# Si number density = 24.283685 Si / 1000 Ang^3
#
#
#
# Elastic Constant Matrix: (Units=GPa)
#
#
# Indices 1 2 3 4 5 6 
#
# 1 71.1744 -7.8707 68.1828 0.0000 0.0000 0.0000
# 2 -7.8707 113.2046 20.4806 0.0000 0.0000 0.0000
# 3 68.1828 20.4806 375.6225 0.0000 0.0000 0.0000
# 4 0.0000 0.0000 0.0000 232.7838 0.0000 0.0000
# 5 0.0000 0.0000 0.0000 0.0000 48.1798 0.0000
# 6 0.0000 0.0000 0.0000 0.0000 0.0000 -4.3352
#
#
#
# Elastic Compliance Matrix: (Units=1/GPa)
#
#
# Indices 1 2 3 4 5 6 
#
# 1 0.017361 0.001795 -0.003249 0.000000 0.000000 0.000000
# 2 0.001795 0.009107 -0.000822 0.000000 0.000000 0.000000
# 3 -0.003249 -0.000822 0.003297 0.000000 0.000000 0.000000
# 4 0.000000 0.000000 0.000000 0.004296 0.000000 0.000000
# 5 0.000000 0.000000 0.000000 0.000000 0.020756 0.000000
# 6 0.000000 0.000000 0.000000 0.000000 0.000000 -0.230668
#
#
# Mechanical properties :
#
#
# Convention : Reuss Voigt Hill
#
# Bulk Modulus (GPa) = 39.66402 80.17632 59.92017
# Shear Modulus (GPa) = -30.69483 87.27292 28.28904
#
# Velocity S-wave (km/s) = -3.55915 6.00141 3.41683
# Velocity P-wave (km/s) = 0.72180 9.00615 6.34783
#
# Compressibility (1/GPa) = 0.02521177
#
# Stress axis : x y z
#
# Youngs Moduli (GPa) = 57.59978 109.80392 303.31599
#
# Poissons Ratio (x) = -0.19709 0.98555
# Poissons Ratio (y) = -0.10339 0.24944
# Poissons Ratio (z) = 0.18716 0.09030
#
# Static dielectric constant tensor:
#      x y z
#    x 1.878660 0.000000 0.000000 
#    y 0.000000 2.248080 0.000000 
#    z 0.000000 0.000000 2.014690 
# 
# From -- ./inp_files/77587.got.cif
#   From: 2010.05.17/outbox.cif.g08.bks.cpg/sg65_39_cif.got.tgz:77587.got - 2010.06.03 17:01:31.
