data_PCOD9494864
_publ_section_title
;
Structure prediction by ZEFSAII (Michael W. Deem and Ramdas Pophale) SiO2 
 PCOD9494864
Probable space group: C M M M
;
_chemical_formula_sum "Si O2"
_cell_formula_units_Z 32
_cell_length_a 18.000000
_cell_length_b 9.000000
_cell_length_c 21.000000
_cell_angle_alpha 90.000000
_cell_angle_beta 90.000000
_cell_angle_gamma 90.000000
_cell_volume 3402.000000
_symmetry_space_group_name_H-M "C M M M"
_symmetry_group_IT_number 65
_symmetry_cell_setting 'orthorhombic'
loop_
_space_group_symop_operation_xyz
x,y,z
-x,-y,z
x,-y,-z
-x,y,-z
-x,-y,-z
x,y,-z
-x,y,z
x,-y,z
1/2+x,1/2+y,z
1/2-x,1/2-y,z
1/2+x,1/2-y,-z
1/2-x,1/2+y,-z
1/2-x,1/2-y,-z
1/2+x,1/2+y,-z
1/2-x,1/2+y,z
1/2+x,1/2-y,z
loop_
_atom_site_type_symbol
_atom_site_label
_atom_site_fract_x
_atom_site_fract_y
_atom_site_fract_z
Si Si1 0.415492 0.681092 0.000000
Si Si2 0.670037 0.676790 0.873586
Si Si3 0.670545 0.674137 0.500000
Si Si4 0.410815 0.172924 0.241121
Si Si5 0.910864 0.673285 0.614594
O O1 0.373656 0.728756 0.063581
O O2 0.416571 0.500000 0.000000
O O3 0.500000 0.733156 0.000000
O O4 0.676813 0.500000 0.876315
O O5 0.750000 0.750000 0.872400
O O6 0.625772 0.725026 0.811214
O O7 0.679335 0.500000 0.500000
O O8 0.750000 0.750000 0.500000
O O9 0.626461 0.726962 0.562039
O O10 0.500000 0.183269 0.237682
O O11 0.388460 0.211403 0.313273
O O12 0.390861 0.000000 0.229892
O O13 0.891984 0.500000 0.603228
O O14 0.000000 0.684987 0.610693
#
# Coordination Sequence:
#
# PCOD9494864 Si02
#       5
#     8  16   8  16  16
#     4   9  19  36  57  81 108 141 184 231 278 328
#     4  11  22  36  56  81 113 150 185 226 275 327
#     4  12  25  38  55  81 113 147 185 230 275 324
#     4   9  19  37  60  85 112 143 182 226 272 327
#     4   9  19  38  62  84 110 145 181 222 275 331
#
# _framework density 9.4062319999999993
#
# number of rings (size 3 to 8) (size 9 to 14) (size 15 to 20)
#    0.000    2.125    0.000    4.875    0.000    5.500 
#    0.000    4.375    0.000    4.500    0.000    0.000 
#    0.000    0.000    0.000    0.000    0.000    0.000 
#
# Total GULP energy -178682.833977 kJ/mol
# GULP energy per Si atom -5583.838562 kJ/mol
# Density = 0.938482 g / cm^3
# Si number density = 9.406232 Si / 1000 Ang^3
#
#
#
# Elastic Constant Matrix: (Units=GPa)
#
#
# Indices 1 2 3 4 5 6 
#
# 1 43.5493 48.5928 55.7267 0.0000 0.0000 0.0000
# 2 48.5928 77.6289 91.8394 0.0000 0.0000 0.0000
# 3 55.7267 91.8394 128.4246 0.0000 0.0000 0.0000
# 4 0.0000 0.0000 0.0000 21.6394 0.0000 0.0000
# 5 0.0000 0.0000 0.0000 0.0000 57.3143 0.0000
# 6 0.0000 0.0000 0.0000 0.0000 0.0000 -10.3016
#
#
#
# Elastic Compliance Matrix: (Units=1/GPa)
#
#
# Indices 1 2 3 4 5 6 
#
# 1 0.077070 -0.056365 0.006865 0.000000 0.000000 0.000000
# 2 -0.056365 0.124888 -0.064852 0.000000 0.000000 0.000000
# 3 0.006865 -0.064852 0.051185 0.000000 0.000000 0.000000
# 4 0.000000 0.000000 0.000000 0.046212 0.000000 0.000000
# 5 0.000000 0.000000 0.000000 0.000000 0.017448 0.000000
# 6 0.000000 0.000000 0.000000 0.000000 0.000000 -0.097073
#
#
# Mechanical properties :
#
#
# Convention : Reuss Voigt Hill
#
# Bulk Modulus (GPa) = 40.91762 71.32452 56.12107
# Shear Modulus (GPa) = 10.95098 17.29336 14.12217
#
# Velocity S-wave (km/s) = 2.41532 3.03520 2.74283
# Velocity P-wave (km/s) = 5.43837 7.09077 6.31882
#
# Compressibility (1/GPa) = 0.02443935
#
# Stress axis : x y z
#
# Youngs Moduli (GPa) = 12.97516 8.00719 19.53703
#
# Poissons Ratio (x) = 0.45133 -0.13412
# Poissons Ratio (y) = 0.73134 1.26701
# Poissons Ratio (z) = -0.08908 0.51928
#
# Static dielectric constant tensor:
#      x y z
#    x 1.630700 0.000000 0.000000 
#    y 0.000000 1.628240 0.000000 
#    z 0.000000 0.000000 1.618040 
# 
# From -- ./inp_files/63249.got.cif
#   From: 2010.05.17/outbox.ucp.g08.bks.cvg/sg65_32_cif.got.tgz:63249.got - 2010.06.11 16:39:57.
