data_PCOD9494600
_publ_section_title
;
Structure prediction by ZEFSAII (Michael W. Deem and Ramdas Pophale) SiO2 
 PCOD9494600
Probable space group: C M M M
;
_chemical_formula_sum "Si O2"
_cell_formula_units_Z 48
_cell_length_a 9.000000
_cell_length_b 27.000000
_cell_length_c 24.000000
_cell_angle_alpha 90.000000
_cell_angle_beta 90.000000
_cell_angle_gamma 90.000000
_cell_volume 5832.000000
_symmetry_space_group_name_H-M "C M M M"
_symmetry_group_IT_number 65
_symmetry_cell_setting 'orthorhombic'
loop_
_space_group_symop_operation_xyz
x,y,z
-x,-y,z
x,-y,-z
-x,y,-z
-x,-y,-z
x,y,-z
-x,y,z
x,-y,z
1/2+x,1/2+y,z
1/2-x,1/2-y,z
1/2+x,1/2-y,-z
1/2-x,1/2+y,-z
1/2-x,1/2-y,-z
1/2+x,1/2+y,-z
1/2-x,1/2+y,z
1/2+x,1/2-y,z
loop_
_atom_site_type_symbol
_atom_site_label
_atom_site_fract_x
_atom_site_fract_y
_atom_site_fract_z
Si Si1 0.178845 0.338342 0.937395
Si Si2 0.670056 0.440210 0.673821
Si Si3 0.673174 0.060155 0.561760
Si Si4 0.320918 0.945933 0.898534
Si Si5 0.323330 0.898503 0.781459
Si Si6 0.823112 0.800483 0.826732
O O1 0.223664 0.396395 0.931176
O O2 0.264769 0.309255 0.889767
O O3 0.000000 0.335360 0.927111
O O4 0.208141 0.321337 0.000000
O O5 0.500000 0.424721 0.682686
O O6 0.674381 0.500000 0.673936
O O7 0.730008 0.422963 0.613813
O O8 0.772156 0.421252 0.723570
O O9 0.721859 0.076521 0.500000
O O10 0.500000 0.073594 0.569288
O O11 0.678495 0.000000 0.561543
O O12 0.500000 0.947928 0.904141
O O13 0.288044 0.934726 0.833589
O O14 0.262227 0.000000 0.915317
O O15 0.500000 0.890005 0.782836
O O16 0.238128 0.847587 0.793260
O O17 0.750000 0.750000 0.805673
O O18 0.000000 0.798017 0.825425
#
# Coordination Sequence:
#
# PCOD9494600 Si02
#       6
#    16  16  16  16  16  16
#     4   9  18  32  49  71  97 122 152 188 224 269
#     4  10  19  28  41  66  99 132 164 198 237 277
#     4   8  14  25  40  58  84 123 169 208 238 271
#     4   8  14  25  43  67  92 119 151 186 222 259
#     4  10  19  32  49  69  93 121 156 194 232 278
#     4  11  22  37  55  72  91 115 145 185 237 290
#
# _framework density 8.2304530000000007
#
# number of rings (size 3 to 8) (size 9 to 14) (size 15 to 20)
#    0.000    2.667    0.000    4.500    0.000    3.000 
#    0.000    3.333    0.000    4.500    0.000    4.667 
#    0.000    0.667    0.000    2.500    0.000    3.833 
#
# Total GULP energy -267513.050559 kJ/mol
# GULP energy per Si atom -5573.188553 kJ/mol
# Density = 0.821172 g / cm^3
# Si number density = 8.230453 Si / 1000 Ang^3
#
#
#
# Elastic Constant Matrix: (Units=GPa)
#
#
# Indices 1 2 3 4 5 6 
#
# 1 63.7687 13.6908 24.5483 0.0000 0.0000 0.0000
# 2 13.6908 43.5725 -9.3409 0.0000 0.0000 0.0000
# 3 24.5483 -9.3409 65.3885 0.0000 0.0000 0.0000
# 4 0.0000 0.0000 0.0000 2.8291 0.0000 0.0000
# 5 0.0000 0.0000 0.0000 0.0000 21.2922 0.0000
# 6 0.0000 0.0000 0.0000 0.0000 0.0000 18.9158
#
#
#
# Elastic Compliance Matrix: (Units=1/GPa)
#
#
# Indices 1 2 3 4 5 6 
#
# 1 0.021030 -0.008563 -0.009118 0.000000 0.000000 0.000000
# 2 -0.008563 0.027162 0.007095 0.000000 0.000000 0.000000
# 3 -0.009118 0.007095 0.019730 0.000000 0.000000 0.000000
# 4 0.000000 0.000000 0.000000 0.353475 0.000000 0.000000
# 5 0.000000 0.000000 0.000000 0.000000 0.046966 0.000000
# 6 0.000000 0.000000 0.000000 0.000000 0.000000 0.052866
#
#
# Mechanical properties :
#
#
# Convention : Reuss Voigt Hill
#
# Bulk Modulus (GPa) = 21.39075 25.61401 23.50238
# Shear Modulus (GPa) = 8.96083 18.19619 13.57851
#
# Velocity S-wave (km/s) = 2.33571 3.32839 2.87521
# Velocity P-wave (km/s) = 4.50523 5.51046 5.03301
#
# Compressibility (1/GPa) = 0.04674919
#
# Stress axis : x y z
#
# Youngs Moduli (GPa) = 47.55059 36.81658 50.68437
#
# Poissons Ratio (x) = 0.31525 0.46216
# Poissons Ratio (y) = 0.40716 -0.35959
# Poissons Ratio (z) = 0.43359 -0.26120
#
# Static dielectric constant tensor:
#      x y z
#    x 1.549600 0.000000 0.000000 
#    y 0.000000 1.562380 0.000000 
#    z 0.000000 0.000000 1.556750 
# 
# From -- ./inp_files/67840.got.cif
#   From: 2010.05.17/outbox.ucp.g08.bks.cvg/sg65_34_cif.got.tgz:67840.got - 2010.06.11 16:39:57.
