data_PCOD9494609
_publ_section_title
;
Structure prediction by ZEFSAII (Michael W. Deem and Ramdas Pophale) SiO2 
 PCOD9494609
Probable space group: C M M M
;
_chemical_formula_sum "Si O2"
_cell_formula_units_Z 36
_cell_length_a 9.000000
_cell_length_b 15.000000
_cell_length_c 27.000000
_cell_angle_alpha 90.000000
_cell_angle_beta 90.000000
_cell_angle_gamma 90.000000
_cell_volume 3645.000000
_symmetry_space_group_name_H-M "C M M M"
_symmetry_group_IT_number 65
_symmetry_cell_setting 'orthorhombic'
loop_
_space_group_symop_operation_xyz
x,y,z
-x,-y,z
x,-y,-z
-x,y,-z
-x,-y,-z
x,y,-z
-x,y,z
x,-y,z
1/2+x,1/2+y,z
1/2-x,1/2-y,z
1/2+x,1/2-y,-z
1/2-x,1/2+y,-z
1/2-x,1/2-y,-z
1/2+x,1/2+y,-z
1/2-x,1/2+y,z
1/2+x,1/2-y,z
loop_
_atom_site_type_symbol
_atom_site_label
_atom_site_fract_x
_atom_site_fract_y
_atom_site_fract_z
Si Si1 0.320495 0.150949 0.554197
Si Si2 0.820506 0.500000 0.059289
Si Si3 0.167363 0.895537 0.764856
Si Si4 0.180288 0.843133 0.124782
Si Si5 0.178407 0.347792 0.662807
O O1 0.279422 0.110459 0.500000
O O2 0.500000 0.157640 0.554371
O O3 0.250000 0.250000 0.553963
O O4 0.281304 0.110501 0.608456
O O5 0.749310 0.416919 0.088687
O O6 0.000000 0.500000 0.064529
O O7 0.787438 0.500000 0.000000
O O8 0.223564 0.856116 0.816907
O O9 0.260391 0.885937 0.714453
O O10 0.000000 0.859601 0.755410
O O11 0.156403 0.000000 0.775144
O O12 0.250000 0.750000 0.108905
O O13 0.000000 0.845715 0.122937
O O14 0.250000 0.250000 0.661032
O O15 0.000000 0.345196 0.665431
#
# Coordination Sequence:
#
# PCOD9494609 Si02
#       5
#    16   8  16  16  16
#     4   8  14  25  41  63  94 130 171 222 278 338
#     4  11  25  45  69  99 133 169 210 255 302 353
#     4  10  21  38  57  80 112 149 191 241 297 352
#     4  11  23  42  67  96 128 167 211 255 307 363
#     4  10  19  30  48  76 105 138 181 229 286 350
#
# _framework density 9.8765429999999999
#
# number of rings (size 3 to 8) (size 9 to 14) (size 15 to 20)
#    0.000    2.111    1.111    2.333    0.000    6.222 
#    0.000    0.000    0.000    0.667    0.000    4.667 
#    0.000    0.000    0.000    0.000    0.000    0.000 
#
# Total GULP energy -200548.513423 kJ/mol
# GULP energy per Si atom -5570.792040 kJ/mol
# Density = 0.985406 g / cm^3
# Si number density = 9.876543 Si / 1000 Ang^3
#
#
#
# Elastic Constant Matrix: (Units=GPa)
#
#
# Indices 1 2 3 4 5 6 
#
# 1 59.6352 23.6218 58.0803 0.0000 0.0000 0.0000
# 2 23.6218 105.9192 61.7890 0.0000 0.0000 0.0000
# 3 58.0803 61.7890 194.6431 0.0000 0.0000 0.0000
# 4 0.0000 0.0000 0.0000 20.5991 0.0000 0.0000
# 5 0.0000 0.0000 0.0000 0.0000 38.2689 0.0000
# 6 0.0000 0.0000 0.0000 0.0000 0.0000 19.6738
#
#
#
# Elastic Compliance Matrix: (Units=1/GPa)
#
#
# Indices 1 2 3 4 5 6 
#
# 1 0.023814 -0.001430 -0.006652 0.000000 0.000000 0.000000
# 2 -0.001430 0.011673 -0.003279 0.000000 0.000000 0.000000
# 3 -0.006652 -0.003279 0.008163 0.000000 0.000000 0.000000
# 4 0.000000 0.000000 0.000000 0.048546 0.000000 0.000000
# 5 0.000000 0.000000 0.000000 0.000000 0.026131 0.000000
# 6 0.000000 0.000000 0.000000 0.000000 0.000000 0.050829
#
#
# Mechanical properties :
#
#
# Convention : Reuss Voigt Hill
#
# Bulk Modulus (GPa) = 47.78316 71.90885 59.84601
# Shear Modulus (GPa) = 25.14420 30.15545 27.64983
#
# Velocity S-wave (km/s) = 3.57168 3.91144 3.74541
# Velocity P-wave (km/s) = 6.42277 7.54202 7.00478
#
# Compressibility (1/GPa) = 0.02092788
#
# Stress axis : x y z
#
# Youngs Moduli (GPa) = 41.99297 85.66911 122.50047
#
# Poissons Ratio (x) = 0.12255 0.81484
# Poissons Ratio (y) = 0.06007 0.40164
# Poissons Ratio (z) = 0.27932 0.28088
#
# Static dielectric constant tensor:
#      x y z
#    x 1.678740 0.000000 0.000000 
#    y 0.000000 1.767830 0.000000 
#    z 0.000000 0.000000 1.737740 
# 
# From -- ./inp_files/72502.got.cif
#   From: 2010.05.17/outbox.ucp.g08.bks.cvg/sg65_37_cif.got.tgz:72502.got - 2010.06.11 16:39:57.
