data_PCOD9494329
_publ_section_title
;
Structure prediction by ZEFSAII (Michael W. Deem and Ramdas Pophale) SiO2 
 PCOD9494329
Probable space group: C M M M
;
_chemical_formula_sum "Si O2"
_cell_formula_units_Z 80
_cell_length_a 7.596328
_cell_length_b 14.406929
_cell_length_c 31.577424
_cell_angle_alpha 90.000000
_cell_angle_beta 90.000000
_cell_angle_gamma 90.000000
_cell_volume 3455.825646
_symmetry_space_group_name_H-M "C M M M"
_symmetry_group_IT_number 65
_symmetry_cell_setting 'orthorhombic'
loop_
_space_group_symop_operation_xyz
x,y,z
-x,-y,z
x,-y,-z
-x,y,-z
-x,-y,-z
x,y,-z
-x,y,z
x,-y,z
1/2+x,1/2+y,z
1/2-x,1/2-y,z
1/2+x,1/2-y,-z
1/2-x,1/2+y,-z
1/2-x,1/2-y,-z
1/2+x,1/2+y,-z
1/2-x,1/2+y,z
1/2+x,1/2-y,z
loop_
_atom_site_type_symbol
_atom_site_label
_atom_site_fract_x
_atom_site_fract_y
_atom_site_fract_z
Si Si1 0.788096 0.139483 0.545630
Si Si2 0.701494 0.386921 0.047383
Si Si3 0.000000 0.614378 0.791692
Si Si4 0.302860 0.391635 0.730697
Si Si5 0.500000 0.113686 0.888638
Si Si6 0.710487 0.358962 0.363312
O O1 0.722179 0.104495 0.500000
O O2 0.750000 0.250000 0.545485
O O3 0.722178 0.104424 0.591284
O O4 0.000000 0.126635 0.545716
O O5 0.500000 0.357231 0.053219
O O6 0.701645 0.500000 0.047807
O O7 0.830743 0.356695 0.084307
O O8 0.761156 0.360013 0.000000
O O9 0.169722 0.646268 0.765254
O O10 0.000000 0.645064 0.840223
O O11 0.000000 0.500000 0.791565
O O12 0.500000 0.350056 0.730507
O O13 0.321483 0.500000 0.740694
O O14 0.226541 0.388858 0.682889
O O15 0.500000 0.000000 0.887805
O O16 0.500000 0.376764 0.362978
O O17 0.750000 0.250000 0.364426
#
# Coordination Sequence:
#
# PCOD9494329 Si02
#       6
#    16  16   8  16   8  16
#     4   8  13  22  36  56  83 107 128 160 204 253
#     4   8  13  20  30  46  70 100 132 168 210 250
#     4   9  18  29  42  59  77 108 148 183 222 255
#     4   9  18  32  46  60  83 113 144 180 220 261
#     4   9  15  22  33  50  70  95 136 180 210 244
#     4   9  17  27  43  66  85 107 139 176 215 255
#
# _framework density 23.149315999999999
#
# number of rings (size 3 to 8) (size 9 to 14) (size 15 to 20)
#    0.000    3.400    0.000    0.900    1.400    2.000 
#    0.000    4.000    0.000    0.600    0.000    4.200 
#    0.000    2.400    0.000    0.200    0.000    4.000 
#
# Total GULP energy -223079.913833 kJ/mol
# GULP energy per Si atom -5576.997846 kJ/mol
# Density = 2.309663 g / cm^3
# Si number density = 23.149316 Si / 1000 Ang^3
#
#
#
# Elastic Constant Matrix: (Units=GPa)
#
#
# Indices 1 2 3 4 5 6 
#
# 1 95.5950 2.4807 110.9183 0.0000 0.0000 0.0000
# 2 2.4807 70.6146 3.8215 0.0000 0.0000 0.0000
# 3 110.9183 3.8215 286.6750 0.0000 0.0000 0.0000
# 4 0.0000 0.0000 0.0000 8.4985 0.0000 0.0000
# 5 0.0000 0.0000 0.0000 0.0000 -26.3804 0.0000
# 6 0.0000 0.0000 0.0000 0.0000 0.0000 0.3440
#
#
#
# Elastic Compliance Matrix: (Units=1/GPa)
#
#
# Indices 1 2 3 4 5 6 
#
# 1 0.018988 -0.000270 -0.007343 0.000000 0.000000 0.000000
# 2 -0.000270 0.014175 -0.000085 0.000000 0.000000 0.000000
# 3 -0.007343 -0.000085 0.006331 0.000000 0.000000 0.000000
# 4 0.000000 0.000000 0.000000 0.117668 0.000000 0.000000
# 5 0.000000 0.000000 0.000000 0.000000 -0.037907 0.000000
# 6 0.000000 0.000000 0.000000 0.000000 0.000000 2.906982
#
#
# Mechanical properties :
#
#
# Convention : Reuss Voigt Hill
#
# Bulk Modulus (GPa) = 41.49525 76.36952 58.93239
# Shear Modulus (GPa) = 1.63952 18.87002 10.25477
#
# Velocity S-wave (km/s) = 0.84248 2.85817 2.10700
# Velocity P-wave (km/s) = 4.34860 6.62976 5.60643
#
# Compressibility (1/GPa) = 0.02409914
#
# Stress axis : x y z
#
# Youngs Moduli (GPa) = 52.66502 70.54460 157.96455
#
# Poissons Ratio (x) = 0.01902 1.15995
# Poissons Ratio (y) = 0.01420 0.01337
# Poissons Ratio (z) = 0.38672 0.00597
#
# Static dielectric constant tensor:
#      x y z
#    x 1.910060 0.000000 0.000000 
#    y 0.000000 2.014990 0.000000 
#    z 0.000000 0.000000 1.858510 
# 
# From -- ./inp_files/73441.got.cif
#   From: 2010.05.17/outbox.cif.g08.bks.cpg/sg65_37_cif.got.tgz:73441.got - 2010.06.03 17:01:31.
