data_PCOD9494538
_publ_section_title
;
Structure prediction by ZEFSAII (Michael W. Deem and Ramdas Pophale) SiO2 
 PCOD9494538
Probable space group: C M M M
;
_chemical_formula_sum "Si O2"
_cell_formula_units_Z 80
_cell_length_a 7.591233
_cell_length_b 38.697578
_cell_length_c 14.204987
_cell_angle_alpha 90.000000
_cell_angle_beta 90.000000
_cell_angle_gamma 90.000000
_cell_volume 4172.890095
_symmetry_space_group_name_H-M "C M M M"
_symmetry_group_IT_number 65
_symmetry_cell_setting 'orthorhombic'
loop_
_space_group_symop_operation_xyz
x,y,z
-x,-y,z
x,-y,-z
-x,y,-z
-x,-y,-z
x,y,-z
-x,y,z
x,-y,z
1/2+x,1/2+y,z
1/2-x,1/2-y,z
1/2+x,1/2-y,-z
1/2-x,1/2+y,-z
1/2-x,1/2-y,-z
1/2+x,1/2+y,-z
1/2-x,1/2+y,z
1/2+x,1/2-y,z
loop_
_atom_site_type_symbol
_atom_site_label
_atom_site_fract_x
_atom_site_fract_y
_atom_site_fract_z
Si Si1 0.213401 0.461406 0.702778
Si Si2 0.213155 0.142446 0.205196
Si Si3 0.708841 0.391187 0.603731
Si Si4 0.288746 0.711530 0.107603
Si Si5 0.290086 0.927999 0.895800
O O1 0.272205 0.500000 0.678896
O O2 0.268488 0.431258 0.632057
O O3 0.276714 0.450305 0.807393
O O4 0.000000 0.461267 0.704392
O O5 0.280121 0.130700 0.307922
O O6 0.276914 0.179496 0.169117
O O7 0.260215 0.111874 0.132794
O O8 0.000000 0.143321 0.209497
O O9 0.782845 0.384337 0.500000
O O10 0.500000 0.384353 0.600023
O O11 0.500000 0.708295 0.103204
O O12 0.250000 0.750000 0.143772
O O13 0.221005 0.709301 0.000000
O O14 0.500000 0.933795 0.899338
O O15 0.218486 0.935308 0.000000
#
# Coordination Sequence:
#
# PCOD9494538 Si02
#       5
#    16  16  16  16  16
#     4   9  18  31  45  63  88 116 145 178 218 263
#     4   9  17  30  47  65  87 115 146 180 216 255
#     4   9  18  32  49  67  85 109 144 184 224 262
#     4   9  17  28  43  65  91 117 143 170 204 248
#     4   9  17  28  43  64  88 115 147 180 214 254
#
# _framework density 19.171365000000002
#
# number of rings (size 3 to 8) (size 9 to 14) (size 15 to 20)
#    0.000    3.000    0.000    0.600    0.000    3.600 
#    0.000    6.000    0.000    0.600    0.000    5.600 
#    0.000    0.000    0.000    0.000    0.000    0.000 
#
# Total GULP energy -223024.097582 kJ/mol
# GULP energy per Si atom -5575.602440 kJ/mol
# Density = 1.912773 g / cm^3
# Si number density = 19.171365 Si / 1000 Ang^3
#
#
#
# Elastic Constant Matrix: (Units=GPa)
#
#
# Indices 1 2 3 4 5 6 
#
# 1 41.6776 -8.8221 0.8684 0.0000 0.0000 0.0000
# 2 -8.8221 85.2931 8.3773 0.0000 0.0000 0.0000
# 3 0.8684 8.3773 76.7436 0.0000 0.0000 0.0000
# 4 0.0000 0.0000 0.0000 7.0129 0.0000 0.0000
# 5 0.0000 0.0000 0.0000 0.0000 12.1058 0.0000
# 6 0.0000 0.0000 0.0000 0.0000 0.0000 18.8671
#
#
#
# Elastic Compliance Matrix: (Units=1/GPa)
#
#
# Indices 1 2 3 4 5 6 
#
# 1 0.024555 0.002595 -0.000561 0.000000 0.000000 0.000000
# 2 0.002595 0.012126 -0.001353 0.000000 0.000000 0.000000
# 3 -0.000561 -0.001353 0.013184 0.000000 0.000000 0.000000
# 4 0.000000 0.000000 0.000000 0.142593 0.000000 0.000000
# 5 0.000000 0.000000 0.000000 0.000000 0.082605 0.000000
# 6 0.000000 0.000000 0.000000 0.000000 0.000000 0.053002
#
#
# Mechanical properties :
#
#
# Convention : Reuss Voigt Hill
#
# Bulk Modulus (GPa) = 19.52126 22.72907 21.12516
# Shear Modulus (GPa) = 14.54420 21.14987 17.84704
#
# Velocity S-wave (km/s) = 2.75733 3.32505 3.05441
# Velocity P-wave (km/s) = 4.51019 5.15972 4.84585
#
# Compressibility (1/GPa) = 0.05122620
#
# Stress axis : x y z
#
# Youngs Moduli (GPa) = 40.72545 82.47044 75.84698
#
# Poissons Ratio (x) = -0.21400 0.04256
# Poissons Ratio (y) = -0.10568 0.10262
# Poissons Ratio (z) = 0.02285 0.11158
#
# Static dielectric constant tensor:
#      x y z
#    x 1.735830 0.000000 0.000000 
#    y 0.000000 1.647330 0.000000 
#    z 0.000000 0.000000 1.684440 
# 
# From -- ./inp_files/22874.got.cif
#   From: 2010.05.17/outbox.cif.g08.bks.cpg/sg65_12_cif.got.tgz:22874.got - 2010.06.03 17:01:31.
