data_PCOD9494573
_publ_section_title
;
Structure prediction by ZEFSAII (Michael W. Deem and Ramdas Pophale) SiO2 
 PCOD9494573
Probable space group: C M M M
;
_chemical_formula_sum "Si O2"
_cell_formula_units_Z 64
_cell_length_a 18.000000
_cell_length_b 18.000000
_cell_length_c 24.000000
_cell_angle_alpha 90.000000
_cell_angle_beta 90.000000
_cell_angle_gamma 90.000000
_cell_volume 7776.000000
_symmetry_space_group_name_H-M "C M M M"
_symmetry_group_IT_number 65
_symmetry_cell_setting 'orthorhombic'
loop_
_space_group_symop_operation_xyz
x,y,z
-x,-y,z
x,-y,-z
-x,y,-z
-x,-y,-z
x,y,-z
-x,y,z
x,-y,z
1/2+x,1/2+y,z
1/2-x,1/2-y,z
1/2+x,1/2-y,-z
1/2-x,1/2+y,-z
1/2-x,1/2-y,-z
1/2+x,1/2+y,-z
1/2-x,1/2+y,z
1/2+x,1/2-y,z
loop_
_atom_site_type_symbol
_atom_site_label
_atom_site_fract_x
_atom_site_fract_y
_atom_site_fract_z
Si Si1 0.586556 0.413874 0.590022
Si Si2 0.161468 0.758065 0.563729
Si Si3 0.313796 0.190614 0.147131
Si Si4 0.298741 0.911536 0.742365
Si Si5 0.412425 0.911956 0.933068
Si Si6 0.416052 0.281349 0.774182
Si Si7 0.633124 0.415028 0.283567
Si Si8 0.410870 0.180813 0.329991
O O1 0.500000 0.404674 0.573917
O O2 0.608504 0.500000 0.575585
O O3 0.634546 0.344370 0.568142
O O4 0.593513 0.407572 0.657012
O O5 0.146001 0.733663 0.500000
O O6 0.250000 0.750000 0.573292
O O7 0.119529 0.708699 0.610434
O O8 0.250000 0.250000 0.128665
O O9 0.294731 0.134381 0.199180
O O10 0.355807 0.141062 0.100630
O O11 0.370379 0.246113 0.177005
O O12 0.220351 0.895319 0.711938
O O13 0.364704 0.884463 0.701063
O O14 0.305512 0.000000 0.752632
O O15 0.500000 0.896735 0.919346
O O16 0.399454 0.000000 0.920599
O O17 0.404292 0.902647 0.000000
O O18 0.500000 0.261299 0.783957
O O19 0.403220 0.367225 0.764665
O O20 0.395728 0.247413 0.713829
O O21 0.629781 0.500000 0.267385
O O22 0.500000 0.167311 0.332519
#
# Coordination Sequence:
#
# PCOD9494573 Si02
#       8
#    16  16  16  16  16  16  16  16
#     4  10  20  34  55  81 105 131 168 217 268 319
#     4  11  23  37  54  74 101 137 174 216 268 328
#     4  11  20  32  52  82 115 146 173 219 270 323
#     4  10  21  35  53  77 107 141 174 213 260 314
#     4   9  19  37  59  80 106 146 194 239 278 315
#     4  10  19  31  48  75 105 138 173 209 255 312
#     4  10  18  30  49  73 101 139 173 203 252 313
#     4  10  21  34  53  76 100 132 171 216 266 320
#
# _framework density 8.2304530000000007
#
# number of rings (size 3 to 8) (size 9 to 14) (size 15 to 20)
#    0.000    1.875    2.500    2.625    0.000    3.000 
#    0.000    0.625    0.000    1.125    0.000    0.875 
#    0.000    0.000    0.000    8.250    0.000    0.000 
#
# Total GULP energy -356480.227424 kJ/mol
# GULP energy per Si atom -5570.003554 kJ/mol
# Density = 0.821172 g / cm^3
# Si number density = 8.230453 Si / 1000 Ang^3
#
#
#
# Elastic Constant Matrix: (Units=GPa)
#
#
# Indices 1 2 3 4 5 6 
#
# 1 59.7428 37.5735 43.2219 0.0000 0.0000 0.0000
# 2 37.5735 61.0463 26.1848 0.0000 0.0000 0.0000
# 3 43.2219 26.1848 69.0175 0.0000 0.0000 0.0000
# 4 0.0000 0.0000 0.0000 19.6992 0.0000 0.0000
# 5 0.0000 0.0000 0.0000 0.0000 18.2285 0.0000
# 6 0.0000 0.0000 0.0000 0.0000 0.0000 23.3432
#
#
#
# Elastic Compliance Matrix: (Units=1/GPa)
#
#
# Indices 1 2 3 4 5 6 
#
# 1 0.041837 -0.017333 -0.019624 0.000000 0.000000 0.000000
# 2 -0.017333 0.026746 0.000707 0.000000 0.000000 0.000000
# 3 -0.019624 0.000707 0.026510 0.000000 0.000000 0.000000
# 4 0.000000 0.000000 0.000000 0.050764 0.000000 0.000000
# 5 0.000000 0.000000 0.000000 0.000000 0.054859 0.000000
# 6 0.000000 0.000000 0.000000 0.000000 0.000000 0.042839
#
#
# Mechanical properties :
#
#
# Convention : Reuss Voigt Hill
#
# Bulk Modulus (GPa) = 44.26004 44.86299 44.56152
# Shear Modulus (GPa) = 15.45193 17.77596 16.61395
#
# Velocity S-wave (km/s) = 3.06715 3.28973 3.18039
# Velocity P-wave (km/s) = 6.28407 6.46090 6.37310
#
# Compressibility (1/GPa) = 0.02259374
#
# Stress axis : x y z
#
# Youngs Moduli (GPa) = 23.90249 37.38921 37.72129
#
# Poissons Ratio (x) = 0.64805 0.74025
# Poissons Ratio (y) = 0.41429 -0.02668
# Poissons Ratio (z) = 0.46907 -0.02645
#
# Static dielectric constant tensor:
#      x y z
#    x 1.585840 0.000000 0.000000 
#    y 0.000000 1.584420 0.000000 
#    z 0.000000 0.000000 1.539450 
# 
# From -- ./inp_files/70668.got.cif
#   From: 2010.05.17/outbox.ucp.g08.bks.cvg/sg65_36_cif.got.tgz:70668.got - 2010.06.11 16:39:57.
