data_PCOD9494737
_publ_section_title
;
Structure prediction by ZEFSAII (Michael W. Deem and Ramdas Pophale) SiO2 
 PCOD9494737
Probable space group: C M M M
;
_chemical_formula_sum "Si O2"
_cell_formula_units_Z 52
_cell_length_a 21.000000
_cell_length_b 27.000000
_cell_length_c 9.000000
_cell_angle_alpha 90.000000
_cell_angle_beta 90.000000
_cell_angle_gamma 90.000000
_cell_volume 5103.000000
_symmetry_space_group_name_H-M "C M M M"
_symmetry_group_IT_number 65
_symmetry_cell_setting 'orthorhombic'
loop_
_space_group_symop_operation_xyz
x,y,z
-x,-y,z
x,-y,-z
-x,y,-z
-x,-y,-z
x,y,-z
-x,y,z
x,-y,z
1/2+x,1/2+y,z
1/2-x,1/2-y,z
1/2+x,1/2-y,-z
1/2-x,1/2+y,-z
1/2-x,1/2-y,-z
1/2+x,1/2+y,-z
1/2-x,1/2+y,z
1/2+x,1/2-y,z
loop_
_atom_site_type_symbol
_atom_site_label
_atom_site_fract_x
_atom_site_fract_y
_atom_site_fract_z
Si Si1 0.075764 0.394682 0.332749
Si Si2 0.703629 0.554828 0.679079
Si Si3 0.751855 0.161562 0.677267
Si Si4 0.874353 0.300658 0.823913
Si Si5 0.429871 0.415102 0.821807
Si Si6 0.926516 0.500000 0.318087
Si Si7 0.116865 0.807845 0.177321
O O1 0.101155 0.385564 0.500000
O O2 0.087342 0.347740 0.232678
O O3 0.102641 0.447235 0.275745
O O4 0.000000 0.401756 0.345316
O O5 0.699472 0.556162 0.500000
O O6 0.727303 0.500000 0.722498
O O7 0.745298 0.603033 0.721865
O O8 0.632361 0.562251 0.744449
O O9 0.748179 0.164797 0.500000
O O10 0.694408 0.191454 0.749773
O O11 0.818030 0.183203 0.735316
O O12 0.905212 0.247592 0.784711
O O13 0.867430 0.302384 0.000000
O O14 0.500000 0.433351 0.774954
O O15 0.426172 0.355758 0.793225
O O16 0.424480 0.422631 0.000000
O O17 0.927280 0.500000 0.500000
O O18 0.000000 0.500000 0.265454
O O19 0.129624 0.808694 0.000000
#
# Coordination Sequence:
#
# PCOD9494737 Si02
#       7
#    16  16  16  16  16   8  16
#     4   9  18  34  55  77 101 131 169 211 253 299
#     4   9  19  36  55  75 102 136 172 212 260 309
#     4  10  20  35  55  76  99 131 174 220 260 304
#     4  11  22  34  51  77 107 137 170 209 257 313
#     4   9  18  33  53  77 104 136 175 212 249 302
#     4   7  12  28  53  73  91 123 163 199 240 289
#     4   9  19  35  53  72 101 140 174 209 256 307
#
# _framework density 10.190084000000001
#
# number of rings (size 3 to 8) (size 9 to 14) (size 15 to 20)
#    0.000    2.692    0.000    2.308    0.000    5.538 
#    1.385    3.462    0.000    1.385    0.000    0.000 
#    0.000    0.000    0.000    0.000    0.000    0.000 
#
# Total GULP energy -289901.368326 kJ/mol
# GULP energy per Si atom -5575.026314 kJ/mol
# Density = 1.016689 g / cm^3
# Si number density = 10.190084 Si / 1000 Ang^3
#
#
#
# Elastic Constant Matrix: (Units=GPa)
#
#
# Indices 1 2 3 4 5 6 
#
# 1 20.5651 -12.3778 -0.1825 0.0000 0.0000 0.0000
# 2 -12.3778 127.6952 23.4414 0.0000 0.0000 0.0000
# 3 -0.1825 23.4414 5.6047 0.0000 0.0000 0.0000
# 4 0.0000 0.0000 0.0000 23.7995 0.0000 0.0000
# 5 0.0000 0.0000 0.0000 0.0000 23.4299 0.0000
# 6 0.0000 0.0000 0.0000 0.0000 0.0000 13.0001
#
#
#
# Elastic Compliance Matrix: (Units=1/GPa)
#
#
# Indices 1 2 3 4 5 6 
#
# 1 0.062460 0.024464 -0.100285 0.000000 0.000000 0.000000
# 2 0.024464 0.043305 -0.180323 0.000000 0.000000 0.000000
# 3 -0.100285 -0.180323 0.929345 0.000000 0.000000 0.000000
# 4 0.000000 0.000000 0.000000 0.042018 0.000000 0.000000
# 5 0.000000 0.000000 0.000000 0.000000 0.042681 0.000000
# 6 0.000000 0.000000 0.000000 0.000000 0.000000 0.076923
#
#
# Mechanical properties :
#
#
# Convention : Reuss Voigt Hill
#
# Bulk Modulus (GPa) = 1.91270 19.51413 10.71341
# Shear Modulus (GPa) = 2.65492 21.57816 12.11654
#
# Velocity S-wave (km/s) = 1.14260 3.25742 2.44094
# Velocity P-wave (km/s) = 1.63745 4.87274 3.63489
#
# Compressibility (1/GPa) = 0.52282222
#
# Stress axis : x y z
#
# Youngs Moduli (GPa) = 16.01015 23.09204 1.07603
#
# Poissons Ratio (x) = -0.56492 0.10791
# Poissons Ratio (y) = -0.39167 0.19403
# Poissons Ratio (z) = 1.60558 4.16403
#
# Static dielectric constant tensor:
#      x y z
#    x 1.740110 0.000000 0.000000 
#    y 0.000000 1.802670 0.000000 
#    z 0.000000 0.000000 1.676840 
# 
# From -- ./inp_files/12429.got.cif
#   From: 2010.05.17/outbox.ucp.g08.bks.cvg/sg65_7_cif.got.tgz:12429.got - 2010.06.11 16:39:57.
