data_PCOD9494165
_publ_section_title
;
Structure prediction by ZEFSAII (Michael W. Deem and Ramdas Pophale) SiO2 
 PCOD9494165
Probable space group: C M M M
;
_chemical_formula_sum "Si O2"
_cell_formula_units_Z 88
_cell_length_a 17.984708
_cell_length_b 9.450699
_cell_length_c 29.402969
_cell_angle_alpha 90.000000
_cell_angle_beta 90.000000
_cell_angle_gamma 90.000000
_cell_volume 4997.565655
_symmetry_space_group_name_H-M "C M M M"
_symmetry_group_IT_number 65
_symmetry_cell_setting 'orthorhombic'
loop_
_space_group_symop_operation_xyz
x,y,z
-x,-y,z
x,-y,-z
-x,y,-z
-x,-y,-z
x,y,-z
-x,y,z
x,-y,z
1/2+x,1/2+y,z
1/2-x,1/2-y,z
1/2+x,1/2-y,-z
1/2-x,1/2+y,-z
1/2-x,1/2-y,-z
1/2+x,1/2+y,-z
1/2-x,1/2+y,z
1/2+x,1/2-y,z
loop_
_atom_site_type_symbol
_atom_site_label
_atom_site_fract_x
_atom_site_fract_y
_atom_site_fract_z
Si Si1 0.909545 0.338015 0.817133
Si Si2 0.171240 0.829779 0.000000
Si Si3 0.909091 0.837630 0.269749
Si Si4 0.828003 0.330357 0.550271
Si Si5 0.410934 0.165540 0.641879
Si Si6 0.089609 0.333913 0.079139
O O1 0.887442 0.500000 0.807913
O O2 0.883889 0.237565 0.776649
O O3 0.887701 0.301660 0.868740
O O4 0.000000 0.335458 0.817046
O O5 0.250000 0.750000 0.000000
O O6 0.127192 0.771218 0.956126
O O7 0.177891 0.000000 0.000000
O O8 0.884651 0.755373 0.314949
O O9 0.000000 0.833438 0.269537
O O10 0.886105 0.000000 0.271102
O O11 0.860908 0.299912 0.500000
O O12 0.816511 0.500000 0.552422
O O13 0.750000 0.250000 0.552979
O O14 0.876892 0.289813 0.593681
O O15 0.500000 0.177896 0.639230
O O16 0.393468 0.000000 0.649454
O O17 0.108128 0.500000 0.069770
O O18 0.000000 0.323080 0.075941
#
# Coordination Sequence:
#
# PCOD9494165 Si02
#       6
#    16   8  16  16  16  16
#     4   8  14  26  46  71  98 129 161 192 232 283
#     4  12  25  38  53  73 101 137 173 208 249 298
#     4   9  16  25  40  66  99 129 156 191 234 278
#     4   9  18  32  49  68  90 119 155 194 237 283
#     4   9  17  29  46  68  94 124 157 193 233 279
#     4   9  18  34  56  80 105 132 164 205 250 294
#
# _framework density 17.608573
#
# number of rings (size 3 to 8) (size 9 to 14) (size 15 to 20)
#    0.000    2.909    0.000    2.727    0.000    5.455 
#    0.000    3.636    0.000    1.091    0.000   10.182 
#    0.000    0.000    0.000    0.000    0.000    0.000 
#
# Total GULP energy -245158.844293 kJ/mol
# GULP energy per Si atom -5571.791916 kJ/mol
# Density = 1.756849 g / cm^3
# Si number density = 17.608573 Si / 1000 Ang^3
#
#
#
# Elastic Constant Matrix: (Units=GPa)
#
#
# Indices 1 2 3 4 5 6 
#
# 1 13.8681 31.5974 35.8269 0.0000 0.0000 0.0000
# 2 31.5974 107.4043 113.0227 0.0000 0.0000 0.0000
# 3 35.8269 113.0227 185.8957 0.0000 0.0000 0.0000
# 4 0.0000 0.0000 0.0000 19.1073 0.0000 0.0000
# 5 0.0000 0.0000 0.0000 0.0000 -15.7917 0.0000
# 6 0.0000 0.0000 0.0000 0.0000 0.0000 17.2847
#
#
#
# Elastic Compliance Matrix: (Units=1/GPa)
#
#
# Indices 1 2 3 4 5 6 
#
# 1 0.223550 -0.056714 -0.008602 0.000000 0.000000 0.000000
# 2 -0.056714 0.040236 -0.013533 0.000000 0.000000 0.000000
# 3 -0.008602 -0.013533 0.015265 0.000000 0.000000 0.000000
# 4 0.000000 0.000000 0.000000 0.052336 0.000000 0.000000
# 5 0.000000 0.000000 0.000000 0.000000 -0.063325 0.000000
# 6 0.000000 0.000000 0.000000 0.000000 0.000000 0.057855
#
#
# Mechanical properties :
#
#
# Convention : Reuss Voigt Hill
#
# Bulk Modulus (GPa) = 8.24045 74.22912 41.23479
# Shear Modulus (GPa) = 9.54076 12.56813 11.05445
#
# Velocity S-wave (km/s) = 2.33024 2.67451 2.50829
# Velocity P-wave (km/s) = 3.45398 7.19611 5.64420
#
# Compressibility (1/GPa) = 0.12135253
#
# Stress axis : x y z
#
# Youngs Moduli (GPa) = 4.47328 24.85314 65.50870
#
# Poissons Ratio (x) = 1.40953 0.56351
# Poissons Ratio (y) = 0.25370 0.88653
# Poissons Ratio (z) = 0.03848 0.33634
#
# Static dielectric constant tensor:
#      x y z
#    x 1.582770 0.000000 0.000000 
#    y 0.000000 1.584730 0.000000 
#    z 0.000000 0.000000 1.612810 
# 
# From -- ./inp_files/76461.got.cif
#   From: 2010.05.17/outbox.cif.g08.bks.cpg/sg65_39_cif.got.tgz:76461.got - 2010.06.03 17:01:31.
