data_PCOD9494791
_publ_section_title
;
Structure prediction by ZEFSAII (Michael W. Deem and Ramdas Pophale) SiO2 
 PCOD9494791
Probable space group: C M M M
;
_chemical_formula_sum "Si O2"
_cell_formula_units_Z 44
_cell_length_a 15.000000
_cell_length_b 27.000000
_cell_length_c 12.000000
_cell_angle_alpha 90.000000
_cell_angle_beta 90.000000
_cell_angle_gamma 90.000000
_cell_volume 4860.000000
_symmetry_space_group_name_H-M "C M M M"
_symmetry_group_IT_number 65
_symmetry_cell_setting 'orthorhombic'
loop_
_space_group_symop_operation_xyz
x,y,z
-x,-y,z
x,-y,-z
-x,y,-z
-x,-y,-z
x,y,-z
-x,y,z
x,-y,z
1/2+x,1/2+y,z
1/2-x,1/2-y,z
1/2+x,1/2-y,-z
1/2-x,1/2+y,-z
1/2-x,1/2-y,-z
1/2+x,1/2+y,-z
1/2-x,1/2+y,z
1/2+x,1/2-y,z
loop_
_atom_site_type_symbol
_atom_site_label
_atom_site_fract_x
_atom_site_fract_y
_atom_site_fract_z
Si Si1 0.798397 0.102195 0.803718
Si Si2 0.390359 0.664949 0.000000
Si Si3 0.392047 0.144502 0.803544
Si Si4 0.606398 0.221500 0.000000
Si Si5 0.893927 0.000000 0.134880
Si Si6 0.607838 0.224914 0.624359
Si Si7 0.895213 0.166575 0.365495
O O1 0.690052 0.105691 0.814973
O O2 0.841176 0.048318 0.822426
O O3 0.832637 0.125348 0.687693
O O4 0.847201 0.137404 0.894528
O O5 0.500000 0.661045 0.000000
O O6 0.359983 0.722441 0.000000
O O7 0.500000 0.130411 0.811664
O O8 0.376640 0.174855 0.690307
O O9 0.373941 0.187028 0.895001
O O10 0.500000 0.228208 0.000000
O O11 0.000000 0.000000 0.166055
O O12 0.891209 0.000000 0.000000
O O13 0.644142 0.220889 0.500000
O O14 0.500000 0.229873 0.619010
O O15 0.635634 0.278260 0.673412
O O16 0.892491 0.166864 0.500000
O O17 0.000000 0.159277 0.333044
#
# Coordination Sequence:
#
# PCOD9494791 Si02
#       7
#    16   8  16   8   8  16  16
#     4  12  23  36  59  82 105 143 190 230 279 333
#     4  11  21  34  55  83 111 141 180 224 270 330
#     4  10  21  36  52  77 115 152 184 223 266 317
#     4   9  19  33  49  75 115 150 174 213 272 325
#     4  11  24  44  64  84 108 131 172 239 297 339
#     4   8  15  30  52  79 116 158 192 222 260 312
#     4   9  18  33  54  84 120 152 184 226 276 333
#
# _framework density 9.0534979999999994
#
# number of rings (size 3 to 8) (size 9 to 14) (size 15 to 20)
#    0.000    2.091    0.909    4.364    0.000    7.273 
#    0.000    2.727    0.000    2.182    0.000    0.000 
#    0.000    4.364    0.000    0.000    0.000    0.000 
#
# Total GULP energy -245313.464316 kJ/mol
# GULP energy per Si atom -5575.306007 kJ/mol
# Density = 0.903289 g / cm^3
# Si number density = 9.053498 Si / 1000 Ang^3
#
#
#
# Elastic Constant Matrix: (Units=GPa)
#
#
# Indices 1 2 3 4 5 6 
#
# 1 124.6218 61.1385 19.5384 0.0000 0.0000 0.0000
# 2 61.1385 112.0503 21.6101 0.0000 0.0000 0.0000
# 3 19.5384 21.6101 42.1438 0.0000 0.0000 0.0000
# 4 0.0000 0.0000 0.0000 17.5652 0.0000 0.0000
# 5 0.0000 0.0000 0.0000 0.0000 9.2901 0.0000
# 6 0.0000 0.0000 0.0000 0.0000 0.0000 31.5738
#
#
#
# Elastic Compliance Matrix: (Units=1/GPa)
#
#
# Indices 1 2 3 4 5 6 
#
# 1 0.011151 -0.005645 -0.002275 0.000000 0.000000 0.000000
# 2 -0.005645 0.012762 -0.003927 0.000000 0.000000 0.000000
# 3 -0.002275 -0.003927 0.026796 0.000000 0.000000 0.000000
# 4 0.000000 0.000000 0.000000 0.056931 0.000000 0.000000
# 5 0.000000 0.000000 0.000000 0.000000 0.107642 0.000000
# 6 0.000000 0.000000 0.000000 0.000000 0.000000 0.031672
#
#
# Mechanical properties :
#
#
# Convention : Reuss Voigt Hill
#
# Bulk Modulus (GPa) = 37.01605 53.70998 45.36302
# Shear Modulus (GPa) = 17.87932 23.45439 20.66685
#
# Velocity S-wave (km/s) = 3.14574 3.60296 3.38209
# Velocity P-wave (km/s) = 5.80358 6.85824 6.35283
#
# Compressibility (1/GPa) = 0.02701531
#
# Stress axis : x y z
#
# Youngs Moduli (GPa) = 89.68200 78.35630 37.31837
#
# Poissons Ratio (x) = 0.44235 0.08489
# Poissons Ratio (y) = 0.50629 0.14654
# Poissons Ratio (z) = 0.20400 0.30769
#
# Static dielectric constant tensor:
#      x y z
#    x 1.660560 0.000000 0.000000 
#    y 0.000000 1.605520 0.000000 
#    z 0.000000 0.000000 1.674250 
# 
# From -- ./inp_files/25216.got.cif
#   From: 2010.05.17/outbox.ucp.g08.bks.cvg/sg65_13_cif.got.tgz:25216.got - 2010.06.11 16:39:57.
