data_PCOD9494188
_publ_section_title
;
Structure prediction by ZEFSAII (Michael W. Deem and Ramdas Pophale) SiO2 
 PCOD9494188
Probable space group: C M M M
;
_chemical_formula_sum "Si O2"
_cell_formula_units_Z 64
_cell_length_a 7.313542
_cell_length_b 26.565457
_cell_length_c 17.898827
_cell_angle_alpha 90.000000
_cell_angle_beta 90.000000
_cell_angle_gamma 90.000000
_cell_volume 3477.519881
_symmetry_space_group_name_H-M "C M M M"
_symmetry_group_IT_number 65
_symmetry_cell_setting 'orthorhombic'
loop_
_space_group_symop_operation_xyz
x,y,z
-x,-y,z
x,-y,-z
-x,y,-z
-x,-y,-z
x,y,-z
-x,y,z
x,-y,z
1/2+x,1/2+y,z
1/2-x,1/2-y,z
1/2+x,1/2-y,-z
1/2-x,1/2+y,-z
1/2-x,1/2-y,-z
1/2+x,1/2+y,-z
1/2-x,1/2+y,z
1/2+x,1/2-y,z
loop_
_atom_site_type_symbol
_atom_site_label
_atom_site_fract_x
_atom_site_fract_y
_atom_site_fract_z
Si Si1 0.284688 0.939013 0.500000
Si Si2 0.723254 0.098281 0.179576
Si Si3 0.776840 0.558725 0.662779
Si Si4 0.782022 0.692634 0.914991
Si Si5 0.722653 0.000000 0.086052
O O1 0.500000 0.926599 0.500000
O O2 0.212666 0.923041 0.418903
O O3 0.270522 0.000000 0.500000
O O4 0.500000 0.098387 0.180308
O O5 0.781513 0.089696 0.264902
O O6 0.785728 0.149515 0.140340
O O7 0.778574 0.050098 0.130152
O O8 0.725030 0.500000 0.672654
O O9 0.000000 0.559066 0.661073
O O10 0.750000 0.750000 0.890572
O O11 0.000000 0.685966 0.919303
O O12 0.710932 0.687168 0.000000
O O13 0.500000 0.000000 0.085660
O O14 0.781805 0.000000 0.000000
#
# Coordination Sequence:
#
# PCOD9494188 Si02
#       5
#     8  16  16  16   8
#     4   7  10  14  22  36  59  92 121 137 159 206
#     4   9  14  20  31  48  70  93 116 144 181 220
#     4   8  11  16  25  41  66  93 116 139 171 214
#     4   9  17  28  40  54  72  95 125 158 186 212
#     4   9  14  18  26  43  68  92 110 135 178 225
#
# _framework density 18.403921
#
# number of rings (size 3 to 8) (size 9 to 14) (size 15 to 20)
#    0.000    3.500    1.250    2.250    0.000    3.000 
#    0.000    0.000    0.000    0.000    0.000    1.750 
#    0.000    5.000    0.000    0.000    0.000    7.000 
#
# Total GULP energy -178357.103371 kJ/mol
# GULP energy per Si atom -5573.659480 kJ/mol
# Density = 1.836203 g / cm^3
# Si number density = 18.403921 Si / 1000 Ang^3
#
#
#
# Elastic Constant Matrix: (Units=GPa)
#
#
# Indices 1 2 3 4 5 6 
#
# 1 72.4803 2.4012 9.6511 0.0000 0.0000 0.0000
# 2 2.4012 130.1310 110.7988 0.0000 0.0000 0.0000
# 3 9.6511 110.7988 208.8962 0.0000 0.0000 0.0000
# 4 0.0000 0.0000 0.0000 20.6619 0.0000 0.0000
# 5 0.0000 0.0000 0.0000 0.0000 -13.0308 0.0000
# 6 0.0000 0.0000 0.0000 0.0000 0.0000 -6.6182
#
#
#
# Elastic Compliance Matrix: (Units=1/GPa)
#
#
# Indices 1 2 3 4 5 6 
#
# 1 0.013902 0.000529 -0.000923 0.000000 0.000000 0.000000
# 2 0.000529 0.014033 -0.007468 0.000000 0.000000 0.000000
# 3 -0.000923 -0.007468 0.008791 0.000000 0.000000 0.000000
# 4 0.000000 0.000000 0.000000 0.048398 0.000000 0.000000
# 5 0.000000 0.000000 0.000000 0.000000 -0.076741 0.000000
# 6 0.000000 0.000000 0.000000 0.000000 0.000000 -0.151098
#
#
# Mechanical properties :
#
#
# Convention : Reuss Voigt Hill
#
# Bulk Modulus (GPa) = 47.61163 73.02328 60.31746
# Shear Modulus (GPa) = -41.66940 19.44634 -11.11153
#
# Velocity S-wave (km/s) = -4.76348 3.25413 -2.45982
# Velocity P-wave (km/s) = 2.08033 7.34053 4.97773
#
# Compressibility (1/GPa) = 0.02100327
#
# Stress axis : x y z
#
# Youngs Moduli (GPa) = 71.93092 71.26062 113.75883
#
# Poissons Ratio (x) = -0.03773 0.10501
# Poissons Ratio (y) = -0.03808 0.84950
# Poissons Ratio (z) = 0.06640 0.53214
#
# Static dielectric constant tensor:
#      x y z
#    x 1.743210 0.000000 0.000000 
#    y 0.000000 1.585730 0.000000 
#    z 0.000000 0.000000 1.660270 
# 
# From -- ./inp_files/49433.got.cif
#   From: 2010.05.17/outbox.cif.g08.bks.cpg/sg65_25_cif.got.tgz:49433.got - 2010.06.03 17:01:31.
