data_PCOD9494159
_publ_section_title
;
Structure prediction by ZEFSAII (Michael W. Deem and Ramdas Pophale) SiO2 
 PCOD9494159
Probable space group: C M M M
;
_chemical_formula_sum "Si O2"
_cell_formula_units_Z 44
_cell_length_a 7.655231
_cell_length_b 28.352939
_cell_length_c 9.825344
_cell_angle_alpha 90.000000
_cell_angle_beta 90.000000
_cell_angle_gamma 90.000000
_cell_volume 2132.574188
_symmetry_space_group_name_H-M "C M M M"
_symmetry_group_IT_number 65
_symmetry_cell_setting 'orthorhombic'
loop_
_space_group_symop_operation_xyz
x,y,z
-x,-y,z
x,-y,-z
-x,y,-z
-x,-y,-z
x,y,-z
-x,y,z
x,-y,z
1/2+x,1/2+y,z
1/2-x,1/2-y,z
1/2+x,1/2-y,-z
1/2-x,1/2+y,-z
1/2-x,1/2-y,-z
1/2+x,1/2+y,-z
1/2-x,1/2+y,z
1/2+x,1/2-y,z
loop_
_atom_site_type_symbol
_atom_site_label
_atom_site_fract_x
_atom_site_fract_y
_atom_site_fract_z
Si Si1 0.288451 0.946138 0.342099
Si Si2 0.500000 0.169427 0.000000
Si Si3 0.805946 0.149241 0.215345
Si Si4 0.707670 0.194926 0.500000
O O1 0.237802 0.937067 0.500000
O O2 0.500000 0.943206 0.337162
O O3 0.215154 0.906809 0.242275
O O4 0.239040 0.000000 0.309389
O O5 0.653682 0.166941 0.118031
O O6 0.783187 0.172142 0.363820
O O7 0.000000 0.159837 0.164276
O O8 0.500000 0.186813 0.500000
O O9 0.750000 0.250000 0.500000
#
# Coordination Sequence:
#
# PCOD9494159 Si02
#       4
#    16   4  16   8
#     4   9  17  33  61  96 132 173 222 283 339 382
#     4  12  26  46  67  90 146 192 212 274 331 412
#     4  12  24  43  69 101 134 177 228 275 335 398
#     4  12  24  46  77 105 134 164 221 288 332 389
#
# _framework density 20.632344
#
# number of rings (size 3 to 8) (size 9 to 14) (size 15 to 20)
#    0.000    1.091    5.455    3.273    0.000    0.727 
#    0.000    4.545    0.000    2.182    0.000    0.000 
#    0.000    0.000    0.000    0.000    0.000    0.000 
#
# Total GULP energy -122508.343938 kJ/mol
# GULP energy per Si atom -5568.561088 kJ/mol
# Density = 2.058538 g / cm^3
# Si number density = 20.632344 Si / 1000 Ang^3
#
#
#
# Elastic Constant Matrix: (Units=GPa)
#
#
# Indices 1 2 3 4 5 6 
#
# 1 184.0264 4.3835 53.2929 0.0000 0.0000 0.0000
# 2 4.3835 57.0988 19.4675 0.0000 0.0000 0.0000
# 3 53.2929 19.4675 126.0902 0.0000 0.0000 0.0000
# 4 0.0000 0.0000 0.0000 17.0819 0.0000 0.0000
# 5 0.0000 0.0000 0.0000 0.0000 -21.9933 0.0000
# 6 0.0000 0.0000 0.0000 0.0000 0.0000 23.9222
#
#
#
# Elastic Compliance Matrix: (Units=1/GPa)
#
#
# Indices 1 2 3 4 5 6 
#
# 1 0.006202 0.000441 -0.002690 0.000000 0.000000 0.000000
# 2 0.000441 0.018518 -0.003045 0.000000 0.000000 0.000000
# 3 -0.002690 -0.003045 0.009538 0.000000 0.000000 0.000000
# 4 0.000000 0.000000 0.000000 0.058542 0.000000 0.000000
# 5 0.000000 0.000000 0.000000 0.000000 -0.045468 0.000000
# 6 0.000000 0.000000 0.000000 0.000000 0.000000 0.041802
#
#
# Mechanical properties :
#
#
# Convention : Reuss Voigt Hill
#
# Bulk Modulus (GPa) = 42.24770 57.94481 50.09625
# Shear Modulus (GPa) = 46.46340 23.14026 34.80183
#
# Velocity S-wave (km/s) = 4.75064 3.35259 4.11148
# Velocity P-wave (km/s) = 7.11423 6.56749 6.84632
#
# Compressibility (1/GPa) = 0.02366993
#
# Stress axis : x y z
#
# Youngs Moduli (GPa) = 161.22847 54.00167 104.84631
#
# Poissons Ratio (x) = -0.02381 0.28199
# Poissons Ratio (y) = -0.07107 0.31930
# Poissons Ratio (z) = 0.43363 0.16445
#
# Static dielectric constant tensor:
#      x y z
#    x 1.750140 0.000000 0.000000 
#    y 0.000000 1.756950 0.000000 
#    z 0.000000 0.000000 1.688230 
# 
# From -- ./inp_files/2888.got.cif
#   From: 2010.05.17/outbox.cif.g08.bks.cpg/sg65_2_cif.got.tgz:2888.got - 2010.06.03 17:01:31.
