data_PCOD9494009
_publ_section_title
;
Structure prediction by ZEFSAII (Michael W. Deem and Ramdas Pophale) SiO2 
 PCOD9494009
Probable space group: C M M M
;
_chemical_formula_sum "Si O2"
_cell_formula_units_Z 72
_cell_length_a 18.577275
_cell_length_b 7.539636
_cell_length_c 25.979815
_cell_angle_alpha 90.000000
_cell_angle_beta 90.000000
_cell_angle_gamma 90.000000
_cell_volume 3638.885946
_symmetry_space_group_name_H-M "C M M M"
_symmetry_group_IT_number 65
_symmetry_cell_setting 'orthorhombic'
loop_
_space_group_symop_operation_xyz
x,y,z
-x,-y,z
x,-y,-z
-x,y,-z
-x,-y,-z
x,y,-z
-x,y,z
x,-y,z
1/2+x,1/2+y,z
1/2-x,1/2-y,z
1/2+x,1/2-y,-z
1/2-x,1/2+y,-z
1/2-x,1/2-y,-z
1/2+x,1/2+y,-z
1/2-x,1/2+y,z
1/2+x,1/2-y,z
loop_
_atom_site_type_symbol
_atom_site_label
_atom_site_fract_x
_atom_site_fract_y
_atom_site_fract_z
Si Si1 0.417685 0.288305 0.769813
Si Si2 0.081867 0.287330 0.344157
Si Si3 0.334946 0.288460 0.872175
Si Si4 0.334623 0.212849 0.556358
Si Si5 0.915135 0.500000 0.938504
O O1 0.500000 0.217327 0.773549
O O2 0.422414 0.500000 0.773787
O O3 0.388392 0.249028 0.712803
O O4 0.368042 0.230644 0.816945
O O5 0.079090 0.500000 0.348885
O O6 0.125193 0.217834 0.393201
O O7 0.000000 0.218963 0.344934
O O8 0.346348 0.500000 0.878889
O O9 0.250000 0.250000 0.873821
O O10 0.376440 0.171861 0.914300
O O11 0.359199 0.279473 0.500000
O O12 0.250000 0.250000 0.560576
O O13 0.343892 0.000000 0.555667
O O14 0.000000 0.500000 0.925260
O O15 0.908222 0.500000 0.000000
#
# Coordination Sequence:
#
# PCOD9494009 Si02
#       5
#    16  16  16  16   8
#     4   9  19  35  56  81 113 152 192 239 294 355
#     4   9  18  31  49  75 102 136 181 227 283 343
#     4  11  23  42  65  97 132 169 212 261 316 370
#     4   9  18  32  48  67  95 131 174 223 278 339
#     4  11  26  46  70 100 131 171 218 260 311 372
#
# _framework density 19.786273999999999
#
# number of rings (size 3 to 8) (size 9 to 14) (size 15 to 20)
#    0.000    2.333    1.111    0.667    1.556    4.444 
#    0.000    7.778    0.000    0.000    0.000    6.222 
#    0.000    0.000    0.000    0.000    0.000    0.000 
#
# Total GULP energy -200868.529125 kJ/mol
# GULP energy per Si atom -5579.681365 kJ/mol
# Density = 1.974124 g / cm^3
# Si number density = 19.786274 Si / 1000 Ang^3
#
#
#
# Elastic Constant Matrix: (Units=GPa)
#
#
# Indices 1 2 3 4 5 6 
#
# 1 104.4833 27.5510 94.0178 0.0000 0.0000 0.0000
# 2 27.5510 85.7915 40.0338 0.0000 0.0000 0.0000
# 3 94.0178 40.0338 177.2940 0.0000 0.0000 0.0000
# 4 0.0000 0.0000 0.0000 136.2728 0.0000 0.0000
# 5 0.0000 0.0000 0.0000 0.0000 -862.8570 0.0000
# 6 0.0000 0.0000 0.0000 0.0000 0.0000 12.5219
#
#
#
# Elastic Compliance Matrix: (Units=1/GPa)
#
#
# Indices 1 2 3 4 5 6 
#
# 1 0.018482 -0.001522 -0.009457 0.000000 0.000000 0.000000
# 2 -0.001522 0.013154 -0.002163 0.000000 0.000000 0.000000
# 3 -0.009457 -0.002163 0.011144 0.000000 0.000000 0.000000
# 4 0.000000 0.000000 0.000000 0.007338 0.000000 0.000000
# 5 0.000000 0.000000 0.000000 0.000000 -0.001159 0.000000
# 6 0.000000 0.000000 0.000000 0.000000 0.000000 0.079860
#
#
# Mechanical properties :
#
#
# Convention : Reuss Voigt Hill
#
# Bulk Modulus (GPa) = 60.62306 76.75267 68.68786
# Shear Modulus (GPa) = 31.13254 -129.08135 -48.97440
#
# Velocity S-wave (km/s) = 3.97097 -8.08576 -4.98051
# Velocity P-wave (km/s) = 7.19237 6.94964 1.31009
#
# Compressibility (1/GPa) = 0.01649537
#
# Stress axis : x y z
#
# Youngs Moduli (GPa) = 54.10569 76.02021 89.73482
#
# Poissons Ratio (x) = 0.11572 0.84865
# Poissons Ratio (y) = 0.08236 0.19410
# Poissons Ratio (z) = 0.51170 0.16444
#
# Static dielectric constant tensor:
#      x y z
#    x 1.670970 0.000000 0.000000 
#    y 0.000000 1.754240 0.000000 
#    z 0.000000 0.000000 1.702700 
# 
# From -- ./inp_files/70326.got.cif
#   From: 2010.05.17/outbox.cif.g08.bks.cpg/sg65_36_cif.got.tgz:70326.got - 2010.06.03 17:01:31.
