data_PCOD9494870
_publ_section_title
;
Structure prediction by ZEFSAII (Michael W. Deem and Ramdas Pophale) SiO2 
 PCOD9494870
Probable space group: C M M M
;
_chemical_formula_sum "Si O2"
_cell_formula_units_Z 36
_cell_length_a 15.000000
_cell_length_b 9.000000
_cell_length_c 27.000000
_cell_angle_alpha 90.000000
_cell_angle_beta 90.000000
_cell_angle_gamma 90.000000
_cell_volume 3645.000000
_symmetry_space_group_name_H-M "C M M M"
_symmetry_group_IT_number 65
_symmetry_cell_setting 'orthorhombic'
loop_
_space_group_symop_operation_xyz
x,y,z
-x,-y,z
x,-y,-z
-x,y,-z
-x,-y,-z
x,y,-z
-x,y,z
x,-y,z
1/2+x,1/2+y,z
1/2-x,1/2-y,z
1/2+x,1/2-y,-z
1/2-x,1/2+y,-z
1/2-x,1/2-y,-z
1/2+x,1/2+y,-z
1/2-x,1/2+y,z
1/2+x,1/2-y,z
loop_
_atom_site_type_symbol
_atom_site_label
_atom_site_fract_x
_atom_site_fract_y
_atom_site_fract_z
Si Si1 0.000000 0.319457 0.442753
Si Si2 0.392222 0.672995 0.735031
Si Si3 0.342504 0.178084 0.631534
Si Si4 0.391759 0.325397 0.844468
Si Si5 0.108487 0.674513 0.945681
O O1 0.084104 0.275655 0.408981
O O2 0.000000 0.500000 0.444809
O O3 0.000000 0.267088 0.500000
O O4 0.500000 0.673827 0.735482
O O5 0.363934 0.500000 0.729915
O O6 0.363109 0.764139 0.687079
O O7 0.362783 0.729423 0.789709
O O8 0.250000 0.250000 0.616402
O O9 0.338713 0.000000 0.632669
O O10 0.500000 0.311473 0.844848
O O11 0.371047 0.500000 0.846600
O O12 0.359143 0.249480 0.894964
O O13 0.129975 0.500000 0.943921
O O14 0.000000 0.686521 0.945493
O O15 0.137632 0.733931 0.000000
#
# Coordination Sequence:
#
# PCOD9494870 Si02
#       5
#     8  16  16  16  16
#     4   9  20  40  63  87 119 155 190 231 276 325
#     4   9  17  31  51  74 105 141 179 229 283 333
#     4  11  22  37  59  87 116 151 192 232 279 332
#     4   8  14  23  36  57  84 120 165 212 267 325
#     4   8  13  20  29  45  75 116 161 211 265 318
#
# _framework density 9.8765429999999999
#
# number of rings (size 3 to 8) (size 9 to 14) (size 15 to 20)
#    0.000    3.000    1.111    2.667    0.000    1.778 
#    0.000    4.444    0.000    4.667    0.000    0.000 
#    0.000    0.889    0.000    2.889    0.000    6.444 
#
# Total GULP energy -200670.502459 kJ/mol
# GULP energy per Si atom -5574.180624 kJ/mol
# Density = 0.985406 g / cm^3
# Si number density = 9.876543 Si / 1000 Ang^3
#
#
#
# Elastic Constant Matrix: (Units=GPa)
#
#
# Indices 1 2 3 4 5 6 
#
# 1 79.5906 27.8565 65.3119 0.0000 0.0000 0.0000
# 2 27.8565 42.5162 65.4121 0.0000 0.0000 0.0000
# 3 65.3119 65.4121 238.1494 0.0000 0.0000 0.0000
# 4 0.0000 0.0000 0.0000 21.8829 0.0000 0.0000
# 5 0.0000 0.0000 0.0000 0.0000 -16.2270 0.0000
# 6 0.0000 0.0000 0.0000 0.0000 0.0000 12.8032
#
#
#
# Elastic Compliance Matrix: (Units=1/GPa)
#
#
# Indices 1 2 3 4 5 6 
#
# 1 0.017339 -0.007005 -0.002831 0.000000 0.000000 0.000000
# 2 -0.007005 0.043564 -0.010045 0.000000 0.000000 0.000000
# 3 -0.002831 -0.010045 0.007734 0.000000 0.000000 0.000000
# 4 0.000000 0.000000 0.000000 0.045698 0.000000 0.000000
# 5 0.000000 0.000000 0.000000 0.000000 -0.061626 0.000000
# 6 0.000000 0.000000 0.000000 0.000000 0.000000 0.078106
#
#
# Mechanical properties :
#
#
# Convention : Reuss Voigt Hill
#
# Bulk Modulus (GPa) = 34.63043 75.26858 54.94951
# Shear Modulus (GPa) = 27.74672 17.13685 22.44178
#
# Velocity S-wave (km/s) = 3.75197 2.94862 3.37429
# Velocity P-wave (km/s) = 6.02822 7.05549 6.56199
#
# Compressibility (1/GPa) = 0.02887634
#
# Stress axis : x y z
#
# Youngs Moduli (GPa) = 57.67261 22.95496 129.29185
#
# Poissons Ratio (x) = 0.16079 0.36606
# Poissons Ratio (y) = 0.40398 1.29868
# Poissons Ratio (z) = 0.16329 0.23057
#
# Static dielectric constant tensor:
#      x y z
#    x 1.741150 0.000000 0.000000 
#    y 0.000000 1.672440 0.000000 
#    z 0.000000 0.000000 1.706670 
# 
# From -- ./inp_files/74595.got.cif
#   From: 2010.05.17/outbox.ucp.g08.bks.cvg/sg65_38_cif.got.tgz:74595.got - 2010.06.11 16:39:57.
