data_PCOD9494663
_publ_section_title
;
Structure prediction by ZEFSAII (Michael W. Deem and Ramdas Pophale) SiO2 
 PCOD9494663
Probable space group: C M M M
;
_chemical_formula_sum "Si O2"
_cell_formula_units_Z 44
_cell_length_a 9.000000
_cell_length_b 18.000000
_cell_length_c 30.000000
_cell_angle_alpha 90.000000
_cell_angle_beta 90.000000
_cell_angle_gamma 90.000000
_cell_volume 4860.000000
_symmetry_space_group_name_H-M "C M M M"
_symmetry_group_IT_number 65
_symmetry_cell_setting 'orthorhombic'
loop_
_space_group_symop_operation_xyz
x,y,z
-x,-y,z
x,-y,-z
-x,y,-z
-x,-y,-z
x,y,-z
-x,y,z
x,-y,z
1/2+x,1/2+y,z
1/2-x,1/2-y,z
1/2+x,1/2-y,-z
1/2-x,1/2+y,-z
1/2-x,1/2-y,-z
1/2+x,1/2+y,-z
1/2-x,1/2+y,z
1/2+x,1/2-y,z
loop_
_atom_site_type_symbol
_atom_site_label
_atom_site_fract_x
_atom_site_fract_y
_atom_site_fract_z
Si Si1 0.326292 0.088794 0.634306
Si Si2 0.177953 0.831487 0.817004
Si Si3 0.174446 0.411145 0.000000
Si Si4 0.679318 0.332533 0.915376
Si Si5 0.822085 0.831649 0.550824
Si Si6 0.179180 0.167567 0.718724
O O1 0.500000 0.111194 0.634426
O O2 0.248501 0.119048 0.589630
O O3 0.246253 0.121612 0.677947
O O4 0.317872 0.000000 0.635166
O O5 0.250000 0.750000 0.816996
O O6 0.216164 0.864605 0.865668
O O7 0.216318 0.864731 0.768371
O O8 0.000000 0.823522 0.816992
O O9 0.252835 0.378846 0.955912
O O10 0.185039 0.500000 0.000000
O O11 0.000000 0.389944 0.000000
O O12 0.500000 0.328198 0.919471
O O13 0.750000 0.250000 0.917576
O O14 0.792747 0.858589 0.500000
O O15 0.750000 0.750000 0.554460
O O16 0.000000 0.826835 0.556447
O O17 0.250000 0.250000 0.716645
O O18 0.000000 0.172002 0.714779
#
# Coordination Sequence:
#
# PCOD9494663 Si02
#       6
#    16  16   8  16  16  16
#     4  11  24  39  54  76 109 147 184 221 263 312
#     4   8  16  30  51  80 107 133 168 213 262 310
#     4  11  24  39  52  71 103 141 180 219 262 313
#     4  10  19  34  57  82 107 135 172 216 263 315
#     4  10  21  38  61  86 110 138 175 219 266 317
#     4  10  19  34  57  82 109 140 176 218 263 312
#
# _framework density 9.0534979999999994
#
# number of rings (size 3 to 8) (size 9 to 14) (size 15 to 20)
#    0.000    2.091    0.000    3.273    0.000    5.091 
#    0.000    2.727    0.000    5.455    0.000    0.000 
#    0.000    0.000    0.000    0.000    0.000    0.000 
#
# Total GULP energy -245398.564119 kJ/mol
# GULP energy per Si atom -5577.240094 kJ/mol
# Density = 0.903289 g / cm^3
# Si number density = 9.053498 Si / 1000 Ang^3
#
#
#
# Elastic Constant Matrix: (Units=GPa)
#
#
# Indices 1 2 3 4 5 6 
#
# 1 108.0063 35.9335 88.1947 0.0000 0.0000 0.0000
# 2 35.9335 42.6867 61.0443 0.0000 0.0000 0.0000
# 3 88.1947 61.0443 219.6838 0.0000 0.0000 0.0000
# 4 0.0000 0.0000 0.0000 -4.0925 0.0000 0.0000
# 5 0.0000 0.0000 0.0000 0.0000 24.1386 0.0000
# 6 0.0000 0.0000 0.0000 0.0000 0.0000 25.9421
#
#
#
# Elastic Compliance Matrix: (Units=1/GPa)
#
#
# Indices 1 2 3 4 5 6 
#
# 1 0.014810 -0.006578 -0.004118 0.000000 0.000000 0.000000
# 2 -0.006578 0.041796 -0.008973 0.000000 0.000000 0.000000
# 3 -0.004118 -0.008973 0.008698 0.000000 0.000000 0.000000
# 4 0.000000 0.000000 0.000000 -0.244347 0.000000 0.000000
# 5 0.000000 0.000000 0.000000 0.000000 0.041427 0.000000
# 6 0.000000 0.000000 0.000000 0.000000 0.000000 0.038547
#
#
# Mechanical properties :
#
#
# Convention : Reuss Voigt Hill
#
# Bulk Modulus (GPa) = 38.51165 82.30241 60.40703
# Shear Modulus (GPa) = -97.89493 21.54459 -38.17517
#
# Velocity S-wave (km/s) = -7.36085 3.45316 -4.59662
# Velocity P-wave (km/s) = 7.13636 7.83908 2.29385
#
# Compressibility (1/GPa) = 0.02596617
#
# Stress axis : x y z
#
# Youngs Moduli (GPa) = 67.52384 23.92569 114.96369
#
# Poissons Ratio (x) = 0.15739 0.47337
# Poissons Ratio (y) = 0.44420 1.03158
# Poissons Ratio (z) = 0.27803 0.21469
#
# Static dielectric constant tensor:
#      x y z
#    x 1.603850 0.000000 0.000000 
#    y 0.000000 1.579130 0.000000 
#    z 0.000000 0.000000 1.656460 
# 
# From -- ./inp_files/76639.got.cif
#   From: 2010.05.17/outbox.ucp.g08.bks.cvg/sg65_39_cif.got.tgz:76639.got - 2010.06.11 16:39:57.
