data_PCOD9494163
_publ_section_title
;
Structure prediction by ZEFSAII (Michael W. Deem and Ramdas Pophale) SiO2 
 PCOD9494163
Probable space group: C M M M
;
_chemical_formula_sum "Si O2"
_cell_formula_units_Z 64
_cell_length_a 18.136031
_cell_length_b 8.202078
_cell_length_c 23.199255
_cell_angle_alpha 90.000000
_cell_angle_beta 90.000000
_cell_angle_gamma 90.000000
_cell_volume 3450.962047
_symmetry_space_group_name_H-M "C M M M"
_symmetry_group_IT_number 65
_symmetry_cell_setting 'orthorhombic'
loop_
_space_group_symop_operation_xyz
x,y,z
-x,-y,z
x,-y,-z
-x,y,-z
-x,-y,-z
x,y,-z
-x,y,z
x,-y,z
1/2+x,1/2+y,z
1/2-x,1/2-y,z
1/2+x,1/2-y,-z
1/2-x,1/2+y,-z
1/2-x,1/2-y,-z
1/2+x,1/2+y,-z
1/2-x,1/2+y,z
1/2+x,1/2-y,z
loop_
_atom_site_type_symbol
_atom_site_label
_atom_site_fract_x
_atom_site_fract_y
_atom_site_fract_z
Si Si1 0.910039 0.680661 0.862632
Si Si2 0.084256 0.196631 0.385547
Si Si3 0.090027 0.000000 0.066672
Si Si4 0.333519 0.807109 0.500000
Si Si5 0.910172 0.809749 0.260163
O O1 0.886621 0.500000 0.881996
O O2 0.885994 0.834940 0.900754
O O3 0.887502 0.711410 0.796281
O O4 0.000000 0.682427 0.863525
O O5 0.128220 0.244448 0.441915
O O6 0.114600 0.251542 0.323088
O O7 0.000000 0.255456 0.391630
O O8 0.082169 0.000000 0.382024
O O9 0.000000 0.000000 0.068388
O O10 0.112202 0.000000 0.000000
O O11 0.250000 0.750000 0.500000
O O12 0.337561 0.000000 0.500000
O O13 0.000000 0.806437 0.262405
O O14 0.889554 0.000000 0.252486
#
# Coordination Sequence:
#
# PCOD9494163 Si02
#       5
#    16  16   8   8  16
#     4   9  15  22  34  51  73 103 141 187 232 273
#     4   9  18  33  54  76  97 122 155 199 249 297
#     4   9  16  24  32  44  70 107 147 187 225 276
#     4  12  25  38  51  67  95 131 165 202 241 300
#     4   8  13  24  42  62  84 109 138 181 235 283
#
# _framework density 18.545553000000002
#
# number of rings (size 3 to 8) (size 9 to 14) (size 15 to 20)
#    0.000    2.875    1.250    3.000    0.000    3.500 
#    0.000    5.000    0.000    0.000    0.000    0.000 
#    0.000    0.000    0.000    0.000    0.000    1.250 
#
# Total GULP energy -178275.873468 kJ/mol
# GULP energy per Si atom -5571.121046 kJ/mol
# Density = 1.850334 g / cm^3
# Si number density = 18.545553 Si / 1000 Ang^3
#
#
#
# Elastic Constant Matrix: (Units=GPa)
#
#
# Indices 1 2 3 4 5 6 
#
# 1 15.1684 10.5855 25.5878 0.0000 0.0000 0.0000
# 2 10.5855 110.1908 78.5382 0.0000 0.0000 0.0000
# 3 25.5878 78.5382 172.2715 0.0000 0.0000 0.0000
# 4 0.0000 0.0000 0.0000 5.3574 0.0000 0.0000
# 5 0.0000 0.0000 0.0000 0.0000 -5.8662 0.0000
# 6 0.0000 0.0000 0.0000 0.0000 0.0000 10.1829
#
#
#
# Elastic Compliance Matrix: (Units=1/GPa)
#
#
# Indices 1 2 3 4 5 6 
#
# 1 0.088089 0.001279 -0.013667 0.000000 0.000000 0.000000
# 2 0.001279 0.013462 -0.006327 0.000000 0.000000 0.000000
# 3 -0.013667 -0.006327 0.010719 0.000000 0.000000 0.000000
# 4 0.000000 0.000000 0.000000 0.186658 0.000000 0.000000
# 5 0.000000 0.000000 0.000000 0.000000 -0.170469 0.000000
# 6 0.000000 0.000000 0.000000 0.000000 0.000000 0.098204
#
#
# Mechanical properties :
#
#
# Convention : Reuss Voigt Hill
#
# Bulk Modulus (GPa) = 13.36190 58.56152 35.96171
# Shear Modulus (GPa) = 17.29858 14.12945 15.71401
#
# Velocity S-wave (km/s) = 3.05743 2.76321 2.91403
# Velocity P-wave (km/s) = 4.43671 6.46731 5.54574
#
# Compressibility (1/GPa) = 0.07483967
#
# Stress axis : x y z
#
# Youngs Moduli (GPa) = 11.35214 74.28282 93.28902
#
# Poissons Ratio (x) = -0.09500 1.27499
# Poissons Ratio (y) = -0.01452 0.59027
# Poissons Ratio (z) = 0.15515 0.47001
#
# Static dielectric constant tensor:
#      x y z
#    x 1.600430 0.000000 0.000000 
#    y 0.000000 1.656740 0.000000 
#    z 0.000000 0.000000 1.669520 
# 
# From -- ./inp_files/63250.got.cif
#   From: 2010.05.17/outbox.cif.g08.bks.cpg/sg65_32_cif.got.tgz:63250.got - 2010.06.03 17:01:31.
