data_PCOD9494657
_publ_section_title
;
Structure prediction by ZEFSAII (Michael W. Deem and Ramdas Pophale) SiO2 
 PCOD9494657
Probable space group: C M M M
;
_chemical_formula_sum "Si O2"
_cell_formula_units_Z 56
_cell_length_a 15.000000
_cell_length_b 27.000000
_cell_length_c 15.000000
_cell_angle_alpha 90.000000
_cell_angle_beta 90.000000
_cell_angle_gamma 90.000000
_cell_volume 6075.000000
_symmetry_space_group_name_H-M "C M M M"
_symmetry_group_IT_number 65
_symmetry_cell_setting 'orthorhombic'
loop_
_space_group_symop_operation_xyz
x,y,z
-x,-y,z
x,-y,-z
-x,y,-z
-x,-y,-z
x,y,-z
-x,y,z
x,-y,z
1/2+x,1/2+y,z
1/2-x,1/2-y,z
1/2+x,1/2-y,-z
1/2-x,1/2+y,-z
1/2-x,1/2-y,-z
1/2+x,1/2+y,-z
1/2-x,1/2+y,z
1/2+x,1/2-y,z
loop_
_atom_site_type_symbol
_atom_site_label
_atom_site_fract_x
_atom_site_fract_y
_atom_site_fract_z
Si Si1 0.397445 0.627674 0.701632
Si Si2 0.396650 0.764544 0.793834
Si Si3 0.392885 0.267413 0.603649
Si Si4 0.348424 0.332387 0.104337
Si Si5 0.602864 0.058833 0.255062
Si Si6 0.244919 0.059669 0.394841
Si Si7 0.643825 0.136033 0.897205
O O1 0.500000 0.614886 0.684462
O O2 0.376817 0.677731 0.644659
O O3 0.388514 0.638506 0.808600
O O4 0.332887 0.586316 0.661122
O O5 0.500000 0.747756 0.788704
O O6 0.362806 0.765743 0.690281
O O7 0.349979 0.723876 0.857497
O O8 0.393774 0.816888 0.843069
O O9 0.359768 0.261468 0.500000
O O10 0.500000 0.260698 0.597161
O O11 0.248918 0.353076 0.098439
O O12 0.384003 0.334246 0.000000
O O13 0.500000 0.068971 0.277227
O O14 0.665842 0.072214 0.338615
O O15 0.626218 0.088878 0.165459
O O16 0.613180 0.000000 0.239335
O O17 0.247257 0.074308 0.500000
O O18 0.234431 0.000000 0.392866
O O19 0.611419 0.132064 0.000000
#
# Coordination Sequence:
#
# PCOD9494657 Si02
#       7
#    16  16  16  16  16  16  16
#     4  10  19  33  57  86 117 153 192 236 283 339
#     4  10  20  32  51  81 117 154 193 238 284 338
#     4   8  15  29  49  74 108 151 191 224 266 326
#     4  10  20  35  55  80 114 159 199 233 280 341
#     4  10  22  41  63  86 113 147 191 242 295 350
#     4  10  21  38  60  86 116 148 187 238 293 348
#     4  11  22  37  58  83 113 150 192 244 300 347
#
# _framework density 9.2181069999999998
#
# number of rings (size 3 to 8) (size 9 to 14) (size 15 to 20)
#    0.000    2.143    1.429    3.000    0.000    5.714 
#    0.000    3.571    0.000    3.857    0.000    1.000 
#    0.000    0.000    0.000    0.000    0.000    0.000 
#
# Total GULP energy -311989.675084 kJ/mol
# GULP energy per Si atom -5571.244198 kJ/mol
# Density = 0.919713 g / cm^3
# Si number density = 9.218107 Si / 1000 Ang^3
#
#
#
# Elastic Constant Matrix: (Units=GPa)
#
#
# Indices 1 2 3 4 5 6 
#
# 1 85.9663 31.4612 45.2810 0.0000 0.0000 0.0000
# 2 31.4612 46.9264 51.7487 0.0000 0.0000 0.0000
# 3 45.2810 51.7487 216.0680 0.0000 0.0000 0.0000
# 4 0.0000 0.0000 0.0000 33.2915 0.0000 0.0000
# 5 0.0000 0.0000 0.0000 0.0000 24.7072 0.0000
# 6 0.0000 0.0000 0.0000 0.0000 0.0000 22.5306
#
#
#
# Elastic Compliance Matrix: (Units=1/GPa)
#
#
# Indices 1 2 3 4 5 6 
#
# 1 0.015584 -0.009304 -0.001038 0.000000 0.000000 0.000000
# 2 -0.009304 0.034513 -0.006316 0.000000 0.000000 0.000000
# 3 -0.001038 -0.006316 0.006358 0.000000 0.000000 0.000000
# 4 0.000000 0.000000 0.000000 0.030038 0.000000 0.000000
# 5 0.000000 0.000000 0.000000 0.000000 0.040474 0.000000
# 6 0.000000 0.000000 0.000000 0.000000 0.000000 0.044384
#
#
# Mechanical properties :
#
#
# Convention : Reuss Voigt Hill
#
# Bulk Modulus (GPa) = 43.21527 67.32697 55.27112
# Shear Modulus (GPa) = 23.54281 30.80385 27.17333
#
# Velocity S-wave (km/s) = 3.57737 4.09202 3.84332
# Velocity P-wave (km/s) = 6.36826 7.67622 7.05263
#
# Compressibility (1/GPa) = 0.02313997
#
# Stress axis : x y z
#
# Youngs Moduli (GPa) = 64.16860 28.97485 157.27381
#
# Poissons Ratio (x) = 0.26958 0.16319
# Poissons Ratio (y) = 0.59701 0.99335
# Poissons Ratio (z) = 0.06658 0.18301
#
# Static dielectric constant tensor:
#      x y z
#    x 1.683690 0.000000 0.000000 
#    y 0.000000 1.633490 0.000000 
#    z 0.000000 0.000000 1.648930 
# 
# From -- ./inp_files/41082.got.cif
#   From: 2010.05.17/outbox.ucp.g08.bks.cvg/sg65_21_cif.got.tgz:41082.got - 2010.06.11 16:39:57.
