data_PCOD9494856
_publ_section_title
;
Structure prediction by ZEFSAII (Michael W. Deem and Ramdas Pophale) SiO2 
 PCOD9494856
Probable space group: C M M M
;
_chemical_formula_sum "Si O2"
_cell_formula_units_Z 60
_cell_length_a 21.000000
_cell_length_b 18.000000
_cell_length_c 18.000000
_cell_angle_alpha 90.000000
_cell_angle_beta 90.000000
_cell_angle_gamma 90.000000
_cell_volume 6804.000000
_symmetry_space_group_name_H-M "C M M M"
_symmetry_group_IT_number 65
_symmetry_cell_setting 'orthorhombic'
loop_
_space_group_symop_operation_xyz
x,y,z
-x,-y,z
x,-y,-z
-x,y,-z
-x,-y,-z
x,y,-z
-x,y,z
x,-y,z
1/2+x,1/2+y,z
1/2-x,1/2-y,z
1/2+x,1/2-y,-z
1/2-x,1/2+y,-z
1/2-x,1/2-y,-z
1/2+x,1/2+y,-z
1/2-x,1/2+y,z
1/2+x,1/2-y,z
loop_
_atom_site_type_symbol
_atom_site_label
_atom_site_fract_x
_atom_site_fract_y
_atom_site_fract_z
Si Si1 0.309884 0.194876 0.194434
Si Si2 0.260209 0.917731 0.088507
Si Si3 0.130729 0.151209 0.652579
Si Si4 0.681019 0.209742 0.418645
Si Si5 0.430285 0.301027 0.794798
Si Si6 0.728832 0.912453 0.324045
Si Si7 0.111259 0.084947 0.911488
Si Si8 0.074140 0.911171 0.500000
O O1 0.250000 0.250000 0.205829
O O2 0.300308 0.150548 0.118279
O O3 0.374150 0.241241 0.197782
O O4 0.302313 0.130479 0.255288
O O5 0.186056 0.907592 0.110353
O O6 0.280197 0.000000 0.115534
O O7 0.261490 0.919201 0.000000
O O8 0.142900 0.238876 0.637841
O O9 0.084236 0.148641 0.722285
O O10 0.197023 0.111334 0.672579
O O11 0.106089 0.118777 0.575106
O O12 0.651960 0.213836 0.500000
O O13 0.750000 0.250000 0.420903
O O14 0.694724 0.126402 0.394024
O O15 0.500000 0.267003 0.788167
O O16 0.426257 0.354955 0.865265
O O17 0.722740 0.000000 0.321246
O O18 0.092118 0.000000 0.895562
O O19 0.106475 0.095808 0.000000
O O20 0.000000 0.890122 0.500000
O O21 0.079288 0.000000 0.500000
#
# Coordination Sequence:
#
# PCOD9494856 Si02
#       8
#    16  16  16  16  16  16  16   8
#     4  12  20  37  57  81 115 148 189 236 286 335
#     4   9  18  33  58  89 114 143 186 234 284 337
#     4  11  20  39  57  80 112 150 191 233 277 334
#     4   9  17  32  54  79 110 140 177 224 277 333
#     4  12  25  38  57  83 114 152 196 235 277 337
#     4  11  21  33  57  87 112 143 184 238 292 336
#     4   9  19  37  59  85 118 152 186 227 278 334
#     4  11  24  38  53  80 119 161 197 228 273 341
#
# _framework density 8.8183419999999995
#
# number of rings (size 3 to 8) (size 9 to 14) (size 15 to 20)
#    0.000    1.533    4.667    2.400    0.933    3.733 
#    0.000    0.667    0.000    1.600    0.000    0.933 
#    0.000    1.600    0.000    0.000    0.000    0.000 
#
# Total GULP energy -334618.493750 kJ/mol
# GULP energy per Si atom -5576.974896 kJ/mol
# Density = 0.879827 g / cm^3
# Si number density = 8.818342 Si / 1000 Ang^3
#
#
#
# Elastic Constant Matrix: (Units=GPa)
#
#
# Indices 1 2 3 4 5 6 
#
# 1 71.9746 37.0944 27.0711 0.0000 0.0000 0.0000
# 2 37.0944 112.7210 39.4075 0.0000 0.0000 0.0000
# 3 27.0711 39.4075 52.1538 0.0000 0.0000 0.0000
# 4 0.0000 0.0000 0.0000 24.5238 0.0000 0.0000
# 5 0.0000 0.0000 0.0000 0.0000 -3.3889 0.0000
# 6 0.0000 0.0000 0.0000 0.0000 0.0000 -1.3385
#
#
#
# Elastic Compliance Matrix: (Units=1/GPa)
#
#
# Indices 1 2 3 4 5 6 
#
# 1 0.018320 -0.003675 -0.006732 0.000000 0.000000 0.000000
# 2 -0.003675 0.012794 -0.007759 0.000000 0.000000 0.000000
# 3 -0.006732 -0.007759 0.028531 0.000000 0.000000 0.000000
# 4 0.000000 0.000000 0.000000 0.040777 0.000000 0.000000
# 5 0.000000 0.000000 0.000000 0.000000 -0.295081 0.000000
# 6 0.000000 0.000000 0.000000 0.000000 0.000000 -0.747079
#
#
# Mechanical properties :
#
#
# Convention : Reuss Voigt Hill
#
# Bulk Modulus (GPa) = 42.89693 49.33282 46.11488
# Shear Modulus (GPa) = -5.57020 12.84436 3.63708
#
# Velocity S-wave (km/s) = -1.77909 2.70159 1.43760
# Velocity P-wave (km/s) = 4.48945 6.14523 5.38140
#
# Compressibility (1/GPa) = 0.02331169
#
# Stress axis : x y z
#
# Youngs Moduli (GPa) = 54.58505 78.16466 35.04917
#
# Poissons Ratio (x) = 0.28727 0.23596
# Poissons Ratio (y) = 0.20061 0.27195
# Poissons Ratio (z) = 0.36748 0.60649
#
# Static dielectric constant tensor:
#      x y z
#    x 1.597270 0.000000 0.000000 
#    y 0.000000 1.596750 0.000000 
#    z 0.000000 0.000000 1.678560 
# 
# From -- ./inp_files/54947.got.cif
#   From: 2010.05.17/outbox.ucp.g08.bks.cvg/sg65_28_cif.got.tgz:54947.got - 2010.06.11 16:39:57.
