data_PCOD9494825
_publ_section_title
;
Structure prediction by ZEFSAII (Michael W. Deem and Ramdas Pophale) SiO2 
 PCOD9494825
Probable space group: C M M M
;
_chemical_formula_sum "Si O2"
_cell_formula_units_Z 40
_cell_length_a 21.000000
_cell_length_b 18.000000
_cell_length_c 12.000000
_cell_angle_alpha 90.000000
_cell_angle_beta 90.000000
_cell_angle_gamma 90.000000
_cell_volume 4536.000000
_symmetry_space_group_name_H-M "C M M M"
_symmetry_group_IT_number 65
_symmetry_cell_setting 'orthorhombic'
loop_
_space_group_symop_operation_xyz
x,y,z
-x,-y,z
x,-y,-z
-x,y,-z
-x,-y,-z
x,y,-z
-x,y,z
x,-y,z
1/2+x,1/2+y,z
1/2-x,1/2-y,z
1/2+x,1/2-y,-z
1/2-x,1/2+y,-z
1/2-x,1/2-y,-z
1/2+x,1/2+y,-z
1/2-x,1/2+y,z
1/2+x,1/2-y,z
loop_
_atom_site_type_symbol
_atom_site_label
_atom_site_fract_x
_atom_site_fract_y
_atom_site_fract_z
Si Si1 0.074554 0.322143 0.634043
Si Si2 0.571313 0.346245 0.275746
Si Si3 0.193609 0.410745 0.286528
Si Si4 0.740099 0.661828 0.500000
Si Si5 0.312110 0.589187 0.131660
Si Si6 0.392073 0.415206 0.500000
O O1 0.088699 0.324742 0.500000
O O2 0.080389 0.237815 0.678852
O O3 0.124109 0.372725 0.703211
O O4 0.000000 0.343925 0.646808
O O5 0.500000 0.351128 0.224495
O O6 0.630135 0.370498 0.197334
O O7 0.572061 0.398034 0.385642
O O8 0.187598 0.500000 0.293828
O O9 0.229719 0.376705 0.392664
O O10 0.242389 0.393490 0.184765
O O11 0.750000 0.750000 0.500000
O O12 0.666500 0.641398 0.500000
O O13 0.321092 0.500000 0.145807
O O14 0.313544 0.606128 0.000000
O O15 0.369091 0.500000 0.500000
#
# Coordination Sequence:
#
# PCOD9494825 Si02
#       6
#    16  16  16   8  16   8
#     4  10  21  37  58  86 121 156 185 224 288 355
#     4  11  22  37  56  82 117 154 189 230 282 343
#     4  11  22  37  59  86 116 149 191 241 286 338
#     4  12  22  33  56  85 116 152 186 230 292 349
#     4  10  23  41  59  81 112 153 198 242 289 338
#     4  12  21  32  52  83 117 145 182 231 281 342
#
# _framework density 8.8183419999999995
#
# number of rings (size 3 to 8) (size 9 to 14) (size 15 to 20)
#    0.000    1.200    4.000    3.000    0.000    2.800 
#    0.000    4.000    0.000    1.800    0.000    2.800 
#    0.000    0.000    0.000    0.000    0.000    0.000 
#
# Total GULP energy -223279.261168 kJ/mol
# GULP energy per Si atom -5581.981529 kJ/mol
# Density = 0.879827 g / cm^3
# Si number density = 8.818342 Si / 1000 Ang^3
#
#
#
# Elastic Constant Matrix: (Units=GPa)
#
#
# Indices 1 2 3 4 5 6 
#
# 1 163.2129 58.3818 65.6218 0.0000 0.0000 0.0000
# 2 58.3818 88.3756 37.3418 0.0000 0.0000 0.0000
# 3 65.6218 37.3418 109.8019 0.0000 0.0000 0.0000
# 4 0.0000 0.0000 0.0000 19.9405 0.0000 0.0000
# 5 0.0000 0.0000 0.0000 0.0000 15.5304 0.0000
# 6 0.0000 0.0000 0.0000 0.0000 0.0000 33.0517
#
#
#
# Elastic Compliance Matrix: (Units=1/GPa)
#
#
# Indices 1 2 3 4 5 6 
#
# 1 0.009363 -0.004462 -0.004078 0.000000 0.000000 0.000000
# 2 -0.004462 0.015341 -0.002550 0.000000 0.000000 0.000000
# 3 -0.004078 -0.002550 0.012412 0.000000 0.000000 0.000000
# 4 0.000000 0.000000 0.000000 0.050149 0.000000 0.000000
# 5 0.000000 0.000000 0.000000 0.000000 0.064390 0.000000
# 6 0.000000 0.000000 0.000000 0.000000 0.000000 0.030256
#
#
# Mechanical properties :
#
#
# Convention : Reuss Voigt Hill
#
# Bulk Modulus (GPa) = 66.96020 76.00901 71.48461
# Shear Modulus (GPa) = 23.91558 27.04085 25.47822
#
# Velocity S-wave (km/s) = 3.68640 3.91988 3.80493
# Velocity P-wave (km/s) = 7.49455 7.97985 7.74100
#
# Compressibility (1/GPa) = 0.01493424
#
# Stress axis : x y z
#
# Youngs Moduli (GPa) = 106.80742 65.18646 80.56807
#
# Poissons Ratio (x) = 0.29086 0.32856
# Poissons Ratio (y) = 0.47657 0.20548
# Poissons Ratio (z) = 0.43556 0.16625
#
# Static dielectric constant tensor:
#      x y z
#    x 1.678200 0.000000 0.000000 
#    y 0.000000 1.590050 0.000000 
#    z 0.000000 0.000000 1.593520 
# 
# From -- ./inp_files/28582.got.cif
#   From: 2010.05.17/outbox.ucp.g08.bks.cvg/sg65_15_cif.got.tgz:28582.got - 2010.06.11 16:39:57.
