data_PCOD9494985
_publ_section_title
;
Structure prediction by ZEFSAII (Michael W. Deem and Ramdas Pophale) SiO2 
 PCOD9494985
Probable space group: C C C M
;
_chemical_formula_sum "Si O2"
_cell_formula_units_Z 48
_cell_length_a 12.982904
_cell_length_b 12.672287
_cell_length_c 15.164605
_cell_angle_alpha 90.000000
_cell_angle_beta 90.000000
_cell_angle_gamma 90.000000
_cell_volume 2494.927606
_symmetry_space_group_name_H-M "C C C M"
_symmetry_group_IT_number 66
_symmetry_cell_setting 'orthorhombic'
loop_
_space_group_symop_operation_xyz
x,y,z
-x,-y,z
x,-y,1/2-z
-x,y,1/2-z
-x,-y,-z
x,y,-z
-x,y,1/2+z
x,-y,1/2+z
1/2+x,1/2+y,z
1/2-x,1/2-y,z
1/2+x,1/2-y,1/2-z
1/2-x,1/2+y,1/2-z
1/2-x,1/2-y,-z
1/2+x,1/2+y,-z
1/2-x,1/2+y,1/2+z
1/2+x,1/2-y,1/2+z
loop_
_atom_site_type_symbol
_atom_site_label
_atom_site_fract_x
_atom_site_fract_y
_atom_site_fract_z
Si Si1 0.405510 0.669814 0.305772
Si Si2 0.330936 0.101866 0.804467
Si Si3 0.295641 0.127099 0.000000
Si Si4 0.926885 0.099609 0.500000
O O1 0.500000 0.625228 0.250000
O O2 0.382436 0.789069 0.274342
O O3 0.293950 0.614378 0.297298
O O4 0.437381 0.663539 0.408837
O O5 0.363451 0.000000 0.750000
O O6 0.351850 0.101212 0.909527
O O7 0.250000 0.250000 0.000000
O O8 0.190859 0.060044 0.000000
O O9 0.000000 0.000000 0.500000
#
# Coordination Sequence:
#
# PCOD9494985 Si02
#       4
#    16  16   8   8
#     4  10  21  36  54  84 115 142 190 239 281 338
#     4  10  20  36  58  82 111 155 192 229 288 348
#     4  10  16  38  57  78 117 153 184 233 287 342
#     4  10  20  32  55  86 111 145 185 234 295 340
#
# _framework density 19.239035000000001
#
# number of rings (size 3 to 8) (size 9 to 14) (size 15 to 20)
#    0.000    2.000    6.667    0.000    9.333    0.667 
#    0.000    1.667    0.000    8.000    0.000    0.000 
#    0.000    0.000    0.000    0.000    0.000    0.000 
#
# Total GULP energy -133674.538488 kJ/mol
# GULP energy per Si atom -5569.772437 kJ/mol
# Density = 1.919525 g / cm^3
# Si number density = 19.239035 Si / 1000 Ang^3
#
#
#
# Elastic Constant Matrix: (Units=GPa)
#
#
# Indices 1 2 3 4 5 6 
#
# 1 60.1546 4.1400 10.6704 0.0000 0.0000 0.0000
# 2 4.1400 120.4099 38.1747 0.0000 0.0000 0.0000
# 3 10.6704 38.1747 101.9915 0.0000 0.0000 0.0000
# 4 0.0000 0.0000 0.0000 27.1863 0.0000 0.0000
# 5 0.0000 0.0000 0.0000 0.0000 -9.6343 0.0000
# 6 0.0000 0.0000 0.0000 0.0000 0.0000 14.7507
#
#
#
# Elastic Compliance Matrix: (Units=1/GPa)
#
#
# Indices 1 2 3 4 5 6 
#
# 1 0.016938 -0.000023 -0.001763 0.000000 0.000000 0.000000
# 2 -0.000023 0.009423 -0.003525 0.000000 0.000000 0.000000
# 3 -0.001763 -0.003525 0.011308 0.000000 0.000000 0.000000
# 4 0.000000 0.000000 0.000000 0.036783 0.000000 0.000000
# 5 0.000000 0.000000 0.000000 0.000000 -0.103796 0.000000
# 6 0.000000 0.000000 0.000000 0.000000 0.000000 0.067793
#
#
# Mechanical properties :
#
#
# Convention : Reuss Voigt Hill
#
# Bulk Modulus (GPa) = 36.97223 43.16957 40.07090
# Shear Modulus (GPa) = 86.07553 21.76528 53.92041
#
# Velocity S-wave (km/s) = 6.69606 3.36714 5.29976
# Velocity P-wave (km/s) = 8.89055 6.13222 7.63695
#
# Compressibility (1/GPa) = 0.02704733
#
# Stress axis : x y z
#
# Youngs Moduli (GPa) = 59.03807 106.12097 88.42944
#
# Poissons Ratio (x) = 0.00248 0.15593
# Poissons Ratio (y) = 0.00138 0.31168
# Poissons Ratio (z) = 0.10410 0.37403
#
# Static dielectric constant tensor:
#      x y z
#    x 1.681310 0.000000 0.000000 
#    y 0.000000 1.697280 0.000000 
#    z 0.000000 0.000000 1.710300 
# 
# From -- ./inp_files/15557.got.cif
#   From: 2010.05.17/outbox.cif.g08.bks.cpg/sg66_8_cif.got.tgz:15557.got - 2010.06.03 17:51:23.
