data_PCOD9494396
_publ_section_title
;
Structure prediction by ZEFSAII (Michael W. Deem and Ramdas Pophale) SiO2 
 PCOD9494396
Probable space group: C M M M
;
_chemical_formula_sum "Si O2"
_cell_formula_units_Z 56
_cell_length_a 7.503318
_cell_length_b 42.969602
_cell_length_c 7.722316
_cell_angle_alpha 90.000000
_cell_angle_beta 90.000000
_cell_angle_gamma 90.000000
_cell_volume 2489.787333
_symmetry_space_group_name_H-M "C M M M"
_symmetry_group_IT_number 65
_symmetry_cell_setting 'orthorhombic'
loop_
_space_group_symop_operation_xyz
x,y,z
-x,-y,z
x,-y,-z
-x,y,-z
-x,-y,-z
x,y,-z
-x,y,z
x,-y,z
1/2+x,1/2+y,z
1/2-x,1/2-y,z
1/2+x,1/2-y,-z
1/2-x,1/2+y,-z
1/2-x,1/2-y,-z
1/2+x,1/2+y,-z
1/2-x,1/2+y,z
1/2+x,1/2-y,z
loop_
_atom_site_type_symbol
_atom_site_label
_atom_site_fract_x
_atom_site_fract_y
_atom_site_fract_z
Si Si1 0.296359 0.149564 0.792390
Si Si2 0.218354 0.418158 0.800392
Si Si3 0.717730 0.035623 0.500000
Si Si4 0.199906 0.284387 0.708298
O O1 0.500000 0.150325 0.721030
O O2 0.219668 0.116186 0.738992
O O3 0.208265 0.182820 0.751422
O O4 0.305893 0.147673 0.000000
O O5 0.273047 0.445040 0.669426
O O6 0.000000 0.416946 0.800185
O O7 0.272309 0.423300 0.000000
O O8 0.500000 0.035313 0.500000
O O9 0.777473 0.000000 0.500000
O O10 0.201901 0.282561 0.500000
O O11 0.250000 0.250000 0.771754
O O12 0.000000 0.288344 0.774638
#
# Coordination Sequence:
#
# PCOD9494396 Si02
#       4
#    16  16   8  16
#     4   8  14  24  37  52  68  90 123 160 195 230
#     4   8  14  23  33  46  65  89 120 158 194 229
#     4   9  16  22  30  46  65  90 123 155 193 237
#     4   9  17  27  39  56  77 101 130 165 203 240
#
# _framework density 22.491880999999999
#
# number of rings (size 3 to 8) (size 9 to 14) (size 15 to 20)
#    0.000    3.571    0.000    1.714    2.000    1.143 
#    0.000    2.857    0.000    0.000    0.000    0.000 
#    0.000    0.000    0.000    0.000    0.000    2.857 
#
# Total GULP energy -155929.628393 kJ/mol
# GULP energy per Si atom -5568.915300 kJ/mol
# Density = 2.244069 g / cm^3
# Si number density = 22.491881 Si / 1000 Ang^3
#
#
#
# Elastic Constant Matrix: (Units=GPa)
#
#
# Indices 1 2 3 4 5 6 
#
# 1 53.1859 18.8632 3.4483 0.0000 0.0000 0.0000
# 2 18.8632 301.3183 87.6973 0.0000 0.0000 0.0000
# 3 3.4483 87.6973 81.0041 0.0000 0.0000 0.0000
# 4 0.0000 0.0000 0.0000 57.2776 0.0000 0.0000
# 5 0.0000 0.0000 0.0000 0.0000 -5.8572 0.0000
# 6 0.0000 0.0000 0.0000 0.0000 0.0000 0.6087
#
#
#
# Elastic Compliance Matrix: (Units=1/GPa)
#
#
# Indices 1 2 3 4 5 6 
#
# 1 0.019257 -0.001412 0.000709 0.000000 0.000000 0.000000
# 2 -0.001412 0.004949 -0.005298 0.000000 0.000000 0.000000
# 3 0.000709 -0.005298 0.018051 0.000000 0.000000 0.000000
# 4 0.000000 0.000000 0.000000 0.017459 0.000000 0.000000
# 5 0.000000 0.000000 0.000000 0.000000 -0.170729 0.000000
# 6 0.000000 0.000000 0.000000 0.000000 0.000000 1.642973
#
#
# Mechanical properties :
#
#
# Convention : Reuss Voigt Hill
#
# Bulk Modulus (GPa) = 33.05308 72.83619 52.94464
# Shear Modulus (GPa) = 3.21741 32.10578 17.66159
#
# Velocity S-wave (km/s) = 1.19732 3.78224 2.80526
# Velocity P-wave (km/s) = 4.07908 7.17826 5.83808
#
# Compressibility (1/GPa) = 0.03025437
#
# Stress axis : x y z
#
# Youngs Moduli (GPa) = 51.92991 202.05872 55.40002
#
# Poissons Ratio (x) = 0.28526 -0.03926
# Poissons Ratio (y) = 0.07331 0.29350
# Poissons Ratio (z) = -0.03680 1.07049
#
# Static dielectric constant tensor:
#      x y z
#    x 1.673130 0.000000 0.000000 
#    y 0.000000 1.893990 0.000000 
#    z 0.000000 0.000000 1.790920 
# 
# From -- ./inp_files/4707.got.cif
#   From: 2010.05.17/outbox.cif.g08.bks.cpg/sg65_3_cif.got.tgz:4707.got - 2010.06.03 17:01:31.
