data_PCOD9494282
_publ_section_title
;
Structure prediction by ZEFSAII (Michael W. Deem and Ramdas Pophale) SiO2 
 PCOD9494282
Probable space group: C M M M
;
_chemical_formula_sum "Si O2"
_cell_formula_units_Z 96
_cell_length_a 21.688977
_cell_length_b 14.721897
_cell_length_c 11.459201
_cell_angle_alpha 90.000000
_cell_angle_beta 90.000000
_cell_angle_gamma 90.000000
_cell_volume 3658.955944
_symmetry_space_group_name_H-M "C M M M"
_symmetry_group_IT_number 65
_symmetry_cell_setting 'orthorhombic'
loop_
_space_group_symop_operation_xyz
x,y,z
-x,-y,z
x,-y,-z
-x,y,-z
-x,-y,-z
x,y,-z
-x,y,z
x,-y,z
1/2+x,1/2+y,z
1/2-x,1/2-y,z
1/2+x,1/2-y,-z
1/2-x,1/2+y,-z
1/2-x,1/2-y,-z
1/2+x,1/2+y,-z
1/2-x,1/2+y,z
1/2+x,1/2-y,z
loop_
_atom_site_type_symbol
_atom_site_label
_atom_site_fract_x
_atom_site_fract_y
_atom_site_fract_z
Si Si1 0.071527 0.371304 0.124890
Si Si2 0.604088 0.637382 0.374217
Si Si3 0.904036 0.157223 0.126522
Si Si4 0.252141 0.358481 0.624771
Si Si5 0.263651 0.606638 0.874865
Si Si6 0.074444 0.649667 0.626747
O O1 0.074114 0.261265 0.126412
O O2 0.094318 0.397706 0.253445
O O3 0.000000 0.397791 0.121464
O O4 0.099133 0.400203 0.000000
O O5 0.577634 0.608520 0.500000
O O6 0.576342 0.611623 0.248608
O O7 0.676178 0.611070 0.373840
O O8 0.600880 0.747680 0.374138
O O9 0.829238 0.157878 0.131551
O O10 0.921099 0.117057 0.000000
O O11 0.225953 0.391093 0.500000
O O12 0.250000 0.250000 0.619683
O O13 0.228127 0.379825 0.754031
O O14 0.278431 0.500000 0.879317
O O15 0.234972 0.632696 0.000000
O O16 0.088083 0.608681 0.500000
O O17 0.000000 0.658549 0.633009
#
# Coordination Sequence:
#
# PCOD9494282 Si02
#       6
#    16  16  16  16  16  16
#     4   8  12  17  26  40  57  78 105 137 173 210
#     4   8  13  21  32  46  65  87 111 141 175 209
#     4   8  13  21  32  45  62  84 110 142 178 212
#     4   9  17  28  41  57  76  97 122 152 185 220
#     4   9  17  28  41  56  73  94 121 152 185 220
#     4   8  12  17  26  41  60  81 106 136 169 204
#
# _framework density 26.236993999999999
#
# number of rings (size 3 to 8) (size 9 to 14) (size 15 to 20)
#    0.000    3.667    0.000    0.000    0.000    0.667 
#    0.000    0.000    0.000    0.500    0.000    3.500 
#    0.000    0.000    0.000   84.500    0.000   21.833 
#
# Total GULP energy -267556.278784 kJ/mol
# GULP energy per Si atom -5574.089141 kJ/mol
# Density = 2.617728 g / cm^3
# Si number density = 26.236994 Si / 1000 Ang^3
#
#
#
# Elastic Constant Matrix: (Units=GPa)
#
#
# Indices 1 2 3 4 5 6 
#
# 1 124.3443 11.2827 12.6130 0.0000 0.0000 0.0000
# 2 11.2827 97.4777 15.2344 0.0000 0.0000 0.0000
# 3 12.6130 15.2344 411.2828 0.0000 0.0000 0.0000
# 4 0.0000 0.0000 0.0000 -41.9241 0.0000 0.0000
# 5 0.0000 0.0000 0.0000 0.0000 3465.6261 0.0000
# 6 0.0000 0.0000 0.0000 0.0000 0.0000 -43.0677
#
#
#
# Elastic Compliance Matrix: (Units=1/GPa)
#
#
# Indices 1 2 3 4 5 6 
#
# 1 0.008147 -0.000909 -0.000216 0.000000 0.000000 0.000000
# 2 -0.000909 0.010420 -0.000358 0.000000 0.000000 0.000000
# 3 -0.000216 -0.000358 0.002451 0.000000 0.000000 0.000000
# 4 0.000000 0.000000 0.000000 -0.023853 0.000000 0.000000
# 5 0.000000 0.000000 0.000000 0.000000 0.000289 0.000000
# 6 0.000000 0.000000 0.000000 0.000000 0.000000 -0.023219
#
#
# Mechanical properties :
#
#
# Convention : Reuss Voigt Hill
#
# Bulk Modulus (GPa) = 55.39838 79.04054 67.21946
# Shear Modulus (GPa) = -297.94461 715.72518 208.89028
#
# Velocity S-wave (km/s) = -10.66797 16.53435 8.93250
# Velocity P-wave (km/s) = 11.42717 19.86715 11.49181
#
# Compressibility (1/GPa) = 0.01805107
#
# Stress axis : x y z
#
# Youngs Moduli (GPa) = 122.75049 95.96974 407.94515
#
# Poissons Ratio (x) = 0.08725 0.08818
# Poissons Ratio (y) = 0.11160 0.14608
# Poissons Ratio (z) = 0.02653 0.03437
#
# Static dielectric constant tensor:
#      x y z
#    x 1.961770 0.000000 0.000000 
#    y 0.000000 1.936730 0.000000 
#    z 0.000000 0.000000 2.197590 
# 
# From -- ./inp_files/30778.got.cif
#   From: 2010.05.17/outbox.cif.g08.bks.cpg/sg65_16_cif.got.tgz:30778.got - 2010.06.03 17:01:31.
