data_PCOD9494852
_publ_section_title
;
Structure prediction by ZEFSAII (Michael W. Deem and Ramdas Pophale) SiO2 
 PCOD9494852
Probable space group: C M M M
;
_chemical_formula_sum "Si O2"
_cell_formula_units_Z 42
_cell_length_a 21.000000
_cell_length_b 15.000000
_cell_length_c 15.000000
_cell_angle_alpha 90.000000
_cell_angle_beta 90.000000
_cell_angle_gamma 90.000000
_cell_volume 4725.000000
_symmetry_space_group_name_H-M "C M M M"
_symmetry_group_IT_number 65
_symmetry_cell_setting 'orthorhombic'
loop_
_space_group_symop_operation_xyz
x,y,z
-x,-y,z
x,-y,-z
-x,y,-z
-x,-y,-z
x,y,-z
-x,y,z
x,-y,z
1/2+x,1/2+y,z
1/2-x,1/2-y,z
1/2+x,1/2-y,-z
1/2-x,1/2+y,-z
1/2-x,1/2-y,-z
1/2+x,1/2+y,-z
1/2-x,1/2+y,z
1/2+x,1/2-y,z
loop_
_atom_site_type_symbol
_atom_site_label
_atom_site_fract_x
_atom_site_fract_y
_atom_site_fract_z
Si Si1 0.379644 0.643747 0.248050
Si Si2 0.576701 0.500000 0.105285
Si Si3 0.000000 0.500000 0.273794
Si Si4 0.427318 0.756106 0.500000
Si Si5 0.423615 0.500000 0.604964
Si Si6 0.599043 0.837343 0.691653
Si Si7 0.707935 0.660052 0.500000
Si Si8 0.754001 0.602803 0.690394
O O1 0.399091 0.586193 0.161465
O O2 0.401788 0.584362 0.334147
O O3 0.408860 0.742639 0.256833
O O4 0.302755 0.650434 0.255295
O O5 0.500000 0.500000 0.109758
O O6 0.594895 0.500000 0.000000
O O7 0.055871 0.579979 0.277163
O O8 0.500000 0.717119 0.500000
O O9 0.419438 0.815130 0.411010
O O10 0.366066 0.690496 0.500000
O O11 0.500000 0.500000 0.603188
O O12 0.402038 0.500000 0.500000
O O13 0.674456 0.860252 0.695795
O O14 0.750000 0.750000 0.500000
O O15 0.729790 0.609680 0.588449
O O16 0.754242 0.500000 0.718381
#
# Coordination Sequence:
#
# PCOD9494852 Si02
#       8
#    16   8   4   8   8  16   8  16
#     4  11  22  39  65  92 122 165 209 266 315 381
#     4  10  23  44  70 103 133 159 201 253 325 409
#     4  12  28  41  56  88 123 182 214 276 317 374
#     4  12  24  36  56  78 121 177 234 286 314 371
#     4  10  23  36  52  84 122 160 206 250 319 371
#     4  12  25  40  58  85 128 174 230 268 323 372
#     4  12  21  36  54  80 114 174 236 267 318 366
#     4  12  22  38  58  84 119 169 223 272 315 377
#
# _framework density 8.8888890000000007
#
# number of rings (size 3 to 8) (size 9 to 14) (size 15 to 20)
#    0.000    0.571    7.619    2.000    5.333    0.762 
#    0.000    0.000    0.000    2.857    0.000    1.333 
#    0.000    0.000    0.000    0.000    0.000    0.000 
#
# Total GULP energy -234171.129006 kJ/mol
# GULP energy per Si atom -5575.503072 kJ/mol
# Density = 0.886866 g / cm^3
# Si number density = 8.888889 Si / 1000 Ang^3
#
#
#
# Elastic Constant Matrix: (Units=GPa)
#
#
# Indices 1 2 3 4 5 6 
#
# 1 155.3248 45.8529 29.7541 0.0000 0.0000 0.0000
# 2 45.8529 158.3584 36.2309 0.0000 0.0000 0.0000
# 3 29.7541 36.2309 95.8745 0.0000 0.0000 0.0000
# 4 0.0000 0.0000 0.0000 14.9239 0.0000 0.0000
# 5 0.0000 0.0000 0.0000 0.0000 17.8008 0.0000
# 6 0.0000 0.0000 0.0000 0.0000 0.0000 -12.5971
#
#
#
# Elastic Compliance Matrix: (Units=1/GPa)
#
#
# Indices 1 2 3 4 5 6 
#
# 1 0.007256 -0.001736 -0.001596 0.000000 0.000000 0.000000
# 2 -0.001736 0.007328 -0.002230 0.000000 0.000000 0.000000
# 3 -0.001596 -0.002230 0.011768 0.000000 0.000000 0.000000
# 4 0.000000 0.000000 0.000000 0.067007 0.000000 0.000000
# 5 0.000000 0.000000 0.000000 0.000000 0.056177 0.000000
# 6 0.000000 0.000000 0.000000 0.000000 0.000000 -0.079384
#
#
# Mechanical properties :
#
#
# Convention : Reuss Voigt Hill
#
# Bulk Modulus (GPa) = 65.66883 70.35927 68.01405
# Shear Modulus (GPa) = 57.90155 23.87350 40.88753
#
# Velocity S-wave (km/s) = 5.71317 3.66851 4.80095
# Velocity P-wave (km/s) = 8.97437 7.58993 8.31103
#
# Compressibility (1/GPa) = 0.01522792
#
# Stress axis : x y z
#
# Youngs Moduli (GPa) = 137.81124 136.46792 84.97291
#
# Poissons Ratio (x) = 0.23690 0.13561
# Poissons Ratio (y) = 0.23923 0.18952
# Poissons Ratio (z) = 0.21994 0.30438
#
# Static dielectric constant tensor:
#      x y z
#    x 1.646090 0.000000 0.000000 
#    y 0.000000 1.660200 0.000000 
#    z 0.000000 0.000000 1.586660 
# 
# From -- ./inp_files/44073.got.cif
#   From: 2010.05.17/outbox.ucp.g08.bks.cvg/sg65_23_cif.got.tgz:44073.got - 2010.06.11 16:39:57.
