data_PCOD9494581
_publ_section_title
;
Structure prediction by ZEFSAII (Michael W. Deem and Ramdas Pophale) SiO2 
 PCOD9494581
Probable space group: C M M M
;
_chemical_formula_sum "Si O2"
_cell_formula_units_Z 52
_cell_length_a 9.000000
_cell_length_b 24.000000
_cell_length_c 27.000000
_cell_angle_alpha 90.000000
_cell_angle_beta 90.000000
_cell_angle_gamma 90.000000
_cell_volume 5832.000000
_symmetry_space_group_name_H-M "C M M M"
_symmetry_group_IT_number 65
_symmetry_cell_setting 'orthorhombic'
loop_
_space_group_symop_operation_xyz
x,y,z
-x,-y,z
x,-y,-z
-x,y,-z
-x,-y,-z
x,y,-z
-x,y,z
x,-y,z
1/2+x,1/2+y,z
1/2-x,1/2-y,z
1/2+x,1/2-y,-z
1/2-x,1/2+y,-z
1/2-x,1/2-y,-z
1/2+x,1/2+y,-z
1/2-x,1/2+y,z
1/2+x,1/2-y,z
loop_
_atom_site_type_symbol
_atom_site_label
_atom_site_fract_x
_atom_site_fract_y
_atom_site_fract_z
Si Si1 0.321263 0.565490 0.399058
Si Si2 0.319662 0.609230 0.297165
Si Si3 0.822649 0.593777 0.054445
Si Si4 0.678624 0.690057 0.214017
Si Si5 0.830510 0.567748 0.500000
Si Si6 0.178958 0.500000 0.870497
Si Si7 0.676327 0.689817 0.894639
Si Si8 0.322473 0.500000 0.235672
O O1 0.500000 0.567623 0.401838
O O2 0.283309 0.500000 0.390523
O O3 0.267587 0.602148 0.353044
O O4 0.252588 0.584719 0.450370
O O5 0.500000 0.612798 0.299291
O O6 0.264862 0.657883 0.261954
O O7 0.283366 0.553381 0.267761
O O8 0.772683 0.552687 0.097348
O O9 0.742307 0.651582 0.063147
O O10 0.000000 0.601291 0.058532
O O11 0.792263 0.570702 0.000000
O O12 0.500000 0.693525 0.216745
O O13 0.750000 0.750000 0.213696
O O14 0.713004 0.664426 0.160026
O O15 0.828282 0.500000 0.500000
O O16 0.000000 0.586134 0.500000
O O17 0.244305 0.500000 0.816500
O O18 0.000000 0.500000 0.868480
O O19 0.500000 0.694603 0.898252
O O20 0.750000 0.750000 0.896631
O O21 0.500000 0.500000 0.228109
#
# Coordination Sequence:
#
# PCOD9494581 Si02
#       8
#    16  16  16  16   8   8  16   8
#     4   9  15  26  44  66  90 122 162 196 228 274
#     4   9  16  28  48  72  97 124 157 198 238 277
#     4  10  21  37  55  73  96 128 164 201 241 288
#     4   9  18  32  49  70  96 126 158 191 232 282
#     4   9  17  27  39  59  92 131 160 191 234 276
#     4  10  21  36  52  72  99 131 164 197 239 291
#     4  10  20  35  55  78 101 127 158 198 246 296
#     4  10  18  31  51  74  99 126 157 195 242 289
#
# _framework density 8.9163239999999995
#
# number of rings (size 3 to 8) (size 9 to 14) (size 15 to 20)
#    0.000    2.538    0.769    1.846    0.000    4.923 
#    0.000    2.308    0.000    1.385    0.000    0.538 
#    0.000    0.000    0.000    0.000    0.000    0.000 
#
# Total GULP energy -289594.166510 kJ/mol
# GULP energy per Si atom -5569.118587 kJ/mol
# Density = 0.889603 g / cm^3
# Si number density = 8.916324 Si / 1000 Ang^3
#
#
#
# Elastic Constant Matrix: (Units=GPa)
#
#
# Indices 1 2 3 4 5 6 
#
# 1 -6.9882 11.7952 28.2775 0.0000 0.0000 0.0000
# 2 11.7952 47.2283 35.8148 0.0000 0.0000 0.0000
# 3 28.2775 35.8148 109.5251 0.0000 0.0000 0.0000
# 4 0.0000 0.0000 0.0000 -0.8254 0.0000 0.0000
# 5 0.0000 0.0000 0.0000 0.0000 -1.1668 0.0000
# 6 0.0000 0.0000 0.0000 0.0000 0.0000 10.8379
#
#
#
# Elastic Compliance Matrix: (Units=1/GPa)
#
#
# Indices 1 2 3 4 5 6 
#
# 1 -0.069100 0.004958 0.016219 0.000000 0.000000 0.000000
# 2 0.004958 0.027800 -0.010371 0.000000 0.000000 0.000000
# 3 0.016219 -0.010371 0.008334 0.000000 0.000000 0.000000
# 4 0.000000 0.000000 0.000000 -1.211487 0.000000 0.000000
# 5 0.000000 0.000000 0.000000 0.000000 -0.857020 0.000000
# 6 0.000000 0.000000 0.000000 0.000000 0.000000 0.092269
#
#
# Mechanical properties :
#
#
# Convention : Reuss Voigt Hill
#
# Bulk Modulus (GPa) = -88.08399 33.50445 -27.28977
# Shear Modulus (GPa) = -2.45748 6.69430 2.11841
#
# Velocity S-wave (km/s) = -1.17519 1.93962 1.09111
# Velocity P-wave (km/s) = 7.16543 4.88315 3.70798
#
# Compressibility (1/GPa) = -0.01135280
#
# Stress axis : x y z
#
# Youngs Moduli (GPa) = -14.47185 35.97131 119.98947
#
# Poissons Ratio (x) = -0.17835 -1.94612
# Poissons Ratio (y) = 0.07175 1.24437
# Poissons Ratio (z) = 0.23472 0.37305
#
# Static dielectric constant tensor:
#      x y z
#    x 1.584260 0.000000 0.000000 
#    y 0.000000 1.563900 0.000000 
#    z 0.000000 0.000000 1.621100 
# 
# From -- ./inp_files/73647.got.cif
#   From: 2010.05.17/outbox.ucp.g08.bks.cvg/sg65_37_cif.got.tgz:73647.got - 2010.06.11 16:39:57.
