data_PCOD9494414
_publ_section_title
;
Structure prediction by ZEFSAII (Michael W. Deem and Ramdas Pophale) SiO2 
 PCOD9494414
Probable space group: C M M M
;
_chemical_formula_sum "Si O2"
_cell_formula_units_Z 72
_cell_length_a 15.183628
_cell_length_b 7.294005
_cell_length_c 27.433022
_cell_angle_alpha 90.000000
_cell_angle_beta 90.000000
_cell_angle_gamma 90.000000
_cell_volume 3038.192333
_symmetry_space_group_name_H-M "C M M M"
_symmetry_group_IT_number 65
_symmetry_cell_setting 'orthorhombic'
loop_
_space_group_symop_operation_xyz
x,y,z
-x,-y,z
x,-y,-z
-x,y,-z
-x,-y,-z
x,y,-z
-x,y,z
x,-y,z
1/2+x,1/2+y,z
1/2-x,1/2-y,z
1/2+x,1/2-y,-z
1/2-x,1/2+y,-z
1/2-x,1/2-y,-z
1/2+x,1/2+y,-z
1/2-x,1/2+y,z
1/2+x,1/2-y,z
loop_
_atom_site_type_symbol
_atom_site_label
_atom_site_fract_x
_atom_site_fract_y
_atom_site_fract_z
Si Si1 0.394543 0.712072 0.552125
Si Si2 0.354325 0.718731 0.869139
Si Si3 0.644209 0.718686 0.762794
Si Si4 0.000000 0.224091 0.944217
Si Si5 0.646183 0.281965 0.341627
O O1 0.362825 0.790357 0.500000
O O2 0.500000 0.708667 0.549531
O O3 0.362932 0.500000 0.553366
O O4 0.376014 0.794419 0.605073
O O5 0.365805 0.500000 0.866970
O O6 0.250000 0.750000 0.875674
O O7 0.384531 0.789012 0.815712
O O8 0.414634 0.783672 0.913338
O O9 0.628855 0.500000 0.762097
O O10 0.750000 0.750000 0.763366
O O11 0.609767 0.787797 0.710396
O O12 0.000000 0.000000 0.945347
O O13 0.000000 0.285250 0.000000
O O14 0.625433 0.500000 0.343365
O O15 0.750000 0.250000 0.337722
#
# Coordination Sequence:
#
# PCOD9494414 Si02
#       5
#    16  16  16   8  16
#     4   8  14  25  39  55  78 107 137 170 208 249
#     4   9  17  31  50  70  94 126 158 190 231 277
#     4   8  14  25  41  62  86 111 139 173 214 258
#     4   9  18  32  49  71  99 127 156 192 234 277
#     4   9  16  26  41  62  84 106 134 172 214 254
#
# _framework density 23.698302999999999
#
# number of rings (size 3 to 8) (size 9 to 14) (size 15 to 20)
#    0.000    3.444    0.000    0.667    0.000    0.889 
#    2.000    0.556    0.000    1.333    0.000    1.556 
#    0.000    0.000    0.000    0.000    0.000    0.000 
#
# Total GULP energy -200530.304265 kJ/mol
# GULP energy per Si atom -5570.286230 kJ/mol
# Density = 2.364436 g / cm^3
# Si number density = 23.698303 Si / 1000 Ang^3
#
#
#
# Elastic Constant Matrix: (Units=GPa)
#
#
# Indices 1 2 3 4 5 6 
#
# 1 66.9800 -6.5897 79.0782 0.0000 0.0000 0.0000
# 2 -6.5897 106.1131 19.6411 0.0000 0.0000 0.0000
# 3 79.0782 19.6411 352.0847 0.0000 0.0000 0.0000
# 4 0.0000 0.0000 0.0000 -34.6708 0.0000 0.0000
# 5 0.0000 0.0000 0.0000 0.0000 40.8533 0.0000
# 6 0.0000 0.0000 0.0000 0.0000 0.0000 1.6381
#
#
#
# Elastic Compliance Matrix: (Units=1/GPa)
#
#
# Indices 1 2 3 4 5 6 
#
# 1 0.020804 0.002179 -0.004794 0.000000 0.000000 0.000000
# 2 0.002179 0.009751 -0.001033 0.000000 0.000000 0.000000
# 3 -0.004794 -0.001033 0.003975 0.000000 0.000000 0.000000
# 4 0.000000 0.000000 0.000000 -0.028843 0.000000 0.000000
# 5 0.000000 0.000000 0.000000 0.000000 0.024478 0.000000
# 6 0.000000 0.000000 0.000000 0.000000 0.000000 0.610475
#
#
# Mechanical properties :
#
#
# Convention : Reuss Voigt Hill
#
# Bulk Modulus (GPa) = 36.72014 78.82634 57.77324
# Shear Modulus (GPa) = 7.61018 30.43399 19.02209
#
# Velocity S-wave (km/s) = 1.79395 3.58750 2.83623
# Velocity P-wave (km/s) = 4.45191 7.10597 5.92935
#
# Compressibility (1/GPa) = 0.02723302
#
# Stress axis : x y z
#
# Youngs Moduli (GPa) = 48.06665 102.55857 251.59359
#
# Poissons Ratio (x) = -0.22351 1.20620
# Poissons Ratio (y) = -0.10475 0.26000
# Poissons Ratio (z) = 0.23044 0.10599
#
# Static dielectric constant tensor:
#      x y z
#    x 1.847490 0.000000 0.000000 
#    y 0.000000 1.927520 0.000000 
#    z 0.000000 0.000000 1.977110 
# 
# From -- ./inp_files/68775.got.cif
#   From: 2010.05.17/outbox.cif.g08.bks.cpg/sg65_35_cif.got.tgz:68775.got - 2010.06.03 17:01:31.
