data_PCOD9494976
_publ_section_title
;
Structure prediction by ZEFSAII (Michael W. Deem and Ramdas Pophale) SiO2 
 PCOD9494976
Probable space group: C C C M
;
_chemical_formula_sum "Si O2"
_cell_formula_units_Z 72
_cell_length_a 19.555809
_cell_length_b 18.806572
_cell_length_c 10.725563
_cell_angle_alpha 90.000000
_cell_angle_beta 90.000000
_cell_angle_gamma 90.000000
_cell_volume 3944.623213
_symmetry_space_group_name_H-M "C C C M"
_symmetry_group_IT_number 66
_symmetry_cell_setting 'orthorhombic'
loop_
_space_group_symop_operation_xyz
x,y,z
-x,-y,z
x,-y,1/2-z
-x,y,1/2-z
-x,-y,-z
x,y,-z
-x,y,1/2+z
x,-y,1/2+z
1/2+x,1/2+y,z
1/2-x,1/2-y,z
1/2+x,1/2-y,1/2-z
1/2-x,1/2+y,1/2-z
1/2-x,1/2-y,-z
1/2+x,1/2+y,-z
1/2-x,1/2+y,1/2+z
1/2+x,1/2-y,1/2+z
loop_
_atom_site_type_symbol
_atom_site_label
_atom_site_fract_x
_atom_site_fract_y
_atom_site_fract_z
Si Si1 0.658882 0.500000 0.750000
Si Si2 0.452802 0.303845 0.500000
Si Si3 0.180752 0.706895 0.000000
Si Si4 0.710388 0.353328 0.644395
Si Si5 0.424822 0.468291 0.500000
Si Si6 0.653510 0.201646 0.268834
Si Si7 0.500000 0.764809 0.250000
O O1 0.698576 0.426666 0.718467
O O2 0.614234 0.510882 0.625835
O O3 0.383405 0.259301 0.500000
O O4 0.433812 0.384601 0.500000
O O5 0.490889 0.282022 0.373840
O O6 0.250000 0.750000 0.000000
O O7 0.175035 0.670820 0.866592
O O8 0.686128 0.357839 0.500000
O O9 0.672035 0.286319 0.712439
O O10 0.791303 0.335010 0.642106
O O11 0.500000 0.500000 0.500000
O O12 0.571598 0.193913 0.274748
#
# Coordination Sequence:
#
# PCOD9494976 Si02
#       7
#     8   8   8  16   8  16   8
#     4  12  25  44  60  83 124 160 208 242 296 365
#     4  10  24  36  55  80 120 157 195 238 293 346
#     4  10  16  34  54  85 104 149 191 233 305 334
#     4  11  23  39  59  90 114 163 202 250 302 348
#     4  12  28  40  55  83 121 169 204 242 279 358
#     4  10  21  36  63  85 122 147 201 252 297 360
#     4  10  22  36  59  91 112 156 190 248 310 352
#
# _framework density 18.252693000000001
#
# number of rings (size 3 to 8) (size 9 to 14) (size 15 to 20)
#    0.000    1.333    3.333    4.333    9.333    0.000 
#    0.000    0.000    0.000    0.667    0.000    1.556 
#    0.000    0.000    0.000    0.000    0.000    0.000 
#
# Total GULP energy -200566.428689 kJ/mol
# GULP energy per Si atom -5571.289686 kJ/mol
# Density = 1.821115 g / cm^3
# Si number density = 18.252693 Si / 1000 Ang^3
#
#
#
# Elastic Constant Matrix: (Units=GPa)
#
#
# Indices 1 2 3 4 5 6 
#
# 1 107.2754 17.1137 33.5523 0.0000 0.0000 0.0000
# 2 17.1137 64.6785 24.6741 0.0000 0.0000 0.0000
# 3 33.5523 24.6741 144.0476 0.0000 0.0000 0.0000
# 4 0.0000 0.0000 0.0000 7.2046 0.0000 0.0000
# 5 0.0000 0.0000 0.0000 0.0000 36.0586 0.0000
# 6 0.0000 0.0000 0.0000 0.0000 0.0000 10.6580
#
#
#
# Elastic Compliance Matrix: (Units=1/GPa)
#
#
# Indices 1 2 3 4 5 6 
#
# 1 0.010275 -0.001932 -0.002062 0.000000 0.000000 0.000000
# 2 -0.001932 0.016905 -0.002446 0.000000 0.000000 0.000000
# 3 -0.002062 -0.002446 0.007841 0.000000 0.000000 0.000000
# 4 0.000000 0.000000 0.000000 0.138799 0.000000 0.000000
# 5 0.000000 0.000000 0.000000 0.000000 0.027733 0.000000
# 6 0.000000 0.000000 0.000000 0.000000 0.000000 0.093826
#
#
# Mechanical properties :
#
#
# Convention : Reuss Voigt Hill
#
# Bulk Modulus (GPa) = 45.16373 51.85351 48.50862
# Shear Modulus (GPa) = 15.84078 26.82835 21.33457
#
# Velocity S-wave (km/s) = 2.94914 3.83799 3.42255
# Velocity P-wave (km/s) = 6.03274 6.93618 6.50017
#
# Compressibility (1/GPa) = 0.02214166
#
# Stress axis : x y z
#
# Youngs Moduli (GPa) = 97.32305 59.15306 127.52719
#
# Poissons Ratio (x) = 0.11428 0.26301
# Poissons Ratio (y) = 0.18802 0.31190
# Poissons Ratio (z) = 0.20072 0.14467
#
# Static dielectric constant tensor:
#      x y z
#    x 2.065610 0.000000 0.000000 
#    y 0.000000 1.595660 0.000000 
#    z 0.000000 0.000000 1.695890 
# 
# From -- ./inp_files/17513.got.cif
#   From: 2010.05.17/outbox.cif.g08.bks.cpg/sg66_9_cif.got.tgz:17513.got - 2010.06.03 17:51:23.
