data_PCOD9494444
_publ_section_title
;
Structure prediction by ZEFSAII (Michael W. Deem and Ramdas Pophale) SiO2 
 PCOD9494444
Probable space group: C M M M
;
_chemical_formula_sum "Si O2"
_cell_formula_units_Z 104
_cell_length_a 9.212847
_cell_length_b 20.121051
_cell_length_c 34.481085
_cell_angle_alpha 90.000000
_cell_angle_beta 90.000000
_cell_angle_gamma 90.000000
_cell_volume 6391.833355
_symmetry_space_group_name_H-M "C M M M"
_symmetry_group_IT_number 65
_symmetry_cell_setting 'orthorhombic'
loop_
_space_group_symop_operation_xyz
x,y,z
-x,-y,z
x,-y,-z
-x,y,-z
-x,-y,-z
x,y,-z
-x,y,z
x,-y,z
1/2+x,1/2+y,z
1/2-x,1/2-y,z
1/2+x,1/2-y,-z
1/2-x,1/2+y,-z
1/2-x,1/2-y,-z
1/2+x,1/2+y,-z
1/2-x,1/2+y,z
1/2+x,1/2-y,z
loop_
_atom_site_type_symbol
_atom_site_label
_atom_site_fract_x
_atom_site_fract_y
_atom_site_fract_z
Si Si1 0.167480 0.581047 0.000000
Si Si2 0.167543 0.081093 0.077980
Si Si3 0.832954 0.419113 0.844390
Si Si4 0.174281 0.922242 0.234811
Si Si5 0.174124 0.179576 0.697874
Si Si6 0.176640 0.923768 0.543714
Si Si7 0.674923 0.679469 0.391005
O O1 0.249633 0.602241 0.960968
O O2 0.168363 0.500000 0.000000
O O3 0.000000 0.602001 0.000000
O O4 0.248739 0.102977 0.117047
O O5 0.000000 0.101841 0.077674
O O6 0.168846 0.000000 0.078089
O O7 0.832278 0.500000 0.845205
O O8 0.752527 0.400342 0.804727
O O9 0.000000 0.397412 0.844768
O O10 0.215957 0.875942 0.270856
O O11 0.000000 0.918191 0.229546
O O12 0.209383 0.000000 0.241979
O O13 0.250000 0.250000 0.705624
O O14 0.208682 0.159599 0.653460
O O15 0.000000 0.188121 0.700109
O O16 0.221233 0.904107 0.500000
O O17 0.224046 0.874193 0.577365
O O18 0.000000 0.923724 0.544084
O O19 0.222254 0.000000 0.550408
O O20 0.500000 0.686410 0.393777
O O21 0.750000 0.750000 0.398204
#
# Coordination Sequence:
#
# PCOD9494444 Si02
#       7
#     8  16  16  16  16  16  16
#     4   9  15  21  29  43  65  95 134 177 216 257
#     4   9  15  22  32  46  67  98 135 173 213 257
#     4   9  16  25  37  54  76 102 133 170 213 259
#     4   9  17  29  44  62  83 107 139 178 217 258
#     4   9  18  31  46  64  87 115 144 177 219 264
#     4   8  14  25  42  65  91 117 147 184 222 258
#     4   9  17  29  45  65  88 114 145 180 218 261
#
# _framework density 16.270762000000001
#
# number of rings (size 3 to 8) (size 9 to 14) (size 15 to 20)
#    0.000    3.154    0.000    1.615    0.000    6.154 
#    0.000    3.077    0.000    0.462    0.000    5.385 
#    0.000    0.000    0.000    0.692    0.000   10.154 
#
# Total GULP energy -289546.578454 kJ/mol
# GULP energy per Si atom -5568.203432 kJ/mol
# Density = 1.623373 g / cm^3
# Si number density = 16.270762 Si / 1000 Ang^3
#
#
#
# Elastic Constant Matrix: (Units=GPa)
#
#
# Indices 1 2 3 4 5 6 
#
# 1 60.7468 32.8419 69.8414 0.0000 0.0000 0.0000
# 2 32.8419 48.2933 83.8874 0.0000 0.0000 0.0000
# 3 69.8414 83.8874 191.4936 0.0000 0.0000 0.0000
# 4 0.0000 0.0000 0.0000 -2.8965 0.0000 0.0000
# 5 0.0000 0.0000 0.0000 0.0000 17.6061 0.0000
# 6 0.0000 0.0000 0.0000 0.0000 0.0000 14.8378
#
#
#
# Elastic Compliance Matrix: (Units=1/GPa)
#
#
# Indices 1 2 3 4 5 6 
#
# 1 0.028705 -0.005586 -0.008022 0.000000 0.000000 0.000000
# 2 -0.005586 0.087706 -0.036384 0.000000 0.000000 0.000000
# 3 -0.008022 -0.036384 0.024087 0.000000 0.000000 0.000000
# 4 0.000000 0.000000 0.000000 -0.345244 0.000000 0.000000
# 5 0.000000 0.000000 0.000000 0.000000 0.056798 0.000000
# 6 0.000000 0.000000 0.000000 0.000000 0.000000 0.067395
#
#
# Mechanical properties :
#
#
# Convention : Reuss Voigt Hill
#
# Bulk Modulus (GPa) = 24.68326 74.85282 49.76804
# Shear Modulus (GPa) = 151.81172 13.50702 82.65937
#
# Velocity S-wave (km/s) = 9.66985 2.88434 7.13531
# Velocity P-wave (km/s) = 11.82700 7.56287 9.92660
#
# Compressibility (1/GPa) = 0.04051330
#
# Stress axis : x y z
#
# Youngs Moduli (GPa) = 34.83716 11.40177 41.51681
#
# Poissons Ratio (x) = 0.06369 0.33306
# Poissons Ratio (y) = 0.19460 1.51054
# Poissons Ratio (z) = 0.27947 0.41484
#
# Static dielectric constant tensor:
#      x y z
#    x 1.544490 0.000000 0.000000 
#    y 0.000000 1.515150 0.000000 
#    z 0.000000 0.000000 1.547540 
# 
# From -- ./inp_files/77011.got.cif
#   From: 2010.05.17/outbox.cif.g08.bks.cpg/sg65_39_cif.got.tgz:77011.got - 2010.06.03 17:01:31.
