data_PCOD9494252
_publ_section_title
;
Structure prediction by ZEFSAII (Michael W. Deem and Ramdas Pophale) SiO2 
 PCOD9494252
Probable space group: C M M M
;
_chemical_formula_sum "Si O2"
_cell_formula_units_Z 72
_cell_length_a 26.531075
_cell_length_b 7.295571
_cell_length_c 20.804367
_cell_angle_alpha 90.000000
_cell_angle_beta 90.000000
_cell_angle_gamma 90.000000
_cell_volume 4026.879574
_symmetry_space_group_name_H-M "C M M M"
_symmetry_group_IT_number 65
_symmetry_cell_setting 'orthorhombic'
loop_
_space_group_symop_operation_xyz
x,y,z
-x,-y,z
x,-y,-z
-x,y,-z
-x,-y,-z
x,y,-z
-x,y,z
x,-y,z
1/2+x,1/2+y,z
1/2-x,1/2-y,z
1/2+x,1/2-y,-z
1/2-x,1/2+y,-z
1/2-x,1/2-y,-z
1/2+x,1/2+y,-z
1/2-x,1/2+y,z
1/2+x,1/2-y,z
loop_
_atom_site_type_symbol
_atom_site_label
_atom_site_fract_x
_atom_site_fract_y
_atom_site_fract_z
Si Si1 0.098222 0.276204 0.345187
Si Si2 0.000000 0.723116 0.426005
Si Si3 0.058959 0.276710 0.209307
Si Si4 0.692477 0.781595 0.573115
Si Si5 0.439921 0.778902 0.069195
O O1 0.098390 0.500000 0.344444
O O2 0.089378 0.217123 0.271889
O O3 0.149550 0.213711 0.378920
O O4 0.050112 0.220987 0.387969
O O5 0.000000 0.500000 0.426418
O O6 0.000000 0.782589 0.500000
O O7 0.059231 0.500000 0.208760
O O8 0.078419 0.215716 0.139131
O O9 0.000000 0.224345 0.216452
O O10 0.686833 0.710317 0.500000
O O11 0.750000 0.750000 0.593849
O O12 0.685679 0.000000 0.569369
O O13 0.500000 0.741038 0.069517
O O14 0.434819 0.000000 0.068689
O O15 0.419841 0.712695 0.000000
#
# Coordination Sequence:
#
# PCOD9494252 Si02
#       5
#    16   8  16  16  16
#     4   9  14  20  30  46  67  88 109 136 171 210
#     4   9  14  18  26  42  64  86 104 128 167 210
#     4   8  11  15  23  37  60  86 107 130 165 203
#     4   9  17  28  40  53  69  90 117 148 179 208
#     4   7   9  12  18  29  48  78 112 135 150 182
#
# _framework density 17.879847999999999
#
# number of rings (size 3 to 8) (size 9 to 14) (size 15 to 20)
#    0.000    3.667    1.111    2.667    0.000    2.667 
#    0.000    0.000    0.000    0.000    0.000    0.778 
#    0.000    5.333    0.000    0.667    0.000    1.556 
#
# Total GULP energy -200520.764008 kJ/mol
# GULP energy per Si atom -5570.021222 kJ/mol
# Density = 1.783915 g / cm^3
# Si number density = 17.879848 Si / 1000 Ang^3
#
#
#
# Elastic Constant Matrix: (Units=GPa)
#
#
# Indices 1 2 3 4 5 6 
#
# 1 104.4305 1.8509 97.1023 0.0000 0.0000 0.0000
# 2 1.8509 72.7335 7.3535 0.0000 0.0000 0.0000
# 3 97.1023 7.3535 219.8129 0.0000 0.0000 0.0000
# 4 0.0000 0.0000 0.0000 -14.2810 0.0000 0.0000
# 5 0.0000 0.0000 0.0000 0.0000 17.8371 0.0000
# 6 0.0000 0.0000 0.0000 0.0000 0.0000 90.2209
#
#
#
# Elastic Compliance Matrix: (Units=1/GPa)
#
#
# Indices 1 2 3 4 5 6 
#
# 1 0.016258 0.000313 -0.007192 0.000000 0.000000 0.000000
# 2 0.000313 0.013802 -0.000600 0.000000 0.000000 0.000000
# 3 -0.007192 -0.000600 0.007747 0.000000 0.000000 0.000000
# 4 0.000000 0.000000 0.000000 -0.070023 0.000000 0.000000
# 5 0.000000 0.000000 0.000000 0.000000 0.056063 0.000000
# 6 0.000000 0.000000 0.000000 0.000000 0.000000 0.011084
#
#
# Mechanical properties :
#
#
# Convention : Reuss Voigt Hill
#
# Bulk Modulus (GPa) = 43.76791 67.73224 55.75007
# Shear Modulus (GPa) = 86.95011 38.13341 62.54176
#
# Velocity S-wave (km/s) = 6.98110 4.62319 5.92071
# Velocity P-wave (km/s) = 9.46114 8.15246 8.83107
#
# Compressibility (1/GPa) = 0.02284779
#
# Stress axis : x y z
#
# Youngs Moduli (GPa) = 61.50864 72.45575 129.08819
#
# Poissons Ratio (x) = -0.02271 0.92845
# Poissons Ratio (y) = -0.01928 0.07747
# Poissons Ratio (z) = 0.44239 0.04349
#
# Static dielectric constant tensor:
#      x y z
#    x 1.557730 0.000000 0.000000 
#    y 0.000000 1.722160 0.000000 
#    z 0.000000 0.000000 1.659680 
# 
# From -- ./inp_files/59530.got.cif
#   From: 2010.05.17/outbox.cif.g08.bks.cpg/sg65_30_cif.got.tgz:59530.got - 2010.06.03 17:01:31.
