data_PCOD9494372
_publ_section_title
;
Structure prediction by ZEFSAII (Michael W. Deem and Ramdas Pophale) SiO2 
 PCOD9494372
Probable space group: C M M M
;
_chemical_formula_sum "Si O2"
_cell_formula_units_Z 88
_cell_length_a 14.909654
_cell_length_b 7.501552
_cell_length_c 33.194057
_cell_angle_alpha 90.000000
_cell_angle_beta 90.000000
_cell_angle_gamma 90.000000
_cell_volume 3712.607389
_symmetry_space_group_name_H-M "C M M M"
_symmetry_group_IT_number 65
_symmetry_cell_setting 'orthorhombic'
loop_
_space_group_symop_operation_xyz
x,y,z
-x,-y,z
x,-y,-z
-x,y,-z
-x,-y,-z
x,y,-z
-x,y,z
x,-y,z
1/2+x,1/2+y,z
1/2-x,1/2-y,z
1/2+x,1/2-y,-z
1/2-x,1/2+y,-z
1/2-x,1/2-y,-z
1/2+x,1/2+y,-z
1/2-x,1/2+y,z
1/2+x,1/2-y,z
loop_
_atom_site_type_symbol
_atom_site_label
_atom_site_fract_x
_atom_site_fract_y
_atom_site_fract_z
Si Si1 0.390235 0.500000 0.045931
Si Si2 0.145519 0.212671 0.370560
Si Si3 0.397612 0.787319 0.804658
Si Si4 0.642531 0.714300 0.543341
Si Si5 0.610039 0.204768 0.891303
Si Si6 0.898929 0.213719 0.718376
O O1 0.500000 0.500000 0.044928
O O2 0.362612 0.329012 0.072043
O O3 0.358702 0.500000 0.000000
O O4 0.250000 0.250000 0.374880
O O5 0.106624 0.280283 0.413302
O O6 0.126386 0.283829 0.325790
O O7 0.126694 0.000000 0.369467
O O8 0.500000 0.714092 0.802707
O O9 0.358811 0.724828 0.847333
O O10 0.353388 0.754803 0.761157
O O11 0.403217 0.000000 0.808987
O O12 0.607977 0.780940 0.500000
O O13 0.630201 0.500000 0.543591
O O14 0.750000 0.750000 0.542749
O O15 0.500000 0.206705 0.889471
O O16 0.637459 0.000000 0.896976
O O17 0.000000 0.279190 0.723494
O O18 0.896878 0.000000 0.715415
#
# Coordination Sequence:
#
# PCOD9494372 Si02
#       6
#     8  16  16  16  16  16
#     4   9  16  22  30  46  66  94 132 168 207 255
#     4   9  17  28  41  59  82 106 133 165 204 251
#     4   8  14  24  37  53  71  93 126 167 204 237
#     4   8  13  22  37  55  74  97 127 163 198 234
#     4   8  14  23  33  46  66  92 125 169 210 244
#     4   9  17  27  40  58  79 104 133 169 207 244
#
# _framework density 23.703016999999999
#
# number of rings (size 3 to 8) (size 9 to 14) (size 15 to 20)
#    0.000    3.545    0.000    1.091    1.273    1.091 
#    0.000    1.818    0.000    0.545    0.000    3.818 
#    0.000    0.000    0.000   34.000    0.000   19.455 
#
# Total GULP energy -244979.548711 kJ/mol
# GULP energy per Si atom -5567.717016 kJ/mol
# Density = 2.364907 g / cm^3
# Si number density = 23.703017 Si / 1000 Ang^3
#
#
#
# Elastic Constant Matrix: (Units=GPa)
#
#
# Indices 1 2 3 4 5 6 
#
# 1 50.8573 -4.3418 19.7930 0.0000 0.0000 0.0000
# 2 -4.3418 86.0821 61.5729 0.0000 0.0000 0.0000
# 3 19.7930 61.5729 349.1782 0.0000 0.0000 0.0000
# 4 0.0000 0.0000 0.0000 0.7364 0.0000 0.0000
# 5 0.0000 0.0000 0.0000 0.0000 11.5033 0.0000
# 6 0.0000 0.0000 0.0000 0.0000 0.0000 -3.1425
#
#
#
# Elastic Compliance Matrix: (Units=1/GPa)
#
#
# Indices 1 2 3 4 5 6 
#
# 1 0.020442 0.002128 -0.001534 0.000000 0.000000 0.000000
# 2 0.002128 0.013515 -0.002504 0.000000 0.000000 0.000000
# 3 -0.001534 -0.002504 0.003392 0.000000 0.000000 0.000000
# 4 0.000000 0.000000 0.000000 1.357972 0.000000 0.000000
# 5 0.000000 0.000000 0.000000 0.000000 0.086931 0.000000
# 6 0.000000 0.000000 0.000000 0.000000 0.000000 -0.318217
#
#
# Mechanical properties :
#
#
# Convention : Reuss Voigt Hill
#
# Bulk Modulus (GPa) = 29.82412 71.12952 50.47682
# Shear Modulus (GPa) = 4.24077 29.09235 16.66656
#
# Velocity S-wave (km/s) = 1.33903 3.50718 2.65456
# Velocity P-wave (km/s) = 3.87304 6.81720 5.54412
#
# Compressibility (1/GPa) = 0.03352991
#
# Stress axis : x y z
#
# Youngs Moduli (GPa) = 48.91988 73.99114 294.78151
#
# Poissons Ratio (x) = -0.15747 0.45220
# Poissons Ratio (y) = -0.10412 0.73809
# Poissons Ratio (z) = 0.07504 0.18526
#
# Static dielectric constant tensor:
#      x y z
#    x 2.114920 0.000000 0.000000 
#    y 0.000000 1.790220 0.000000 
#    z 0.000000 0.000000 2.006170 
# 
# From -- ./inp_files/77875.got.cif
#   From: 2010.05.17/outbox.cif.g08.bks.cpg/sg65_39_cif.got.tgz:77875.got - 2010.06.03 17:01:31.
