data_PCOD9494841
_publ_section_title
;
Structure prediction by ZEFSAII (Michael W. Deem and Ramdas Pophale) SiO2 
 PCOD9494841
Probable space group: C M M M
;
_chemical_formula_sum "Si O2"
_cell_formula_units_Z 36
_cell_length_a 9.000000
_cell_length_b 18.000000
_cell_length_c 24.000000
_cell_angle_alpha 90.000000
_cell_angle_beta 90.000000
_cell_angle_gamma 90.000000
_cell_volume 3888.000000
_symmetry_space_group_name_H-M "C M M M"
_symmetry_group_IT_number 65
_symmetry_cell_setting 'orthorhombic'
loop_
_space_group_symop_operation_xyz
x,y,z
-x,-y,z
x,-y,-z
-x,y,-z
-x,-y,-z
x,y,-z
-x,y,z
x,-y,z
1/2+x,1/2+y,z
1/2-x,1/2-y,z
1/2+x,1/2-y,-z
1/2-x,1/2+y,-z
1/2-x,1/2-y,-z
1/2+x,1/2+y,-z
1/2-x,1/2+y,z
1/2+x,1/2-y,z
loop_
_atom_site_type_symbol
_atom_site_label
_atom_site_fract_x
_atom_site_fract_y
_atom_site_fract_z
Si Si1 0.681012 0.333034 0.780190
Si Si2 0.178641 0.410423 0.889948
Si Si3 0.677354 0.089148 0.671058
Si Si4 0.678868 0.332201 0.435653
Si Si5 0.181460 0.166693 0.000000
O O1 0.500000 0.331199 0.781150
O O2 0.750000 0.250000 0.781340
O O3 0.745415 0.376288 0.834430
O O4 0.740443 0.372661 0.723689
O O5 0.196177 0.500000 0.890476
O O6 0.255928 0.374920 0.944734
O O7 0.000000 0.394573 0.890098
O O8 0.500000 0.106336 0.672826
O O9 0.747646 0.118664 0.613061
O O10 0.694026 0.000000 0.674648
O O11 0.706644 0.357680 0.500000
O O12 0.500000 0.328780 0.428113
O O13 0.750000 0.250000 0.430932
O O14 0.250000 0.250000 0.000000
O O15 0.000000 0.168358 0.000000
#
# Coordination Sequence:
#
# PCOD9494841 Si02
#       5
#    16  16  16  16   8
#     4  12  25  42  65  91 122 159 202 250 300 358
#     4  11  24  43  66  93 127 163 201 249 305 360
#     4  11  24  41  61  87 121 159 199 246 301 359
#     4  10  21  38  61  88 119 156 199 247 298 355
#     4  12  25  42  65  93 127 165 209 254 299 356
#
# _framework density 9.2592590000000001
#
# number of rings (size 3 to 8) (size 9 to 14) (size 15 to 20)
#    0.000    0.889    0.000    7.333    0.000    9.333 
#    0.000    2.222    0.000    0.000    0.000    0.000 
#    0.000    0.000    0.000    0.000    0.000    0.000 
#
# Total GULP energy -201396.555102 kJ/mol
# GULP energy per Si atom -5594.348753 kJ/mol
# Density = 0.923818 g / cm^3
# Si number density = 9.259259 Si / 1000 Ang^3
#
#
#
# Elastic Constant Matrix: (Units=GPa)
#
#
# Indices 1 2 3 4 5 6 
#
# 1 212.3923 84.6127 103.3624 0.0000 0.0000 0.0000
# 2 84.6127 138.2124 92.0604 0.0000 0.0000 0.0000
# 3 103.3624 92.0604 206.9615 0.0000 0.0000 0.0000
# 4 0.0000 0.0000 0.0000 45.4019 0.0000 0.0000
# 5 0.0000 0.0000 0.0000 0.0000 46.3367 0.0000
# 6 0.0000 0.0000 0.0000 0.0000 0.0000 39.2951
#
#
#
# Elastic Compliance Matrix: (Units=1/GPa)
#
#
# Indices 1 2 3 4 5 6 
#
# 1 0.006876 -0.002732 -0.002219 0.000000 0.000000 0.000000
# 2 -0.002732 0.011367 -0.003692 0.000000 0.000000 0.000000
# 3 -0.002219 -0.003692 0.007582 0.000000 0.000000 0.000000
# 4 0.000000 0.000000 0.000000 0.022026 0.000000 0.000000
# 5 0.000000 0.000000 0.000000 0.000000 0.021581 0.000000
# 6 0.000000 0.000000 0.000000 0.000000 0.000000 0.025448
#
#
# Mechanical properties :
#
#
# Convention : Reuss Voigt Hill
#
# Bulk Modulus (GPa) = 117.09460 124.18194 120.63827
# Shear Modulus (GPa) = 43.47353 44.70879 44.09116
#
# Velocity S-wave (km/s) = 4.85043 4.91886 4.88476
# Velocity P-wave (km/s) = 9.73331 9.97317 9.85397
#
# Compressibility (1/GPa) = 0.00854010
#
# Stress axis : x y z
#
# Youngs Moduli (GPa) = 145.42330 87.97761 131.88456
#
# Poissons Ratio (x) = 0.24031 0.29269
# Poissons Ratio (y) = 0.39723 0.48690
# Poissons Ratio (z) = 0.32273 0.32480
#
# Static dielectric constant tensor:
#      x y z
#    x 1.624560 0.000000 0.000000 
#    y 0.000000 1.624360 0.000000 
#    z 0.000000 0.000000 1.620760 
# 
# From -- ./inp_files/67071.got.cif
#   From: 2010.05.17/outbox.ucp.g08.bks.cvg/sg65_34_cif.got.tgz:67071.got - 2010.06.11 16:39:57.
