data_PCOD9494712
_publ_section_title
;
Structure prediction by ZEFSAII (Michael W. Deem and Ramdas Pophale) SiO2 
 PCOD9494712
Probable space group: C M M M
;
_chemical_formula_sum "Si O2"
_cell_formula_units_Z 44
_cell_length_a 30.000000
_cell_length_b 18.000000
_cell_length_c 9.000000
_cell_angle_alpha 90.000000
_cell_angle_beta 90.000000
_cell_angle_gamma 90.000000
_cell_volume 4860.000000
_symmetry_space_group_name_H-M "C M M M"
_symmetry_group_IT_number 65
_symmetry_cell_setting 'orthorhombic'
loop_
_space_group_symop_operation_xyz
x,y,z
-x,-y,z
x,-y,-z
-x,y,-z
-x,-y,-z
x,y,-z
-x,y,z
x,-y,z
1/2+x,1/2+y,z
1/2-x,1/2-y,z
1/2+x,1/2-y,-z
1/2-x,1/2+y,-z
1/2-x,1/2-y,-z
1/2+x,1/2+y,-z
1/2-x,1/2+y,z
1/2+x,1/2-y,z
loop_
_atom_site_type_symbol
_atom_site_label
_atom_site_fract_x
_atom_site_fract_y
_atom_site_fract_z
Si Si1 0.774874 0.328698 0.319990
Si Si2 0.550489 0.086622 0.821169
Si Si3 0.089498 0.858431 0.320656
Si Si4 0.751796 0.000000 0.680596
Si Si5 0.500000 0.412796 0.822489
Si Si6 0.877878 0.305133 0.678258
Si Si7 0.146232 0.000000 0.319909
O O1 0.768957 0.329392 0.500000
O O2 0.750000 0.250000 0.272073
O O3 0.763859 0.415293 0.272695
O O4 0.826702 0.318798 0.281647
O O5 0.500000 0.108260 0.775715
O O6 0.587929 0.137817 0.751052
O O7 0.556915 0.000000 0.780948
O O8 0.552468 0.091436 0.000000
O O9 0.084887 0.861707 0.500000
O O10 0.108961 0.778675 0.281214
O O11 0.042761 0.873233 0.244639
O O12 0.121304 0.925689 0.272406
O O13 0.746550 0.000000 0.500000
O O14 0.803150 0.000000 0.726003
O O15 0.500000 0.500000 0.778338
O O16 0.500000 0.409166 0.000000
O O17 0.881261 0.312122 0.500000
O O18 0.145977 0.000000 0.500000
#
# Coordination Sequence:
#
# PCOD9494712 Si02
#       7
#    16  16  16   8   8  16   8
#     4   9  17  30  47  74 113 143 171 218 270 323
#     4   9  20  39  58  75 101 141 183 219 264 325
#     4  10  20  34  52  76 108 144 178 216 265 316
#     4   9  16  26  47  74 102 141 176 207 263 322
#     4  11  23  37  53  77 106 139 184 231 273 316
#     4  10  21  33  53  84 113 139 175 223 272 318
#     4   9  16  29  50  73 102 143 183 208 247 316
#
# _framework density 9.0534979999999994
#
# number of rings (size 3 to 8) (size 9 to 14) (size 15 to 20)
#    0.000    2.455    0.909    1.909    2.545    6.182 
#    0.000    0.909    0.000    0.545    0.000    2.545 
#    0.000    0.000    0.000    0.000    0.000    0.000 
#
# Total GULP energy -245023.013662 kJ/mol
# GULP energy per Si atom -5568.704856 kJ/mol
# Density = 0.903289 g / cm^3
# Si number density = 9.053498 Si / 1000 Ang^3
#
#
#
# Elastic Constant Matrix: (Units=GPa)
#
#
# Indices 1 2 3 4 5 6 
#
# 1 184.6465 135.9359 30.4103 0.0000 0.0000 0.0000
# 2 135.9359 186.3619 31.1447 0.0000 0.0000 0.0000
# 3 30.4103 31.1447 -2.1714 0.0000 0.0000 0.0000
# 4 0.0000 0.0000 0.0000 22.5111 0.0000 0.0000
# 5 0.0000 0.0000 0.0000 0.0000 -11.9969 0.0000
# 6 0.0000 0.0000 0.0000 0.0000 0.0000 61.7722
#
#
#
# Elastic Compliance Matrix: (Units=1/GPa)
#
#
# Indices 1 2 3 4 5 6 
#
# 1 0.010693 -0.009664 0.011152 0.000000 0.000000 0.000000
# 2 -0.009664 0.010313 0.012578 0.000000 0.000000 0.000000
# 3 0.011152 0.012578 -0.123938 0.000000 0.000000 0.000000
# 4 0.000000 0.000000 0.000000 0.044423 0.000000 0.000000
# 5 0.000000 0.000000 0.000000 0.000000 -0.083355 0.000000
# 6 0.000000 0.000000 0.000000 0.000000 0.000000 0.016189
#
#
# Mechanical properties :
#
#
# Convention : Reuss Voigt Hill
#
# Bulk Modulus (GPa) = -13.36911 84.86875 35.74982
# Shear Modulus (GPa) = -27.97340 25.88033 -1.04653
#
# Velocity S-wave (km/s) = -3.93478 3.78471 -0.76107
# Velocity P-wave (km/s) = 5.29554 8.12842 4.36053
#
# Compressibility (1/GPa) = -0.07479929
#
# Stress axis : x y z
#
# Youngs Moduli (GPa) = 93.51501 96.96655 -8.06854
#
# Poissons Ratio (x) = 0.93706 0.08998
# Poissons Ratio (y) = 0.90371 0.10149
# Poissons Ratio (z) = -1.04290 -1.21963
#
# Static dielectric constant tensor:
#      x y z
#    x 1.615560 0.000000 0.000000 
#    y 0.000000 1.632480 0.000000 
#    z 0.000000 0.000000 1.599420 
# 
# From -- ./inp_files/18402.got.cif
#   From: 2010.05.17/outbox.ucp.g08.bks.cvg/sg65_10_cif.got.tgz:18402.got - 2010.06.11 16:39:57.
