data_PCOD9494720
_publ_section_title
;
Structure prediction by ZEFSAII (Michael W. Deem and Ramdas Pophale) SiO2 
 PCOD9494720
Probable space group: C M M M
;
_chemical_formula_sum "Si O2"
_cell_formula_units_Z 44
_cell_length_a 9.000000
_cell_length_b 18.000000
_cell_length_c 30.000000
_cell_angle_alpha 90.000000
_cell_angle_beta 90.000000
_cell_angle_gamma 90.000000
_cell_volume 4860.000000
_symmetry_space_group_name_H-M "C M M M"
_symmetry_group_IT_number 65
_symmetry_cell_setting 'orthorhombic'
loop_
_space_group_symop_operation_xyz
x,y,z
-x,-y,z
x,-y,-z
-x,y,-z
-x,-y,-z
x,y,-z
-x,y,z
x,-y,z
1/2+x,1/2+y,z
1/2-x,1/2-y,z
1/2+x,1/2-y,-z
1/2-x,1/2+y,-z
1/2-x,1/2-y,-z
1/2+x,1/2+y,-z
1/2-x,1/2+y,z
1/2+x,1/2-y,z
loop_
_atom_site_type_symbol
_atom_site_label
_atom_site_fract_x
_atom_site_fract_y
_atom_site_fract_z
Si Si1 0.828588 0.910424 0.091250
Si Si2 0.671343 0.909369 0.000000
Si Si3 0.823097 0.669023 0.726751
Si Si4 0.326211 0.589564 0.355152
Si Si5 0.319770 0.588181 0.452081
Si Si6 0.677623 0.831372 0.826511
O O1 0.742478 0.880639 0.134046
O O2 0.000000 0.886449 0.092740
O O3 0.825064 0.000000 0.091492
O O4 0.753169 0.885151 0.045090
O O5 0.500000 0.886049 0.000000
O O6 0.673894 0.000000 0.000000
O O7 0.750000 0.750000 0.723161
O O8 0.762674 0.619968 0.686588
O O9 0.787077 0.639589 0.776552
O O10 0.000000 0.675959 0.723793
O O11 0.500000 0.610502 0.350627
O O12 0.319831 0.500000 0.355915
O O13 0.269593 0.617179 0.403825
O O14 0.268221 0.619597 0.500000
O O15 0.500000 0.593213 0.451428
O O16 0.285198 0.500000 0.452743
O O17 0.500000 0.825792 0.830412
O O18 0.750000 0.750000 0.829912
#
# Coordination Sequence:
#
# PCOD9494720 Si02
#       6
#    16   8  16  16  16  16
#     4  10  20  34  54  80 108 137 169 205 245 290
#     4   9  17  31  52  77 106 139 172 205 243 289
#     4  10  21  36  53  71  95 130 168 206 249 299
#     4   9  17  29  48  75 103 129 160 201 246 292
#     4   7  10  19  38  65  95 125 157 193 235 285
#     4  10  21  37  55  74  98 130 168 208 252 300
#
# _framework density 9.0534979999999994
#
# number of rings (size 3 to 8) (size 9 to 14) (size 15 to 20)
#    0.000    2.818    0.000    3.545    0.000    5.455 
#    0.000    4.091    0.000    1.091    0.000    2.545 
#    0.000    0.000    0.000    0.000    0.000    0.000 
#
# Total GULP energy -245109.845558 kJ/mol
# GULP energy per Si atom -5570.678308 kJ/mol
# Density = 0.903289 g / cm^3
# Si number density = 9.053498 Si / 1000 Ang^3
#
#
#
# Elastic Constant Matrix: (Units=GPa)
#
#
# Indices 1 2 3 4 5 6 
#
# 1 84.1748 18.2211 82.1848 0.0000 0.0000 0.0000
# 2 18.2211 6.2161 33.9442 0.0000 0.0000 0.0000
# 3 82.1848 33.9442 209.7039 0.0000 0.0000 0.0000
# 4 0.0000 0.0000 0.0000 288.0946 0.0000 0.0000
# 5 0.0000 0.0000 0.0000 0.0000 22.3411 0.0000
# 6 0.0000 0.0000 0.0000 0.0000 0.0000 23.8483
#
#
#
# Elastic Compliance Matrix: (Units=1/GPa)
#
#
# Indices 1 2 3 4 5 6 
#
# 1 0.054200 -0.369361 0.038546 0.000000 0.000000 0.000000
# 2 -0.369361 3.902754 -0.486972 0.000000 0.000000 0.000000
# 3 0.038546 -0.486972 0.068487 0.000000 0.000000 0.000000
# 4 0.000000 0.000000 0.000000 0.003471 0.000000 0.000000
# 5 0.000000 0.000000 0.000000 0.000000 0.044761 0.000000
# 6 0.000000 0.000000 0.000000 0.000000 0.000000 0.041932
#
#
# Mechanical properties :
#
#
# Convention : Reuss Voigt Hill
#
# Bulk Modulus (GPa) = 0.41843 63.19946 31.80895
# Shear Modulus (GPa) = 0.76362 77.90643 39.33502
#
# Velocity S-wave (km/s) = 0.65011 6.56651 4.66592
# Velocity P-wave (km/s) = 0.89169 9.61619 6.82884
#
# Compressibility (1/GPa) = 2.38986650
#
# Stress axis : x y z
#
# Youngs Moduli (GPa) = 18.45014 0.25623 14.60130
#
# Poissons Ratio (x) = 0.09464 -0.56282
# Poissons Ratio (y) = 6.81476 7.11043
# Poissons Ratio (z) = -0.71118 0.12478
#
# Static dielectric constant tensor:
#      x y z
#    x 1.606330 0.000000 0.000000 
#    y 0.000000 1.603040 0.000000 
#    z 0.000000 0.000000 1.655570 
# 
# From -- ./inp_files/67518.got.cif
#   From: 2010.05.17/outbox.ucp.g08.bks.cvg/sg65_34_cif.got.tgz:67518.got - 2010.06.11 16:39:57.
