data_PCOD9494313
_publ_section_title
;
Structure prediction by ZEFSAII (Michael W. Deem and Ramdas Pophale) SiO2 
 PCOD9494313
Probable space group: C M M M
;
_chemical_formula_sum "Si O2"
_cell_formula_units_Z 72
_cell_length_a 7.292636
_cell_length_b 29.478247
_cell_length_c 16.399664
_cell_angle_alpha 90.000000
_cell_angle_beta 90.000000
_cell_angle_gamma 90.000000
_cell_volume 3525.503423
_symmetry_space_group_name_H-M "C M M M"
_symmetry_group_IT_number 65
_symmetry_cell_setting 'orthorhombic'
loop_
_space_group_symop_operation_xyz
x,y,z
-x,-y,z
x,-y,-z
-x,y,-z
-x,-y,-z
x,y,-z
-x,y,z
x,-y,z
1/2+x,1/2+y,z
1/2-x,1/2-y,z
1/2+x,1/2-y,-z
1/2-x,1/2+y,-z
1/2-x,1/2-y,-z
1/2+x,1/2+y,-z
1/2-x,1/2+y,z
1/2+x,1/2-y,z
loop_
_atom_site_type_symbol
_atom_site_label
_atom_site_fract_x
_atom_site_fract_y
_atom_site_fract_z
Si Si1 0.718767 0.696801 0.321879
Si Si2 0.223158 0.947567 0.908852
Si Si3 0.217642 0.804180 0.500000
Si Si4 0.276090 0.392662 0.751824
Si Si5 0.222725 0.946894 0.409496
O O1 0.500000 0.692619 0.326986
O O2 0.750000 0.750000 0.306528
O O3 0.790126 0.682168 0.411631
O O4 0.781249 0.659681 0.257274
O O5 0.286008 0.916954 0.834054
O O6 0.000000 0.946908 0.908418
O O7 0.276736 0.000000 0.896457
O O8 0.280366 0.933519 0.000000
O O9 0.250000 0.750000 0.500000
O O10 0.000000 0.814271 0.500000
O O11 0.500000 0.394349 0.752953
O O12 0.218157 0.419149 0.669742
O O13 0.280711 0.930583 0.500000
O O14 0.000000 0.945114 0.409696
O O15 0.273241 0.000000 0.402097
#
# Coordination Sequence:
#
# PCOD9494313 Si02
#       5
#    16  16   8  16  16
#     4   9  17  27  39  55  76 103 133 166 199 229
#     4   8  13  21  33  50  73  99 125 154 189 230
#     4   8  14  24  36  50  69  95 127 161 194 224
#     4   9  15  21  33  50  70  98 128 155 188 231
#     4   8  13  19  27  43  69  97 120 144 180 229
#
# _framework density 20.422613999999999
#
# number of rings (size 3 to 8) (size 9 to 14) (size 15 to 20)
#    0.000    3.556    0.000    2.000    1.556    2.667 
#    0.000    0.000    0.000    0.667    0.000    0.000 
#    0.000    3.556    0.000    4.889    0.000    4.444 
#
# Total GULP energy -200714.454437 kJ/mol
# GULP energy per Si atom -5575.401512 kJ/mol
# Density = 2.037613 g / cm^3
# Si number density = 20.422614 Si / 1000 Ang^3
#
#
#
# Elastic Constant Matrix: (Units=GPa)
#
#
# Indices 1 2 3 4 5 6 
#
# 1 85.5578 1.3461 6.6786 0.0000 0.0000 0.0000
# 2 1.3461 126.4550 123.5494 0.0000 0.0000 0.0000
# 3 6.6786 123.5494 197.3432 0.0000 0.0000 0.0000
# 4 0.0000 0.0000 0.0000 29.9197 0.0000 0.0000
# 5 0.0000 0.0000 0.0000 0.0000 -112.1818 0.0000
# 6 0.0000 0.0000 0.0000 0.0000 0.0000 -1.1632
#
#
#
# Elastic Compliance Matrix: (Units=1/GPa)
#
#
# Indices 1 2 3 4 5 6 
#
# 1 0.011741 0.000678 -0.000822 0.000000 0.000000 0.000000
# 2 0.000678 0.020404 -0.012797 0.000000 0.000000 0.000000
# 3 -0.000822 -0.012797 0.013107 0.000000 0.000000 0.000000
# 4 0.000000 0.000000 0.000000 0.033423 0.000000 0.000000
# 5 0.000000 0.000000 0.000000 0.000000 -0.008914 0.000000
# 6 0.000000 0.000000 0.000000 0.000000 0.000000 -0.859734
#
#
# Mechanical properties :
#
#
# Convention : Reuss Voigt Hill
#
# Bulk Modulus (GPa) = 51.62533 74.72270 63.17401
# Shear Modulus (GPa) = -6.59948 1.83374 -2.38287
#
# Velocity S-wave (km/s) = -1.79958 0.94860 -1.08135
# Velocity P-wave (km/s) = 4.58426 6.15365 5.42600
#
# Compressibility (1/GPa) = 0.01937034
#
# Stress axis : x y z
#
# Youngs Moduli (GPa) = 85.16815 49.01107 76.29646
#
# Poissons Ratio (x) = -0.03322 0.06270
# Poissons Ratio (y) = -0.05773 0.97636
# Poissons Ratio (z) = 0.06999 0.62719
#
# Static dielectric constant tensor:
#      x y z
#    x 1.633990 0.000000 0.000000 
#    y 0.000000 1.721000 0.000000 
#    z 0.000000 0.000000 1.715340 
# 
# From -- ./inp_files/45248.got.cif
#   From: 2010.05.17/outbox.cif.g08.bks.cpg/sg65_23_cif.got.tgz:45248.got - 2010.06.03 17:01:31.
