data_PCOD9494194
_publ_section_title
;
Structure prediction by ZEFSAII (Michael W. Deem and Ramdas Pophale) SiO2 
 PCOD9494194
Probable space group: C M M M
;
_chemical_formula_sum "Si O2"
_cell_formula_units_Z 80
_cell_length_a 29.337682
_cell_length_b 7.292936
_cell_length_c 19.337563
_cell_angle_alpha 90.000000
_cell_angle_beta 90.000000
_cell_angle_gamma 90.000000
_cell_volume 4137.423156
_symmetry_space_group_name_H-M "C M M M"
_symmetry_group_IT_number 65
_symmetry_cell_setting 'orthorhombic'
loop_
_space_group_symop_operation_xyz
x,y,z
-x,-y,z
x,-y,-z
-x,y,-z
-x,-y,-z
x,y,-z
-x,y,z
x,-y,z
1/2+x,1/2+y,z
1/2-x,1/2-y,z
1/2+x,1/2-y,-z
1/2-x,1/2+y,-z
1/2-x,1/2-y,-z
1/2+x,1/2+y,-z
1/2-x,1/2+y,z
1/2+x,1/2-y,z
loop_
_atom_site_type_symbol
_atom_site_label
_atom_site_fract_x
_atom_site_fract_y
_atom_site_fract_z
Si Si1 0.106850 0.223763 0.214139
Si Si2 0.944759 0.215358 0.500000
Si Si3 0.552923 0.275897 0.650922
Si Si4 0.804458 0.217683 0.000000
Si Si5 0.446607 0.277307 0.923448
Si Si6 0.303454 0.718745 0.848872
O O1 0.082363 0.284785 0.283915
O O2 0.080585 0.282116 0.144316
O O3 0.159442 0.281096 0.206270
O O4 0.105010 0.000000 0.215188
O O5 0.930468 0.287513 0.575093
O O6 0.000000 0.228224 0.500000
O O7 0.933063 0.000000 0.500000
O O8 0.500000 0.223312 0.659978
O O9 0.553407 0.500000 0.649599
O O10 0.750000 0.250000 0.000000
O O11 0.818173 0.290058 0.925001
O O12 0.814571 0.000000 0.000000
O O13 0.500000 0.227314 0.917811
O O14 0.444634 0.500000 0.923607
O O15 0.429881 0.219118 0.000000
O O16 0.307760 0.500000 0.853218
O O17 0.250000 0.750000 0.836006
#
# Coordination Sequence:
#
# PCOD9494194 Si02
#       6
#    16   8  16   8  16  16
#     4   9  15  20  30  46  65  90 118 144 174 212
#     4   7  10  16  26  40  61  90 117 139 167 205
#     4   8  12  18  28  44  67  92 116 141 171 210
#     4   8  14  24  36  48  63  85 113 147 184 216
#     4   8  13  19  26  39  62  90 114 135 164 206
#     4   9  17  27  38  52  70  93 121 154 189 220
#
# _framework density 19.335706999999999
#
# number of rings (size 3 to 8) (size 9 to 14) (size 15 to 20)
#    0.000    3.700    0.000    2.400    1.400    2.400 
#    0.000    0.000    0.000    0.000    0.000    0.700 
#    0.000    3.200    0.000    2.200    0.000    7.600 
#
# Total GULP energy -222868.320663 kJ/mol
# GULP energy per Si atom -5571.708017 kJ/mol
# Density = 1.929170 g / cm^3
# Si number density = 19.335707 Si / 1000 Ang^3
#
#
#
# Elastic Constant Matrix: (Units=GPa)
#
#
# Indices 1 2 3 4 5 6 
#
# 1 97.8248 0.3987 102.9813 0.0000 0.0000 0.0000
# 2 0.3987 79.5501 8.6465 0.0000 0.0000 0.0000
# 3 102.9813 8.6465 204.9332 0.0000 0.0000 0.0000
# 4 0.0000 0.0000 0.0000 4.7731 0.0000 0.0000
# 5 0.0000 0.0000 0.0000 0.0000 18.4673 0.0000
# 6 0.0000 0.0000 0.0000 0.0000 0.0000 -3.3151
#
#
#
# Elastic Compliance Matrix: (Units=1/GPa)
#
#
# Indices 1 2 3 4 5 6 
#
# 1 0.021797 0.001086 -0.010999 0.000000 0.000000 0.000000
# 2 0.001086 0.012683 -0.001081 0.000000 0.000000 0.000000
# 3 -0.010999 -0.001081 0.010452 0.000000 0.000000 0.000000
# 4 0.000000 0.000000 0.000000 0.209507 0.000000 0.000000
# 5 0.000000 0.000000 0.000000 0.000000 0.054150 0.000000
# 6 0.000000 0.000000 0.000000 0.000000 0.000000 -0.301648
#
#
# Mechanical properties :
#
#
# Convention : Reuss Voigt Hill
#
# Bulk Modulus (GPa) = 43.58350 67.37348 55.47849
# Shear Modulus (GPa) = 136.70416 22.00383 79.35400
#
# Velocity S-wave (km/s) = 8.41747 3.37707 6.41321
# Velocity P-wave (km/s) = 10.81948 7.07996 9.14295
#
# Compressibility (1/GPa) = 0.02294446
#
# Stress axis : x y z
#
# Youngs Moduli (GPa) = 45.87884 78.84727 95.67277
#
# Poissons Ratio (x) = -0.08565 1.05229
# Poissons Ratio (y) = -0.04984 0.10342
# Poissons Ratio (z) = 0.50461 0.08523
#
# Static dielectric constant tensor:
#      x y z
#    x 1.664230 0.000000 0.000000 
#    y 0.000000 1.682460 0.000000 
#    z 0.000000 0.000000 1.691840 
# 
# From -- ./inp_files/51617.got.cif
#   From: 2010.05.17/outbox.cif.g08.bks.cpg/sg65_26_cif.got.tgz:51617.got - 2010.06.03 17:01:31.
