data_PCOD9494730
_publ_section_title
;
Structure prediction by ZEFSAII (Michael W. Deem and Ramdas Pophale) SiO2 
 PCOD9494730
Probable space group: C M M M
;
_chemical_formula_sum "Si O2"
_cell_formula_units_Z 52
_cell_length_a 27.000000
_cell_length_b 9.000000
_cell_length_c 21.000000
_cell_angle_alpha 90.000000
_cell_angle_beta 90.000000
_cell_angle_gamma 90.000000
_cell_volume 5103.000000
_symmetry_space_group_name_H-M "C M M M"
_symmetry_group_IT_number 65
_symmetry_cell_setting 'orthorhombic'
loop_
_space_group_symop_operation_xyz
x,y,z
-x,-y,z
x,-y,-z
-x,y,-z
-x,-y,-z
x,y,-z
-x,y,z
x,-y,z
1/2+x,1/2+y,z
1/2-x,1/2-y,z
1/2+x,1/2-y,-z
1/2-x,1/2+y,-z
1/2-x,1/2-y,-z
1/2+x,1/2+y,-z
1/2-x,1/2+y,z
1/2+x,1/2-y,z
loop_
_atom_site_type_symbol
_atom_site_label
_atom_site_fract_x
_atom_site_fract_y
_atom_site_fract_z
Si Si1 0.440488 0.825070 0.569358
Si Si2 0.598716 0.827767 0.924558
Si Si3 0.700199 0.670256 0.922325
Si Si4 0.804562 0.678190 0.500000
Si Si5 0.802693 0.322572 0.637928
Si Si6 0.556370 0.336504 0.182912
Si Si7 0.896315 0.322000 0.298541
O O1 0.425353 0.761540 0.500000
O O2 0.500000 0.822489 0.570366
O O3 0.423047 0.764070 0.637295
O O4 0.425122 0.000000 0.568126
O O5 0.652126 0.764088 0.904813
O O6 0.559508 0.733102 0.886449
O O7 0.594780 0.000000 0.908369
O O8 0.593797 0.811483 0.000000
O O9 0.697203 0.500000 0.901256
O O10 0.750000 0.750000 0.900190
O O11 0.701618 0.668499 0.000000
O O12 0.800181 0.500000 0.500000
O O13 0.750000 0.750000 0.500000
O O14 0.826045 0.718483 0.431272
O O15 0.797632 0.500000 0.638646
O O16 0.750000 0.250000 0.643179
O O17 0.839553 0.277641 0.692837
O O18 0.500000 0.344883 0.203517
O O19 0.578575 0.500000 0.181916
O O20 0.583169 0.235847 0.233488
O O21 0.900558 0.500000 0.299402
#
# Coordination Sequence:
#
# PCOD9494730 Si02
#       7
#    16  16  16   8  16  16  16
#     4   8  14  25  45  76 108 135 171 225 283 330
#     4  10  21  38  62  91 119 147 186 237 289 343
#     4   9  16  28  50  82 121 160 193 226 268 321
#     4   8  14  26  44  70 105 142 181 225 274 325
#     4   9  18  31  50  77 110 148 187 231 280 331
#     4  11  25  43  61  82 111 148 187 229 285 353
#     4  10  20  34  56  82 109 144 188 235 281 332
#
# _framework density 10.190084000000001
#
# number of rings (size 3 to 8) (size 9 to 14) (size 15 to 20)
#    0.000    2.615    0.000    2.308    1.077    5.538 
#    0.000    2.308    0.000    2.308    0.000    2.154 
#    0.000    0.000    0.000    0.000    0.000    0.000 
#
# Total GULP energy -289616.242385 kJ/mol
# GULP energy per Si atom -5569.543123 kJ/mol
# Density = 1.016689 g / cm^3
# Si number density = 10.190084 Si / 1000 Ang^3
#
#
#
# Elastic Constant Matrix: (Units=GPa)
#
#
# Indices 1 2 3 4 5 6 
#
# 1 60.4499 18.0983 17.9322 0.0000 0.0000 0.0000
# 2 18.0983 18.7530 25.9225 0.0000 0.0000 0.0000
# 3 17.9322 25.9225 0.9412 0.0000 0.0000 0.0000
# 4 0.0000 0.0000 0.0000 8.6927 0.0000 0.0000
# 5 0.0000 0.0000 0.0000 0.0000 37.9197 0.0000
# 6 0.0000 0.0000 0.0000 0.0000 0.0000 16.2695
#
#
#
# Elastic Compliance Matrix: (Units=1/GPa)
#
#
# Indices 1 2 3 4 5 6 
#
# 1 0.022511 -0.015406 -0.004571 0.000000 0.000000 0.000000
# 2 -0.015406 0.009106 0.042746 0.000000 0.000000 0.000000
# 3 -0.004571 0.042746 -0.027732 0.000000 0.000000 0.000000
# 4 0.000000 0.000000 0.000000 0.115038 0.000000 0.000000
# 5 0.000000 0.000000 0.000000 0.000000 0.026371 0.000000
# 6 0.000000 0.000000 0.000000 0.000000 0.000000 0.061465
#
#
# Mechanical properties :
#
#
# Convention : Reuss Voigt Hill
#
# Bulk Modulus (GPa) = 20.23435 22.67221 21.45328
# Shear Modulus (GPa) = 28.13771 13.78913 20.96342
#
# Velocity S-wave (km/s) = 3.71973 2.60397 3.21069
# Velocity P-wave (km/s) = 5.32903 4.49329 4.92890
#
# Compressibility (1/GPa) = 0.04942091
#
# Stress axis : x y z
#
# Youngs Moduli (GPa) = 44.42225 109.82281 -36.05963
#
# Poissons Ratio (x) = 1.69198 -0.16484
# Poissons Ratio (y) = 0.68439 1.54139
# Poissons Ratio (z) = 0.20306 -4.69444
#
# Static dielectric constant tensor:
#      x y z
#    x 1.712870 0.000000 0.000000 
#    y 0.000000 1.714570 0.000000 
#    z 0.000000 0.000000 1.735240 
# 
# From -- ./inp_files/65903.got.cif
#   From: 2010.05.17/outbox.ucp.g08.bks.cvg/sg65_33_cif.got.tgz:65903.got - 2010.06.11 16:39:57.
