data_PCOD9494937
_publ_section_title
;
Structure prediction by ZEFSAII (Michael W. Deem and Ramdas Pophale) SiO2 
 PCOD9494937
Probable space group: C C C M
;
_chemical_formula_sum "Si O2"
_cell_formula_units_Z 88
_cell_length_a 20.700092
_cell_length_b 12.837456
_cell_length_c 18.238081
_cell_angle_alpha 90.000000
_cell_angle_beta 90.000000
_cell_angle_gamma 90.000000
_cell_volume 4846.524181
_symmetry_space_group_name_H-M "C C C M"
_symmetry_group_IT_number 66
_symmetry_cell_setting 'orthorhombic'
loop_
_space_group_symop_operation_xyz
x,y,z
-x,-y,z
x,-y,1/2-z
-x,y,1/2-z
-x,-y,-z
x,y,-z
-x,y,1/2+z
x,-y,1/2+z
1/2+x,1/2+y,z
1/2-x,1/2-y,z
1/2+x,1/2-y,1/2-z
1/2-x,1/2+y,1/2-z
1/2-x,1/2-y,-z
1/2+x,1/2+y,-z
1/2-x,1/2+y,1/2+z
1/2+x,1/2-y,1/2+z
loop_
_atom_site_type_symbol
_atom_site_label
_atom_site_fract_x
_atom_site_fract_y
_atom_site_fract_z
Si Si1 0.939469 0.270649 0.301396
Si Si2 0.243324 0.626971 0.582748
Si Si3 0.837994 0.899410 0.795288
Si Si4 0.353188 0.089515 0.693714
Si Si5 0.750000 0.750000 0.305524
Si Si6 0.092480 0.566820 0.585398
O O1 0.898599 0.168592 0.322397
O O2 0.894847 0.340406 0.248335
O O3 0.948886 0.345406 0.372071
O O4 0.000000 0.244353 0.250000
O O5 0.263953 0.604937 0.500000
O O6 0.250000 0.750000 0.596647
O O7 0.289881 0.570127 0.639134
O O8 0.167728 0.603090 0.588580
O O9 0.795610 0.822951 0.744129
O O10 0.858419 0.000000 0.750000
O O11 0.298390 0.164474 0.658651
O O12 0.326262 0.000000 0.750000
O O13 0.400852 0.036918 0.634552
O O14 0.074967 0.553186 0.500000
#
# Coordination Sequence:
#
# PCOD9494937 Si02
#       6
#    16  16  16  16   8  16
#     4  10  21  36  51  70 101 138 179 225 262 291
#     4  10  17  29  51  81 110 130 158 206 262 314
#     4  11  19  30  52  78 104 137 173 211 256 310
#     4   9  18  31  48  73 102 134 170 211 259 311
#     4  10  16  28  48  74 106 132 162 202 260 318
#     4  10  19  33  55  81 104 130 169 216 262 312
#
# _framework density 18.157343000000001
#
# number of rings (size 3 to 8) (size 9 to 14) (size 15 to 20)
#    0.000    2.000    2.727    3.818    0.000    3.636 
#    0.000    2.273    0.000    5.455    0.000    2.545 
#    0.000    0.000    0.000    0.000    0.000    0.000 
#
# Total GULP energy -245125.432559 kJ/mol
# GULP energy per Si atom -5571.032558 kJ/mol
# Density = 1.811602 g / cm^3
# Si number density = 18.157343 Si / 1000 Ang^3
#
#
#
# Elastic Constant Matrix: (Units=GPa)
#
#
# Indices 1 2 3 4 5 6 
#
# 1 44.5763 12.1169 5.3828 0.0000 0.0000 0.0000
# 2 12.1169 62.1868 15.2000 0.0000 0.0000 0.0000
# 3 5.3828 15.2000 88.9183 0.0000 0.0000 0.0000
# 4 0.0000 0.0000 0.0000 14.9067 0.0000 0.0000
# 5 0.0000 0.0000 0.0000 0.0000 14.0270 0.0000
# 6 0.0000 0.0000 0.0000 0.0000 0.0000 11.3198
#
#
#
# Elastic Compliance Matrix: (Units=1/GPa)
#
#
# Indices 1 2 3 4 5 6 
#
# 1 0.023727 -0.004458 -0.000674 0.000000 0.000000 0.000000
# 2 -0.004458 0.017619 -0.002742 0.000000 0.000000 0.000000
# 3 -0.000674 -0.002742 0.011756 0.000000 0.000000 0.000000
# 4 0.000000 0.000000 0.000000 0.067084 0.000000 0.000000
# 5 0.000000 0.000000 0.000000 0.000000 0.071291 0.000000
# 6 0.000000 0.000000 0.000000 0.000000 0.000000 0.088340
#
#
# Mechanical properties :
#
#
# Convention : Reuss Voigt Hill
#
# Bulk Modulus (GPa) = 26.77164 29.00898 27.89031
# Shear Modulus (GPa) = 16.23284 18.91616 17.57450
#
# Velocity S-wave (km/s) = 2.99324 3.23118 3.11448
# Velocity P-wave (km/s) = 5.16936 5.47100 5.32232
#
# Compressibility (1/GPa) = 0.03735296
#
# Stress axis : x y z
#
# Youngs Moduli (GPa) = 42.14656 56.75541 85.06424
#
# Poissons Ratio (x) = 0.25303 0.05735
# Poissons Ratio (y) = 0.18790 0.23325
# Poissons Ratio (z) = 0.02842 0.15563
#
# Static dielectric constant tensor:
#      x y z
#    x 1.667890 0.000000 0.000000 
#    y 0.000000 1.663380 0.000000 
#    z 0.000000 0.000000 1.637510 
# 
# From -- ./inp_files/38680.got.cif
#   From: 2010.05.17/outbox.cif.g08.bks.cpg/sg66_20_cif.got.tgz:38680.got - 2010.06.03 17:51:23.
