data_PCOD9494879
_publ_section_title
;
Structure prediction by ZEFSAII (Michael W. Deem and Ramdas Pophale) SiO2 
 PCOD9494879
Probable space group: C M M M
;
_chemical_formula_sum "Si O2"
_cell_formula_units_Z 28
_cell_length_a 9.000000
_cell_length_b 18.000000
_cell_length_c 18.000000
_cell_angle_alpha 90.000000
_cell_angle_beta 90.000000
_cell_angle_gamma 90.000000
_cell_volume 2916.000000
_symmetry_space_group_name_H-M "C M M M"
_symmetry_group_IT_number 65
_symmetry_cell_setting 'orthorhombic'
loop_
_space_group_symop_operation_xyz
x,y,z
-x,-y,z
x,-y,-z
-x,y,-z
-x,-y,-z
x,y,-z
-x,y,z
x,-y,z
1/2+x,1/2+y,z
1/2-x,1/2-y,z
1/2+x,1/2-y,-z
1/2-x,1/2+y,-z
1/2-x,1/2-y,-z
1/2+x,1/2+y,-z
1/2-x,1/2+y,z
1/2+x,1/2-y,z
loop_
_atom_site_type_symbol
_atom_site_label
_atom_site_fract_x
_atom_site_fract_y
_atom_site_fract_z
Si Si1 0.677130 0.330923 0.779316
Si Si2 0.174334 0.588451 0.087007
Si Si3 0.321330 0.331681 0.500000
Si Si4 0.675028 0.088883 0.359131
O O1 0.500000 0.327120 0.770745
O O2 0.750000 0.250000 0.772150
O O3 0.722624 0.365389 0.858492
O O4 0.750134 0.382273 0.716149
O O5 0.195899 0.500000 0.098146
O O6 0.000000 0.604373 0.103065
O O7 0.200346 0.604251 0.000000
O O8 0.500000 0.327985 0.500000
O O9 0.250000 0.250000 0.500000
O O10 0.260574 0.374240 0.572261
O O11 0.500000 0.109399 0.360979
O O12 0.684858 0.000000 0.363724
#
# Coordination Sequence:
#
# PCOD9494879 Si02
#       4
#    16  16   8  16
#     4  12  25  40  60  87 121 159 201 249 300 354
#     4   9  19  38  63  89 119 156 197 243 298 359
#     4  12  25  42  65  93 127 161 199 246 295 350
#     4  11  24  43  66  91 122 159 199 244 297 356
#
# _framework density 9.602195
#
# number of rings (size 3 to 8) (size 9 to 14) (size 15 to 20)
#    0.000    1.143    0.000    7.714    0.000    9.143 
#    0.000    1.429    0.000    0.000    0.000    0.000 
#    0.000    0.000    0.000    0.000    0.000    0.000 
#
# Total GULP energy -156681.586384 kJ/mol
# GULP energy per Si atom -5595.770942 kJ/mol
# Density = 0.958034 g / cm^3
# Si number density = 9.602195 Si / 1000 Ang^3
#
#
#
# Elastic Constant Matrix: (Units=GPa)
#
#
# Indices 1 2 3 4 5 6 
#
# 1 197.9972 78.0090 70.7580 0.0000 0.0000 0.0000
# 2 78.0090 88.2076 48.0582 0.0000 0.0000 0.0000
# 3 70.7580 48.0582 83.3351 0.0000 0.0000 0.0000
# 4 0.0000 0.0000 0.0000 51.3989 0.0000 0.0000
# 5 0.0000 0.0000 0.0000 0.0000 -61.1178 0.0000
# 6 0.0000 0.0000 0.0000 0.0000 0.0000 32.1018
#
#
#
# Elastic Compliance Matrix: (Units=1/GPa)
#
#
# Indices 1 2 3 4 5 6 
#
# 1 0.008693 -0.005346 -0.004298 0.000000 0.000000 0.000000
# 2 -0.005346 0.019819 -0.006890 0.000000 0.000000 0.000000
# 3 -0.004298 -0.006890 0.019622 0.000000 0.000000 0.000000
# 4 0.000000 0.000000 0.000000 0.019456 0.000000 0.000000
# 5 0.000000 0.000000 0.000000 0.000000 -0.016362 0.000000
# 6 0.000000 0.000000 0.000000 0.000000 0.000000 0.031151
#
#
# Mechanical properties :
#
#
# Convention : Reuss Voigt Hill
#
# Bulk Modulus (GPa) = 66.37441 84.79893 75.58667
# Shear Modulus (GPa) = 41.50471 15.99090 28.74780
#
# Velocity S-wave (km/s) = 4.65392 2.88873 3.87323
# Velocity P-wave (km/s) = 7.96968 7.44166 7.71019
#
# Compressibility (1/GPa) = 0.01506605
#
# Stress axis : x y z
#
# Youngs Moduli (GPa) = 115.03751 50.45727 50.96265
#
# Poissons Ratio (x) = 0.26975 0.21903
# Poissons Ratio (y) = 0.61501 0.35113
# Poissons Ratio (z) = 0.49441 0.34764
#
# Static dielectric constant tensor:
#      x y z
#    x 1.638030 0.000000 0.000000 
#    y 0.000000 1.645220 0.000000 
#    z 0.000000 0.000000 1.657030 
# 
# From -- ./inp_files/48750.got.cif
#   From: 2010.05.17/outbox.ucp.g08.bks.cvg/sg65_25_cif.got.tgz:48750.got - 2010.06.11 16:39:57.
