data_PCOD9494364
_publ_section_title
;
Structure prediction by ZEFSAII (Michael W. Deem and Ramdas Pophale) SiO2 
 PCOD9494364
Probable space group: C M M M
;
_chemical_formula_sum "Si O2"
_cell_formula_units_Z 120
_cell_length_a 19.840961
_cell_length_b 14.155032
_cell_length_c 24.201144
_cell_angle_alpha 90.000000
_cell_angle_beta 90.000000
_cell_angle_gamma 90.000000
_cell_volume 6796.877688
_symmetry_space_group_name_H-M "C M M M"
_symmetry_group_IT_number 65
_symmetry_cell_setting 'orthorhombic'
loop_
_space_group_symop_operation_xyz
x,y,z
-x,-y,z
x,-y,-z
-x,y,-z
-x,-y,-z
x,y,-z
-x,y,z
x,-y,z
1/2+x,1/2+y,z
1/2-x,1/2-y,z
1/2+x,1/2-y,-z
1/2-x,1/2+y,-z
1/2-x,1/2-y,-z
1/2+x,1/2+y,-z
1/2-x,1/2+y,z
1/2+x,1/2-y,z
loop_
_atom_site_type_symbol
_atom_site_label
_atom_site_fract_x
_atom_site_fract_y
_atom_site_fract_z
Si Si1 0.576392 0.884728 0.000000
Si Si2 0.082023 0.389893 0.438314
Si Si3 0.659384 0.115109 0.108098
Si Si4 0.576617 0.615472 0.857395
Si Si5 0.196208 0.884544 0.063646
Si Si6 0.081886 0.893593 0.732382
Si Si7 0.922004 0.613884 0.784846
Si Si8 0.918028 0.713592 0.328919
O O1 0.615196 0.856714 0.055235
O O2 0.500000 0.850588 0.000000
O O3 0.575073 0.000000 0.000000
O O4 0.103624 0.360104 0.500000
O O5 0.100048 0.500000 0.430482
O O6 0.106419 0.328293 0.386753
O O7 0.000000 0.386550 0.438013
O O8 0.735887 0.143051 0.095618
O O9 0.625346 0.146466 0.165095
O O10 0.658645 0.000000 0.109520
O O11 0.500000 0.647675 0.867796
O O12 0.574981 0.500000 0.857943
O O13 0.630546 0.646019 0.902573
O O14 0.597766 0.639652 0.794692
O O15 0.195531 0.000000 0.062233
O O16 0.197252 0.852732 0.000000
O O17 0.104459 0.818863 0.686934
O O18 0.000000 0.896692 0.731184
O O19 0.106799 0.000000 0.724103
O O20 0.921537 0.500000 0.784042
O O21 0.901124 0.650725 0.724668
O O22 0.000000 0.643664 0.794692
O O23 0.000000 0.713883 0.331610
#
# Coordination Sequence:
#
# PCOD9494364 Si02
#       8
#     8  16  16  16  16  16  16  16
#     4   9  14  20  32  48  69 102 144 182 209 246
#     4   8  13  21  34  55  86 122 155 182 208 247
#     4   9  15  23  33  50  77 108 140 173 212 261
#     4   8  14  24  38  57  78  98 127 174 229 279
#     4   9  15  23  36  55  79 105 135 173 218 275
#     4   8  14  25  40  58  78 100 132 177 226 271
#     4   9  16  24  35  55  82 109 141 181 219 256
#     4   9  15  23  38  58  79 109 145 181 220 258
#
# _framework density 17.655166000000001
#
# number of rings (size 3 to 8) (size 9 to 14) (size 15 to 20)
#    0.000    3.400    0.667    2.000    0.000    3.467 
#    0.000    1.333    0.000    1.200    1.733    3.733 
#    0.000    0.000    0.000    2.400    0.000   23.600 
#
# Total GULP energy -334499.172125 kJ/mol
# GULP energy per Si atom -5574.986202 kJ/mol
# Density = 1.761498 g / cm^3
# Si number density = 17.655166 Si / 1000 Ang^3
#
#
#
# Elastic Constant Matrix: (Units=GPa)
#
#
# Indices 1 2 3 4 5 6 
#
# 1 61.2163 21.8070 57.2990 0.0000 0.0000 0.0000
# 2 21.8070 69.7777 61.5155 0.0000 0.0000 0.0000
# 3 57.2990 61.5155 176.5747 0.0000 0.0000 0.0000
# 4 0.0000 0.0000 0.0000 18.5464 0.0000 0.0000
# 5 0.0000 0.0000 0.0000 0.0000 0.1298 0.0000
# 6 0.0000 0.0000 0.0000 0.0000 0.0000 0.1311
#
#
#
# Elastic Compliance Matrix: (Units=1/GPa)
#
#
# Indices 1 2 3 4 5 6 
#
# 1 0.023501 -0.000897 -0.007314 0.000000 0.000000 0.000000
# 2 -0.000897 0.020718 -0.006927 0.000000 0.000000 0.000000
# 3 -0.007314 -0.006927 0.010450 0.000000 0.000000 0.000000
# 4 0.000000 0.000000 0.000000 0.053919 0.000000 0.000000
# 5 0.000000 0.000000 0.000000 0.000000 7.704373 0.000000
# 6 0.000000 0.000000 0.000000 0.000000 0.000000 7.629983
#
#
# Mechanical properties :
#
#
# Convention : Reuss Voigt Hill
#
# Bulk Modulus (GPa) = 40.99358 65.42350 53.20854
# Shear Modulus (GPa) = 0.32297 14.89127 7.60712
#
# Velocity S-wave (km/s) = 0.42817 2.90737 2.07800
# Velocity P-wave (km/s) = 4.84911 6.95753 5.99671
#
# Compressibility (1/GPa) = 0.02439407
#
# Stress axis : x y z
#
# Youngs Moduli (GPa) = 42.55219 48.26691 95.69595
#
# Poissons Ratio (x) = 0.04329 0.69988
# Poissons Ratio (y) = 0.03816 0.66287
# Poissons Ratio (z) = 0.31121 0.33434
#
# Static dielectric constant tensor:
#      x y z
#    x 1.586420 0.000000 0.000000 
#    y 0.000000 1.666750 0.000000 
#    z 0.000000 0.000000 1.584280 
# 
# From -- ./inp_files/71271.got.cif
#   From: 2010.05.17/outbox.cif.g08.bks.cpg/sg65_36_cif.got.tgz:71271.got - 2010.06.03 17:01:31.
