data_PCOD9494184
_publ_section_title
;
Structure prediction by ZEFSAII (Michael W. Deem and Ramdas Pophale) SiO2 
 PCOD9494184
Probable space group: C M M M
;
_chemical_formula_sum "Si O2"
_cell_formula_units_Z 48
_cell_length_a 7.975302
_cell_length_b 36.729169
_cell_length_c 7.833795
_cell_angle_alpha 90.000000
_cell_angle_beta 90.000000
_cell_angle_gamma 90.000000
_cell_volume 2294.723918
_symmetry_space_group_name_H-M "C M M M"
_symmetry_group_IT_number 65
_symmetry_cell_setting 'orthorhombic'
loop_
_space_group_symop_operation_xyz
x,y,z
-x,-y,z
x,-y,-z
-x,y,-z
-x,-y,-z
x,y,-z
-x,y,z
x,-y,z
1/2+x,1/2+y,z
1/2-x,1/2-y,z
1/2+x,1/2-y,-z
1/2-x,1/2+y,-z
1/2-x,1/2-y,-z
1/2+x,1/2+y,-z
1/2-x,1/2+y,z
1/2+x,1/2-y,z
loop_
_atom_site_type_symbol
_atom_site_label
_atom_site_fract_x
_atom_site_fract_y
_atom_site_fract_z
Si Si1 0.192133 0.500000 0.702317
Si Si2 0.308107 0.922587 0.204517
Si Si3 0.298085 0.156155 0.195036
Si Si4 0.302068 0.708034 0.500000
O O1 0.180753 0.500000 0.500000
O O2 0.272106 0.461475 0.753394
O O3 0.000000 0.500000 0.776683
O O4 0.500000 0.924333 0.274190
O O5 0.233266 0.883638 0.256691
O O6 0.317455 0.920257 0.000000
O O7 0.500000 0.152495 0.186727
O O8 0.259398 0.187049 0.331113
O O9 0.239612 0.163456 0.000000
O O10 0.500000 0.706175 0.500000
O O11 0.250000 0.750000 0.500000
#
# Coordination Sequence:
#
# PCOD9494184 Si02
#       4
#     8  16  16   8
#     4   9  15  19  31  65 107 146 181 220 270 318
#     4   8  14  25  42  67 103 145 184 224 272 322
#     4   9  19  37  61  87 116 152 191 234 284 336
#     4  12  26  42  62  87 114 147 183 228 285 344
#
# _framework density 20.917546999999999
#
# number of rings (size 3 to 8) (size 9 to 14) (size 15 to 20)
#    0.000    2.833    0.000    4.000    2.333    3.333 
#    0.000    0.000    0.000    0.000    0.000    2.333 
#    0.000    5.333    0.000    0.000    0.000    0.000 
#
# Total GULP energy -133742.170763 kJ/mol
# GULP energy per Si atom -5572.590448 kJ/mol
# Density = 2.086994 g / cm^3
# Si number density = 20.917547 Si / 1000 Ang^3
#
#
#
# Elastic Constant Matrix: (Units=GPa)
#
#
# Indices 1 2 3 4 5 6 
#
# 1 26.5751 12.3982 8.4261 0.0000 0.0000 0.0000
# 2 12.3982 245.7933 91.1180 0.0000 0.0000 0.0000
# 3 8.4261 91.1180 92.3821 0.0000 0.0000 0.0000
# 4 0.0000 0.0000 0.0000 41.0764 0.0000 0.0000
# 5 0.0000 0.0000 0.0000 0.0000 2.9147 0.0000
# 6 0.0000 0.0000 0.0000 0.0000 0.0000 7.6511
#
#
#
# Elastic Compliance Matrix: (Units=1/GPa)
#
#
# Indices 1 2 3 4 5 6 
#
# 1 0.038911 -0.001020 -0.002543 0.000000 0.000000 0.000000
# 2 -0.001020 0.006440 -0.006259 0.000000 0.000000 0.000000
# 3 -0.002543 -0.006259 0.017230 0.000000 0.000000 0.000000
# 4 0.000000 0.000000 0.000000 0.024345 0.000000 0.000000
# 5 0.000000 0.000000 0.000000 0.000000 0.343090 0.000000
# 6 0.000000 0.000000 0.000000 0.000000 0.000000 0.130701
#
#
# Mechanical properties :
#
#
# Convention : Reuss Voigt Hill
#
# Bulk Modulus (GPa) = 23.28973 65.40389 44.34681
# Shear Modulus (GPa) = 8.40796 27.18230 17.79513
#
# Velocity S-wave (km/s) = 2.00706 3.60877 2.91989
# Velocity P-wave (km/s) = 4.06562 6.97851 5.71091
#
# Compressibility (1/GPa) = 0.04293739
#
# Stress axis : x y z
#
# Youngs Moduli (GPa) = 25.69939 155.27472 58.03847
#
# Poissons Ratio (x) = 0.15838 0.14759
# Poissons Ratio (y) = 0.02621 0.36327
# Poissons Ratio (z) = 0.06535 0.97187
#
# Static dielectric constant tensor:
#      x y z
#    x 1.815300 0.000000 0.000000 
#    y 0.000000 1.739290 0.000000 
#    z 0.000000 0.000000 1.756270 
# 
# From -- ./inp_files/3052.got.cif
#   From: 2010.05.17/outbox.cif.g08.bks.cpg/sg65_2_cif.got.tgz:3052.got - 2010.06.03 17:01:31.
