data_PCOD9494259
_publ_section_title
;
Structure prediction by ZEFSAII (Michael W. Deem and Ramdas Pophale) SiO2 
 PCOD9494259
Probable space group: C M M M
;
_chemical_formula_sum "Si O2"
_cell_formula_units_Z 112
_cell_length_a 14.183336
_cell_length_b 13.622218
_cell_length_c 28.082928
_cell_angle_alpha 90.000000
_cell_angle_beta 90.000000
_cell_angle_gamma 90.000000
_cell_volume 5425.860253
_symmetry_space_group_name_H-M "C M M M"
_symmetry_group_IT_number 65
_symmetry_cell_setting 'orthorhombic'
loop_
_space_group_symop_operation_xyz
x,y,z
-x,-y,z
x,-y,-z
-x,y,-z
-x,-y,-z
x,y,-z
-x,y,z
x,-y,z
1/2+x,1/2+y,z
1/2-x,1/2-y,z
1/2+x,1/2-y,-z
1/2-x,1/2+y,-z
1/2-x,1/2-y,-z
1/2+x,1/2+y,-z
1/2-x,1/2+y,z
1/2+x,1/2-y,z
loop_
_atom_site_type_symbol
_atom_site_label
_atom_site_fract_x
_atom_site_fract_y
_atom_site_fract_z
Si Si1 0.109878 0.380067 0.654637
Si Si2 0.885547 0.616366 0.551274
Si Si3 0.114752 0.110180 0.905825
Si Si4 0.615426 0.191287 0.051354
Si Si5 0.608448 0.882501 0.152272
Si Si6 0.894273 0.119524 0.797868
Si Si7 0.209561 0.380204 0.750772
O O1 0.112461 0.500000 0.653276
O O2 0.145930 0.344762 0.602821
O O3 0.166128 0.347754 0.701062
O O4 0.000000 0.353024 0.660074
O O5 0.853893 0.658174 0.500000
O O6 0.863209 0.500000 0.550482
O O7 0.000000 0.622688 0.552206
O O8 0.140550 0.194037 0.942830
O O9 0.137300 0.144020 0.851838
O O10 0.000000 0.105141 0.906188
O O11 0.150108 0.000000 0.914365
O O12 0.500000 0.182728 0.051783
O O13 0.649753 0.143766 0.100553
O O14 0.646500 0.152547 0.000000
O O15 0.500000 0.848238 0.152701
O O16 0.656666 0.848233 0.200869
O O17 0.608470 0.000000 0.154454
O O18 0.817759 0.147476 0.759051
O O19 0.000000 0.154089 0.788713
O O20 0.897100 0.000000 0.798884
O O21 0.204032 0.500000 0.750535
#
# Coordination Sequence:
#
# PCOD9494259 Si02
#       7
#    16  16  16  16  16  16  16
#     4   8  12  17  27  46  72 101 135 173 207 241
#     4   7   9  13  21  35  60  96 134 170 207 241
#     4   8  14  26  44  63  81 101 127 165 215 263
#     4   9  17  28  43  64  86 107 135 170 207 252
#     4   9  17  28  41  58  83 115 146 172 199 237
#     4   8  14  25  41  59  76  94 119 156 206 262
#     4   9  15  23  37  55  75 101 134 171 209 247
#
# _framework density 20.641888000000002
#
# number of rings (size 3 to 8) (size 9 to 14) (size 15 to 20)
#    0.000    3.714    0.000    2.571    0.000    2.286 
#    0.000    3.571    0.000    1.714    0.000    4.000 
#    0.000    0.571    0.000    8.000    0.000    3.143 
#
# Total GULP energy -312277.821911 kJ/mol
# GULP energy per Si atom -5576.389677 kJ/mol
# Density = 2.059491 g / cm^3
# Si number density = 20.641888 Si / 1000 Ang^3
#
#
#
# Elastic Constant Matrix: (Units=GPa)
#
#
# Indices 1 2 3 4 5 6 
#
# 1 60.3470 1.1240 66.5316 0.0000 0.0000 0.0000
# 2 1.1240 39.7748 24.6396 0.0000 0.0000 0.0000
# 3 66.5316 24.6396 219.2328 0.0000 0.0000 0.0000
# 4 0.0000 0.0000 0.0000 14.1092 0.0000 0.0000
# 5 0.0000 0.0000 0.0000 0.0000 12.5203 0.0000
# 6 0.0000 0.0000 0.0000 0.0000 0.0000 6.0574
#
#
#
# Elastic Compliance Matrix: (Units=1/GPa)
#
#
# Indices 1 2 3 4 5 6 
#
# 1 0.025598 0.004395 -0.008262 0.000000 0.000000 0.000000
# 2 0.004395 0.027778 -0.004456 0.000000 0.000000 0.000000
# 3 -0.008262 -0.004456 0.007570 0.000000 0.000000 0.000000
# 4 0.000000 0.000000 0.000000 0.070876 0.000000 0.000000
# 5 0.000000 0.000000 0.000000 0.000000 0.079870 0.000000
# 6 0.000000 0.000000 0.000000 0.000000 0.000000 0.165088
#
#
# Mechanical properties :
#
#
# Convention : Reuss Voigt Hill
#
# Bulk Modulus (GPa) = 22.57389 55.99390 39.28390
# Shear Modulus (GPa) = 12.24914 21.67465 16.96190
#
# Velocity S-wave (km/s) = 2.43865 3.24394 2.86968
# Velocity P-wave (km/s) = 4.34615 6.41997 5.48202
#
# Compressibility (1/GPa) = 0.04429897
#
# Stress axis : x y z
#
# Youngs Moduli (GPa) = 39.06549 36.00034 132.10854
#
# Poissons Ratio (x) = -0.15822 1.09152
# Poissons Ratio (y) = -0.17169 0.58863
# Poissons Ratio (z) = 0.32277 0.16041
#
# Static dielectric constant tensor:
#      x y z
#    x 1.779920 0.000000 0.000000 
#    y 0.000000 1.767820 0.000000 
#    z 0.000000 0.000000 1.753040 
# 
# From -- ./inp_files/74849.got.cif
#   From: 2010.05.17/outbox.cif.g08.bks.cpg/sg65_38_cif.got.tgz:74849.got - 2010.06.03 17:01:31.
