data_PCOD9494488
_publ_section_title
;
Structure prediction by ZEFSAII (Michael W. Deem and Ramdas Pophale) SiO2 
 PCOD9494488
Probable space group: C M M M
;
_chemical_formula_sum "Si O2"
_cell_formula_units_Z 80
_cell_length_a 21.106799
_cell_length_b 29.663439
_cell_length_c 7.464786
_cell_angle_alpha 90.000000
_cell_angle_beta 90.000000
_cell_angle_gamma 90.000000
_cell_volume 4673.704341
_symmetry_space_group_name_H-M "C M M M"
_symmetry_group_IT_number 65
_symmetry_cell_setting 'orthorhombic'
loop_
_space_group_symop_operation_xyz
x,y,z
-x,-y,z
x,-y,-z
-x,y,-z
-x,-y,-z
x,y,-z
-x,y,z
x,-y,z
1/2+x,1/2+y,z
1/2-x,1/2-y,z
1/2+x,1/2-y,-z
1/2-x,1/2+y,-z
1/2-x,1/2-y,-z
1/2+x,1/2+y,-z
1/2-x,1/2+y,z
1/2+x,1/2-y,z
loop_
_atom_site_type_symbol
_atom_site_label
_atom_site_fract_x
_atom_site_fract_y
_atom_site_fract_z
Si Si1 0.309321 0.719494 0.718727
Si Si2 0.893878 0.448326 0.000000
Si Si3 0.237259 0.877455 0.709205
Si Si4 0.760272 0.949099 0.000000
Si Si5 0.610081 0.875586 0.709650
Si Si6 0.929936 0.275926 0.281550
O O1 0.309067 0.719422 0.500000
O O2 0.250000 0.750000 0.775130
O O3 0.296941 0.668117 0.772411
O O4 0.373888 0.743139 0.778543
O O5 0.816802 0.450609 0.000000
O O6 0.911180 0.417888 0.171703
O O7 0.916936 0.500000 0.000000
O O8 0.223605 0.884523 0.500000
O O9 0.313441 0.870711 0.724951
O O10 0.220257 0.920300 0.827640
O O11 0.783607 0.000000 0.000000
O O12 0.594939 0.882227 0.500000
O O13 0.582078 0.827802 0.771327
O O14 0.927678 0.276238 0.500000
O O15 0.000000 0.261625 0.226314
#
# Coordination Sequence:
#
# PCOD9494488 Si02
#       6
#    16   8  16   8  16  16
#     4   9  14  24  43  66  93 122 151 185 222 267
#     4   9  18  30  44  64  86 110 149 198 240 273
#     4   9  16  27  45  66  89 120 154 184 221 271
#     4   9  18  30  42  64  95 117 145 193 237 271
#     4   9  16  28  45  63  86 118 152 185 224 270
#     4   9  16  26  43  67  93 122 153 184 222 268
#
# _framework density 17.117042999999999
#
# number of rings (size 3 to 8) (size 9 to 14) (size 15 to 20)
#    0.000    3.000    2.000    0.000    0.000    0.800 
#    0.000    6.000    0.000    1.200    0.000    2.800 
#    0.000    1.600    0.000    7.800    0.000    0.200 
#
# Total GULP energy -223084.926100 kJ/mol
# GULP energy per Si atom -5577.123152 kJ/mol
# Density = 1.707808 g / cm^3
# Si number density = 17.117043 Si / 1000 Ang^3
#
#
#
# Elastic Constant Matrix: (Units=GPa)
#
#
# Indices 1 2 3 4 5 6 
#
# 1 74.9193 56.6662 24.4762 0.0000 0.0000 0.0000
# 2 56.6662 153.8457 48.7841 0.0000 0.0000 0.0000
# 3 24.4762 48.7841 67.9922 0.0000 0.0000 0.0000
# 4 0.0000 0.0000 0.0000 28.1963 0.0000 0.0000
# 5 0.0000 0.0000 0.0000 0.0000 0.0235 0.0000
# 6 0.0000 0.0000 0.0000 0.0000 0.0000 8.2816
#
#
#
# Elastic Compliance Matrix: (Units=1/GPa)
#
#
# Indices 1 2 3 4 5 6 
#
# 1 0.018782 -0.006180 -0.002327 0.000000 0.000000 0.000000
# 2 -0.006180 0.010448 -0.005272 0.000000 0.000000 0.000000
# 3 -0.002327 -0.005272 0.019328 0.000000 0.000000 0.000000
# 4 0.000000 0.000000 0.000000 0.035466 0.000000 0.000000
# 5 0.000000 0.000000 0.000000 0.000000 42.607962 0.000000
# 6 0.000000 0.000000 0.000000 0.000000 0.000000 0.120749
#
#
# Mechanical properties :
#
#
# Convention : Reuss Voigt Hill
#
# Bulk Modulus (GPa) = 47.61859 61.84558 54.73209
# Shear Modulus (GPa) = 0.11669 18.42233 9.26951
#
# Velocity S-wave (km/s) = 0.26138 3.28419 2.32962
# Velocity P-wave (km/s) = 5.28875 7.11271 6.26744
#
# Compressibility (1/GPa) = 0.02100020
#
# Stress axis : x y z
#
# Youngs Moduli (GPa) = 53.24109 95.71203 51.73938
#
# Poissons Ratio (x) = 0.59152 0.12040
# Poissons Ratio (y) = 0.32904 0.27275
# Poissons Ratio (z) = 0.12390 0.50455
#
# Static dielectric constant tensor:
#      x y z
#    x 1.568800 0.000000 0.000000 
#    y 0.000000 1.558960 0.000000 
#    z 0.000000 0.000000 1.627600 
# 
# From -- ./inp_files/11608.got.cif
#   From: 2010.05.17/outbox.cif.g08.bks.cpg/sg65_6_cif.got.tgz:11608.got - 2010.06.03 17:01:31.
