data_PCOD9494369
_publ_section_title
;
Structure prediction by ZEFSAII (Michael W. Deem and Ramdas Pophale) SiO2 
 PCOD9494369
Probable space group: C M M M
;
_chemical_formula_sum "Si O2"
_cell_formula_units_Z 72
_cell_length_a 14.600312
_cell_length_b 7.876243
_cell_length_c 26.797161
_cell_angle_alpha 90.000000
_cell_angle_beta 90.000000
_cell_angle_gamma 90.000000
_cell_volume 3081.555747
_symmetry_space_group_name_H-M "C M M M"
_symmetry_group_IT_number 65
_symmetry_cell_setting 'orthorhombic'
loop_
_space_group_symop_operation_xyz
x,y,z
-x,-y,z
x,-y,-z
-x,y,-z
-x,-y,-z
x,y,-z
-x,y,z
x,-y,z
1/2+x,1/2+y,z
1/2-x,1/2-y,z
1/2+x,1/2-y,-z
1/2-x,1/2+y,-z
1/2-x,1/2-y,-z
1/2+x,1/2+y,-z
1/2-x,1/2+y,z
1/2+x,1/2-y,z
loop_
_atom_site_type_symbol
_atom_site_label
_atom_site_fract_x
_atom_site_fract_y
_atom_site_fract_z
Si Si1 0.612391 0.000000 0.942843
Si Si2 0.891752 0.308443 0.770676
Si Si3 0.358226 0.205233 0.446255
Si Si4 0.856311 0.295516 0.660927
Si Si5 0.887976 0.816490 0.123366
O O1 0.641571 0.835594 0.911805
O O2 0.500000 0.000000 0.943223
O O3 0.642743 0.000000 0.000000
O O4 0.851801 0.500000 0.769987
O O5 0.883488 0.230058 0.715507
O O6 0.857848 0.211161 0.819290
O O7 0.000000 0.325504 0.778514
O O8 0.394619 0.266317 0.500000
O O9 0.250000 0.250000 0.446640
O O10 0.395159 0.265735 0.392491
O O11 0.367127 0.000000 0.446000
O O12 0.871911 0.500000 0.662371
O O13 0.750000 0.250000 0.657971
O O14 0.000000 0.815488 0.123134
O O15 0.857738 0.000000 0.105338
#
# Coordination Sequence:
#
# PCOD9494369 Si02
#       5
#     8  16  16  16  16
#     4   9  16  26  40  60  90 122 149 185 228 266
#     4   9  16  28  44  59  82 119 155 183 219 273
#     4   8  13  22  36  54  77 105 138 174 218 270
#     4   9  17  27  41  62  86 112 141 185 232 267
#     4   9  16  26  41  61  85 117 154 186 221 268
#
# _framework density 23.364822
#
# number of rings (size 3 to 8) (size 9 to 14) (size 15 to 20)
#    0.000    3.222    1.111    0.000    0.000    1.333 
#    0.000    2.222    0.000    0.667    0.000    4.667 
#    0.000    0.889    0.444   41.556    0.000   22.667 
#
# Total GULP energy -200644.153330 kJ/mol
# GULP energy per Si atom -5573.448704 kJ/mol
# Density = 2.331164 g / cm^3
# Si number density = 23.364822 Si / 1000 Ang^3
#
#
#
# Elastic Constant Matrix: (Units=GPa)
#
#
# Indices 1 2 3 4 5 6 
#
# 1 58.5370 3.2763 3.0574 0.0000 0.0000 0.0000
# 2 3.2763 102.5397 92.2790 0.0000 0.0000 0.0000
# 3 3.0574 92.2790 249.0288 0.0000 0.0000 0.0000
# 4 0.0000 0.0000 0.0000 -7.3835 0.0000 0.0000
# 5 0.0000 0.0000 0.0000 0.0000 15.6469 0.0000
# 6 0.0000 0.0000 0.0000 0.0000 0.0000 -0.5068
#
#
#
# Elastic Compliance Matrix: (Units=1/GPa)
#
#
# Indices 1 2 3 4 5 6 
#
# 1 0.017114 -0.000537 -0.000011 0.000000 0.000000 0.000000
# 2 -0.000537 0.014648 -0.005421 0.000000 0.000000 0.000000
# 3 -0.000011 -0.005421 0.006025 0.000000 0.000000 0.000000
# 4 0.000000 0.000000 0.000000 -0.135436 0.000000 0.000000
# 5 0.000000 0.000000 0.000000 0.000000 0.063911 0.000000
# 6 0.000000 0.000000 0.000000 0.000000 0.000000 -1.973335
#
#
# Mechanical properties :
#
#
# Convention : Reuss Voigt Hill
#
# Bulk Modulus (GPa) = 38.68748 67.48122 53.08435
# Shear Modulus (GPa) = -2.51697 22.31750 9.90027
#
# Velocity S-wave (km/s) = -1.03903 3.09394 2.06069
# Velocity P-wave (km/s) = 3.89288 6.45814 5.33208
#
# Compressibility (1/GPa) = 0.02584815
#
# Stress axis : x y z
#
# Youngs Moduli (GPa) = 58.43222 68.26669 165.98359
#
# Poissons Ratio (x) = 0.03664 0.00186
# Poissons Ratio (y) = 0.03136 0.89987
# Poissons Ratio (z) = 0.00066 0.37011
#
# Static dielectric constant tensor:
#      x y z
#    x 1.961300 0.000000 0.000000 
#    y 0.000000 1.881320 0.000000 
#    z 0.000000 0.000000 1.914270 
# 
# From -- ./inp_files/67210.got.cif
#   From: 2010.05.17/outbox.cif.g08.bks.cpg/sg65_34_cif.got.tgz:67210.got - 2010.06.03 17:01:31.
