data_PCOD9494821
_publ_section_title
;
Structure prediction by ZEFSAII (Michael W. Deem and Ramdas Pophale) SiO2 
 PCOD9494821
Probable space group: C M M M
;
_chemical_formula_sum "Si O2"
_cell_formula_units_Z 36
_cell_length_a 21.000000
_cell_length_b 9.000000
_cell_length_c 21.000000
_cell_angle_alpha 90.000000
_cell_angle_beta 90.000000
_cell_angle_gamma 90.000000
_cell_volume 3969.000000
_symmetry_space_group_name_H-M "C M M M"
_symmetry_group_IT_number 65
_symmetry_cell_setting 'orthorhombic'
loop_
_space_group_symop_operation_xyz
x,y,z
-x,-y,z
x,-y,-z
-x,y,-z
-x,-y,-z
x,y,-z
-x,y,z
x,-y,z
1/2+x,1/2+y,z
1/2-x,1/2-y,z
1/2+x,1/2-y,-z
1/2-x,1/2+y,-z
1/2-x,1/2-y,-z
1/2+x,1/2+y,-z
1/2-x,1/2+y,z
1/2+x,1/2-y,z
loop_
_atom_site_type_symbol
_atom_site_label
_atom_site_fract_x
_atom_site_fract_y
_atom_site_fract_z
Si Si1 0.423150 0.179804 0.186155
Si Si2 0.500000 0.168353 0.423989
Si Si3 0.134681 0.179026 0.575547
Si Si4 0.182622 0.319818 0.294724
Si Si5 0.179816 0.320616 0.924608
O O1 0.500000 0.227834 0.186772
O O2 0.378190 0.218945 0.248223
O O3 0.378222 0.222982 0.124307
O O4 0.426170 0.000000 0.185350
O O5 0.500000 0.150594 0.500000
O O6 0.563370 0.261105 0.410578
O O7 0.500000 0.000000 0.395793
O O8 0.149742 0.216360 0.500000
O O9 0.173312 0.256312 0.633139
O O10 0.138557 0.000000 0.580558
O O11 0.186897 0.500000 0.296347
O O12 0.250000 0.250000 0.270912
O O13 0.185861 0.500000 0.919429
O O14 0.250000 0.250000 0.909681
O O15 0.166085 0.286127 0.000000
#
# Coordination Sequence:
#
# PCOD9494821 Si02
#       5
#    16   8  16  16  16
#     4   9  19  35  55  82 113 145 187 236 281 328
#     4   9  17  31  53  81 111 143 178 217 270 335
#     4  10  21  37  57  82 112 144 183 235 289 341
#     4  11  23  38  58  80 109 148 188 235 290 348
#     4   9  17  31  55  85 116 151 187 225 271 326
#
# _framework density 9.0702949999999998
#
# number of rings (size 3 to 8) (size 9 to 14) (size 15 to 20)
#    0.000    2.333    0.000    2.333    1.556    3.556 
#    0.000    3.333    0.000    3.333    0.000    3.111 
#    0.000    0.000    0.000    0.000    0.000    0.000 
#
# Total GULP energy -200463.977602 kJ/mol
# GULP energy per Si atom -5568.443822 kJ/mol
# Density = 0.904965 g / cm^3
# Si number density = 9.070295 Si / 1000 Ang^3
#
#
#
# Elastic Constant Matrix: (Units=GPa)
#
#
# Indices 1 2 3 4 5 6 
#
# 1 161.5386 27.2383 66.6222 0.0000 0.0000 0.0000
# 2 27.2383 63.1426 27.9283 0.0000 0.0000 0.0000
# 3 66.6222 27.9283 126.8240 0.0000 0.0000 0.0000
# 4 0.0000 0.0000 0.0000 23.8271 0.0000 0.0000
# 5 0.0000 0.0000 0.0000 0.0000 38.8744 0.0000
# 6 0.0000 0.0000 0.0000 0.0000 0.0000 35.8249
#
#
#
# Elastic Compliance Matrix: (Units=1/GPa)
#
#
# Indices 1 2 3 4 5 6 
#
# 1 0.008080 -0.001782 -0.003852 0.000000 0.000000 0.000000
# 2 -0.001782 0.017939 -0.003015 0.000000 0.000000 0.000000
# 3 -0.003852 -0.003015 0.010572 0.000000 0.000000 0.000000
# 4 0.000000 0.000000 0.000000 0.041969 0.000000 0.000000
# 5 0.000000 0.000000 0.000000 0.000000 0.025724 0.000000
# 6 0.000000 0.000000 0.000000 0.000000 0.000000 0.027914
#
#
# Mechanical properties :
#
#
# Convention : Reuss Voigt Hill
#
# Bulk Modulus (GPa) = 51.82765 66.12030 58.97397
# Shear Modulus (GPa) = 32.06670 35.01969 33.54320
#
# Velocity S-wave (km/s) = 4.20894 4.39847 4.30474
# Velocity P-wave (km/s) = 7.22857 7.89451 7.56887
#
# Compressibility (1/GPa) = 0.01929472
#
# Stress axis : x y z
#
# Youngs Moduli (GPa) = 123.76999 55.74431 94.58722
#
# Poissons Ratio (x) = 0.09931 0.36434
# Poissons Ratio (y) = 0.22051 0.28514
# Poissons Ratio (z) = 0.47675 0.16804
#
# Static dielectric constant tensor:
#      x y z
#    x 1.656910 0.000000 0.000000 
#    y 0.000000 1.612340 0.000000 
#    z 0.000000 0.000000 1.665020 
# 
# From -- ./inp_files/64320.got.cif
#   From: 2010.05.17/outbox.ucp.g08.bks.cvg/sg65_33_cif.got.tgz:64320.got - 2010.06.11 16:39:57.
