data_PCOD9494764
_publ_section_title
;
Structure prediction by ZEFSAII (Michael W. Deem and Ramdas Pophale) SiO2 
 PCOD9494764
Probable space group: C M M M
;
_chemical_formula_sum "Si O2"
_cell_formula_units_Z 36
_cell_length_a 18.000000
_cell_length_b 24.000000
_cell_length_c 9.000000
_cell_angle_alpha 90.000000
_cell_angle_beta 90.000000
_cell_angle_gamma 90.000000
_cell_volume 3888.000000
_symmetry_space_group_name_H-M "C M M M"
_symmetry_group_IT_number 65
_symmetry_cell_setting 'orthorhombic'
loop_
_space_group_symop_operation_xyz
x,y,z
-x,-y,z
x,-y,-z
-x,y,-z
-x,-y,-z
x,y,-z
-x,y,z
x,-y,z
1/2+x,1/2+y,z
1/2-x,1/2-y,z
1/2+x,1/2-y,-z
1/2-x,1/2+y,-z
1/2-x,1/2-y,-z
1/2+x,1/2+y,-z
1/2-x,1/2+y,z
1/2+x,1/2-y,z
loop_
_atom_site_type_symbol
_atom_site_label
_atom_site_fract_x
_atom_site_fract_y
_atom_site_fract_z
Si Si1 0.276542 0.690075 0.676506
Si Si2 0.000000 0.434005 0.177006
Si Si3 0.104392 0.000000 0.169246
Si Si4 0.583684 0.374414 0.179816
Si Si5 0.352828 0.897684 0.326464
Si Si6 0.780089 0.500000 0.167697
O O1 0.293846 0.694671 0.500000
O O2 0.250000 0.750000 0.734633
O O3 0.347871 0.660782 0.752869
O O4 0.201901 0.653864 0.691765
O O5 0.070939 0.401370 0.238036
O O6 0.000000 0.500000 0.226163
O O7 0.000000 0.434775 0.000000
O O8 0.084846 0.939304 0.234204
O O9 0.192565 0.000000 0.159519
O O10 0.075880 0.000000 0.000000
O O11 0.500000 0.352534 0.211170
O O12 0.593147 0.375828 0.000000
O O13 0.368676 0.905477 0.500000
O O14 0.306136 0.947730 0.258964
O O15 0.811706 0.500000 0.000000
#
# Coordination Sequence:
#
# PCOD9494764 Si02
#       6
#    16   8   8  16  16   8
#     4  10  23  43  62  81 111 154 199 240 287 338
#     4  11  23  37  57  87 122 154 184 231 292 353
#     4   9  17  31  55  86 120 153 180 219 279 344
#     4  10  20  36  60  90 121 151 188 231 280 339
#     4  11  22  37  59  84 113 151 195 241 287 343
#     4  11  19  31  56  85 115 154 190 230 290 347
#
# _framework density 9.2592590000000001
#
# number of rings (size 3 to 8) (size 9 to 14) (size 15 to 20)
#    0.000    1.667    3.333    1.667    0.000    3.556 
#    2.000    0.556    0.000    1.333    0.000    0.000 
#    0.000    0.000    0.000    0.000    0.000    0.000 
#
# Total GULP energy -200592.802473 kJ/mol
# GULP energy per Si atom -5572.022291 kJ/mol
# Density = 0.923818 g / cm^3
# Si number density = 9.259259 Si / 1000 Ang^3
#
#
#
# Elastic Constant Matrix: (Units=GPa)
#
#
# Indices 1 2 3 4 5 6 
#
# 1 155.7830 36.2108 55.6968 0.0000 0.0000 0.0000
# 2 36.2108 90.8790 48.0531 0.0000 0.0000 0.0000
# 3 55.6968 48.0531 59.1129 0.0000 0.0000 0.0000
# 4 0.0000 0.0000 0.0000 17.0985 0.0000 0.0000
# 5 0.0000 0.0000 0.0000 0.0000 25.1693 0.0000
# 6 0.0000 0.0000 0.0000 0.0000 0.0000 -6.8237
#
#
#
# Elastic Compliance Matrix: (Units=1/GPa)
#
#
# Indices 1 2 3 4 5 6 
#
# 1 0.009831 0.001720 -0.010661 0.000000 0.000000 0.000000
# 2 0.001720 0.019600 -0.017553 0.000000 0.000000 0.000000
# 3 -0.010661 -0.017553 0.041231 0.000000 0.000000 0.000000
# 4 0.000000 0.000000 0.000000 0.058485 0.000000 0.000000
# 5 0.000000 0.000000 0.000000 0.000000 0.039731 0.000000
# 6 0.000000 0.000000 0.000000 0.000000 0.000000 -0.146547
#
#
# Mechanical properties :
#
#
# Convention : Reuss Voigt Hill
#
# Bulk Modulus (GPa) = 56.58379 65.07736 60.83058
# Shear Modulus (GPa) = 61.56881 18.14308 39.85595
#
# Velocity S-wave (km/s) = 5.77229 3.13345 4.64424
# Velocity P-wave (km/s) = 8.66299 6.95050 7.85356
#
# Compressibility (1/GPa) = 0.01767291
#
# Stress axis : x y z
#
# Youngs Moduli (GPa) = 101.71882 51.02093 24.25365
#
# Poissons Ratio (x) = -0.08775 0.25857
# Poissons Ratio (y) = -0.17495 0.42573
# Poissons Ratio (z) = 1.08443 0.89559
#
# Static dielectric constant tensor:
#      x y z
#    x 1.725420 0.000000 0.000000 
#    y 0.000000 1.635530 0.000000 
#    z 0.000000 0.000000 1.632380 
# 
# From -- ./inp_files/9339.got.cif
#   From: 2010.05.17/outbox.ucp.g08.bks.cvg/sg65_5_cif.got.tgz:9339.got - 2010.06.11 16:39:57.
