data_PCOD9494325
_publ_section_title
;
Structure prediction by ZEFSAII (Michael W. Deem and Ramdas Pophale) SiO2 
 PCOD9494325
Probable space group: C M M M
;
_chemical_formula_sum "Si O2"
_cell_formula_units_Z 80
_cell_length_a 14.664806
_cell_length_b 7.364564
_cell_length_c 28.745171
_cell_angle_alpha 90.000000
_cell_angle_beta 90.000000
_cell_angle_gamma 90.000000
_cell_volume 3104.475661
_symmetry_space_group_name_H-M "C M M M"
_symmetry_group_IT_number 65
_symmetry_cell_setting 'orthorhombic'
loop_
_space_group_symop_operation_xyz
x,y,z
-x,-y,z
x,-y,-z
-x,y,-z
-x,-y,-z
x,y,-z
-x,y,z
x,-y,z
1/2+x,1/2+y,z
1/2-x,1/2-y,z
1/2+x,1/2-y,-z
1/2-x,1/2+y,-z
1/2-x,1/2-y,-z
1/2+x,1/2+y,-z
1/2-x,1/2+y,z
1/2+x,1/2-y,z
loop_
_atom_site_type_symbol
_atom_site_label
_atom_site_fract_x
_atom_site_fract_y
_atom_site_fract_z
Si Si1 0.395961 0.784073 0.650663
Si Si2 0.357490 0.783641 0.150013
Si Si3 0.140553 0.717433 0.949902
Si Si4 0.608609 0.205749 0.251776
Si Si5 0.106129 0.782697 0.450352
O O1 0.500000 0.711929 0.646111
O O2 0.356311 0.711641 0.699518
O O3 0.352776 0.761165 0.599900
O O4 0.400835 0.000000 0.657688
O O5 0.250000 0.750000 0.147299
O O6 0.393955 0.714353 0.100231
O O7 0.382044 0.708803 0.200827
O O8 0.378802 0.000000 0.151008
O O9 0.126074 0.500000 0.949722
O O10 0.250000 0.750000 0.950232
O O11 0.106608 0.786264 0.000000
O O12 0.500000 0.193630 0.259017
O O13 0.646985 0.000000 0.247432
O O14 0.144830 0.716243 0.500000
O O15 0.000000 0.719791 0.449415
O O16 0.105179 0.000000 0.452226
#
# Coordination Sequence:
#
# PCOD9494325 Si02
#       5
#    16  16  16  16  16
#     4   8  13  21  33  48  65  88 122 157 181 210
#     4   9  16  26  41  59  79 102 128 161 196 229
#     4   8  13  21  34  53  75  97 122 153 189 227
#     4   8  14  25  40  56  75 103 135 160 187 228
#     4   8  13  20  29  43  66  94 119 144 180 224
#
# _framework density 25.769248000000001
#
# number of rings (size 3 to 8) (size 9 to 14) (size 15 to 20)
#    0.000    3.800    0.000    1.800    0.000    0.400 
#    0.000    3.000    0.000    2.400    0.000    4.200 
#    0.000    0.800    0.000   34.200    0.000   20.000 
#
# Total GULP energy -222687.425984 kJ/mol
# GULP energy per Si atom -5567.185650 kJ/mol
# Density = 2.571060 g / cm^3
# Si number density = 25.769248 Si / 1000 Ang^3
#
#
#
# Elastic Constant Matrix: (Units=GPa)
#
#
# Indices 1 2 3 4 5 6 
#
# 1 78.7501 -9.8403 19.4609 0.0000 0.0000 0.0000
# 2 -9.8403 102.2995 17.2390 0.0000 0.0000 0.0000
# 3 19.4609 17.2390 422.4509 0.0000 0.0000 0.0000
# 4 0.0000 0.0000 0.0000 22.7454 0.0000 0.0000
# 5 0.0000 0.0000 0.0000 0.0000 13.9946 0.0000
# 6 0.0000 0.0000 0.0000 0.0000 0.0000 -9.6974
#
#
#
# Elastic Compliance Matrix: (Units=1/GPa)
#
#
# Indices 1 2 3 4 5 6 
#
# 1 0.013031 0.001364 -0.000656 0.000000 0.000000 0.000000
# 2 0.001364 0.009986 -0.000470 0.000000 0.000000 0.000000
# 3 -0.000656 -0.000470 0.002417 0.000000 0.000000 0.000000
# 4 0.000000 0.000000 0.000000 0.043965 0.000000 0.000000
# 5 0.000000 0.000000 0.000000 0.000000 0.071456 0.000000
# 6 0.000000 0.000000 0.000000 0.000000 0.000000 -0.103121
#
#
# Mechanical properties :
#
#
# Convention : Reuss Voigt Hill
#
# Bulk Modulus (GPa) = 38.59720 73.02441 55.81081
# Shear Modulus (GPa) = 108.94556 43.85125 76.39840
#
# Velocity S-wave (km/s) = 6.50916 4.12963 5.45082
# Velocity P-wave (km/s) = 8.45593 7.15107 7.83072
#
# Compressibility (1/GPa) = 0.02590861
#
# Stress axis : x y z
#
# Youngs Moduli (GPa) = 76.74045 100.14338 413.81329
#
# Poissons Ratio (x) = -0.13660 0.27144
# Poissons Ratio (y) = -0.10467 0.19463
# Poissons Ratio (z) = 0.05034 0.04710
#
# Static dielectric constant tensor:
#      x y z
#    x 2.101890 0.000000 0.000000 
#    y 0.000000 2.105870 0.000000 
#    z 0.000000 0.000000 2.185400 
# 
# From -- ./inp_files/68830.got.cif
#   From: 2010.05.17/outbox.cif.g08.bks.cpg/sg65_35_cif.got.tgz:68830.got - 2010.06.03 17:01:31.
