data_PCOD9494592
_publ_section_title
;
Structure prediction by ZEFSAII (Michael W. Deem and Ramdas Pophale) SiO2 
 PCOD9494592
Probable space group: C M M M
;
_chemical_formula_sum "Si O2"
_cell_formula_units_Z 44
_cell_length_a 9.000000
_cell_length_b 21.000000
_cell_length_c 24.000000
_cell_angle_alpha 90.000000
_cell_angle_beta 90.000000
_cell_angle_gamma 90.000000
_cell_volume 4536.000000
_symmetry_space_group_name_H-M "C M M M"
_symmetry_group_IT_number 65
_symmetry_cell_setting 'orthorhombic'
loop_
_space_group_symop_operation_xyz
x,y,z
-x,-y,z
x,-y,-z
-x,y,-z
-x,-y,-z
x,y,-z
-x,y,z
x,-y,z
1/2+x,1/2+y,z
1/2-x,1/2-y,z
1/2+x,1/2-y,-z
1/2-x,1/2+y,-z
1/2-x,1/2-y,-z
1/2+x,1/2+y,-z
1/2-x,1/2+y,z
1/2+x,1/2-y,z
loop_
_atom_site_type_symbol
_atom_site_label
_atom_site_fract_x
_atom_site_fract_y
_atom_site_fract_z
Si Si1 0.180120 0.821224 0.385380
Si Si2 0.170188 0.500000 0.206337
Si Si3 0.822492 0.628068 0.939235
Si Si4 0.824739 0.629054 0.275338
Si Si5 0.680679 0.821334 0.500000
Si Si6 0.676593 0.314673 0.168268
Si Si7 0.179059 0.000000 0.086980
O O1 0.250000 0.750000 0.378216
O O2 0.237112 0.861332 0.332682
O O3 0.251966 0.848438 0.442595
O O4 0.000000 0.817739 0.388700
O O5 0.186917 0.439851 0.246790
O O6 0.279573 0.500000 0.153627
O O7 0.000000 0.500000 0.184064
O O8 0.734077 0.644634 0.883070
O O9 0.761798 0.557646 0.942114
O O10 0.000000 0.632835 0.929799
O O11 0.791190 0.659743 0.000000
O O12 0.748227 0.671269 0.227981
O O13 0.000000 0.644387 0.282868
O O14 0.500000 0.820250 0.500000
O O15 0.750000 0.750000 0.500000
O O16 0.500000 0.315168 0.172317
O O17 0.750000 0.250000 0.150397
O O18 0.000000 0.000000 0.080940
#
# Coordination Sequence:
#
# PCOD9494592 Si02
#       7
#    16   8  16  16   8  16   8
#     4  11  21  35  56  86 122 159 197 241 288 340
#     4  10  22  39  63  85 115 153 191 236 292 348
#     4  11  24  42  63  86 115 152 192 237 291 349
#     4  11  22  39  61  87 117 153 194 239 290 347
#     4  10  18  32  54  83 118 157 198 240 286 340
#     4  12  25  41  61  86 116 152 191 238 291 351
#     4  12  23  37  62  91 119 147 189 240 291 345
#
# _framework density 9.7001760000000008
#
# number of rings (size 3 to 8) (size 9 to 14) (size 15 to 20)
#    0.000    0.909    1.818    7.909    0.000    3.636 
#    0.000    0.000    0.000    0.545    0.000    3.818 
#    0.000    0.000    0.000    0.000    0.000    0.000 
#
# Total GULP energy -245142.558727 kJ/mol
# GULP energy per Si atom -5571.421789 kJ/mol
# Density = 0.967810 g / cm^3
# Si number density = 9.700176 Si / 1000 Ang^3
#
#
#
# Elastic Constant Matrix: (Units=GPa)
#
#
# Indices 1 2 3 4 5 6 
#
# 1 143.5249 6.7136 30.8176 0.0000 0.0000 0.0000
# 2 6.7136 42.6239 8.2480 0.0000 0.0000 0.0000
# 3 30.8176 8.2480 130.6783 0.0000 0.0000 0.0000
# 4 0.0000 0.0000 0.0000 16.6033 0.0000 0.0000
# 5 0.0000 0.0000 0.0000 0.0000 66.8628 0.0000
# 6 0.0000 0.0000 0.0000 0.0000 0.0000 20.0147
#
#
#
# Elastic Compliance Matrix: (Units=1/GPa)
#
#
# Indices 1 2 3 4 5 6 
#
# 1 0.007368 -0.000835 -0.001685 0.000000 0.000000 0.000000
# 2 -0.000835 0.023846 -0.001308 0.000000 0.000000 0.000000
# 3 -0.001685 -0.001308 0.008132 0.000000 0.000000 0.000000
# 4 0.000000 0.000000 0.000000 0.060229 0.000000 0.000000
# 5 0.000000 0.000000 0.000000 0.000000 0.014956 0.000000
# 6 0.000000 0.000000 0.000000 0.000000 0.000000 0.049963
#
#
# Mechanical properties :
#
#
# Convention : Reuss Voigt Hill
#
# Bulk Modulus (GPa) = 31.55496 45.37615 38.46555
# Shear Modulus (GPa) = 27.36524 38.76603 33.06564
#
# Velocity S-wave (km/s) = 3.75981 4.47499 4.13290
# Velocity P-wave (km/s) = 5.92863 7.08102 6.53029
#
# Compressibility (1/GPa) = 0.03169074
#
# Stress axis : x y z
#
# Youngs Moduli (GPa) = 135.71721 41.93639 122.96618
#
# Poissons Ratio (x) = 0.03500 0.20719
# Poissons Ratio (y) = 0.11326 0.16087
# Poissons Ratio (z) = 0.22868 0.05486
#
# Static dielectric constant tensor:
#      x y z
#    x 1.637600 0.000000 0.000000 
#    y 0.000000 1.729750 0.000000 
#    z 0.000000 0.000000 1.726240 
# 
# From -- ./inp_files/67645.got.cif
#   From: 2010.05.17/outbox.ucp.g08.bks.cvg/sg65_34_cif.got.tgz:67645.got - 2010.06.11 16:39:57.
