data_PCOD9494112
_publ_section_title
;
Structure prediction by ZEFSAII (Michael W. Deem and Ramdas Pophale) SiO2 
 PCOD9494112
Probable space group: C M M M
;
_chemical_formula_sum "Si O2"
_cell_formula_units_Z 72
_cell_length_a 15.409408
_cell_length_b 8.572945
_cell_length_c 26.536227
_cell_angle_alpha 90.000000
_cell_angle_beta 90.000000
_cell_angle_gamma 90.000000
_cell_volume 3505.541924
_symmetry_space_group_name_H-M "C M M M"
_symmetry_group_IT_number 65
_symmetry_cell_setting 'orthorhombic'
loop_
_space_group_symop_operation_xyz
x,y,z
-x,-y,z
x,-y,-z
-x,y,-z
-x,-y,-z
x,y,-z
-x,y,z
x,-y,z
1/2+x,1/2+y,z
1/2-x,1/2-y,z
1/2+x,1/2-y,-z
1/2-x,1/2+y,-z
1/2-x,1/2-y,-z
1/2+x,1/2+y,-z
1/2-x,1/2+y,z
1/2+x,1/2-y,z
loop_
_atom_site_type_symbol
_atom_site_label
_atom_site_fract_x
_atom_site_fract_y
_atom_site_fract_z
Si Si1 0.000000 0.313689 0.442471
Si Si2 0.105072 0.684939 0.728391
Si Si3 0.895894 0.311664 0.162097
Si Si4 0.104954 0.687672 0.054064
Si Si5 0.342112 0.316105 0.377976
O O1 0.917065 0.257142 0.411650
O O2 0.000000 0.500000 0.443281
O O3 0.000000 0.255674 0.500000
O O4 0.124560 0.500000 0.724299
O O5 0.135950 0.744628 0.783393
O O6 0.142833 0.771001 0.680396
O O7 0.000000 0.699247 0.726935
O O8 0.885136 0.500000 0.162331
O O9 0.861999 0.250885 0.108127
O O10 0.000000 0.284670 0.161890
O O11 0.118551 0.500000 0.053975
O O12 0.000000 0.708885 0.054168
O O13 0.137380 0.750130 0.000000
O O14 0.344399 0.500000 0.382984
O O15 0.250000 0.250000 0.394202
#
# Coordination Sequence:
#
# PCOD9494112 Si02
#       5
#     8  16  16  16  16
#     4  11  25  47  73  99 129 163 198 239 288 341
#     4   9  16  29  51  76 109 149 191 240 293 350
#     4   7  10  16  29  53  84 126 175 221 276 337
#     4   7   8  10  18  37  72 117 164 214 268 327
#     4  12  25  41  64  93 126 163 204 248 294 347
#
# _framework density 20.538907999999999
#
# number of rings (size 3 to 8) (size 9 to 14) (size 15 to 20)
#    0.000    3.000    1.111    5.667    0.000    1.333 
#    0.000    0.000    0.000    0.000    0.000    0.000 
#    0.000    1.778    0.000   10.222    0.000   11.556 
#
# Total GULP energy -200651.289854 kJ/mol
# GULP energy per Si atom -5573.646940 kJ/mol
# Density = 2.049216 g / cm^3
# Si number density = 20.538908 Si / 1000 Ang^3
#
#
#
# Elastic Constant Matrix: (Units=GPa)
#
#
# Indices 1 2 3 4 5 6 
#
# 1 78.4252 24.0271 62.1233 0.0000 0.0000 0.0000
# 2 24.0271 43.9745 35.4299 0.0000 0.0000 0.0000
# 3 62.1233 35.4299 200.2643 0.0000 0.0000 0.0000
# 4 0.0000 0.0000 0.0000 -12.1410 0.0000 0.0000
# 5 0.0000 0.0000 0.0000 0.0000 -24.7990 0.0000
# 6 0.0000 0.0000 0.0000 0.0000 0.0000 15.8455
#
#
#
# Elastic Compliance Matrix: (Units=1/GPa)
#
#
# Indices 1 2 3 4 5 6 
#
# 1 0.018299 -0.006327 -0.004557 0.000000 0.000000 0.000000
# 2 -0.006327 0.028708 -0.003116 0.000000 0.000000 0.000000
# 3 -0.004557 -0.003116 0.006958 0.000000 0.000000 0.000000
# 4 0.000000 0.000000 0.000000 -0.082366 0.000000 0.000000
# 5 0.000000 0.000000 0.000000 0.000000 -0.040324 0.000000
# 6 0.000000 0.000000 0.000000 0.000000 0.000000 0.063109
#
#
# Mechanical properties :
#
#
# Convention : Reuss Voigt Hill
#
# Bulk Modulus (GPa) = 38.51311 62.86939 50.69125
# Shear Modulus (GPa) = 161.07751 9.18670 85.13210
#
# Velocity S-wave (km/s) = 8.86543 2.11720 6.44509
# Velocity P-wave (km/s) = 11.11694 6.05418 8.95096
#
# Compressibility (1/GPa) = 0.02596518
#
# Stress axis : x y z
#
# Youngs Moduli (GPa) = 54.64703 34.83335 143.71085
#
# Poissons Ratio (x) = 0.22038 0.65493
# Poissons Ratio (y) = 0.34574 0.44785
# Poissons Ratio (z) = 0.24904 0.10855
#
# Static dielectric constant tensor:
#      x y z
#    x 1.777900 0.000000 0.000000 
#    y 0.000000 1.674670 0.000000 
#    z 0.000000 0.000000 1.799830 
# 
# From -- ./inp_files/74625.got.cif
#   From: 2010.05.17/outbox.cif.g08.bks.cpg/sg65_38_cif.got.tgz:74625.got - 2010.06.03 17:01:31.
