data_PCOD9494080
_publ_section_title
;
Structure prediction by ZEFSAII (Michael W. Deem and Ramdas Pophale) SiO2 
 PCOD9494080
Probable space group: C M M M
;
_chemical_formula_sum "Si O2"
_cell_formula_units_Z 64
_cell_length_a 8.875674
_cell_length_b 18.660557
_cell_length_c 20.756939
_cell_angle_alpha 90.000000
_cell_angle_beta 90.000000
_cell_angle_gamma 90.000000
_cell_volume 3437.868449
_symmetry_space_group_name_H-M "C M M M"
_symmetry_group_IT_number 65
_symmetry_cell_setting 'orthorhombic'
loop_
_space_group_symop_operation_xyz
x,y,z
-x,-y,z
x,-y,-z
-x,y,-z
-x,-y,-z
x,y,-z
-x,y,z
x,-y,z
1/2+x,1/2+y,z
1/2-x,1/2-y,z
1/2+x,1/2-y,-z
1/2-x,1/2+y,-z
1/2-x,1/2-y,-z
1/2+x,1/2+y,-z
1/2-x,1/2+y,z
1/2+x,1/2-y,z
loop_
_atom_site_type_symbol
_atom_site_label
_atom_site_fract_x
_atom_site_fract_y
_atom_site_fract_z
Si Si1 0.320636 0.084485 0.884614
Si Si2 0.678072 0.328029 0.000000
Si Si3 0.819357 0.585098 0.500000
Si Si4 0.820026 0.829245 0.619546
Si Si5 0.180245 0.415205 0.264465
O O1 0.500000 0.095544 0.893148
O O2 0.284391 0.101464 0.810161
O O3 0.291354 0.000000 0.894222
O O4 0.233027 0.129900 0.936803
O O5 0.750000 0.250000 0.000000
O O6 0.500000 0.322429 0.000000
O O7 0.789278 0.500000 0.500000
O O8 0.748346 0.622606 0.562374
O O9 0.000000 0.595172 0.500000
O O10 0.750000 0.750000 0.615613
O O11 0.770632 0.866684 0.686094
O O12 0.000000 0.825484 0.614127
O O13 0.210326 0.500000 0.275071
O O14 0.000000 0.404942 0.273714
#
# Coordination Sequence:
#
# PCOD9494080 Si02
#       5
#    16   8   8  16  16
#     4   9  19  38  63  87 114 150 190 234 286 345
#     4  12  25  38  55  81 115 153 193 240 291 344
#     4  11  24  43  66  89 117 153 192 237 288 343
#     4  12  25  40  60  87 121 157 194 238 287 340
#     4   9  19  38  63  89 117 151 191 234 284 343
#
# _framework density 18.616187
#
# number of rings (size 3 to 8) (size 9 to 14) (size 15 to 20)
#    0.000    1.625    0.000    6.750    0.000    8.500 
#    0.000    2.500    0.000    0.000    0.000    0.000 
#    0.000    0.000    0.000    0.000    0.000    0.000 
#
# Total GULP energy -178924.213220 kJ/mol
# GULP energy per Si atom -5591.381663 kJ/mol
# Density = 1.857382 g / cm^3
# Si number density = 18.616187 Si / 1000 Ang^3
#
#
#
# Elastic Constant Matrix: (Units=GPa)
#
#
# Indices 1 2 3 4 5 6 
#
# 1 136.3865 111.2305 109.1628 0.0000 0.0000 0.0000
# 2 111.2305 138.0183 114.6084 0.0000 0.0000 0.0000
# 3 109.1628 114.6084 147.8865 0.0000 0.0000 0.0000
# 4 0.0000 0.0000 0.0000 -347.7191 0.0000 0.0000
# 5 0.0000 0.0000 0.0000 0.0000 3.3070 0.0000
# 6 0.0000 0.0000 0.0000 0.0000 0.0000 34.0429
#
#
#
# Elastic Compliance Matrix: (Units=1/GPa)
#
#
# Indices 1 2 3 4 5 6 
#
# 1 0.024159 -0.013078 -0.007699 0.000000 0.000000 0.000000
# 2 -0.013078 0.027404 -0.011584 0.000000 0.000000 0.000000
# 3 -0.007699 -0.011584 0.021422 0.000000 0.000000 0.000000
# 4 0.000000 0.000000 0.000000 -0.002876 0.000000 0.000000
# 5 0.000000 0.000000 0.000000 0.000000 0.302393 0.000000
# 6 0.000000 0.000000 0.000000 0.000000 0.000000 0.029375
#
#
# Mechanical properties :
#
#
# Convention : Reuss Voigt Hill
#
# Bulk Modulus (GPa) = 120.99303 121.36606 121.17955
# Shear Modulus (GPa) = 10.65294 -56.25454 -22.80080
#
# Velocity S-wave (km/s) = 2.39475 -5.50306 -3.50349
# Velocity P-wave (km/s) = 8.53118 4.99571 6.99064
#
# Compressibility (1/GPa) = 0.00826494
#
# Stress axis : x y z
#
# Youngs Moduli (GPa) = 41.39170 36.49062 46.68045
#
# Poissons Ratio (x) = 0.47721 0.35937
# Poissons Ratio (y) = 0.54130 0.54076
# Poissons Ratio (z) = 0.31865 0.42272
#
# Static dielectric constant tensor:
#      x y z
#    x 1.617160 0.000000 0.000000 
#    y 0.000000 1.611160 0.000000 
#    z 0.000000 0.000000 1.631320 
# 
# From -- ./inp_files/58836.got.cif
#   From: 2010.05.17/outbox.cif.g08.bks.cpg/sg65_30_cif.got.tgz:58836.got - 2010.06.03 17:01:31.
