data_PCOD9494798
_publ_section_title
;
Structure prediction by ZEFSAII (Michael W. Deem and Ramdas Pophale) SiO2 
 PCOD9494798
Probable space group: C M M M
;
_chemical_formula_sum "Si O2"
_cell_formula_units_Z 40
_cell_length_a 18.000000
_cell_length_b 27.000000
_cell_length_c 9.000000
_cell_angle_alpha 90.000000
_cell_angle_beta 90.000000
_cell_angle_gamma 90.000000
_cell_volume 4374.000000
_symmetry_space_group_name_H-M "C M M M"
_symmetry_group_IT_number 65
_symmetry_cell_setting 'orthorhombic'
loop_
_space_group_symop_operation_xyz
x,y,z
-x,-y,z
x,-y,-z
-x,y,-z
-x,-y,-z
x,y,-z
-x,y,z
x,-y,z
1/2+x,1/2+y,z
1/2-x,1/2-y,z
1/2+x,1/2-y,-z
1/2-x,1/2+y,-z
1/2-x,1/2-y,-z
1/2+x,1/2+y,-z
1/2-x,1/2+y,z
1/2+x,1/2-y,z
loop_
_atom_site_type_symbol
_atom_site_label
_atom_site_fract_x
_atom_site_fract_y
_atom_site_fract_z
Si Si1 0.157244 0.303549 0.327520
Si Si2 0.583425 0.287432 0.823929
Si Si3 0.689125 0.358253 0.674754
Si Si4 0.770099 0.557052 0.831641
Si Si5 0.584449 0.909379 0.675210
O O1 0.155060 0.287842 0.500000
O O2 0.131874 0.258946 0.227266
O O3 0.239699 0.322925 0.294392
O O4 0.103531 0.351040 0.310180
O O5 0.500000 0.279911 0.767827
O O6 0.619135 0.336578 0.757967
O O7 0.582785 0.290300 0.000000
O O8 0.677149 0.358218 0.500000
O O9 0.715636 0.411186 0.730887
O O10 0.749582 0.500000 0.831192
O O11 0.853217 0.562988 0.768500
O O12 0.768109 0.576499 0.000000
O O13 0.593055 0.921373 0.500000
O O14 0.500000 0.919640 0.719398
#
# Coordination Sequence:
#
# PCOD9494798 Si02
#       5
#    16  16  16  16  16
#     4   9  18  33  52  75 104 139 178 213 247 293
#     4  11  23  35  50  77 110 140 170 207 254 306
#     4  10  21  37  57  78 101 134 175 216 256 301
#     4  10  21  36  54  76 102 133 169 213 266 316
#     4   9  18  32  50  74 106 143 180 217 254 294
#
# _framework density 9.1449470000000002
#
# number of rings (size 3 to 8) (size 9 to 14) (size 15 to 20)
#    0.000    2.200    0.000    4.200    0.000   11.200 
#    0.000    2.000    0.000    0.600    0.000    4.200 
#    0.000    0.000    0.000    0.000    0.000    0.000 
#
# Total GULP energy -223248.752217 kJ/mol
# GULP energy per Si atom -5581.218805 kJ/mol
# Density = 0.912413 g / cm^3
# Si number density = 9.144947 Si / 1000 Ang^3
#
#
#
# Elastic Constant Matrix: (Units=GPa)
#
#
# Indices 1 2 3 4 5 6 
#
# 1 -15.5192 22.7090 40.1916 0.0000 0.0000 0.0000
# 2 22.7090 45.8838 35.1093 0.0000 0.0000 0.0000
# 3 40.1916 35.1093 -0.4938 0.0000 0.0000 0.0000
# 4 0.0000 0.0000 0.0000 28.5562 0.0000 0.0000
# 5 0.0000 0.0000 0.0000 0.0000 26.7756 0.0000
# 6 0.0000 0.0000 0.0000 0.0000 0.0000 -23.8686
#
#
#
# Elastic Compliance Matrix: (Units=1/GPa)
#
#
# Indices 1 2 3 4 5 6 
#
# 1 -0.129330 0.146534 -0.107852 0.000000 0.000000 0.000000
# 2 0.146534 -0.165634 0.150168 0.000000 0.000000 0.000000
# 3 -0.107852 0.150168 -0.126492 0.000000 0.000000 0.000000
# 4 0.000000 0.000000 0.000000 0.035019 0.000000 0.000000
# 5 0.000000 0.000000 0.000000 0.000000 0.037347 0.000000
# 6 0.000000 0.000000 0.000000 0.000000 0.000000 -0.041896
#
#
# Mechanical properties :
#
#
# Convention : Reuss Voigt Hill
#
# Bulk Modulus (GPa) = -22.85402 25.09898 1.12248
# Shear Modulus (GPa) = -6.38348 1.75004 -2.31672
#
# Velocity S-wave (km/s) = -1.87023 0.97924 -1.12668
# Velocity P-wave (km/s) = 4.14563 3.87701 1.03803
#
# Compressibility (1/GPa) = -0.04375598
#
# Stress axis : x y z
#
# Youngs Moduli (GPa) = -7.73217 -6.03740 -7.90563
#
# Poissons Ratio (x) = 0.88469 -0.85264
# Poissons Ratio (y) = 1.13303 1.18717
# Poissons Ratio (z) = -0.83393 0.90662
#
# Static dielectric constant tensor:
#      x y z
#    x 1.616450 0.000000 0.000000 
#    y 0.000000 1.629590 0.000000 
#    z 0.000000 0.000000 1.618890 
# 
# From -- ./inp_files/9578.got.cif
#   From: 2010.05.17/outbox.ucp.g08.bks.cvg/sg65_5_cif.got.tgz:9578.got - 2010.06.11 16:39:57.
