data_PCOD9494021
_publ_section_title
;
Structure prediction by ZEFSAII (Michael W. Deem and Ramdas Pophale) SiO2 
 PCOD9494021
Probable space group: C M M M
;
_chemical_formula_sum "Si O2"
_cell_formula_units_Z 84
_cell_length_a 20.107650
_cell_length_b 15.415213
_cell_length_c 14.575599
_cell_angle_alpha 90.000000
_cell_angle_beta 90.000000
_cell_angle_gamma 90.000000
_cell_volume 4517.906708
_symmetry_space_group_name_H-M "C M M M"
_symmetry_group_IT_number 65
_symmetry_cell_setting 'orthorhombic'
loop_
_space_group_symop_operation_xyz
x,y,z
-x,-y,z
x,-y,-z
-x,y,-z
-x,-y,-z
x,y,-z
-x,y,z
x,-y,z
1/2+x,1/2+y,z
1/2-x,1/2-y,z
1/2+x,1/2-y,-z
1/2-x,1/2+y,-z
1/2-x,1/2-y,-z
1/2+x,1/2+y,-z
1/2-x,1/2+y,z
1/2+x,1/2-y,z
loop_
_atom_site_type_symbol
_atom_site_label
_atom_site_fract_x
_atom_site_fract_y
_atom_site_fract_z
Si Si1 0.392087 0.653748 0.249433
Si Si2 0.500000 0.603295 0.103168
Si Si3 0.000000 0.500000 0.254440
Si Si4 0.423735 0.785610 0.500000
Si Si5 0.421551 0.500000 0.605431
Si Si6 0.603078 0.849421 0.696509
Si Si7 0.703324 0.665689 0.500000
Si Si8 0.744018 0.601580 0.698904
O O1 0.435021 0.628241 0.161616
O O2 0.406183 0.583934 0.330943
O O3 0.412625 0.751133 0.274085
O O4 0.312239 0.649253 0.241301
O O5 0.500000 0.500000 0.097665
O O6 0.500000 0.639626 0.000000
O O7 0.057999 0.576733 0.259375
O O8 0.500000 0.753849 0.500000
O O9 0.411194 0.845575 0.412075
O O10 0.371039 0.706341 0.500000
O O11 0.500000 0.500000 0.594509
O O12 0.392966 0.500000 0.500000
O O13 0.681222 0.865849 0.711428
O O14 0.750000 0.750000 0.500000
O O15 0.722882 0.616665 0.592732
O O16 0.740906 0.500000 0.719007
#
# Coordination Sequence:
#
# PCOD9494021 Si02
#       8
#    16   8   4   8   8  16   8  16
#     4  12  22  41  64  96 126 172 215 265 322 401
#     4  11  23  44  68  97 132 166 208 269 335 401
#     4  12  26  43  56  88 117 176 224 278 323 376
#     4  12  24  36  56  80 117 181 228 280 318 375
#     4  11  24  37  56  89 130 167 211 251 310 372
#     4  12  25  40  60  85 130 170 228 271 326 377
#     4  12  21  36  54  80 118 178 228 265 316 376
#     4  12  23  38  59  84 126 172 227 268 319 387
#
# _framework density 18.592682
#
# number of rings (size 3 to 8) (size 9 to 14) (size 15 to 20)
#    0.000    0.190    8.571    1.429    2.667    0.762 
#    0.000    0.000    0.000    2.857    0.000    5.333 
#    0.000    0.000    0.000    0.000    0.000    0.000 
#
# Total GULP energy -234191.665062 kJ/mol
# GULP energy per Si atom -5575.992025 kJ/mol
# Density = 1.855036 g / cm^3
# Si number density = 18.592682 Si / 1000 Ang^3
#
#
#
# Elastic Constant Matrix: (Units=GPa)
#
#
# Indices 1 2 3 4 5 6 
#
# 1 173.6309 34.4746 41.5632 0.0000 0.0000 0.0000
# 2 34.4746 135.3697 24.2152 0.0000 0.0000 0.0000
# 3 41.5632 24.2152 84.1747 0.0000 0.0000 0.0000
# 4 0.0000 0.0000 0.0000 6.6078 0.0000 0.0000
# 5 0.0000 0.0000 0.0000 0.0000 -23.7597 0.0000
# 6 0.0000 0.0000 0.0000 0.0000 0.0000 42.3191
#
#
#
# Elastic Compliance Matrix: (Units=1/GPa)
#
#
# Indices 1 2 3 4 5 6 
#
# 1 0.006704 -0.001176 -0.002972 0.000000 0.000000 0.000000
# 2 -0.001176 0.007994 -0.001719 0.000000 0.000000 0.000000
# 3 -0.002972 -0.001719 0.013842 0.000000 0.000000 0.000000
# 4 0.000000 0.000000 0.000000 0.151337 0.000000 0.000000
# 5 0.000000 0.000000 0.000000 0.000000 -0.042088 0.000000
# 6 0.000000 0.000000 0.000000 0.000000 0.000000 0.023630
#
#
# Mechanical properties :
#
#
# Convention : Reuss Voigt Hill
#
# Bulk Modulus (GPa) = 59.50095 65.96459 62.73277
# Shear Modulus (GPa) = 27.97113 24.56160 26.26636
#
# Velocity S-wave (km/s) = 3.88289 3.63855 3.76270
# Velocity P-wave (km/s) = 7.22317 7.29437 7.25886
#
# Compressibility (1/GPa) = 0.01680646
#
# Stress axis : x y z
#
# Youngs Moduli (GPa) = 149.15926 125.09180 72.24289
#
# Poissons Ratio (x) = 0.14707 0.21472
# Poissons Ratio (y) = 0.17537 0.12420
# Poissons Ratio (z) = 0.44332 0.21506
#
# Static dielectric constant tensor:
#      x y z
#    x 1.696660 0.000000 0.000000 
#    y 0.000000 1.679780 0.000000 
#    z 0.000000 0.000000 1.638870 
# 
# From -- ./inp_files/44072.got.cif
#   From: 2010.05.17/outbox.cif.g08.bks.cpg/sg65_23_cif.got.tgz:44072.got - 2010.06.03 17:01:31.
