data_PCOD9494229
_publ_section_title
;
Structure prediction by ZEFSAII (Michael W. Deem and Ramdas Pophale) SiO2 
 PCOD9494229
Probable space group: C M M M
;
_chemical_formula_sum "Si O2"
_cell_formula_units_Z 88
_cell_length_a 7.394132
_cell_length_b 19.569467
_cell_length_c 29.577536
_cell_angle_alpha 90.000000
_cell_angle_beta 90.000000
_cell_angle_gamma 90.000000
_cell_volume 4279.846453
_symmetry_space_group_name_H-M "C M M M"
_symmetry_group_IT_number 65
_symmetry_cell_setting 'orthorhombic'
loop_
_space_group_symop_operation_xyz
x,y,z
-x,-y,z
x,-y,-z
-x,y,-z
-x,-y,-z
x,y,-z
-x,y,z
x,-y,z
1/2+x,1/2+y,z
1/2-x,1/2-y,z
1/2+x,1/2-y,-z
1/2-x,1/2+y,-z
1/2-x,1/2-y,-z
1/2+x,1/2+y,-z
1/2-x,1/2+y,z
1/2+x,1/2-y,z
loop_
_atom_site_type_symbol
_atom_site_label
_atom_site_fract_x
_atom_site_fract_y
_atom_site_fract_z
Si Si1 0.778448 0.578849 0.633694
Si Si2 0.716057 0.829642 0.181500
Si Si3 0.716090 0.828807 0.448950
Si Si4 0.212559 0.582942 0.000000
Si Si5 0.716224 0.170224 0.282848
Si Si6 0.221479 0.579376 0.098505
O O1 0.723232 0.500000 0.634194
O O2 0.717421 0.619138 0.588924
O O3 0.717304 0.620559 0.677870
O O4 0.000000 0.579839 0.633667
O O5 0.500000 0.839767 0.183096
O O6 0.750000 0.750000 0.172286
O O7 0.786265 0.844203 0.232164
O O8 0.784459 0.876153 0.140740
O O9 0.786927 0.839049 0.500000
O O10 0.500000 0.837275 0.451053
O O11 0.750000 0.750000 0.435932
O O12 0.284620 0.604715 0.048963
O O13 0.224661 0.500000 0.000000
O O14 0.000000 0.600466 0.000000
O O15 0.500000 0.161881 0.281226
O O16 0.750000 0.250000 0.293286
O O17 0.272173 0.500000 0.103834
O O18 0.000000 0.581040 0.097559
#
# Coordination Sequence:
#
# PCOD9494229 Si02
#       6
#    16  16  16   8  16  16
#     4   9  17  28  43  65  89 109 134 172 212 244
#     4   9  17  28  42  61  84 108 134 166 204 244
#     4   9  17  29  46  66  86 111 142 172 202 240
#     4   7  10  18  33  54  79 103 128 163 204 238
#     4   9  17  29  45  62  81 109 140 168 201 242
#     4   8  13  22  38  59  80 103 134 170 203 236
#
# _framework density 20.561485999999999
#
# number of rings (size 3 to 8) (size 9 to 14) (size 15 to 20)
#    0.000    3.364    0.000    1.636    0.000    1.091 
#    0.000    5.909    0.000    2.727    0.000    7.636 
#    0.000    2.182    0.000    0.000    0.000    0.000 
#
# Total GULP energy -245363.424631 kJ/mol
# GULP energy per Si atom -5576.441469 kJ/mol
# Density = 2.051469 g / cm^3
# Si number density = 20.561486 Si / 1000 Ang^3
#
#
#
# Elastic Constant Matrix: (Units=GPa)
#
#
# Indices 1 2 3 4 5 6 
#
# 1 71.2592 -0.0202 9.8774 0.0000 0.0000 0.0000
# 2 -0.0202 137.6916 152.7299 0.0000 0.0000 0.0000
# 3 9.8774 152.7299 221.9156 0.0000 0.0000 0.0000
# 4 0.0000 0.0000 0.0000 50.1016 0.0000 0.0000
# 5 0.0000 0.0000 0.0000 0.0000 9.8961 0.0000
# 6 0.0000 0.0000 0.0000 0.0000 0.0000 14.8335
#
#
#
# Elastic Compliance Matrix: (Units=1/GPa)
#
#
# Indices 1 2 3 4 5 6 
#
# 1 0.014411 0.003016 -0.002717 0.000000 0.000000 0.000000
# 2 0.003016 0.031327 -0.021695 0.000000 0.000000 0.000000
# 3 -0.002717 -0.021695 0.019558 0.000000 0.000000 0.000000
# 4 0.000000 0.000000 0.000000 0.019959 0.000000 0.000000
# 5 0.000000 0.000000 0.000000 0.000000 0.101050 0.000000
# 6 0.000000 0.000000 0.000000 0.000000 0.000000 0.067415
#
#
# Mechanical properties :
#
#
# Convention : Reuss Voigt Hill
#
# Bulk Modulus (GPa) = 44.43554 84.00450 64.22002
# Shear Modulus (GPa) = 16.44664 32.85153 24.64909
#
# Velocity S-wave (km/s) = 2.83128 4.00149 3.46612
# Velocity P-wave (km/s) = 5.68737 7.89260 6.87893
#
# Compressibility (1/GPa) = 0.02250451
#
# Stress axis : x y z
#
# Youngs Moduli (GPa) = 69.39256 31.92125 51.12962
#
# Poissons Ratio (x) = -0.09628 0.13893
# Poissons Ratio (y) = -0.20929 1.10924
# Poissons Ratio (z) = 0.18855 0.69252
#
# Static dielectric constant tensor:
#      x y z
#    x 1.791870 0.000000 0.000000 
#    y 0.000000 1.660730 0.000000 
#    z 0.000000 0.000000 1.757140 
# 
# From -- ./inp_files/74235.got.cif
#   From: 2010.05.17/outbox.cif.g08.bks.cpg/sg65_38_cif.got.tgz:74235.got - 2010.06.03 17:01:31.
