data_PCOD9494132
_publ_section_title
;
Structure prediction by ZEFSAII (Michael W. Deem and Ramdas Pophale) SiO2 
 PCOD9494132
Probable space group: C M M M
;
_chemical_formula_sum "Si O2"
_cell_formula_units_Z 80
_cell_length_a 14.027763
_cell_length_b 10.764284
_cell_length_c 27.551691
_cell_angle_alpha 90.000000
_cell_angle_beta 90.000000
_cell_angle_gamma 90.000000
_cell_volume 4160.272963
_symmetry_space_group_name_H-M "C M M M"
_symmetry_group_IT_number 65
_symmetry_cell_setting 'orthorhombic'
loop_
_space_group_symop_operation_xyz
x,y,z
-x,-y,z
x,-y,-z
-x,y,-z
-x,-y,-z
x,y,-z
-x,y,z
x,-y,z
1/2+x,1/2+y,z
1/2-x,1/2-y,z
1/2+x,1/2-y,-z
1/2-x,1/2+y,-z
1/2-x,1/2-y,-z
1/2+x,1/2+y,-z
1/2-x,1/2+y,z
1/2+x,1/2-y,z
loop_
_atom_site_type_symbol
_atom_site_label
_atom_site_fract_x
_atom_site_fract_y
_atom_site_fract_z
Si Si1 0.608000 0.148458 0.894787
Si Si2 0.750000 0.750000 0.816120
Si Si3 0.115962 0.143168 0.629179
Si Si4 0.607313 0.647975 0.262601
Si Si5 0.615940 0.141589 0.000000
Si Si6 0.616034 0.859782 0.555882
O O1 0.500000 0.193519 0.884074
O O2 0.681054 0.175320 0.852146
O O3 0.639453 0.199822 0.947777
O O4 0.602062 0.000000 0.900679
O O5 0.679536 0.677969 0.780109
O O6 0.141066 0.187004 0.683673
O O7 0.145250 0.245811 0.589997
O O8 0.000000 0.138933 0.628686
O O9 0.147538 0.000000 0.620602
O O10 0.500000 0.698165 0.253581
O O11 0.599715 0.500000 0.266203
O O12 0.500000 0.134852 0.000000
O O13 0.653820 0.000000 0.000000
O O14 0.646406 0.842293 0.500000
O O15 0.500000 0.859337 0.555924
O O16 0.644436 0.000000 0.571423
#
# Coordination Sequence:
#
# PCOD9494132 Si02
#       6
#    16   8  16  16   8  16
#     4   9  18  32  49  71  99 128 160 199 242 291
#     4  12  20  29  50  76  97 122 162 210 252 292
#     4   8  14  26  43  60  83 123 170 204 234 291
#     4   9  19  35  50  66  95 133 168 204 250 300
#     4   7  12  27  48  66  92 130 160 188 236 292
#     4   8  13  21  35  60  94 124 150 192 253 307
#
# _framework density 19.229507000000002
#
# number of rings (size 3 to 8) (size 9 to 14) (size 15 to 20)
#    0.000    3.300    0.000    4.200    0.000    0.800 
#    0.000    4.000    0.000    4.800    0.000    0.700 
#    0.000   12.800    0.000    0.000    0.000    0.200 
#
# Total GULP energy -222688.542244 kJ/mol
# GULP energy per Si atom -5567.213556 kJ/mol
# Density = 1.918574 g / cm^3
# Si number density = 19.229507 Si / 1000 Ang^3
#
#
#
# Elastic Constant Matrix: (Units=GPa)
#
#
# Indices 1 2 3 4 5 6 
#
# 1 90.0777 24.6723 52.9117 0.0000 0.0000 0.0000
# 2 24.6723 59.4536 66.0507 0.0000 0.0000 0.0000
# 3 52.9117 66.0507 166.0954 0.0000 0.0000 0.0000
# 4 0.0000 0.0000 0.0000 27.9401 0.0000 0.0000
# 5 0.0000 0.0000 0.0000 0.0000 -24.6200 0.0000
# 6 0.0000 0.0000 0.0000 0.0000 0.0000 31.4170
#
#
#
# Elastic Compliance Matrix: (Units=1/GPa)
#
#
# Indices 1 2 3 4 5 6 
#
# 1 0.013732 -0.001502 -0.003777 0.000000 0.000000 0.000000
# 2 -0.001502 0.030296 -0.011569 0.000000 0.000000 0.000000
# 3 -0.003777 -0.011569 0.011825 0.000000 0.000000 0.000000
# 4 0.000000 0.000000 0.000000 0.035791 0.000000 0.000000
# 5 0.000000 0.000000 0.000000 0.000000 -0.040617 0.000000
# 6 0.000000 0.000000 0.000000 0.000000 0.000000 0.031830
#
#
# Mechanical properties :
#
#
# Convention : Reuss Voigt Hill
#
# Bulk Modulus (GPa) = 45.13588 66.98846 56.06217
# Shear Modulus (GPa) = 40.34281 18.41357 29.37819
#
# Velocity S-wave (km/s) = 4.58532 3.09782 3.91291
# Velocity P-wave (km/s) = 7.18030 6.90704 7.04500
#
# Compressibility (1/GPa) = 0.02215532
#
# Stress axis : x y z
#
# Youngs Moduli (GPa) = 72.82473 33.00735 84.57008
#
# Poissons Ratio (x) = 0.04959 0.31941
# Poissons Ratio (y) = 0.10941 0.97841
# Poissons Ratio (z) = 0.27505 0.38187
#
# Static dielectric constant tensor:
#      x y z
#    x 1.750520 0.000000 0.000000 
#    y 0.000000 1.650860 0.000000 
#    z 0.000000 0.000000 1.701860 
# 
# From -- ./inp_files/69714.got.cif
#   From: 2010.05.17/outbox.cif.g08.bks.cpg/sg65_35_cif.got.tgz:69714.got - 2010.06.03 17:01:31.
