data_PCOD9494137
_publ_section_title
;
Structure prediction by ZEFSAII (Michael W. Deem and Ramdas Pophale) SiO2 
 PCOD9494137
Probable space group: C M M M
;
_chemical_formula_sum "Si O2"
_cell_formula_units_Z 104
_cell_length_a 18.862646
_cell_length_b 17.361297
_cell_length_c 18.089754
_cell_angle_alpha 90.000000
_cell_angle_beta 90.000000
_cell_angle_gamma 90.000000
_cell_volume 5924.032629
_symmetry_space_group_name_H-M "C M M M"
_symmetry_group_IT_number 65
_symmetry_cell_setting 'orthorhombic'
loop_
_space_group_symop_operation_xyz
x,y,z
-x,-y,z
x,-y,-z
-x,y,-z
-x,-y,-z
x,y,-z
-x,y,z
x,-y,z
1/2+x,1/2+y,z
1/2-x,1/2-y,z
1/2+x,1/2-y,-z
1/2-x,1/2+y,-z
1/2-x,1/2-y,-z
1/2+x,1/2+y,-z
1/2-x,1/2+y,z
1/2+x,1/2-y,z
loop_
_atom_site_type_symbol
_atom_site_label
_atom_site_fract_x
_atom_site_fract_y
_atom_site_fract_z
Si Si1 0.704779 0.912856 0.856109
Si Si2 0.870434 0.905852 0.310877
Si Si3 0.500000 0.594058 0.585230
Si Si4 0.206438 0.594249 0.307981
Si Si5 0.624856 0.413154 0.853127
Si Si6 0.917388 0.176834 0.000000
Si Si7 0.579569 0.906180 0.585902
Si Si8 0.184976 0.310970 0.000000
O O1 0.684425 0.881937 0.775160
O O2 0.789988 0.917760 0.851717
O O3 0.677165 0.000000 0.865375
O O4 0.687739 0.861783 0.926448
O O5 0.928753 0.881996 0.370972
O O6 0.788214 0.881896 0.323969
O O7 0.894423 0.881902 0.228108
O O8 0.869521 0.000000 0.309396
O O9 0.500000 0.500000 0.585304
O O10 0.500000 0.619356 0.500000
O O11 0.207544 0.500000 0.307433
O O12 0.146188 0.619915 0.365213
O O13 0.596053 0.500000 0.860426
O O14 0.606053 0.365946 0.925356
O O15 0.884702 0.260642 0.000000
O O16 0.000000 0.179252 0.000000
O O17 0.588187 0.884299 0.500000
O O18 0.500000 0.882074 0.610243
O O19 0.580053 0.000000 0.588355
O O20 0.250000 0.250000 0.000000
#
# Coordination Sequence:
#
# PCOD9494137 Si02
#       8
#    16  16   8  16  16   8  16   8
#     4   9  17  32  55  76  94 125 172 209 236 290
#     4   8  15  25  38  57  86 121 157 200 238 277
#     4   9  16  24  34  53  85 129 171 196 226 277
#     4   8  14  25  41  64  90 119 157 198 234 279
#     4   9  17  31  49  72  98 125 163 203 249 302
#     4  12  25  34  45  72 103 130 160 203 255 299
#     4   8  13  21  35  59  92 124 151 186 239 296
#     4  12  21  35  53  71  97 132 160 200 250 293
#
# _framework density 17.555610000000001
#
# number of rings (size 3 to 8) (size 9 to 14) (size 15 to 20)
#    0.000    3.000    1.538    2.769    1.077    2.462 
#    0.000    3.846    0.000    1.846    0.000    0.000 
#    0.000    1.846    0.923    0.154    0.000    0.615 
#
# Total GULP energy -289484.553775 kJ/mol
# GULP energy per Si atom -5567.010650 kJ/mol
# Density = 1.751565 g / cm^3
# Si number density = 17.555610 Si / 1000 Ang^3
#
#
#
# Elastic Constant Matrix: (Units=GPa)
#
#
# Indices 1 2 3 4 5 6 
#
# 1 81.6370 10.5871 85.0777 0.0000 0.0000 0.0000
# 2 10.5871 13.2649 31.6545 0.0000 0.0000 0.0000
# 3 85.0777 31.6545 170.7665 0.0000 0.0000 0.0000
# 4 0.0000 0.0000 0.0000 -7.5611 0.0000 0.0000
# 5 0.0000 0.0000 0.0000 0.0000 11.1339 0.0000
# 6 0.0000 0.0000 0.0000 0.0000 0.0000 3.7883
#
#
#
# Elastic Compliance Matrix: (Units=1/GPa)
#
#
# Indices 1 2 3 4 5 6 
#
# 1 0.028076 0.019674 -0.017634 0.000000 0.000000 0.000000
# 2 0.019674 0.148972 -0.037416 0.000000 0.000000 0.000000
# 3 -0.017634 -0.037416 0.021577 0.000000 0.000000 0.000000
# 4 0.000000 0.000000 0.000000 -0.132255 0.000000 0.000000
# 5 0.000000 0.000000 0.000000 0.000000 0.089816 0.000000
# 6 0.000000 0.000000 0.000000 0.000000 0.000000 0.263967
#
#
# Mechanical properties :
#
#
# Convention : Reuss Voigt Hill
#
# Bulk Modulus (GPa) = 7.82034 57.81188 32.81611
# Shear Modulus (GPa) = 9.37152 10.69550 10.03351
#
# Velocity S-wave (km/s) = 2.31296 2.47095 2.39326
# Velocity P-wave (km/s) = 3.40548 6.41428 5.13519
#
# Compressibility (1/GPa) = 0.12787160
#
# Stress axis : x y z
#
# Youngs Moduli (GPa) = 35.61807 6.71265 46.34488
#
# Poissons Ratio (x) = -0.13206 0.81727
# Poissons Ratio (y) = -0.70074 1.73405
# Poissons Ratio (z) = 0.62811 0.25116
#
# Static dielectric constant tensor:
#      x y z
#    x 1.595910 0.000000 0.000000 
#    y 0.000000 1.595520 0.000000 
#    z 0.000000 0.000000 1.633170 
# 
# From -- ./inp_files/54647.got.cif
#   From: 2010.05.17/outbox.cif.g08.bks.cpg/sg65_28_cif.got.tgz:54647.got - 2010.06.03 17:01:31.
