data_PCOD9494089
_publ_section_title
;
Structure prediction by ZEFSAII (Michael W. Deem and Ramdas Pophale) SiO2 
 PCOD9494089
Probable space group: C M M M
;
_chemical_formula_sum "Si O2"
_cell_formula_units_Z 56
_cell_length_a 15.116781
_cell_length_b 12.601304
_cell_length_c 14.495259
_cell_angle_alpha 90.000000
_cell_angle_beta 90.000000
_cell_angle_gamma 90.000000
_cell_volume 2761.218598
_symmetry_space_group_name_H-M "C M M M"
_symmetry_group_IT_number 65
_symmetry_cell_setting 'orthorhombic'
loop_
_space_group_symop_operation_xyz
x,y,z
-x,-y,z
x,-y,-z
-x,y,-z
-x,-y,-z
x,y,-z
-x,y,z
x,-y,z
1/2+x,1/2+y,z
1/2-x,1/2-y,z
1/2+x,1/2-y,-z
1/2-x,1/2+y,-z
1/2-x,1/2-y,-z
1/2+x,1/2+y,-z
1/2-x,1/2+y,z
1/2+x,1/2-y,z
loop_
_atom_site_type_symbol
_atom_site_label
_atom_site_fract_x
_atom_site_fract_y
_atom_site_fract_z
Si Si1 0.000000 0.628647 0.888041
Si Si2 0.392744 0.769147 0.395846
Si Si3 0.894364 0.000000 0.102064
Si Si4 0.900187 0.500000 0.388909
Si Si5 0.850652 0.781182 0.800778
O O1 0.916503 0.690177 0.841439
O O2 0.000000 0.500000 0.872517
O O3 0.000000 0.644915 0.000000
O O4 0.363888 0.740678 0.500000
O O5 0.500000 0.776192 0.399262
O O6 0.357793 0.887133 0.369048
O O7 0.367183 0.700983 0.308518
O O8 0.868496 0.892082 0.150961
O O9 0.000000 0.000000 0.096648
O O10 0.855206 0.000000 0.000000
O O11 0.908766 0.500000 0.500000
O O12 0.000000 0.500000 0.349321
O O13 0.750000 0.750000 0.816091
#
# Coordination Sequence:
#
# PCOD9494089 Si02
#       5
#     8  16   8   8  16
#     4  11  26  47  70 100 135 171 219 287 347 392
#     4   9  17  33  59  91 132 177 220 264 321 392
#     4  11  24  47  71  90 128 184 231 272 329 413
#     4   7  12  23  48  84 118 162 210 251 304 375
#     4  12  26  42  69 103 137 174 224 276 338 400
#
# _framework density 20.280901
#
# number of rings (size 3 to 8) (size 9 to 14) (size 15 to 20)
#    0.000    1.857    2.857    2.571    4.000    2.857 
#    0.000    0.714    0.000    2.571    0.000    0.000 
#    0.000    0.000    0.000    0.000    0.000    0.000 
#
# Total GULP energy -156172.807994 kJ/mol
# GULP energy per Si atom -5577.600285 kJ/mol
# Density = 2.023474 g / cm^3
# Si number density = 20.280901 Si / 1000 Ang^3
#
#
#
# Elastic Constant Matrix: (Units=GPa)
#
#
# Indices 1 2 3 4 5 6 
#
# 1 113.7914 42.7349 40.8866 0.0000 0.0000 0.0000
# 2 42.7349 132.3397 90.2103 0.0000 0.0000 0.0000
# 3 40.8866 90.2103 180.5585 0.0000 0.0000 0.0000
# 4 0.0000 0.0000 0.0000 37.4234 0.0000 0.0000
# 5 0.0000 0.0000 0.0000 0.0000 -49.6389 0.0000
# 6 0.0000 0.0000 0.0000 0.0000 0.0000 22.4454
#
#
#
# Elastic Compliance Matrix: (Units=1/GPa)
#
#
# Indices 1 2 3 4 5 6 
#
# 1 0.010118 -0.002586 -0.000999 0.000000 0.000000 0.000000
# 2 -0.002586 0.012120 -0.005470 0.000000 0.000000 0.000000
# 3 -0.000999 -0.005470 0.008497 0.000000 0.000000 0.000000
# 4 0.000000 0.000000 0.000000 0.026721 0.000000 0.000000
# 5 0.000000 0.000000 0.000000 0.000000 -0.020145 0.000000
# 6 0.000000 0.000000 0.000000 0.000000 0.000000 0.044553
#
#
# Mechanical properties :
#
#
# Convention : Reuss Voigt Hill
#
# Bulk Modulus (GPa) = 79.20531 86.03921 82.62226
# Shear Modulus (GPa) = 47.99267 18.90317 33.44792
#
# Velocity S-wave (km/s) = 4.86984 3.05629 4.06548
# Velocity P-wave (km/s) = 8.41186 7.41420 7.92874
#
# Compressibility (1/GPa) = 0.01262542
#
# Stress axis : x y z
#
# Youngs Moduli (GPa) = 98.83076 82.50868 117.68387
#
# Poissons Ratio (x) = 0.21340 0.11757
# Poissons Ratio (y) = 0.25561 0.64369
# Poissons Ratio (z) = 0.09874 0.45129
#
# Static dielectric constant tensor:
#      x y z
#    x 1.651220 0.000000 0.000000 
#    y 0.000000 1.698630 0.000000 
#    z 0.000000 0.000000 1.749540 
# 
# From -- ./inp_files/37456.got.cif
#   From: 2010.05.17/outbox.cif.g08.bks.cpg/sg65_19_cif.got.tgz:37456.got - 2010.06.03 17:01:31.
