data_PCOD9494254
_publ_section_title
;
Structure prediction by ZEFSAII (Michael W. Deem and Ramdas Pophale) SiO2 
 PCOD9494254
Probable space group: C M M M
;
_chemical_formula_sum "Si O2"
_cell_formula_units_Z 72
_cell_length_a 7.305311
_cell_length_b 29.735310
_cell_length_c 19.208150
_cell_angle_alpha 90.000000
_cell_angle_beta 90.000000
_cell_angle_gamma 90.000000
_cell_volume 4172.503584
_symmetry_space_group_name_H-M "C M M M"
_symmetry_group_IT_number 65
_symmetry_cell_setting 'orthorhombic'
loop_
_space_group_symop_operation_xyz
x,y,z
-x,-y,z
x,-y,-z
-x,y,-z
-x,-y,-z
x,y,-z
-x,y,z
x,-y,z
1/2+x,1/2+y,z
1/2-x,1/2-y,z
1/2+x,1/2-y,-z
1/2-x,1/2+y,-z
1/2-x,1/2-y,-z
1/2+x,1/2+y,-z
1/2-x,1/2+y,z
1/2+x,1/2-y,z
loop_
_atom_site_type_symbol
_atom_site_label
_atom_site_fract_x
_atom_site_fract_y
_atom_site_fract_z
Si Si1 0.223412 0.893618 0.137429
Si Si2 0.222822 0.051709 0.000000
Si Si3 0.282024 0.699548 0.920360
Si Si4 0.276613 0.552410 0.727300
Si Si5 0.220627 0.946400 0.425126
O O1 0.278902 0.922206 0.069620
O O2 0.283777 0.842302 0.125128
O O3 0.284050 0.917359 0.208288
O O4 0.000000 0.894201 0.138925
O O5 0.000000 0.051751 0.000000
O O6 0.281807 0.000000 0.000000
O O7 0.500000 0.694150 0.925189
O O8 0.250000 0.750000 0.893946
O O9 0.210609 0.696857 0.000000
O O10 0.500000 0.552411 0.727071
O O11 0.223041 0.500000 0.736175
O O12 0.216602 0.569438 0.650833
O O13 0.287211 0.928400 0.500000
O O14 0.000000 0.941558 0.425671
O O15 0.257675 0.000000 0.425031
#
# Coordination Sequence:
#
# PCOD9494254 Si02
#       5
#    16   8  16  16  16
#     4   9  14  20  28  41  61  83 105 130 160 192
#     4   9  14  18  25  38  59  85 105 121 148 189
#     4   9  16  26  38  50  65  84 108 139 173 203
#     4   8  12  16  23  37  58  83 106 127 155 191
#     4   7   9  13  20  30  47  74 106 132 150 175
#
# _framework density 17.255825999999999
#
# number of rings (size 3 to 8) (size 9 to 14) (size 15 to 20)
#    0.000    3.667    1.111    2.667    0.000    2.667 
#    0.000    0.000    0.000    0.000    0.000    0.000 
#    0.000    5.333    0.000    0.667    0.000    1.556 
#
# Total GULP energy -200492.163107 kJ/mol
# GULP energy per Si atom -5569.226753 kJ/mol
# Density = 1.721655 g / cm^3
# Si number density = 17.255826 Si / 1000 Ang^3
#
#
#
# Elastic Constant Matrix: (Units=GPa)
#
#
# Indices 1 2 3 4 5 6 
#
# 1 68.1707 2.1678 6.1116 0.0000 0.0000 0.0000
# 2 2.1678 122.2081 89.7207 0.0000 0.0000 0.0000
# 3 6.1116 89.7207 194.2469 0.0000 0.0000 0.0000
# 4 0.0000 0.0000 0.0000 3.1450 0.0000 0.0000
# 5 0.0000 0.0000 0.0000 0.0000 -12.0646 0.0000
# 6 0.0000 0.0000 0.0000 0.0000 0.0000 -3.2581
#
#
#
# Elastic Compliance Matrix: (Units=1/GPa)
#
#
# Indices 1 2 3 4 5 6 
#
# 1 0.014712 0.000119 -0.000518 0.000000 0.000000 0.000000
# 2 0.000119 0.012382 -0.005723 0.000000 0.000000 0.000000
# 3 -0.000518 -0.005723 0.007808 0.000000 0.000000 0.000000
# 4 0.000000 0.000000 0.000000 0.317965 0.000000 0.000000
# 5 0.000000 0.000000 0.000000 0.000000 -0.082887 0.000000
# 6 0.000000 0.000000 0.000000 0.000000 0.000000 -0.306923
#
#
# Mechanical properties :
#
#
# Convention : Reuss Voigt Hill
#
# Bulk Modulus (GPa) = 44.13369 64.51398 54.32384
# Shear Modulus (GPa) = -291.60060 16.67282 -137.46389
#
# Velocity S-wave (km/s) = -13.01359 3.11177 -8.93506
# Velocity P-wave (km/s) = 14.14826 7.09780 8.65432
#
# Compressibility (1/GPa) = 0.02265843
#
# Stress axis : x y z
#
# Youngs Moduli (GPa) = 67.97308 80.76068 128.07733
#
# Poissons Ratio (x) = -0.00964 0.06634
# Poissons Ratio (y) = -0.00811 0.73299
# Poissons Ratio (z) = 0.03521 0.46219
#
# Static dielectric constant tensor:
#      x y z
#    x 1.720350 0.000000 0.000000 
#    y 0.000000 1.557060 0.000000 
#    z 0.000000 0.000000 1.612560 
# 
# From -- ./inp_files/51771.got.cif
#   From: 2010.05.17/outbox.cif.g08.bks.cpg/sg65_26_cif.got.tgz:51771.got - 2010.06.03 17:01:31.
