data_PCOD9494449
_publ_section_title
;
Structure prediction by ZEFSAII (Michael W. Deem and Ramdas Pophale) SiO2 
 PCOD9494449
Probable space group: C M M M
;
_chemical_formula_sum "Si O2"
_cell_formula_units_Z 80
_cell_length_a 14.446785
_cell_length_b 9.428976
_cell_length_c 27.105459
_cell_angle_alpha 90.000000
_cell_angle_beta 90.000000
_cell_angle_gamma 90.000000
_cell_volume 3692.261959
_symmetry_space_group_name_H-M "C M M M"
_symmetry_group_IT_number 65
_symmetry_cell_setting 'orthorhombic'
loop_
_space_group_symop_operation_xyz
x,y,z
-x,-y,z
x,-y,-z
-x,y,-z
-x,-y,-z
x,y,-z
-x,y,z
x,-y,z
1/2+x,1/2+y,z
1/2-x,1/2-y,z
1/2+x,1/2-y,-z
1/2-x,1/2+y,-z
1/2-x,1/2-y,-z
1/2+x,1/2+y,-z
1/2-x,1/2+y,z
1/2+x,1/2-y,z
loop_
_atom_site_type_symbol
_atom_site_label
_atom_site_fract_x
_atom_site_fract_y
_atom_site_fract_z
Si Si1 0.613106 0.337680 0.500000
Si Si2 0.613293 0.660571 0.307725
Si Si3 0.386987 0.161924 0.403561
Si Si4 0.391921 0.841142 0.783419
Si Si5 0.152775 0.670608 0.893592
Si Si6 0.348969 0.829258 0.000000
O O1 0.645668 0.500000 0.500000
O O2 0.500000 0.341791 0.500000
O O3 0.640796 0.252877 0.548908
O O4 0.500000 0.654667 0.308017
O O5 0.646642 0.500000 0.313577
O O6 0.640210 0.759832 0.353299
O O7 0.644291 0.729744 0.256185
O O8 0.500000 0.157672 0.403889
O O9 0.354120 0.000000 0.405838
O O10 0.500000 0.855585 0.771208
O O11 0.388612 0.793024 0.840379
O O12 0.350376 0.000000 0.779312
O O13 0.162700 0.500000 0.893006
O O14 0.250000 0.750000 0.894424
O O15 0.106753 0.705454 0.946700
O O16 0.250000 0.750000 0.000000
O O17 0.335526 0.000000 0.000000
#
# Coordination Sequence:
#
# PCOD9494449 Si02
#       6
#     8  16  16  16  16   8
#     4   9  15  21  29  43  65  93 128 171 212 249
#     4   9  16  25  37  53  73 100 135 172 209 251
#     4   9  15  22  32  46  66  95 131 169 209 253
#     4   9  17  29  43  60  84 113 143 175 213 257
#     4   9  17  29  46  66  87 112 142 176 213 254
#     4   8  14  26  43  63  85 109 139 172 208 252
#
# _framework density 21.666934000000001
#
# number of rings (size 3 to 8) (size 9 to 14) (size 15 to 20)
#    0.000    3.100    0.000    1.500    0.000    6.800 
#    0.000    0.500    0.000    3.000    0.000    0.000 
#    0.000   11.200    0.000    0.900    0.000   13.200 
#
# Total GULP energy -223023.693719 kJ/mol
# GULP energy per Si atom -5575.592343 kJ/mol
# Density = 2.161762 g / cm^3
# Si number density = 21.666934 Si / 1000 Ang^3
#
#
#
# Elastic Constant Matrix: (Units=GPa)
#
#
# Indices 1 2 3 4 5 6 
#
# 1 51.8426 11.4071 -0.6720 0.0000 0.0000 0.0000
# 2 11.4071 141.2565 117.8313 0.0000 0.0000 0.0000
# 3 -0.6720 117.8313 218.8205 0.0000 0.0000 0.0000
# 4 0.0000 0.0000 0.0000 656.3615 0.0000 0.0000
# 5 0.0000 0.0000 0.0000 0.0000 27.1510 0.0000
# 6 0.0000 0.0000 0.0000 0.0000 0.0000 2.1148
#
#
#
# Elastic Compliance Matrix: (Units=1/GPa)
#
#
# Indices 1 2 3 4 5 6 
#
# 1 0.019976 -0.003022 0.001688 0.000000 0.000000 0.000000
# 2 -0.003022 0.013309 -0.007176 0.000000 0.000000 0.000000
# 3 0.001688 -0.007176 0.008439 0.000000 0.000000 0.000000
# 4 0.000000 0.000000 0.000000 0.001524 0.000000 0.000000
# 5 0.000000 0.000000 0.000000 0.000000 0.036831 0.000000
# 6 0.000000 0.000000 0.000000 0.000000 0.000000 0.472858
#
#
# Mechanical properties :
#
#
# Convention : Reuss Voigt Hill
#
# Bulk Modulus (GPa) = 40.47593 74.33917 57.40755
# Shear Modulus (GPa) = 8.64765 156.01566 82.33166
#
# Velocity S-wave (km/s) = 1.99996 8.49486 6.17100
# Velocity P-wave (km/s) = 4.90455 11.42809 8.79363
#
# Compressibility (1/GPa) = 0.02470604
#
# Stress axis : x y z
#
# Youngs Moduli (GPa) = 50.06038 75.13435 118.49150
#
# Poissons Ratio (x) = 0.22702 -0.20006
# Poissons Ratio (y) = 0.15126 0.85032
# Poissons Ratio (z) = -0.08452 0.53918
#
# Static dielectric constant tensor:
#      x y z
#    x 1.827570 0.000000 0.000000 
#    y 0.000000 1.741660 0.000000 
#    z 0.000000 0.000000 1.805000 
# 
# From -- ./inp_files/71362.got.cif
#   From: 2010.05.17/outbox.cif.g08.bks.cpg/sg65_36_cif.got.tgz:71362.got - 2010.06.03 17:01:31.
