data_PCOD9494287
_publ_section_title
;
Structure prediction by ZEFSAII (Michael W. Deem and Ramdas Pophale) SiO2 
 PCOD9494287
Probable space group: C M M M
;
_chemical_formula_sum "Si O2"
_cell_formula_units_Z 80
_cell_length_a 28.363063
_cell_length_b 7.300318
_cell_length_c 19.643630
_cell_angle_alpha 90.000000
_cell_angle_beta 90.000000
_cell_angle_gamma 90.000000
_cell_volume 4067.397836
_symmetry_space_group_name_H-M "C M M M"
_symmetry_group_IT_number 65
_symmetry_cell_setting 'orthorhombic'
loop_
_space_group_symop_operation_xyz
x,y,z
-x,-y,z
x,-y,-z
-x,y,-z
-x,-y,-z
x,y,-z
-x,y,z
x,-y,z
1/2+x,1/2+y,z
1/2-x,1/2-y,z
1/2+x,1/2-y,-z
1/2-x,1/2+y,-z
1/2-x,1/2-y,-z
1/2+x,1/2+y,-z
1/2-x,1/2+y,z
1/2+x,1/2-y,z
loop_
_atom_site_type_symbol
_atom_site_label
_atom_site_fract_x
_atom_site_fract_y
_atom_site_fract_z
Si Si1 0.395714 0.723176 0.712102
Si Si2 0.554648 0.277065 0.576014
Si Si3 0.147440 0.776759 0.075959
Si Si4 0.304025 0.282270 0.212084
Si Si5 0.947165 0.222546 0.849989
O O1 0.395921 0.500000 0.710266
O O2 0.413884 0.785738 0.639004
O O3 0.343637 0.784209 0.735109
O O4 0.430598 0.775078 0.773942
O O5 0.569250 0.219332 0.500000
O O6 0.500000 0.224347 0.586218
O O7 0.555431 0.500000 0.576293
O O8 0.182121 0.715176 0.136394
O O9 0.094604 0.722436 0.098999
O O10 0.148266 0.000000 0.075093
O O11 0.158913 0.714712 0.000000
O O12 0.310408 0.500000 0.209552
O O13 0.250000 0.250000 0.229530
O O14 0.000000 0.285053 0.865424
O O15 0.947780 0.000000 0.851210
#
# Coordination Sequence:
#
# PCOD9494287 Si02
#       5
#    16  16  16  16  16
#     4   8  13  21  32  47  70  97 122 149 181 216
#     4   8  12  17  28  49  76 103 125 143 170 213
#     4   8  14  23  33  48  71  95 119 149 184 220
#     4   9  17  28  41  55  71  95 125 155 188 220
#     4   8  12  17  27  44  67  96 122 141 171 218
#
# _framework density 19.668596000000001
#
# number of rings (size 3 to 8) (size 9 to 14) (size 15 to 20)
#    0.000    3.800    0.000    3.600    0.000    3.200 
#    0.000    2.000    0.000    0.600    0.000    0.000 
#    0.000   20.000    0.000    9.400    0.000   10.000 
#
# Total GULP energy -222990.219094 kJ/mol
# GULP energy per Si atom -5574.755477 kJ/mol
# Density = 1.962383 g / cm^3
# Si number density = 19.668596 Si / 1000 Ang^3
#
#
#
# Elastic Constant Matrix: (Units=GPa)
#
#
# Indices 1 2 3 4 5 6 
#
# 1 85.2646 -0.8285 41.4138 0.0000 0.0000 0.0000
# 2 -0.8285 79.4054 5.9620 0.0000 0.0000 0.0000
# 3 41.4138 5.9620 144.4884 0.0000 0.0000 0.0000
# 4 0.0000 0.0000 0.0000 -20.8902 0.0000 0.0000
# 5 0.0000 0.0000 0.0000 0.0000 14.1560 0.0000
# 6 0.0000 0.0000 0.0000 0.0000 0.0000 1.7686
#
#
#
# Elastic Compliance Matrix: (Units=1/GPa)
#
#
# Indices 1 2 3 4 5 6 
#
# 1 0.013640 0.000437 -0.003928 0.000000 0.000000 0.000000
# 2 0.000437 0.012647 -0.000647 0.000000 0.000000 0.000000
# 3 -0.003928 -0.000647 0.008073 0.000000 0.000000 0.000000
# 4 0.000000 0.000000 0.000000 -0.047869 0.000000 0.000000
# 5 0.000000 0.000000 0.000000 0.000000 0.070642 0.000000
# 6 0.000000 0.000000 0.000000 0.000000 0.000000 0.565425
#
#
# Mechanical properties :
#
#
# Convention : Reuss Voigt Hill
#
# Bulk Modulus (GPa) = 38.33596 44.69478 41.51537
# Shear Modulus (GPa) = 7.81827 16.51429 12.16628
#
# Velocity S-wave (km/s) = 1.99590 2.90078 2.48979
# Velocity P-wave (km/s) = 4.98445 5.83032 5.42390
#
# Compressibility (1/GPa) = 0.02608517
#
# Stress axis : x y z
#
# Youngs Moduli (GPa) = 73.31313 79.07168 123.86323
#
# Poissons Ratio (x) = -0.03457 0.48649
# Poissons Ratio (y) = -0.03205 0.08016
# Poissons Ratio (z) = 0.28795 0.05117
#
# Static dielectric constant tensor:
#      x y z
#    x 1.675940 0.000000 0.000000 
#    y 0.000000 1.815370 0.000000 
#    z 0.000000 0.000000 1.673970 
# 
# From -- ./inp_files/50139.got.cif
#   From: 2010.05.17/outbox.cif.g08.bks.cpg/sg65_26_cif.got.tgz:50139.got - 2010.06.03 17:01:31.
