data_PCOD9494128
_publ_section_title
;
Structure prediction by ZEFSAII (Michael W. Deem and Ramdas Pophale) SiO2 
 PCOD9494128
Probable space group: C M M M
;
_chemical_formula_sum "Si O2"
_cell_formula_units_Z 64
_cell_length_a 7.517590
_cell_length_b 14.361600
_cell_length_c 23.333286
_cell_angle_alpha 90.000000
_cell_angle_beta 90.000000
_cell_angle_gamma 90.000000
_cell_volume 2519.169369
_symmetry_space_group_name_H-M "C M M M"
_symmetry_group_IT_number 65
_symmetry_cell_setting 'orthorhombic'
loop_
_space_group_symop_operation_xyz
x,y,z
-x,-y,z
x,-y,-z
-x,y,-z
-x,-y,-z
x,y,-z
-x,y,z
x,-y,z
1/2+x,1/2+y,z
1/2-x,1/2-y,z
1/2+x,1/2-y,-z
1/2-x,1/2+y,-z
1/2-x,1/2-y,-z
1/2+x,1/2+y,-z
1/2-x,1/2+y,z
1/2+x,1/2-y,z
loop_
_atom_site_type_symbol
_atom_site_label
_atom_site_fract_x
_atom_site_fract_y
_atom_site_fract_z
Si Si1 0.288646 0.605701 0.123426
Si Si2 0.750000 0.250000 0.342897
Si Si3 0.210134 0.605499 0.000000
Si Si4 0.715951 0.611288 0.751274
Si Si5 0.714887 0.891413 0.566465
O O1 0.500000 0.600204 0.130347
O O2 0.216619 0.500000 0.119029
O O3 0.224835 0.641889 0.184692
O O4 0.258409 0.648895 0.061158
O O5 0.810840 0.327099 0.296341
O O6 0.815120 0.175185 0.390071
O O7 0.289888 0.500000 0.000000
O O8 0.000000 0.598836 0.000000
O O9 0.500000 0.624966 0.744423
O O10 0.747100 0.500000 0.746158
O O11 0.755174 0.871602 0.500000
O O12 0.500000 0.878376 0.574432
O O13 0.753032 0.000000 0.577081
#
# Coordination Sequence:
#
# PCOD9494128 Si02
#       5
#    16   8   8  16  16
#     4   8  14  27  46  66  93 135 179 211 253 324
#     4  12  19  30  54  81 100 128 174 220 262 299
#     4   9  15  23  41  72 103 128 164 222 278 310
#     4   9  19  34  50  72 104 138 173 215 261 314
#     4   9  19  35  52  73 104 138 170 206 252 310
#
# _framework density 25.405200000000001
#
# number of rings (size 3 to 8) (size 9 to 14) (size 15 to 20)
#    0.000    2.875    0.000    4.500    0.000    1.500 
#    0.000    2.500    0.000    6.750    0.000   10.500 
#    0.000    0.000    0.000    0.000    0.000    1.750 
#
# Total GULP energy -178211.913249 kJ/mol
# GULP energy per Si atom -5569.122289 kJ/mol
# Density = 2.534738 g / cm^3
# Si number density = 25.405200 Si / 1000 Ang^3
#
#
#
# Elastic Constant Matrix: (Units=GPa)
#
#
# Indices 1 2 3 4 5 6 
#
# 1 97.1910 18.2223 41.1357 0.0000 0.0000 0.0000
# 2 18.2223 162.0274 106.5581 0.0000 0.0000 0.0000
# 3 41.1357 106.5581 279.6929 0.0000 0.0000 0.0000
# 4 0.0000 0.0000 0.0000 93.5604 0.0000 0.0000
# 5 0.0000 0.0000 0.0000 0.0000 -232.9248 0.0000
# 6 0.0000 0.0000 0.0000 0.0000 0.0000 -28.5033
#
#
#
# Elastic Compliance Matrix: (Units=1/GPa)
#
#
# Indices 1 2 3 4 5 6 
#
# 1 0.010978 -0.000231 -0.001527 0.000000 0.000000 0.000000
# 2 -0.000231 0.008240 -0.003105 0.000000 0.000000 0.000000
# 3 -0.001527 -0.003105 0.004983 0.000000 0.000000 0.000000
# 4 0.000000 0.000000 0.000000 0.010688 0.000000 0.000000
# 5 0.000000 0.000000 0.000000 0.000000 -0.004293 0.000000
# 6 0.000000 0.000000 0.000000 0.000000 0.000000 -0.035084
#
#
# Mechanical properties :
#
#
# Convention : Reuss Voigt Hill
#
# Bulk Modulus (GPa) = 69.08017 96.74928 82.91473
# Shear Modulus (GPa) = 496.83476 -8.70720 244.06378
#
# Velocity S-wave (km/s) = 13.99960 -1.85331 9.81208
# Velocity P-wave (km/s) = 16.98731 5.79530 12.69161
#
# Compressibility (1/GPa) = 0.01447593
#
# Stress axis : x y z
#
# Youngs Moduli (GPa) = 91.08744 121.35928 200.68225
#
# Poissons Ratio (x) = 0.02798 0.30640
# Poissons Ratio (y) = 0.02100 0.62320
# Poissons Ratio (z) = 0.13907 0.37687
#
# Static dielectric constant tensor:
#      x y z
#    x 2.013240 0.000000 0.000000 
#    y 0.000000 1.970280 0.000000 
#    z 0.000000 0.000000 2.018230 
# 
# From -- ./inp_files/66798.got.cif
#   From: 2010.05.17/outbox.cif.g08.bks.cpg/sg65_34_cif.got.tgz:66798.got - 2010.06.03 17:01:31.
