data_PCOD9494829
_publ_section_title
;
Structure prediction by ZEFSAII (Michael W. Deem and Ramdas Pophale) SiO2 
 PCOD9494829
Probable space group: C M M M
;
_chemical_formula_sum "Si O2"
_cell_formula_units_Z 60
_cell_length_a 15.000000
_cell_length_b 21.000000
_cell_length_c 21.000000
_cell_angle_alpha 90.000000
_cell_angle_beta 90.000000
_cell_angle_gamma 90.000000
_cell_volume 6615.000000
_symmetry_space_group_name_H-M "C M M M"
_symmetry_group_IT_number 65
_symmetry_cell_setting 'orthorhombic'
loop_
_space_group_symop_operation_xyz
x,y,z
-x,-y,z
x,-y,-z
-x,y,-z
-x,-y,-z
x,y,-z
-x,y,z
x,-y,z
1/2+x,1/2+y,z
1/2-x,1/2-y,z
1/2+x,1/2-y,-z
1/2-x,1/2+y,-z
1/2-x,1/2-y,-z
1/2+x,1/2+y,-z
1/2-x,1/2+y,z
1/2+x,1/2-y,z
loop_
_atom_site_type_symbol
_atom_site_label
_atom_site_fract_x
_atom_site_fract_y
_atom_site_fract_z
Si Si1 0.603005 0.000000 0.576242
Si Si2 0.397313 0.223087 0.664954
Si Si3 0.398401 0.653080 0.424964
Si Si4 0.392852 0.575066 0.881637
Si Si5 0.349552 0.718650 0.071707
Si Si6 0.232807 0.426637 0.785337
Si Si7 0.725777 0.893891 0.636965
Si Si8 0.602203 0.807507 0.809522
O O1 0.655621 0.060076 0.603450
O O2 0.500000 0.000000 0.597005
O O3 0.605275 0.000000 0.500000
O O4 0.500000 0.198837 0.657636
O O5 0.392377 0.286660 0.622939
O O6 0.322968 0.174401 0.640498
O O7 0.382382 0.228491 0.741523
O O8 0.386477 0.670008 0.500000
O O9 0.500000 0.627638 0.418801
O O10 0.318055 0.608561 0.401671
O O11 0.500000 0.581293 0.871677
O O12 0.380602 0.500000 0.906973
O O13 0.361350 0.641316 0.917621
O O14 0.328948 0.577282 0.819739
O O15 0.250000 0.750000 0.070814
O O16 0.389639 0.757859 0.131774
O O17 0.386069 0.731214 0.000000
O O18 0.199584 0.500000 0.796360
O O19 0.240820 0.415826 0.709721
O O20 0.169142 0.368745 0.810950
O O21 0.500000 0.831225 0.808554
#
# Coordination Sequence:
#
# PCOD9494829 Si02
#       8
#     8  16  16  16  16  16  16  16
#     4  11  24  40  59  85 115 149 195 250 302 360
#     4   9  20  36  57  87 117 151 196 247 302 360
#     4  10  22  38  56  82 116 154 200 251 305 372
#     4  10  22  40  64  92 126 164 208 258 311 370
#     4  11  23  40  64  94 129 168 208 257 313 371
#     4  10  21  39  59  88 121 157 202 255 308 372
#     4  11  21  37  59  83 114 156 197 243 307 366
#     4  10  21  37  61  91 121 159 203 252 309 370
#
# _framework density 9.0702949999999998
#
# number of rings (size 3 to 8) (size 9 to 14) (size 15 to 20)
#    0.000    1.800    2.000    1.600    1.867    4.267 
#    0.000    2.333    0.000    1.600    0.000    0.933 
#    0.000    0.000    0.000    0.000    0.000    0.000 
#
# Total GULP energy -334277.105051 kJ/mol
# GULP energy per Si atom -5571.285084 kJ/mol
# Density = 0.904965 g / cm^3
# Si number density = 9.070295 Si / 1000 Ang^3
#
#
#
# Elastic Constant Matrix: (Units=GPa)
#
#
# Indices 1 2 3 4 5 6 
#
# 1 126.3972 48.1780 49.8060 0.0000 0.0000 0.0000
# 2 48.1780 102.1071 44.4362 0.0000 0.0000 0.0000
# 3 49.8060 44.4362 109.8463 0.0000 0.0000 0.0000
# 4 0.0000 0.0000 0.0000 25.3995 0.0000 0.0000
# 5 0.0000 0.0000 0.0000 0.0000 23.1650 0.0000
# 6 0.0000 0.0000 0.0000 0.0000 0.0000 37.2338
#
#
#
# Elastic Compliance Matrix: (Units=1/GPa)
#
#
# Indices 1 2 3 4 5 6 
#
# 1 0.010585 -0.003527 -0.003373 0.000000 0.000000 0.000000
# 2 -0.003527 0.013061 -0.003685 0.000000 0.000000 0.000000
# 3 -0.003373 -0.003685 0.012123 0.000000 0.000000 0.000000
# 4 0.000000 0.000000 0.000000 0.039371 0.000000 0.000000
# 5 0.000000 0.000000 0.000000 0.000000 0.043169 0.000000
# 6 0.000000 0.000000 0.000000 0.000000 0.000000 0.026857
#
#
# Mechanical properties :
#
#
# Convention : Reuss Voigt Hill
#
# Bulk Modulus (GPa) = 68.48589 69.24345 68.86467
# Shear Modulus (GPa) = 29.20547 30.22169 29.71358
#
# Velocity S-wave (km/s) = 4.01677 4.08606 4.05156
# Velocity P-wave (km/s) = 7.70373 7.77911 7.74151
#
# Compressibility (1/GPa) = 0.01460155
#
# Stress axis : x y z
#
# Youngs Moduli (GPa) = 94.47559 76.56321 82.48496
#
# Poissons Ratio (x) = 0.27000 0.27820
# Poissons Ratio (y) = 0.33317 0.30393
# Poissons Ratio (z) = 0.31864 0.28211
#
# Static dielectric constant tensor:
#      x y z
#    x 1.637590 0.000000 0.000000 
#    y 0.000000 1.641560 0.000000 
#    z 0.000000 0.000000 1.618600 
# 
# From -- ./inp_files/63066.got.cif
#   From: 2010.05.17/outbox.ucp.g08.bks.cvg/sg65_32_cif.got.tgz:63066.got - 2010.06.11 16:39:57.
