data_PCOD9494461
_publ_section_title
;
Structure prediction by ZEFSAII (Michael W. Deem and Ramdas Pophale) SiO2 
 PCOD9494461
Probable space group: C M M M
;
_chemical_formula_sum "Si O2"
_cell_formula_units_Z 88
_cell_length_a 32.697023
_cell_length_b 14.292240
_cell_length_c 9.667752
_cell_angle_alpha 90.000000
_cell_angle_beta 90.000000
_cell_angle_gamma 90.000000
_cell_volume 4517.872958
_symmetry_space_group_name_H-M "C M M M"
_symmetry_group_IT_number 65
_symmetry_cell_setting 'orthorhombic'
loop_
_space_group_symop_operation_xyz
x,y,z
-x,-y,z
x,-y,-z
-x,y,-z
-x,-y,-z
x,y,-z
-x,y,z
x,-y,z
1/2+x,1/2+y,z
1/2-x,1/2-y,z
1/2+x,1/2-y,-z
1/2-x,1/2+y,-z
1/2-x,1/2-y,-z
1/2+x,1/2+y,-z
1/2-x,1/2+y,z
1/2+x,1/2-y,z
loop_
_atom_site_type_symbol
_atom_site_label
_atom_site_fract_x
_atom_site_fract_y
_atom_site_fract_z
Si Si1 0.706353 0.226341 0.842040
Si Si2 0.425383 0.613945 0.655677
Si Si3 0.126700 0.612737 0.164003
Si Si4 0.500000 0.614876 0.843324
Si Si5 0.546275 0.113666 0.337365
Si Si6 0.353800 0.391476 0.848905
O O1 0.750000 0.250000 0.773487
O O2 0.669730 0.159376 0.787628
O O3 0.685006 0.326765 0.850869
O O4 0.714724 0.191569 0.000000
O O5 0.430654 0.646779 0.500000
O O6 0.426968 0.500000 0.653101
O O7 0.460885 0.645214 0.756960
O O8 0.382885 0.638690 0.725453
O O9 0.129850 0.500000 0.175035
O O10 0.085861 0.643344 0.247551
O O11 0.122142 0.636574 0.000000
O O12 0.500000 0.500000 0.846552
O O13 0.500000 0.647685 0.000000
O O14 0.551421 0.137108 0.500000
O O15 0.500000 0.143731 0.294330
O O16 0.546004 0.000000 0.328849
O O17 0.343583 0.500000 0.832559
O O18 0.375076 0.382335 0.000000
#
# Coordination Sequence:
#
# PCOD9494461 Si02
#       6
#    16  16  16   8  16  16
#     4   9  18  32  50  73 100 128 162 207 254 299
#     4   9  16  26  42  65  93 124 157 196 242 285
#     4   9  17  29  48  75 104 132 163 202 249 299
#     4   9  15  23  39  65  95 125 160 199 236 281
#     4   8  14  26  46  72 101 133 166 198 239 296
#     4   9  17  30  49  70  91 121 163 205 244 289
#
# _framework density 19.478193999999998
#
# number of rings (size 3 to 8) (size 9 to 14) (size 15 to 20)
#    0.000    3.182    0.000    1.364    0.000    4.364 
#    0.000    6.364    2.000    2.182    0.000    5.091 
#    0.000    0.000    0.000    0.000    0.000    0.000 
#
# Total GULP energy -245079.857118 kJ/mol
# GULP energy per Si atom -5569.996753 kJ/mol
# Density = 1.943386 g / cm^3
# Si number density = 19.478194 Si / 1000 Ang^3
#
#
#
# Elastic Constant Matrix: (Units=GPa)
#
#
# Indices 1 2 3 4 5 6 
#
# 1 161.4482 36.0771 64.1430 0.0000 0.0000 0.0000
# 2 36.0771 66.4955 12.0487 0.0000 0.0000 0.0000
# 3 64.1430 12.0487 96.4343 0.0000 0.0000 0.0000
# 4 0.0000 0.0000 0.0000 -0.3254 0.0000 0.0000
# 5 0.0000 0.0000 0.0000 0.0000 26.3360 0.0000
# 6 0.0000 0.0000 0.0000 0.0000 0.0000 29.1628
#
#
#
# Elastic Compliance Matrix: (Units=1/GPa)
#
#
# Indices 1 2 3 4 5 6 
#
# 1 0.009375 -0.004048 -0.005730 0.000000 0.000000 0.000000
# 2 -0.004048 0.017135 0.000552 0.000000 0.000000 0.000000
# 3 -0.005730 0.000552 0.014112 0.000000 0.000000 0.000000
# 4 0.000000 0.000000 0.000000 -3.073097 0.000000 0.000000
# 5 0.000000 0.000000 0.000000 0.000000 0.037971 0.000000
# 6 0.000000 0.000000 0.000000 0.000000 0.000000 0.034290
#
#
# Mechanical properties :
#
#
# Convention : Reuss Voigt Hill
#
# Bulk Modulus (GPa) = 45.10744 60.99062 53.04903
# Shear Modulus (GPa) = -1.70394 25.17529 11.73567
#
# Velocity S-wave (km/s) = -0.93632 3.59902 2.45726
# Velocity P-wave (km/s) = 4.69460 6.97501 5.94517
#
# Compressibility (1/GPa) = 0.02216929
#
# Stress axis : x y z
#
# Youngs Moduli (GPa) = 106.66601 58.36020 70.86108
#
# Poissons Ratio (x) = 0.23625 0.40603
# Poissons Ratio (y) = 0.43180 -0.03910
# Poissons Ratio (z) = 0.61120 -0.03220
#
# Static dielectric constant tensor:
#      x y z
#    x 1.684610 0.000000 0.000000 
#    y 0.000000 1.725840 0.000000 
#    z 0.000000 0.000000 1.682690 
# 
# From -- ./inp_files/18285.got.cif
#   From: 2010.05.17/outbox.cif.g08.bks.cpg/sg65_10_cif.got.tgz:18285.got - 2010.06.03 17:01:31.
