data_PCOD9494934
_publ_section_title
;
Structure prediction by ZEFSAII (Michael W. Deem and Ramdas Pophale) SiO2 
 PCOD9494934
Probable space group: C C C M
;
_chemical_formula_sum "Si O2"
_cell_formula_units_Z 56
_cell_length_a 18.799257
_cell_length_b 31.134636
_cell_length_c 5.459561
_cell_angle_alpha 90.000000
_cell_angle_beta 90.000000
_cell_angle_gamma 90.000000
_cell_volume 3195.524860
_symmetry_space_group_name_H-M "C C C M"
_symmetry_group_IT_number 66
_symmetry_cell_setting 'orthorhombic'
loop_
_space_group_symop_operation_xyz
x,y,z
-x,-y,z
x,-y,1/2-z
-x,y,1/2-z
-x,-y,-z
x,y,-z
-x,y,1/2+z
x,-y,1/2+z
1/2+x,1/2+y,z
1/2-x,1/2-y,z
1/2+x,1/2-y,1/2-z
1/2-x,1/2+y,1/2-z
1/2-x,1/2-y,-z
1/2+x,1/2+y,-z
1/2-x,1/2+y,1/2+z
1/2+x,1/2-y,1/2+z
loop_
_atom_site_type_symbol
_atom_site_label
_atom_site_fract_x
_atom_site_fract_y
_atom_site_fract_z
Si Si1 0.730981 0.379454 0.500000
Si Si2 0.731585 0.023418 0.500000
Si Si3 0.164009 0.743157 0.000000
Si Si4 0.109142 0.011949 0.500000
Si Si5 0.309444 0.788655 0.500000
Si Si6 0.456786 0.312429 0.500000
Si Si7 0.358311 0.611791 0.000000
O O1 0.774480 0.424758 0.500000
O O2 0.775234 0.335499 0.500000
O O3 0.684641 0.378371 0.250258
O O4 0.705362 0.000000 0.250000
O O5 0.816841 0.015152 0.500000
O O6 0.250000 0.750000 0.000000
O O7 0.147970 0.718330 0.749945
O O8 0.117238 0.785970 0.000000
O O9 0.128005 0.061509 0.500000
O O10 0.072754 0.000000 0.250000
O O11 0.250000 0.750000 0.500000
O O12 0.500000 0.303281 0.250000
O O13 0.431059 0.361589 0.500000
#
# Coordination Sequence:
#
# PCOD9494934 Si02
#       7
#     8   8   8   8   8   8   8
#     4  12  19  29  53  80 103 140 180 235 283 317
#     4  10  16  28  41  72 103 133 182 224 266 338
#     4  10  20  39  58  77 108 135 174 226 271 336
#     4  10  16  29  44  70  92 132 183 231 270 324
#     4  10  19  31  48  77 105 128 173 221 274 327
#     4  12  26  42  58  82 109 143 185 234 289 334
#     4  12  20  32  53  71 103 136 182 238 273 325
#
# _framework density 17.524507
#
# number of rings (size 3 to 8) (size 9 to 14) (size 15 to 20)
#    0.000    1.143    5.714    6.000    0.000    0.000 
#    0.000    0.000    0.000    2.571    0.000    0.000 
#    0.000    0.000    0.000    0.000    0.000   50.000 
#
# Total GULP energy -156085.860678 kJ/mol
# GULP energy per Si atom -5574.495024 kJ/mol
# Density = 1.748462 g / cm^3
# Si number density = 17.524507 Si / 1000 Ang^3
#
#
#
# Elastic Constant Matrix: (Units=GPa)
#
#
# Indices 1 2 3 4 5 6 
#
# 1 18.0287 19.0362 9.5394 0.0000 0.0000 0.0000
# 2 19.0362 117.7659 27.4142 0.0000 0.0000 0.0000
# 3 9.5394 27.4142 196.4567 0.0000 0.0000 0.0000
# 4 0.0000 0.0000 0.0000 25.5599 0.0000 0.0000
# 5 0.0000 0.0000 0.0000 0.0000 19.3561 0.0000
# 6 0.0000 0.0000 0.0000 0.0000 0.0000 34.2385
#
#
#
# Elastic Compliance Matrix: (Units=1/GPa)
#
#
# Indices 1 2 3 4 5 6 
#
# 1 0.067502 -0.010489 -0.001814 0.000000 0.000000 0.000000
# 2 -0.010489 0.010406 -0.000943 0.000000 0.000000 0.000000
# 3 -0.001814 -0.000943 0.005310 0.000000 0.000000 0.000000
# 4 0.000000 0.000000 0.000000 0.039124 0.000000 0.000000
# 5 0.000000 0.000000 0.000000 0.000000 0.051663 0.000000
# 6 0.000000 0.000000 0.000000 0.000000 0.000000 0.029207
#
#
# Mechanical properties :
#
#
# Convention : Reuss Voigt Hill
#
# Bulk Modulus (GPa) = 17.62844 49.35898 33.49371
# Shear Modulus (GPa) = 20.11160 34.24835 27.17997
#
# Velocity S-wave (km/s) = 3.39134 4.42556 3.94251
# Velocity P-wave (km/s) = 5.04143 7.37163 6.31494
#
# Compressibility (1/GPa) = 0.05672650
#
# Stress axis : x y z
#
# Youngs Moduli (GPa) = 14.81436 96.09483 188.32990
#
# Poissons Ratio (x) = 1.00794 0.34164
# Poissons Ratio (y) = 0.15539 0.17756
# Poissons Ratio (z) = 0.02687 0.09060
#
# Static dielectric constant tensor:
#      x y z
#    x 1.559930 0.000000 0.000000 
#    y 0.000000 1.874480 0.000000 
#    z 0.000000 0.000000 1.660860 
# 
# From -- ./inp_files/699.got.cif
#   From: 2010.05.17/outbox.cif.g08.bks.cpg/sg66_1_cif.got.tgz:699.got - 2010.06.03 17:51:23.
