data_PCOD9494458
_publ_section_title
;
Structure prediction by ZEFSAII (Michael W. Deem and Ramdas Pophale) SiO2 
 PCOD9494458
Probable space group: C M M M
;
_chemical_formula_sum "Si O2"
_cell_formula_units_Z 80
_cell_length_a 15.481587
_cell_length_b 18.807532
_cell_length_c 14.210921
_cell_angle_alpha 90.000000
_cell_angle_beta 90.000000
_cell_angle_gamma 90.000000
_cell_volume 4137.800162
_symmetry_space_group_name_H-M "C M M M"
_symmetry_group_IT_number 65
_symmetry_cell_setting 'orthorhombic'
loop_
_space_group_symop_operation_xyz
x,y,z
-x,-y,z
x,-y,-z
-x,y,-z
-x,-y,-z
x,y,-z
-x,y,z
x,-y,z
1/2+x,1/2+y,z
1/2-x,1/2-y,z
1/2+x,1/2-y,-z
1/2-x,1/2+y,-z
1/2-x,1/2-y,-z
1/2+x,1/2+y,-z
1/2-x,1/2+y,z
1/2+x,1/2-y,z
loop_
_atom_site_type_symbol
_atom_site_label
_atom_site_fract_x
_atom_site_fract_y
_atom_site_fract_z
Si Si1 0.350533 0.732194 0.105326
Si Si2 0.102858 0.076139 0.886989
Si Si3 0.221647 0.580799 0.613736
Si Si4 0.906963 0.859944 0.612932
Si Si5 0.151902 0.281522 0.296531
O O1 0.250000 0.750000 0.095097
O O2 0.358991 0.651324 0.143025
O O3 0.383935 0.780779 0.190107
O O4 0.389606 0.737474 0.000000
O O5 0.000000 0.079189 0.872772
O O6 0.135110 0.000000 0.849432
O O7 0.117061 0.074763 0.000000
O O8 0.217694 0.587557 0.500000
O O9 0.199729 0.500000 0.639016
O O10 0.321115 0.597913 0.642581
O O11 0.161369 0.641112 0.658795
O O12 0.907662 0.863488 0.500000
O O13 0.897493 0.777806 0.643266
O O14 0.000000 0.887656 0.647830
O O15 0.250000 0.250000 0.293468
#
# Coordination Sequence:
#
# PCOD9494458 Si02
#       5
#    16  16  16  16  16
#     4   9  17  29  44  63  91 127 165 201 234 272
#     4   8  14  26  45  68  93 120 150 189 238 284
#     4   9  17  30  50  73  95 123 158 195 238 288
#     4   9  17  29  47  72  99 124 150 185 233 287
#     4   9  17  30  46  64  90 124 161 196 230 276
#
# _framework density 19.333945
#
# number of rings (size 3 to 8) (size 9 to 14) (size 15 to 20)
#    0.000    3.200    0.000    1.200    0.000    3.600 
#    0.000   11.000    0.000    2.400    0.000    2.800 
#    0.000    2.400    0.000   29.200    0.000    0.200 
#
# Total GULP energy -222778.241174 kJ/mol
# GULP energy per Si atom -5569.456029 kJ/mol
# Density = 1.928994 g / cm^3
# Si number density = 19.333945 Si / 1000 Ang^3
#
#
#
# Elastic Constant Matrix: (Units=GPa)
#
#
# Indices 1 2 3 4 5 6 
#
# 1 23.0192 15.4183 -4.3865 0.0000 0.0000 0.0000
# 2 15.4183 145.4227 38.5775 0.0000 0.0000 0.0000
# 3 -4.3865 38.5775 64.4290 0.0000 0.0000 0.0000
# 4 0.0000 0.0000 0.0000 19.2722 0.0000 0.0000
# 5 0.0000 0.0000 0.0000 0.0000 19.3644 0.0000
# 6 0.0000 0.0000 0.0000 0.0000 0.0000 20.5999
#
#
#
# Elastic Compliance Matrix: (Units=1/GPa)
#
#
# Indices 1 2 3 4 5 6 
#
# 1 0.049854 -0.007354 0.007798 0.000000 0.000000 0.000000
# 2 -0.007354 0.009260 -0.006045 0.000000 0.000000 0.000000
# 3 0.007798 -0.006045 0.019671 0.000000 0.000000 0.000000
# 4 0.000000 0.000000 0.000000 0.051888 0.000000 0.000000
# 5 0.000000 0.000000 0.000000 0.000000 0.051641 0.000000
# 6 0.000000 0.000000 0.000000 0.000000 0.000000 0.048544
#
#
# Mechanical properties :
#
#
# Convention : Reuss Voigt Hill
#
# Bulk Modulus (GPa) = 14.79691 36.89882 25.84787
# Shear Modulus (GPa) = 18.89721 24.06473 21.48097
#
# Velocity S-wave (km/s) = 3.12975 3.53184 3.33686
# Velocity P-wave (km/s) = 4.55306 5.97982 5.31454
#
# Compressibility (1/GPa) = 0.06758168
#
# Stress axis : x y z
#
# Youngs Moduli (GPa) = 20.05863 107.99278 50.83508
#
# Poissons Ratio (x) = 0.79421 -0.39639
# Poissons Ratio (y) = 0.14752 0.30731
# Poissons Ratio (z) = -0.15641 0.65283
#
# Static dielectric constant tensor:
#      x y z
#    x 1.687040 0.000000 0.000000 
#    y 0.000000 1.678390 0.000000 
#    z 0.000000 0.000000 1.758940 
# 
# From -- ./inp_files/42338.got.cif
#   From: 2010.05.17/outbox.cif.g08.bks.cpg/sg65_22_cif.got.tgz:42338.got - 2010.06.03 17:01:31.
