data_PCOD9494956
_publ_section_title
;
Structure prediction by ZEFSAII (Michael W. Deem and Ramdas Pophale) SiO2 
 PCOD9494956
Probable space group: C C C M
;
_chemical_formula_sum "Si O2"
_cell_formula_units_Z 88
_cell_length_a 15.123845
_cell_length_b 12.033906
_cell_length_c 21.421291
_cell_angle_alpha 90.000000
_cell_angle_beta 90.000000
_cell_angle_gamma 90.000000
_cell_volume 3898.652022
_symmetry_space_group_name_H-M "C C C M"
_symmetry_group_IT_number 66
_symmetry_cell_setting 'orthorhombic'
loop_
_space_group_symop_operation_xyz
x,y,z
-x,-y,z
x,-y,1/2-z
-x,y,1/2-z
-x,-y,-z
x,y,-z
-x,y,1/2+z
x,-y,1/2+z
1/2+x,1/2+y,z
1/2-x,1/2-y,z
1/2+x,1/2-y,1/2-z
1/2-x,1/2+y,1/2-z
1/2-x,1/2-y,-z
1/2+x,1/2+y,-z
1/2-x,1/2+y,1/2+z
1/2+x,1/2-y,1/2+z
loop_
_atom_site_type_symbol
_atom_site_label
_atom_site_fract_x
_atom_site_fract_y
_atom_site_fract_z
Si Si1 0.629314 0.973444 0.819936
Si Si2 0.556206 0.810695 0.000000
Si Si3 0.138624 0.323385 0.500000
Si Si4 0.739885 0.048480 0.500000
Si Si5 0.347208 0.219692 0.363620
Si Si6 0.796439 0.869086 0.131426
Si Si7 0.537323 0.254156 0.360420
O O1 0.730026 0.931989 0.823124
O O2 0.569399 0.871818 0.844210
O O3 0.602906 0.000000 0.750000
O O4 0.632231 0.087728 0.858425
O O5 0.548861 0.742547 0.935794
O O6 0.461372 0.873454 0.000000
O O7 0.648526 0.877620 0.000000
O O8 0.206738 0.423424 0.500000
O O9 0.151248 0.254200 0.437164
O O10 0.792421 0.073448 0.436416
O O11 0.250000 0.250000 0.338042
O O12 0.437527 0.272805 0.337708
O O13 0.750000 0.750000 0.120369
O O14 0.890735 0.842965 0.161142
#
# Coordination Sequence:
#
# PCOD9494956 Si02
#       7
#    16   8   8   8  16  16  16
#     4  11  23  39  60  87 116 151 196 244 296 345
#     4  10  16  29  55  92 121 144 186 234 295 347
#     4  10  20  33  55  84 122 161 187 233 290 367
#     4  12  15  29  59  91 119 144 192 235 305 343
#     4  11  23  40  60  84 118 161 196 238 292 355
#     4  10  19  33  58  89 120 147 184 245 295 348
#     4  10  21  37  61  90 120 148 194 245 297 344
#
# _framework density 22.571905000000001
#
# number of rings (size 3 to 8) (size 9 to 14) (size 15 to 20)
#    0.000    1.455    5.455    1.909    0.000    6.545 
#    0.000    0.909    0.000    2.182    0.000    0.000 
#    0.000    0.000    0.000    0.000    0.000    0.000 
#
# Total GULP energy -245579.949504 kJ/mol
# GULP energy per Si atom -5581.362489 kJ/mol
# Density = 2.252053 g / cm^3
# Si number density = 22.571905 Si / 1000 Ang^3
#
#
#
# Elastic Constant Matrix: (Units=GPa)
#
#
# Indices 1 2 3 4 5 6 
#
# 1 225.2635 39.2658 1.8530 0.0000 0.0000 0.0000
# 2 39.2658 22.1006 -0.7901 0.0000 0.0000 0.0000
# 3 1.8530 -0.7901 53.5950 0.0000 0.0000 0.0000
# 4 0.0000 0.0000 0.000024112.1977 0.0000 0.0000
# 5 0.0000 0.0000 0.0000 0.0000 -17.5283 0.0000
# 6 0.0000 0.0000 0.0000 0.0000 0.0000 23.0518
#
#
#
# Elastic Compliance Matrix: (Units=1/GPa)
#
#
# Indices 1 2 3 4 5 6 
#
# 1 0.006439 -0.011454 -0.000391 0.000000 0.000000 0.000000
# 2 -0.011454 0.065647 0.001364 0.000000 0.000000 0.000000
# 3 -0.000391 0.001364 0.018692 0.000000 0.000000 0.000000
# 4 0.000000 0.000000 0.000000 0.000041 0.000000 0.000000
# 5 0.000000 0.000000 0.000000 0.000000 -0.057050 0.000000
# 6 0.000000 0.000000 0.000000 0.000000 0.000000 0.043380
#
#
# Mechanical properties :
#
#
# Convention : Reuss Voigt Hill
#
# Bulk Modulus (GPa) = 14.32374 42.40184 28.36279
# Shear Modulus (GPa) = 41.19142 4840.91961 2441.05551
#
# Velocity S-wave (km/s) = 4.27652 46.36078 32.92120
# Velocity P-wave (km/s) = 5.54476 53.70836 38.17940
#
# Compressibility (1/GPa) = 0.06981416
#
# Stress axis : x y z
#
# Youngs Moduli (GPa) = 155.30259 15.23305 53.49852
#
# Poissons Ratio (x) = 0.17448 0.02094
# Poissons Ratio (y) = 1.77886 -0.07296
# Poissons Ratio (z) = 0.06080 -0.02077
#
# Static dielectric constant tensor:
#      x y z
#    x 1.946330 0.000000 0.000000 
#    y 0.000000 1.859220 0.000000 
#    z 0.000000 0.000000 1.851060 
# 
# From -- ./inp_files/58038.got.cif
#   From: 2010.05.17/outbox.cif.g08.bks.cpg/sg66_30_cif.got.tgz:58038.got - 2010.06.03 17:51:23.
