data_PCOD9494513
_publ_section_title
;
Structure prediction by ZEFSAII (Michael W. Deem and Ramdas Pophale) SiO2 
 PCOD9494513
Probable space group: C M M M
;
_chemical_formula_sum "Si O2"
_cell_formula_units_Z 88
_cell_length_a 19.967779
_cell_length_b 28.702132
_cell_length_c 7.447827
_cell_angle_alpha 90.000000
_cell_angle_beta 90.000000
_cell_angle_gamma 90.000000
_cell_volume 4268.482438
_symmetry_space_group_name_H-M "C M M M"
_symmetry_group_IT_number 65
_symmetry_cell_setting 'orthorhombic'
loop_
_space_group_symop_operation_xyz
x,y,z
-x,-y,z
x,-y,-z
-x,y,-z
-x,-y,-z
x,y,-z
-x,y,z
x,-y,z
1/2+x,1/2+y,z
1/2-x,1/2-y,z
1/2+x,1/2-y,-z
1/2-x,1/2+y,-z
1/2-x,1/2-y,-z
1/2+x,1/2+y,-z
1/2-x,1/2+y,z
1/2+x,1/2-y,z
loop_
_atom_site_type_symbol
_atom_site_label
_atom_site_fract_x
_atom_site_fract_y
_atom_site_fract_z
Si Si1 0.360007 0.905955 0.781722
Si Si2 0.278392 0.448757 0.214756
Si Si3 0.675430 0.654631 0.714467
Si Si4 0.686360 0.196046 0.293513
Si Si5 0.500000 0.053112 0.780875
Si Si6 0.423620 0.730408 0.719487
O O1 0.297701 0.938043 0.724253
O O2 0.347396 0.854414 0.712701
O O3 0.431732 0.923401 0.721639
O O4 0.358876 0.904783 0.000000
O O5 0.300838 0.500000 0.281632
O O6 0.317802 0.400517 0.250704
O O7 0.276817 0.451836 0.000000
O O8 0.679714 0.658919 0.500000
O O9 0.739949 0.684246 0.785454
O O10 0.607613 0.680325 0.770850
O O11 0.696864 0.210738 0.500000
O O12 0.632127 0.232163 0.217801
O O13 0.500000 0.000000 0.725171
O O14 0.500000 0.054253 0.000000
O O15 0.425570 0.733021 0.500000
O O16 0.500000 0.737857 0.780547
#
# Coordination Sequence:
#
# PCOD9494513 Si02
#       6
#    16  16  16  16   8  16
#     4   9  17  28  43  64  89 117 152 190 222 259
#     4   9  17  30  48  68  90 117 150 186 226 273
#     4   9  17  30  48  70  93 117 150 190 225 261
#     4   9  17  29  46  67  91 120 150 183 223 266
#     4   9  16  26  41  59  83 119 157 189 222 259
#     4   9  17  29  47  69  92 121 154 185 221 270
#
# _framework density 20.616226000000001
#
# number of rings (size 3 to 8) (size 9 to 14) (size 15 to 20)
#    0.000    3.000    0.000    1.091    1.273    4.727 
#    0.000    0.909    0.000    8.727    0.000    3.818 
#    0.000    0.000    0.000    0.000    0.000    0.000 
#
# Total GULP energy -245234.441437 kJ/mol
# GULP energy per Si atom -5573.510033 kJ/mol
# Density = 2.056930 g / cm^3
# Si number density = 20.616226 Si / 1000 Ang^3
#
#
#
# Elastic Constant Matrix: (Units=GPa)
#
#
# Indices 1 2 3 4 5 6 
#
# 1 80.0113 71.3864 4.5056 0.0000 0.0000 0.0000
# 2 71.3864 135.9049 4.0005 0.0000 0.0000 0.0000
# 3 4.5056 4.0005 61.7603 0.0000 0.0000 0.0000
# 4 0.0000 0.0000 0.0000 18.1111 0.0000 0.0000
# 5 0.0000 0.0000 0.0000 0.0000 -25.3241 0.0000
# 6 0.0000 0.0000 0.0000 0.0000 0.0000 8.1385
#
#
#
# Elastic Compliance Matrix: (Units=1/GPa)
#
#
# Indices 1 2 3 4 5 6 
#
# 1 0.023574 -0.012355 -0.000919 0.000000 0.000000 0.000000
# 2 -0.012355 0.013848 0.000004 0.000000 0.000000 0.000000
# 3 -0.000919 0.000004 0.016258 0.000000 0.000000 0.000000
# 4 0.000000 0.000000 0.000000 0.055215 0.000000 0.000000
# 5 0.000000 0.000000 0.000000 0.000000 -0.039488 0.000000
# 6 0.000000 0.000000 0.000000 0.000000 0.000000 0.122873
#
#
# Mechanical properties :
#
#
# Convention : Reuss Voigt Hill
#
# Bulk Modulus (GPa) = 36.84746 48.60685 42.72716
# Shear Modulus (GPa) = 21.94267 13.37070 17.65669
#
# Velocity S-wave (km/s) = 3.26596 2.54943 2.92968
# Velocity P-wave (km/s) = 5.66867 5.68281 5.67574
#
# Compressibility (1/GPa) = 0.02713891
#
# Stress axis : x y z
#
# Youngs Moduli (GPa) = 42.42051 72.21353 61.50662
#
# Poissons Ratio (x) = 0.89222 0.05655
# Poissons Ratio (y) = 0.52412 -0.00027
# Poissons Ratio (z) = 0.03900 -0.00032
#
# Static dielectric constant tensor:
#      x y z
#    x 1.201110 0.000000 0.000000 
#    y 0.000000 1.738210 0.000000 
#    z 0.000000 0.000000 1.803710 
# 
# From -- ./inp_files/10163.got.cif
#   From: 2010.05.17/outbox.cif.g08.bks.cpg/sg65_6_cif.got.tgz:10163.got - 2010.06.03 17:01:31.
