data_PCOD9494173
_publ_section_title
;
Structure prediction by ZEFSAII (Michael W. Deem and Ramdas Pophale) SiO2 
 PCOD9494173
Probable space group: C M M M
;
_chemical_formula_sum "Si O2"
_cell_formula_units_Z 80
_cell_length_a 7.868136
_cell_length_b 19.762608
_cell_length_c 26.527418
_cell_angle_alpha 90.000000
_cell_angle_beta 90.000000
_cell_angle_gamma 90.000000
_cell_volume 4124.877876
_symmetry_space_group_name_H-M "C M M M"
_symmetry_group_IT_number 65
_symmetry_cell_setting 'orthorhombic'
loop_
_space_group_symop_operation_xyz
x,y,z
-x,-y,z
x,-y,-z
-x,y,-z
-x,-y,-z
x,y,-z
-x,y,z
x,-y,z
1/2+x,1/2+y,z
1/2-x,1/2-y,z
1/2+x,1/2-y,-z
1/2-x,1/2+y,-z
1/2-x,1/2-y,-z
1/2+x,1/2+y,-z
1/2-x,1/2+y,z
1/2+x,1/2-y,z
loop_
_atom_site_type_symbol
_atom_site_label
_atom_site_fract_x
_atom_site_fract_y
_atom_site_fract_z
Si Si1 0.207353 0.078187 0.205110
Si Si2 0.291571 0.578122 0.500000
Si Si3 0.203819 0.076741 0.907716
Si Si4 0.800280 0.328509 0.000000
Si Si5 0.295113 0.672464 0.295011
Si Si6 0.795191 0.172192 0.408548
O O1 0.264547 0.096598 0.148431
O O2 0.269854 0.124937 0.250354
O O3 0.000000 0.081763 0.205237
O O4 0.252857 0.000000 0.213540
O O5 0.237691 0.500000 0.500000
O O6 0.500000 0.578210 0.500000
O O7 0.235075 0.619839 0.450739
O O8 0.241992 0.130500 0.950698
O O9 0.000000 0.072167 0.904779
O O10 0.266026 0.000000 0.919353
O O11 0.750000 0.250000 0.000000
O O12 0.000000 0.330759 0.000000
O O13 0.500000 0.666351 0.296154
O O14 0.250000 0.750000 0.284444
O O15 0.232782 0.656905 0.351762
O O16 0.750000 0.250000 0.420749
O O17 0.000000 0.168348 0.407712
#
# Coordination Sequence:
#
# PCOD9494173 Si02
#       6
#    16   8  16   8  16  16
#     4   8  15  29  50  74  97 123 157 194 231 276
#     4   9  17  28  43  67  94 117 150 198 244 279
#     4   9  18  35  57  77 100 131 163 196 239 291
#     4  12  25  38  53  75 103 131 163 204 245 286
#     4   9  17  29  46  69  95 123 157 194 233 277
#     4   9  17  29  46  66  90 123 158 193 233 279
#
# _framework density 19.394513
#
# number of rings (size 3 to 8) (size 9 to 14) (size 15 to 20)
#    0.000    2.900    0.000    2.700    0.000    3.200 
#    0.000    7.000    0.000    3.000    0.000    5.600 
#    0.000    0.000    0.000    0.000    0.000    0.000 
#
# Total GULP energy -223049.987387 kJ/mol
# GULP energy per Si atom -5576.249685 kJ/mol
# Density = 1.935037 g / cm^3
# Si number density = 19.394513 Si / 1000 Ang^3
#
#
#
# Elastic Constant Matrix: (Units=GPa)
#
#
# Indices 1 2 3 4 5 6 
#
# 1 20.5617 4.1369 10.6741 0.0000 0.0000 0.0000
# 2 4.1369 156.3798 158.2700 0.0000 0.0000 0.0000
# 3 10.6741 158.2700 212.3670 0.0000 0.0000 0.0000
# 4 0.0000 0.0000 0.0000 41.9158 0.0000 0.0000
# 5 0.0000 0.0000 0.0000 0.0000 176.2566 0.0000
# 6 0.0000 0.0000 0.0000 0.0000 0.0000 23.1125
#
#
#
# Elastic Compliance Matrix: (Units=1/GPa)
#
#
# Indices 1 2 3 4 5 6 
#
# 1 0.050901 0.005058 -0.006328 0.000000 0.000000 0.000000
# 2 0.005058 0.026526 -0.020023 0.000000 0.000000 0.000000
# 3 -0.006328 -0.020023 0.019950 0.000000 0.000000 0.000000
# 4 0.000000 0.000000 0.000000 0.023857 0.000000 0.000000
# 5 0.000000 0.000000 0.000000 0.000000 0.005674 0.000000
# 6 0.000000 0.000000 0.000000 0.000000 0.000000 0.043267
#
#
# Mechanical properties :
#
#
# Convention : Reuss Voigt Hill
#
# Bulk Modulus (GPa) = 18.25137 81.71894 49.98516
# Shear Modulus (GPa) = 21.64266 62.67214 42.15740
#
# Velocity S-wave (km/s) = 3.34416 5.69074 4.66733
# Velocity P-wave (km/s) = 4.93378 9.24153 7.40770
#
# Compressibility (1/GPa) = 0.05479041
#
# Stress axis : x y z
#
# Youngs Moduli (GPa) = 19.64584 37.69847 50.12629
#
# Poissons Ratio (x) = -0.19067 0.31718
# Poissons Ratio (y) = -0.09936 1.00370
# Poissons Ratio (z) = 0.12431 0.75485
#
# Static dielectric constant tensor:
#      x y z
#    x 1.713470 0.000000 0.000000 
#    y 0.000000 1.614920 0.000000 
#    z 0.000000 0.000000 1.759640 
# 
# From -- ./inp_files/72944.got.cif
#   From: 2010.05.17/outbox.cif.g08.bks.cpg/sg65_37_cif.got.tgz:72944.got - 2010.06.03 17:01:31.
