data_PCOD9494071
_publ_section_title
;
Structure prediction by ZEFSAII (Michael W. Deem and Ramdas Pophale) SiO2 
 PCOD9494071
Probable space group: C M M M
;
_chemical_formula_sum "Si O2"
_cell_formula_units_Z 96
_cell_length_a 12.807154
_cell_length_b 17.301346
_cell_length_c 23.153598
_cell_angle_alpha 90.000000
_cell_angle_beta 90.000000
_cell_angle_gamma 90.000000
_cell_volume 5130.397459
_symmetry_space_group_name_H-M "C M M M"
_symmetry_group_IT_number 65
_symmetry_cell_setting 'orthorhombic'
loop_
_space_group_symop_operation_xyz
x,y,z
-x,-y,z
x,-y,-z
-x,y,-z
-x,-y,-z
x,y,-z
-x,y,z
x,-y,z
1/2+x,1/2+y,z
1/2-x,1/2-y,z
1/2+x,1/2-y,-z
1/2-x,1/2+y,-z
1/2-x,1/2-y,-z
1/2+x,1/2+y,-z
1/2-x,1/2+y,z
1/2+x,1/2-y,z
loop_
_atom_site_type_symbol
_atom_site_label
_atom_site_fract_x
_atom_site_fract_y
_atom_site_fract_z
Si Si1 0.194093 0.671912 0.565745
Si Si2 0.123270 0.407551 0.933156
Si Si3 0.883321 0.907373 0.739826
Si Si4 0.115335 0.092168 0.608526
Si Si5 0.000000 0.591706 0.627979
Si Si6 0.710877 0.161996 0.179102
Si Si7 0.000000 0.592582 0.233207
O O1 0.157860 0.685608 0.500000
O O2 0.250000 0.750000 0.587975
O O3 0.291459 0.614028 0.567239
O O4 0.101208 0.635688 0.602907
O O5 0.135395 0.500000 0.925635
O O6 0.193594 0.363824 0.886936
O O7 0.000000 0.390349 0.923191
O O8 0.146565 0.389181 0.000000
O O9 0.859215 0.881259 0.674188
O O10 0.799585 0.883631 0.786418
O O11 0.000000 0.879052 0.754026
O O12 0.886121 0.000000 0.737856
O O13 0.000000 0.122837 0.592729
O O14 0.108303 0.000000 0.610368
O O15 0.000000 0.594561 0.697336
O O16 0.000000 0.500000 0.611324
O O17 0.750000 0.250000 0.182378
O O18 0.602026 0.136855 0.209516
O O19 0.000000 0.500000 0.216187
#
# Coordination Sequence:
#
# PCOD9494071 Si02
#       7
#    16  16  16  16   8  16   8
#     4  11  25  41  59  86 119 155 195 243 305 370
#     4   9  18  36  63  89 116 160 214 257 298 353
#     4   9  19  36  57  81 115 157 195 235 293 365
#     4   9  19  37  60  85 111 146 195 245 292 348
#     4  11  25  44  67  91 119 159 206 254 309 365
#     4  12  24  35  58  91 130 156 199 253 307 355
#     4  11  24  43  65  91 122 162 208 254 303 365
#
# _framework density 18.712001000000001
#
# number of rings (size 3 to 8) (size 9 to 14) (size 15 to 20)
#    0.000    1.833    0.833    4.750    2.333    7.667 
#    0.000    0.833    0.000    0.500    0.000    2.333 
#    0.000    0.000    0.000    0.000    0.000    0.000 
#
# Total GULP energy -267769.582175 kJ/mol
# GULP energy per Si atom -5578.532962 kJ/mol
# Density = 1.866941 g / cm^3
# Si number density = 18.712001 Si / 1000 Ang^3
#
#
#
# Elastic Constant Matrix: (Units=GPa)
#
#
# Indices 1 2 3 4 5 6 
#
# 1 117.9996 50.5961 62.7268 0.0000 0.0000 0.0000
# 2 50.5961 83.9785 42.2052 0.0000 0.0000 0.0000
# 3 62.7268 42.2052 85.0876 0.0000 0.0000 0.0000
# 4 0.0000 0.0000 0.0000 -6.7233 0.0000 0.0000
# 5 0.0000 0.0000 0.0000 0.0000 85.2854 0.0000
# 6 0.0000 0.0000 0.0000 0.0000 0.0000 25.2574
#
#
#
# Elastic Compliance Matrix: (Units=1/GPa)
#
#
# Indices 1 2 3 4 5 6 
#
# 1 0.015212 -0.004701 -0.008883 0.000000 0.000000 0.000000
# 2 -0.004701 0.017315 -0.005123 0.000000 0.000000 0.000000
# 3 -0.008883 -0.005123 0.020842 0.000000 0.000000 0.000000
# 4 0.000000 0.000000 0.000000 -0.148736 0.000000 0.000000
# 5 0.000000 0.000000 0.000000 0.000000 0.011725 0.000000
# 6 0.000000 0.000000 0.000000 0.000000 0.000000 0.039592
#
#
# Mechanical properties :
#
#
# Convention : Reuss Voigt Hill
#
# Bulk Modulus (GPa) = 62.67312 66.45798 64.56555
# Shear Modulus (GPa) = -3795.32889 29.53308 -1882.89791
#
# Velocity S-wave (km/s) = -45.08535 3.97709 -31.75588
# Velocity P-wave (km/s) = 51.73670 7.52881 36.19394
#
# Compressibility (1/GPa) = 0.01595580
#
# Stress axis : x y z
#
# Youngs Moduli (GPa) = 65.73660 57.75433 47.98005
#
# Poissons Ratio (x) = 0.27150 0.42619
# Poissons Ratio (y) = 0.30903 0.24580
# Poissons Ratio (z) = 0.58392 0.29587
#
# Static dielectric constant tensor:
#      x y z
#    x 1.696230 0.000000 0.000000 
#    y 0.000000 1.537540 0.000000 
#    z 0.000000 0.000000 1.652940 
# 
# From -- ./inp_files/69040.got.cif
#   From: 2010.05.17/outbox.cif.g08.bks.cpg/sg65_35_cif.got.tgz:69040.got - 2010.06.03 17:01:31.
