data_PCOD9494485
_publ_section_title
;
Structure prediction by ZEFSAII (Michael W. Deem and Ramdas Pophale) SiO2 
 PCOD9494485
Probable space group: C M M M
;
_chemical_formula_sum "Si O2"
_cell_formula_units_Z 96
_cell_length_a 34.281450
_cell_length_b 18.762815
_cell_length_c 7.459662
_cell_angle_alpha 90.000000
_cell_angle_beta 90.000000
_cell_angle_gamma 90.000000
_cell_volume 4798.177715
_symmetry_space_group_name_H-M "C M M M"
_symmetry_group_IT_number 65
_symmetry_cell_setting 'orthorhombic'
loop_
_space_group_symop_operation_xyz
x,y,z
-x,-y,z
x,-y,-z
-x,y,-z
-x,-y,-z
x,y,-z
-x,y,z
x,-y,z
1/2+x,1/2+y,z
1/2-x,1/2-y,z
1/2+x,1/2-y,-z
1/2-x,1/2+y,-z
1/2-x,1/2-y,-z
1/2+x,1/2+y,-z
1/2-x,1/2+y,z
1/2+x,1/2-y,z
loop_
_atom_site_type_symbol
_atom_site_label
_atom_site_fract_x
_atom_site_fract_y
_atom_site_fract_z
Si Si1 0.158970 0.352603 0.282998
Si Si2 0.377708 0.296194 0.712641
Si Si3 0.920382 0.422429 0.210433
Si Si4 0.254398 0.167416 0.718611
Si Si5 0.677769 0.418695 0.280580
Si Si6 0.043598 0.274600 0.784306
O O1 0.158633 0.352620 0.500000
O O2 0.144216 0.274770 0.218783
O O3 0.125911 0.407892 0.225378
O O4 0.203477 0.362379 0.225069
O O5 0.371046 0.295679 0.500000
O O6 0.357761 0.368094 0.779511
O O7 0.423361 0.283188 0.741719
O O8 0.930240 0.500000 0.287254
O O9 0.941419 0.351822 0.284718
O O10 0.930291 0.424581 0.000000
O O11 0.254100 0.168071 0.500000
O O12 0.250000 0.250000 0.774191
O O13 0.217839 0.119978 0.774971
O O14 0.677840 0.420200 0.500000
O O15 0.675271 0.500000 0.220030
O O16 0.000000 0.259244 0.720383
O O17 0.042542 0.279121 0.000000
#
# Coordination Sequence:
#
# PCOD9494485 Si02
#       6
#    16  16  16  16  16  16
#     4   9  16  26  44  66  89 120 156 189 219 255
#     4   9  16  28  46  67  91 118 146 182 225 266
#     4   9  18  31  45  63  91 123 149 179 222 265
#     4   9  14  23  40  63  93 124 153 187 223 257
#     4   9  16  25  40  65  93 120 152 188 224 260
#     4   9  18  32  50  70  88 110 146 186 221 267
#
# _framework density 20.007594999999998
#
# number of rings (size 3 to 8) (size 9 to 14) (size 15 to 20)
#    0.000    3.000    1.667    0.000    0.000    1.667 
#    0.000    3.333    0.000    2.500    0.000    8.167 
#    0.000    0.000    0.000    0.000    0.000    0.000 
#
# Total GULP energy -267714.994532 kJ/mol
# GULP energy per Si atom -5577.395719 kJ/mol
# Density = 1.996206 g / cm^3
# Si number density = 20.007595 Si / 1000 Ang^3
#
#
#
# Elastic Constant Matrix: (Units=GPa)
#
#
# Indices 1 2 3 4 5 6 
#
# 1 145.9399 65.7396 -8.8143 0.0000 0.0000 0.0000
# 2 65.7396 123.6819 2.0494 0.0000 0.0000 0.0000
# 3 -8.8143 2.0494 56.3684 0.0000 0.0000 0.0000
# 4 0.0000 0.0000 0.0000 5.5329 0.0000 0.0000
# 5 0.0000 0.0000 0.0000 0.0000 21.9251 0.0000
# 6 0.0000 0.0000 0.0000 0.0000 0.0000 16.7336
#
#
#
# Elastic Compliance Matrix: (Units=1/GPa)
#
#
# Indices 1 2 3 4 5 6 
#
# 1 0.009153 -0.004892 0.001609 0.000000 0.000000 0.000000
# 2 -0.004892 0.010704 -0.001154 0.000000 0.000000 0.000000
# 3 0.001609 -0.001154 0.018034 0.000000 0.000000 0.000000
# 4 0.000000 0.000000 0.000000 0.180738 0.000000 0.000000
# 5 0.000000 0.000000 0.000000 0.000000 0.045610 0.000000
# 6 0.000000 0.000000 0.000000 0.000000 0.000000 0.059760
#
#
# Mechanical properties :
#
#
# Convention : Reuss Voigt Hill
#
# Bulk Modulus (GPa) = 34.46143 49.32664 41.89403
# Shear Modulus (GPa) = 14.59666 26.63935 20.61801
#
# Velocity S-wave (km/s) = 2.70396 3.65288 3.21364
# Velocity P-wave (km/s) = 5.19712 6.51911 5.89529
#
# Compressibility (1/GPa) = 0.02901795
#
# Stress axis : x y z
#
# Youngs Moduli (GPa) = 109.25683 93.42005 55.45084
#
# Poissons Ratio (x) = 0.45697 -0.08922
# Poissons Ratio (y) = 0.53443 0.06399
# Poissons Ratio (z) = -0.17580 0.10781
#
# Static dielectric constant tensor:
#      x y z
#    x 1.701490 0.000000 0.000000 
#    y 0.000000 1.689270 0.000000 
#    z 0.000000 0.000000 1.779900 
# 
# From -- ./inp_files/32414.got.cif
#   From: 2010.05.17/outbox.cif.g08.bks.cpg/sg65_17_cif.got.tgz:32414.got - 2010.06.03 17:01:31.
