data_PCOD9494940
_publ_section_title
;
Structure prediction by ZEFSAII (Michael W. Deem and Ramdas Pophale) SiO2 
 PCOD9494940
Probable space group: C C C M
;
_chemical_formula_sum "Si O2"
_cell_formula_units_Z 128
_cell_length_a 21.093356
_cell_length_b 19.171392
_cell_length_c 20.124469
_cell_angle_alpha 90.000000
_cell_angle_beta 90.000000
_cell_angle_gamma 90.000000
_cell_volume 8138.113823
_symmetry_space_group_name_H-M "C C C M"
_symmetry_group_IT_number 66
_symmetry_cell_setting 'orthorhombic'
loop_
_space_group_symop_operation_xyz
x,y,z
-x,-y,z
x,-y,1/2-z
-x,y,1/2-z
-x,-y,-z
x,y,-z
-x,y,1/2+z
x,-y,1/2+z
1/2+x,1/2+y,z
1/2-x,1/2-y,z
1/2+x,1/2-y,1/2-z
1/2-x,1/2+y,1/2-z
1/2-x,1/2-y,-z
1/2+x,1/2+y,-z
1/2-x,1/2+y,1/2+z
1/2+x,1/2-y,1/2+z
loop_
_atom_site_type_symbol
_atom_site_label
_atom_site_fract_x
_atom_site_fract_y
_atom_site_fract_z
Si Si1 0.656864 0.246007 0.604121
Si Si2 0.242525 0.072454 0.783752
Si Si3 0.059311 0.284074 0.708066
Si Si4 0.813975 0.783087 0.745596
Si Si5 0.986573 0.287802 0.427029
Si Si6 0.253381 0.372506 0.928213
Si Si7 0.608317 0.074188 0.720210
Si Si8 0.443067 0.945207 0.573597
O O1 0.675228 0.248990 0.681502
O O2 0.582078 0.244507 0.592272
O O3 0.690859 0.314209 0.574739
O O4 0.690369 0.176003 0.577289
O O5 0.200513 0.135893 0.756470
O O6 0.239951 0.078652 0.864035
O O7 0.316798 0.083488 0.766580
O O8 0.223491 0.000000 0.750000
O O9 0.121950 0.237450 0.709836
O O10 0.074758 0.359285 0.744213
O O11 0.000000 0.254835 0.750000
O O12 0.035692 0.284154 0.632703
O O13 0.750000 0.750000 0.716362
O O14 0.005933 0.261130 0.500000
O O15 0.973544 0.369637 0.432681
O O16 0.253964 0.407700 0.000000
O O17 0.597792 0.063730 0.640929
O O18 0.586830 0.000000 0.750000
O O19 0.413528 0.961392 0.500000
O O20 0.500000 0.000000 0.584660
#
# Coordination Sequence:
#
# PCOD9494940 Si02
#       8
#    16  16  16  16  16  16  16  16
#     4  10  16  28  49  80 110 133 156 204 274 334
#     4  10  21  35  51  74 104 140 176 215 266 309
#     4  12  21  32  54  80 101 137 181 210 260 315
#     4  11  18  35  55  78 109 137 172 222 263 312
#     4  11  21  31  45  71 106 133 168 215 256 304
#     4  10  17  27  48  76 107 136 164 202 264 334
#     4  11  21  32  48  73 103 140 180 214 248 306
#     4  10  20  31  42  63 103 148 174 204 252 301
#
# _framework density 15.728460999999999
#
# number of rings (size 3 to 8) (size 9 to 14) (size 15 to 20)
#    0.000    1.375    6.250    3.000    0.000    1.500 
#    0.000    0.000    0.000    2.250    0.000    0.000 
#    0.000    3.250    0.000    0.000    0.000    0.000 
#
# Total GULP energy -356566.002583 kJ/mol
# GULP energy per Si atom -5571.343790 kJ/mol
# Density = 1.569266 g / cm^3
# Si number density = 15.728461 Si / 1000 Ang^3
#
#
#
# Elastic Constant Matrix: (Units=GPa)
#
#
# Indices 1 2 3 4 5 6 
#
# 1 90.7240 38.0930 42.5359 0.0000 0.0000 0.0000
# 2 38.0930 67.8131 40.5432 0.0000 0.0000 0.0000
# 3 42.5359 40.5432 107.9331 0.0000 0.0000 0.0000
# 4 0.0000 0.0000 0.0000 94.8143 0.0000 0.0000
# 5 0.0000 0.0000 0.0000 0.0000 14.3961 0.0000
# 6 0.0000 0.0000 0.0000 0.0000 0.0000 17.7574
#
#
#
# Elastic Compliance Matrix: (Units=1/GPa)
#
#
# Indices 1 2 3 4 5 6 
#
# 1 0.015466 -0.006504 -0.003652 0.000000 0.000000 0.000000
# 2 -0.006504 0.021753 -0.005608 0.000000 0.000000 0.000000
# 3 -0.003652 -0.005608 0.012811 0.000000 0.000000 0.000000
# 4 0.000000 0.000000 0.000000 0.010547 0.000000 0.000000
# 5 0.000000 0.000000 0.000000 0.000000 0.069463 0.000000
# 6 0.000000 0.000000 0.000000 0.000000 0.000000 0.056315
#
#
# Mechanical properties :
#
#
# Convention : Reuss Voigt Hill
#
# Bulk Modulus (GPa) = 54.04986 56.53495 55.29240
# Shear Modulus (GPa) = 22.31659 35.08008 28.69833
#
# Velocity S-wave (km/s) = 3.77087 4.72779 4.27618
# Velocity P-wave (km/s) = 7.30741 8.11326 7.72086
#
# Compressibility (1/GPa) = 0.01850144
#
# Stress axis : x y z
#
# Youngs Moduli (GPa) = 64.65985 45.97106 78.06062
#
# Poissons Ratio (x) = 0.29901 0.28505
# Poissons Ratio (y) = 0.42057 0.43774
# Poissons Ratio (z) = 0.23612 0.25779
#
# Static dielectric constant tensor:
#      x y z
#    x 1.550430 0.000000 0.000000 
#    y 0.000000 1.521140 0.000000 
#    z 0.000000 0.000000 1.615510 
# 
# From -- ./inp_files/52056.got.cif
#   From: 2010.05.17/outbox.cif.g08.bks.cpg/sg66_27_cif.got.tgz:52056.got - 2010.06.03 17:51:23.
