data_PCOD9494948
_publ_section_title
;
Structure prediction by ZEFSAII (Michael W. Deem and Ramdas Pophale) SiO2 
 PCOD9494948
Probable space group: C C C M
;
_chemical_formula_sum "Si O2"
_cell_formula_units_Z 104
_cell_length_a 9.513194
_cell_length_b 29.656515
_cell_length_c 22.954839
_cell_angle_alpha 90.000000
_cell_angle_beta 90.000000
_cell_angle_gamma 90.000000
_cell_volume 6476.206962
_symmetry_space_group_name_H-M "C C C M"
_symmetry_group_IT_number 66
_symmetry_cell_setting 'orthorhombic'
loop_
_space_group_symop_operation_xyz
x,y,z
-x,-y,z
x,-y,1/2-z
-x,y,1/2-z
-x,-y,-z
x,y,-z
-x,y,1/2+z
x,-y,1/2+z
1/2+x,1/2+y,z
1/2-x,1/2-y,z
1/2+x,1/2-y,1/2-z
1/2-x,1/2+y,1/2-z
1/2-x,1/2-y,-z
1/2+x,1/2+y,-z
1/2-x,1/2+y,1/2+z
1/2+x,1/2-y,1/2+z
loop_
_atom_site_type_symbol
_atom_site_label
_atom_site_fract_x
_atom_site_fract_y
_atom_site_fract_z
Si Si1 0.976481 0.949005 0.179693
Si Si2 0.807701 0.126564 0.177440
Si Si3 0.231259 0.384374 0.810161
Si Si4 0.081559 0.742451 0.567558
Si Si5 0.000000 0.271620 0.750000
Si Si6 0.036079 0.663263 0.854060
Si Si7 0.445804 0.305069 0.169035
O O1 0.094635 0.914590 0.156829
O O2 0.000000 0.948208 0.250000
O O3 0.822679 0.927366 0.168984
O O4 0.000000 0.000000 0.159800
O O5 0.737779 0.114453 0.239809
O O6 0.685332 0.140685 0.133604
O O7 0.916461 0.167460 0.188681
O O8 0.320206 0.340477 0.829906
O O9 0.077004 0.374327 0.834335
O O10 0.042366 0.744016 0.500000
O O11 0.250000 0.750000 0.571988
O O12 0.022208 0.783132 0.606638
O O13 0.029830 0.695912 0.597150
O O14 0.066683 0.304122 0.701851
O O15 0.089136 0.236935 0.788993
#
# Coordination Sequence:
#
# PCOD9494948 Si02
#       7
#    16  16  16  16   8  16  16
#     4   8  16  30  48  64  92 131 153 173 223 294
#     4  10  18  29  44  70  98 117 151 198 235 271
#     4  10  16  29  44  69  96 120 157 189 227 278
#     4  10  21  34  46  61  91 131 170 196 219 271
#     4  10  18  24  42  62  94 116 154 186 232 252
#     4  11  20  28  44  69  96 121 156 197 236 262
#     4  10  18  29  45  65  89 125 163 191 225 264
#
# _framework density 16.058782999999998
#
# number of rings (size 3 to 8) (size 9 to 14) (size 15 to 20)
#    0.000    2.154    4.615    0.923    0.000    3.692 
#    0.000    2.308    0.000    3.692    0.000    0.000 
#    0.000   23.385    0.000    0.000    0.000    0.000 
#
# Total GULP energy -289515.343594 kJ/mol
# GULP energy per Si atom -5567.602761 kJ/mol
# Density = 1.602223 g / cm^3
# Si number density = 16.058783 Si / 1000 Ang^3
#
#
#
# Elastic Constant Matrix: (Units=GPa)
#
#
# Indices 1 2 3 4 5 6 
#
# 1 83.8513 34.9717 4.3055 0.0000 0.0000 0.0000
# 2 34.9717 95.6492 14.3334 0.0000 0.0000 0.0000
# 3 4.3055 14.3334 58.2479 0.0000 0.0000 0.0000
# 4 0.0000 0.0000 0.0000 8.4112 0.0000 0.0000
# 5 0.0000 0.0000 0.0000 0.0000 10.5013 0.0000
# 6 0.0000 0.0000 0.0000 0.0000 0.0000 7.4947
#
#
#
# Elastic Compliance Matrix: (Units=1/GPa)
#
#
# Indices 1 2 3 4 5 6 
#
# 1 0.014075 -0.005181 0.000235 0.000000 0.000000 0.000000
# 2 -0.005181 0.012762 -0.002758 0.000000 0.000000 0.000000
# 3 0.000235 -0.002758 0.017829 0.000000 0.000000 0.000000
# 4 0.000000 0.000000 0.000000 0.118888 0.000000 0.000000
# 5 0.000000 0.000000 0.000000 0.000000 0.095226 0.000000
# 6 0.000000 0.000000 0.000000 0.000000 0.000000 0.133428
#
#
# Mechanical properties :
#
#
# Convention : Reuss Voigt Hill
#
# Bulk Modulus (GPa) = 34.17854 38.32994 36.25424
# Shear Modulus (GPa) = 11.97977 17.55730 14.76854
#
# Velocity S-wave (km/s) = 2.73425 3.31012 3.03587
# Velocity P-wave (km/s) = 5.59444 6.20721 5.90878
#
# Compressibility (1/GPa) = 0.02925813
#
# Stress axis : x y z
#
# Youngs Moduli (GPa) = 71.04915 78.35460 56.08767
#
# Poissons Ratio (x) = 0.40597 -0.01316
# Poissons Ratio (y) = 0.36812 0.15467
# Poissons Ratio (z) = -0.01667 0.21607
#
# Static dielectric constant tensor:
#      x y z
#    x 1.591680 0.000000 0.000000 
#    y 0.000000 1.550560 0.000000 
#    z 0.000000 0.000000 1.549070 
# 
# From -- ./inp_files/55944.got.cif
#   From: 2010.05.17/outbox.cif.g08.bks.cpg/sg66_28_cif.got.tgz:55944.got - 2010.06.03 17:51:23.
