data_PCOD9494555
_publ_section_title
;
Structure prediction by ZEFSAII (Michael W. Deem and Ramdas Pophale) SiO2 
 PCOD9494555
Probable space group: C M M M
;
_chemical_formula_sum "Si O2"
_cell_formula_units_Z 40
_cell_length_a 9.000000
_cell_length_b 18.000000
_cell_length_c 27.000000
_cell_angle_alpha 90.000000
_cell_angle_beta 90.000000
_cell_angle_gamma 90.000000
_cell_volume 4374.000000
_symmetry_space_group_name_H-M "C M M M"
_symmetry_group_IT_number 65
_symmetry_cell_setting 'orthorhombic'
loop_
_space_group_symop_operation_xyz
x,y,z
-x,-y,z
x,-y,-z
-x,y,-z
-x,-y,-z
x,y,-z
-x,y,z
x,-y,z
1/2+x,1/2+y,z
1/2-x,1/2-y,z
1/2+x,1/2-y,-z
1/2-x,1/2+y,-z
1/2-x,1/2-y,-z
1/2+x,1/2+y,-z
1/2-x,1/2+y,z
1/2+x,1/2-y,z
loop_
_atom_site_type_symbol
_atom_site_label
_atom_site_fract_x
_atom_site_fract_y
_atom_site_fract_z
Si Si1 0.679227 0.167350 0.685869
Si Si2 0.174563 0.911241 0.406771
Si Si3 0.678823 0.666408 0.000000
Si Si4 0.821929 0.331394 0.500000
Si Si5 0.822737 0.331278 0.794553
Si Si6 0.320613 0.833131 0.098426
O O1 0.500000 0.171846 0.680122
O O2 0.750000 0.250000 0.682700
O O3 0.752406 0.118192 0.643558
O O4 0.713694 0.135389 0.740956
O O5 0.262087 0.874226 0.451948
O O6 0.000000 0.890421 0.408964
O O7 0.184802 0.000000 0.409958
O O8 0.750000 0.750000 0.000000
O O9 0.743093 0.631442 0.050483
O O10 0.500000 0.670274 0.000000
O O11 0.750000 0.250000 0.500000
O O12 0.000000 0.327001 0.500000
O O13 0.750000 0.250000 0.794189
O O14 0.786429 0.367930 0.847557
O O15 0.000000 0.321011 0.795228
O O16 0.500000 0.828814 0.091635
O O17 0.250000 0.750000 0.101334
#
# Coordination Sequence:
#
# PCOD9494555 Si02
#       6
#    16  16   8   8  16  16
#     4  10  19  33  53  77 104 134 172 214 256 304
#     4  11  24  41  59  81 111 143 174 211 255 300
#     4  10  16  20  26  40  64  98 141 186 233 284
#     4  12  25  42  65  89 113 141 175 212 251 296
#     4   8  15  25  39  59  83 113 151 197 243 289
#     4   9  14  21  31  45  68 101 142 186 234 284
#
# _framework density 9.1449470000000002
#
# number of rings (size 3 to 8) (size 9 to 14) (size 15 to 20)
#    0.000    2.200    0.000    5.700    0.000    4.400 
#    0.000    0.000    0.000    0.000    0.000    0.000 
#    0.000    0.000    0.000    0.900    0.000   19.800 
#
# Total GULP energy -222861.082440 kJ/mol
# GULP energy per Si atom -5571.527061 kJ/mol
# Density = 0.912413 g / cm^3
# Si number density = 9.144947 Si / 1000 Ang^3
#
#
#
# Elastic Constant Matrix: (Units=GPa)
#
#
# Indices 1 2 3 4 5 6 
#
# 1 134.7043 31.1261 84.9839 0.0000 0.0000 0.0000
# 2 31.1261 30.7756 39.0578 0.0000 0.0000 0.0000
# 3 84.9839 39.0578 221.3974 0.0000 0.0000 0.0000
# 4 0.0000 0.0000 0.0000 -12.2805 0.0000 0.0000
# 5 0.0000 0.0000 0.0000 0.0000 28.4718 0.0000
# 6 0.0000 0.0000 0.0000 0.0000 0.0000 18.0171
#
#
#
# Elastic Compliance Matrix: (Units=1/GPa)
#
#
# Indices 1 2 3 4 5 6 
#
# 1 0.010967 -0.007408 -0.002903 0.000000 0.000000 0.000000
# 2 -0.007408 0.046871 -0.005425 0.000000 0.000000 0.000000
# 3 -0.002903 -0.005425 0.006588 0.000000 0.000000 0.000000
# 4 0.000000 0.000000 0.000000 -0.081430 0.000000 0.000000
# 5 0.000000 0.000000 0.000000 0.000000 0.035123 0.000000
# 6 0.000000 0.000000 0.000000 0.000000 0.000000 0.055503
#
#
# Mechanical properties :
#
#
# Convention : Reuss Voigt Hill
#
# Bulk Modulus (GPa) = 30.34527 77.46809 53.90668
# Shear Modulus (GPa) = 43.07488 22.28897 32.68192
#
# Velocity S-wave (km/s) = 4.85822 3.49470 4.23174
# Velocity P-wave (km/s) = 6.93520 7.66365 7.30851
#
# Compressibility (1/GPa) = 0.03295406
#
# Stress axis : x y z
#
# Youngs Moduli (GPa) = 91.18525 21.33535 151.78918
#
# Poissons Ratio (x) = 0.15805 0.44061
# Poissons Ratio (y) = 0.67547 0.82349
# Poissons Ratio (z) = 0.26469 0.11575
#
# Static dielectric constant tensor:
#      x y z
#    x 1.604200 0.000000 0.000000 
#    y 0.000000 1.584630 0.000000 
#    z 0.000000 0.000000 1.728840 
# 
# From -- ./inp_files/72888.got.cif
#   From: 2010.05.17/outbox.ucp.g08.bks.cvg/sg65_37_cif.got.tgz:72888.got - 2010.06.11 16:39:57.
