data_PCOD9494223
_publ_section_title
;
Structure prediction by ZEFSAII (Michael W. Deem and Ramdas Pophale) SiO2 
 PCOD9494223
Probable space group: C M M M
;
_chemical_formula_sum "Si O2"
_cell_formula_units_Z 88
_cell_length_a 19.118923
_cell_length_b 7.348025
_cell_length_c 30.612582
_cell_angle_alpha 90.000000
_cell_angle_beta 90.000000
_cell_angle_gamma 90.000000
_cell_volume 4300.649119
_symmetry_space_group_name_H-M "C M M M"
_symmetry_group_IT_number 65
_symmetry_cell_setting 'orthorhombic'
loop_
_space_group_symop_operation_xyz
x,y,z
-x,-y,z
x,-y,-z
-x,y,-z
-x,-y,-z
x,y,-z
-x,y,z
x,-y,z
1/2+x,1/2+y,z
1/2-x,1/2-y,z
1/2+x,1/2-y,-z
1/2-x,1/2+y,-z
1/2-x,1/2-y,-z
1/2+x,1/2+y,-z
1/2-x,1/2+y,z
1/2+x,1/2-y,z
loop_
_atom_site_type_symbol
_atom_site_label
_atom_site_fract_x
_atom_site_fract_y
_atom_site_fract_z
Si Si1 0.415241 0.785250 0.000000
Si Si2 0.166423 0.717033 0.726468
Si Si3 0.081285 0.278349 0.548445
Si Si4 0.667080 0.217655 0.368467
Si Si5 0.167056 0.717571 0.178559
Si Si6 0.081430 0.277401 0.904877
O O1 0.392309 0.714128 0.952682
O O2 0.500000 0.769263 0.000000
O O3 0.398863 0.000000 0.000000
O O4 0.154550 0.500000 0.726491
O O5 0.250000 0.750000 0.726437
O O6 0.142074 0.787171 0.679189
O O7 0.142209 0.787225 0.773766
O O8 0.105245 0.220599 0.500000
O O9 0.083542 0.500000 0.548574
O O10 0.126638 0.212840 0.589176
O O11 0.000000 0.227389 0.553397
O O12 0.750000 0.250000 0.372401
O O13 0.657134 0.000000 0.367567
O O14 0.157101 0.500000 0.179423
O O15 0.250000 0.750000 0.174513
O O16 0.126131 0.786007 0.136306
O O17 0.083279 0.500000 0.905714
O O18 0.000000 0.226923 0.900006
#
# Coordination Sequence:
#
# PCOD9494223 Si02
#       6
#     8  16  16  16  16  16
#     4   7  10  18  33  52  73  97 124 153 186 224
#     4   8  14  24  37  54  76 101 126 151 184 225
#     4   8  14  25  40  57  78 104 130 154 185 228
#     4   9  16  26  41  60  79  99 127 161 191 220
#     4   9  16  26  40  57  78 103 128 154 187 227
#     4   8  13  22  37  56  76  98 126 159 191 222
#
# _framework density 20.462028
#
# number of rings (size 3 to 8) (size 9 to 14) (size 15 to 20)
#    0.000    3.727    0.000    1.636    0.000    0.364 
#    0.000    1.364    0.000    6.545    0.000    1.273 
#    0.000   16.727    0.000    0.000    0.000    0.000 
#
# Total GULP energy -244974.059839 kJ/mol
# GULP energy per Si atom -5567.592269 kJ/mol
# Density = 2.041546 g / cm^3
# Si number density = 20.462028 Si / 1000 Ang^3
#
#
#
# Elastic Constant Matrix: (Units=GPa)
#
#
# Indices 1 2 3 4 5 6 
#
# 1 41.7296 -2.0335 90.0055 0.0000 0.0000 0.0000
# 2 -2.0335 79.1036 14.8496 0.0000 0.0000 0.0000
# 3 90.0055 14.8496 307.1779 0.0000 0.0000 0.0000
# 4 0.0000 0.0000 0.0000 -6.2230 0.0000 0.0000
# 5 0.0000 0.0000 0.0000 0.0000 62.9247 0.0000
# 6 0.0000 0.0000 0.0000 0.0000 0.0000 4.4735
#
#
#
# Elastic Compliance Matrix: (Units=1/GPa)
#
#
# Indices 1 2 3 4 5 6 
#
# 1 0.067398 0.005490 -0.020013 0.000000 0.000000 0.000000
# 2 0.005490 0.013205 -0.002247 0.000000 0.000000 0.000000
# 3 -0.020013 -0.002247 0.009228 0.000000 0.000000 0.000000
# 4 0.000000 0.000000 0.000000 -0.160695 0.000000 0.000000
# 5 0.000000 0.000000 0.000000 0.000000 0.015892 0.000000
# 6 0.000000 0.000000 0.000000 0.000000 0.000000 0.223537
#
#
# Mechanical properties :
#
#
# Convention : Reuss Voigt Hill
#
# Bulk Modulus (GPa) = 17.76545 70.40602 44.08574
# Shear Modulus (GPa) = 22.63788 33.91436 28.27612
#
# Velocity S-wave (km/s) = 3.32977 4.07557 3.72140
# Velocity P-wave (km/s) = 4.84605 7.52528 6.32906
#
# Compressibility (1/GPa) = 0.05628902
#
# Stress axis : x y z
#
# Youngs Moduli (GPa) = 14.83732 75.73143 108.36428
#
# Poissons Ratio (x) = -0.41573 2.16874
# Poissons Ratio (y) = -0.08145 0.24347
# Poissons Ratio (z) = 0.29695 0.17015
#
# Static dielectric constant tensor:
#      x y z
#    x 1.658420 0.000000 0.000000 
#    y 0.000000 1.807120 0.000000 
#    z 0.000000 0.000000 1.799500 
# 
# From -- ./inp_files/77478.got.cif
#   From: 2010.05.17/outbox.cif.g08.bks.cpg/sg65_39_cif.got.tgz:77478.got - 2010.06.03 17:01:31.
