data_PCOD9494355
_publ_section_title
;
Structure prediction by ZEFSAII (Michael W. Deem and Ramdas Pophale) SiO2 
 PCOD9494355
Probable space group: C M M M
;
_chemical_formula_sum "Si O2"
_cell_formula_units_Z 88
_cell_length_a 7.475047
_cell_length_b 29.108352
_cell_length_c 22.196326
_cell_angle_alpha 90.000000
_cell_angle_beta 90.000000
_cell_angle_gamma 90.000000
_cell_volume 4829.616432
_symmetry_space_group_name_H-M "C M M M"
_symmetry_group_IT_number 65
_symmetry_cell_setting 'orthorhombic'
loop_
_space_group_symop_operation_xyz
x,y,z
-x,-y,z
x,-y,-z
-x,y,-z
-x,-y,-z
x,y,-z
-x,y,z
x,-y,z
1/2+x,1/2+y,z
1/2-x,1/2-y,z
1/2+x,1/2-y,-z
1/2-x,1/2+y,-z
1/2-x,1/2-y,-z
1/2+x,1/2+y,-z
1/2-x,1/2+y,z
1/2+x,1/2-y,z
loop_
_atom_site_type_symbol
_atom_site_label
_atom_site_fract_x
_atom_site_fract_y
_atom_site_fract_z
Si Si1 0.720075 0.856806 0.685297
Si Si2 0.285454 0.804368 0.196133
Si Si3 0.785722 0.304741 0.935204
Si Si4 0.209965 0.448224 0.367446
Si Si5 0.713199 0.553170 0.500000
Si Si6 0.786045 0.304401 0.434125
O O1 0.500000 0.856235 0.685330
O O2 0.780855 0.832337 0.746286
O O3 0.780292 0.909402 0.677073
O O4 0.780447 0.829384 0.625718
O O5 0.500000 0.809513 0.194920
O O6 0.250000 0.750000 0.203320
O O7 0.217287 0.820315 0.130235
O O8 0.750000 0.250000 0.935360
O O9 0.000000 0.311363 0.935370
O O10 0.717162 0.322610 0.000000
O O11 0.287604 0.500000 0.365679
O O12 0.225541 0.428509 0.435671
O O13 0.000000 0.452599 0.355320
O O14 0.777733 0.500000 0.500000
O O15 0.500000 0.553537 0.500000
O O16 0.716505 0.320026 0.500000
O O17 0.750000 0.250000 0.429489
O O18 0.000000 0.310773 0.435160
#
# Coordination Sequence:
#
# PCOD9494355 Si02
#       6
#    16  16  16  16   8  16
#     4   9  17  27  41  58  75  97 125 157 192 225
#     4   9  16  26  39  56  79 105 130 157 188 222
#     4   8  13  21  34  52  74 100 128 154 181 216
#     4   9  17  29  45  61  75  95 125 157 190 234
#     4   9  17  29  43  59  78  95 114 149 198 239
#     4   9  17  28  40  52  69  94 121 151 183 215
#
# _framework density 18.220908000000001
#
# number of rings (size 3 to 8) (size 9 to 14) (size 15 to 20)
#    0.000    3.182    0.000    0.818    1.273    1.091 
#    0.000    1.818    0.000    0.000    0.000    0.000 
#    0.000    0.727    0.000   10.182    0.000    0.000 
#
# Total GULP energy -245103.610479 kJ/mol
# GULP energy per Si atom -5570.536602 kJ/mol
# Density = 1.817944 g / cm^3
# Si number density = 18.220908 Si / 1000 Ang^3
#
#
#
# Elastic Constant Matrix: (Units=GPa)
#
#
# Indices 1 2 3 4 5 6 
#
# 1 56.0136 0.1997 8.2765 0.0000 0.0000 0.0000
# 2 0.1997 72.5251 79.2554 0.0000 0.0000 0.0000
# 3 8.2765 79.2554 199.4672 0.0000 0.0000 0.0000
# 4 0.0000 0.0000 0.0000 10.7913 0.0000 0.0000
# 5 0.0000 0.0000 0.0000 0.0000 -0.1568 0.0000
# 6 0.0000 0.0000 0.0000 0.0000 0.0000 6.4909
#
#
#
# Elastic Compliance Matrix: (Units=1/GPa)
#
#
# Indices 1 2 3 4 5 6 
#
# 1 0.018038 0.001358 -0.001288 0.000000 0.000000 0.000000
# 2 0.001358 0.024472 -0.009780 0.000000 0.000000 0.000000
# 3 -0.001288 -0.009780 0.008953 0.000000 0.000000 0.000000
# 4 0.000000 0.000000 0.000000 0.092667 0.000000 0.000000
# 5 0.000000 0.000000 0.000000 0.000000 -6.378412 0.000000
# 6 0.000000 0.000000 0.000000 0.000000 0.000000 0.154061
#
#
# Mechanical properties :
#
#
# Convention : Reuss Voigt Hill
#
# Bulk Modulus (GPa) = 31.20814 55.94099 43.57456
# Shear Modulus (GPa) = -0.82643 19.44337 9.30847
#
# Velocity S-wave (km/s) = -0.67420 3.27018 2.26269
# Velocity P-wave (km/s) = 4.06925 6.71021 5.54913
#
# Compressibility (1/GPa) = 0.03204293
#
# Stress axis : x y z
#
# Youngs Moduli (GPa) = 55.43765 40.86270 111.69764
#
# Poissons Ratio (x) = -0.05549 0.14386
# Poissons Ratio (y) = -0.07528 1.09240
# Poissons Ratio (z) = 0.07140 0.39964
#
# Static dielectric constant tensor:
#      x y z
#    x 1.614880 0.000000 0.000000 
#    y 0.000000 1.613240 0.000000 
#    z 0.000000 0.000000 1.678170 
# 
# From -- ./inp_files/60146.got.cif
#   From: 2010.05.17/outbox.cif.g08.bks.cpg/sg65_31_cif.got.tgz:60146.got - 2010.06.03 17:01:31.
