data_PCOD9494081
_publ_section_title
;
Structure prediction by ZEFSAII (Michael W. Deem and Ramdas Pophale) SiO2 
 PCOD9494081
Probable space group: C M M M
;
_chemical_formula_sum "Si O2"
_cell_formula_units_Z 72
_cell_length_a 18.269818
_cell_length_b 8.740198
_cell_length_c 23.440552
_cell_angle_alpha 90.000000
_cell_angle_beta 90.000000
_cell_angle_gamma 90.000000
_cell_volume 3743.030163
_symmetry_space_group_name_H-M "C M M M"
_symmetry_group_IT_number 65
_symmetry_cell_setting 'orthorhombic'
loop_
_space_group_symop_operation_xyz
x,y,z
-x,-y,z
x,-y,-z
-x,y,-z
-x,-y,-z
x,y,-z
-x,y,z
x,-y,z
1/2+x,1/2+y,z
1/2-x,1/2-y,z
1/2+x,1/2-y,-z
1/2-x,1/2+y,-z
1/2-x,1/2-y,-z
1/2+x,1/2+y,-z
1/2-x,1/2+y,z
1/2+x,1/2-y,z
loop_
_atom_site_type_symbol
_atom_site_label
_atom_site_fract_x
_atom_site_fract_y
_atom_site_fract_z
Si Si1 0.086501 0.317147 0.434083
Si Si2 0.586778 0.183141 0.000000
Si Si3 0.913473 0.682882 0.219641
Si Si4 0.168311 0.182942 0.889966
Si Si5 0.168873 0.818137 0.327972
O O1 0.103797 0.280198 0.500000
O O2 0.097160 0.500000 0.426456
O O3 0.134454 0.227664 0.388688
O O4 0.000000 0.286602 0.425162
O O5 0.623976 0.253851 0.055846
O O6 0.500000 0.213637 0.000000
O O7 0.597454 0.000000 0.000000
O O8 0.902930 0.500000 0.216751
O O9 0.871658 0.760838 0.167266
O O10 0.880924 0.745397 0.278538
O O11 0.000000 0.714356 0.216187
O O12 0.250000 0.250000 0.891350
O O13 0.171107 0.000000 0.891612
O O14 0.250000 0.750000 0.323108
O O15 0.171208 0.000000 0.321422
#
# Coordination Sequence:
#
# PCOD9494081 Si02
#       5
#    16   8  16  16  16
#     4   9  19  38  63  89 119 156 197 243 298 359
#     4  11  24  43  66  93 127 165 206 251 302 359
#     4  11  24  43  66  91 122 159 199 246 302 362
#     4  12  25  42  65  93 127 163 204 252 302 357
#     4  12  25  40  60  87 121 159 201 249 300 356
#
# _framework density 19.235752999999999
#
# number of rings (size 3 to 8) (size 9 to 14) (size 15 to 20)
#    0.000    1.000    0.000    8.000    0.000    9.333 
#    0.000    1.111    0.000    0.000    0.000    0.000 
#    0.000    0.000    0.000    0.000    0.000    0.000 
#
# Total GULP energy -201526.073498 kJ/mol
# GULP energy per Si atom -5597.946486 kJ/mol
# Density = 1.919197 g / cm^3
# Si number density = 19.235753 Si / 1000 Ang^3
#
#
#
# Elastic Constant Matrix: (Units=GPa)
#
#
# Indices 1 2 3 4 5 6 
#
# 1 150.5999 106.4231 83.0534 0.0000 0.0000 0.0000
# 2 106.4231 140.6319 71.3269 0.0000 0.0000 0.0000
# 3 83.0534 71.3269 120.8033 0.0000 0.0000 0.0000
# 4 0.0000 0.0000 0.0000 78.3690 0.0000 0.0000
# 5 0.0000 0.0000 0.0000 0.0000 52.7604 0.0000
# 6 0.0000 0.0000 0.0000 0.0000 0.0000 30.9819
#
#
#
# Elastic Compliance Matrix: (Units=1/GPa)
#
#
# Indices 1 2 3 4 5 6 
#
# 1 0.016646 -0.009696 -0.005719 0.000000 0.000000 0.000000
# 2 -0.009696 0.015798 -0.002662 0.000000 0.000000 0.000000
# 3 -0.005719 -0.002662 0.013782 0.000000 0.000000 0.000000
# 4 0.000000 0.000000 0.000000 0.012760 0.000000 0.000000
# 5 0.000000 0.000000 0.000000 0.000000 0.018954 0.000000
# 6 0.000000 0.000000 0.000000 0.000000 0.000000 0.032277
#
#
# Mechanical properties :
#
#
# Convention : Reuss Voigt Hill
#
# Bulk Modulus (GPa) = 99.28971 103.73799 101.51385
# Shear Modulus (GPa) = 33.39375 42.50438 37.94906
#
# Velocity S-wave (km/s) = 4.17108 4.70580 4.44648
# Velocity P-wave (km/s) = 8.65601 9.14182 8.90223
#
# Compressibility (1/GPa) = 0.01007154
#
# Stress axis : x y z
#
# Youngs Moduli (GPa) = 60.07391 63.29783 72.56019
#
# Poissons Ratio (x) = 0.61375 0.41500
# Poissons Ratio (y) = 0.58249 0.19314
# Poissons Ratio (z) = 0.34359 0.16848
#
# Static dielectric constant tensor:
#      x y z
#    x 1.635950 0.000000 0.000000 
#    y 0.000000 1.641800 0.000000 
#    z 0.000000 0.000000 1.639730 
# 
# From -- ./inp_files/74600.got.cif
#   From: 2010.05.17/outbox.cif.g08.bks.cpg/sg65_38_cif.got.tgz:74600.got - 2010.06.03 17:01:31.
