data_PCOD9494953
_publ_section_title
;
Structure prediction by ZEFSAII (Michael W. Deem and Ramdas Pophale) SiO2 
 PCOD9494953
Probable space group: C C C M
;
_chemical_formula_sum "Si O2"
_cell_formula_units_Z 96
_cell_length_a 24.654894
_cell_length_b 14.037009
_cell_length_c 14.302849
_cell_angle_alpha 90.000000
_cell_angle_beta 90.000000
_cell_angle_gamma 90.000000
_cell_volume 4949.943841
_symmetry_space_group_name_H-M "C C C M"
_symmetry_group_IT_number 66
_symmetry_cell_setting 'orthorhombic'
loop_
_space_group_symop_operation_xyz
x,y,z
-x,-y,z
x,-y,1/2-z
-x,y,1/2-z
-x,-y,-z
x,y,-z
-x,y,1/2+z
x,-y,1/2+z
1/2+x,1/2+y,z
1/2-x,1/2-y,z
1/2+x,1/2-y,1/2-z
1/2-x,1/2+y,1/2-z
1/2-x,1/2-y,-z
1/2+x,1/2+y,-z
1/2-x,1/2+y,1/2+z
1/2+x,1/2-y,1/2+z
loop_
_atom_site_type_symbol
_atom_site_label
_atom_site_fract_x
_atom_site_fract_y
_atom_site_fract_z
Si Si1 0.156441 0.104892 0.295822
Si Si2 0.278547 0.103708 0.298102
Si Si3 0.273771 0.976525 0.000000
Si Si4 0.109541 0.395673 0.207704
Si Si5 0.445175 0.292639 0.203894
Si Si6 0.142375 0.635074 0.500000
Si Si7 0.146177 0.965316 0.000000
Si Si8 0.910374 0.830153 0.000000
O O1 0.217923 0.146923 0.289595
O O2 0.109248 0.158137 0.241680
O O3 0.159140 0.000000 0.250000
O O4 0.139331 0.093010 0.404192
O O5 0.288996 0.082537 0.407380
O O6 0.332543 0.142920 0.248721
O O7 0.273806 0.000000 0.250000
O O8 0.300685 0.080489 0.000000
O O9 0.209682 0.991714 0.000000
O O10 0.100694 0.500000 0.250000
O O11 0.063790 0.318350 0.228065
O O12 0.114832 0.399601 0.095687
O O13 0.500000 0.329544 0.250000
O O14 0.444454 0.309810 0.093077
O O15 0.137658 0.749859 0.500000
O O16 0.112062 0.062640 0.000000
#
# Coordination Sequence:
#
# PCOD9494953 Si02
#       8
#    16  16   8  16  16   8   8   8
#     4  10  20  37  58  84 121 155 188 235 294 346
#     4   9  17  30  54  85 117 153 184 228 288 355
#     4  10  16  29  53  88 124 149 191 235 284 355
#     4  10  20  37  61  87 117 154 189 240 296 355
#     4  11  25  42  60  85 116 153 204 250 284 342
#     4  10  18  31  55  88 118 149 189 237 293 345
#     4  10  20  36  58  87 120 158 195 239 289 347
#     4  10  22  40  58  83 116 146 199 256 289 339
#
# _framework density 19.394158999999998
#
# number of rings (size 3 to 8) (size 9 to 14) (size 15 to 20)
#    0.000    2.000    5.000    0.000    0.000    2.333 
#    0.000    7.500    0.000    6.000    0.000    0.000 
#    0.000    0.000    0.000    0.000    0.000    0.000 
#
# Total GULP energy -267569.091339 kJ/mol
# GULP energy per Si atom -5574.356070 kJ/mol
# Density = 1.935002 g / cm^3
# Si number density = 19.394159 Si / 1000 Ang^3
#
#
#
# Elastic Constant Matrix: (Units=GPa)
#
#
# Indices 1 2 3 4 5 6 
#
# 1 83.3681 16.6491 33.4675 0.0000 0.0000 0.0000
# 2 16.6491 34.5534 8.1876 0.0000 0.0000 0.0000
# 3 33.4675 8.1876 138.7598 0.0000 0.0000 0.0000
# 4 0.0000 0.0000 0.0000 -108.8973 0.0000 0.0000
# 5 0.0000 0.0000 0.0000 0.0000 257.4447 0.0000
# 6 0.0000 0.0000 0.0000 0.0000 0.0000 11.8637
#
#
#
# Elastic Compliance Matrix: (Units=1/GPa)
#
#
# Indices 1 2 3 4 5 6 
#
# 1 0.014498 -0.006244 -0.003128 0.000000 0.000000 0.000000
# 2 -0.006244 0.032041 -0.000385 0.000000 0.000000 0.000000
# 3 -0.003128 -0.000385 0.007984 0.000000 0.000000 0.000000
# 4 0.000000 0.000000 0.000000 -0.009183 0.000000 0.000000
# 5 0.000000 0.000000 0.000000 0.000000 0.003884 0.000000
# 6 0.000000 0.000000 0.000000 0.000000 0.000000 0.084291
#
#
# Mechanical properties :
#
#
# Convention : Reuss Voigt Hill
#
# Bulk Modulus (GPa) = 28.56483 41.47663 35.02073
# Shear Modulus (GPa) = 30.35856 45.30735 37.83296
#
# Velocity S-wave (km/s) = 3.96074 4.83860 4.42151
# Velocity P-wave (km/s) = 5.97303 7.25594 6.64552
#
# Compressibility (1/GPa) = 0.03500809
#
# Stress axis : x y z
#
# Youngs Moduli (GPa) = 68.97581 31.21042 125.25213
#
# Poissons Ratio (x) = 0.19489 0.39182
# Poissons Ratio (y) = 0.43071 0.04816
# Poissons Ratio (z) = 0.21578 0.01200
#
# Static dielectric constant tensor:
#      x y z
#    x 1.671110 0.000000 0.000000 
#    y 0.000000 1.690930 0.000000 
#    z 0.000000 0.000000 1.698230 
# 
# From -- ./inp_files/32407.got.cif
#   From: 2010.05.17/outbox.cif.g08.bks.cpg/sg66_17_cif.got.tgz:32407.got - 2010.06.03 17:51:23.
