data_PCOD9494135
_publ_section_title
;
Structure prediction by ZEFSAII (Michael W. Deem and Ramdas Pophale) SiO2 
 PCOD9494135
Probable space group: C M M M
;
_chemical_formula_sum "Si O2"
_cell_formula_units_Z 104
_cell_length_a 14.494181
_cell_length_b 14.405871
_cell_length_c 23.728046
_cell_angle_alpha 90.000000
_cell_angle_beta 90.000000
_cell_angle_gamma 90.000000
_cell_volume 4954.446892
_symmetry_space_group_name_H-M "C M M M"
_symmetry_group_IT_number 65
_symmetry_cell_setting 'orthorhombic'
loop_
_space_group_symop_operation_xyz
x,y,z
-x,-y,z
x,-y,-z
-x,y,-z
-x,-y,-z
x,y,-z
-x,y,z
x,-y,z
1/2+x,1/2+y,z
1/2-x,1/2-y,z
1/2+x,1/2-y,-z
1/2-x,1/2+y,-z
1/2-x,1/2-y,-z
1/2+x,1/2+y,-z
1/2-x,1/2+y,z
1/2+x,1/2-y,z
loop_
_atom_site_type_symbol
_atom_site_label
_atom_site_fract_x
_atom_site_fract_y
_atom_site_fract_z
Si Si1 0.892132 0.893414 0.932089
Si Si2 0.649497 0.894756 0.336477
Si Si3 0.631325 0.395220 0.635583
Si Si4 0.595789 0.612433 0.758246
Si Si5 0.695056 0.111584 0.789894
Si Si6 0.750000 0.250000 0.124536
Si Si7 0.361474 0.235493 0.562446
O O1 0.816713 0.821076 0.909228
O O2 0.000000 0.872671 0.918364
O O3 0.873797 0.000000 0.911459
O O4 0.886228 0.894664 0.000000
O O5 0.758549 0.896849 0.352478
O O6 0.647202 0.866025 0.270462
O O7 0.610845 0.831530 0.386274
O O8 0.614559 0.000000 0.339491
O O9 0.601311 0.500000 0.629549
O O10 0.595518 0.353644 0.693942
O O11 0.605778 0.336022 0.581864
O O12 0.500000 0.642518 0.786135
O O13 0.594783 0.500000 0.755352
O O14 0.695342 0.632137 0.782577
O O15 0.678678 0.182916 0.840288
O O16 0.682773 0.000000 0.799505
O O17 0.389385 0.206096 0.500000
O O18 0.250000 0.250000 0.561801
#
# Coordination Sequence:
#
# PCOD9494135 Si02
#       7
#    16  16  16  16  16   8  16
#     4   9  20  41  66  93 130 171 209 253 301 348
#     4   8  15  27  39  53  83 122 158 202 268 336
#     4   8  14  23  36  54  80 110 146 195 256 328
#     4   8  14  26  43  62  89 131 179 218 261 329
#     4   9  19  30  43  72 110 148 182 227 287 343
#     4  12  21  30  60  94 123 160 208 256 292 352
#     4   9  16  23  36  55  76 107 153 208 268 334
#
# _framework density 20.991243000000001
#
# number of rings (size 3 to 8) (size 9 to 14) (size 15 to 20)
#    0.000    3.231    0.000    3.000    5.385    1.231 
#    0.000    4.615    0.000    2.308    0.000    7.538 
#    0.000    0.615    0.000    1.385    0.000    6.154 
#
# Total GULP energy -289574.295849 kJ/mol
# GULP energy per Si atom -5568.736459 kJ/mol
# Density = 2.094347 g / cm^3
# Si number density = 20.991243 Si / 1000 Ang^3
#
#
#
# Elastic Constant Matrix: (Units=GPa)
#
#
# Indices 1 2 3 4 5 6 
#
# 1 63.5080 26.1072 14.7123 0.0000 0.0000 0.0000
# 2 26.1072 116.0030 64.9944 0.0000 0.0000 0.0000
# 3 14.7123 64.9944 112.7045 0.0000 0.0000 0.0000
# 4 0.0000 0.0000 0.0000 32.0244 0.0000 0.0000
# 5 0.0000 0.0000 0.0000 0.0000 -21.1475 0.0000
# 6 0.0000 0.0000 0.0000 0.0000 0.0000 2.3973
#
#
#
# Elastic Compliance Matrix: (Units=1/GPa)
#
#
# Indices 1 2 3 4 5 6 
#
# 1 0.017351 -0.003894 -0.000019 0.000000 0.000000 0.000000
# 2 -0.003894 0.013609 -0.007340 0.000000 0.000000 0.000000
# 3 -0.000019 -0.007340 0.013108 0.000000 0.000000 0.000000
# 4 0.000000 0.000000 0.000000 0.031226 0.000000 0.000000
# 5 0.000000 0.000000 0.000000 0.000000 -0.047287 0.000000
# 6 0.000000 0.000000 0.000000 0.000000 0.000000 0.417132
#
#
# Mechanical properties :
#
#
# Convention : Reuss Voigt Hill
#
# Bulk Modulus (GPa) = 46.37807 55.98259 51.18033
# Shear Modulus (GPa) = 10.53001 15.08163 12.80582
#
# Velocity S-wave (km/s) = 2.24216 2.68334 2.47261
# Velocity P-wave (km/s) = 5.37075 6.02726 5.70845
#
# Compressibility (1/GPa) = 0.02156192
#
# Stress axis : x y z
#
# Youngs Moduli (GPa) = 57.63231 73.47937 76.28922
#
# Poissons Ratio (x) = 0.28614 0.00147
# Poissons Ratio (y) = 0.22443 0.55995
# Poissons Ratio (z) = 0.00111 0.53933
#
# Static dielectric constant tensor:
#      x y z
#    x 1.784840 0.000000 0.000000 
#    y 0.000000 1.776880 0.000000 
#    z 0.000000 0.000000 1.796650 
# 
# From -- ./inp_files/70563.got.cif
#   From: 2010.05.17/outbox.cif.g08.bks.cpg/sg65_36_cif.got.tgz:70563.got - 2010.06.03 17:01:31.
