data_PCOD9494702
_publ_section_title
;
Structure prediction by ZEFSAII (Michael W. Deem and Ramdas Pophale) SiO2 
 PCOD9494702
Probable space group: C M M M
;
_chemical_formula_sum "Si O2"
_cell_formula_units_Z 36
_cell_length_a 9.000000
_cell_length_b 18.000000
_cell_length_c 24.000000
_cell_angle_alpha 90.000000
_cell_angle_beta 90.000000
_cell_angle_gamma 90.000000
_cell_volume 3888.000000
_symmetry_space_group_name_H-M "C M M M"
_symmetry_group_IT_number 65
_symmetry_cell_setting 'orthorhombic'
loop_
_space_group_symop_operation_xyz
x,y,z
-x,-y,z
x,-y,-z
-x,y,-z
-x,-y,-z
x,y,-z
-x,y,z
x,-y,z
1/2+x,1/2+y,z
1/2-x,1/2-y,z
1/2+x,1/2-y,-z
1/2-x,1/2+y,-z
1/2-x,1/2-y,-z
1/2+x,1/2+y,-z
1/2-x,1/2+y,z
1/2+x,1/2-y,z
loop_
_atom_site_type_symbol
_atom_site_label
_atom_site_fract_x
_atom_site_fract_y
_atom_site_fract_z
Si Si1 0.318898 0.415511 0.500000
Si Si2 0.675907 0.588476 0.724580
Si Si3 0.669480 0.910595 0.162479
Si Si4 0.320406 0.330438 0.388801
Si Si5 0.676714 0.330735 0.937834
O O1 0.267633 0.500000 0.500000
O O2 0.500000 0.416325 0.500000
O O3 0.272153 0.374256 0.443954
O O4 0.500000 0.600966 0.733079
O O5 0.697718 0.500000 0.718700
O O6 0.763123 0.615275 0.778828
O O7 0.722556 0.627468 0.667681
O O8 0.500000 0.885444 0.156667
O O9 0.763484 0.882057 0.110841
O O10 0.672467 0.000000 0.163229
O O11 0.500000 0.326025 0.389664
O O12 0.250000 0.250000 0.389343
O O13 0.500000 0.323605 0.934226
O O14 0.750000 0.250000 0.932000
O O15 0.714588 0.359103 0.000000
#
# Coordination Sequence:
#
# PCOD9494702 Si02
#       5
#     8  16  16  16  16
#     4   9  17  32  55  79 102 133 176 218 254 301
#     4   9  18  34  54  74  99 135 179 220 258 306
#     4  10  21  36  55  80 109 141 177 219 266 314
#     4  10  20  33  52  78 106 136 170 213 263 311
#     4  10  21  37  57  80 107 140 177 218 265 317
#
# _framework density 9.2592590000000001
#
# number of rings (size 3 to 8) (size 9 to 14) (size 15 to 20)
#    0.000    2.333    0.000    2.333    0.000    7.556 
#    0.000    4.444    0.000    2.667    0.000    0.000 
#    0.000    0.000    0.000    0.000    0.000    0.000 
#
# Total GULP energy -200884.499435 kJ/mol
# GULP energy per Si atom -5580.124984 kJ/mol
# Density = 0.923818 g / cm^3
# Si number density = 9.259259 Si / 1000 Ang^3
#
#
#
# Elastic Constant Matrix: (Units=GPa)
#
#
# Indices 1 2 3 4 5 6 
#
# 1 44.8589 38.2819 69.3146 0.0000 0.0000 0.0000
# 2 38.2819 34.5927 54.1185 0.0000 0.0000 0.0000
# 3 69.3146 54.1185 176.0970 0.0000 0.0000 0.0000
# 4 0.0000 0.0000 0.0000 33.0766 0.0000 0.0000
# 5 0.0000 0.0000 0.0000 0.0000 37.5886 0.0000
# 6 0.0000 0.0000 0.0000 0.0000 0.0000 29.9624
#
#
#
# Elastic Compliance Matrix: (Units=1/GPa)
#
#
# Indices 1 2 3 4 5 6 
#
# 1 0.656646 -0.620785 -0.067686 0.000000 0.000000 0.000000
# 2 -0.620785 0.642558 0.046879 0.000000 0.000000 0.000000
# 3 -0.067686 0.046879 0.017914 0.000000 0.000000 0.000000
# 4 0.000000 0.000000 0.000000 0.030233 0.000000 0.000000
# 5 0.000000 0.000000 0.000000 0.000000 0.026604 0.000000
# 6 0.000000 0.000000 0.000000 0.000000 0.000000 0.033375
#
#
# Mechanical properties :
#
#
# Convention : Reuss Voigt Hill
#
# Bulk Modulus (GPa) = 29.46824 64.33094 46.89959
# Shear Modulus (GPa) = 1.85060 26.38110 14.11585
#
# Velocity S-wave (km/s) = 1.00075 3.77846 2.76389
# Velocity P-wave (km/s) = 4.15725 7.33824 5.96374
#
# Compressibility (1/GPa) = 0.03393484
#
# Stress axis : x y z
#
# Youngs Moduli (GPa) = 1.52289 1.55628 55.82198
#
# Poissons Ratio (x) = 0.96611 3.77835
# Poissons Ratio (y) = 0.94539 -2.61685
# Poissons Ratio (z) = 0.10308 -0.07296
#
# Static dielectric constant tensor:
#      x y z
#    x 1.625520 0.000000 0.000000 
#    y 0.000000 1.613140 0.000000 
#    z 0.000000 0.000000 1.632080 
# 
# From -- ./inp_files/59255.got.cif
#   From: 2010.05.17/outbox.ucp.g08.bks.cvg/sg65_30_cif.got.tgz:59255.got - 2010.06.11 16:39:57.
