data_PCOD9494591
_publ_section_title
;
Structure prediction by ZEFSAII (Michael W. Deem and Ramdas Pophale) SiO2 
 PCOD9494591
Probable space group: C M M M
;
_chemical_formula_sum "Si O2"
_cell_formula_units_Z 36
_cell_length_a 9.000000
_cell_length_b 15.000000
_cell_length_c 27.000000
_cell_angle_alpha 90.000000
_cell_angle_beta 90.000000
_cell_angle_gamma 90.000000
_cell_volume 3645.000000
_symmetry_space_group_name_H-M "C M M M"
_symmetry_group_IT_number 65
_symmetry_cell_setting 'orthorhombic'
loop_
_space_group_symop_operation_xyz
x,y,z
-x,-y,z
x,-y,-z
-x,y,-z
-x,-y,-z
x,y,-z
-x,y,z
x,-y,z
1/2+x,1/2+y,z
1/2-x,1/2-y,z
1/2+x,1/2-y,-z
1/2-x,1/2+y,-z
1/2-x,1/2-y,-z
1/2+x,1/2+y,-z
1/2-x,1/2+y,z
1/2+x,1/2-y,z
loop_
_atom_site_type_symbol
_atom_site_label
_atom_site_fract_x
_atom_site_fract_y
_atom_site_fract_z
Si Si1 0.681136 0.150798 0.362120
Si Si2 0.820525 0.500000 0.557622
Si Si3 0.330955 0.606264 0.055405
Si Si4 0.181152 0.850515 0.741436
Si Si5 0.678669 0.847877 0.842129
O O1 0.500000 0.155638 0.356857
O O2 0.750000 0.250000 0.369625
O O3 0.753789 0.113693 0.310771
O O4 0.718075 0.086420 0.408591
O O5 0.766352 0.500000 0.500000
O O6 0.000000 0.500000 0.554792
O O7 0.500000 0.641164 0.064843
O O8 0.342377 0.500000 0.051580
O O9 0.227113 0.620649 0.103022
O O10 0.283385 0.638306 0.000000
O O11 0.250000 0.750000 0.740922
O O12 0.245613 0.891419 0.792900
O O13 0.000000 0.849982 0.741880
O O14 0.500000 0.848677 0.836928
O O15 0.750000 0.750000 0.841500
#
# Coordination Sequence:
#
# PCOD9494591 Si02
#       5
#    16   8  16  16  16
#     4  10  19  35  59  85 115 153 194 238 287 343
#     4   9  20  38  59  85 119 157 196 237 282 337
#     4   9  19  37  57  75 101 138 178 222 274 330
#     4  10  18  32  54  79 109 143 179 223 276 333
#     4  11  21  34  54  80 109 140 178 225 275 329
#
# _framework density 9.8765429999999999
#
# number of rings (size 3 to 8) (size 9 to 14) (size 15 to 20)
#    0.000    2.111    0.000    8.000    0.000    1.778 
#    2.000    3.333    0.000    4.667    0.000    0.000 
#    0.000    0.000    0.000    0.000    0.000    0.000 
#
# Total GULP energy -200610.528701 kJ/mol
# GULP energy per Si atom -5572.514686 kJ/mol
# Density = 0.985406 g / cm^3
# Si number density = 9.876543 Si / 1000 Ang^3
#
#
#
# Elastic Constant Matrix: (Units=GPa)
#
#
# Indices 1 2 3 4 5 6 
#
# 1 163.7643 22.7864 81.0433 0.0000 0.0000 0.0000
# 2 22.7864 68.5624 49.2439 0.0000 0.0000 0.0000
# 3 81.0433 49.2439 229.8358 0.0000 0.0000 0.0000
# 4 0.0000 0.0000 0.0000 35.3374 0.0000 0.0000
# 5 0.0000 0.0000 0.0000 0.0000 38.0617 0.0000
# 6 0.0000 0.0000 0.0000 0.0000 0.0000 15.1938
#
#
#
# Elastic Compliance Matrix: (Units=1/GPa)
#
#
# Indices 1 2 3 4 5 6 
#
# 1 0.007425 -0.000694 -0.002469 0.000000 0.000000 0.000000
# 2 -0.000694 0.017303 -0.003463 0.000000 0.000000 0.000000
# 3 -0.002469 -0.003463 0.005964 0.000000 0.000000 0.000000
# 4 0.000000 0.000000 0.000000 0.028299 0.000000 0.000000
# 5 0.000000 0.000000 0.000000 0.000000 0.026273 0.000000
# 6 0.000000 0.000000 0.000000 0.000000 0.000000 0.065816
#
#
# Mechanical properties :
#
#
# Convention : Reuss Voigt Hill
#
# Bulk Modulus (GPa) = 57.34154 85.36775 71.35464
# Shear Modulus (GPa) = 29.38679 38.32450 33.85565
#
# Velocity S-wave (km/s) = 3.86126 4.40952 4.14447
# Velocity P-wave (km/s) = 6.99795 8.32084 7.68790
#
# Compressibility (1/GPa) = 0.01743937
#
# Stress axis : x y z
#
# Youngs Moduli (GPa) = 134.68045 57.79408 167.68487
#
# Poissons Ratio (x) = 0.04011 0.41409
# Poissons Ratio (y) = 0.09347 0.58061
# Poissons Ratio (z) = 0.33259 0.20011
#
# Static dielectric constant tensor:
#      x y z
#    x 1.677660 0.000000 0.000000 
#    y 0.000000 1.768800 0.000000 
#    z 0.000000 0.000000 1.772520 
# 
# From -- ./inp_files/70744.got.cif
#   From: 2010.05.17/outbox.ucp.g08.bks.cvg/sg65_36_cif.got.tgz:70744.got - 2010.06.11 16:39:57.
