data_PCOD9494991
_publ_section_title
;
Structure prediction by ZEFSAII (Michael W. Deem and Ramdas Pophale) SiO2 
 PCOD9494991
Probable space group: C C C M
;
_chemical_formula_sum "Si O2"
_cell_formula_units_Z 80
_cell_length_a 30.049879
_cell_length_b 23.800345
_cell_length_c 8.661511
_cell_angle_alpha 90.000000
_cell_angle_beta 90.000000
_cell_angle_gamma 90.000000
_cell_volume 6194.690904
_symmetry_space_group_name_H-M "C C C M"
_symmetry_group_IT_number 66
_symmetry_cell_setting 'orthorhombic'
loop_
_space_group_symop_operation_xyz
x,y,z
-x,-y,z
x,-y,1/2-z
-x,y,1/2-z
-x,-y,-z
x,y,-z
-x,y,1/2+z
x,-y,1/2+z
1/2+x,1/2+y,z
1/2-x,1/2-y,z
1/2+x,1/2-y,1/2-z
1/2-x,1/2+y,1/2-z
1/2-x,1/2-y,-z
1/2+x,1/2+y,-z
1/2-x,1/2+y,1/2+z
1/2+x,1/2-y,1/2+z
loop_
_atom_site_type_symbol
_atom_site_label
_atom_site_fract_x
_atom_site_fract_y
_atom_site_fract_z
Si Si1 0.951706 0.437868 0.314753
Si Si2 0.184539 0.268711 0.316734
Si Si3 0.633926 0.866151 0.813726
Si Si4 0.721027 0.062258 0.314280
Si Si5 0.728371 0.668532 0.184499
O O1 0.941529 0.500000 0.250000
O O2 0.953833 0.441236 0.500000
O O3 0.912497 0.395118 0.271814
O O4 0.000000 0.421511 0.250000
O O5 0.189976 0.271917 0.500000
O O6 0.142844 0.305684 0.262322
O O7 0.226030 0.299968 0.233882
O O8 0.189161 0.204203 0.262893
O O9 0.674513 0.907854 0.766781
O O10 0.636086 0.860217 0.000000
O O11 0.720466 0.059923 0.500000
O O12 0.761285 0.104339 0.269228
O O13 0.724666 0.000000 0.250000
O O14 0.723758 0.671628 0.000000
#
# Coordination Sequence:
#
# PCOD9494991 Si02
#       5
#    16  16  16  16  16
#     4  10  19  30  43  56  73  96 123 154 191 230
#     4  10  17  24  38  57  70  86 116 153 184 211
#     4   9  18  30  40  52  71  96 121 149 189 230
#     4   9  17  26  37  52  70  94 122 150 181 214
#     4   9  16  27  38  49  71  98 118 141 179 223
#
# _framework density 12.914285
#
# number of rings (size 3 to 8) (size 9 to 14) (size 15 to 20)
#    0.000    2.600    0.000    6.600    0.000    5.600 
#    0.000    0.000    0.000    0.000    0.000    0.000 
#    0.000    0.000    0.000    0.000    0.000    1.000 
#
# Total GULP energy -222699.844875 kJ/mol
# GULP energy per Si atom -5567.496122 kJ/mol
# Density = 1.288489 g / cm^3
# Si number density = 12.914285 Si / 1000 Ang^3
#
#
#
# Elastic Constant Matrix: (Units=GPa)
#
#
# Indices 1 2 3 4 5 6 
#
# 1 64.3573 52.3233 21.0893 0.0000 0.0000 0.0000
# 2 52.3233 88.3562 20.0535 0.0000 0.0000 0.0000
# 3 21.0893 20.0535 19.5073 0.0000 0.0000 0.0000
# 4 0.0000 0.0000 0.0000 17.2243 0.0000 0.0000
# 5 0.0000 0.0000 0.0000 0.0000 3.0483 0.0000
# 6 0.0000 0.0000 0.0000 0.0000 0.0000 24.2638
#
#
#
# Elastic Compliance Matrix: (Units=1/GPa)
#
#
# Indices 1 2 3 4 5 6 
#
# 1 0.036107 -0.016333 -0.022244 0.000000 0.000000 0.000000
# 2 -0.016333 0.022151 -0.005113 0.000000 0.000000 0.000000
# 3 -0.022244 -0.005113 0.080567 0.000000 0.000000 0.000000
# 4 0.000000 0.000000 0.000000 0.058057 0.000000 0.000000
# 5 0.000000 0.000000 0.000000 0.000000 0.328048 0.000000
# 6 0.000000 0.000000 0.000000 0.000000 0.000000 0.041214
#
#
# Mechanical properties :
#
#
# Convention : Reuss Voigt Hill
#
# Bulk Modulus (GPa) = 19.43885 39.90588 29.67236
# Shear Modulus (GPa) = 7.45522 14.15761 10.80642
#
# Velocity S-wave (km/s) = 2.40528 3.31460 2.89585
# Velocity P-wave (km/s) = 4.77480 6.75399 5.84872
#
# Compressibility (1/GPa) = 0.05144338
#
# Stress axis : x y z
#
# Youngs Moduli (GPa) = 27.69581 45.14552 12.41206
#
# Poissons Ratio (x) = 0.73737 0.27609
# Poissons Ratio (y) = 0.45236 0.06346
# Poissons Ratio (z) = 0.61607 0.23083
#
# Static dielectric constant tensor:
#      x y z
#    x 1.416090 0.000000 0.000000 
#    y 0.000000 1.448980 0.000000 
#    z 0.000000 0.000000 1.433300 
# 
# From -- ./inp_files/9485.got.cif
#   From: 2010.05.17/outbox.cif.g08.bks.cpg/sg66_5_cif.got.tgz:9485.got - 2010.06.03 17:51:23.
