data_PCOD9494694
_publ_section_title
;
Structure prediction by ZEFSAII (Michael W. Deem and Ramdas Pophale) SiO2 
 PCOD9494694
Probable space group: C M M M
;
_chemical_formula_sum "Si O2"
_cell_formula_units_Z 52
_cell_length_a 21.000000
_cell_length_b 30.000000
_cell_length_c 9.000000
_cell_angle_alpha 90.000000
_cell_angle_beta 90.000000
_cell_angle_gamma 90.000000
_cell_volume 5670.000000
_symmetry_space_group_name_H-M "C M M M"
_symmetry_group_IT_number 65
_symmetry_cell_setting 'orthorhombic'
loop_
_space_group_symop_operation_xyz
x,y,z
-x,-y,z
x,-y,-z
-x,y,-z
-x,-y,-z
x,y,-z
-x,y,z
x,-y,z
1/2+x,1/2+y,z
1/2-x,1/2-y,z
1/2+x,1/2-y,-z
1/2-x,1/2+y,-z
1/2-x,1/2-y,-z
1/2+x,1/2+y,-z
1/2-x,1/2+y,z
1/2+x,1/2-y,z
loop_
_atom_site_type_symbol
_atom_site_label
_atom_site_fract_x
_atom_site_fract_y
_atom_site_fract_z
Si Si1 0.428675 0.772565 0.179005
Si Si2 0.162246 0.948743 0.323005
Si Si3 0.651388 0.696403 0.322324
Si Si4 0.500000 0.947687 0.818792
Si Si5 0.102195 0.626095 0.178789
Si Si6 0.260766 0.130946 0.322658
Si Si7 0.424466 0.382425 0.171080
O O1 0.500000 0.756234 0.219992
O O2 0.374034 0.742002 0.250682
O O3 0.424342 0.824843 0.220718
O O4 0.423280 0.769586 0.000000
O O5 0.149387 0.946680 0.500000
O O6 0.218288 0.913114 0.293519
O O7 0.103248 0.928610 0.233163
O O8 0.176956 0.000000 0.285112
O O9 0.650963 0.700687 0.500000
O O10 0.719980 0.675036 0.278818
O O11 0.603294 0.657549 0.269926
O O12 0.560198 0.916653 0.772476
O O13 0.500000 0.000000 0.770052
O O14 0.500000 0.949020 0.000000
O O15 0.173231 0.625487 0.239955
O O16 0.101997 0.624933 0.000000
O O17 0.270988 0.133632 0.500000
O O18 0.500000 0.382103 0.176586
O O19 0.403941 0.375692 0.000000
#
# Coordination Sequence:
#
# PCOD9494694 Si02
#       7
#    16  16  16   8  16  16  16
#     4  10  20  35  55  79 111 146 181 224 275 327
#     4   9  19  36  55  74 101 141 184 224 271 326
#     4  10  21  36  54  78 108 145 187 225 268 323
#     4   9  18  36  61  87 115 145 181 227 278 333
#     4  10  20  36  58  83 110 142 179 221 272 330
#     4   9  20  37  54  76 109 143 177 225 276 324
#     4  10  20  33  50  75 108 142 178 225 276 321
#
# _framework density 9.1710759999999993
#
# number of rings (size 3 to 8) (size 9 to 14) (size 15 to 20)
#    0.000    2.385    0.769    2.308    0.000    8.923 
#    0.000    5.000    0.000    0.462    0.000    0.000 
#    0.000    0.000    0.000    0.000    0.000    0.000 
#
# Total GULP energy -289940.027110 kJ/mol
# GULP energy per Si atom -5575.769752 kJ/mol
# Density = 0.915020 g / cm^3
# Si number density = 9.171076 Si / 1000 Ang^3
#
#
#
# Elastic Constant Matrix: (Units=GPa)
#
#
# Indices 1 2 3 4 5 6 
#
# 1 101.8691 55.2264 27.9762 0.0000 0.0000 0.0000
# 2 55.2264 138.2733 26.4611 0.0000 0.0000 0.0000
# 3 27.9762 26.4611 13.6961 0.0000 0.0000 0.0000
# 4 0.0000 0.0000 0.0000 23.7322 0.0000 0.0000
# 5 0.0000 0.0000 0.0000 0.0000 46.3560 0.0000
# 6 0.0000 0.0000 0.0000 0.0000 0.0000 17.8410
#
#
#
# Elastic Compliance Matrix: (Units=1/GPa)
#
#
# Indices 1 2 3 4 5 6 
#
# 1 0.022367 -0.000302 -0.045105 0.000000 0.000000 0.000000
# 2 -0.000302 0.011479 -0.021560 0.000000 0.000000 0.000000
# 3 -0.045105 -0.021560 0.206801 0.000000 0.000000 0.000000
# 4 0.000000 0.000000 0.000000 0.042137 0.000000 0.000000
# 5 0.000000 0.000000 0.000000 0.000000 0.021572 0.000000
# 6 0.000000 0.000000 0.000000 0.000000 0.000000 0.056051
#
#
# Mechanical properties :
#
#
# Convention : Reuss Voigt Hill
#
# Bulk Modulus (GPa) = 9.37098 52.57401 30.97249
# Shear Modulus (GPa) = 9.43555 27.19749 18.31652
#
# Velocity S-wave (km/s) = 2.27054 3.85487 3.16350
# Velocity P-wave (km/s) = 3.46322 6.96696 5.50148
#
# Compressibility (1/GPa) = 0.10671248
#
# Stress axis : x y z
#
# Youngs Moduli (GPa) = 44.70814 87.11926 4.83558
#
# Poissons Ratio (x) = 0.02630 0.21811
# Poissons Ratio (y) = 0.01349 0.10426
# Poissons Ratio (z) = 2.01656 1.87830
#
# Static dielectric constant tensor:
#      x y z
#    x 1.642260 0.000000 0.000000 
#    y 0.000000 1.631880 0.000000 
#    z 0.000000 0.000000 1.619150 
# 
# From -- ./inp_files/12825.got.cif
#   From: 2010.05.17/outbox.ucp.g08.bks.cvg/sg65_7_cif.got.tgz:12825.got - 2010.06.11 16:39:57.
