data_PCOD9494917
_publ_section_title
;
Structure prediction by ZEFSAII (Michael W. Deem and Ramdas Pophale) SiO2 
 PCOD9494917
Probable space group: C C C M
;
_chemical_formula_sum "Si O2"
_cell_formula_units_Z 64
_cell_length_a 5.371187
_cell_length_b 34.111390
_cell_length_c 14.728106
_cell_angle_alpha 90.000000
_cell_angle_beta 90.000000
_cell_angle_gamma 90.000000
_cell_volume 2698.463765
_symmetry_space_group_name_H-M "C C C M"
_symmetry_group_IT_number 66
_symmetry_cell_setting 'orthorhombic'
loop_
_space_group_symop_operation_xyz
x,y,z
-x,-y,z
x,-y,1/2-z
-x,y,1/2-z
-x,-y,-z
x,y,-z
-x,y,1/2+z
x,-y,1/2+z
1/2+x,1/2+y,z
1/2-x,1/2-y,z
1/2+x,1/2-y,1/2-z
1/2-x,1/2+y,1/2-z
1/2-x,1/2-y,-z
1/2+x,1/2+y,-z
1/2-x,1/2+y,1/2+z
1/2+x,1/2-y,1/2+z
loop_
_atom_site_type_symbol
_atom_site_label
_atom_site_fract_x
_atom_site_fract_y
_atom_site_fract_z
Si Si1 0.278574 0.890151 0.854374
Si Si2 0.209875 0.141946 0.850818
Si Si3 0.994779 0.225536 0.894395
Si Si4 0.755530 0.516742 0.353520
O O1 0.516964 0.866420 0.892122
O O2 0.247924 0.874485 0.750985
O O3 0.296264 0.936768 0.851529
O O4 0.011276 0.881760 0.897792
O O5 0.092233 0.185355 0.849740
O O6 0.250000 0.250000 0.892542
O O7 0.750000 0.250000 0.858768
O O8 0.933432 0.216573 0.000000
O O9 0.500000 0.500000 0.393180
O O10 0.752795 0.500000 0.250000
O O11 0.000000 0.500000 0.398991
#
# Coordination Sequence:
#
# PCOD9494917 Si02
#       4
#    16  16  16  16
#     4  10  19  30  46  74 105 129 158 195 242 300
#     4  10  18  32  49  68  99 129 153 199 250 291
#     4  10  21  37  55  73  93 123 168 214 251 294
#     4  10  16  25  41  64  99 132 160 190 225 279
#
# _framework density 23.717198
#
# number of rings (size 3 to 8) (size 9 to 14) (size 15 to 20)
#    0.000    2.000    0.000    9.000    0.000    0.000 
#    0.000   10.000    0.000    0.000    0.000    0.000 
#    0.000   74.000    0.000    0.000    0.000    0.000 
#
# Total GULP energy -178312.263121 kJ/mol
# GULP energy per Si atom -5572.258223 kJ/mol
# Density = 2.366322 g / cm^3
# Si number density = 23.717198 Si / 1000 Ang^3
#
#
#
# Elastic Constant Matrix: (Units=GPa)
#
#
# Indices 1 2 3 4 5 6 
#
# 1 283.1426 80.4622 21.6844 0.0000 0.0000 0.0000
# 2 80.4622 215.7226 28.6661 0.0000 0.0000 0.0000
# 3 21.6844 28.6661 84.9508 0.0000 0.0000 0.0000
# 4 0.0000 0.0000 0.0000 -73.7509 0.0000 0.0000
# 5 0.0000 0.0000 0.0000 0.0000 -13.0244 0.0000
# 6 0.0000 0.0000 0.0000 0.0000 0.0000 50.8698
#
#
#
# Elastic Compliance Matrix: (Units=1/GPa)
#
#
# Indices 1 2 3 4 5 6 
#
# 1 0.003974 -0.001411 -0.000538 0.000000 0.000000 0.000000
# 2 -0.001411 0.005354 -0.001447 0.000000 0.000000 0.000000
# 3 -0.000538 -0.001447 0.012397 0.000000 0.000000 0.000000
# 4 0.000000 0.000000 0.000000 -0.013559 0.000000 0.000000
# 5 0.000000 0.000000 0.000000 0.000000 -0.076779 0.000000
# 6 0.000000 0.000000 0.000000 0.000000 0.000000 0.019658
#
#
# Mechanical properties :
#
#
# Convention : Reuss Voigt Hill
#
# Bulk Modulus (GPa) = 66.96245 93.93793 80.45019
# Shear Modulus (GPa) = -134.45833 23.01913 -55.71960
#
# Velocity S-wave (km/s) = -7.53760 3.11877 -4.85225
# Velocity P-wave (km/s) = 6.88904 7.25689 1.61301
#
# Compressibility (1/GPa) = 0.01493374
#
# Stress axis : x y z
#
# Youngs Moduli (GPa) = 251.64199 186.77697 80.66421
#
# Poissons Ratio (x) = 0.26348 0.04343
# Poissons Ratio (y) = 0.35499 0.11669
# Poissons Ratio (z) = 0.13547 0.27019
#
# Static dielectric constant tensor:
#      x y z
#    x 2.031620 0.000000 0.000000 
#    y 0.000000 1.966120 0.000000 
#    z 0.000000 0.000000 1.846490 
# 
# From -- ./inp_files/45666.got.cif
#   From: 2010.05.17/outbox.cif.g08.bks.cpg/sg66_23_cif.got.tgz:45666.got - 2010.06.03 17:51:23.
