data_PCOD9494272
_publ_section_title
;
Structure prediction by ZEFSAII (Michael W. Deem and Ramdas Pophale) SiO2 
 PCOD9494272
Probable space group: C M M M
;
_chemical_formula_sum "Si O2"
_cell_formula_units_Z 72
_cell_length_a 7.283517
_cell_length_b 14.531855
_cell_length_c 27.641403
_cell_angle_alpha 90.000000
_cell_angle_beta 90.000000
_cell_angle_gamma 90.000000
_cell_volume 2925.649375
_symmetry_space_group_name_H-M "C M M M"
_symmetry_group_IT_number 65
_symmetry_cell_setting 'orthorhombic'
loop_
_space_group_symop_operation_xyz
x,y,z
-x,-y,z
x,-y,-z
-x,y,-z
-x,-y,-z
x,y,-z
-x,y,z
x,-y,z
1/2+x,1/2+y,z
1/2-x,1/2-y,z
1/2+x,1/2-y,-z
1/2-x,1/2+y,-z
1/2-x,1/2-y,-z
1/2+x,1/2+y,-z
1/2-x,1/2+y,z
1/2+x,1/2-y,z
loop_
_atom_site_type_symbol
_atom_site_label
_atom_site_fract_x
_atom_site_fract_y
_atom_site_fract_z
Si Si1 0.281145 0.639663 0.260702
Si Si2 0.724246 0.500000 0.555167
Si Si3 0.719163 0.360489 0.947848
Si Si4 0.281468 0.641524 0.634150
Si Si5 0.719194 0.639493 0.156455
O O1 0.500000 0.622673 0.260310
O O2 0.250000 0.750000 0.260866
O O3 0.210264 0.609218 0.313148
O O4 0.210342 0.606138 0.208606
O O5 0.500000 0.500000 0.553246
O O6 0.787417 0.500000 0.500000
O O7 0.784190 0.413327 0.587537
O O8 0.500000 0.376662 0.947859
O O9 0.750000 0.250000 0.947839
O O10 0.789449 0.393867 0.895698
O O11 0.789417 0.393871 0.000000
O O12 0.500000 0.626762 0.636146
O O13 0.250000 0.750000 0.629526
O O14 0.500000 0.623372 0.156385
O O15 0.750000 0.750000 0.156509
#
# Coordination Sequence:
#
# PCOD9494272 Si02
#       5
#    16   8  16  16  16
#     4   8  13  21  34  52  72  95 125 161 200 240
#     4   9  18  32  49  69  93 121 150 178 214 261
#     4   8  12  16  21  30  47  74 107 141 178 221
#     4   9  17  30  48  68  90 117 148 181 217 258
#     4   8  12  17  25  38  57  81 111 148 187 227
#
# _framework density 24.609921
#
# number of rings (size 3 to 8) (size 9 to 14) (size 15 to 20)
#    0.000    3.667    0.000    0.000    0.000    0.444 
#    0.000    0.556    0.000    0.667    0.000    0.000 
#    0.000    0.000    0.000    1.000    0.000   34.444 
#
# Total GULP energy -200708.088206 kJ/mol
# GULP energy per Si atom -5575.224672 kJ/mol
# Density = 2.455391 g / cm^3
# Si number density = 24.609921 Si / 1000 Ang^3
#
#
#
# Elastic Constant Matrix: (Units=GPa)
#
#
# Indices 1 2 3 4 5 6 
#
# 1 116.9395 -8.4935 17.0966 0.0000 0.0000 0.0000
# 2 -8.4935 109.9643 71.8555 0.0000 0.0000 0.0000
# 3 17.0966 71.8555 389.3363 0.0000 0.0000 0.0000
# 4 0.0000 0.0000 0.0000 179.8264 0.0000 0.0000
# 5 0.0000 0.0000 0.0000 0.0000 -3.0131 0.0000
# 6 0.0000 0.0000 0.0000 0.0000 0.0000 -17.8250
#
#
#
# Elastic Compliance Matrix: (Units=1/GPa)
#
#
# Indices 1 2 3 4 5 6 
#
# 1 0.008712 0.001049 -0.000576 0.000000 0.000000 0.000000
# 2 0.001049 0.010467 -0.001978 0.000000 0.000000 0.000000
# 3 -0.000576 -0.001978 0.002959 0.000000 0.000000 0.000000
# 4 0.000000 0.000000 0.000000 0.005561 0.000000 0.000000
# 5 0.000000 0.000000 0.000000 0.000000 -0.331883 0.000000
# 6 0.000000 0.000000 0.000000 0.000000 0.000000 -0.056101
#
#
# Mechanical properties :
#
#
# Convention : Reuss Voigt Hill
#
# Bulk Modulus (GPa) = 52.27766 86.35082 69.31424
# Shear Modulus (GPa) = -14.24912 67.51640 26.63364
#
# Velocity S-wave (km/s) = -2.40885 5.24349 3.29330
# Velocity P-wave (km/s) = 3.68129 8.47484 6.53356
#
# Compressibility (1/GPa) = 0.01912863
#
# Stress axis : x y z
#
# Youngs Moduli (GPa) = 114.78552 95.53480 337.97221
#
# Poissons Ratio (x) = -0.10026 0.19475
# Poissons Ratio (y) = -0.12046 0.66849
# Poissons Ratio (z) = 0.06614 0.18896
#
# Static dielectric constant tensor:
#      x y z
#    x 1.922430 0.000000 0.000000 
#    y 0.000000 1.873530 0.000000 
#    z 0.000000 0.000000 1.994870 
# 
# From -- ./inp_files/72535.got.cif
#   From: 2010.05.17/outbox.cif.g08.bks.cpg/sg65_37_cif.got.tgz:72535.got - 2010.06.03 17:01:31.
