data_PCOD9494404
_publ_section_title
;
Structure prediction by ZEFSAII (Michael W. Deem and Ramdas Pophale) SiO2 
 PCOD9494404
Probable space group: C M M M
;
_chemical_formula_sum "Si O2"
_cell_formula_units_Z 72
_cell_length_a 7.367229
_cell_length_b 18.871939
_cell_length_c 24.956884
_cell_angle_alpha 90.000000
_cell_angle_beta 90.000000
_cell_angle_gamma 90.000000
_cell_volume 3469.852822
_symmetry_space_group_name_H-M "C M M M"
_symmetry_group_IT_number 65
_symmetry_cell_setting 'orthorhombic'
loop_
_space_group_symop_operation_xyz
x,y,z
-x,-y,z
x,-y,-z
-x,y,-z
-x,-y,-z
x,y,-z
-x,y,z
x,-y,z
1/2+x,1/2+y,z
1/2-x,1/2-y,z
1/2+x,1/2-y,-z
1/2-x,1/2+y,-z
1/2-x,1/2-y,-z
1/2+x,1/2+y,-z
1/2-x,1/2+y,z
1/2+x,1/2-y,z
loop_
_atom_site_type_symbol
_atom_site_label
_atom_site_fract_x
_atom_site_fract_y
_atom_site_fract_z
Si Si1 0.717163 0.166039 0.162580
Si Si2 0.716570 0.834620 0.721151
Si Si3 0.277857 0.081936 0.500000
Si Si4 0.782841 0.665861 0.604434
Si Si5 0.278940 0.917507 0.940849
O O1 0.500000 0.155796 0.163556
O O2 0.750000 0.250000 0.158325
O O3 0.786412 0.140233 0.220931
O O4 0.786860 0.126508 0.110032
O O5 0.500000 0.846583 0.721111
O O6 0.750000 0.750000 0.721342
O O7 0.786803 0.858537 0.663041
O O8 0.500000 0.083938 0.500000
O O9 0.215713 0.122606 0.553389
O O10 0.224447 0.000000 0.500000
O O11 0.750000 0.750000 0.598127
O O12 0.000000 0.656880 0.605792
O O13 0.500000 0.914844 0.940669
O O14 0.228884 0.000000 0.935736
O O15 0.220935 0.892147 0.000000
#
# Coordination Sequence:
#
# PCOD9494404 Si02
#       5
#    16  16   8  16  16
#     4   9  16  26  41  61  83 104 128 161 199 235
#     4   8  14  24  38  58  81 102 126 158 195 231
#     4   9  17  28  41  59  84 109 130 158 200 241
#     4   9  16  27  44  62  79 103 135 165 192 229
#     4   8  14  25  40  57  78 105 135 164 194 230
#
# _framework density 20.750159
#
# number of rings (size 3 to 8) (size 9 to 14) (size 15 to 20)
#    0.000    3.444    0.000    1.000    0.000    0.444 
#    0.000    1.111    0.000    8.667    0.000    1.556 
#    0.000   17.778    0.000    0.000    0.000    0.000 
#
# Total GULP energy -200556.330827 kJ/mol
# GULP energy per Si atom -5571.009190 kJ/mol
# Density = 2.070293 g / cm^3
# Si number density = 20.750159 Si / 1000 Ang^3
#
#
#
# Elastic Constant Matrix: (Units=GPa)
#
#
# Indices 1 2 3 4 5 6 
#
# 1 79.1405 -1.6688 14.2084 0.0000 0.0000 0.0000
# 2 -1.6688 61.8347 101.5560 0.0000 0.0000 0.0000
# 3 14.2084 101.5560 308.2657 0.0000 0.0000 0.0000
# 4 0.0000 0.0000 0.0000 -24.3904 0.0000 0.0000
# 5 0.0000 0.0000 0.0000 0.0000 -4.9615 0.0000
# 6 0.0000 0.0000 0.0000 0.0000 0.0000 8.1136
#
#
#
# Elastic Compliance Matrix: (Units=1/GPa)
#
#
# Indices 1 2 3 4 5 6 
#
# 1 0.012976 0.002903 -0.001555 0.000000 0.000000 0.000000
# 2 0.002903 0.035889 -0.011957 0.000000 0.000000 0.000000
# 3 -0.001555 -0.011957 0.007255 0.000000 0.000000 0.000000
# 4 0.000000 0.000000 0.000000 -0.041000 0.000000 0.000000
# 5 0.000000 0.000000 0.000000 0.000000 -0.201551 0.000000
# 6 0.000000 0.000000 0.000000 0.000000 0.000000 0.123250
#
#
# Mechanical properties :
#
#
# Convention : Reuss Voigt Hill
#
# Bulk Modulus (GPa) = 28.65088 75.27024 51.96056
# Shear Modulus (GPa) = -164.84609 18.09537 -73.37536
#
# Velocity S-wave (km/s) = -8.92277 2.95627 -5.95299
# Velocity P-wave (km/s) = 9.60816 6.92864 4.70695
#
# Compressibility (1/GPa) = 0.03490295
#
# Stress axis : x y z
#
# Youngs Moduli (GPa) = 77.06487 27.86407 137.84022
#
# Poissons Ratio (x) = -0.08090 0.21429
# Poissons Ratio (y) = -0.22375 1.64816
# Poissons Ratio (z) = 0.11981 0.33317
#
# Static dielectric constant tensor:
#      x y z
#    x 1.786420 0.000000 0.000000 
#    y 0.000000 1.667550 0.000000 
#    z 0.000000 0.000000 1.805360 
# 
# From -- ./inp_files/64508.got.cif
#   From: 2010.05.17/outbox.cif.g08.bks.cpg/sg65_33_cif.got.tgz:64508.got - 2010.06.03 17:01:31.
