data_PCOD9494127
_publ_section_title
;
Structure prediction by ZEFSAII (Michael W. Deem and Ramdas Pophale) SiO2 
 PCOD9494127
Probable space group: C M M M
;
_chemical_formula_sum "Si O2"
_cell_formula_units_Z 72
_cell_length_a 7.461674
_cell_length_b 14.351259
_cell_length_c 26.251288
_cell_angle_alpha 90.000000
_cell_angle_beta 90.000000
_cell_angle_gamma 90.000000
_cell_volume 2811.103849
_symmetry_space_group_name_H-M "C M M M"
_symmetry_group_IT_number 65
_symmetry_cell_setting 'orthorhombic'
loop_
_space_group_symop_operation_xyz
x,y,z
-x,-y,z
x,-y,-z
-x,y,-z
-x,-y,-z
x,y,-z
-x,y,z
x,-y,z
1/2+x,1/2+y,z
1/2-x,1/2-y,z
1/2+x,1/2-y,-z
1/2-x,1/2+y,-z
1/2-x,1/2-y,-z
1/2+x,1/2+y,-z
1/2-x,1/2+y,z
1/2+x,1/2-y,z
loop_
_atom_site_type_symbol
_atom_site_label
_atom_site_fract_x
_atom_site_fract_y
_atom_site_fract_z
Si Si1 0.285311 0.608504 0.554380
Si Si2 0.216651 0.108631 0.941054
Si Si3 0.212677 0.605602 0.335149
Si Si4 0.250000 0.250000 0.860009
Si Si5 0.217487 0.611298 0.776056
O O1 0.217932 0.647136 0.500000
O O2 0.500000 0.608850 0.552335
O O3 0.224859 0.500000 0.555427
O O4 0.239604 0.649379 0.609416
O O5 0.315353 0.175155 0.901949
O O6 0.000000 0.121095 0.934334
O O7 0.255793 0.000000 0.931804
O O8 0.258444 0.129053 0.000000
O O9 0.285975 0.500000 0.338973
O O10 0.277280 0.642238 0.280814
O O11 0.000000 0.599425 0.328649
O O12 0.311466 0.327033 0.818606
O O13 0.249699 0.500000 0.780521
O O14 0.000000 0.624603 0.782074
#
# Coordination Sequence:
#
# PCOD9494127 Si02
#       5
#    16  16  16   8  16
#     4   8  13  21  35  59  91 123 157 205 262 308
#     4   9  19  35  52  73 104 136 164 201 250 300
#     4   8  14  26  42  59  86 128 170 203 246 310
#     4  12  19  30  54  80  97 126 174 214 246 298
#     4   9  19  34  49  69 101 136 168 210 261 305
#
# _framework density 25.612714
#
# number of rings (size 3 to 8) (size 9 to 14) (size 15 to 20)
#    0.000    3.111    0.000    4.333    0.000    0.444 
#    0.000    4.444    0.000    5.333    0.000   10.111 
#    0.000    0.000    0.000    0.000    0.000    0.222 
#
# Total GULP energy -200481.686659 kJ/mol
# GULP energy per Si atom -5568.935741 kJ/mol
# Density = 2.555442 g / cm^3
# Si number density = 25.612714 Si / 1000 Ang^3
#
#
#
# Elastic Constant Matrix: (Units=GPa)
#
#
# Indices 1 2 3 4 5 6 
#
# 1 98.5792 14.6632 39.8178 0.0000 0.0000 0.0000
# 2 14.6632 154.4743 100.9991 0.0000 0.0000 0.0000
# 3 39.8178 100.9991 298.4546 0.0000 0.0000 0.0000
# 4 0.0000 0.0000 0.0000 186.9122 0.0000 0.0000
# 5 0.0000 0.0000 0.0000 0.0000-1494.3304 0.0000
# 6 0.0000 0.0000 0.0000 0.0000 0.0000 -27.2288
#
#
#
# Elastic Compliance Matrix: (Units=1/GPa)
#
#
# Indices 1 2 3 4 5 6 
#
# 1 0.010723 -0.000106 -0.001395 0.000000 0.000000 0.000000
# 2 -0.000106 0.008314 -0.002799 0.000000 0.000000 0.000000
# 3 -0.001395 -0.002799 0.004484 0.000000 0.000000 0.000000
# 4 0.000000 0.000000 0.000000 0.005350 0.000000 0.000000
# 5 0.000000 0.000000 0.000000 0.000000 -0.000669 0.000000
# 6 0.000000 0.000000 0.000000 0.000000 0.000000 -0.036726
#
#
# Mechanical properties :
#
#
# Convention : Reuss Voigt Hill
#
# Bulk Modulus (GPa) = 67.01952 95.82980 81.42466
# Shear Modulus (GPa) = 990.07849 -240.52753 374.77548
#
# Velocity S-wave (km/s) = 19.68239 -9.70120 12.10957
# Velocity P-wave (km/s) = 23.29704 9.38020 15.07919
#
# Compressibility (1/GPa) = 0.01492103
#
# Stress axis : x y z
#
# Youngs Moduli (GPa) = 93.25518 120.28043 223.01553
#
# Poissons Ratio (x) = 0.01274 0.31106
# Poissons Ratio (y) = 0.00988 0.62430
# Poissons Ratio (z) = 0.13007 0.33671
#
# Static dielectric constant tensor:
#      x y z
#    x 2.039010 0.000000 0.000000 
#    y 0.000000 1.987890 0.000000 
#    z 0.000000 0.000000 2.041540 
# 
# From -- ./inp_files/72540.got.cif
#   From: 2010.05.17/outbox.cif.g08.bks.cpg/sg65_37_cif.got.tgz:72540.got - 2010.06.03 17:01:31.
