data_PCOD9494647
_publ_section_title
;
Structure prediction by ZEFSAII (Michael W. Deem and Ramdas Pophale) SiO2 
 PCOD9494647
Probable space group: C M M M
;
_chemical_formula_sum "Si O2"
_cell_formula_units_Z 44
_cell_length_a 9.000000
_cell_length_b 18.000000
_cell_length_c 30.000000
_cell_angle_alpha 90.000000
_cell_angle_beta 90.000000
_cell_angle_gamma 90.000000
_cell_volume 4860.000000
_symmetry_space_group_name_H-M "C M M M"
_symmetry_group_IT_number 65
_symmetry_cell_setting 'orthorhombic'
loop_
_space_group_symop_operation_xyz
x,y,z
-x,-y,z
x,-y,-z
-x,y,-z
-x,-y,-z
x,y,-z
-x,y,z
x,-y,z
1/2+x,1/2+y,z
1/2-x,1/2-y,z
1/2+x,1/2-y,-z
1/2-x,1/2+y,-z
1/2-x,1/2-y,-z
1/2+x,1/2+y,-z
1/2-x,1/2+y,z
1/2+x,1/2-y,z
loop_
_atom_site_type_symbol
_atom_site_label
_atom_site_fract_x
_atom_site_fract_y
_atom_site_fract_z
Si Si1 0.320437 0.668348 0.221861
Si Si2 0.328580 0.909482 0.500000
Si Si3 0.319155 0.585368 0.687494
Si Si4 0.827073 0.090678 0.409434
Si Si5 0.672950 0.589364 0.050714
Si Si6 0.322766 0.168339 0.867909
O O1 0.500000 0.670893 0.218200
O O2 0.250000 0.750000 0.224293
O O3 0.278475 0.627797 0.267704
O O4 0.250831 0.634058 0.176860
O O5 0.500000 0.889743 0.500000
O O6 0.254830 0.883794 0.453934
O O7 0.316355 0.000000 0.500000
O O8 0.500000 0.585327 0.685325
O O9 0.270622 0.500000 0.691299
O O10 0.268709 0.615661 0.639163
O O11 0.000000 0.110553 0.413345
O O12 0.819803 0.000000 0.408160
O O13 0.500000 0.610310 0.058971
O O14 0.680689 0.500000 0.052293
O O15 0.776433 0.623671 0.088255
O O16 0.710862 0.612388 0.000000
O O17 0.500000 0.173719 0.862991
O O18 0.250000 0.250000 0.872275
#
# Coordination Sequence:
#
# PCOD9494647 Si02
#       6
#    16   8  16  16  16  16
#     4  10  19  33  52  72  97 128 162 201 245 293
#     4   9  15  21  31  53  86 119 146 175 223 281
#     4   8  15  28  47  70  92 118 157 200 237 278
#     4   8  13  23  39  58  81 111 149 189 226 269
#     4   9  19  37  59  81 106 136 168 202 244 295
#     4  11  22  36  54  76 103 134 170 210 249 291
#
# _framework density 9.0534979999999994
#
# number of rings (size 3 to 8) (size 9 to 14) (size 15 to 20)
#    0.000    2.818    0.000    5.182    0.000    2.909 
#    0.000    4.545    0.000    3.818    0.000    0.636 
#    0.000    0.000    0.000    0.000    0.000    0.000 
#
# Total GULP energy -245112.934662 kJ/mol
# GULP energy per Si atom -5570.748515 kJ/mol
# Density = 0.903289 g / cm^3
# Si number density = 9.053498 Si / 1000 Ang^3
#
#
#
# Elastic Constant Matrix: (Units=GPa)
#
#
# Indices 1 2 3 4 5 6 
#
# 1 88.5452 17.3565 78.0822 0.0000 0.0000 0.0000
# 2 17.3565 15.1333 38.0775 0.0000 0.0000 0.0000
# 3 78.0822 38.0775 197.1017 0.0000 0.0000 0.0000
# 4 0.0000 0.0000 0.0000 184.1009 0.0000 0.0000
# 5 0.0000 0.0000 0.0000 0.0000 18.0090 0.0000
# 6 0.0000 0.0000 0.0000 0.0000 0.0000 16.9222
#
#
#
# Elastic Compliance Matrix: (Units=1/GPa)
#
#
# Indices 1 2 3 4 5 6 
#
# 1 0.017560 -0.005130 -0.005965 0.000000 0.000000 0.000000
# 2 -0.005130 0.130079 -0.023097 0.000000 0.000000 0.000000
# 3 -0.005965 -0.023097 0.011899 0.000000 0.000000 0.000000
# 4 0.000000 0.000000 0.000000 0.005432 0.000000 0.000000
# 5 0.000000 0.000000 0.000000 0.000000 0.055528 0.000000
# 6 0.000000 0.000000 0.000000 0.000000 0.000000 0.059094
#
#
# Mechanical properties :
#
#
# Convention : Reuss Voigt Hill
#
# Bulk Modulus (GPa) = 10.97065 63.09028 37.03047
# Shear Modulus (GPa) = 13.21495 54.95735 34.08615
#
# Velocity S-wave (km/s) = 2.70446 5.51519 4.34347
# Velocity P-wave (km/s) = 3.97795 8.68764 6.75645
#
# Compressibility (1/GPa) = 0.09115226
#
# Stress axis : x y z
#
# Youngs Moduli (GPa) = 56.94899 7.68766 84.04225
#
# Poissons Ratio (x) = 0.03944 0.50133
# Poissons Ratio (y) = 0.29214 1.94115
# Poissons Ratio (z) = 0.33972 0.17756
#
# Static dielectric constant tensor:
#      x y z
#    x 1.605170 0.000000 0.000000 
#    y 0.000000 1.619800 0.000000 
#    z 0.000000 0.000000 1.662070 
# 
# From -- ./inp_files/75329.got.cif
#   From: 2010.05.17/outbox.ucp.g08.bks.cvg/sg65_38_cif.got.tgz:75329.got - 2010.06.11 16:39:57.
