data_PCOD9494141
_publ_section_title
;
Structure prediction by ZEFSAII (Michael W. Deem and Ramdas Pophale) SiO2 
 PCOD9494141
Probable space group: C M M M
;
_chemical_formula_sum "Si O2"
_cell_formula_units_Z 72
_cell_length_a 34.706544
_cell_length_b 14.530465
_cell_length_c 8.996454
_cell_angle_alpha 90.000000
_cell_angle_beta 90.000000
_cell_angle_gamma 90.000000
_cell_volume 4536.931750
_symmetry_space_group_name_H-M "C M M M"
_symmetry_group_IT_number 65
_symmetry_cell_setting 'orthorhombic'
loop_
_space_group_symop_operation_xyz
x,y,z
-x,-y,z
x,-y,-z
-x,y,-z
-x,-y,-z
x,y,-z
-x,y,z
x,-y,z
1/2+x,1/2+y,z
1/2-x,1/2-y,z
1/2+x,1/2-y,-z
1/2-x,1/2+y,-z
1/2-x,1/2-y,-z
1/2+x,1/2+y,-z
1/2-x,1/2+y,z
1/2+x,1/2-y,z
loop_
_atom_site_type_symbol
_atom_site_label
_atom_site_fract_x
_atom_site_fract_y
_atom_site_fract_z
Si Si1 0.777184 0.889818 0.826741
Si Si2 0.154494 0.218958 0.676168
Si Si3 0.915288 0.108341 0.819718
Si Si4 0.000000 0.111622 0.828055
Si Si5 0.187575 0.606898 0.821826
O O1 0.807614 0.837424 0.726770
O O2 0.732579 0.871334 0.788851
O O3 0.782791 0.000000 0.816839
O O4 0.783239 0.863346 0.000000
O O5 0.150864 0.218744 0.500000
O O6 0.118048 0.169245 0.750339
O O7 0.160777 0.321482 0.738318
O O8 0.958191 0.137395 0.765591
O O9 0.909493 0.000000 0.783858
O O10 0.914486 0.114863 0.000000
O O11 0.000000 0.000000 0.830076
O O12 0.000000 0.142148 0.000000
O O13 0.180888 0.500000 0.783441
O O14 0.183142 0.616021 0.000000
#
# Coordination Sequence:
#
# PCOD9494141 Si02
#       5
#    16  16  16   8  16
#     4   9  18  33  51  68  88 119 159 199 235 271
#     4  12  23  30  42  69 101 128 153 185 229 280
#     4   9  17  31  51  72  95 124 157 191 225 265
#     4   7  12  26  49  73  92 115 152 193 227 260
#     4   9  19  36  54  67  82 114 162 207 241 273
#
# _framework density 15.869756000000001
#
# number of rings (size 3 to 8) (size 9 to 14) (size 15 to 20)
#    0.000    2.556    0.000    6.000    0.000    7.556 
#    0.000    2.778    0.000    2.000    0.000    0.778 
#    0.000    6.222    0.000    0.000    0.000    0.000 
#
# Total GULP energy -200769.713440 kJ/mol
# GULP energy per Si atom -5576.936484 kJ/mol
# Density = 1.583364 g / cm^3
# Si number density = 15.869756 Si / 1000 Ang^3
#
#
#
# Elastic Constant Matrix: (Units=GPa)
#
#
# Indices 1 2 3 4 5 6 
#
# 1 116.8330 79.7701 56.9381 0.0000 0.0000 0.0000
# 2 79.7701 79.6140 43.4530 0.0000 0.0000 0.0000
# 3 56.9381 43.4530 45.4352 0.0000 0.0000 0.0000
# 4 0.0000 0.0000 0.0000 -171.9463 0.0000 0.0000
# 5 0.0000 0.0000 0.0000 0.0000 -12.6131 0.0000
# 6 0.0000 0.0000 0.0000 0.0000 0.0000 20.2555
#
#
#
# Elastic Compliance Matrix: (Units=1/GPa)
#
#
# Indices 1 2 3 4 5 6 
#
# 1 0.034917 -0.023228 -0.021543 0.000000 0.000000 0.000000
# 2 -0.023228 0.041728 -0.010799 0.000000 0.000000 0.000000
# 3 -0.021543 -0.010799 0.059334 0.000000 0.000000 0.000000
# 4 0.000000 0.000000 0.000000 -0.005816 0.000000 0.000000
# 5 0.000000 0.000000 0.000000 0.000000 -0.079283 0.000000
# 6 0.000000 0.000000 0.000000 0.000000 0.000000 0.049369
#
#
# Mechanical properties :
#
#
# Convention : Reuss Voigt Hill
#
# Bulk Modulus (GPa) = 40.25780 66.91162 53.58471
# Shear Modulus (GPa) = 22.76137 -28.74603 -2.99233
#
# Velocity S-wave (km/s) = 3.79127 -4.26064 -1.37465
# Velocity P-wave (km/s) = 6.67740 4.24858 5.59634
#
# Compressibility (1/GPa) = 0.02483991
#
# Stress axis : x y z
#
# Youngs Moduli (GPa) = 28.63913 23.96466 16.85362
#
# Poissons Ratio (x) = 0.55664 0.36308
# Poissons Ratio (y) = 0.66522 0.18201
# Poissons Ratio (z) = 0.61697 0.25880
#
# Static dielectric constant tensor:
#      x y z
#    x 1.537660 0.000000 0.000000 
#    y 0.000000 1.528770 0.000000 
#    z 0.000000 0.000000 1.517240 
# 
# From -- ./inp_files/7196.got.cif
#   From: 2010.05.17/outbox.cif.g08.bks.cpg/sg65_4_cif.got.tgz:7196.got - 2010.06.03 17:01:31.
