data_PCOD9494160
_publ_section_title
;
Structure prediction by ZEFSAII (Michael W. Deem and Ramdas Pophale) SiO2 
 PCOD9494160
Probable space group: C M M M
;
_chemical_formula_sum "Si O2"
_cell_formula_units_Z 52
_cell_length_a 15.062135
_cell_length_b 12.838829
_cell_length_c 13.260903
_cell_angle_alpha 90.000000
_cell_angle_beta 90.000000
_cell_angle_gamma 90.000000
_cell_volume 2564.395751
_symmetry_space_group_name_H-M "C M M M"
_symmetry_group_IT_number 65
_symmetry_cell_setting 'orthorhombic'
loop_
_space_group_symop_operation_xyz
x,y,z
-x,-y,z
x,-y,-z
-x,y,-z
-x,-y,-z
x,y,-z
-x,y,z
x,-y,z
1/2+x,1/2+y,z
1/2-x,1/2-y,z
1/2+x,1/2-y,-z
1/2-x,1/2+y,-z
1/2-x,1/2-y,-z
1/2+x,1/2+y,-z
1/2-x,1/2+y,z
1/2+x,1/2-y,z
loop_
_atom_site_type_symbol
_atom_site_label
_atom_site_fract_x
_atom_site_fract_y
_atom_site_fract_z
Si Si1 0.606359 0.382948 0.387395
Si Si2 0.647391 0.227227 0.207220
Si Si3 0.103931 0.500000 0.176992
Si Si4 0.596974 0.325404 0.000000
Si Si5 0.750417 0.000000 0.000000
O O1 0.639013 0.354359 0.500000
O O2 0.500000 0.389198 0.393302
O O3 0.639493 0.500000 0.363174
O O4 0.625507 0.302825 0.299422
O O5 0.750000 0.250000 0.187363
O O6 0.621778 0.108911 0.233316
O O7 0.601615 0.257243 0.101492
O O8 0.000000 0.500000 0.142936
O O9 0.181800 0.500000 0.092748
O O10 0.681455 0.402732 0.000000
O O11 0.500000 0.378674 0.000000
#
# Coordination Sequence:
#
# PCOD9494160 Si02
#       5
#    16  16   8   8   4
#     4   9  20  41  69  97 125 166 220 276 337 398
#     4  12  25  43  65  95 137 176 226 277 324 402
#     4  12  25  43  66  94 136 184 222 265 335 403
#     4  12  25  43  66  97 135 173 216 278 341 385
#     4  12  24  44  62 102 128 176 220 276 320 406
#
# _framework density 20.277681999999999
#
# number of rings (size 3 to 8) (size 9 to 14) (size 15 to 20)
#    0.000    0.923    3.077    5.538    4.308    0.615 
#    0.000    0.769    0.000    2.769    0.000    0.000 
#    0.000    0.000    0.000    0.000    0.000    0.000 
#
# Total GULP energy -145118.230388 kJ/mol
# GULP energy per Si atom -5581.470400 kJ/mol
# Density = 2.023153 g / cm^3
# Si number density = 20.277682 Si / 1000 Ang^3
#
#
#
# Elastic Constant Matrix: (Units=GPa)
#
#
# Indices 1 2 3 4 5 6 
#
# 1 129.1297 34.4737 19.3314 0.0000 0.0000 0.0000
# 2 34.4737 167.0348 102.9899 0.0000 0.0000 0.0000
# 3 19.3314 102.9899 152.1110 0.0000 0.0000 0.0000
# 4 0.0000 0.0000 0.0000 220.4345 0.0000 0.0000
# 5 0.0000 0.0000 0.0000 0.0000 8.9169 0.0000
# 6 0.0000 0.0000 0.0000 0.0000 0.0000 33.5033
#
#
#
# Elastic Compliance Matrix: (Units=1/GPa)
#
#
# Indices 1 2 3 4 5 6 
#
# 1 0.008199 -0.001802 0.000178 0.000000 0.000000 0.000000
# 2 -0.001802 0.010673 -0.006997 0.000000 0.000000 0.000000
# 3 0.000178 -0.006997 0.011289 0.000000 0.000000 0.000000
# 4 0.000000 0.000000 0.000000 0.004536 0.000000 0.000000
# 5 0.000000 0.000000 0.000000 0.000000 0.112147 0.000000
# 6 0.000000 0.000000 0.000000 0.000000 0.000000 0.029848
#
#
# Mechanical properties :
#
#
# Convention : Reuss Voigt Hill
#
# Bulk Modulus (GPa) = 77.40878 84.65170 81.03024
# Shear Modulus (GPa) = 25.22186 72.00299 48.61242
#
# Velocity S-wave (km/s) = 3.53061 5.96536 4.90157
# Velocity P-wave (km/s) = 7.40794 9.44904 8.49005
#
# Compressibility (1/GPa) = 0.01291843
#
# Stress axis : x y z
#
# Youngs Moduli (GPa) = 121.97301 93.69317 88.57939
#
# Poissons Ratio (x) = 0.16882 -0.01577
# Poissons Ratio (y) = 0.21978 0.61983
# Poissons Ratio (z) = -0.02172 0.65562
#
# Static dielectric constant tensor:
#      x y z
#    x 1.758800 0.000000 0.000000 
#    y 0.000000 1.752640 0.000000 
#    z 0.000000 0.000000 1.762150 
# 
# From -- ./inp_files/39318.got.cif
#   From: 2010.05.17/outbox.cif.g08.bks.cpg/sg65_20_cif.got.tgz:39318.got - 2010.06.03 17:01:31.
