data_PCOD9494382
_publ_section_title
;
Structure prediction by ZEFSAII (Michael W. Deem and Ramdas Pophale) SiO2 
 PCOD9494382
Probable space group: C M M M
;
_chemical_formula_sum "Si O2"
_cell_formula_units_Z 104
_cell_length_a 28.277666
_cell_length_b 7.666100
_cell_length_c 26.111360
_cell_angle_alpha 90.000000
_cell_angle_beta 90.000000
_cell_angle_gamma 90.000000
_cell_volume 5660.405354
_symmetry_space_group_name_H-M "C M M M"
_symmetry_group_IT_number 65
_symmetry_cell_setting 'orthorhombic'
loop_
_space_group_symop_operation_xyz
x,y,z
-x,-y,z
x,-y,-z
-x,y,-z
-x,-y,-z
x,y,-z
-x,y,z
x,-y,z
1/2+x,1/2+y,z
1/2-x,1/2-y,z
1/2+x,1/2-y,-z
1/2-x,1/2+y,-z
1/2-x,1/2-y,-z
1/2+x,1/2+y,-z
1/2-x,1/2+y,z
1/2+x,1/2-y,z
loop_
_atom_site_type_symbol
_atom_site_label
_atom_site_fract_x
_atom_site_fract_y
_atom_site_fract_z
Si Si1 0.554285 0.292334 0.667426
Si Si2 0.806241 0.790436 0.944556
Si Si3 0.610677 0.711607 0.235241
Si Si4 0.057733 0.500000 0.057815
Si Si5 0.055152 0.709978 0.444892
Si Si6 0.556861 0.303197 0.132420
Si Si7 0.194935 0.790258 0.168474
O O1 0.500000 0.222478 0.670199
O O2 0.550534 0.500000 0.675168
O O3 0.588138 0.222053 0.712079
O O4 0.574198 0.265450 0.610175
O O5 0.750000 0.750000 0.945006
O O6 0.821276 0.725498 0.888095
O O7 0.812351 0.000000 0.944544
O O8 0.824836 0.725508 0.000000
O O9 0.613701 0.500000 0.239983
O O10 0.575415 0.748351 0.188147
O O11 0.661213 0.774504 0.214020
O O12 0.072213 0.670668 0.088865
O O13 0.000000 0.500000 0.057216
O O14 0.073997 0.500000 0.000000
O O15 0.075399 0.769223 0.500000
O O16 0.055697 0.500000 0.445271
O O17 0.000000 0.766361 0.444455
O O18 0.500000 0.304291 0.133713
O O19 0.573580 0.500000 0.121702
O O20 0.250000 0.750000 0.175688
O O21 0.190553 0.000000 0.167143
#
# Coordination Sequence:
#
# PCOD9494382 Si02
#       7
#    16  16  16   8  16  16  16
#     4   9  16  26  42  64  89 118 153 189 219 253
#     4   8  13  22  38  57  74  94 122 158 202 254
#     4   9  17  30  46  64  89 119 149 186 228 272
#     4   9  18  32  48  68  94 120 153 197 235 275
#     4   8  14  25  39  57  87 123 152 179 213 253
#     4   9  17  31  50  69  91 122 154 187 235 286
#     4   9  17  30  45  62  85 112 143 179 225 275
#
# _framework density 18.373242000000001
#
# number of rings (size 3 to 8) (size 9 to 14) (size 15 to 20)
#    0.000    3.308    0.000    0.923    0.000    2.462 
#    2.769    3.846    0.000    2.769    0.000    0.000 
#    0.000    0.615    0.000    1.385    0.000    2.462 
#
# Total GULP energy -289639.233824 kJ/mol
# GULP energy per Si atom -5569.985266 kJ/mol
# Density = 1.833142 g / cm^3
# Si number density = 18.373242 Si / 1000 Ang^3
#
#
#
# Elastic Constant Matrix: (Units=GPa)
#
#
# Indices 1 2 3 4 5 6 
#
# 1 71.8164 11.2105 59.3285 0.0000 0.0000 0.0000
# 2 11.2105 40.7587 28.8967 0.0000 0.0000 0.0000
# 3 59.3285 28.8967 203.4668 0.0000 0.0000 0.0000
# 4 0.0000 0.0000 0.0000 17.8732 0.0000 0.0000
# 5 0.0000 0.0000 0.0000 0.0000 -40.3465 0.0000
# 6 0.0000 0.0000 0.0000 0.0000 0.0000 0.1253
#
#
#
# Elastic Compliance Matrix: (Units=1/GPa)
#
#
# Indices 1 2 3 4 5 6 
#
# 1 0.018414 -0.001399 -0.005171 0.000000 0.000000 0.000000
# 2 -0.001399 0.027388 -0.003482 0.000000 0.000000 0.000000
# 3 -0.005171 -0.003482 0.006917 0.000000 0.000000 0.000000
# 4 0.000000 0.000000 0.000000 0.055950 0.000000 0.000000
# 5 0.000000 0.000000 0.000000 0.000000 -0.024785 0.000000
# 6 0.000000 0.000000 0.000000 0.000000 0.000000 7.979618
#
#
# Mechanical properties :
#
#
# Convention : Reuss Voigt Hill
#
# Bulk Modulus (GPa) = 30.65935 57.21259 43.93597
# Shear Modulus (GPa) = 0.61771 9.97082 5.29426
#
# Velocity S-wave (km/s) = 0.58046 2.33208 1.69934
# Velocity P-wave (km/s) = 4.14396 6.20146 5.27402
#
# Compressibility (1/GPa) = 0.03261648
#
# Stress axis : x y z
#
# Youngs Moduli (GPa) = 54.30534 36.51252 144.57090
#
# Poissons Ratio (x) = 0.05108 0.74754
# Poissons Ratio (y) = 0.07597 0.50336
# Poissons Ratio (z) = 0.28080 0.12713
#
# Static dielectric constant tensor:
#      x y z
#    x 1.647760 0.000000 0.000000 
#    y 0.000000 1.661050 0.000000 
#    z 0.000000 0.000000 1.667650 
# 
# From -- ./inp_files/71822.got.cif
#   From: 2010.05.17/outbox.cif.g08.bks.cpg/sg65_36_cif.got.tgz:71822.got - 2010.06.03 17:01:31.
