data_PCOD9494704
_publ_section_title
;
Structure prediction by ZEFSAII (Michael W. Deem and Ramdas Pophale) SiO2 
 PCOD9494704
Probable space group: C M M M
;
_chemical_formula_sum "Si O2"
_cell_formula_units_Z 44
_cell_length_a 9.000000
_cell_length_b 27.000000
_cell_length_c 21.000000
_cell_angle_alpha 90.000000
_cell_angle_beta 90.000000
_cell_angle_gamma 90.000000
_cell_volume 5103.000000
_symmetry_space_group_name_H-M "C M M M"
_symmetry_group_IT_number 65
_symmetry_cell_setting 'orthorhombic'
loop_
_space_group_symop_operation_xyz
x,y,z
-x,-y,z
x,-y,-z
-x,y,-z
-x,-y,-z
x,y,-z
-x,y,z
x,-y,z
1/2+x,1/2+y,z
1/2-x,1/2-y,z
1/2+x,1/2-y,-z
1/2-x,1/2+y,-z
1/2-x,1/2-y,-z
1/2+x,1/2+y,-z
1/2-x,1/2+y,z
1/2+x,1/2-y,z
loop_
_atom_site_type_symbol
_atom_site_label
_atom_site_fract_x
_atom_site_fract_y
_atom_site_fract_z
Si Si1 0.322423 0.555422 0.070891
Si Si2 0.330364 0.796326 0.252517
Si Si3 0.178033 0.444432 0.685817
Si Si4 0.321676 0.303242 0.500000
Si Si5 0.669172 0.099762 0.817323
Si Si6 0.823135 0.848771 0.632325
O O1 0.500000 0.554538 0.069253
O O2 0.271469 0.500000 0.089056
O O3 0.268469 0.593704 0.121919
O O4 0.267697 0.565920 0.000000
O O5 0.500000 0.784113 0.267396
O O6 0.250000 0.750000 0.221612
O O7 0.327327 0.845081 0.209773
O O8 0.245581 0.811344 0.316568
O O9 0.210809 0.500000 0.665898
O O10 0.219404 0.435435 0.759540
O O11 0.261207 0.402921 0.646731
O O12 0.000000 0.435941 0.682345
O O13 0.500000 0.298463 0.500000
O O14 0.250000 0.250000 0.500000
O O15 0.277099 0.332166 0.562784
O O16 0.500000 0.086482 0.833266
O O17 0.000000 0.848289 0.638115
#
# Coordination Sequence:
#
# PCOD9494704 Si02
#       6
#    16  16  16   8  16  16
#     4   9  18  31  46  68  99 130 159 193 232 276
#     4  10  20  34  51  73  99 125 157 199 244 287
#     4   9  18  33  51  72 100 130 161 200 242 283
#     4  10  22  36  51  72  97 125 158 199 243 288
#     4   9  18  31  48  71  97 124 156 196 238 280
#     4  10  20  34  51  73  99 127 161 198 240 289
#
# _framework density 8.6223790000000005
#
# number of rings (size 3 to 8) (size 9 to 14) (size 15 to 20)
#    0.000    2.545    0.000    3.818    0.000    8.364 
#    0.000    1.364    0.000    3.273    0.000    0.000 
#    0.000    0.000    0.000    0.000    0.000    0.000 
#
# Total GULP energy -245136.044620 kJ/mol
# GULP energy per Si atom -5571.273741 kJ/mol
# Density = 0.860275 g / cm^3
# Si number density = 8.622379 Si / 1000 Ang^3
#
#
#
# Elastic Constant Matrix: (Units=GPa)
#
#
# Indices 1 2 3 4 5 6 
#
# 1 22.4852 41.0134 35.9310 0.0000 0.0000 0.0000
# 2 41.0134 54.8612 34.1278 0.0000 0.0000 0.0000
# 3 35.9310 34.1278 65.7717 0.0000 0.0000 0.0000
# 4 0.0000 0.0000 0.0000 -163.6965 0.0000 0.0000
# 5 0.0000 0.0000 0.0000 0.0000 28.4531 0.0000
# 6 0.0000 0.0000 0.0000 0.0000 0.0000 23.5653
#
#
#
# Elastic Compliance Matrix: (Units=1/GPa)
#
#
# Indices 1 2 3 4 5 6 
#
# 1 -0.094231 0.056735 0.022039 0.000000 0.000000 0.000000
# 2 0.056735 -0.007244 -0.027236 0.000000 0.000000 0.000000
# 3 0.022039 -0.027236 0.017296 0.000000 0.000000 0.000000
# 4 0.000000 0.000000 0.000000 -0.006109 0.000000 0.000000
# 5 0.000000 0.000000 0.000000 0.000000 0.035146 0.000000
# 6 0.000000 0.000000 0.000000 0.000000 0.000000 0.042435
#
#
# Mechanical properties :
#
#
# Convention : Reuss Voigt Hill
#
# Bulk Modulus (GPa) = 52.91223 40.58473 46.74848
# Shear Modulus (GPa) = -45.66855 -20.19922 -32.93388
#
# Velocity S-wave (km/s) = -5.15170 -3.42618 -4.37486
# Velocity P-wave (km/s) = 2.15338 2.81674 1.28394
#
# Compressibility (1/GPa) = 0.01889922
#
# Stress axis : x y z
#
# Youngs Moduli (GPa) = -10.61225 -138.04537 57.81605
#
# Poissons Ratio (x) = 7.83205 -1.27422
# Poissons Ratio (y) = 0.60209 1.57466
# Poissons Ratio (z) = 0.23389 -3.75976
#
# Static dielectric constant tensor:
#      x y z
#    x 1.590540 0.000000 0.000000 
#    y 0.000000 1.570580 0.000000 
#    z 0.000000 0.000000 1.564840 
# 
# From -- ./inp_files/60201.got.cif
#   From: 2010.05.17/outbox.ucp.g08.bks.cvg/sg65_31_cif.got.tgz:60201.got - 2010.06.11 16:39:57.
