data_PCOD9494290
_publ_section_title
;
Structure prediction by ZEFSAII (Michael W. Deem and Ramdas Pophale) SiO2 
 PCOD9494290
Probable space group: C M M M
;
_chemical_formula_sum "Si O2"
_cell_formula_units_Z 96
_cell_length_a 28.504051
_cell_length_b 7.343906
_cell_length_c 24.961767
_cell_angle_alpha 90.000000
_cell_angle_beta 90.000000
_cell_angle_gamma 90.000000
_cell_volume 5225.273424
_symmetry_space_group_name_H-M "C M M M"
_symmetry_group_IT_number 65
_symmetry_cell_setting 'orthorhombic'
loop_
_space_group_symop_operation_xyz
x,y,z
-x,-y,z
x,-y,-z
-x,y,-z
-x,-y,-z
x,y,-z
-x,y,z
x,-y,z
1/2+x,1/2+y,z
1/2-x,1/2-y,z
1/2+x,1/2-y,-z
1/2-x,1/2+y,-z
1/2-x,1/2-y,-z
1/2+x,1/2+y,-z
1/2-x,1/2+y,z
1/2+x,1/2-y,z
loop_
_atom_site_type_symbol
_atom_site_label
_atom_site_fract_x
_atom_site_fract_y
_atom_site_fract_z
Si Si1 0.554259 0.278234 0.439908
Si Si2 0.605916 0.721951 0.334267
Si Si3 0.144959 0.222439 0.834015
Si Si4 0.052884 0.221470 0.773606
Si Si5 0.695814 0.283389 0.727012
Si Si6 0.804948 0.782522 0.059944
O O1 0.567863 0.220808 0.500000
O O2 0.500000 0.225548 0.430730
O O3 0.554938 0.500000 0.439706
O O4 0.586823 0.215671 0.391381
O O5 0.605802 0.500000 0.335855
O O6 0.571456 0.773851 0.285397
O O7 0.657816 0.782576 0.316353
O O8 0.092743 0.277520 0.815956
O O9 0.179571 0.281761 0.785846
O O10 0.163431 0.286356 0.891323
O O11 0.145555 0.000000 0.834983
O O12 0.000000 0.283635 0.783570
O O13 0.052365 0.000000 0.774155
O O14 0.689816 0.500000 0.728721
O O15 0.750000 0.250000 0.715761
O O16 0.750000 0.750000 0.071545
O O17 0.811349 0.000000 0.057985
O O18 0.814762 0.711511 0.000000
#
# Coordination Sequence:
#
# PCOD9494290 Si02
#       6
#    16  16  16  16  16  16
#     4   8  12  17  27  45  69  94 115 137 171 213
#     4   8  13  20  30  46  68  92 116 142 173 206
#     4   8  14  23  34  50  71  93 116 142 174 208
#     4   8  12  18  30  47  67  91 115 139 169 207
#     4   9  16  25  37  52  71  94 118 145 174 204
#     4   9  16  25  37  52  71  94 117 143 175 208
#
# _framework density 18.372243999999998
#
# number of rings (size 3 to 8) (size 9 to 14) (size 15 to 20)
#    0.000    3.667    0.000    3.500    0.000    2.000 
#    0.000    0.000    0.000    1.000    0.000    3.500 
#    0.000   22.667    0.000    6.000    0.000    6.000 
#
# Total GULP energy -267509.262992 kJ/mol
# GULP energy per Si atom -5573.109646 kJ/mol
# Density = 1.833043 g / cm^3
# Si number density = 18.372244 Si / 1000 Ang^3
#
#
#
# Elastic Constant Matrix: (Units=GPa)
#
#
# Indices 1 2 3 4 5 6 
#
# 1 163.9873 1.5702 121.5835 0.0000 0.0000 0.0000
# 2 1.5702 68.3764 8.2276 0.0000 0.0000 0.0000
# 3 121.5835 8.2276 188.1802 0.0000 0.0000 0.0000
# 4 0.0000 0.0000 0.0000 -12.3552 0.0000 0.0000
# 5 0.0000 0.0000 0.0000 0.0000 30.6001 0.0000
# 6 0.0000 0.0000 0.0000 0.0000 0.0000 6.8277
#
#
#
# Elastic Compliance Matrix: (Units=1/GPa)
#
#
# Indices 1 2 3 4 5 6 
#
# 1 0.011734 0.000646 -0.007609 0.000000 0.000000 0.000000
# 2 0.000646 0.014738 -0.001062 0.000000 0.000000 0.000000
# 3 -0.007609 -0.001062 0.010277 0.000000 0.000000 0.000000
# 4 0.000000 0.000000 0.000000 -0.080938 0.000000 0.000000
# 5 0.000000 0.000000 0.000000 0.000000 0.032680 0.000000
# 6 0.000000 0.000000 0.000000 0.000000 0.000000 0.146462
#
#
# Mechanical properties :
#
#
# Convention : Reuss Voigt Hill
#
# Bulk Modulus (GPa) = 48.31322 75.92295 62.11808
# Shear Modulus (GPa) = 31.66537 24.29204 27.97870
#
# Velocity S-wave (km/s) = 4.15606 3.64017 3.90664
# Velocity P-wave (km/s) = 7.02740 7.68650 7.36433
#
# Compressibility (1/GPa) = 0.02069827
#
# Stress axis : x y z
#
# Youngs Moduli (GPa) = 85.22578 67.85243 97.30595
#
# Poissons Ratio (x) = -0.04384 0.74043
# Poissons Ratio (y) = -0.05507 0.10332
# Poissons Ratio (z) = 0.64851 0.07205
#
# Static dielectric constant tensor:
#      x y z
#    x 1.618980 0.000000 0.000000 
#    y 0.000000 0.638970 0.000000 
#    z 0.000000 0.000000 1.626800 
# 
# From -- ./inp_files/71537.got.cif
#   From: 2010.05.17/outbox.cif.g08.bks.cpg/sg65_36_cif.got.tgz:71537.got - 2010.06.03 17:01:31.
