data_PCOD9494886
_publ_section_title
;
Structure prediction by ZEFSAII (Michael W. Deem and Ramdas Pophale) SiO2 
 PCOD9494886
Probable space group: C C C M
;
_chemical_formula_sum "Si O2"
_cell_formula_units_Z 56
_cell_length_a 33.757998
_cell_length_b 13.886303
_cell_length_c 5.451169
_cell_angle_alpha 90.000000
_cell_angle_beta 90.000000
_cell_angle_gamma 90.000000
_cell_volume 2555.365146
_symmetry_space_group_name_H-M "C C C M"
_symmetry_group_IT_number 66
_symmetry_cell_setting 'orthorhombic'
loop_
_space_group_symop_operation_xyz
x,y,z
-x,-y,z
x,-y,1/2-z
-x,y,1/2-z
-x,-y,-z
x,y,-z
-x,y,1/2+z
x,-y,1/2+z
1/2+x,1/2+y,z
1/2-x,1/2-y,z
1/2+x,1/2-y,1/2-z
1/2-x,1/2+y,1/2-z
1/2-x,1/2-y,-z
1/2+x,1/2+y,-z
1/2-x,1/2+y,1/2+z
1/2+x,1/2-y,1/2+z
loop_
_atom_site_type_symbol
_atom_site_label
_atom_site_fract_x
_atom_site_fract_y
_atom_site_fract_z
Si Si1 0.016075 0.356711 0.000000
Si Si2 0.722726 0.117202 0.000000
Si Si3 0.809747 0.606504 0.000000
Si Si4 0.098077 0.561387 0.500000
Si Si5 0.190205 0.936451 0.000000
Si Si6 0.517805 0.358387 0.000000
Si Si7 0.397410 0.563570 0.000000
O O1 0.063491 0.359522 0.000000
O O2 0.000000 0.401314 0.750000
O O3 0.997327 0.250844 0.000000
O O4 0.704842 0.155823 0.748227
O O5 0.769889 0.124861 0.000000
O O6 0.709345 0.002450 0.000000
O O7 0.856941 0.598047 0.000000
O O8 0.093215 0.500000 0.750000
O O9 0.146481 0.890209 0.000000
O O10 0.192328 0.000000 0.750000
O O11 0.500000 0.400255 0.250000
O O12 0.565006 0.366794 0.000000
O O13 0.400081 0.500000 0.750000
#
# Coordination Sequence:
#
# PCOD9494886 Si02
#       7
#     8   8   8   8   8   8   8
#     4  10  23  40  54  72  98 140 186 216 265 318
#     4  10  14  25  41  61  99 147 159 184 254 307
#     4  10  16  25  41  67  97 141 162 198 250 300
#     4  12  21  32  51  77 108 135 177 226 264 297
#     4  10  16  25  41  66 104 140 161 195 243 299
#     4  10  21  39  58  71 101 140 181 215 261 323
#     4  10  21  32  50  84 110 133 171 220 263 299
#
# _framework density 21.914674999999999
#
# number of rings (size 3 to 8) (size 9 to 14) (size 15 to 20)
#    0.000    1.714    5.714    1.714    0.000    3.429 
#    0.000    0.000    0.000    0.000    0.000    0.000 
#    0.000   27.429    0.000    0.000    0.000    0.000 
#
# Total GULP energy -156263.058992 kJ/mol
# GULP energy per Si atom -5580.823535 kJ/mol
# Density = 2.186480 g / cm^3
# Si number density = 21.914675 Si / 1000 Ang^3
#
#
#
# Elastic Constant Matrix: (Units=GPa)
#
#
# Indices 1 2 3 4 5 6 
#
# 1 251.9655 43.9045 56.1205 0.0000 0.0000 0.0000
# 2 43.9045 63.1774 18.3123 0.0000 0.0000 0.0000
# 3 56.1205 18.3123 234.4539 0.0000 0.0000 0.0000
# 4 0.0000 0.0000 0.0000 -16.4817 0.0000 0.0000
# 5 0.0000 0.0000 0.0000 0.0000 22.0692 0.0000
# 6 0.0000 0.0000 0.0000 0.0000 0.0000 -25.7453
#
#
#
# Elastic Compliance Matrix: (Units=1/GPa)
#
#
# Indices 1 2 3 4 5 6 
#
# 1 0.004690 -0.003002 -0.000888 0.000000 0.000000 0.000000
# 2 -0.003002 0.018116 -0.000697 0.000000 0.000000 0.000000
# 3 -0.000888 -0.000697 0.004532 0.000000 0.000000 0.000000
# 4 0.000000 0.000000 0.000000 -0.060673 0.000000 0.000000
# 5 0.000000 0.000000 0.000000 0.000000 0.045312 0.000000
# 6 0.000000 0.000000 0.000000 0.000000 0.000000 -0.038842
#
#
# Mechanical properties :
#
#
# Convention : Reuss Voigt Hill
#
# Bulk Modulus (GPa) = 55.04883 87.36348 71.20615
# Shear Modulus (GPa) = -429.64166 24.71907 -202.46130
#
# Velocity S-wave (km/s) = -14.01705 3.36217 -9.62220
# Velocity P-wave (km/s) = 15.38818 7.41782 9.53341
#
# Compressibility (1/GPa) = 0.01816569
#
# Stress axis : x y z
#
# Youngs Moduli (GPa) = 213.23674 55.19909 220.64272
#
# Poissons Ratio (x) = 0.16568 0.19595
# Poissons Ratio (y) = 0.64005 0.15368
# Poissons Ratio (z) = 0.18937 0.03845
#
# Static dielectric constant tensor:
#      x y z
#    x 1.768180 0.000000 0.000000 
#    y 0.000000 1.771740 0.000000 
#    z 0.000000 0.000000 1.836770 
# 
# From -- ./inp_files/1698.got.cif
#   From: 2010.05.17/outbox.cif.g08.bks.cpg/sg66_1_cif.got.tgz:1698.got - 2010.06.03 17:51:23.
