data_PCOD9494153
_publ_section_title
;
Structure prediction by ZEFSAII (Michael W. Deem and Ramdas Pophale) SiO2 
 PCOD9494153
Probable space group: C M M M
;
_chemical_formula_sum "Si O2"
_cell_formula_units_Z 72
_cell_length_a 8.803446
_cell_length_b 29.396335
_cell_length_c 14.980736
_cell_angle_alpha 90.000000
_cell_angle_beta 90.000000
_cell_angle_gamma 90.000000
_cell_volume 3876.850404
_symmetry_space_group_name_H-M "C M M M"
_symmetry_group_IT_number 65
_symmetry_cell_setting 'orthorhombic'
loop_
_space_group_symop_operation_xyz
x,y,z
-x,-y,z
x,-y,-z
-x,y,-z
-x,-y,-z
x,y,-z
-x,y,z
x,-y,z
1/2+x,1/2+y,z
1/2-x,1/2-y,z
1/2+x,1/2-y,-z
1/2-x,1/2+y,-z
1/2-x,1/2-y,-z
1/2+x,1/2+y,-z
1/2-x,1/2+y,z
1/2+x,1/2-y,z
loop_
_atom_site_type_symbol
_atom_site_label
_atom_site_fract_x
_atom_site_fract_y
_atom_site_fract_z
Si Si1 0.682196 0.699084 0.000000
Si Si2 0.318529 0.700613 0.500000
Si Si3 0.683216 0.627453 0.646001
Si Si4 0.323345 0.860735 0.840670
Si Si5 0.170243 0.949274 0.106715
Si Si6 0.815087 0.052915 0.500000
O O1 0.750000 0.750000 0.000000
O O2 0.738875 0.671699 0.912044
O O3 0.500000 0.700513 0.000000
O O4 0.500000 0.704094 0.500000
O O5 0.250000 0.750000 0.500000
O O6 0.275270 0.670359 0.415267
O O7 0.500000 0.625261 0.654466
O O8 0.755399 0.637133 0.741511
O O9 0.729349 0.582418 0.588333
O O10 0.500000 0.848698 0.840168
O O11 0.294845 0.912365 0.871956
O O12 0.000000 0.935169 0.138225
O O13 0.200202 0.000000 0.141692
O O14 0.161659 0.951936 0.000000
O O15 0.000000 0.052718 0.500000
O O16 0.765113 0.000000 0.500000
#
# Coordination Sequence:
#
# PCOD9494153 Si02
#       6
#     8   8  16  16  16   8
#     4  12  26  46  67  86 113 152 200 251 303 357
#     4   9  19  36  59  83 109 142 184 235 290 342
#     4   9  19  36  57  84 116 151 192 240 291 344
#     4  12  24  38  58  88 123 158 196 241 296 352
#     4   9  18  34  57  82 109 149 197 238 281 332
#     4   8  15  32  60  89 115 150 199 247 290 345
#
# _framework density 18.571776
#
# number of rings (size 3 to 8) (size 9 to 14) (size 15 to 20)
#    0.000    2.111    1.111    5.000    0.000    3.111 
#    0.000    7.222    0.000    0.667    0.000    0.000 
#    0.000    0.000    0.000    0.000    0.000    0.000 
#
# Total GULP energy -200692.497205 kJ/mol
# GULP energy per Si atom -5574.791589 kJ/mol
# Density = 1.852951 g / cm^3
# Si number density = 18.571776 Si / 1000 Ang^3
#
#
#
# Elastic Constant Matrix: (Units=GPa)
#
#
# Indices 1 2 3 4 5 6 
#
# 1 80.5276 47.2996 56.9883 0.0000 0.0000 0.0000
# 2 47.2996 146.6575 76.4335 0.0000 0.0000 0.0000
# 3 56.9883 76.4335 149.8009 0.0000 0.0000 0.0000
# 4 0.0000 0.0000 0.0000 -4.8695 0.0000 0.0000
# 5 0.0000 0.0000 0.0000 0.0000 6.1008 0.0000
# 6 0.0000 0.0000 0.0000 0.0000 0.0000 30.0785
#
#
#
# Elastic Compliance Matrix: (Units=1/GPa)
#
#
# Indices 1 2 3 4 5 6 
#
# 1 0.017933 -0.003035 -0.005273 0.000000 0.000000 0.000000
# 2 -0.003035 0.009802 -0.003847 0.000000 0.000000 0.000000
# 3 -0.005273 -0.003847 0.010644 0.000000 0.000000 0.000000
# 4 0.000000 0.000000 0.000000 -0.205360 0.000000 0.000000
# 5 0.000000 0.000000 0.000000 0.000000 0.163913 0.000000
# 6 0.000000 0.000000 0.000000 0.000000 0.000000 0.033246
#
#
# Mechanical properties :
#
#
# Convention : Reuss Voigt Hill
#
# Bulk Modulus (GPa) = 71.08009 82.04764 76.56386
# Shear Modulus (GPa) = 84.48916 19.34628 51.91772
#
# Velocity S-wave (km/s) = 6.75219 3.23104 5.29300
# Velocity P-wave (km/s) = 9.95719 7.62851 8.86961
#
# Compressibility (1/GPa) = 0.01406864
#
# Stress axis : x y z
#
# Youngs Moduli (GPa) = 55.76346 102.01606 93.94572
#
# Poissons Ratio (x) = 0.30965 0.49542
# Poissons Ratio (y) = 0.16926 0.36139
# Poissons Ratio (z) = 0.29406 0.39243
#
# Static dielectric constant tensor:
#      x y z
#    x 1.644300 0.000000 0.000000 
#    y 0.000000 1.666790 0.000000 
#    z 0.000000 0.000000 1.609290 
# 
# From -- ./inp_files/36641.got.cif
#   From: 2010.05.17/outbox.cif.g08.bks.cpg/sg65_19_cif.got.tgz:36641.got - 2010.06.03 17:01:31.
