data_PCOD9494266
_publ_section_title
;
Structure prediction by ZEFSAII (Michael W. Deem and Ramdas Pophale) SiO2 
 PCOD9494266
Probable space group: C M M M
;
_chemical_formula_sum "Si O2"
_cell_formula_units_Z 64
_cell_length_a 9.970239
_cell_length_b 43.601686
_cell_length_c 7.412341
_cell_angle_alpha 90.000000
_cell_angle_beta 90.000000
_cell_angle_gamma 90.000000
_cell_volume 3222.287174
_symmetry_space_group_name_H-M "C M M M"
_symmetry_group_IT_number 65
_symmetry_cell_setting 'orthorhombic'
loop_
_space_group_symop_operation_xyz
x,y,z
-x,-y,z
x,-y,-z
-x,y,-z
-x,-y,-z
x,y,-z
-x,y,z
x,-y,z
1/2+x,1/2+y,z
1/2-x,1/2-y,z
1/2+x,1/2-y,-z
1/2-x,1/2+y,-z
1/2-x,1/2-y,-z
1/2+x,1/2+y,-z
1/2-x,1/2+y,z
1/2+x,1/2-y,z
loop_
_atom_site_type_symbol
_atom_site_label
_atom_site_fract_x
_atom_site_fract_y
_atom_site_fract_z
Si Si1 0.655817 0.600075 0.779213
Si Si2 0.347704 0.776369 0.284319
Si Si3 0.652842 0.845656 0.215838
Si Si4 0.839472 0.032958 0.782877
O O1 0.500000 0.603709 0.725652
O O2 0.748476 0.627915 0.717110
O O3 0.707539 0.566377 0.720056
O O4 0.656040 0.599919 0.000000
O O5 0.355111 0.772584 0.500000
O O6 0.500000 0.774020 0.213436
O O7 0.250000 0.750000 0.213812
O O8 0.299238 0.811033 0.251427
O O9 0.500000 0.848301 0.285326
O O10 0.646548 0.849099 0.000000
O O11 0.000000 0.033067 0.750239
O O12 0.786939 0.000000 0.714987
O O13 0.822088 0.032632 0.000000
#
# Coordination Sequence:
#
# PCOD9494266 Si02
#       4
#    16  16  16  16
#     4   8  13  21  34  53  76 102 132 162 190 223
#     4   9  18  32  47  61  78 101 128 157 190 228
#     4   9  17  28  41  58  81 106 128 153 190 232
#     4   7   9  14  26  45  69  97 128 159 188 219
#
# _framework density 19.861668000000002
#
# number of rings (size 3 to 8) (size 9 to 14) (size 15 to 20)
#    0.000    3.750    0.000    2.250    0.000    1.500 
#    0.000    0.000    0.000    0.750    0.000    5.250 
#    0.000    1.000    0.000   12.500    0.000   11.500 
#
# Total GULP energy -178170.048982 kJ/mol
# GULP energy per Si atom -5567.814031 kJ/mol
# Density = 1.981646 g / cm^3
# Si number density = 19.861668 Si / 1000 Ang^3
#
#
#
# Elastic Constant Matrix: (Units=GPa)
#
#
# Indices 1 2 3 4 5 6 
#
# 1 58.5205 102.0492 3.6610 0.0000 0.0000 0.0000
# 2 102.0492 260.4672 1.8738 0.0000 0.0000 0.0000
# 3 3.6610 1.8738 62.9658 0.0000 0.0000 0.0000
# 4 0.0000 0.0000 0.0000 42.5687 0.0000 0.0000
# 5 0.0000 0.0000 0.0000 0.0000 -8.1665 0.0000
# 6 0.0000 0.0000 0.0000 0.0000 0.0000 22.9082
#
#
#
# Elastic Compliance Matrix: (Units=1/GPa)
#
#
# Indices 1 2 3 4 5 6 
#
# 1 0.054341 -0.021272 -0.002527 0.000000 0.000000 0.000000
# 2 -0.021272 0.012167 0.000875 0.000000 0.000000 0.000000
# 3 -0.002527 0.000875 0.016003 0.000000 0.000000 0.000000
# 4 0.000000 0.000000 0.000000 0.023491 0.000000 0.000000
# 5 0.000000 0.000000 0.000000 0.000000 -0.122451 0.000000
# 6 0.000000 0.000000 0.000000 0.000000 0.000000 0.043653
#
#
# Mechanical properties :
#
#
# Convention : Reuss Voigt Hill
#
# Bulk Modulus (GPa) = 27.27563 66.34682 46.81123
# Shear Modulus (GPa) = 58.63574 29.75338 44.19456
#
# Velocity S-wave (km/s) = 5.43932 3.87464 4.72223
# Velocity P-wave (km/s) = 7.29457 7.31396 7.30428
#
# Compressibility (1/GPa) = 0.03666277
#
# Stress axis : x y z
#
# Youngs Moduli (GPa) = 18.40233 82.18775 62.49017
#
# Poissons Ratio (x) = 1.74832 0.15788
# Poissons Ratio (y) = 0.39146 -0.05466
# Poissons Ratio (z) = 0.04649 -0.07189
#
# Static dielectric constant tensor:
#      x y z
#    x 1.671840 0.000000 0.000000 
#    y 0.000000 1.729020 0.000000 
#    z 0.000000 0.000000 1.759240 
# 
# From -- ./inp_files/22372.got.cif
#   From: 2010.05.17/outbox.cif.g08.bks.cpg/sg65_12_cif.got.tgz:22372.got - 2010.06.03 17:01:31.
