data_PCOD9494192
_publ_section_title
;
Structure prediction by ZEFSAII (Michael W. Deem and Ramdas Pophale) SiO2 
 PCOD9494192
Probable space group: C M M M
;
_chemical_formula_sum "Si O2"
_cell_formula_units_Z 96
_cell_length_a 7.335055
_cell_length_b 29.089377
_cell_length_c 25.172001
_cell_angle_alpha 90.000000
_cell_angle_beta 90.000000
_cell_angle_gamma 90.000000
_cell_volume 5371.004734
_symmetry_space_group_name_H-M "C M M M"
_symmetry_group_IT_number 65
_symmetry_cell_setting 'orthorhombic'
loop_
_space_group_symop_operation_xyz
x,y,z
-x,-y,z
x,-y,-z
-x,y,-z
-x,-y,-z
x,y,-z
-x,y,z
x,-y,z
1/2+x,1/2+y,z
1/2-x,1/2-y,z
1/2+x,1/2-y,-z
1/2-x,1/2+y,-z
1/2-x,1/2-y,-z
1/2+x,1/2+y,-z
1/2-x,1/2+y,z
1/2+x,1/2-y,z
loop_
_atom_site_type_symbol
_atom_site_label
_atom_site_fract_x
_atom_site_fract_y
_atom_site_fract_z
Si Si1 0.277300 0.552234 0.383504
Si Si2 0.282618 0.304630 0.441703
Si Si3 0.217581 0.195036 0.114488
Si Si4 0.722733 0.644413 0.335367
Si Si5 0.717966 0.695420 0.230258
Si Si6 0.292569 0.444002 0.500000
Si Si7 0.217943 0.805103 0.000000
O O1 0.500000 0.551292 0.386283
O O2 0.218863 0.500000 0.372904
O O3 0.225621 0.591182 0.341997
O O4 0.213752 0.567366 0.442575
O O5 0.212940 0.319796 0.500000
O O6 0.500000 0.311997 0.442592
O O7 0.250000 0.250000 0.437497
O O8 0.215079 0.329381 0.388711
O O9 0.250000 0.250000 0.114431
O O10 0.287814 0.179642 0.172184
O O11 0.000000 0.187605 0.114278
O O12 0.287855 0.177598 0.057280
O O13 0.500000 0.646527 0.335113
O O14 0.787040 0.668523 0.281640
O O15 0.500000 0.689270 0.229044
O O16 0.750000 0.750000 0.236224
O O17 0.300345 0.500000 0.500000
O O18 0.500000 0.425865 0.500000
O O19 0.250000 0.750000 0.000000
O O20 0.000000 0.811971 0.000000
#
# Coordination Sequence:
#
# PCOD9494192 Si02
#       7
#    16  16  16  16  16   8   8
#     4   8  13  20  30  45  64  84 104 128 162 203
#     4   9  17  27  37  49  66  87 110 136 162 188
#     4   8  13  20  30  43  60  82 107 134 160 185
#     4   9  16  23  33  47  64  87 111 133 162 197
#     4   9  16  25  35  48  67  90 114 138 162 189
#     4   7  10  16  26  40  57  76  97 121 151 191
#     4   8  12  18  28  42  58  78 105 133 159 185
#
# _framework density 17.873750999999999
#
# number of rings (size 3 to 8) (size 9 to 14) (size 15 to 20)
#    0.000    3.583    0.000    1.500    1.167    0.000 
#    0.000    0.000    0.000    0.000    0.000    0.000 
#    0.000    2.667    0.000    4.917    0.000   28.417 
#
# Total GULP energy -267289.345425 kJ/mol
# GULP energy per Si atom -5568.528030 kJ/mol
# Density = 1.783307 g / cm^3
# Si number density = 17.873751 Si / 1000 Ang^3
#
#
#
# Elastic Constant Matrix: (Units=GPa)
#
#
# Indices 1 2 3 4 5 6 
#
# 1 71.8186 -1.2752 11.7889 0.0000 0.0000 0.0000
# 2 -1.2752 64.1366 75.3574 0.0000 0.0000 0.0000
# 3 11.7889 75.3574 212.4545 0.0000 0.0000 0.0000
# 4 0.0000 0.0000 0.0000 7.2061 0.0000 0.0000
# 5 0.0000 0.0000 0.0000 0.0000 -5.1238 0.0000
# 6 0.0000 0.0000 0.0000 0.0000 0.0000 -0.2788
#
#
#
# Elastic Compliance Matrix: (Units=1/GPa)
#
#
# Indices 1 2 3 4 5 6 
#
# 1 0.014211 0.002073 -0.001524 0.000000 0.000000 0.000000
# 2 0.002073 0.027035 -0.009704 0.000000 0.000000 0.000000
# 3 -0.001524 -0.009704 0.008234 0.000000 0.000000 0.000000
# 4 0.000000 0.000000 0.000000 0.138770 0.000000 0.000000
# 5 0.000000 0.000000 0.000000 0.000000 -0.195168 0.000000
# 6 0.000000 0.000000 0.000000 0.000000 0.000000 -3.586949
#
#
# Mechanical properties :
#
#
# Convention : Reuss Voigt Hill
#
# Bulk Modulus (GPa) = 32.08296 57.79466 44.93881
# Shear Modulus (GPa) = -1.40246 17.86328 8.23041
#
# Velocity S-wave (km/s) = -0.88676 3.16478 2.14820
# Velocity P-wave (km/s) = 4.11585 6.76458 5.59910
#
# Compressibility (1/GPa) = 0.03116920
#
# Stress axis : x y z
#
# Youngs Moduli (GPa) = 70.36847 36.98891 121.45384
#
# Poissons Ratio (x) = -0.07668 0.18508
# Poissons Ratio (y) = -0.14587 1.17863
# Poissons Ratio (z) = 0.10723 0.35895
#
# Static dielectric constant tensor:
#      x y z
#    x 1.830140 0.000000 0.000000 
#    y 0.000000 1.584640 0.000000 
#    z 0.000000 0.000000 1.675710 
# 
# From -- ./inp_files/69318.got.cif
#   From: 2010.05.17/outbox.cif.g08.bks.cpg/sg65_35_cif.got.tgz:69318.got - 2010.06.03 17:01:31.
