data_PCOD9494999
_publ_section_title
;
Structure prediction by ZEFSAII (Michael W. Deem and Ramdas Pophale) SiO2 
 PCOD9494999
Probable space group: C C C M
;
_chemical_formula_sum "Si O2"
_cell_formula_units_Z 80
_cell_length_a 7.502697
_cell_length_b 14.513381
_cell_length_c 29.038696
_cell_angle_alpha 90.000000
_cell_angle_beta 90.000000
_cell_angle_gamma 90.000000
_cell_volume 3162.009091
_symmetry_space_group_name_H-M "C C C M"
_symmetry_group_IT_number 66
_symmetry_cell_setting 'orthorhombic'
loop_
_space_group_symop_operation_xyz
x,y,z
-x,-y,z
x,-y,1/2-z
-x,y,1/2-z
-x,-y,-z
x,y,-z
-x,y,1/2+z
x,-y,1/2+z
1/2+x,1/2+y,z
1/2-x,1/2-y,z
1/2+x,1/2-y,1/2-z
1/2-x,1/2+y,1/2-z
1/2-x,1/2-y,-z
1/2+x,1/2+y,-z
1/2-x,1/2+y,1/2+z
1/2+x,1/2-y,1/2+z
loop_
_atom_site_type_symbol
_atom_site_label
_atom_site_fract_x
_atom_site_fract_y
_atom_site_fract_z
Si Si1 0.215305 0.507118 0.550495
Si Si2 0.923900 0.186997 0.048512
Si Si3 0.057703 0.631188 0.302496
Si Si4 0.239780 0.012623 0.654367
Si Si5 0.554505 0.699328 0.351628
O O1 0.255419 0.551704 0.500000
O O2 0.335673 0.414360 0.548977
O O3 0.254389 0.533254 0.603444
O O4 0.000000 0.500000 0.550082
O O5 0.750000 0.250000 0.048950
O O6 0.019844 0.206409 0.096291
O O7 0.016559 0.206360 0.000000
O O8 0.912274 0.579091 0.335116
O O9 0.055835 0.737193 0.317363
O O10 0.000000 0.623515 0.250000
O O11 0.233403 0.570624 0.310232
O O12 0.088456 0.091121 0.657900
O O13 0.750000 0.750000 0.351646
#
# Coordination Sequence:
#
# PCOD9494999 Si02
#       5
#    16  16  16  16  16
#     4   9  14  19  29  47  71 102 145 185 223 283
#     4   8  13  19  28  43  66 100 141 182 224 280
#     4  10  17  25  37  54  76 106 150 197 232 279
#     4   9  15  25  36  51  76 109 146 189 237 281
#     4   8  15  24  34  50  76 104 142 191 232 279
#
# _framework density 25.300370000000001
#
# number of rings (size 3 to 8) (size 9 to 14) (size 15 to 20)
#    0.000    3.200    2.000    2.400    0.000    0.000 
#    0.000    0.000    0.000    0.000    0.000    0.000 
#    0.000   30.400    0.000    0.000    0.000  179.000 
#
# Total GULP energy -222826.476502 kJ/mol
# GULP energy per Si atom -5570.661913 kJ/mol
# Density = 2.524279 g / cm^3
# Si number density = 25.300370 Si / 1000 Ang^3
#
#
#
# Elastic Constant Matrix: (Units=GPa)
#
#
# Indices 1 2 3 4 5 6 
#
# 1 85.4352 26.1873 40.5655 0.0000 0.0000 0.0000
# 2 26.1873 141.1134 84.6204 0.0000 0.0000 0.0000
# 3 40.5655 84.6204 196.0780 0.0000 0.0000 0.0000
# 4 0.0000 0.0000 0.0000 72.5440 0.0000 0.0000
# 5 0.0000 0.0000 0.0000 0.0000 -37.5746 0.0000
# 6 0.0000 0.0000 0.0000 0.0000 0.0000 36.2111
#
#
#
# Elastic Compliance Matrix: (Units=1/GPa)
#
#
# Indices 1 2 3 4 5 6 
#
# 1 0.013102 -0.001087 -0.002241 0.000000 0.000000 0.000000
# 2 -0.001087 0.009651 -0.003940 0.000000 0.000000 0.000000
# 3 -0.002241 -0.003940 0.007264 0.000000 0.000000 0.000000
# 4 0.000000 0.000000 0.000000 0.013785 0.000000 0.000000
# 5 0.000000 0.000000 0.000000 0.000000 -0.026614 0.000000
# 6 0.000000 0.000000 0.000000 0.000000 0.000000 0.027616
#
#
# Mechanical properties :
#
#
# Convention : Reuss Voigt Hill
#
# Bulk Modulus (GPa) = 64.60062 80.59697 72.59879
# Shear Modulus (GPa) = 77.51715 32.31968 54.91842
#
# Velocity S-wave (km/s) = 5.54123 3.57801 4.66409
# Velocity P-wave (km/s) = 8.15655 6.99962 7.60013
#
# Compressibility (1/GPa) = 0.01547973
#
# Stress axis : x y z
#
# Youngs Moduli (GPa) = 76.32239 103.61614 137.66307
#
# Poissons Ratio (x) = 0.11267 0.30855
# Poissons Ratio (y) = 0.08299 0.54240
# Poissons Ratio (z) = 0.17107 0.40825
#
# Static dielectric constant tensor:
#      x y z
#    x 2.105120 0.000000 0.000000 
#    y 0.000000 2.044410 0.000000 
#    z 0.000000 0.000000 1.990110 
# 
# From -- ./inp_files/69442.got.cif
#   From: 2010.05.17/outbox.cif.g08.bks.cpg/sg66_35_cif.got.tgz:69442.got - 2010.06.03 17:51:23.
