data_PCOD9494585
_publ_section_title
;
Structure prediction by ZEFSAII (Michael W. Deem and Ramdas Pophale) SiO2 
 PCOD9494585
Probable space group: C M M M
;
_chemical_formula_sum "Si O2"
_cell_formula_units_Z 44
_cell_length_a 27.000000
_cell_length_b 15.000000
_cell_length_c 12.000000
_cell_angle_alpha 90.000000
_cell_angle_beta 90.000000
_cell_angle_gamma 90.000000
_cell_volume 4860.000000
_symmetry_space_group_name_H-M "C M M M"
_symmetry_group_IT_number 65
_symmetry_cell_setting 'orthorhombic'
loop_
_space_group_symop_operation_xyz
x,y,z
-x,-y,z
x,-y,-z
-x,y,-z
-x,-y,-z
x,y,-z
-x,y,z
x,-y,z
1/2+x,1/2+y,z
1/2-x,1/2-y,z
1/2+x,1/2-y,-z
1/2-x,1/2+y,-z
1/2-x,1/2-y,-z
1/2+x,1/2+y,-z
1/2-x,1/2+y,z
1/2+x,1/2-y,z
loop_
_atom_site_type_symbol
_atom_site_label
_atom_site_fract_x
_atom_site_fract_y
_atom_site_fract_z
Si Si1 0.086505 0.836163 0.500000
Si Si2 0.775905 0.101391 0.748103
Si Si3 0.159631 0.399403 0.250481
Si Si4 0.301351 0.650964 0.500000
Si Si5 0.140511 0.217809 0.866014
Si Si6 0.648915 0.832830 0.500000
Si Si7 0.056539 0.894734 0.743764
O O1 0.141212 0.880291 0.500000
O O2 0.100200 0.730779 0.500000
O O3 0.061244 0.864059 0.614700
O O4 0.718163 0.107764 0.776792
O O5 0.778976 0.118336 0.615303
O O6 0.810574 0.171616 0.811708
O O7 0.792862 0.000000 0.771337
O O8 0.143302 0.500000 0.222016
O O9 0.135619 0.317375 0.184273
O O10 0.152371 0.384765 0.383808
O O11 0.307222 0.758427 0.500000
O O12 0.095126 0.159835 0.818014
O O13 0.142925 0.217702 0.000000
O O14 0.000000 0.880713 0.780398
O O15 0.067604 0.000000 0.748791
#
# Coordination Sequence:
#
# PCOD9494585 Si02
#       7
#     8  16  16   8  16   8  16
#     4  10  18  34  61  92 121 153 182 224 289 361
#     4  11  22  35  57  87 121 158 194 235 288 348
#     4  11  23  39  59  86 117 154 199 244 290 341
#     4  10  18  31  58  86 120 157 188 229 287 358
#     4  12  25  41  59  81 114 159 203 244 285 335
#     4  10  18  34  59  88 115 154 189 234 295 349
#     4  11  23  40  64  93 122 150 183 229 291 358
#
# _framework density 9.0534979999999994
#
# number of rings (size 3 to 8) (size 9 to 14) (size 15 to 20)
#    0.545    0.545    5.455    2.727    0.000    7.273 
#    0.000    2.727    0.000    0.545    0.000    2.545 
#    0.000    0.000    0.000    0.000    0.000    0.000 
#
# Total GULP energy -245714.111187 kJ/mol
# GULP energy per Si atom -5584.411618 kJ/mol
# Density = 0.903289 g / cm^3
# Si number density = 9.053498 Si / 1000 Ang^3
#
#
#
# Elastic Constant Matrix: (Units=GPa)
#
#
# Indices 1 2 3 4 5 6 
#
# 1 64.8723 41.4928 26.2906 0.0000 0.0000 0.0000
# 2 41.4928 148.5999 50.3438 0.0000 0.0000 0.0000
# 3 26.2906 50.3438 123.8477 0.0000 0.0000 0.0000
# 4 0.0000 0.0000 0.0000 7.3557 0.0000 0.0000
# 5 0.0000 0.0000 0.0000 0.0000 1.3849 0.0000
# 6 0.0000 0.0000 0.0000 0.0000 0.0000 24.4148
#
#
#
# Elastic Compliance Matrix: (Units=1/GPa)
#
#
# Indices 1 2 3 4 5 6 
#
# 1 0.019273 -0.004634 -0.002208 0.000000 0.000000 0.000000
# 2 -0.004634 0.008918 -0.002642 0.000000 0.000000 0.000000
# 3 -0.002208 -0.002642 0.009617 0.000000 0.000000 0.000000
# 4 0.000000 0.000000 0.000000 0.135949 0.000000 0.000000
# 5 0.000000 0.000000 0.000000 0.000000 0.722082 0.000000
# 6 0.000000 0.000000 0.000000 0.000000 0.000000 0.040959
#
#
# Mechanical properties :
#
#
# Convention : Reuss Voigt Hill
#
# Bulk Modulus (GPa) = 53.07177 63.73048 58.40112
# Shear Modulus (GPa) = 5.19726 21.24392 13.22059
#
# Velocity S-wave (km/s) = 1.69604 3.42898 2.70504
# Velocity P-wave (km/s) = 5.76273 7.13794 6.48688
#
# Compressibility (1/GPa) = 0.01884241
#
# Stress axis : x y z
#
# Youngs Moduli (GPa) = 51.88510 112.12960 103.98337
#
# Poissons Ratio (x) = 0.51957 0.22958
# Poissons Ratio (y) = 0.24042 0.27468
# Poissons Ratio (z) = 0.11455 0.29620
#
# Static dielectric constant tensor:
#      x y z
#    x 1.637290 0.000000 0.000000 
#    y 0.000000 1.645350 0.000000 
#    z 0.000000 0.000000 1.591550 
# 
# From -- ./inp_files/32278.got.cif
#   From: 2010.05.17/outbox.ucp.g08.bks.cvg/sg65_17_cif.got.tgz:32278.got - 2010.06.11 16:39:57.
