data_PCOD9494978
_publ_section_title
;
Structure prediction by ZEFSAII (Michael W. Deem and Ramdas Pophale) SiO2 
 PCOD9494978
Probable space group: C C C M
;
_chemical_formula_sum "Si O2"
_cell_formula_units_Z 88
_cell_length_a 24.295794
_cell_length_b 9.225506
_cell_length_c 21.106203
_cell_angle_alpha 90.000000
_cell_angle_beta 90.000000
_cell_angle_gamma 90.000000
_cell_volume 4730.765306
_symmetry_space_group_name_H-M "C C C M"
_symmetry_group_IT_number 66
_symmetry_cell_setting 'orthorhombic'
loop_
_space_group_symop_operation_xyz
x,y,z
-x,-y,z
x,-y,1/2-z
-x,y,1/2-z
-x,-y,-z
x,y,-z
-x,y,1/2+z
x,-y,1/2+z
1/2+x,1/2+y,z
1/2-x,1/2-y,z
1/2+x,1/2-y,1/2-z
1/2-x,1/2+y,1/2-z
1/2-x,1/2-y,-z
1/2+x,1/2+y,-z
1/2-x,1/2+y,1/2+z
1/2+x,1/2-y,1/2+z
loop_
_atom_site_type_symbol
_atom_site_label
_atom_site_fract_x
_atom_site_fract_y
_atom_site_fract_z
Si Si1 0.614563 0.330181 0.614163
Si Si2 0.085039 0.755579 0.737338
Si Si3 0.107935 0.821317 0.117313
Si Si4 0.311013 0.683296 0.000000
Si Si5 0.503649 0.834453 0.924393
Si Si6 0.000000 0.500000 0.250000
Si Si7 0.000000 0.000000 0.750000
Si Si8 0.306461 0.665673 0.500000
O O1 0.630440 0.271150 0.683374
O O2 0.607468 0.504081 0.614318
O O3 0.558343 0.249301 0.595425
O O4 0.659055 0.292717 0.561756
O O5 0.109339 0.773430 0.808199
O O6 0.046006 0.617435 0.727367
O O7 0.043132 0.888079 0.720334
O O8 0.049677 0.754831 0.096398
O O9 0.153623 0.777083 0.063988
O O10 0.250000 0.750000 0.000000
O O11 0.302819 0.509197 0.000000
O O12 0.500000 0.000000 0.898981
O O13 0.503434 0.842644 0.000000
O O14 0.250000 0.750000 0.500000
#
# Coordination Sequence:
#
# PCOD9494978 Si02
#       8
#    16  16  16   8  16   4   4   8
#     4  11  22  39  61  87 119 162 201 241 292 360
#     4  11  22  36  53  88 127 162 196 230 292 355
#     4  11  22  39  61  87 119 162 201 241 292 360
#     4  10  24  45  66  87 111 152 206 260 305 350
#     4  11  23  34  52  90 130 159 191 238 301 356
#     4  10  24  34  52  88 138 166 192 228 292 360
#     4  10  16  34  56  80 118 174 180 224 276 352
#     4  10  24  45  66  87 111 152 206 260 305 350
#
# _framework density 18.601641000000001
#
# number of rings (size 3 to 8) (size 9 to 14) (size 15 to 20)
#    0.000    1.273    3.636    2.727    5.091    2.182 
#    0.000    0.909    0.000    0.000    0.000    0.000 
#    0.000    0.000    0.000    0.000    0.000    0.000 
#
# Total GULP energy -245006.984359 kJ/mol
# GULP energy per Si atom -5568.340554 kJ/mol
# Density = 1.855930 g / cm^3
# Si number density = 18.601641 Si / 1000 Ang^3
#
#
#
# Elastic Constant Matrix: (Units=GPa)
#
#
# Indices 1 2 3 4 5 6 
#
# 1 127.0562 37.8776 82.3216 0.0000 0.0000 0.0000
# 2 37.8776 77.7254 49.4198 0.0000 0.0000 0.0000
# 3 82.3216 49.4198 181.2845 0.0000 0.0000 0.0000
# 4 0.0000 0.0000 0.0000 10.4877 0.0000 0.0000
# 5 0.0000 0.0000 0.0000 0.0000 -6.7642 0.0000
# 6 0.0000 0.0000 0.0000 0.0000 0.0000 31.4390
#
#
#
# Elastic Compliance Matrix: (Units=1/GPa)
#
#
# Indices 1 2 3 4 5 6 
#
# 1 0.011633 -0.002795 -0.004521 0.000000 0.000000 0.000000
# 2 -0.002795 0.016235 -0.003157 0.000000 0.000000 0.000000
# 3 -0.004521 -0.003157 0.008430 0.000000 0.000000 0.000000
# 4 0.000000 0.000000 0.000000 0.095350 0.000000 0.000000
# 5 0.000000 0.000000 0.000000 0.000000 -0.147836 0.000000
# 6 0.000000 0.000000 0.000000 0.000000 0.000000 0.031808
#
#
# Mechanical properties :
#
#
# Convention : Reuss Voigt Hill
#
# Bulk Modulus (GPa) = 65.13295 80.58932 72.86114
# Shear Modulus (GPa) = 119.96150 21.46229 70.71189
#
# Velocity S-wave (km/s) = 8.03926 3.40043 6.17222
# Velocity P-wave (km/s) = 11.01198 7.67040 9.48943
#
# Compressibility (1/GPa) = 0.01535321
#
# Stress axis : x y z
#
# Youngs Moduli (GPa) = 85.96552 61.59606 118.63062
#
# Poissons Ratio (x) = 0.17213 0.53627
# Poissons Ratio (y) = 0.24024 0.37448
# Poissons Ratio (z) = 0.38861 0.19444
#
# Static dielectric constant tensor:
#      x y z
#    x 1.597160 0.000000 0.000000 
#    y 0.000000 1.657520 0.000000 
#    z 0.000000 0.000000 1.794530 
# 
# From -- ./inp_files/52482.got.cif
#   From: 2010.05.17/outbox.cif.g08.bks.cpg/sg66_27_cif.got.tgz:52482.got - 2010.06.03 17:51:23.
