data_PCOD9494882
_publ_section_title
;
Structure prediction by ZEFSAII (Michael W. Deem and Ramdas Pophale) SiO2 
 PCOD9494882
Probable space group: C M M M
;
_chemical_formula_sum "Si O2"
_cell_formula_units_Z 44
_cell_length_a 18.000000
_cell_length_b 9.000000
_cell_length_c 30.000000
_cell_angle_alpha 90.000000
_cell_angle_beta 90.000000
_cell_angle_gamma 90.000000
_cell_volume 4860.000000
_symmetry_space_group_name_H-M "C M M M"
_symmetry_group_IT_number 65
_symmetry_cell_setting 'orthorhombic'
loop_
_space_group_symop_operation_xyz
x,y,z
-x,-y,z
x,-y,-z
-x,y,-z
-x,-y,-z
x,y,-z
-x,y,z
x,-y,z
1/2+x,1/2+y,z
1/2-x,1/2-y,z
1/2+x,1/2-y,-z
1/2-x,1/2+y,-z
1/2-x,1/2-y,-z
1/2+x,1/2+y,-z
1/2-x,1/2+y,z
1/2+x,1/2-y,z
loop_
_atom_site_type_symbol
_atom_site_label
_atom_site_fract_x
_atom_site_fract_y
_atom_site_fract_z
Si Si1 0.090729 0.170680 0.090447
Si Si2 0.831232 0.320680 0.451247
Si Si3 0.409270 0.170757 0.819109
Si Si4 0.590676 0.328660 0.728679
Si Si5 0.909270 0.670677 0.000000
Si Si6 0.911708 0.323586 0.638200
O O1 0.115484 0.248155 0.135958
O O2 0.115456 0.250595 0.045319
O O3 0.000000 0.175427 0.090476
O O4 0.113099 0.000000 0.090011
O O5 0.864244 0.282615 0.500000
O O6 0.825815 0.500000 0.449525
O O7 0.750000 0.250000 0.449399
O O8 0.876099 0.271178 0.407937
O O9 0.500000 0.175969 0.819023
O O10 0.384222 0.246658 0.773403
O O11 0.387117 0.000000 0.820049
O O12 0.500000 0.320121 0.728370
O O13 0.611513 0.500000 0.730460
O O14 0.616732 0.255638 0.682699
O O15 0.886882 0.500000 0.000000
O O16 0.000000 0.675382 0.000000
O O17 0.899075 0.500000 0.642773
O O18 0.000000 0.300236 0.635521
#
# Coordination Sequence:
#
# PCOD9494882 Si02
#       6
#    16  16  16  16   8  16
#     4   9  15  21  28  38  53  75 106 146 192 239
#     4   9  18  32  49  68  90 117 147 178 213 254
#     4   9  15  22  32  45  62  86 116 150 191 240
#     4   9  16  25  37  54  76 100 126 159 201 247
#     4   9  15  21  27  35  49  71 103 145 192 239
#     4   9  17  29  45  65  88 113 142 177 216 256
#
# _framework density 9.0534979999999994
#
# number of rings (size 3 to 8) (size 9 to 14) (size 15 to 20)
#    0.000    3.000    0.000    1.909    0.000    8.727 
#    0.000    1.818    0.000    0.000    0.000    5.091 
#    0.000    0.000    0.000    0.000    0.000    0.000 
#
# Total GULP energy -245086.750857 kJ/mol
# GULP energy per Si atom -5570.153429 kJ/mol
# Density = 0.903289 g / cm^3
# Si number density = 9.053498 Si / 1000 Ang^3
#
#
#
# Elastic Constant Matrix: (Units=GPa)
#
#
# Indices 1 2 3 4 5 6 
#
# 1 -9.9173 22.6453 19.7216 0.0000 0.0000 0.0000
# 2 22.6453 103.8430 126.8566 0.0000 0.0000 0.0000
# 3 19.7216 126.8566 247.1622 0.0000 0.0000 0.0000
# 4 0.0000 0.0000 0.0000 -4.1775 0.0000 0.0000
# 5 0.0000 0.0000 0.0000 0.0000 -9.7920 0.0000
# 6 0.0000 0.0000 0.0000 0.0000 0.0000 5.8332
#
#
#
# Elastic Compliance Matrix: (Units=1/GPa)
#
#
# Indices 1 2 3 4 5 6 
#
# 1 -0.064351 0.020806 -0.005544 0.000000 0.000000 0.000000
# 2 0.020806 0.019091 -0.011458 0.000000 0.000000 0.000000
# 3 -0.005544 -0.011458 0.010369 0.000000 0.000000 0.000000
# 4 0.000000 0.000000 0.000000 -0.239377 0.000000 0.000000
# 5 0.000000 0.000000 0.000000 0.000000 -0.102124 0.000000
# 6 0.000000 0.000000 0.000000 0.000000 0.000000 0.171431
#
#
# Mechanical properties :
#
#
# Convention : Reuss Voigt Hill
#
# Bulk Modulus (GPa) = -36.65125 75.50390 19.42632
# Shear Modulus (GPa) = -22.55689 9.83036 -6.36326
#
# Velocity S-wave (km/s) = -3.53336 2.33256 -1.87667
# Velocity P-wave (km/s) = 6.07713 7.00312 2.46091
#
# Compressibility (1/GPa) = -0.02728420
#
# Stress axis : x y z
#
# Youngs Moduli (GPa) = -15.53981 52.38150 96.43785
#
# Poissons Ratio (x) = -1.08983 0.53463
# Poissons Ratio (y) = 0.32331 1.10503
# Poissons Ratio (z) = -0.08615 0.60021
#
# Static dielectric constant tensor:
#      x y z
#    x 1.590040 0.000000 0.000000 
#    y 0.000000 1.608550 0.000000 
#    z 0.000000 0.000000 1.637470 
# 
# From -- ./inp_files/76526.got.cif
#   From: 2010.05.17/outbox.ucp.g08.bks.cvg/sg65_39_cif.got.tgz:76526.got - 2010.06.11 16:39:57.
