data_PCOD9494341
_publ_section_title
;
Structure prediction by ZEFSAII (Michael W. Deem and Ramdas Pophale) SiO2 
 PCOD9494341
Probable space group: C M M M
;
_chemical_formula_sum "Si O2"
_cell_formula_units_Z 88
_cell_length_a 38.498339
_cell_length_b 7.349213
_cell_length_c 14.154535
_cell_angle_alpha 90.000000
_cell_angle_beta 90.000000
_cell_angle_gamma 90.000000
_cell_volume 4004.777881
_symmetry_space_group_name_H-M "C M M M"
_symmetry_group_IT_number 65
_symmetry_cell_setting 'orthorhombic'
loop_
_space_group_symop_operation_xyz
x,y,z
-x,-y,z
x,-y,-z
-x,y,-z
-x,-y,-z
x,y,-z
-x,y,z
x,-y,z
1/2+x,1/2+y,z
1/2-x,1/2-y,z
1/2+x,1/2-y,-z
1/2-x,1/2+y,-z
1/2-x,1/2-y,-z
1/2+x,1/2+y,-z
1/2-x,1/2+y,z
1/2+x,1/2-y,z
loop_
_atom_site_type_symbol
_atom_site_label
_atom_site_fract_x
_atom_site_fract_y
_atom_site_fract_z
Si Si1 0.154658 0.722304 0.256625
Si Si2 0.959368 0.720617 0.896435
Si Si3 0.424009 0.777785 0.700542
Si Si4 0.789441 0.282401 0.893564
Si Si5 0.712701 0.783357 0.604670
Si Si6 0.459133 0.221672 0.500000
O O1 0.153495 0.500000 0.253094
O O2 0.115689 0.779081 0.279730
O O3 0.177264 0.781894 0.165942
O O4 0.179747 0.783551 0.340322
O O5 0.956419 0.500000 0.896262
O O6 0.943776 0.781174 0.796378
O O7 0.000000 0.766144 0.896140
O O8 0.944947 0.780007 0.000000
O O9 0.440309 0.721167 0.598844
O O10 0.425080 0.000000 0.698276
O O11 0.792714 0.500000 0.896058
O O12 0.750000 0.250000 0.857972
O O13 0.790612 0.210597 0.000000
O O14 0.714115 0.706093 0.500000
O O15 0.750000 0.750000 0.650446
O O16 0.708960 0.000000 0.599432
O O17 0.500000 0.274645 0.500000
O O18 0.458373 0.000000 0.500000
#
# Coordination Sequence:
#
# PCOD9494341 Si02
#       6
#    16  16  16  16  16   8
#     4   9  17  26  37  54  75 100 130 169 209 243
#     4   8  13  21  32  45  63  89 123 162 199 238
#     4   9  16  23  33  49  69  96 129 167 210 247
#     4   9  17  29  44  61  82 109 143 179 212 250
#     4   9  17  28  42  58  77 102 134 168 201 239
#     4   9  16  24  34  48  69  98 133 171 205 245
#
# _framework density 21.973752000000001
#
# number of rings (size 3 to 8) (size 9 to 14) (size 15 to 20)
#    0.000    3.182    0.000    1.636    1.273    2.909 
#    0.000    3.636    0.000    0.000    0.000    0.000 
#    0.000    0.000    0.000    0.000    0.000   18.182 
#
# Total GULP energy -245136.265954 kJ/mol
# GULP energy per Si atom -5571.278772 kJ/mol
# Density = 2.192374 g / cm^3
# Si number density = 21.973752 Si / 1000 Ang^3
#
#
#
# Elastic Constant Matrix: (Units=GPa)
#
#
# Indices 1 2 3 4 5 6 
#
# 1 190.0531 1.7347 131.0388 0.0000 0.0000 0.0000
# 2 1.7347 82.8196 5.7861 0.0000 0.0000 0.0000
# 3 131.0388 5.7861 233.8273 0.0000 0.0000 0.0000
# 4 0.0000 0.0000 0.0000 -9.5082 0.0000 0.0000
# 5 0.0000 0.0000 0.0000 0.0000 41.2872 0.0000
# 6 0.0000 0.0000 0.0000 0.0000 0.0000 5.5471
#
#
#
# Elastic Compliance Matrix: (Units=1/GPa)
#
#
# Indices 1 2 3 4 5 6 
#
# 1 0.008577 0.000156 -0.004811 0.000000 0.000000 0.000000
# 2 0.000156 0.012098 -0.000387 0.000000 0.000000 0.000000
# 3 -0.004811 -0.000387 0.006982 0.000000 0.000000 0.000000
# 4 0.000000 0.000000 0.000000 -0.105172 0.000000 0.000000
# 5 0.000000 0.000000 0.000000 0.000000 0.024221 0.000000
# 6 0.000000 0.000000 0.000000 0.000000 0.000000 0.180275
#
#
# Mechanical properties :
#
#
# Convention : Reuss Voigt Hill
#
# Bulk Modulus (GPa) = 56.89875 87.09104 71.99489
# Shear Modulus (GPa) = 34.98411 32.00791 33.49601
#
# Velocity S-wave (km/s) = 3.99442 3.82074 3.90855
# Velocity P-wave (km/s) = 6.87198 7.69313 7.29412
#
# Compressibility (1/GPa) = 0.01757508
#
# Stress axis : x y z
#
# Youngs Moduli (GPa) = 116.59041 82.65695 143.22362
#
# Poissons Ratio (x) = -0.01293 0.68898
# Poissons Ratio (y) = -0.01824 0.05543
# Poissons Ratio (z) = 0.56086 0.03199
#
# Static dielectric constant tensor:
#      x y z
#    x 1.700900 0.000000 0.000000 
#    y 0.000000 1.579040 0.000000 
#    z 0.000000 0.000000 1.840730 
# 
# From -- ./inp_files/47656.got.cif
#   From: 2010.05.17/outbox.cif.g08.bks.cpg/sg65_24_cif.got.tgz:47656.got - 2010.06.03 17:01:31.
