data_PCOD9494562
_publ_section_title
;
Structure prediction by ZEFSAII (Michael W. Deem and Ramdas Pophale) SiO2 
 PCOD9494562
Probable space group: C M M M
;
_chemical_formula_sum "Si O2"
_cell_formula_units_Z 64
_cell_length_a 24.000000
_cell_length_b 18.000000
_cell_length_c 18.000000
_cell_angle_alpha 90.000000
_cell_angle_beta 90.000000
_cell_angle_gamma 90.000000
_cell_volume 7776.000000
_symmetry_space_group_name_H-M "C M M M"
_symmetry_group_IT_number 65
_symmetry_cell_setting 'orthorhombic'
loop_
_space_group_symop_operation_xyz
x,y,z
-x,-y,z
x,-y,-z
-x,y,-z
-x,-y,-z
x,y,-z
-x,y,z
x,-y,z
1/2+x,1/2+y,z
1/2-x,1/2-y,z
1/2+x,1/2-y,-z
1/2-x,1/2+y,-z
1/2-x,1/2-y,-z
1/2+x,1/2+y,-z
1/2-x,1/2+y,z
1/2+x,1/2-y,z
loop_
_atom_site_type_symbol
_atom_site_label
_atom_site_fract_x
_atom_site_fract_y
_atom_site_fract_z
Si Si1 0.616041 0.225473 0.915803
Si Si2 0.622316 0.085422 0.710239
Si Si3 0.813078 0.666502 0.413245
Si Si4 0.210979 0.179931 0.852800
Si Si5 0.163086 0.803418 0.692430
Si Si6 0.306510 0.412981 0.417000
Si Si7 0.939675 0.721185 0.764399
Si Si8 0.812163 0.585946 0.138336
O O1 0.654997 0.296753 0.895498
O O2 0.569595 0.223248 0.852525
O O3 0.651610 0.148934 0.903480
O O4 0.597123 0.229332 0.000000
O O5 0.645135 0.112910 0.631314
O O6 0.572780 0.138028 0.736804
O O7 0.669946 0.095347 0.774545
O O8 0.607160 0.000000 0.708443
O O9 0.826665 0.679671 0.500000
O O10 0.814217 0.741605 0.364950
O O11 0.753162 0.627258 0.410776
O O12 0.250000 0.250000 0.869890
O O13 0.200775 0.181689 0.764319
O O14 0.247563 0.108199 0.871994
O O15 0.155653 0.877638 0.645809
O O16 0.107237 0.770221 0.726127
O O17 0.328214 0.398998 0.500000
O O18 0.298278 0.500000 0.407372
O O19 0.000000 0.746758 0.742861
O O20 0.822962 0.500000 0.118111
#
# Coordination Sequence:
#
# PCOD9494562 Si02
#       8
#    16  16  16  16  16  16  16  16
#     4   9  18  31  46  66  92 116 140 178 225 268
#     4   9  17  29  45  65  92 122 150 184 221 257
#     4  10  18  27  43  68  97 128 156 178 209 261
#     4   9  16  26  42  63  88 121 154 177 206 254
#     4  10  18  30  46  64  90 122 156 193 227 261
#     4  10  19  28  42  69 101 127 150 179 219 266
#     4   9  19  34  51  68  82 107 152 195 231 271
#     4   9  17  28  43  65  93 125 154 174 201 253
#
# _framework density 8.2304530000000007
#
# number of rings (size 3 to 8) (size 9 to 14) (size 15 to 20)
#    0.000    2.625    0.000    4.875    0.000    6.250 
#    0.000    0.000    0.000    9.750    0.000    7.875 
#    0.000    0.000    0.000    5.500    0.000    0.000 
#
# Total GULP energy -356295.208984 kJ/mol
# GULP energy per Si atom -5567.112640 kJ/mol
# Density = 0.821172 g / cm^3
# Si number density = 8.230453 Si / 1000 Ang^3
#
#
#
# Elastic Constant Matrix: (Units=GPa)
#
#
# Indices 1 2 3 4 5 6 
#
# 1 31.3424 11.2552 8.9597 0.0000 0.0000 0.0000
# 2 11.2552 30.4785 16.0158 0.0000 0.0000 0.0000
# 3 8.9597 16.0158 85.2655 0.0000 0.0000 0.0000
# 4 0.0000 0.0000 0.0000 11.8124 0.0000 0.0000
# 5 0.0000 0.0000 0.0000 0.0000 -5.1209 0.0000
# 6 0.0000 0.0000 0.0000 0.0000 0.0000 -1.9248
#
#
#
# Elastic Compliance Matrix: (Units=1/GPa)
#
#
# Indices 1 2 3 4 5 6 
#
# 1 0.036948 -0.012875 -0.001464 0.000000 0.000000 0.000000
# 2 -0.012875 0.040889 -0.006328 0.000000 0.000000 0.000000
# 3 -0.001464 -0.006328 0.013070 0.000000 0.000000 0.000000
# 4 0.000000 0.000000 0.000000 0.084657 0.000000 0.000000
# 5 0.000000 0.000000 0.000000 0.000000 -0.195279 0.000000
# 6 0.000000 0.000000 0.000000 0.000000 0.000000 -0.519532
#
#
# Mechanical properties :
#
#
# Convention : Reuss Voigt Hill
#
# Bulk Modulus (GPa) = 20.17161 24.39419 22.28290
# Shear Modulus (GPa) = -10.38663 8.34371 -1.02146
#
# Velocity S-wave (km/s) = -2.51467 2.25384 -0.78860
# Velocity P-wave (km/s) = 1.96200 4.65024 3.56890
#
# Compressibility (1/GPa) = 0.04957461
#
# Stress axis : x y z
#
# Youngs Moduli (GPa) = 27.06537 24.45619 76.50841
#
# Poissons Ratio (x) = 0.31487 0.11202
# Poissons Ratio (y) = 0.34846 0.48411
# Poissons Ratio (z) = 0.03963 0.15475
#
# Static dielectric constant tensor:
#      x y z
#    x 1.547800 0.000000 0.000000 
#    y 0.000000 1.563220 0.000000 
#    z 0.000000 0.000000 1.570250 
# 
# From -- ./inp_files/55108.got.cif
#   From: 2010.05.17/outbox.ucp.g08.bks.cvg/sg65_28_cif.got.tgz:55108.got - 2010.06.11 16:39:57.
