data_PCOD9494436
_publ_section_title
;
Structure prediction by ZEFSAII (Michael W. Deem and Ramdas Pophale) SiO2 
 PCOD9494436
Probable space group: C M M M
;
_chemical_formula_sum "Si O2"
_cell_formula_units_Z 64
_cell_length_a 7.526647
_cell_length_b 30.113938
_cell_length_c 12.960347
_cell_angle_alpha 90.000000
_cell_angle_beta 90.000000
_cell_angle_gamma 90.000000
_cell_volume 2937.553125
_symmetry_space_group_name_H-M "C M M M"
_symmetry_group_IT_number 65
_symmetry_cell_setting 'orthorhombic'
loop_
_space_group_symop_operation_xyz
x,y,z
-x,-y,z
x,-y,-z
-x,y,-z
-x,-y,-z
x,y,-z
-x,y,z
x,-y,z
1/2+x,1/2+y,z
1/2-x,1/2-y,z
1/2+x,1/2-y,-z
1/2-x,1/2+y,-z
1/2-x,1/2-y,-z
1/2+x,1/2+y,-z
1/2-x,1/2+y,z
1/2+x,1/2-y,z
loop_
_atom_site_type_symbol
_atom_site_label
_atom_site_fract_x
_atom_site_fract_y
_atom_site_fract_z
Si Si1 0.711144 0.050940 0.000000
Si Si2 0.789556 0.050299 0.225109
Si Si3 0.782021 0.875588 0.618213
Si Si4 0.213115 0.197803 0.224069
Si Si5 0.212543 0.802858 0.000000
O O1 0.766763 0.070199 0.889969
O O2 0.500000 0.049378 0.000000
O O3 0.782652 0.000000 0.000000
O O4 0.721423 0.082261 0.314378
O O5 0.000000 0.046778 0.241226
O O6 0.715141 0.000000 0.226209
O O7 0.723809 0.876395 0.500000
O O8 0.723807 0.832186 0.681725
O O9 0.000000 0.875882 0.617199
O O10 0.250000 0.250000 0.236949
O O11 0.000000 0.193058 0.220286
O O12 0.282239 0.182016 0.111465
O O13 0.250000 0.750000 0.000000
O O14 0.000000 0.810023 0.000000
#
# Coordination Sequence:
#
# PCOD9494436 Si02
#       5
#     8  16  16  16   8
#     4   9  17  30  49  73 101 129 156 192 242 294
#     4   9  17  30  50  74  98 126 161 199 237 282
#     4   9  18  31  47  70  98 127 162 202 241 281
#     4   9  17  30  48  68  92 122 155 194 240 287
#     4   8  14  25  42  64  86 111 145 184 228 277
#
# _framework density 21.786839000000001
#
# number of rings (size 3 to 8) (size 9 to 14) (size 15 to 20)
#    0.000    3.125    0.000    0.375    0.000    3.500 
#    0.000    7.500    0.000    8.250    0.000    3.500 
#    0.000    0.000    0.000    0.000    0.000    0.000 
#
# Total GULP energy -178465.598979 kJ/mol
# GULP energy per Si atom -5577.049968 kJ/mol
# Density = 2.173725 g / cm^3
# Si number density = 21.786839 Si / 1000 Ang^3
#
#
#
# Elastic Constant Matrix: (Units=GPa)
#
#
# Indices 1 2 3 4 5 6 
#
# 1 58.3547 -1.1132 4.2640 0.0000 0.0000 0.0000
# 2 -1.1132 112.5694 106.5654 0.0000 0.0000 0.0000
# 3 4.2640 106.5654 267.7784 0.0000 0.0000 0.0000
# 4 0.0000 0.0000 0.0000 28.3441 0.0000 0.0000
# 5 0.0000 0.0000 0.0000 0.0000 -11.7473 0.0000
# 6 0.0000 0.0000 0.0000 0.0000 0.0000 8.3407
#
#
#
# Elastic Compliance Matrix: (Units=1/GPa)
#
#
# Indices 1 2 3 4 5 6 
#
# 1 0.017190 0.000689 -0.000548 0.000000 0.000000 0.000000
# 2 0.000689 0.014281 -0.005694 0.000000 0.000000 0.000000
# 3 -0.000548 -0.005694 0.006009 0.000000 0.000000 0.000000
# 4 0.000000 0.000000 0.000000 0.035281 0.000000 0.000000
# 5 0.000000 0.000000 0.000000 0.000000 -0.085126 0.000000
# 6 0.000000 0.000000 0.000000 0.000000 0.000000 0.119894
#
#
# Mechanical properties :
#
#
# Convention : Reuss Voigt Hill
#
# Bulk Modulus (GPa) = 37.91770 73.12612 55.52191
# Shear Modulus (GPa) = 39.23843 26.91992 33.07917
#
# Velocity S-wave (km/s) = 4.24844 3.51893 3.90078
# Velocity P-wave (km/s) = 6.44262 7.08150 6.76961
#
# Compressibility (1/GPa) = 0.02637290
#
# Stress axis : x y z
#
# Youngs Moduli (GPa) = 58.17425 70.02503 166.41204
#
# Poissons Ratio (x) = -0.04821 0.09115
# Poissons Ratio (y) = -0.04005 0.94757
# Poissons Ratio (z) = 0.03186 0.39873
#
# Static dielectric constant tensor:
#      x y z
#    x 1.984210 0.000000 0.000000 
#    y 0.000000 1.797520 0.000000 
#    z 0.000000 0.000000 1.794110 
# 
# From -- ./inp_files/20988.got.cif
#   From: 2010.05.17/outbox.cif.g08.bks.cpg/sg65_11_cif.got.tgz:20988.got - 2010.06.03 17:01:31.
