data_PCOD9494347
_publ_section_title
;
Structure prediction by ZEFSAII (Michael W. Deem and Ramdas Pophale) SiO2 
 PCOD9494347
Probable space group: C M M M
;
_chemical_formula_sum "Si O2"
_cell_formula_units_Z 88
_cell_length_a 19.509204
_cell_length_b 9.515998
_cell_length_c 29.086767
_cell_angle_alpha 90.000000
_cell_angle_beta 90.000000
_cell_angle_gamma 90.000000
_cell_volume 5399.945095
_symmetry_space_group_name_H-M "C M M M"
_symmetry_group_IT_number 65
_symmetry_cell_setting 'orthorhombic'
loop_
_space_group_symop_operation_xyz
x,y,z
-x,-y,z
x,-y,-z
-x,y,-z
-x,-y,-z
x,y,-z
-x,y,z
x,-y,z
1/2+x,1/2+y,z
1/2-x,1/2-y,z
1/2+x,1/2-y,-z
1/2-x,1/2+y,-z
1/2-x,1/2-y,-z
1/2+x,1/2+y,-z
1/2-x,1/2+y,z
1/2+x,1/2-y,z
loop_
_atom_site_type_symbol
_atom_site_label
_atom_site_fract_x
_atom_site_fract_y
_atom_site_fract_z
Si Si1 0.421936 0.170780 0.000000
Si Si2 0.083414 0.662981 0.448445
Si Si3 0.820001 0.332634 0.187018
Si Si4 0.416390 0.661602 0.639511
Si Si5 0.080896 0.333046 0.270307
Si Si6 0.679240 0.831526 0.081291
O O1 0.378759 0.211365 0.045056
O O2 0.500000 0.222326 0.000000
O O3 0.424663 0.000000 0.000000
O O4 0.105110 0.705599 0.500000
O O5 0.102651 0.500000 0.441043
O O6 0.107075 0.760561 0.406866
O O7 0.000000 0.666578 0.448254
O O8 0.807605 0.500000 0.190070
O O9 0.750000 0.250000 0.195860
O O10 0.876493 0.296073 0.224935
O O11 0.841226 0.303332 0.134250
O O12 0.500000 0.663436 0.638780
O O13 0.394448 0.500000 0.640955
O O14 0.396021 0.746123 0.685139
O O15 0.088882 0.500000 0.279210
O O16 0.000000 0.307008 0.263029
O O17 0.750000 0.750000 0.072185
O O18 0.690322 0.000000 0.076698
#
# Coordination Sequence:
#
# PCOD9494347 Si02
#       6
#     8  16  16  16  16  16
#     4   9  17  28  45  71  98 121 148 186 226 261
#     4   8  13  21  33  49  72 106 145 180 215 258
#     4   9  18  31  47  67  89 115 148 186 225 264
#     4   9  16  24  35  54  80 109 141 178 221 266
#     4   9  17  29  44  61  83 113 147 181 219 265
#     4   9  17  30  48  68  90 118 151 184 221 266
#
# _framework density 16.296461999999998
#
# number of rings (size 3 to 8) (size 9 to 14) (size 15 to 20)
#    0.000    3.182    0.000    1.364    0.000    4.000 
#    0.000    5.455    0.000    1.091    0.000    5.091 
#    0.000    0.727    0.000    2.364    0.000    4.727 
#
# Total GULP energy -244988.795052 kJ/mol
# GULP energy per Si atom -5567.927160 kJ/mol
# Density = 1.625937 g / cm^3
# Si number density = 16.296462 Si / 1000 Ang^3
#
#
#
# Elastic Constant Matrix: (Units=GPa)
#
#
# Indices 1 2 3 4 5 6 
#
# 1 55.2352 39.6984 81.4292 0.0000 0.0000 0.0000
# 2 39.6984 51.3130 76.3084 0.0000 0.0000 0.0000
# 3 81.4292 76.3084 172.6199 0.0000 0.0000 0.0000
# 4 0.0000 0.0000 0.0000 16.0636 0.0000 0.0000
# 5 0.0000 0.0000 0.0000 0.0000 -6.0341 0.0000
# 6 0.0000 0.0000 0.0000 0.0000 0.0000 15.9485
#
#
#
# Elastic Compliance Matrix: (Units=1/GPa)
#
#
# Indices 1 2 3 4 5 6 
#
# 1 0.062331 -0.013125 -0.023601 0.000000 0.000000 0.000000
# 2 -0.013125 0.059646 -0.020176 0.000000 0.000000 0.000000
# 3 -0.023601 -0.020176 0.025845 0.000000 0.000000 0.000000
# 4 0.000000 0.000000 0.000000 0.062253 0.000000 0.000000
# 5 0.000000 0.000000 0.000000 0.000000 -0.165724 0.000000
# 6 0.000000 0.000000 0.000000 0.000000 0.000000 0.062702
#
#
# Mechanical properties :
#
#
# Convention : Reuss Voigt Hill
#
# Bulk Modulus (GPa) = 29.39558 74.89335 52.14446
# Shear Modulus (GPa) = 21.53359 10.64440 16.08899
#
# Velocity S-wave (km/s) = 3.63900 2.55850 3.14549
# Velocity P-wave (km/s) = 5.97776 7.40165 6.72748
#
# Compressibility (1/GPa) = 0.03401872
#
# Stress axis : x y z
#
# Youngs Moduli (GPa) = 16.04347 16.76555 38.69172
#
# Poissons Ratio (x) = 0.22004 0.91317
# Poissons Ratio (y) = 0.21056 0.78064
# Poissons Ratio (z) = 0.37864 0.33826
#
# Static dielectric constant tensor:
#      x y z
#    x 1.519430 0.000000 0.000000 
#    y 0.000000 1.541930 0.000000 
#    z 0.000000 0.000000 1.555060 
# 
# From -- ./inp_files/76562.got.cif
#   From: 2010.05.17/outbox.cif.g08.bks.cpg/sg65_39_cif.got.tgz:76562.got - 2010.06.03 17:01:31.
