data_PCOD9494824
_publ_section_title
;
Structure prediction by ZEFSAII (Michael W. Deem and Ramdas Pophale) SiO2 
 PCOD9494824
Probable space group: C M M M
;
_chemical_formula_sum "Si O2"
_cell_formula_units_Z 44
_cell_length_a 18.000000
_cell_length_b 9.000000
_cell_length_c 30.000000
_cell_angle_alpha 90.000000
_cell_angle_beta 90.000000
_cell_angle_gamma 90.000000
_cell_volume 4860.000000
_symmetry_space_group_name_H-M "C M M M"
_symmetry_group_IT_number 65
_symmetry_cell_setting 'orthorhombic'
loop_
_space_group_symop_operation_xyz
x,y,z
-x,-y,z
x,-y,-z
-x,y,-z
-x,-y,-z
x,y,-z
-x,y,z
x,-y,z
1/2+x,1/2+y,z
1/2-x,1/2-y,z
1/2+x,1/2-y,-z
1/2-x,1/2+y,-z
1/2-x,1/2-y,-z
1/2+x,1/2+y,-z
1/2-x,1/2+y,z
1/2+x,1/2-y,z
loop_
_atom_site_type_symbol
_atom_site_label
_atom_site_fract_x
_atom_site_fract_y
_atom_site_fract_z
Si Si1 0.586792 0.822346 0.866134
Si Si2 0.500000 0.821296 0.447749
Si Si3 0.667794 0.820148 0.227337
Si Si4 0.588779 0.320415 0.312591
Si Si5 0.331529 0.322133 0.949294
Si Si6 0.663945 0.818215 0.399553
O O1 0.500000 0.786805 0.859156
O O2 0.633053 0.786545 0.821385
O O3 0.617958 0.740991 0.909786
O O4 0.593165 0.000000 0.873055
O O5 0.500000 0.776995 0.500000
O O6 0.584381 0.780303 0.427390
O O7 0.500000 0.000000 0.444381
O O8 0.750000 0.750000 0.230548
O O9 0.616700 0.748246 0.265890
O O10 0.670499 0.000000 0.232567
O O11 0.500000 0.289909 0.319425
O O12 0.598217 0.500000 0.313217
O O13 0.639163 0.245113 0.351217
O O14 0.325714 0.500000 0.945412
O O15 0.250000 0.250000 0.944697
O O16 0.358095 0.287956 0.000000
O O17 0.750000 0.750000 0.410071
O O18 0.670734 0.000000 0.400473
#
# Coordination Sequence:
#
# PCOD9494824 Si02
#       6
#    16   8  16  16  16  16
#     4  10  22  39  58  82 112 147 186 232 286 345
#     4   9  20  40  65  93 127 169 215 261 314 375
#     4  11  23  39  59  84 116 152 195 241 292 353
#     4  11  23  39  61  89 122 158 202 253 303 359
#     4  10  21  37  58  83 110 143 184 230 281 339
#     4  11  22  39  64  93 127 168 212 259 314 371
#
# _framework density 9.0534979999999994
#
# number of rings (size 3 to 8) (size 9 to 14) (size 15 to 20)
#    0.000    1.545    0.909    3.818    0.000    6.909 
#    0.000    1.818    0.000    3.818    0.000    0.000 
#    0.000    0.000    0.000    0.000    0.000    0.000 
#
# Total GULP energy -245272.461443 kJ/mol
# GULP energy per Si atom -5574.374124 kJ/mol
# Density = 0.903289 g / cm^3
# Si number density = 9.053498 Si / 1000 Ang^3
#
#
#
# Elastic Constant Matrix: (Units=GPa)
#
#
# Indices 1 2 3 4 5 6 
#
# 1 143.7645 41.4245 54.2820 0.0000 0.0000 0.0000
# 2 41.4245 74.2126 37.2547 0.0000 0.0000 0.0000
# 3 54.2820 37.2547 121.4685 0.0000 0.0000 0.0000
# 4 0.0000 0.0000 0.0000 25.0018 0.0000 0.0000
# 5 0.0000 0.0000 0.0000 0.0000 43.9944 0.0000
# 6 0.0000 0.0000 0.0000 0.0000 0.0000 38.3944
#
#
#
# Elastic Compliance Matrix: (Units=1/GPa)
#
#
# Indices 1 2 3 4 5 6 
#
# 1 0.009113 -0.003596 -0.002970 0.000000 0.000000 0.000000
# 2 -0.003596 0.017346 -0.003713 0.000000 0.000000 0.000000
# 3 -0.002970 -0.003713 0.010698 0.000000 0.000000 0.000000
# 4 0.000000 0.000000 0.000000 0.039997 0.000000 0.000000
# 5 0.000000 0.000000 0.000000 0.000000 0.022730 0.000000
# 6 0.000000 0.000000 0.000000 0.000000 0.000000 0.026045
#
#
# Mechanical properties :
#
#
# Convention : Reuss Voigt Hill
#
# Bulk Modulus (GPa) = 60.24027 67.26314 63.75170
# Shear Modulus (GPa) = 32.89009 35.24375 34.06692
#
# Velocity S-wave (km/s) = 4.26658 4.41661 4.34224
# Velocity P-wave (km/s) = 7.59032 7.95216 7.77334
#
# Compressibility (1/GPa) = 0.01660019
#
# Stress axis : x y z
#
# Youngs Moduli (GPa) = 109.73006 57.64996 93.47159
#
# Poissons Ratio (x) = 0.20732 0.27757
# Poissons Ratio (y) = 0.39461 0.34706
# Poissons Ratio (z) = 0.32585 0.21406
#
# Static dielectric constant tensor:
#      x y z
#    x 1.642870 0.000000 0.000000 
#    y 0.000000 1.611450 0.000000 
#    z 0.000000 0.000000 1.626450 
# 
# From -- ./inp_files/77802.got.cif
#   From: 2010.05.17/outbox.ucp.g08.bks.cvg/sg65_39_cif.got.tgz:77802.got - 2010.06.11 16:39:57.
