data_PCOD9494059
_publ_section_title
;
Structure prediction by ZEFSAII (Michael W. Deem and Ramdas Pophale) SiO2 
 PCOD9494059
Probable space group: C M M M
;
_chemical_formula_sum "Si O2"
_cell_formula_units_Z 66
_cell_length_a 9.831359
_cell_length_b 15.616275
_cell_length_c 20.728934
_cell_angle_alpha 90.000000
_cell_angle_beta 90.000000
_cell_angle_gamma 90.000000
_cell_volume 3182.496773
_symmetry_space_group_name_H-M "C M M M"
_symmetry_group_IT_number 65
_symmetry_cell_setting 'orthorhombic'
loop_
_space_group_symop_operation_xyz
x,y,z
-x,-y,z
x,-y,-z
-x,y,-z
-x,-y,-z
x,y,-z
-x,y,z
x,-y,z
1/2+x,1/2+y,z
1/2-x,1/2-y,z
1/2+x,1/2-y,-z
1/2-x,1/2+y,-z
1/2-x,1/2-y,-z
1/2+x,1/2+y,-z
1/2-x,1/2+y,z
1/2+x,1/2-y,z
loop_
_atom_site_type_symbol
_atom_site_label
_atom_site_fract_x
_atom_site_fract_y
_atom_site_fract_z
Si Si1 0.251134 0.144826 0.000000
Si Si2 0.500000 0.500000 0.000000
Si Si3 0.850628 0.601658 0.859019
Si Si4 0.346350 0.105379 0.500000
Si Si5 0.660670 0.331655 0.748883
Si Si6 0.850473 0.899604 0.389369
O O1 0.250000 0.250000 0.000000
O O2 0.326736 0.123028 0.066529
O O3 0.120024 0.078649 0.000000
O O4 0.851512 0.500000 0.851867
O O5 0.729349 0.635492 0.814475
O O6 0.000000 0.635038 0.838601
O O7 0.500000 0.136039 0.500000
O O8 0.264746 0.134511 0.436597
O O9 0.351591 0.000000 0.500000
O O10 0.500000 0.316784 0.757680
O O11 0.750000 0.250000 0.730921
O O12 0.676918 0.392044 0.686706
O O13 0.000000 0.860714 0.401555
O O14 0.859413 0.000000 0.404673
#
# Coordination Sequence:
#
# PCOD9494059 Si02
#       6
#     8   2  16   8  16  16
#     4  12  27  45  73 105 149 191 237 301 363 425
#     4  12  28  48  74 122 144 196 258 302 376 454
#     4  11  24  44  67  96 133 176 224 280 348 414
#     4   9  17  29  52  85 116 147 189 245 308 377
#     4  11  24  40  61  88 123 165 215 266 330 401
#     4   9  18  35  57  83 112 152 197 250 309 380
#
# _framework density 20.738434000000002
#
# number of rings (size 3 to 8) (size 9 to 14) (size 15 to 20)
#    0.000    1.576    1.212    2.909    3.394    5.818 
#    0.000    3.030    0.000    0.000    0.000    0.000 
#    0.000    0.000    0.000    0.000    0.000    0.000 
#
# Total GULP energy -183735.548860 kJ/mol
# GULP energy per Si atom -5567.743905 kJ/mol
# Density = 2.069123 g / cm^3
# Si number density = 20.738434 Si / 1000 Ang^3
#
#
#
# Elastic Constant Matrix: (Units=GPa)
#
#
# Indices 1 2 3 4 5 6 
#
# 1 179.2885 31.0590 81.7256 0.0000 0.0000 0.0000
# 2 31.0590 56.8295 -8.4580 0.0000 0.0000 0.0000
# 3 81.7256 -8.4580 111.7648 0.0000 0.0000 0.0000
# 4 0.0000 0.0000 0.0000 169.9245 0.0000 0.0000
# 5 0.0000 0.0000 0.0000 0.0000 22.5306 0.0000
# 6 0.0000 0.0000 0.0000 0.0000 0.0000 20.6556
#
#
#
# Elastic Compliance Matrix: (Units=1/GPa)
#
#
# Indices 1 2 3 4 5 6 
#
# 1 0.010544 -0.006989 -0.008239 0.000000 0.000000 0.000000
# 2 -0.006989 0.022429 0.006808 0.000000 0.000000 0.000000
# 3 -0.008239 0.006808 0.015487 0.000000 0.000000 0.000000
# 4 0.000000 0.000000 0.000000 0.005885 0.000000 0.000000
# 5 0.000000 0.000000 0.000000 0.000000 0.044384 0.000000
# 6 0.000000 0.000000 0.000000 0.000000 0.000000 0.048413
#
#
# Mechanical properties :
#
#
# Convention : Reuss Voigt Hill
#
# Bulk Modulus (GPa) = 31.62514 61.83735 46.73125
# Shear Modulus (GPa) = 28.64969 58.85920 43.75445
#
# Velocity S-wave (km/s) = 3.72086 5.33323 4.59827
# Velocity P-wave (km/s) = 5.80881 8.23449 7.12563
#
# Compressibility (1/GPa) = 0.03162041
#
# Stress axis : x y z
#
# Youngs Moduli (GPa) = 94.84233 44.58468 64.57027
#
# Poissons Ratio (x) = 0.31159 0.53198
# Poissons Ratio (y) = 0.66283 -0.43958
# Poissons Ratio (z) = 0.78139 -0.30352
#
# Static dielectric constant tensor:
#      x y z
#    x 1.745400 0.000000 0.000000 
#    y 0.000000 1.781750 0.000000 
#    z 0.000000 0.000000 1.753730 
# 
# From -- ./inp_files/58987.got.cif
#   From: 2010.05.17/outbox.cif.g08.bks.cpg/sg65_30_cif.got.tgz:58987.got - 2010.06.03 17:01:31.
