data_PCOD9494727
_publ_section_title
;
Structure prediction by ZEFSAII (Michael W. Deem and Ramdas Pophale) SiO2 
 PCOD9494727
Probable space group: C M M M
;
_chemical_formula_sum "Si O2"
_cell_formula_units_Z 48
_cell_length_a 21.000000
_cell_length_b 27.000000
_cell_length_c 9.000000
_cell_angle_alpha 90.000000
_cell_angle_beta 90.000000
_cell_angle_gamma 90.000000
_cell_volume 5103.000000
_symmetry_space_group_name_H-M "C M M M"
_symmetry_group_IT_number 65
_symmetry_cell_setting 'orthorhombic'
loop_
_space_group_symop_operation_xyz
x,y,z
-x,-y,z
x,-y,-z
-x,y,-z
-x,-y,-z
x,y,-z
-x,y,z
x,-y,z
1/2+x,1/2+y,z
1/2-x,1/2-y,z
1/2+x,1/2-y,-z
1/2-x,1/2+y,-z
1/2-x,1/2-y,-z
1/2+x,1/2+y,-z
1/2-x,1/2+y,z
1/2+x,1/2-y,z
loop_
_atom_site_type_symbol
_atom_site_label
_atom_site_fract_x
_atom_site_fract_y
_atom_site_fract_z
Si Si1 0.925379 0.294221 0.179626
Si Si2 0.070188 0.441348 0.667057
Si Si3 0.832252 0.384046 0.174030
Si Si4 0.819939 0.767959 0.328876
Si Si5 0.070810 0.058467 0.680197
Si Si6 0.303908 0.614925 0.670748
O O1 0.879958 0.340145 0.227648
O O2 0.882082 0.249551 0.240263
O O3 0.000000 0.295340 0.228632
O O4 0.926721 0.293872 0.000000
O O5 0.085282 0.422420 0.500000
O O6 0.065110 0.500000 0.655590
O O7 0.124652 0.430293 0.783407
O O8 0.000000 0.421883 0.710926
O O9 0.763651 0.389107 0.248214
O O10 0.823023 0.377329 0.000000
O O11 0.824177 0.749536 0.500000
O O12 0.750000 0.750000 0.270670
O O13 0.819102 0.826962 0.330266
O O14 0.070488 0.063805 0.500000
O O15 0.134218 0.086446 0.733955
O O16 0.000000 0.075441 0.731531
O O17 0.075883 0.000000 0.712657
O O18 0.294923 0.598048 0.500000
#
# Coordination Sequence:
#
# PCOD9494727 Si02
#       6
#    16  16  16  16  16  16
#     4  10  22  38  55  77 106 143 185 224 268 327
#     4   9  19  36  56  77 103 138 180 225 272 320
#     4  11  22  35  53  78 110 145 180 221 269 321
#     4  10  20  35  54  78 108 141 179 225 277 326
#     4   8  15  30  53  80 107 135 171 219 274 326
#     4  10  20  34  55  81 109 140 179 222 268 327
#
# _framework density 9.4062319999999993
#
# number of rings (size 3 to 8) (size 9 to 14) (size 15 to 20)
#    0.000    2.333    1.667    2.000    0.000    4.667 
#    0.000    4.167    0.000    0.500    0.000    1.167 
#    0.000    0.000    0.000    0.000    0.000    0.000 
#
# Total GULP energy -267210.338125 kJ/mol
# GULP energy per Si atom -5566.882044 kJ/mol
# Density = 0.938482 g / cm^3
# Si number density = 9.406232 Si / 1000 Ang^3
#
#
#
# Elastic Constant Matrix: (Units=GPa)
#
#
# Indices 1 2 3 4 5 6 
#
# 1 208.9289 46.1610 40.5086 0.0000 0.0000 0.0000
# 2 46.1610 36.1419 8.9715 0.0000 0.0000 0.0000
# 3 40.5086 8.9715 12.1241 0.0000 0.0000 0.0000
# 4 0.0000 0.0000 0.0000 8.8032 0.0000 0.0000
# 5 0.0000 0.0000 0.0000 0.0000 15.8696 0.0000
# 6 0.0000 0.0000 0.0000 0.0000 0.0000 33.2360
#
#
#
# Elastic Compliance Matrix: (Units=1/GPa)
#
#
# Indices 1 2 3 4 5 6 
#
# 1 0.015455 -0.008479 -0.045364 0.000000 0.000000 0.000000
# 2 -0.008479 0.038546 -0.000194 0.000000 0.000000 0.000000
# 3 -0.045364 -0.000194 0.234194 0.000000 0.000000 0.000000
# 4 0.000000 0.000000 0.000000 0.113595 0.000000 0.000000
# 5 0.000000 0.000000 0.000000 0.000000 0.063014 0.000000
# 6 0.000000 0.000000 0.000000 0.000000 0.000000 0.030088
#
#
# Mechanical properties :
#
#
# Convention : Reuss Voigt Hill
#
# Bulk Modulus (GPa) = 5.55180 49.83077 27.69128
# Shear Modulus (GPa) = 7.54140 22.35200 14.94670
#
# Velocity S-wave (km/s) = 2.00435 3.45069 2.82176
# Velocity P-wave (km/s) = 2.88342 6.51322 5.03667
#
# Compressibility (1/GPa) = 0.18012178
#
# Stress axis : x y z
#
# Youngs Moduli (GPa) = 64.70301 25.94288 4.26996
#
# Poissons Ratio (x) = 0.21997 0.19370
# Poissons Ratio (y) = 0.54861 0.00083
# Poissons Ratio (z) = 2.93522 0.00502
#
# Static dielectric constant tensor:
#      x y z
#    x 1.667360 0.000000 0.000000 
#    y 0.000000 1.737050 0.000000 
#    z 0.000000 0.000000 1.677200 
# 
# From -- ./inp_files/12226.got.cif
#   From: 2010.05.17/outbox.ucp.g08.bks.cvg/sg65_7_cif.got.tgz:12226.got - 2010.06.11 16:39:57.
