data_PCOD9494901
_publ_section_title
;
Structure prediction by ZEFSAII (Michael W. Deem and Ramdas Pophale) SiO2 
 PCOD9494901
Probable space group: C C C M
;
_chemical_formula_sum "Si O2"
_cell_formula_units_Z 96
_cell_length_a 14.266847
_cell_length_b 20.576996
_cell_length_c 16.802574
_cell_angle_alpha 90.000000
_cell_angle_beta 90.000000
_cell_angle_gamma 90.000000
_cell_volume 4932.712388
_symmetry_space_group_name_H-M "C C C M"
_symmetry_group_IT_number 66
_symmetry_cell_setting 'orthorhombic'
loop_
_space_group_symop_operation_xyz
x,y,z
-x,-y,z
x,-y,1/2-z
-x,y,1/2-z
-x,-y,-z
x,y,-z
-x,y,1/2+z
x,-y,1/2+z
1/2+x,1/2+y,z
1/2-x,1/2-y,z
1/2+x,1/2-y,1/2-z
1/2-x,1/2+y,1/2-z
1/2-x,1/2-y,-z
1/2+x,1/2+y,-z
1/2-x,1/2+y,1/2+z
1/2+x,1/2-y,1/2+z
loop_
_atom_site_type_symbol
_atom_site_label
_atom_site_fract_x
_atom_site_fract_y
_atom_site_fract_z
Si Si1 0.863040 0.252025 0.909809
Si Si2 0.862012 0.762800 0.913427
Si Si3 0.658736 0.201429 0.743753
Si Si4 0.239961 0.067962 0.774072
Si Si5 0.066287 0.123379 0.324280
Si Si6 0.397882 0.418282 0.910669
O O1 0.750000 0.250000 0.914836
O O2 0.883725 0.296692 0.832389
O O3 0.902575 0.182218 0.881090
O O4 0.894810 0.267870 0.000000
O O5 0.750000 0.750000 0.913859
O O6 0.896918 0.729819 0.832126
O O7 0.881257 0.839598 0.909784
O O8 0.896186 0.739118 0.000000
O O9 0.750000 0.250000 0.749334
O O10 0.692691 0.129618 0.722051
O O11 0.157574 0.090168 0.713143
O O12 0.184359 0.055719 0.855738
O O13 0.284949 0.000000 0.750000
O O14 0.000000 0.145103 0.250000
O O15 0.000278 0.074675 0.372759
O O16 0.393450 0.442035 0.000000
#
# Coordination Sequence:
#
# PCOD9494901 Si02
#       6
#    16  16  16  16  16  16
#     4  10  18  30  51  72  91 128 177 211 241 285
#     4   9  15  26  51  74  88 114 155 208 258 297
#     4  10  15  31  51  69  85 122 164 205 251 283
#     4  11  21  33  47  66  97 133 171 202 236 287
#     4  10  19  32  47  69  99 135 165 201 246 287
#     4  10  19  31  48  71  96 126 165 204 243 292
#
# _framework density 19.461908000000001
#
# number of rings (size 3 to 8) (size 9 to 14) (size 15 to 20)
#    0.000    2.000    6.667    1.500    0.000    3.000 
#    0.000    3.333    0.000    0.000    0.000    0.000 
#    0.000    6.000    0.000   10.000    0.000    0.000 
#
# Total GULP energy -267598.425316 kJ/mol
# GULP energy per Si atom -5574.967194 kJ/mol
# Density = 1.941761 g / cm^3
# Si number density = 19.461908 Si / 1000 Ang^3
#
#
#
# Elastic Constant Matrix: (Units=GPa)
#
#
# Indices 1 2 3 4 5 6 
#
# 1 45.2865 -0.8866 -6.0818 0.0000 0.0000 0.0000
# 2 -0.8866 59.5365 -1.6280 0.0000 0.0000 0.0000
# 3 -6.0818 -1.6280 162.6069 0.0000 0.0000 0.0000
# 4 0.0000 0.0000 0.0000 39.4063 0.0000 0.0000
# 5 0.0000 0.0000 0.0000 0.0000 -6.3246 0.0000
# 6 0.0000 0.0000 0.0000 0.0000 0.0000 3.7843
#
#
#
# Elastic Compliance Matrix: (Units=1/GPa)
#
#
# Indices 1 2 3 4 5 6 
#
# 1 0.022201 0.000353 0.000834 0.000000 0.000000 0.000000
# 2 0.000353 0.016807 0.000181 0.000000 0.000000 0.000000
# 3 0.000834 0.000181 0.006183 0.000000 0.000000 0.000000
# 4 0.000000 0.000000 0.000000 0.025377 0.000000 0.000000
# 5 0.000000 0.000000 0.000000 0.000000 -0.158113 0.000000
# 6 0.000000 0.000000 0.000000 0.000000 0.000000 0.264252
#
#
# Mechanical properties :
#
#
# Convention : Reuss Voigt Hill
#
# Bulk Modulus (GPa) = 20.86482 27.80411 24.33447
# Shear Modulus (GPa) = 26.32366 25.77495 26.04931
#
# Velocity S-wave (km/s) = 3.68173 3.64315 3.66249
# Velocity P-wave (km/s) = 5.36820 5.65811 5.51506
#
# Compressibility (1/GPa) = 0.04792756
#
# Stress axis : x y z
#
# Youngs Moduli (GPa) = 45.04397 59.50023 161.73885
#
# Poissons Ratio (x) = -0.02103 -0.13487
# Poissons Ratio (y) = -0.01592 -0.02935
# Poissons Ratio (z) = -0.03756 -0.01080
#
# Static dielectric constant tensor:
#      x y z
#    x 1.698390 0.000000 0.000000 
#    y 0.000000 1.669710 0.000000 
#    z 0.000000 0.000000 1.765970 
# 
# From -- ./inp_files/41722.got.cif
#   From: 2010.05.17/outbox.cif.g08.bks.cpg/sg66_21_cif.got.tgz:41722.got - 2010.06.03 17:51:23.
