data_PCOD9494883
_publ_section_title
;
Structure prediction by ZEFSAII (Michael W. Deem and Ramdas Pophale) SiO2 
 PCOD9494883
Probable space group: C C C M
;
_chemical_formula_sum "Si O2"
_cell_formula_units_Z 88
_cell_length_a 7.368945
_cell_length_b 21.128052
_cell_length_c 22.883092
_cell_angle_alpha 90.000000
_cell_angle_beta 90.000000
_cell_angle_gamma 90.000000
_cell_volume 3562.701846
_symmetry_space_group_name_H-M "C C C M"
_symmetry_group_IT_number 66
_symmetry_cell_setting 'orthorhombic'
loop_
_space_group_symop_operation_xyz
x,y,z
-x,-y,z
x,-y,1/2-z
-x,y,1/2-z
-x,-y,-z
x,y,-z
-x,y,1/2+z
x,-y,1/2+z
1/2+x,1/2+y,z
1/2-x,1/2-y,z
1/2+x,1/2-y,1/2-z
1/2-x,1/2+y,1/2-z
1/2-x,1/2-y,-z
1/2+x,1/2+y,-z
1/2-x,1/2+y,1/2+z
1/2+x,1/2-y,1/2+z
loop_
_atom_site_type_symbol
_atom_site_label
_atom_site_fract_x
_atom_site_fract_y
_atom_site_fract_z
Si Si1 0.454602 0.855791 0.817615
Si Si2 0.464993 0.731307 0.626244
Si Si3 0.475104 0.779468 0.000000
Si Si4 0.703547 0.029262 0.125153
Si Si5 0.667134 0.917183 0.500000
Si Si6 0.258682 0.110527 0.000000
Si Si7 0.165170 0.101143 0.870995
O O1 0.500000 0.860007 0.750000
O O2 0.428037 0.783207 0.835964
O O3 0.308912 0.908722 0.834837
O O4 0.632399 0.875064 0.855047
O O5 0.250000 0.750000 0.627777
O O6 0.532059 0.740888 0.559817
O O7 0.464650 0.658686 0.647466
O O8 0.336226 0.839908 0.000000
O O9 0.833409 0.682278 0.000000
O O10 0.500000 0.000000 0.124149
O O11 0.828443 0.971848 0.147461
O O12 0.743912 0.053648 0.059530
O O13 0.447261 0.928701 0.500000
O O14 0.153708 0.098641 0.941112
#
# Coordination Sequence:
#
# PCOD9494883 Si02
#       7
#    16  16   8  16   8   8  16
#     4  10  18  25  34  46  70 106 142 174 202 248
#     4  10  15  25  34  51  69  99 139 176 216 251
#     4  10  12  20  36  50  68  98 133 175 212 255
#     4  10  15  23  31  48  68  99 132 169 214 249
#     4  10  12  20  32  48  70  98 129 174 206 254
#     4  10  12  22  32  54  68  98 133 171 215 254
#     4  10  18  22  36  50  72  99 137 180 213 255
#
# _framework density 24.700355999999999
#
# number of rings (size 3 to 8) (size 9 to 14) (size 15 to 20)
#    0.545    1.455    9.091    1.636    0.000    3.273 
#    0.000    0.000    0.000    0.000    0.000    0.000 
#    0.000    0.000    0.000   95.727    0.000   18.000 
#
# Total GULP energy -245737.404300 kJ/mol
# GULP energy per Si atom -5584.941007 kJ/mol
# Density = 2.464414 g / cm^3
# Si number density = 24.700356 Si / 1000 Ang^3
#
#
#
# Elastic Constant Matrix: (Units=GPa)
#
#
# Indices 1 2 3 4 5 6 
#
# 1 58.5670 78.3641 -9.9523 0.0000 0.0000 0.0000
# 2 78.3641 259.8418 64.1007 0.0000 0.0000 0.0000
# 3 -9.9523 64.1007 79.9131 0.0000 0.0000 0.0000
# 4 0.0000 0.0000 0.0000 2.8561 0.0000 0.0000
# 5 0.0000 0.0000 0.0000 0.0000 -23.5992 0.0000
# 6 0.0000 0.0000 0.0000 0.0000 0.0000 35.3375
#
#
#
# Elastic Compliance Matrix: (Units=1/GPa)
#
#
# Indices 1 2 3 4 5 6 
#
# 1 0.046392 -0.019220 0.021194 0.000000 0.000000 0.000000
# 2 -0.019220 0.012760 -0.012629 0.000000 0.000000 0.000000
# 3 0.021194 -0.012629 0.025283 0.000000 0.000000 0.000000
# 4 0.000000 0.000000 0.000000 0.350128 0.000000 0.000000
# 5 0.000000 0.000000 0.000000 0.000000 -0.042374 0.000000
# 6 0.000000 0.000000 0.000000 0.000000 0.000000 0.028299
#
#
# Mechanical properties :
#
#
# Convention : Reuss Voigt Hill
#
# Bulk Modulus (GPa) = 15.84104 73.70521 44.77313
# Shear Modulus (GPa) = 10.80290 20.63951 15.72120
#
# Velocity S-wave (km/s) = 2.09358 2.89380 2.52559
# Velocity P-wave (km/s) = 3.50304 6.40859 5.16436
#
# Compressibility (1/GPa) = 0.06312715
#
# Stress axis : x y z
#
# Youngs Moduli (GPa) = 21.55528 78.36810 39.55195
#
# Poissons Ratio (x) = 1.50621 -0.83828
# Poissons Ratio (y) = 0.41428 0.49950
# Poissons Ratio (z) = -0.45685 0.98971
#
# Static dielectric constant tensor:
#      x y z
#    x 1.965430 0.000000 0.000000 
#    y 0.000000 2.043970 0.000000 
#    z 0.000000 0.000000 1.839290 
# 
# From -- ./inp_files/50032.got.cif
#   From: 2010.05.17/outbox.cif.g08.bks.cpg/sg66_26_cif.got.tgz:50032.got - 2010.06.03 17:51:23.
