data_PCOD9494189
_publ_section_title
;
Structure prediction by ZEFSAII (Michael W. Deem and Ramdas Pophale) SiO2 
 PCOD9494189
Probable space group: C M M M
;
_chemical_formula_sum "Si O2"
_cell_formula_units_Z 88
_cell_length_a 10.443546
_cell_length_b 14.432241
_cell_length_c 29.224952
_cell_angle_alpha 90.000000
_cell_angle_beta 90.000000
_cell_angle_gamma 90.000000
_cell_volume 4404.895024
_symmetry_space_group_name_H-M "C M M M"
_symmetry_group_IT_number 65
_symmetry_cell_setting 'orthorhombic'
loop_
_space_group_symop_operation_xyz
x,y,z
-x,-y,z
x,-y,-z
-x,y,-z
-x,-y,-z
x,y,-z
-x,y,z
x,-y,z
1/2+x,1/2+y,z
1/2-x,1/2-y,z
1/2+x,1/2-y,-z
1/2-x,1/2+y,-z
1/2-x,1/2-y,-z
1/2+x,1/2+y,-z
1/2-x,1/2+y,z
1/2+x,1/2-y,z
loop_
_atom_site_type_symbol
_atom_site_label
_atom_site_fract_x
_atom_site_fract_y
_atom_site_fract_z
Si Si1 0.353934 0.387082 0.324655
Si Si2 0.854918 0.886854 0.779632
Si Si3 0.641158 0.108440 0.848855
Si Si4 0.352288 0.113634 0.399635
Si Si5 0.351581 0.832459 0.950360
Si Si6 0.155371 0.606043 0.500000
O O1 0.500000 0.357950 0.335512
O O2 0.354372 0.500000 0.325172
O O3 0.323699 0.359125 0.272478
O O4 0.247394 0.357605 0.360883
O O5 0.752962 0.854269 0.816822
O O6 0.000000 0.857644 0.790052
O O7 0.855755 0.000000 0.780077
O O8 0.500000 0.149836 0.840686
O O9 0.669147 0.114744 0.902951
O O10 0.632590 0.000000 0.837686
O O11 0.500000 0.141211 0.390906
O O12 0.310622 0.145924 0.450459
O O13 0.352894 0.000000 0.400954
O O14 0.500000 0.799933 0.948900
O O15 0.250000 0.750000 0.950128
O O16 0.337288 0.881341 0.000000
O O17 0.203415 0.500000 0.500000
O O18 0.000000 0.602676 0.500000
#
# Coordination Sequence:
#
# PCOD9494189 Si02
#       6
#    16  16  16  16  16   8
#     4   8  13  20  28  39  57  80 106 138 178 223
#     4   8  14  24  36  50  71  98 123 150 190 237
#     4   9  17  28  43  64  86 106 132 168 205 238
#     4   8  12  17  25  35  47  68 100 137 177 220
#     4   9  18  32  48  65  86 112 139 166 198 237
#     4   7  10  16  23  31  45  65  93 133 178 219
#
# _framework density 19.977775999999999
#
# number of rings (size 3 to 8) (size 9 to 14) (size 15 to 20)
#    0.000    3.727    0.000    2.182    0.000    1.818 
#    0.000    5.909    0.000    2.727    0.000    5.091 
#    0.000    0.000    0.000    0.000    0.000    0.000 
#
# Total GULP energy -244943.615943 kJ/mol
# GULP energy per Si atom -5566.900362 kJ/mol
# Density = 1.993231 g / cm^3
# Si number density = 19.977776 Si / 1000 Ang^3
#
#
#
# Elastic Constant Matrix: (Units=GPa)
#
#
# Indices 1 2 3 4 5 6 
#
# 1 127.2068 14.8425 134.6750 0.0000 0.0000 0.0000
# 2 14.8425 45.1905 11.3346 0.0000 0.0000 0.0000
# 3 134.6750 11.3346 193.0702 0.0000 0.0000 0.0000
# 4 0.0000 0.0000 0.0000 -84.3078 0.0000 0.0000
# 5 0.0000 0.0000 0.0000 0.0000 61.1750 0.0000
# 6 0.0000 0.0000 0.0000 0.0000 0.0000 -0.9449
#
#
#
# Elastic Compliance Matrix: (Units=1/GPa)
#
#
# Indices 1 2 3 4 5 6 
#
# 1 0.031071 -0.004840 -0.021389 0.000000 0.000000 0.000000
# 2 -0.004840 0.023213 0.002013 0.000000 0.000000 0.000000
# 3 -0.021389 0.002013 0.019981 0.000000 0.000000 0.000000
# 4 0.000000 0.000000 0.000000 -0.011861 0.000000 0.000000
# 5 0.000000 0.000000 0.000000 0.000000 0.016347 0.000000
# 6 0.000000 0.000000 0.000000 0.000000 0.000000 -1.058291
#
#
# Mechanical properties :
#
#
# Convention : Reuss Voigt Hill
#
# Bulk Modulus (GPa) = 38.70944 76.35241 57.53093
# Shear Modulus (GPa) = -5.42007 8.82549 1.70271
#
# Velocity S-wave (km/s) = -1.64892 2.10410 0.92420
# Velocity P-wave (km/s) = 3.97405 6.64866 5.47712
#
# Compressibility (1/GPa) = 0.02583349
#
# Stress axis : x y z
#
# Youngs Moduli (GPa) = 32.18462 43.07885 50.04739
#
# Poissons Ratio (x) = 0.20851 1.07047
# Poissons Ratio (y) = 0.15578 -0.10077
# Poissons Ratio (z) = 0.68840 -0.08674
#
# Static dielectric constant tensor:
#      x y z
#    x 1.691860 0.000000 0.000000 
#    y 0.000000 1.747470 0.000000 
#    z 0.000000 0.000000 1.724620 
# 
# From -- ./inp_files/61474.got.cif
#   From: 2010.05.17/outbox.cif.g08.bks.cpg/sg65_31_cif.got.tgz:61474.got - 2010.06.03 17:01:31.
