data_PCOD9494752
_publ_section_title
;
Structure prediction by ZEFSAII (Michael W. Deem and Ramdas Pophale) SiO2 
 PCOD9494752
Probable space group: C M M M
;
_chemical_formula_sum "Si O2"
_cell_formula_units_Z 36
_cell_length_a 21.000000
_cell_length_b 21.000000
_cell_length_c 9.000000
_cell_angle_alpha 90.000000
_cell_angle_beta 90.000000
_cell_angle_gamma 90.000000
_cell_volume 3969.000000
_symmetry_space_group_name_H-M "C M M M"
_symmetry_group_IT_number 65
_symmetry_cell_setting 'orthorhombic'
loop_
_space_group_symop_operation_xyz
x,y,z
-x,-y,z
x,-y,-z
-x,y,-z
-x,-y,-z
x,y,-z
-x,y,z
x,-y,z
1/2+x,1/2+y,z
1/2-x,1/2-y,z
1/2+x,1/2-y,-z
1/2-x,1/2+y,-z
1/2-x,1/2-y,-z
1/2+x,1/2+y,-z
1/2-x,1/2+y,z
1/2+x,1/2-y,z
loop_
_atom_site_type_symbol
_atom_site_label
_atom_site_fract_x
_atom_site_fract_y
_atom_site_fract_z
Si Si1 0.000000 0.575900 0.821122
Si Si2 0.425174 0.688209 0.170394
Si Si3 0.333561 0.574964 0.179427
Si Si4 0.093817 0.324698 0.671199
Si Si5 0.742936 0.176454 0.671571
O O1 0.941632 0.618849 0.759227
O O2 0.000000 0.500000 0.777537
O O3 0.000000 0.577544 0.000000
O O4 0.500000 0.677134 0.168946
O O5 0.391999 0.622511 0.221645
O O6 0.414555 0.753583 0.260990
O O7 0.403320 0.700272 0.000000
O O8 0.335537 0.500000 0.229201
O O9 0.276535 0.619134 0.241110
O O10 0.330995 0.572533 0.000000
O O11 0.072161 0.324074 0.500000
O O12 0.168551 0.337294 0.672029
O O13 0.767028 0.177397 0.500000
O O14 0.750000 0.250000 0.728631
#
# Coordination Sequence:
#
# PCOD9494752 Si02
#       5
#     8  16  16  16  16
#     4  11  25  43  61  85 120 155 188 235 293 348
#     4  10  20  35  58  86 116 153 195 237 286 344
#     4  10  22  38  57  86 121 155 194 241 290 342
#     4  11  22  37  61  88 115 150 194 242 286 341
#     4  10  21  38  59  85 116 152 195 240 290 346
#
# _framework density 9.0702949999999998
#
# number of rings (size 3 to 8) (size 9 to 14) (size 15 to 20)
#    0.000    1.667    3.333    1.000    0.000    4.889 
#    0.000    6.667    0.000    0.000    0.000    3.111 
#    0.000    0.000    0.000    0.000    0.000    0.000 
#
# Total GULP energy -200490.742619 kJ/mol
# GULP energy per Si atom -5569.187295 kJ/mol
# Density = 0.904965 g / cm^3
# Si number density = 9.070295 Si / 1000 Ang^3
#
#
#
# Elastic Constant Matrix: (Units=GPa)
#
#
# Indices 1 2 3 4 5 6 
#
# 1 89.6156 55.5373 29.0062 0.0000 0.0000 0.0000
# 2 55.5373 220.0011 61.7621 0.0000 0.0000 0.0000
# 3 29.0062 61.7621 56.2689 0.0000 0.0000 0.0000
# 4 0.0000 0.0000 0.0000 27.3067 0.0000 0.0000
# 5 0.0000 0.0000 0.0000 0.0000 13.8158 0.0000
# 6 0.0000 0.0000 0.0000 0.0000 0.0000 31.4312
#
#
#
# Elastic Compliance Matrix: (Units=1/GPa)
#
#
# Indices 1 2 3 4 5 6 
#
# 1 0.014090 -0.002194 -0.004855 0.000000 0.000000 0.000000
# 2 -0.002194 0.006911 -0.006455 0.000000 0.000000 0.000000
# 3 -0.004855 -0.006455 0.027360 0.000000 0.000000 0.000000
# 4 0.000000 0.000000 0.000000 0.036621 0.000000 0.000000
# 5 0.000000 0.000000 0.000000 0.000000 0.072381 0.000000
# 6 0.000000 0.000000 0.000000 0.000000 0.000000 0.031815
#
#
# Mechanical properties :
#
#
# Convention : Reuss Voigt Hill
#
# Bulk Modulus (GPa) = 46.83234 73.16631 59.99933
# Shear Modulus (GPa) = 22.39090 29.14943 25.77016
#
# Velocity S-wave (km/s) = 3.51707 4.01292 3.77315
# Velocity P-wave (km/s) = 6.50887 7.86714 7.22002
#
# Compressibility (1/GPa) = 0.02135276
#
# Stress axis : x y z
#
# Youngs Moduli (GPa) = 70.97306 144.68701 36.54949
#
# Poissons Ratio (x) = 0.31742 0.17746
# Poissons Ratio (y) = 0.15570 0.23594
# Poissons Ratio (z) = 0.34459 0.93400
#
# Static dielectric constant tensor:
#      x y z
#    x 1.705820 0.000000 0.000000 
#    y 0.000000 1.589490 0.000000 
#    z 0.000000 0.000000 1.655670 
# 
# From -- ./inp_files/9221.got.cif
#   From: 2010.05.17/outbox.ucp.g08.bks.cvg/sg65_5_cif.got.tgz:9221.got - 2010.06.11 16:39:57.
