data_PCOD9494801
_publ_section_title
;
Structure prediction by ZEFSAII (Michael W. Deem and Ramdas Pophale) SiO2 
 PCOD9494801
Probable space group: C M M M
;
_chemical_formula_sum "Si O2"
_cell_formula_units_Z 44
_cell_length_a 9.000000
_cell_length_b 21.000000
_cell_length_c 27.000000
_cell_angle_alpha 90.000000
_cell_angle_beta 90.000000
_cell_angle_gamma 90.000000
_cell_volume 5103.000000
_symmetry_space_group_name_H-M "C M M M"
_symmetry_group_IT_number 65
_symmetry_cell_setting 'orthorhombic'
loop_
_space_group_symop_operation_xyz
x,y,z
-x,-y,z
x,-y,-z
-x,y,-z
-x,-y,-z
x,y,-z
-x,y,z
x,-y,z
1/2+x,1/2+y,z
1/2-x,1/2-y,z
1/2+x,1/2-y,-z
1/2-x,1/2+y,-z
1/2-x,1/2-y,-z
1/2+x,1/2+y,-z
1/2-x,1/2+y,z
1/2+x,1/2-y,z
loop_
_atom_site_type_symbol
_atom_site_label
_atom_site_fract_x
_atom_site_fract_y
_atom_site_fract_z
Si Si1 0.826154 0.572377 0.230169
Si Si2 0.822607 0.820319 0.707122
Si Si3 0.672925 0.928627 0.111243
Si Si4 0.179013 0.679289 0.606695
Si Si5 0.175967 0.185876 0.942566
Si Si6 0.822447 0.680045 0.500000
O O1 0.784154 0.500000 0.245559
O O2 0.727763 0.628542 0.252364
O O3 0.817896 0.574226 0.170672
O O4 0.000000 0.582120 0.243914
O O5 0.750000 0.750000 0.715135
O O6 0.756171 0.847509 0.655429
O O7 0.000000 0.813377 0.704523
O O8 0.500000 0.918617 0.097789
O O9 0.771688 0.875182 0.086960
O O10 0.715766 0.000000 0.095672
O O11 0.250000 0.750000 0.604065
O O12 0.213665 0.648815 0.552988
O O13 0.000000 0.682466 0.612944
O O14 0.250000 0.250000 0.922354
O O15 0.000000 0.192744 0.940925
O O16 0.222833 0.179046 0.000000
O O17 0.750000 0.750000 0.500000
O O18 0.000000 0.689342 0.500000
#
# Coordination Sequence:
#
# PCOD9494801 Si02
#       6
#    16  16  16  16  16   8
#     4   9  19  37  57  75  98 129 165 205 250 299
#     4  11  21  32  48  72 101 132 167 205 247 294
#     4   9  19  36  57  79 102 130 165 205 249 297
#     4   9  15  25  40  61  91 124 159 199 244 291
#     4  10  21  36  54  77 106 139 172 206 245 290
#     4   8  14  22  36  58  85 120 157 194 239 291
#
# _framework density 8.6223790000000005
#
# number of rings (size 3 to 8) (size 9 to 14) (size 15 to 20)
#    0.000    2.545    0.000    4.909    0.000    4.364 
#    0.000    3.636    0.000    0.000    0.000    0.636 
#    0.000    5.091    0.000    0.000    0.000    0.000 
#
# Total GULP energy -245030.398946 kJ/mol
# GULP energy per Si atom -5568.872703 kJ/mol
# Density = 0.860275 g / cm^3
# Si number density = 8.622379 Si / 1000 Ang^3
#
#
#
# Elastic Constant Matrix: (Units=GPa)
#
#
# Indices 1 2 3 4 5 6 
#
# 1 79.8113 47.2380 29.9451 0.0000 0.0000 0.0000
# 2 47.2380 76.3629 32.6666 0.0000 0.0000 0.0000
# 3 29.9451 32.6666 29.7261 0.0000 0.0000 0.0000
# 4 0.0000 0.0000 0.0000 9.1363 0.0000 0.0000
# 5 0.0000 0.0000 0.0000 0.0000 27.1916 0.0000
# 6 0.0000 0.0000 0.0000 0.0000 0.0000 26.8822
#
#
#
# Elastic Compliance Matrix: (Units=1/GPa)
#
#
# Indices 1 2 3 4 5 6 
#
# 1 0.022436 -0.007946 -0.013870 0.000000 0.000000 0.000000
# 2 -0.007946 0.027527 -0.022245 0.000000 0.000000 0.000000
# 3 -0.013870 -0.022245 0.072058 0.000000 0.000000 0.000000
# 4 0.000000 0.000000 0.000000 0.109453 0.000000 0.000000
# 5 0.000000 0.000000 0.000000 0.000000 0.036776 0.000000
# 6 0.000000 0.000000 0.000000 0.000000 0.000000 0.037199
#
#
# Mechanical properties :
#
#
# Convention : Reuss Voigt Hill
#
# Bulk Modulus (GPa) = 29.49900 45.06663 37.28281
# Shear Modulus (GPa) = 12.34959 17.71207 15.03083
#
# Velocity S-wave (km/s) = 2.67897 3.20832 2.95552
# Velocity P-wave (km/s) = 5.16840 6.31780 5.77179
#
# Compressibility (1/GPa) = 0.03389946
#
# Stress axis : x y z
#
# Youngs Moduli (GPa) = 44.57039 36.32817 13.87765
#
# Poissons Ratio (x) = 0.28866 0.19248
# Poissons Ratio (y) = 0.35415 0.30871
# Poissons Ratio (z) = 0.61818 0.80813
#
# Static dielectric constant tensor:
#      x y z
#    x 1.583240 0.000000 0.000000 
#    y 0.000000 1.559520 0.000000 
#    z 0.000000 0.000000 1.647330 
# 
# From -- ./inp_files/73095.got.cif
#   From: 2010.05.17/outbox.ucp.g08.bks.cvg/sg65_37_cif.got.tgz:73095.got - 2010.06.11 16:39:57.
