data_PCOD9494892
_publ_section_title
;
Structure prediction by ZEFSAII (Michael W. Deem and Ramdas Pophale) SiO2 
 PCOD9494892
Probable space group: C C C M
;
_chemical_formula_sum "Si O2"
_cell_formula_units_Z 120
_cell_length_a 26.994919
_cell_length_b 9.820636
_cell_length_c 20.275514
_cell_angle_alpha 90.000000
_cell_angle_beta 90.000000
_cell_angle_gamma 90.000000
_cell_volume 5375.186232
_symmetry_space_group_name_H-M "C C C M"
_symmetry_group_IT_number 66
_symmetry_cell_setting 'orthorhombic'
loop_
_space_group_symop_operation_xyz
x,y,z
-x,-y,z
x,-y,1/2-z
-x,y,1/2-z
-x,-y,-z
x,y,-z
-x,y,1/2+z
x,-y,1/2+z
1/2+x,1/2+y,z
1/2-x,1/2-y,z
1/2+x,1/2-y,1/2-z
1/2-x,1/2+y,1/2-z
1/2-x,1/2-y,-z
1/2+x,1/2+y,-z
1/2-x,1/2+y,1/2+z
1/2+x,1/2-y,1/2+z
loop_
_atom_site_type_symbol
_atom_site_label
_atom_site_fract_x
_atom_site_fract_y
_atom_site_fract_z
Si Si1 0.557859 0.379934 0.134839
Si Si2 0.873533 0.000000 0.750000
Si Si3 0.863960 0.271553 0.925555
Si Si4 0.853724 0.712542 0.074577
Si Si5 0.702711 0.500685 0.572928
Si Si6 0.958231 0.845385 0.074053
Si Si7 0.308772 0.230431 0.209772
Si Si8 0.716640 0.112717 0.154610
O O1 0.588348 0.444447 0.194965
O O2 0.587253 0.244842 0.116619
O O3 0.499741 0.342661 0.131376
O O4 0.561230 0.499051 0.079483
O O5 0.838535 0.127789 0.727178
O O6 0.825815 0.380374 0.899462
O O7 0.835260 0.126056 0.919408
O O8 0.877293 0.295300 0.000000
O O9 0.825840 0.859229 0.072496
O O10 0.911999 0.745334 0.082216
O O11 0.833381 0.662014 0.145303
O O12 0.845760 0.653647 0.000000
O O13 0.726284 0.518995 0.500000
O O14 0.742399 0.505427 0.631451
O O15 0.978719 0.823928 0.000000
O O16 0.250000 0.250000 0.199095
O O17 0.308458 0.135382 0.274790
O O18 0.750000 0.250000 0.148112
#
# Coordination Sequence:
#
# PCOD9494892 Si02
#       8
#    16   8  16  16  16  16  16  16
#     4  11  19  29  44  65  95 127 169 201 241 297
#     4  12  22  37  48  70 102 140 171 210 256 304
#     4  10  15  24  40  61  89 121 154 195 241 287
#     4  10  20  36  54  71  98 137 179 215 248 292
#     4   9  16  28  47  69  92 123 164 206 250 294
#     4  10  19  30  46  68  93 127 173 212 241 285
#     4  11  23  35  50  69  95 134 177 216 252 301
#     4   9  18  28  41  66  90 121 159 205 251 295
#
# _framework density 22.324807
#
# number of rings (size 3 to 8) (size 9 to 14) (size 15 to 20)
#    0.000    1.867    4.000    2.000    3.733    2.933 
#    0.000    0.000    0.000    0.000    0.000    0.000 
#    0.000    0.000    0.000    8.400    2.133   29.200 
#
# Total GULP energy -334590.501005 kJ/mol
# GULP energy per Si atom -5576.508350 kJ/mol
# Density = 2.227399 g / cm^3
# Si number density = 22.324807 Si / 1000 Ang^3
#
#
#
# Elastic Constant Matrix: (Units=GPa)
#
#
# Indices 1 2 3 4 5 6 
#
# 1 135.5026 22.4107 68.6484 0.0000 0.0000 0.0000
# 2 22.4107 39.2725 10.5840 0.0000 0.0000 0.0000
# 3 68.6484 10.5840 134.2753 0.0000 0.0000 0.0000
# 4 0.0000 0.0000 0.0000 7.5483 0.0000 0.0000
# 5 0.0000 0.0000 0.0000 0.0000 32.6898 0.0000
# 6 0.0000 0.0000 0.0000 0.0000 0.0000 19.7061
#
#
#
# Elastic Compliance Matrix: (Units=1/GPa)
#
#
# Indices 1 2 3 4 5 6 
#
# 1 0.010766 -0.004761 -0.005129 0.000000 0.000000 0.000000
# 2 -0.004761 0.028121 0.000218 0.000000 0.000000 0.000000
# 3 -0.005129 0.000218 0.010052 0.000000 0.000000 0.000000
# 4 0.000000 0.000000 0.000000 0.132480 0.000000 0.000000
# 5 0.000000 0.000000 0.000000 0.000000 0.030591 0.000000
# 6 0.000000 0.000000 0.000000 0.000000 0.000000 0.050746
#
#
# Mechanical properties :
#
#
# Convention : Reuss Voigt Hill
#
# Bulk Modulus (GPa) = 33.78976 56.92627 45.35801
# Shear Modulus (GPa) = 17.12534 25.81600 21.47067
#
# Velocity S-wave (km/s) = 2.77266 3.40425 3.10456
# Velocity P-wave (km/s) = 5.04168 6.40362 5.76303
#
# Compressibility (1/GPa) = 0.02959477
#
# Stress axis : x y z
#
# Youngs Moduli (GPa) = 92.88784 35.56003 99.47998
#
# Poissons Ratio (x) = 0.16931 0.51020
# Poissons Ratio (y) = 0.44226 -0.02164
# Poissons Ratio (z) = 0.47639 -0.00774
#
# Static dielectric constant tensor:
#      x y z
#    x 1.856300 0.000000 0.000000 
#    y 0.000000 1.936000 0.000000 
#    z 0.000000 0.000000 1.925710 
# 
# From -- ./inp_files/53189.got.cif
#   From: 2010.05.17/outbox.cif.g08.bks.cpg/sg66_27_cif.got.tgz:53189.got - 2010.06.03 17:51:23.
