data_PCOD9494157
_publ_section_title
;
Structure prediction by ZEFSAII (Michael W. Deem and Ramdas Pophale) SiO2 
 PCOD9494157
Probable space group: C M M M
;
_chemical_formula_sum "Si O2"
_cell_formula_units_Z 50
_cell_length_a 7.862068
_cell_length_b 15.665562
_cell_length_c 19.310781
_cell_angle_alpha 90.000000
_cell_angle_beta 90.000000
_cell_angle_gamma 90.000000
_cell_volume 2378.387502
_symmetry_space_group_name_H-M "C M M M"
_symmetry_group_IT_number 65
_symmetry_cell_setting 'orthorhombic'
loop_
_space_group_symop_operation_xyz
x,y,z
-x,-y,z
x,-y,-z
-x,y,-z
-x,-y,-z
x,y,-z
-x,y,z
x,-y,z
1/2+x,1/2+y,z
1/2-x,1/2-y,z
1/2+x,1/2-y,-z
1/2-x,1/2+y,-z
1/2-x,1/2-y,-z
1/2+x,1/2+y,-z
1/2-x,1/2+y,z
1/2+x,1/2-y,z
loop_
_atom_site_type_symbol
_atom_site_label
_atom_site_fract_x
_atom_site_fract_y
_atom_site_fract_z
Si Si1 0.696710 0.344293 0.700514
Si Si2 0.500000 0.500000 0.500000
Si Si3 0.797907 0.396305 0.000000
Si Si4 0.812096 0.500000 0.611579
Si Si5 0.705768 0.899024 0.850115
O O1 0.500000 0.357765 0.685000
O O2 0.750000 0.250000 0.678353
O O3 0.797901 0.417372 0.660902
O O4 0.724001 0.353201 0.782843
O O5 0.652614 0.500000 0.559846
O O6 0.730314 0.367213 0.074618
O O7 0.782624 0.500000 0.000000
O O8 0.000000 0.378264 0.000000
O O9 0.000000 0.500000 0.579168
O O10 0.500000 0.892541 0.849302
O O11 0.747443 0.000000 0.844436
#
# Coordination Sequence:
#
# PCOD9494157 Si02
#       5
#    16   2   8   8  16
#     4  12  24  41  66 100 137 178 232 282 333 400
#     4  12  26  52  80 114 140 180 222 256 332 414
#     4   7  12  24  46  79 120 164 223 277 335 401
#     4  12  25  49  79 107 144 180 216 274 330 398
#     4   9  16  30  55  87 123 173 223 280 342 398
#
# _framework density 21.022646999999999
#
# number of rings (size 3 to 8) (size 9 to 14) (size 15 to 20)
#    0.000    1.760    3.200    5.040    0.000    0.000 
#    0.000    2.400    0.000    2.880    0.000    0.000 
#    0.000    0.000    0.000    0.000    0.000    0.000 
#
# Total GULP energy -139358.446659 kJ/mol
# GULP energy per Si atom -5574.337866 kJ/mol
# Density = 2.097480 g / cm^3
# Si number density = 21.022647 Si / 1000 Ang^3
#
#
#
# Elastic Constant Matrix: (Units=GPa)
#
#
# Indices 1 2 3 4 5 6 
#
# 1 116.0750 25.8121 36.5014 0.0000 0.0000 0.0000
# 2 25.8121 100.6459 39.7800 0.0000 0.0000 0.0000
# 3 36.5014 39.7800 124.4874 0.0000 0.0000 0.0000
# 4 0.0000 0.0000 0.0000 -9.4471 0.0000 0.0000
# 5 0.0000 0.0000 0.0000 0.0000 27.8521 0.0000
# 6 0.0000 0.0000 0.0000 0.0000 0.0000 14.4943
#
#
#
# Elastic Compliance Matrix: (Units=1/GPa)
#
#
# Indices 1 2 3 4 5 6 
#
# 1 0.009700 -0.001561 -0.002345 0.000000 0.000000 0.000000
# 2 -0.001561 0.011623 -0.003257 0.000000 0.000000 0.000000
# 3 -0.002345 -0.003257 0.009761 0.000000 0.000000 0.000000
# 4 0.000000 0.000000 0.000000 -0.105852 0.000000 0.000000
# 5 0.000000 0.000000 0.000000 0.000000 0.035904 0.000000
# 6 0.000000 0.000000 0.000000 0.000000 0.000000 0.068993
#
#
# Mechanical properties :
#
#
# Convention : Reuss Voigt Hill
#
# Bulk Modulus (GPa) = 59.66949 60.59948 60.13448
# Shear Modulus (GPa) = 99.91990 22.52083 61.22037
#
# Velocity S-wave (km/s) = 6.90165 3.27657 5.40226
# Velocity P-wave (km/s) = 9.58934 6.57289 8.22066
#
# Compressibility (1/GPa) = 0.01675898
#
# Stress axis : x y z
#
# Youngs Moduli (GPa) = 103.09596 86.03454 102.44542
#
# Poissons Ratio (x) = 0.13427 0.24027
# Poissons Ratio (y) = 0.16089 0.33363
# Poissons Ratio (z) = 0.24180 0.28018
#
# Static dielectric constant tensor:
#      x y z
#    x 1.749680 0.000000 0.000000 
#    y 0.000000 1.800360 0.000000 
#    z 0.000000 0.000000 1.757280 
# 
# From -- ./inp_files/48516.got.cif
#   From: 2010.05.17/outbox.cif.g08.bks.cpg/sg65_25_cif.got.tgz:48516.got - 2010.06.03 17:01:31.
