data_PCOD9494042
_publ_section_title
;
Structure prediction by ZEFSAII (Michael W. Deem and Ramdas Pophale) SiO2 
 PCOD9494042
Probable space group: C M M M
;
_chemical_formula_sum "Si O2"
_cell_formula_units_Z 64
_cell_length_a 21.302938
_cell_length_b 8.155793
_cell_length_c 18.175650
_cell_angle_alpha 90.000000
_cell_angle_beta 90.000000
_cell_angle_gamma 90.000000
_cell_volume 3157.880191
_symmetry_space_group_name_H-M "C M M M"
_symmetry_group_IT_number 65
_symmetry_cell_setting 'orthorhombic'
loop_
_space_group_symop_operation_xyz
x,y,z
-x,-y,z
x,-y,-z
-x,y,-z
-x,-y,-z
x,y,-z
-x,y,z
x,-y,z
1/2+x,1/2+y,z
1/2-x,1/2-y,z
1/2+x,1/2-y,-z
1/2-x,1/2+y,-z
1/2-x,1/2-y,-z
1/2+x,1/2+y,-z
1/2-x,1/2+y,z
1/2+x,1/2-y,z
loop_
_atom_site_type_symbol
_atom_site_label
_atom_site_fract_x
_atom_site_fract_y
_atom_site_fract_z
Si Si1 0.928236 0.301567 0.838928
Si Si2 0.423993 0.187319 0.000000
Si Si3 0.183295 0.195782 0.733826
Si Si4 0.000000 0.315662 0.411320
Si Si5 0.362853 0.694990 0.582625
O O1 0.930155 0.500000 0.843167
O O2 0.876481 0.252595 0.780199
O O3 0.000000 0.247520 0.822180
O O4 0.908741 0.238304 0.920533
O O5 0.500000 0.178253 0.000000
O O6 0.399563 0.000000 0.000000
O O7 0.250000 0.250000 0.765659
O O8 0.177158 0.263063 0.650131
O O9 0.181838 0.000000 0.730664
O O10 0.064701 0.225664 0.394533
O O11 0.000000 0.500000 0.380047
O O12 0.000000 0.327459 0.500000
O O13 0.352290 0.763541 0.500000
O O14 0.353122 0.500000 0.577942
#
# Coordination Sequence:
#
# PCOD9494042 Si02
#       5
#    16   8  16   8  16
#     4   9  18  35  61  89 115 145 180 222 271 327
#     4   7  12  28  56  87 114 141 177 217 264 323
#     4  11  24  39  55  78 111 148 188 233 279 330
#     4   9  17  29  49  79 107 130 167 222 273 319
#     4   9  19  36  55  74 102 143 185 226 276 329
#
# _framework density 20.266759
#
# number of rings (size 3 to 8) (size 9 to 14) (size 15 to 20)
#    0.000    2.750    0.000    2.625    1.750    4.500 
#    0.000    1.250    0.000    2.250    0.000    0.000 
#    0.000    0.000    0.000    0.000    0.000    0.000 
#
# Total GULP energy -178332.162409 kJ/mol
# GULP energy per Si atom -5572.880075 kJ/mol
# Density = 2.022063 g / cm^3
# Si number density = 20.266759 Si / 1000 Ang^3
#
#
#
# Elastic Constant Matrix: (Units=GPa)
#
#
# Indices 1 2 3 4 5 6 
#
# 1 110.7521 4.7341 70.9555 0.0000 0.0000 0.0000
# 2 4.7341 18.0336 16.9150 0.0000 0.0000 0.0000
# 3 70.9555 16.9150 133.4371 0.0000 0.0000 0.0000
# 4 0.0000 0.0000 0.0000 18.0790 0.0000 0.0000
# 5 0.0000 0.0000 0.0000 0.0000 7.5866 0.0000
# 6 0.0000 0.0000 0.0000 0.0000 0.0000 13.8024
#
#
#
# Elastic Compliance Matrix: (Units=1/GPa)
#
#
# Indices 1 2 3 4 5 6 
#
# 1 0.013912 0.003730 -0.007871 0.000000 0.000000 0.000000
# 2 0.003730 0.063935 -0.010088 0.000000 0.000000 0.000000
# 3 -0.007871 -0.010088 0.012958 0.000000 0.000000 0.000000
# 4 0.000000 0.000000 0.000000 0.055313 0.000000 0.000000
# 5 0.000000 0.000000 0.000000 0.000000 0.131811 0.000000
# 6 0.000000 0.000000 0.000000 0.000000 0.000000 0.072451
#
#
# Mechanical properties :
#
#
# Convention : Reuss Voigt Hill
#
# Bulk Modulus (GPa) = 16.03891 49.71470 32.87680
# Shear Modulus (GPa) = 12.51186 19.20149 15.85668
#
# Velocity S-wave (km/s) = 2.48737 3.08139 2.80017
# Velocity P-wave (km/s) = 4.02249 6.10273 5.16835
#
# Compressibility (1/GPa) = 0.06234839
#
# Stress axis : x y z
#
# Youngs Moduli (GPa) = 71.87897 15.64082 77.17062
#
# Poissons Ratio (x) = -0.05835 0.60739
# Poissons Ratio (y) = -0.26813 0.77852
# Poissons Ratio (z) = 0.56574 0.15779
#
# Static dielectric constant tensor:
#      x y z
#    x 1.687430 0.000000 0.000000 
#    y 0.000000 1.724540 0.000000 
#    z 0.000000 0.000000 1.794830 
# 
# From -- ./inp_files/49417.got.cif
#   From: 2010.05.17/outbox.cif.g08.bks.cpg/sg65_25_cif.got.tgz:49417.got - 2010.06.03 17:01:31.
