data_PCOD9494257
_publ_section_title
;
Structure prediction by ZEFSAII (Michael W. Deem and Ramdas Pophale) SiO2 
 PCOD9494257
Probable space group: C M M M
;
_chemical_formula_sum "Si O2"
_cell_formula_units_Z 104
_cell_length_a 7.309796
_cell_length_b 14.507773
_cell_length_c 37.375591
_cell_angle_alpha 90.000000
_cell_angle_beta 90.000000
_cell_angle_gamma 90.000000
_cell_volume 3963.638856
_symmetry_space_group_name_H-M "C M M M"
_symmetry_group_IT_number 65
_symmetry_cell_setting 'orthorhombic'
loop_
_space_group_symop_operation_xyz
x,y,z
-x,-y,z
x,-y,-z
-x,y,-z
-x,-y,-z
x,y,-z
-x,y,z
x,-y,z
1/2+x,1/2+y,z
1/2-x,1/2-y,z
1/2+x,1/2-y,-z
1/2-x,1/2+y,-z
1/2-x,1/2-y,-z
1/2+x,1/2+y,-z
1/2-x,1/2+y,z
1/2+x,1/2-y,z
loop_
_atom_site_type_symbol
_atom_site_label
_atom_site_fract_x
_atom_site_fract_y
_atom_site_fract_z
Si Si1 0.218157 0.394709 0.192455
Si Si2 0.718167 0.611802 0.038371
Si Si3 0.717514 0.141349 0.653995
Si Si4 0.281423 0.393940 0.114588
Si Si5 0.218710 0.639338 0.422879
Si Si6 0.706781 0.890407 0.732418
Si Si7 0.218550 0.360586 0.500000
O O1 0.289607 0.500000 0.189274
O O2 0.246201 0.351633 0.153473
O O3 0.289875 0.354971 0.230165
O O4 0.000000 0.398515 0.197260
O O5 0.500000 0.628758 0.037492
O O6 0.740388 0.500000 0.039089
O O7 0.789227 0.645786 0.076866
O O8 0.793342 0.644026 0.000000
O O9 0.500000 0.119048 0.654869
O O10 0.750000 0.250000 0.651732
O O11 0.787574 0.104886 0.615702
O O12 0.792785 0.117715 0.693185
O O13 0.500000 0.397494 0.111228
O O14 0.212824 0.500000 0.116349
O O15 0.250000 0.750000 0.423199
O O16 0.288326 0.605679 0.461442
O O17 0.000000 0.623962 0.422690
O O18 0.500000 0.851064 0.728975
O O19 0.693245 0.000000 0.738227
O O20 0.250000 0.250000 0.500000
O O21 0.000000 0.376533 0.500000
#
# Coordination Sequence:
#
# PCOD9494257 Si02
#       7
#    16  16  16  16  16  16   8
#     4   8  13  21  32  44  58  78 106 140 173 201
#     4   7   9  13  21  33  49  70  97 127 157 192
#     4   9  16  26  40  57  76  97 122 152 185 219
#     4   8  12  17  26  40  56  74  99 133 170 203
#     4   8  13  20  31  48  69  92 115 141 174 210
#     4   8  14  25  40  55  70  93 127 158 179 210
#     4   8  12  18  28  44  67  91 113 137 169 208
#
# _framework density 26.238516000000001
#
# number of rings (size 3 to 8) (size 9 to 14) (size 15 to 20)
#    0.000    4.000    0.000    2.308    0.000    0.000 
#    0.000    0.769    0.000    1.846    0.000    3.769 
#    0.000    4.308    0.000    0.000    0.000  147.077 
#
# Total GULP energy -289605.609655 kJ/mol
# GULP energy per Si atom -5569.338647 kJ/mol
# Density = 2.617880 g / cm^3
# Si number density = 26.238516 Si / 1000 Ang^3
#
#
#
# Elastic Constant Matrix: (Units=GPa)
#
#
# Indices 1 2 3 4 5 6 
#
# 1 116.8144 -8.7001 19.7509 0.0000 0.0000 0.0000
# 2 -8.7001 93.6888 18.1836 0.0000 0.0000 0.0000
# 3 19.7509 18.1836 436.3510 0.0000 0.0000 0.0000
# 4 0.0000 0.0000 0.0000 -0.7859 0.0000 0.0000
# 5 0.0000 0.0000 0.0000 0.0000 -3.3092 0.0000
# 6 0.0000 0.0000 0.0000 0.0000 0.0000 -13.0680
#
#
#
# Elastic Compliance Matrix: (Units=1/GPa)
#
#
# Indices 1 2 3 4 5 6 
#
# 1 0.008700 0.000892 -0.000431 0.000000 0.000000 0.000000
# 2 0.000892 0.010852 -0.000493 0.000000 0.000000 0.000000
# 3 -0.000431 -0.000493 0.002332 0.000000 0.000000 0.000000
# 4 0.000000 0.000000 0.000000 -1.272430 0.000000 0.000000
# 5 0.000000 0.000000 0.000000 0.000000 -0.302186 0.000000
# 6 0.000000 0.000000 0.000000 0.000000 0.000000 -0.076523
#
#
# Mechanical properties :
#
#
# Convention : Reuss Voigt Hill
#
# Bulk Modulus (GPa) = 45.83025 78.36921 62.09973
# Shear Modulus (GPa) = -3.08277 37.74204 17.32963
#
# Velocity S-wave (km/s) = -1.08510 3.79677 2.57274
# Velocity P-wave (km/s) = 3.99184 7.01095 5.70474
#
# Compressibility (1/GPa) = 0.02181965
#
# Stress axis : x y z
#
# Youngs Moduli (GPa) = 114.94452 92.14874 428.85953
#
# Poissons Ratio (x) = -0.08215 0.18481
# Poissons Ratio (y) = -0.10248 0.21125
# Poissons Ratio (z) = 0.04953 0.04539
#
# Static dielectric constant tensor:
#      x y z
#    x 1.804360 0.000000 0.000000 
#    y 0.000000 5.410900 0.000000 
#    z 0.000000 0.000000 2.194950 
# 
# From -- ./inp_files/77535.got.cif
#   From: 2010.05.17/outbox.cif.g08.bks.cpg/sg65_39_cif.got.tgz:77535.got - 2010.06.03 17:01:31.
