data_PCOD9494481
_publ_section_title
;
Structure prediction by ZEFSAII (Michael W. Deem and Ramdas Pophale) SiO2 
 PCOD9494481
Probable space group: C M M M
;
_chemical_formula_sum "Si O2"
_cell_formula_units_Z 104
_cell_length_a 7.504616
_cell_length_b 26.618682
_cell_length_c 27.275143
_cell_angle_alpha 90.000000
_cell_angle_beta 90.000000
_cell_angle_gamma 90.000000
_cell_volume 5448.564032
_symmetry_space_group_name_H-M "C M M M"
_symmetry_group_IT_number 65
_symmetry_cell_setting 'orthorhombic'
loop_
_space_group_symop_operation_xyz
x,y,z
-x,-y,z
x,-y,-z
-x,y,-z
-x,-y,-z
x,y,-z
-x,y,z
x,-y,z
1/2+x,1/2+y,z
1/2-x,1/2-y,z
1/2+x,1/2-y,-z
1/2-x,1/2+y,-z
1/2-x,1/2-y,-z
1/2+x,1/2+y,-z
1/2-x,1/2+y,z
1/2+x,1/2-y,z
loop_
_atom_site_type_symbol
_atom_site_label
_atom_site_fract_x
_atom_site_fract_y
_atom_site_fract_z
Si Si1 0.217642 0.000000 0.883335
Si Si2 0.710945 0.056981 0.500000
Si Si3 0.286689 0.306766 0.118189
Si Si4 0.711724 0.442488 0.606809
Si Si5 0.718075 0.401758 0.056339
Si Si6 0.217126 0.000000 0.229485
Si Si7 0.218162 0.901823 0.709054
Si Si8 0.213403 0.193200 0.770009
O O1 0.273350 0.049875 0.912255
O O2 0.275962 0.000000 0.826865
O O3 0.000000 0.000000 0.882736
O O4 0.500000 0.053250 0.500000
O O5 0.760183 0.079607 0.552540
O O6 0.788797 0.000000 0.500000
O O7 0.500000 0.312138 0.120576
O O8 0.250000 0.250000 0.101356
O O9 0.221610 0.350678 0.082779
O O10 0.217913 0.312074 0.174062
O O11 0.500000 0.446596 0.613337
O O12 0.783646 0.500000 0.607704
O O13 0.778521 0.411395 0.653330
O O14 0.500000 0.401704 0.056060
O O15 0.775422 0.404884 0.000000
O O16 0.271333 0.949987 0.258485
O O17 0.000000 0.000000 0.229225
O O18 0.279843 0.850565 0.734483
O O19 0.000000 0.900732 0.708989
O O20 0.250000 0.250000 0.753445
O O21 0.000000 0.187716 0.772645
#
# Coordination Sequence:
#
# PCOD9494481 Si02
#       8
#     8   8  16  16  16   8  16  16
#     4   9  15  22  35  56  84 115 140 168 213 264
#     4   9  17  27  39  57  86 123 152 173 202 244
#     4   9  17  29  44  62  84 111 141 176 216 258
#     4   9  15  25  41  62  86 112 143 176 211 249
#     4   9  16  25  37  56  83 112 141 174 214 259
#     4   9  14  21  36  60  86 109 137 174 217 260
#     4   9  15  24  40  63  88 111 139 179 218 253
#     4   9  17  29  44  62  85 113 145 177 213 257
#
# _framework density 19.087599000000001
#
# number of rings (size 3 to 8) (size 9 to 14) (size 15 to 20)
#    0.000    3.000    0.769    1.385    0.000    5.846 
#    0.000    0.769    0.000    0.000    0.000    1.077 
#    0.000    7.385    0.000    0.000    0.000    0.000 
#
# Total GULP energy -290021.578160 kJ/mol
# GULP energy per Si atom -5577.338042 kJ/mol
# Density = 1.904415 g / cm^3
# Si number density = 19.087599 Si / 1000 Ang^3
#
#
#
# Elastic Constant Matrix: (Units=GPa)
#
#
# Indices 1 2 3 4 5 6 
#
# 1 49.8756 -0.3922 3.1386 0.0000 0.0000 0.0000
# 2 -0.3922 144.1923 112.3928 0.0000 0.0000 0.0000
# 3 3.1386 112.3928 190.3874 0.0000 0.0000 0.0000
# 4 0.0000 0.0000 0.0000 14.1566 0.0000 0.0000
# 5 0.0000 0.0000 0.0000 0.0000 -8.7646 0.0000
# 6 0.0000 0.0000 0.0000 0.0000 0.0000 11.8345
#
#
#
# Elastic Compliance Matrix: (Units=1/GPa)
#
#
# Indices 1 2 3 4 5 6 
#
# 1 0.020097 0.000580 -0.000673 0.000000 0.000000 0.000000
# 2 0.000580 0.012863 -0.007603 0.000000 0.000000 0.000000
# 3 -0.000673 -0.007603 0.009752 0.000000 0.000000 0.000000
# 4 0.000000 0.000000 0.000000 0.070639 0.000000 0.000000
# 5 0.000000 0.000000 0.000000 0.000000 -0.114095 0.000000
# 6 0.000000 0.000000 0.000000 0.000000 0.000000 0.084499
#
#
# Mechanical properties :
#
#
# Convention : Reuss Voigt Hill
#
# Bulk Modulus (GPa) = 36.60602 68.30375 52.45489
# Shear Modulus (GPa) = 46.18758 21.39970 33.79364
#
# Velocity S-wave (km/s) = 4.92445 3.35196 4.21224
# Velocity P-wave (km/s) = 7.18005 7.13042 7.15528
#
# Compressibility (1/GPa) = 0.02731791
#
# Stress axis : x y z
#
# Youngs Moduli (GPa) = 49.75915 77.74143 102.54324
#
# Poissons Ratio (x) = -0.04506 0.06906
# Poissons Ratio (y) = -0.02884 0.77965
# Poissons Ratio (z) = 0.03351 0.59108
#
# Static dielectric constant tensor:
#      x y z
#    x 1.740590 0.000000 0.000000 
#    y 0.000000 1.631000 0.000000 
#    z 0.000000 0.000000 1.673120 
# 
# From -- ./inp_files/73854.got.cif
#   From: 2010.05.17/outbox.cif.g08.bks.cpg/sg65_37_cif.got.tgz:73854.got - 2010.06.03 17:01:31.
