data_PCOD9494299
_publ_section_title
;
Structure prediction by ZEFSAII (Michael W. Deem and Ramdas Pophale) SiO2 
 PCOD9494299
Probable space group: C M M M
;
_chemical_formula_sum "Si O2"
_cell_formula_units_Z 128
_cell_length_a 7.386466
_cell_length_b 30.625823
_cell_length_c 29.643301
_cell_angle_alpha 90.000000
_cell_angle_beta 90.000000
_cell_angle_gamma 90.000000
_cell_volume 6705.806774
_symmetry_space_group_name_H-M "C M M M"
_symmetry_group_IT_number 65
_symmetry_cell_setting 'orthorhombic'
loop_
_space_group_symop_operation_xyz
x,y,z
-x,-y,z
x,-y,-z
-x,y,-z
-x,-y,-z
x,y,-z
-x,y,z
x,-y,z
1/2+x,1/2+y,z
1/2-x,1/2-y,z
1/2+x,1/2-y,-z
1/2-x,1/2+y,-z
1/2-x,1/2-y,-z
1/2+x,1/2+y,-z
1/2-x,1/2+y,z
1/2+x,1/2-y,z
loop_
_atom_site_type_symbol
_atom_site_label
_atom_site_fract_x
_atom_site_fract_y
_atom_site_fract_z
Si Si1 0.778706 0.639736 0.049424
Si Si2 0.279490 0.048657 0.913485
Si Si3 0.716035 0.199611 0.131087
Si Si4 0.278435 0.888973 0.728581
Si Si5 0.283643 0.199932 0.766620
Si Si6 0.780182 0.450809 0.809670
Si Si7 0.212919 0.549945 0.648364
Si Si8 0.717611 0.550803 0.548447
O O1 0.723173 0.589579 0.056951
O O2 0.715203 0.668283 0.091740
O O3 0.000000 0.640708 0.050092
O O4 0.721935 0.655479 0.000000
O O5 0.500000 0.048082 0.913933
O O6 0.224662 0.056550 0.861354
O O7 0.220365 0.000000 0.926920
O O8 0.500000 0.192568 0.133358
O O9 0.750000 0.250000 0.119300
O O10 0.786332 0.193049 0.182074
O O11 0.500000 0.888879 0.727158
O O12 0.219032 0.838891 0.734322
O O13 0.222985 0.915231 0.773553
O O14 0.214524 0.916614 0.685516
O O15 0.500000 0.195606 0.769179
O O16 0.250000 0.250000 0.753180
O O17 0.725745 0.500000 0.796327
O O18 0.000000 0.450121 0.809881
O O19 0.287634 0.500000 0.650287
O O20 0.229302 0.568005 0.597396
O O21 0.000000 0.545727 0.657779
O O22 0.778826 0.569710 0.500000
O O23 0.500000 0.551074 0.547817
O O24 0.776904 0.500000 0.548821
#
# Coordination Sequence:
#
# PCOD9494299 Si02
#       8
#    16  16  16  16  16  16  16  16
#     4   9  16  24  34  50  73  99 125 154 191 234
#     4   8  13  20  30  46  69  98 130 158 184 221
#     4   9  17  29  44  60  77  99 127 158 193 233
#     4   9  15  23  36  54  78 105 128 156 198 239
#     4   9  17  29  44  59  76 100 131 164 195 232
#     4   8  12  18  30  48  70  97 128 157 184 223
#     4   9  16  24  36  58  85 108 133 166 200 233
#     4   8  14  25  39  53  74 110 150 177 196 223
#
# _framework density 19.087934000000001
#
# number of rings (size 3 to 8) (size 9 to 14) (size 15 to 20)
#    0.000    3.375    0.000    2.250    0.000    5.250 
#    0.000    3.125    0.000    0.000    0.000    0.000 
#    0.000    1.000    0.000   11.375    0.000   14.375 
#
# Total GULP energy -356711.349878 kJ/mol
# GULP energy per Si atom -5573.614842 kJ/mol
# Density = 1.904449 g / cm^3
# Si number density = 19.087934 Si / 1000 Ang^3
#
#
#
# Elastic Constant Matrix: (Units=GPa)
#
#
# Indices 1 2 3 4 5 6 
#
# 1 64.2929 2.6136 3.3788 0.0000 0.0000 0.0000
# 2 2.6136 105.5498 74.5069 0.0000 0.0000 0.0000
# 3 3.3788 74.5069 87.7925 0.0000 0.0000 0.0000
# 4 0.0000 0.0000 0.0000 19.9557 0.0000 0.0000
# 5 0.0000 0.0000 0.0000 0.0000 -756.1185 0.0000
# 6 0.0000 0.0000 0.0000 0.0000 0.0000 3.3197
#
#
#
# Elastic Compliance Matrix: (Units=1/GPa)
#
#
# Indices 1 2 3 4 5 6 
#
# 1 0.015586 0.000094 -0.000679 0.000000 0.000000 0.000000
# 2 0.000094 0.023631 -0.020059 0.000000 0.000000 0.000000
# 3 -0.000679 -0.020059 0.028440 0.000000 0.000000 0.000000
# 4 0.000000 0.000000 0.000000 0.050111 0.000000 0.000000
# 5 0.000000 0.000000 0.000000 0.000000 -0.001323 0.000000
# 6 0.000000 0.000000 0.000000 0.000000 0.000000 0.301231
#
#
# Mechanical properties :
#
#
# Convention : Reuss Voigt Hill
#
# Bulk Modulus (GPa) = 37.92477 46.51488 42.21983
# Shear Modulus (GPa) = 10.68937 -134.75957 -62.03510
#
# Velocity S-wave (km/s) = 2.36901 -8.41146 -5.70703
# Velocity P-wave (km/s) = 5.23398 8.36153 4.61089
#
# Compressibility (1/GPa) = 0.02636799
#
# Stress axis : x y z
#
# Youngs Moduli (GPa) = 64.16135 42.31687 35.16183
#
# Poissons Ratio (x) = -0.00396 0.02388
# Poissons Ratio (y) = -0.00600 0.70530
# Poissons Ratio (z) = 0.04358 0.84882
#
# Static dielectric constant tensor:
#      x y z
#    x 1.780180 0.000000 0.000000 
#    y 0.000000 1.652390 0.000000 
#    z 0.000000 0.000000 1.674000 
# 
# From -- ./inp_files/69280.got.cif
#   From: 2010.05.17/outbox.cif.g08.bks.cpg/sg65_35_cif.got.tgz:69280.got - 2010.06.03 17:01:31.
