data_PCOD9494030
_publ_section_title
;
Structure prediction by ZEFSAII (Michael W. Deem and Ramdas Pophale) SiO2 
 PCOD9494030
Probable space group: C M M M
;
_chemical_formula_sum "Si O2"
_cell_formula_units_Z 56
_cell_length_a 16.067748
_cell_length_b 18.378401
_cell_length_c 9.653302
_cell_angle_alpha 90.000000
_cell_angle_beta 90.000000
_cell_angle_gamma 90.000000
_cell_volume 2850.615408
_symmetry_space_group_name_H-M "C M M M"
_symmetry_group_IT_number 65
_symmetry_cell_setting 'orthorhombic'
loop_
_space_group_symop_operation_xyz
x,y,z
-x,-y,z
x,-y,-z
-x,y,-z
-x,-y,-z
x,y,-z
-x,y,z
x,-y,z
1/2+x,1/2+y,z
1/2-x,1/2-y,z
1/2+x,1/2-y,-z
1/2-x,1/2+y,-z
1/2-x,1/2-y,-z
1/2+x,1/2+y,-z
1/2-x,1/2+y,z
1/2+x,1/2-y,z
loop_
_atom_site_type_symbol
_atom_site_label
_atom_site_fract_x
_atom_site_fract_y
_atom_site_fract_z
Si Si1 0.595535 0.000000 0.830955
Si Si2 0.100145 0.084929 0.837477
Si Si3 0.157549 0.783275 0.341603
Si Si4 0.598622 0.844553 0.155129
O O1 0.634667 0.922191 0.793176
O O2 0.500000 0.000000 0.778450
O O3 0.593444 0.000000 0.000000
O O4 0.147575 0.141316 0.740144
O O5 0.000000 0.094742 0.819529
O O6 0.118888 0.000000 0.809551
O O7 0.118373 0.099032 0.000000
O O8 0.129236 0.791496 0.500000
O O9 0.250000 0.750000 0.342509
O O10 0.108683 0.722183 0.256520
O O11 0.500000 0.857225 0.141146
O O12 0.631519 0.828356 0.000000
#
# Coordination Sequence:
#
# PCOD9494030 Si02
#       4
#     8  16  16  16
#     4   7  12  26  49  77 103 125 158 207 260 309
#     4   9  19  38  64  90 111 135 179 239 291 333
#     4  11  24  38  50  74 114 154 186 218 265 327
#     4   9  17  32  56  81 104 134 176 226 272 315
#
# _framework density 19.644881000000002
#
# number of rings (size 3 to 8) (size 9 to 14) (size 15 to 20)
#    0.000    2.714    0.000    4.286    0.000    7.429 
#    2.571    2.143    0.000    2.571    0.000    0.000 
#    0.000    0.000    0.000    0.000    0.000    0.000 
#
# Total GULP energy -156044.255543 kJ/mol
# GULP energy per Si atom -5573.009127 kJ/mol
# Density = 1.960017 g / cm^3
# Si number density = 19.644881 Si / 1000 Ang^3
#
#
#
# Elastic Constant Matrix: (Units=GPa)
#
#
# Indices 1 2 3 4 5 6 
#
# 1 14.3343 27.7399 26.4570 0.0000 0.0000 0.0000
# 2 27.7399 165.2549 106.9123 0.0000 0.0000 0.0000
# 3 26.4570 106.9123 121.7504 0.0000 0.0000 0.0000
# 4 0.0000 0.0000 0.0000 -22.7613 0.0000 0.0000
# 5 0.0000 0.0000 0.0000 0.0000 21.2140 0.0000
# 6 0.0000 0.0000 0.0000 0.0000 0.0000 11.1673
#
#
#
# Elastic Compliance Matrix: (Units=1/GPa)
#
#
# Indices 1 2 3 4 5 6 
#
# 1 0.120476 -0.007608 -0.019499 0.000000 0.000000 0.000000
# 2 -0.007608 0.014492 -0.011072 0.000000 0.000000 0.000000
# 3 -0.019499 -0.011072 0.022173 0.000000 0.000000 0.000000
# 4 0.000000 0.000000 0.000000 -0.043934 0.000000 0.000000
# 5 0.000000 0.000000 0.000000 0.000000 0.047139 0.000000
# 6 0.000000 0.000000 0.000000 0.000000 0.000000 0.089547
#
#
# Mechanical properties :
#
#
# Convention : Reuss Voigt Hill
#
# Bulk Modulus (GPa) = 12.37898 69.28424 40.83161
# Shear Modulus (GPa) = 14.15716 11.27271 12.71493
#
# Velocity S-wave (km/s) = 2.68741 2.39806 2.54685
# Velocity P-wave (km/s) = 3.99307 6.55839 5.42942
#
# Compressibility (1/GPa) = 0.08078210
#
# Stress axis : x y z
#
# Youngs Moduli (GPa) = 8.30042 69.00594 45.09902
#
# Poissons Ratio (x) = 0.52502 0.87939
# Poissons Ratio (y) = 0.06315 0.49934
# Poissons Ratio (z) = 0.16185 0.76404
#
# Static dielectric constant tensor:
#      x y z
#    x 1.715830 0.000000 0.000000 
#    y 0.000000 1.727490 0.000000 
#    z 0.000000 0.000000 1.659340 
# 
# From -- ./inp_files/8502.got.cif
#   From: 2010.05.17/outbox.cif.g08.bks.cpg/sg65_5_cif.got.tgz:8502.got - 2010.06.03 17:01:31.
