data_PCOD9494101
_publ_section_title
;
Structure prediction by ZEFSAII (Michael W. Deem and Ramdas Pophale) SiO2 
 PCOD9494101
Probable space group: C M M M
;
_chemical_formula_sum "Si O2"
_cell_formula_units_Z 48
_cell_length_a 11.641309
_cell_length_b 29.146502
_cell_length_c 7.812250
_cell_angle_alpha 90.000000
_cell_angle_beta 90.000000
_cell_angle_gamma 90.000000
_cell_volume 2650.723268
_symmetry_space_group_name_H-M "C M M M"
_symmetry_group_IT_number 65
_symmetry_cell_setting 'orthorhombic'
loop_
_space_group_symop_operation_xyz
x,y,z
-x,-y,z
x,-y,-z
-x,y,-z
-x,-y,-z
x,y,-z
-x,y,z
x,-y,z
1/2+x,1/2+y,z
1/2-x,1/2-y,z
1/2+x,1/2-y,-z
1/2-x,1/2+y,-z
1/2-x,1/2-y,-z
1/2+x,1/2+y,-z
1/2-x,1/2+y,z
1/2+x,1/2-y,z
loop_
_atom_site_type_symbol
_atom_site_label
_atom_site_fract_x
_atom_site_fract_y
_atom_site_fract_z
Si Si1 0.000000 0.651322 0.292881
Si Si2 0.000000 0.448658 0.240629
Si Si3 0.864295 0.140854 0.500000
Si Si4 0.242287 0.304666 0.200137
Si Si5 0.710574 0.949971 0.500000
O O1 0.000000 0.604195 0.184324
O O2 0.114067 0.679054 0.247624
O O3 0.000000 0.641317 0.500000
O O4 0.879955 0.448498 0.344530
O O5 0.000000 0.500000 0.164144
O O6 0.825162 0.169265 0.667717
O O7 0.794792 0.092872 0.500000
O O8 0.000000 0.133541 0.500000
O O9 0.250000 0.250000 0.223504
O O10 0.266094 0.315023 0.000000
O O11 0.768870 0.000000 0.500000
#
# Coordination Sequence:
#
# PCOD9494101 Si02
#       5
#     8   8   8  16   8
#     4  12  19  36  66  89 118 155 193 245 300 350
#     4   9  14  27  58  90 117 147 184 241 302 348
#     4  12  24  39  62  85 115 161 201 242 288 342
#     4  11  25  41  59  86 120 157 198 245 295 350
#     4   9  16  32  57  88 117 147 189 236 293 353
#
# _framework density 18.108264999999999
#
# number of rings (size 3 to 8) (size 9 to 14) (size 15 to 20)
#    0.000    1.333    6.667    2.000    2.333    1.000 
#    0.000    0.000    0.000    5.000    0.000    2.333 
#    0.000    0.000    0.000    0.000    0.000    0.000 
#
# Total GULP energy -133669.427317 kJ/mol
# GULP energy per Si atom -5569.559472 kJ/mol
# Density = 1.806705 g / cm^3
# Si number density = 18.108265 Si / 1000 Ang^3
#
#
#
# Elastic Constant Matrix: (Units=GPa)
#
#
# Indices 1 2 3 4 5 6 
#
# 1 139.4668 77.7777 58.3719 0.0000 0.0000 0.0000
# 2 77.7777 177.8911 77.6005 0.0000 0.0000 0.0000
# 3 58.3719 77.6005 135.2906 0.0000 0.0000 0.0000
# 4 0.0000 0.0000 0.0000 139.8826 0.0000 0.0000
# 5 0.0000 0.0000 0.0000 0.0000 -90.2368 0.0000
# 6 0.0000 0.0000 0.0000 0.0000 0.0000 8.3963
#
#
#
# Elastic Compliance Matrix: (Units=1/GPa)
#
#
# Indices 1 2 3 4 5 6 
#
# 1 0.010043 -0.003335 -0.002420 0.000000 0.000000 0.000000
# 2 -0.003335 0.008605 -0.003497 0.000000 0.000000 0.000000
# 3 -0.002420 -0.003497 0.010441 0.000000 0.000000 0.000000
# 4 0.000000 0.000000 0.000000 0.007149 0.000000 0.000000
# 5 0.000000 0.000000 0.000000 0.000000 -0.011082 0.000000
# 6 0.000000 0.000000 0.000000 0.000000 0.000000 0.119101
#
#
# Mechanical properties :
#
#
# Convention : Reuss Voigt Hill
#
# Bulk Modulus (GPa) = 94.47079 97.79430 96.13254
# Shear Modulus (GPa) = 30.06805 27.53498 28.80152
#
# Velocity S-wave (km/s) = 4.07930 3.90369 3.99246
# Velocity P-wave (km/s) = 8.62964 8.62792 8.62878
#
# Compressibility (1/GPa) = 0.01058528
#
# Stress axis : x y z
#
# Youngs Moduli (GPa) = 99.57073 116.21103 95.77403
#
# Poissons Ratio (x) = 0.38761 0.23178
# Poissons Ratio (y) = 0.33211 0.33489
# Poissons Ratio (z) = 0.24096 0.40635
#
# Static dielectric constant tensor:
#      x y z
#    x 1.566050 0.000000 0.000000 
#    y 0.000000 1.642450 0.000000 
#    z 0.000000 0.000000 1.689840 
# 
# From -- ./inp_files/4215.got.cif
#   From: 2010.05.17/outbox.cif.g08.bks.cpg/sg65_3_cif.got.tgz:4215.got - 2010.06.03 17:01:31.
