data_PCOD9494607
_publ_section_title
;
Structure prediction by ZEFSAII (Michael W. Deem and Ramdas Pophale) SiO2 
 PCOD9494607
Probable space group: C M M M
;
_chemical_formula_sum "Si O2"
_cell_formula_units_Z 60
_cell_length_a 27.000000
_cell_length_b 9.000000
_cell_length_c 27.000000
_cell_angle_alpha 90.000000
_cell_angle_beta 90.000000
_cell_angle_gamma 90.000000
_cell_volume 6561.000000
_symmetry_space_group_name_H-M "C M M M"
_symmetry_group_IT_number 65
_symmetry_cell_setting 'orthorhombic'
loop_
_space_group_symop_operation_xyz
x,y,z
-x,-y,z
x,-y,-z
-x,y,-z
-x,-y,-z
x,y,-z
-x,y,z
x,-y,z
1/2+x,1/2+y,z
1/2-x,1/2-y,z
1/2+x,1/2-y,-z
1/2-x,1/2+y,-z
1/2-x,1/2-y,-z
1/2+x,1/2+y,-z
1/2-x,1/2+y,z
1/2+x,1/2-y,z
loop_
_atom_site_type_symbol
_atom_site_label
_atom_site_fract_x
_atom_site_fract_y
_atom_site_fract_z
Si Si1 0.559614 0.834784 0.698352
Si Si2 0.696858 0.678197 0.245822
Si Si3 0.500000 0.165972 0.558628
Si Si4 0.441550 0.332850 0.794778
Si Si5 0.356973 0.673349 0.143465
Si Si6 0.303685 0.679914 0.358833
Si Si7 0.906335 0.174009 0.605177
Si Si8 0.196536 0.323972 0.945061
O O1 0.500000 0.837222 0.694873
O O2 0.572276 0.787030 0.753693
O O3 0.577653 0.708913 0.661294
O O4 0.578222 0.000000 0.685769
O O5 0.700279 0.500000 0.246938
O O6 0.750000 0.750000 0.237884
O O7 0.665606 0.715954 0.197108
O O8 0.682164 0.723658 0.301929
O O9 0.500000 0.158309 0.500000
O O10 0.550868 0.244637 0.574655
O O11 0.500000 0.000000 0.580494
O O12 0.500000 0.331388 0.799348
O O13 0.426314 0.500000 0.777508
O O14 0.415014 0.309597 0.846608
O O15 0.344832 0.500000 0.134585
O O16 0.337316 0.768655 0.098983
O O17 0.300111 0.500000 0.360361
O O18 0.250000 0.750000 0.369572
O O19 0.348799 0.723993 0.395283
O O20 0.908160 0.000000 0.594127
O O21 0.202333 0.500000 0.942994
O O22 0.250000 0.250000 0.938746
O O23 0.177905 0.282804 0.000000
#
# Coordination Sequence:
#
# PCOD9494607 Si02
#       8
#    16  16   8  16  16  16  16  16
#     4  10  19  30  47  75 110 144 182 220 260 311
#     4   9  17  29  44  67 103 137 170 206 244 295
#     4  11  25  43  61  85 115 143 177 229 290 339
#     4   9  18  32  49  70 101 139 176 212 253 301
#     4  10  19  31  49  72  98 131 170 213 259 309
#     4   9  19  34  52  78 111 148 185 219 258 311
#     4  11  21  35  58  83 110 146 187 228 273 326
#     4  10  21  36  53  73  96 122 156 202 257 317
#
# _framework density 9.1449470000000002
#
# number of rings (size 3 to 8) (size 9 to 14) (size 15 to 20)
#    0.000    2.200    0.667    2.600    0.000    7.200 
#    0.000    2.667    0.000    0.800    0.000    2.800 
#    0.000    0.000    0.000    0.000    0.000    0.000 
#
# Total GULP energy -334259.294190 kJ/mol
# GULP energy per Si atom -5570.988237 kJ/mol
# Density = 0.912413 g / cm^3
# Si number density = 9.144947 Si / 1000 Ang^3
#
#
#
# Elastic Constant Matrix: (Units=GPa)
#
#
# Indices 1 2 3 4 5 6 
#
# 1 67.6747 36.6620 49.2412 0.0000 0.0000 0.0000
# 2 36.6620 31.1500 28.7842 0.0000 0.0000 0.0000
# 3 49.2412 28.7842 59.2157 0.0000 0.0000 0.0000
# 4 0.0000 0.0000 0.0000 24.5203 0.0000 0.0000
# 5 0.0000 0.0000 0.0000 0.0000 13.9395 0.0000
# 6 0.0000 0.0000 0.0000 0.0000 0.0000 20.5835
#
#
#
# Elastic Compliance Matrix: (Units=1/GPa)
#
#
# Indices 1 2 3 4 5 6 
#
# 1 0.057841 -0.042901 -0.027245 0.000000 0.000000 0.000000
# 2 -0.042901 0.090100 -0.008122 0.000000 0.000000 0.000000
# 3 -0.027245 -0.008122 0.043491 0.000000 0.000000 0.000000
# 4 0.000000 0.000000 0.000000 0.040782 0.000000 0.000000
# 5 0.000000 0.000000 0.000000 0.000000 0.071738 0.000000
# 6 0.000000 0.000000 0.000000 0.000000 0.000000 0.048583
#
#
# Mechanical properties :
#
#
# Convention : Reuss Voigt Hill
#
# Bulk Modulus (GPa) = 28.65578 43.04613 35.85096
# Shear Modulus (GPa) = 9.60238 14.69888 12.15063
#
# Velocity S-wave (km/s) = 2.29380 2.83797 2.58027
# Velocity P-wave (km/s) = 4.76622 5.85878 5.34052
#
# Compressibility (1/GPa) = 0.03489698
#
# Stress axis : x y z
#
# Youngs Moduli (GPa) = 17.28870 11.09874 22.99320
#
# Poissons Ratio (x) = 0.47615 0.62644
# Poissons Ratio (y) = 0.74170 0.18676
# Poissons Ratio (z) = 0.47102 0.09015
#
# Static dielectric constant tensor:
#      x y z
#    x 1.667420 0.000000 0.000000 
#    y 0.000000 1.657460 0.000000 
#    z 0.000000 0.000000 1.612770 
# 
# From -- ./inp_files/76124.got.cif
#   From: 2010.05.17/outbox.ucp.g08.bks.cvg/sg65_39_cif.got.tgz:76124.got - 2010.06.11 16:39:57.
