data_PCOD9494119
_publ_section_title
;
Structure prediction by ZEFSAII (Michael W. Deem and Ramdas Pophale) SiO2 
 PCOD9494119
Probable space group: C M M M
;
_chemical_formula_sum "Si O2"
_cell_formula_units_Z 88
_cell_length_a 13.702619
_cell_length_b 24.100609
_cell_length_c 14.289862
_cell_angle_alpha 90.000000
_cell_angle_beta 90.000000
_cell_angle_gamma 90.000000
_cell_volume 4719.104930
_symmetry_space_group_name_H-M "C M M M"
_symmetry_group_IT_number 65
_symmetry_cell_setting 'orthorhombic'
loop_
_space_group_symop_operation_xyz
x,y,z
-x,-y,z
x,-y,-z
-x,y,-z
-x,-y,-z
x,y,-z
-x,y,z
x,-y,z
1/2+x,1/2+y,z
1/2-x,1/2-y,z
1/2+x,1/2-y,-z
1/2-x,1/2+y,-z
1/2-x,1/2-y,-z
1/2+x,1/2+y,-z
1/2-x,1/2+y,z
1/2+x,1/2-y,z
loop_
_atom_site_type_symbol
_atom_site_label
_atom_site_fract_x
_atom_site_fract_y
_atom_site_fract_z
Si Si1 0.112287 0.359517 0.387437
Si Si2 0.604209 0.777325 0.111832
Si Si3 0.385152 0.728057 0.607684
Si Si4 0.700385 0.660094 0.889827
Si Si5 0.311448 0.620365 0.700970
Si Si6 0.000000 0.066290 0.392852
O O1 0.120826 0.366672 0.500000
O O2 0.123747 0.293114 0.370041
O O3 0.202228 0.390512 0.337339
O O4 0.000000 0.374629 0.361634
O O5 0.500000 0.790926 0.155293
O O6 0.628047 0.712449 0.121523
O O7 0.694500 0.814824 0.140252
O O8 0.599518 0.785976 0.000000
O O9 0.352618 0.719313 0.500000
O O10 0.500000 0.715244 0.612026
O O11 0.331556 0.684996 0.673987
O O12 0.678886 0.614427 0.812674
O O13 0.701045 0.645078 0.000000
O O14 0.399988 0.587884 0.653116
O O15 0.000000 0.086028 0.500000
O O16 0.000000 0.000000 0.390675
#
# Coordination Sequence:
#
# PCOD9494119 Si02
#       6
#    16  16  16  16  16   8
#     4   9  19  32  48  78 117 146 172 217 273 340
#     4   8  15  29  45  62 103 157 194 222 251 297
#     4   9  17  29  45  71 107 141 177 215 256 322
#     4   9  20  32  43  72 108 144 191 231 263 309
#     4  12  21  33  57  78 101 147 188 226 274 332
#     4  11  26  46  65  85 105 131 182 246 294 336
#
# _framework density 18.647603
#
# number of rings (size 3 to 8) (size 9 to 14) (size 15 to 20)
#    0.000    2.455    0.909    4.364    6.364    2.182 
#    0.000    0.000    0.000    1.636    0.000    2.545 
#    0.000    0.000    0.000    6.182    0.000    0.182 
#
# Total GULP energy -245421.757667 kJ/mol
# GULP energy per Si atom -5577.767220 kJ/mol
# Density = 1.860516 g / cm^3
# Si number density = 18.647603 Si / 1000 Ang^3
#
#
#
# Elastic Constant Matrix: (Units=GPa)
#
#
# Indices 1 2 3 4 5 6 
#
# 1 125.7518 24.0063 46.0066 0.0000 0.0000 0.0000
# 2 24.0063 17.8876 21.5786 0.0000 0.0000 0.0000
# 3 46.0066 21.5786 110.0033 0.0000 0.0000 0.0000
# 4 0.0000 0.0000 0.0000 6.3161 0.0000 0.0000
# 5 0.0000 0.0000 0.0000 0.0000 14.3184 0.0000
# 6 0.0000 0.0000 0.0000 0.0000 0.0000 8.1906
#
#
#
# Elastic Compliance Matrix: (Units=1/GPa)
#
#
# Indices 1 2 3 4 5 6 
#
# 1 0.011102 -0.012181 -0.002254 0.000000 0.000000 0.000000
# 2 -0.012181 0.086599 -0.011893 0.000000 0.000000 0.000000
# 3 -0.002254 -0.011893 0.012366 0.000000 0.000000 0.000000
# 4 0.000000 0.000000 0.000000 0.158325 0.000000 0.000000
# 5 0.000000 0.000000 0.000000 0.000000 0.069840 0.000000
# 6 0.000000 0.000000 0.000000 0.000000 0.000000 0.122092
#
#
# Mechanical properties :
#
#
# Convention : Reuss Voigt Hill
#
# Bulk Modulus (GPa) = 17.41797 48.53619 32.97708
# Shear Modulus (GPa) = 9.39642 16.56843 12.98243
#
# Velocity S-wave (km/s) = 2.24719 2.98401 2.64142
# Velocity P-wave (km/s) = 4.01174 6.16093 5.19861
#
# Compressibility (1/GPa) = 0.05741197
#
# Stress axis : x y z
#
# Youngs Moduli (GPa) = 90.07327 11.54742 80.86519
#
# Poissons Ratio (x) = 0.14066 0.18225
# Poissons Ratio (y) = 1.09717 0.96175
# Poissons Ratio (z) = 0.20300 0.13734
#
# Static dielectric constant tensor:
#      x y z
#    x 1.711350 0.000000 0.000000 
#    y 0.000000 1.596850 0.000000 
#    z 0.000000 0.000000 1.703790 
# 
# From -- ./inp_files/40558.got.cif
#   From: 2010.05.17/outbox.cif.g08.bks.cpg/sg65_21_cif.got.tgz:40558.got - 2010.06.03 17:01:31.
