data_PCOD9494376
_publ_section_title
;
Structure prediction by ZEFSAII (Michael W. Deem and Ramdas Pophale) SiO2 
 PCOD9494376
Probable space group: C M M M
;
_chemical_formula_sum "Si O2"
_cell_formula_units_Z 96
_cell_length_a 15.718395
_cell_length_b 21.751944
_cell_length_c 11.483042
_cell_angle_alpha 90.000000
_cell_angle_beta 90.000000
_cell_angle_gamma 90.000000
_cell_volume 3926.116914
_symmetry_space_group_name_H-M "C M M M"
_symmetry_group_IT_number 65
_symmetry_cell_setting 'orthorhombic'
loop_
_space_group_symop_operation_xyz
x,y,z
-x,-y,z
x,-y,-z
-x,y,-z
-x,-y,-z
x,y,-z
-x,y,z
x,-y,z
1/2+x,1/2+y,z
1/2-x,1/2-y,z
1/2+x,1/2-y,-z
1/2-x,1/2+y,-z
1/2-x,1/2-y,-z
1/2+x,1/2+y,-z
1/2-x,1/2+y,z
1/2+x,1/2-y,z
loop_
_atom_site_type_symbol
_atom_site_label
_atom_site_fract_x
_atom_site_fract_y
_atom_site_fract_z
Si Si1 0.101962 0.072115 0.875726
Si Si2 0.351987 0.427976 0.625162
Si Si3 0.851958 0.737445 0.625513
Si Si4 0.849667 0.590140 0.375498
Si Si5 0.601379 0.905193 0.875580
Si Si6 0.649006 0.762250 0.124733
O O1 0.126120 0.099600 0.750986
O O2 0.000000 0.072966 0.879614
O O3 0.128699 0.000000 0.873682
O O4 0.134643 0.097823 0.000000
O O5 0.384177 0.403338 0.500000
O O6 0.377854 0.500000 0.628195
O O7 0.250480 0.423046 0.620105
O O8 0.884707 0.760263 0.500000
O O9 0.750000 0.750000 0.625643
O O10 0.863779 0.663766 0.625533
O O11 0.886107 0.760117 0.750396
O O12 0.886291 0.568388 0.500000
O O13 0.877766 0.566700 0.249620
O O14 0.500000 0.902285 0.879588
O O15 0.636295 0.835664 0.874283
O O16 0.630896 0.932297 0.000000
O O17 0.750000 0.750000 0.124629
O O18 0.613168 0.739977 0.000000
#
# Coordination Sequence:
#
# PCOD9494376 Si02
#       6
#    16  16  16  16  16  16
#     4   8  14  25  41  62  88 116 146 180 215 249
#     4   9  17  28  42  62  88 115 143 177 215 256
#     4   8  13  22  37  57  79 101 127 162 201 238
#     4   9  17  28  42  62  86 111 141 176 214 258
#     4   9  17  28  42  62  86 109 138 179 221 258
#     4   8  13  22  37  57  80 104 129 158 197 246
#
# _framework density 24.451642
#
# number of rings (size 3 to 8) (size 9 to 14) (size 15 to 20)
#    0.000    3.500    0.000    0.500    0.000    1.333 
#    0.000    1.667    0.000    0.500    0.000   22.167 
#    0.000   88.000    0.000    0.000    0.000    0.000 
#
# Total GULP energy -267281.282061 kJ/mol
# GULP energy per Si atom -5568.360043 kJ/mol
# Density = 2.439599 g / cm^3
# Si number density = 24.451642 Si / 1000 Ang^3
#
#
#
# Elastic Constant Matrix: (Units=GPa)
#
#
# Indices 1 2 3 4 5 6 
#
# 1 26.2203 -6.6137 35.2031 0.0000 0.0000 0.0000
# 2 -6.6137 110.3811 26.5039 0.0000 0.0000 0.0000
# 3 35.2031 26.5039 394.6516 0.0000 0.0000 0.0000
# 4 0.0000 0.0000 0.0000 -55.3899 0.0000 0.0000
# 5 0.0000 0.0000 0.0000 0.0000 23.2247 0.0000
# 6 0.0000 0.0000 0.0000 0.0000 0.0000 1.8331
#
#
#
# Elastic Compliance Matrix: (Units=1/GPa)
#
#
# Indices 1 2 3 4 5 6 
#
# 1 0.044767 0.003701 -0.004242 0.000000 0.000000 0.000000
# 2 0.003701 0.009514 -0.000969 0.000000 0.000000 0.000000
# 3 -0.004242 -0.000969 0.002977 0.000000 0.000000 0.000000
# 4 0.000000 0.000000 0.000000 -0.018054 0.000000 0.000000
# 5 0.000000 0.000000 0.000000 0.000000 0.043058 0.000000
# 6 0.000000 0.000000 0.000000 0.000000 0.000000 0.545538
#
#
# Mechanical properties :
#
#
# Convention : Reuss Voigt Hill
#
# Bulk Modulus (GPa) = 18.43724 71.27107 44.85416
# Shear Modulus (GPa) = 7.70536 25.67753 16.69145
#
# Velocity S-wave (km/s) = 1.77711 3.24409 2.61556
# Velocity P-wave (km/s) = 3.43037 6.57596 5.24455
#
# Compressibility (1/GPa) = 0.05423805
#
# Stress axis : x y z
#
# Youngs Moduli (GPa) = 22.33796 105.10892 335.87182
#
# Poissons Ratio (x) = -0.38898 1.42469
# Poissons Ratio (y) = -0.08267 0.32547
# Poissons Ratio (z) = 0.09475 0.10186
#
# Static dielectric constant tensor:
#      x y z
#    x 1.846650 0.000000 0.000000 
#    y 0.000000 1.891850 0.000000 
#    z 0.000000 0.000000 2.105630 
# 
# From -- ./inp_files/27131.got.cif
#   From: 2010.05.17/outbox.cif.g08.bks.cpg/sg65_14_cif.got.tgz:27131.got - 2010.06.03 17:01:31.
