data_PCOD9494445
_publ_section_title
;
Structure prediction by ZEFSAII (Michael W. Deem and Ramdas Pophale) SiO2 
 PCOD9494445
Probable space group: C M M M
;
_chemical_formula_sum "Si O2"
_cell_formula_units_Z 88
_cell_length_a 9.121802
_cell_length_b 20.343416
_cell_length_c 29.012462
_cell_angle_alpha 90.000000
_cell_angle_beta 90.000000
_cell_angle_gamma 90.000000
_cell_volume 5383.802326
_symmetry_space_group_name_H-M "C M M M"
_symmetry_group_IT_number 65
_symmetry_cell_setting 'orthorhombic'
loop_
_space_group_symop_operation_xyz
x,y,z
-x,-y,z
x,-y,-z
-x,y,-z
-x,-y,-z
x,y,-z
-x,y,z
x,-y,z
1/2+x,1/2+y,z
1/2-x,1/2-y,z
1/2+x,1/2-y,-z
1/2-x,1/2+y,-z
1/2-x,1/2-y,-z
1/2+x,1/2+y,-z
1/2-x,1/2+y,z
1/2+x,1/2-y,z
loop_
_atom_site_type_symbol
_atom_site_label
_atom_site_fract_x
_atom_site_fract_y
_atom_site_fract_z
Si Si1 0.323549 0.923432 0.187949
Si Si2 0.831508 0.079972 0.907009
Si Si3 0.321547 0.924752 0.447831
Si Si4 0.830836 0.419768 0.000000
Si Si5 0.176805 0.679964 0.627999
Si Si6 0.676205 0.179977 0.734016
O O1 0.500000 0.920893 0.183139
O O2 0.250632 0.901697 0.139986
O O3 0.279931 0.876057 0.229794
O O4 0.284141 0.000000 0.196560
O O5 0.750105 0.101981 0.953429
O O6 0.000000 0.101456 0.906641
O O7 0.830457 0.000000 0.908083
O O8 0.276723 0.906475 0.500000
O O9 0.500000 0.924697 0.447342
O O10 0.273366 0.874352 0.408697
O O11 0.275485 0.000000 0.439061
O O12 0.828112 0.500000 0.000000
O O13 0.000000 0.399688 0.000000
O O14 0.250000 0.750000 0.618250
O O15 0.212610 0.662012 0.681022
O O16 0.000000 0.685950 0.624977
O O17 0.500000 0.187197 0.736602
O O18 0.750000 0.250000 0.744253
#
# Coordination Sequence:
#
# PCOD9494445 Si02
#       6
#    16  16  16   8  16  16
#     4   9  17  29  44  63  87 113 144 183 224 264
#     4   9  16  25  38  59  87 116 146 181 221 264
#     4   8  14  25  42  65  91 117 147 184 223 263
#     4   9  15  23  37  57  84 119 152 181 218 261
#     4   9  17  29  45  65  88 114 146 184 224 265
#     4   9  18  31  46  64  87 116 148 183 223 267
#
# _framework density 16.345324999999999
#
# number of rings (size 3 to 8) (size 9 to 14) (size 15 to 20)
#    0.000    3.182    0.000    1.364    0.000    5.091 
#    0.000    3.636    0.000    0.545    0.000    7.000 
#    0.000    0.000    0.000    0.000    0.000    0.000 
#
# Total GULP energy -245002.016391 kJ/mol
# GULP energy per Si atom -5568.227645 kJ/mol
# Density = 1.630812 g / cm^3
# Si number density = 16.345325 Si / 1000 Ang^3
#
#
#
# Elastic Constant Matrix: (Units=GPa)
#
#
# Indices 1 2 3 4 5 6 
#
# 1 32.0400 31.5015 49.8918 0.0000 0.0000 0.0000
# 2 31.5015 76.3573 102.2027 0.0000 0.0000 0.0000
# 3 49.8918 102.2027 176.4879 0.0000 0.0000 0.0000
# 4 0.0000 0.0000 0.0000 -2.6369 0.0000 0.0000
# 5 0.0000 0.0000 0.0000 0.0000 15.5985 0.0000
# 6 0.0000 0.0000 0.0000 0.0000 0.0000 18.4366
#
#
#
# Elastic Compliance Matrix: (Units=1/GPa)
#
#
# Indices 1 2 3 4 5 6 
#
# 1 0.057014 -0.008664 -0.011100 0.000000 0.000000 0.000000
# 2 -0.008664 0.059549 -0.032035 0.000000 0.000000 0.000000
# 3 -0.011100 -0.032035 0.027355 0.000000 0.000000 0.000000
# 4 0.000000 0.000000 0.000000 -0.379236 0.000000 0.000000
# 5 0.000000 0.000000 0.000000 0.000000 0.064109 0.000000
# 6 0.000000 0.000000 0.000000 0.000000 0.000000 0.054240
#
#
# Mechanical properties :
#
#
# Convention : Reuss Voigt Hill
#
# Bulk Modulus (GPa) = 24.80161 72.45303 48.62732
# Shear Modulus (GPa) = 70232.82916 13.03226 35122.93071
#
# Velocity S-wave (km/s) = 207.51247 2.82673 146.74709
# Velocity P-wave (km/s) = 239.64649 7.42136 169.53689
#
# Compressibility (1/GPa) = 0.04031996
#
# Stress axis : x y z
#
# Youngs Moduli (GPa) = 17.53941 16.79284 36.55591
#
# Poissons Ratio (x) = 0.14550 0.40578
# Poissons Ratio (y) = 0.15196 1.17107
# Poissons Ratio (z) = 0.19469 0.53796
#
# Static dielectric constant tensor:
#      x y z
#    x 1.548340 0.000000 0.000000 
#    y 0.000000 1.523370 0.000000 
#    z 0.000000 0.000000 1.549110 
# 
# From -- ./inp_files/76636.got.cif
#   From: 2010.05.17/outbox.cif.g08.bks.cpg/sg65_39_cif.got.tgz:76636.got - 2010.06.03 17:01:31.
