data_PCOD9494986
_publ_section_title
;
Structure prediction by ZEFSAII (Michael W. Deem and Ramdas Pophale) SiO2 
 PCOD9494986
Probable space group: C C C M
;
_chemical_formula_sum "Si O2"
_cell_formula_units_Z 56
_cell_length_a 9.849104
_cell_length_b 10.317749
_cell_length_c 25.616051
_cell_angle_alpha 90.000000
_cell_angle_beta 90.000000
_cell_angle_gamma 90.000000
_cell_volume 2603.118035
_symmetry_space_group_name_H-M "C C C M"
_symmetry_group_IT_number 66
_symmetry_cell_setting 'orthorhombic'
loop_
_space_group_symop_operation_xyz
x,y,z
-x,-y,z
x,-y,1/2-z
-x,y,1/2-z
-x,-y,-z
x,y,-z
-x,y,1/2+z
x,-y,1/2+z
1/2+x,1/2+y,z
1/2-x,1/2-y,z
1/2+x,1/2-y,1/2-z
1/2-x,1/2+y,1/2-z
1/2-x,1/2-y,-z
1/2+x,1/2+y,-z
1/2-x,1/2+y,1/2+z
1/2+x,1/2-y,1/2+z
loop_
_atom_site_type_symbol
_atom_site_label
_atom_site_fract_x
_atom_site_fract_y
_atom_site_fract_z
Si Si1 0.652415 0.120836 0.000000
Si Si2 0.144201 0.368906 0.722939
Si Si3 0.905189 0.203088 0.500000
Si Si4 0.776058 0.401879 0.111941
Si Si5 0.500000 0.500000 0.911783
O O1 0.750000 0.250000 0.000000
O O2 0.501143 0.172570 0.000000
O O3 0.680234 0.049581 0.945365
O O4 0.197143 0.500000 0.750000
O O5 0.250000 0.250000 0.726561
O O6 0.128463 0.407187 0.661883
O O7 0.000000 0.337739 0.750000
O O8 0.750000 0.250000 0.500000
O O9 0.952226 0.116564 0.450150
O O10 0.750000 0.250000 0.104899
O O11 0.629598 0.463626 0.122349
#
# Coordination Sequence:
#
# PCOD9494986 Si02
#       5
#     8  16   8  16   8
#     4  10  16  39  65  93 144 171 205 274 336 400
#     4  10  24  47  70  99 134 177 233 289 341 400
#     4  11  22  38  60 101 137 175 221 260 316 414
#     4  10  20  39  71  94 129 181 214 269 343 401
#     4  11  20  40  65  90 138 178 211 265 336 400
#
# _framework density 21.512663
#
# number of rings (size 3 to 8) (size 9 to 14) (size 15 to 20)
#    0.000    1.714    5.714    0.857    0.000    5.143 
#   10.286    1.429    0.000    0.000    0.000    0.000 
#    0.000    0.000    0.000    0.000    0.000    0.000 
#
# Total GULP energy -156221.460617 kJ/mol
# GULP energy per Si atom -5579.337879 kJ/mol
# Density = 2.146370 g / cm^3
# Si number density = 21.512663 Si / 1000 Ang^3
#
#
#
# Elastic Constant Matrix: (Units=GPa)
#
#
# Indices 1 2 3 4 5 6 
#
# 1 171.3599 36.0190 53.9162 0.0000 0.0000 0.0000
# 2 36.0190 72.8615 20.5617 0.0000 0.0000 0.0000
# 3 53.9162 20.5617 168.1507 0.0000 0.0000 0.0000
# 4 0.0000 0.0000 0.0000 -16.5399 0.0000 0.0000
# 5 0.0000 0.0000 0.0000 0.0000 39.6455 0.0000
# 6 0.0000 0.0000 0.0000 0.0000 0.0000 48.5855
#
#
#
# Elastic Compliance Matrix: (Units=1/GPa)
#
#
# Indices 1 2 3 4 5 6 
#
# 1 0.007054 -0.002951 -0.001901 0.000000 0.000000 0.000000
# 2 -0.002951 0.015449 -0.000943 0.000000 0.000000 0.000000
# 3 -0.001901 -0.000943 0.006672 0.000000 0.000000 0.000000
# 4 0.000000 0.000000 0.000000 -0.060460 0.000000 0.000000
# 5 0.000000 0.000000 0.000000 0.000000 0.025224 0.000000
# 6 0.000000 0.000000 0.000000 0.000000 0.000000 0.020582
#
#
# Mechanical properties :
#
#
# Convention : Reuss Voigt Hill
#
# Bulk Modulus (GPa) = 56.86376 70.37399 63.61888
# Shear Modulus (GPa) = 156.38272 34.46322 95.42297
#
# Velocity S-wave (km/s) = 8.53529 4.00684 6.66730
# Velocity P-wave (km/s) = 11.11868 7.36140 9.42908
#
# Compressibility (1/GPa) = 0.01758589
#
# Stress axis : x y z
#
# Youngs Moduli (GPa) = 141.76324 64.72715 149.88220
#
# Poissons Ratio (x) = 0.19099 0.28493
# Poissons Ratio (y) = 0.41830 0.14135
# Poissons Ratio (z) = 0.26949 0.06104
#
# Static dielectric constant tensor:
#      x y z
#    x 1.804890 0.000000 0.000000 
#    y 0.000000 1.814120 0.000000 
#    z 0.000000 0.000000 1.855900 
# 
# From -- ./inp_files/61991.got.cif
#   From: 2010.05.17/outbox.cif.g08.bks.cpg/sg66_31_cif.got.tgz:61991.got - 2010.06.03 17:51:23.
