data_PCOD9494337
_publ_section_title
;
Structure prediction by ZEFSAII (Michael W. Deem and Ramdas Pophale) SiO2 
 PCOD9494337
Probable space group: C M M M
;
_chemical_formula_sum "Si O2"
_cell_formula_units_Z 104
_cell_length_a 34.609906
_cell_length_b 19.795238
_cell_length_c 7.533095
_cell_angle_alpha 90.000000
_cell_angle_beta 90.000000
_cell_angle_gamma 90.000000
_cell_volume 5161.008708
_symmetry_space_group_name_H-M "C M M M"
_symmetry_group_IT_number 65
_symmetry_cell_setting 'orthorhombic'
loop_
_space_group_symop_operation_xyz
x,y,z
-x,-y,z
x,-y,-z
-x,y,-z
-x,-y,-z
x,y,-z
-x,y,z
x,-y,z
1/2+x,1/2+y,z
1/2-x,1/2-y,z
1/2+x,1/2-y,-z
1/2-x,1/2+y,-z
1/2-x,1/2-y,-z
1/2+x,1/2+y,-z
1/2-x,1/2+y,z
1/2+x,1/2-y,z
loop_
_atom_site_type_symbol
_atom_site_label
_atom_site_fract_x
_atom_site_fract_y
_atom_site_fract_z
Si Si1 0.181923 0.423093 0.790241
Si Si2 0.235027 0.922402 0.712507
Si Si3 0.500000 0.422725 0.716723
Si Si4 0.955279 0.696005 0.282544
Si Si5 0.097678 0.576587 0.708761
Si Si6 0.650417 0.420929 0.716661
Si Si7 0.075593 0.839899 0.716916
O O1 0.183641 0.500000 0.714248
O O2 0.223541 0.389931 0.754526
O O3 0.141282 0.394615 0.724649
O O4 0.178337 0.427571 0.000000
O O5 0.233186 0.925096 0.500000
O O6 0.193224 0.896251 0.772976
O O7 0.236910 0.000000 0.780331
O O8 0.500000 0.500000 0.774944
O O9 0.500000 0.422492 0.500000
O O10 0.538626 0.384075 0.772090
O O11 0.955206 0.695612 0.500000
O O12 0.933374 0.629051 0.218739
O O13 0.932392 0.763222 0.227634
O O14 0.000000 0.699240 0.228103
O O15 0.089632 0.570600 0.500000
O O16 0.096947 0.500000 0.783564
O O17 0.649664 0.420557 0.500000
O O18 0.645798 0.500000 0.767949
O O19 0.615169 0.374665 0.777580
O O20 0.076241 0.840377 0.500000
#
# Coordination Sequence:
#
# PCOD9494337 Si02
#       7
#    16  16   8  16  16  16  16
#     4   9  16  26  42  64  87 108 134 173 217 257
#     4   8  13  22  37  58  85 114 140 167 202 245
#     4   9  14  18  28  48  77 115 148 171 203 249
#     4   9  16  26  39  56  80 109 141 177 216 252
#     4   9  17  28  43  63  85 110 141 176 213 255
#     4   8  13  20  32  53  81 113 146 175 203 241
#     4   9  14  21  32  50  79 112 144 176 208 246
#
# _framework density 20.1511
#
# number of rings (size 3 to 8) (size 9 to 14) (size 15 to 20)
#    0.000    3.308    0.769    1.846    0.000    4.000 
#    0.000    1.538    0.000    1.385    0.000    9.692 
#    0.000    0.000    0.000    0.154    0.000   15.231 
#
# Total GULP energy -289635.853946 kJ/mol
# GULP energy per Si atom -5569.920268 kJ/mol
# Density = 2.010523 g / cm^3
# Si number density = 20.151100 Si / 1000 Ang^3
#
#
#
# Elastic Constant Matrix: (Units=GPa)
#
#
# Indices 1 2 3 4 5 6 
#
# 1 146.9233 74.4185 -2.5741 0.0000 0.0000 0.0000
# 2 74.4185 92.6800 5.1109 0.0000 0.0000 0.0000
# 3 -2.5741 5.1109 49.1574 0.0000 0.0000 0.0000
# 4 0.0000 0.0000 0.0000 -4.6640 0.0000 0.0000
# 5 0.0000 0.0000 0.0000 0.0000 -42.5314 0.0000
# 6 0.0000 0.0000 0.0000 0.0000 0.0000 -11.1626
#
#
#
# Elastic Compliance Matrix: (Units=1/GPa)
#
#
# Indices 1 2 3 4 5 6 
#
# 1 0.011593 -0.009396 0.001584 0.000000 0.000000 0.000000
# 2 -0.009396 0.018468 -0.002412 0.000000 0.000000 0.000000
# 3 0.001584 -0.002412 0.020677 0.000000 0.000000 0.000000
# 4 0.000000 0.000000 0.000000 -0.214408 0.000000 0.000000
# 5 0.000000 0.000000 0.000000 0.000000 -0.023512 0.000000
# 6 0.000000 0.000000 0.000000 0.000000 0.000000 -0.089585
#
#
# Mechanical properties :
#
#
# Convention : Reuss Voigt Hill
#
# Bulk Modulus (GPa) = 33.01558 49.18569 41.10063
# Shear Modulus (GPa) = -20.30690 2.44876 -8.92907
#
# Velocity S-wave (km/s) = -3.17792 1.10356 -2.10729
# Velocity P-wave (km/s) = 1.71872 5.10737 3.81046
#
# Compressibility (1/GPa) = 0.03028873
#
# Stress axis : x y z
#
# Youngs Moduli (GPa) = 86.25569 54.14825 48.36393
#
# Poissons Ratio (x) = 0.50880 -0.07661
# Poissons Ratio (y) = 0.81050 0.11666
# Poissons Ratio (z) = -0.13663 0.13061
#
# Static dielectric constant tensor:
#      x y z
#    x 1.741090 0.000000 0.000000 
#    y 0.000000 1.692690 0.000000 
#    z 0.000000 0.000000 1.747560 
# 
# From -- ./inp_files/18658.got.cif
#   From: 2010.05.17/outbox.cif.g08.bks.cpg/sg65_10_cif.got.tgz:18658.got - 2010.06.03 17:01:31.
