data_PCOD9494708
_publ_section_title
;
Structure prediction by ZEFSAII (Michael W. Deem and Ramdas Pophale) SiO2 
 PCOD9494708
Probable space group: C M M M
;
_chemical_formula_sum "Si O2"
_cell_formula_units_Z 44
_cell_length_a 30.000000
_cell_length_b 9.000000
_cell_length_c 18.000000
_cell_angle_alpha 90.000000
_cell_angle_beta 90.000000
_cell_angle_gamma 90.000000
_cell_volume 4860.000000
_symmetry_space_group_name_H-M "C M M M"
_symmetry_group_IT_number 65
_symmetry_cell_setting 'orthorhombic'
loop_
_space_group_symop_operation_xyz
x,y,z
-x,-y,z
x,-y,-z
-x,y,-z
-x,-y,-z
x,y,-z
-x,y,z
x,-y,z
1/2+x,1/2+y,z
1/2-x,1/2-y,z
1/2+x,1/2-y,-z
1/2-x,1/2+y,-z
1/2-x,1/2-y,-z
1/2+x,1/2+y,-z
1/2-x,1/2+y,z
1/2+x,1/2-y,z
loop_
_atom_site_type_symbol
_atom_site_label
_atom_site_fract_x
_atom_site_fract_y
_atom_site_fract_z
Si Si1 0.589998 0.828193 0.873790
Si Si2 0.050614 0.821446 0.584305
Si Si3 0.794059 0.321869 0.236945
Si Si4 0.386157 0.171483 0.298969
Si Si5 0.320751 0.677289 0.082884
Si Si6 0.000000 0.833691 0.087912
O O1 0.595469 0.823924 0.784947
O O2 0.627852 0.727619 0.911117
O O3 0.542882 0.759644 0.891209
O O4 0.594958 0.000000 0.897446
O O5 0.061332 0.773755 0.500000
O O6 0.084675 0.762494 0.644325
O O7 0.000000 0.771893 0.601236
O O8 0.050678 0.000000 0.585138
O O9 0.792970 0.500000 0.233699
O O10 0.750000 0.250000 0.268312
O O11 0.835842 0.275044 0.286755
O O12 0.799642 0.261625 0.152791
O O13 0.385659 0.000000 0.323002
O O14 0.316280 0.500000 0.092440
O O15 0.304330 0.716519 0.000000
O O16 0.000000 0.000000 0.121371
O O17 0.000000 0.849087 0.000000
#
# Coordination Sequence:
#
# PCOD9494708 Si02
#       6
#    16  16  16  16  16   8
#     4  10  21  35  50  71 100 135 176 223 270 318
#     4   9  19  35  55  83 116 146 177 212 253 306
#     4  10  21  37  56  79 106 138 179 225 273 325
#     4   9  20  36  54  79 108 138 174 216 263 315
#     4  10  20  34  52  74 101 134 175 223 273 326
#     4  11  23  35  47  67  96 133 180 227 269 318
#
# _framework density 9.0534979999999994
#
# number of rings (size 3 to 8) (size 9 to 14) (size 15 to 20)
#    0.000    2.273    0.000    4.091    1.273    9.818 
#    0.000    0.909    0.000    0.545    0.000    0.000 
#    0.000    0.000    0.000    0.000    0.000    0.000 
#
# Total GULP energy -245375.092416 kJ/mol
# GULP energy per Si atom -5576.706646 kJ/mol
# Density = 0.903289 g / cm^3
# Si number density = 9.053498 Si / 1000 Ang^3
#
#
#
# Elastic Constant Matrix: (Units=GPa)
#
#
# Indices 1 2 3 4 5 6 
#
# 1 119.8632 32.1583 52.6006 0.0000 0.0000 0.0000
# 2 32.1583 42.7028 35.7688 0.0000 0.0000 0.0000
# 3 52.6006 35.7688 72.2730 0.0000 0.0000 0.0000
# 4 0.0000 0.0000 0.0000 32.7656 0.0000 0.0000
# 5 0.0000 0.0000 0.0000 0.0000 30.0805 0.0000
# 6 0.0000 0.0000 0.0000 0.0000 0.0000 26.0706
#
#
#
# Elastic Compliance Matrix: (Units=1/GPa)
#
#
# Indices 1 2 3 4 5 6 
#
# 1 0.012488 -0.003060 -0.007574 0.000000 0.000000 0.000000
# 2 -0.003060 0.040749 -0.017940 0.000000 0.000000 0.000000
# 3 -0.007574 -0.017940 0.028228 0.000000 0.000000 0.000000
# 4 0.000000 0.000000 0.000000 0.030520 0.000000 0.000000
# 5 0.000000 0.000000 0.000000 0.000000 0.033244 0.000000
# 6 0.000000 0.000000 0.000000 0.000000 0.000000 0.038357
#
#
# Mechanical properties :
#
#
# Convention : Reuss Voigt Hill
#
# Bulk Modulus (GPa) = 41.12523 52.87714 47.00118
# Shear Modulus (GPa) = 20.09324 25.40409 22.74866
#
# Velocity S-wave (km/s) = 3.33482 3.74973 3.54834
# Velocity P-wave (km/s) = 6.13104 6.92916 6.54228
#
# Compressibility (1/GPa) = 0.02431598
#
# Stress axis : x y z
#
# Youngs Moduli (GPa) = 80.07940 24.54041 35.42593
#
# Poissons Ratio (x) = 0.07509 0.26832
# Poissons Ratio (y) = 0.24502 0.63555
# Poissons Ratio (z) = 0.60654 0.44026
#
# Static dielectric constant tensor:
#      x y z
#    x 1.556550 0.000000 0.000000 
#    y 0.000000 1.612810 0.000000 
#    z 0.000000 0.000000 1.600680 
# 
# From -- ./inp_files/50306.got.cif
#   From: 2010.05.17/outbox.ucp.g08.bks.cvg/sg65_26_cif.got.tgz:50306.got - 2010.06.11 16:39:57.
