data_PCOD9494749
_publ_section_title
;
Structure prediction by ZEFSAII (Michael W. Deem and Ramdas Pophale) SiO2 
 PCOD9494749
Probable space group: C M M M
;
_chemical_formula_sum "Si O2"
_cell_formula_units_Z 60
_cell_length_a 30.000000
_cell_length_b 15.000000
_cell_length_c 15.000000
_cell_angle_alpha 90.000000
_cell_angle_beta 90.000000
_cell_angle_gamma 90.000000
_cell_volume 6750.000000
_symmetry_space_group_name_H-M "C M M M"
_symmetry_group_IT_number 65
_symmetry_cell_setting 'orthorhombic'
loop_
_space_group_symop_operation_xyz
x,y,z
-x,-y,z
x,-y,-z
-x,y,-z
-x,-y,-z
x,y,-z
-x,y,z
x,-y,z
1/2+x,1/2+y,z
1/2-x,1/2-y,z
1/2+x,1/2-y,-z
1/2-x,1/2+y,-z
1/2-x,1/2-y,-z
1/2+x,1/2+y,-z
1/2-x,1/2+y,z
1/2+x,1/2-y,z
loop_
_atom_site_type_symbol
_atom_site_label
_atom_site_fract_x
_atom_site_fract_y
_atom_site_fract_z
Si Si1 0.000000 0.899676 0.607228
Si Si2 0.410184 0.293038 0.396318
Si Si3 0.052918 0.215400 0.897455
Si Si4 0.446113 0.101147 0.348674
Si Si5 0.402574 0.900449 0.152498
Si Si6 0.804206 0.645330 0.896325
Si Si7 0.702464 0.360705 0.895555
Si Si8 0.381033 0.395588 0.229982
O O1 0.043993 0.844359 0.628496
O O2 0.000000 0.906891 0.500000
O O3 0.000000 0.000000 0.644571
O O4 0.398293 0.313497 0.500000
O O5 0.421893 0.187500 0.391023
O O6 0.377892 0.334133 0.319880
O O7 0.075211 0.314150 0.893534
O O8 0.080974 0.151731 0.831465
O O9 0.000000 0.219937 0.874431
O O10 0.056654 0.183753 0.000000
O O11 0.500000 0.115172 0.348847
O O12 0.425867 0.099629 0.249229
O O13 0.438678 0.000000 0.385727
O O14 0.348776 0.886091 0.154516
O O15 0.410591 0.000000 0.113850
O O16 0.753879 0.615151 0.870837
O O17 0.802032 0.752953 0.893135
O O18 0.810766 0.619430 0.000000
O O19 0.664471 0.394228 0.828553
O O20 0.695462 0.386817 0.000000
O O21 0.391206 0.500000 0.250602
#
# Coordination Sequence:
#
# PCOD9494749 Si02
#       8
#     8  16  16  16  16  16  16  16
#     4   9  18  32  51  77 106 138 178 225 279 339
#     4  11  22  38  59  83 112 145 185 239 297 352
#     4  11  24  40  56  77 112 157 202 242 279 332
#     4  10  20  35  57  85 117 153 192 235 289 355
#     4  11  21  34  56  85 117 154 192 234 285 342
#     4   9  17  32  56  85 117 151 190 239 291 343
#     4   9  18  35  59  85 116 154 193 236 289 346
#     4  12  25  39  59  83 113 154 196 244 295 344
#
# _framework density 8.8888890000000007
#
# number of rings (size 3 to 8) (size 9 to 14) (size 15 to 20)
#    0.000    1.667    3.333    2.400    0.933    4.800 
#    0.000    3.333    0.000    0.000    0.000    7.467 
#    0.000    6.400    0.000    0.000    0.000    0.000 
#
# Total GULP energy -334673.253285 kJ/mol
# GULP energy per Si atom -5577.887555 kJ/mol
# Density = 0.886866 g / cm^3
# Si number density = 8.888889 Si / 1000 Ang^3
#
#
#
# Elastic Constant Matrix: (Units=GPa)
#
#
# Indices 1 2 3 4 5 6 
#
# 1 98.1822 21.0208 34.5516 0.0000 0.0000 0.0000
# 2 21.0208 118.1169 26.5351 0.0000 0.0000 0.0000
# 3 34.5516 26.5351 90.2217 0.0000 0.0000 0.0000
# 4 0.0000 0.0000 0.0000 16.1287 0.0000 0.0000
# 5 0.0000 0.0000 0.0000 0.0000 20.4105 0.0000
# 6 0.0000 0.0000 0.0000 0.0000 0.0000 20.3596
#
#
#
# Elastic Compliance Matrix: (Units=1/GPa)
#
#
# Indices 1 2 3 4 5 6 
#
# 1 0.011922 -0.001174 -0.004220 0.000000 0.000000 0.000000
# 2 -0.001174 0.009181 -0.002251 0.000000 0.000000 0.000000
# 3 -0.004220 -0.002251 0.013362 0.000000 0.000000 0.000000
# 4 0.000000 0.000000 0.000000 0.062001 0.000000 0.000000
# 5 0.000000 0.000000 0.000000 0.000000 0.048994 0.000000
# 6 0.000000 0.000000 0.000000 0.000000 0.000000 0.049117
#
#
# Mechanical properties :
#
#
# Convention : Reuss Voigt Hill
#
# Bulk Modulus (GPa) = 52.15114 52.30398 52.22756
# Shear Modulus (GPa) = 23.12053 26.34062 24.73057
#
# Velocity S-wave (km/s) = 3.61020 3.85341 3.73378
# Velocity P-wave (km/s) = 6.83935 7.02020 6.93037
#
# Compressibility (1/GPa) = 0.01917504
#
# Stress axis : x y z
#
# Youngs Moduli (GPa) = 83.88122 108.92459 74.83901
#
# Poissons Ratio (x) = 0.12783 0.31585
# Poissons Ratio (y) = 0.09844 0.16844
# Poissons Ratio (z) = 0.35401 0.24516
#
# Static dielectric constant tensor:
#      x y z
#    x 1.606140 0.000000 0.000000 
#    y 0.000000 1.650030 0.000000 
#    z 0.000000 0.000000 1.618280 
# 
# From -- ./inp_files/48109.got.cif
#   From: 2010.05.17/outbox.ucp.g08.bks.cvg/sg65_25_cif.got.tgz:48109.got - 2010.06.11 16:39:57.
