data_PCOD9494796
_publ_section_title
;
Structure prediction by ZEFSAII (Michael W. Deem and Ramdas Pophale) SiO2 
 PCOD9494796
Probable space group: C M M M
;
_chemical_formula_sum "Si O2"
_cell_formula_units_Z 36
_cell_length_a 15.000000
_cell_length_b 27.000000
_cell_length_c 9.000000
_cell_angle_alpha 90.000000
_cell_angle_beta 90.000000
_cell_angle_gamma 90.000000
_cell_volume 3645.000000
_symmetry_space_group_name_H-M "C M M M"
_symmetry_group_IT_number 65
_symmetry_cell_setting 'orthorhombic'
loop_
_space_group_symop_operation_xyz
x,y,z
-x,-y,z
x,-y,-z
-x,y,-z
-x,-y,-z
x,y,-z
-x,y,z
x,-y,z
1/2+x,1/2+y,z
1/2-x,1/2-y,z
1/2+x,1/2-y,-z
1/2-x,1/2+y,-z
1/2-x,1/2-y,-z
1/2+x,1/2+y,-z
1/2-x,1/2+y,z
1/2+x,1/2-y,z
loop_
_atom_site_type_symbol
_atom_site_label
_atom_site_fract_x
_atom_site_fract_y
_atom_site_fract_z
Si Si1 0.220495 0.128651 0.669378
Si Si2 0.500000 0.059695 0.663546
Si Si3 0.605971 0.294127 0.834826
Si Si4 0.821100 0.558888 0.836925
Si Si5 0.398631 0.807365 0.672755
O O1 0.206628 0.116034 0.500000
O O2 0.147820 0.165916 0.727585
O O3 0.232630 0.079654 0.763991
O O4 0.316055 0.155947 0.685986
O O5 0.500000 0.082340 0.500000
O O6 0.409973 0.071258 0.747088
O O7 0.500000 0.000000 0.650161
O O8 0.500000 0.300126 0.838647
O O9 0.622613 0.239358 0.774740
O O10 0.643059 0.300434 0.000000
O O11 0.817695 0.500000 0.843547
O O12 0.830876 0.580380 0.000000
O O13 0.400204 0.791259 0.500000
O O14 0.500000 0.824795 0.708192
#
# Coordination Sequence:
#
# PCOD9494796 Si02
#       5
#    16   8  16  16  16
#     4  11  22  34  55  82 108 143 183 224 270 321
#     4   9  17  31  51  73 101 139 179 217 259 311
#     4  10  21  37  56  78 106 141 180 224 274 325
#     4  10  21  36  53  76 108 144 181 223 270 319
#     4   9  19  35  53  77 111 145 177 216 263 319
#
# _framework density 9.8765429999999999
#
# number of rings (size 3 to 8) (size 9 to 14) (size 15 to 20)
#    0.000    2.111    0.000    3.000    1.556    8.444 
#    0.000    0.000    0.000    0.667    0.000    4.667 
#    0.000    0.000    0.000    0.000    0.000    0.000 
#
# Total GULP energy -200708.959856 kJ/mol
# GULP energy per Si atom -5575.248885 kJ/mol
# Density = 0.985406 g / cm^3
# Si number density = 9.876543 Si / 1000 Ang^3
#
#
#
# Elastic Constant Matrix: (Units=GPa)
#
#
# Indices 1 2 3 4 5 6 
#
# 1 -24.3029 -8.8822 36.8438 0.0000 0.0000 0.0000
# 2 -8.8822 6.3311 50.3214 0.0000 0.0000 0.0000
# 3 36.8438 50.3214 78.5909 0.0000 0.0000 0.0000
# 4 0.0000 0.0000 0.0000 29.6217 0.0000 0.0000
# 5 0.0000 0.0000 0.0000 0.0000 26.8902 0.0000
# 6 0.0000 0.0000 0.0000 0.0000 0.0000 31.8414
#
#
#
# Elastic Compliance Matrix: (Units=1/GPa)
#
#
# Indices 1 2 3 4 5 6 
#
# 1 -1.184024 1.485116 -0.395837 0.000000 0.000000 0.000000
# 2 1.485116 -1.901399 0.521228 0.000000 0.000000 0.000000
# 3 -0.395837 0.521228 -0.135446 0.000000 0.000000 0.000000
# 4 0.000000 0.000000 0.000000 0.033759 0.000000 0.000000
# 5 0.000000 0.000000 0.000000 0.000000 0.037188 0.000000
# 6 0.000000 0.000000 0.000000 0.000000 0.000000 0.031406
#
#
# Mechanical properties :
#
#
# Convention : Reuss Voigt Hill
#
# Bulk Modulus (GPa) = 6900.43201 24.13168 3462.28184
# Shear Modulus (GPa) = -0.78871 16.49306 7.85218
#
# Velocity S-wave (km/s) = -0.63257 2.89270 1.99594
# Velocity P-wave (km/s) = 59.16413 4.83737 41.97496
#
# Compressibility (1/GPa) = 0.00014492
#
# Stress axis : x y z
#
# Youngs Moduli (GPa) = -0.84458 -0.52593 -7.38302
#
# Poissons Ratio (x) = 0.78106 -2.92247
# Poissons Ratio (y) = 1.25430 3.84824
# Poissons Ratio (z) = -0.33432 0.27413
#
# Static dielectric constant tensor:
#      x y z
#    x 1.664190 0.000000 0.000000 
#    y 0.000000 1.744590 0.000000 
#    z 0.000000 0.000000 1.704260 
# 
# From -- ./inp_files/7201.got.cif
#   From: 2010.05.17/outbox.ucp.g08.bks.cvg/sg65_4_cif.got.tgz:7201.got - 2010.06.11 16:39:57.
