data_PCOD9494553
_publ_section_title
;
Structure prediction by ZEFSAII (Michael W. Deem and Ramdas Pophale) SiO2 
 PCOD9494553
Probable space group: C M M M
;
_chemical_formula_sum "Si O2"
_cell_formula_units_Z 40
_cell_length_a 18.000000
_cell_length_b 27.000000
_cell_length_c 12.000000
_cell_angle_alpha 90.000000
_cell_angle_beta 90.000000
_cell_angle_gamma 90.000000
_cell_volume 5832.000000
_symmetry_space_group_name_H-M "C M M M"
_symmetry_group_IT_number 65
_symmetry_cell_setting 'orthorhombic'
loop_
_space_group_symop_operation_xyz
x,y,z
-x,-y,z
x,-y,-z
-x,y,-z
-x,-y,-z
x,y,-z
-x,y,z
x,-y,z
1/2+x,1/2+y,z
1/2-x,1/2-y,z
1/2+x,1/2-y,-z
1/2-x,1/2+y,-z
1/2-x,1/2-y,-z
1/2+x,1/2+y,-z
1/2-x,1/2+y,z
1/2+x,1/2-y,z
loop_
_atom_site_type_symbol
_atom_site_label
_atom_site_fract_x
_atom_site_fract_y
_atom_site_fract_z
Si Si1 0.912988 0.257752 0.369264
Si Si2 0.199485 0.199857 0.763620
Si Si3 0.411392 0.171846 0.000000
Si Si4 0.088974 0.443167 0.630158
Si Si5 0.832797 0.225368 0.000000
Si Si6 0.152547 0.647602 0.239443
O O1 0.899941 0.266159 0.500000
O O2 0.863214 0.212214 0.325930
O O3 0.888824 0.306882 0.302103
O O4 0.000000 0.248908 0.350935
O O5 0.250000 0.250000 0.764593
O O6 0.163166 0.195834 0.885399
O O7 0.259719 0.157377 0.746407
O O8 0.372918 0.150850 0.111167
O O9 0.500000 0.163791 0.000000
O O10 0.391722 0.230268 0.000000
O O11 0.106009 0.434046 0.500000
O O12 0.108263 0.500000 0.656127
O O13 0.128263 0.403367 0.706344
O O14 0.000000 0.438042 0.642499
O O15 0.750000 0.250000 0.000000
#
# Coordination Sequence:
#
# PCOD9494553 Si02
#       6
#    16  16   8  16   8  16
#     4  10  19  28  39  59  86 112 140 175 211 251
#     4   9  17  27  42  57  82 110 140 172 207 248
#     4  12  20  26  43  65  84 114 150 177 208 249
#     4   9  18  32  47  61  80 108 143 184 223 255
#     4  10  14  30  40  54  82 112 139 171 204 239
#     4  11  19  29  43  62  83 111 145 179 211 255
#
# _framework density 6.8587109999999996
#
# number of rings (size 3 to 8) (size 9 to 14) (size 15 to 20)
#    0.000    2.000    6.000    3.000    0.000    6.000 
#    0.000    0.500    0.000    1.800    0.000    0.000 
#    0.000    0.800    0.000    4.400    0.000    6.800 
#
# Total GULP energy -222794.672779 kJ/mol
# GULP energy per Si atom -5569.866819 kJ/mol
# Density = 0.684310 g / cm^3
# Si number density = 6.858711 Si / 1000 Ang^3
#
#
#
# Elastic Constant Matrix: (Units=GPa)
#
#
# Indices 1 2 3 4 5 6 
#
# 1 51.9790 42.3859 59.2462 0.0000 0.0000 0.0000
# 2 42.3859 65.4696 55.9627 0.0000 0.0000 0.0000
# 3 59.2462 55.9627 104.0850 0.0000 0.0000 0.0000
# 4 0.0000 0.0000 0.0000 7.2852 0.0000 0.0000
# 5 0.0000 0.0000 0.0000 0.0000 13.0773 0.0000
# 6 0.0000 0.0000 0.0000 0.0000 0.0000 22.3344
#
#
#
# Elastic Compliance Matrix: (Units=1/GPa)
#
#
# Indices 1 2 3 4 5 6 
#
# 1 0.066134 -0.019686 -0.027060 0.000000 0.000000 0.000000
# 2 -0.019686 0.034124 -0.007142 0.000000 0.000000 0.000000
# 3 -0.027060 -0.007142 0.028850 0.000000 0.000000 0.000000
# 4 0.000000 0.000000 0.000000 0.137264 0.000000 0.000000
# 5 0.000000 0.000000 0.000000 0.000000 0.076468 0.000000
# 6 0.000000 0.000000 0.000000 0.000000 0.000000 0.044774
#
#
# Mechanical properties :
#
#
# Convention : Reuss Voigt Hill
#
# Bulk Modulus (GPa) = 46.87503 59.63591 53.25547
# Shear Modulus (GPa) = 9.95023 12.80198 11.37610
#
# Velocity S-wave (km/s) = 2.69619 3.05825 2.88291
# Velocity P-wave (km/s) = 6.62863 7.48595 7.07030
#
# Compressibility (1/GPa) = 0.02133332
#
# Stress axis : x y z
#
# Youngs Moduli (GPa) = 15.12073 29.30507 34.66167
#
# Poissons Ratio (x) = 0.57689 0.93795
# Poissons Ratio (y) = 0.29766 0.24755
# Poissons Ratio (z) = 0.40917 0.20929
#
# Static dielectric constant tensor:
#      x y z
#    x 1.460150 0.000000 0.000000 
#    y 0.000000 1.423570 0.000000 
#    z 0.000000 0.000000 1.480650 
# 
# From -- ./inp_files/27304.got.cif
#   From: 2010.05.17/outbox.ucp.g08.bks.cvg/sg65_14_cif.got.tgz:27304.got - 2010.06.11 16:39:57.
