data_PCOD9494907
_publ_section_title
;
Structure prediction by ZEFSAII (Michael W. Deem and Ramdas Pophale) SiO2 
 PCOD9494907
Probable space group: C C C M
;
_chemical_formula_sum "Si O2"
_cell_formula_units_Z 112
_cell_length_a 23.449637
_cell_length_b 10.055627
_cell_length_c 21.891463
_cell_angle_alpha 90.000000
_cell_angle_beta 90.000000
_cell_angle_gamma 90.000000
_cell_volume 5162.024553
_symmetry_space_group_name_H-M "C C C M"
_symmetry_group_IT_number 66
_symmetry_cell_setting 'orthorhombic'
loop_
_space_group_symop_operation_xyz
x,y,z
-x,-y,z
x,-y,1/2-z
-x,y,1/2-z
-x,-y,-z
x,y,-z
-x,y,1/2+z
x,-y,1/2+z
1/2+x,1/2+y,z
1/2-x,1/2-y,z
1/2+x,1/2-y,1/2-z
1/2-x,1/2+y,1/2-z
1/2-x,1/2-y,-z
1/2+x,1/2+y,-z
1/2-x,1/2+y,1/2+z
1/2+x,1/2-y,1/2+z
loop_
_atom_site_type_symbol
_atom_site_label
_atom_site_fract_x
_atom_site_fract_y
_atom_site_fract_z
Si Si1 0.599281 0.931131 0.931564
Si Si2 0.470877 0.695515 0.425607
Si Si3 0.211818 0.909007 0.070565
Si Si4 0.687006 0.800853 0.775595
Si Si5 0.675709 0.082812 0.153434
Si Si6 0.909733 0.078484 0.925772
Si Si7 0.315326 0.295166 0.897951
O O1 0.548379 0.841555 0.905351
O O2 0.649239 0.817446 0.932754
O O3 0.623806 0.047419 0.890780
O O4 0.586940 0.977054 0.000000
O O5 0.469572 0.698535 0.500000
O O6 0.534354 0.659048 0.406353
O O7 0.427373 0.574836 0.408844
O O8 0.267294 0.888920 0.112869
O O9 0.150414 0.854893 0.093476
O O10 0.192255 0.063300 0.071433
O O11 0.223772 0.874947 0.000000
O O12 0.750000 0.750000 0.760807
O O13 0.660228 0.821146 0.709406
O O14 0.662858 0.702819 0.827526
O O15 0.688907 0.942209 0.811191
O O16 0.907804 0.079852 0.000000
O O17 0.250000 0.250000 0.893074
#
# Coordination Sequence:
#
# PCOD9494907 Si02
#       7
#    16  16  16  16  16  16  16
#     4  10  16  22  35  57  86 115 156 206 252 291
#     4   8  13  21  31  48  80 123 155 178 223 294
#     4  11  17  23  38  64  93 115 153 204 255 306
#     4   9  17  32  41  53  86 121 162 203 245 302
#     4  10  19  26  41  63  85 121 162 205 255 299
#     4   8  14  21  31  50  83 123 152 177 226 303
#     4  10  16  24  36  57  82 118 152 195 256 295
#
# _framework density 21.696912999999999
#
# number of rings (size 3 to 8) (size 9 to 14) (size 15 to 20)
#    0.000    2.571    5.714    1.714    0.000    0.571 
#    0.000    0.000    0.000    1.714    0.000    0.000 
#    0.000   48.000    0.000   13.429    0.000    0.000 
#
# Total GULP energy -312019.028518 kJ/mol
# GULP energy per Si atom -5571.768366 kJ/mol
# Density = 2.164753 g / cm^3
# Si number density = 21.696913 Si / 1000 Ang^3
#
#
#
# Elastic Constant Matrix: (Units=GPa)
#
#
# Indices 1 2 3 4 5 6 
#
# 1 86.8985 15.3023 38.0656 0.0000 0.0000 0.0000
# 2 15.3023 59.7139 34.6762 0.0000 0.0000 0.0000
# 3 38.0656 34.6762 112.2154 0.0000 0.0000 0.0000
# 4 0.0000 0.0000 0.0000 3.6321 0.0000 0.0000
# 5 0.0000 0.0000 0.0000 0.0000 -12.2964 0.0000
# 6 0.0000 0.0000 0.0000 0.0000 0.0000 27.3240
#
#
#
# Elastic Compliance Matrix: (Units=1/GPa)
#
#
# Indices 1 2 3 4 5 6 
#
# 1 0.013563 -0.000980 -0.004298 0.000000 0.000000 0.000000
# 2 -0.000980 0.020480 -0.005996 0.000000 0.000000 0.000000
# 3 -0.004298 -0.005996 0.012222 0.000000 0.000000 0.000000
# 4 0.000000 0.000000 0.000000 0.275322 0.000000 0.000000
# 5 0.000000 0.000000 0.000000 0.000000 -0.081325 0.000000
# 6 0.000000 0.000000 0.000000 0.000000 0.000000 0.036598
#
#
# Mechanical properties :
#
#
# Convention : Reuss Voigt Hill
#
# Bulk Modulus (GPa) = 42.16391 48.32400 45.24396
# Shear Modulus (GPa) = 16.27005 15.11752 15.69379
#
# Velocity S-wave (km/s) = 2.74136 2.64248 2.69238
# Velocity P-wave (km/s) = 5.43097 5.62414 5.52840
#
# Compressibility (1/GPa) = 0.02371696
#
# Stress axis : x y z
#
# Youngs Moduli (GPa) = 73.73027 48.82913 81.81757
#
# Poissons Ratio (x) = 0.04784 0.35166
# Poissons Ratio (y) = 0.07224 0.49059
# Poissons Ratio (z) = 0.31690 0.29279
#
# Static dielectric constant tensor:
#      x y z
#    x 1.882530 0.000000 0.000000 
#    y 0.000000 1.917520 0.000000 
#    z 0.000000 0.000000 1.795120 
# 
# From -- ./inp_files/59893.got.cif
#   From: 2010.05.17/outbox.cif.g08.bks.cpg/sg66_30_cif.got.tgz:59893.got - 2010.06.03 17:51:23.
