data_PCOD9494740
_publ_section_title
;
Structure prediction by ZEFSAII (Michael W. Deem and Ramdas Pophale) SiO2 
 PCOD9494740
Probable space group: C M M M
;
_chemical_formula_sum "Si O2"
_cell_formula_units_Z 44
_cell_length_a 21.000000
_cell_length_b 24.000000
_cell_length_c 9.000000
_cell_angle_alpha 90.000000
_cell_angle_beta 90.000000
_cell_angle_gamma 90.000000
_cell_volume 4536.000000
_symmetry_space_group_name_H-M "C M M M"
_symmetry_group_IT_number 65
_symmetry_cell_setting 'orthorhombic'
loop_
_space_group_symop_operation_xyz
x,y,z
-x,-y,z
x,-y,-z
-x,y,-z
-x,-y,-z
x,y,-z
-x,y,z
x,-y,z
1/2+x,1/2+y,z
1/2-x,1/2-y,z
1/2+x,1/2-y,-z
1/2-x,1/2+y,-z
1/2-x,1/2-y,-z
1/2+x,1/2+y,-z
1/2-x,1/2+y,z
1/2+x,1/2-y,z
loop_
_atom_site_type_symbol
_atom_site_label
_atom_site_fract_x
_atom_site_fract_y
_atom_site_fract_z
Si Si1 0.077123 0.276038 0.835327
Si Si2 0.383709 0.122288 0.329953
Si Si3 0.773474 0.435302 0.829443
Si Si4 0.359196 0.439175 0.327531
Si Si5 0.000000 0.562596 0.176478
Si Si6 0.575481 0.673528 0.335252
O O1 0.106682 0.313588 0.708158
O O2 0.096940 0.213658 0.795809
O O3 0.000000 0.281069 0.830469
O O4 0.097309 0.293366 0.000000
O O5 0.395520 0.109915 0.500000
O O6 0.315784 0.101297 0.278074
O O7 0.437205 0.092438 0.232580
O O8 0.793990 0.500000 0.816156
O O9 0.700770 0.432761 0.779186
O O10 0.781854 0.418425 0.000000
O O11 0.336815 0.436765 0.500000
O O12 0.388117 0.500000 0.304830
O O13 0.407320 0.389601 0.305201
O O14 0.000000 0.500000 0.233554
O O15 0.000000 0.562662 0.000000
O O16 0.601126 0.688393 0.500000
O O17 0.500000 0.679806 0.342968
#
# Coordination Sequence:
#
# PCOD9494740 Si02
#       6
#    16  16  16  16   8  16
#     4  10  20  35  55  77 107 145 183 224 272 326
#     4  12  23  35  55  80 107 141 183 229 274 322
#     4  10  21  37  56  77 106 145 184 224 272 326
#     4   9  18  34  56  82 112 145 180 220 268 324
#     4  11  23  37  53  77 111 145 180 225 272 319
#     4   9  18  33  55  83 114 144 178 221 269 324
#
# _framework density 9.7001760000000008
#
# number of rings (size 3 to 8) (size 9 to 14) (size 15 to 20)
#    0.000    1.909    0.909    3.545    0.000    5.818 
#    0.000    2.727    0.000    5.455    0.000    5.091 
#    0.000    0.000    0.000    0.000    0.000    0.000 
#
# Total GULP energy -245208.496513 kJ/mol
# GULP energy per Si atom -5572.920375 kJ/mol
# Density = 0.967810 g / cm^3
# Si number density = 9.700176 Si / 1000 Ang^3
#
#
#
# Elastic Constant Matrix: (Units=GPa)
#
#
# Indices 1 2 3 4 5 6 
#
# 1 -30.3477 -2.2402 5.0421 0.0000 0.0000 0.0000
# 2 -2.2402 53.4701 23.1033 0.0000 0.0000 0.0000
# 3 5.0421 23.1033 40.9434 0.0000 0.0000 0.0000
# 4 0.0000 0.0000 0.0000 21.2540 0.0000 0.0000
# 5 0.0000 0.0000 0.0000 0.0000 21.3648 0.0000
# 6 0.0000 0.0000 0.0000 0.0000 0.0000 -5.2811
#
#
#
# Elastic Compliance Matrix: (Units=1/GPa)
#
#
# Indices 1 2 3 4 5 6 
#
# 1 -0.031637 -0.003979 0.006141 0.000000 0.000000 0.000000
# 2 -0.003979 0.024232 -0.013183 0.000000 0.000000 0.000000
# 3 0.006141 -0.013183 0.031107 0.000000 0.000000 0.000000
# 4 0.000000 0.000000 0.000000 0.047050 0.000000 0.000000
# 5 0.000000 0.000000 0.000000 0.000000 0.046806 0.000000
# 6 0.000000 0.000000 0.000000 0.000000 0.000000 -0.189354
#
#
# Mechanical properties :
#
#
# Convention : Reuss Voigt Hill
#
# Bulk Modulus (GPa) = 602.77289 12.87515 307.82402
# Shear Modulus (GPa) = -101.62147 10.01158 -45.80495
#
# Velocity S-wave (km/s) = -7.24534 2.27414 -4.86432
# Velocity P-wave (km/s) = 15.53651 3.68057 11.29004
#
# Compressibility (1/GPa) = 0.00165900
#
# Stress axis : x y z
#
# Youngs Moduli (GPa) = -31.60817 41.26855 32.14748
#
# Poissons Ratio (x) = 0.16421 -0.19743
# Poissons Ratio (y) = -0.12577 0.42381
# Poissons Ratio (z) = 0.19412 0.54405
#
# Static dielectric constant tensor:
#      x y z
#    x 1.635680 0.000000 0.000000 
#    y 0.000000 1.737020 0.000000 
#    z 0.000000 0.000000 1.693380 
# 
# From -- ./inp_files/11703.got.cif
#   From: 2010.05.17/outbox.ucp.g08.bks.cvg/sg65_6_cif.got.tgz:11703.got - 2010.06.11 16:39:57.
