data_PCOD9494723
_publ_section_title
;
Structure prediction by ZEFSAII (Michael W. Deem and Ramdas Pophale) SiO2 
 PCOD9494723
Probable space group: C M M M
;
_chemical_formula_sum "Si O2"
_cell_formula_units_Z 52
_cell_length_a 24.000000
_cell_length_b 27.000000
_cell_length_c 9.000000
_cell_angle_alpha 90.000000
_cell_angle_beta 90.000000
_cell_angle_gamma 90.000000
_cell_volume 5832.000000
_symmetry_space_group_name_H-M "C M M M"
_symmetry_group_IT_number 65
_symmetry_cell_setting 'orthorhombic'
loop_
_space_group_symop_operation_xyz
x,y,z
-x,-y,z
x,-y,-z
-x,y,-z
-x,-y,-z
x,y,-z
-x,y,z
x,-y,z
1/2+x,1/2+y,z
1/2-x,1/2-y,z
1/2+x,1/2-y,-z
1/2-x,1/2+y,-z
1/2-x,1/2-y,-z
1/2+x,1/2+y,-z
1/2-x,1/2+y,z
1/2+x,1/2-y,z
loop_
_atom_site_type_symbol
_atom_site_label
_atom_site_fract_x
_atom_site_fract_y
_atom_site_fract_z
Si Si1 0.936476 0.941078 0.676562
Si Si2 0.563509 0.728205 0.321102
Si Si3 0.566952 0.899348 0.171430
Si Si4 0.360515 0.819378 0.324048
Si Si5 0.932357 0.500000 0.329381
Si Si6 0.370965 0.357817 0.177828
Si Si7 0.253993 0.692067 0.821098
O O1 0.932701 0.930796 0.500000
O O2 0.888715 0.911091 0.760582
O O3 0.000000 0.927395 0.723702
O O4 0.930990 0.000000 0.697174
O O5 0.565657 0.722856 0.500000
O O6 0.500000 0.743008 0.282788
O O7 0.610235 0.768075 0.276144
O O8 0.581510 0.678072 0.242655
O O9 0.500000 0.895946 0.176906
O O10 0.594487 0.859587 0.277324
O O11 0.584137 0.952150 0.236640
O O12 0.583980 0.892778 0.000000
O O13 0.352149 0.817806 0.500000
O O14 0.302373 0.830381 0.244703
O O15 0.912536 0.500000 0.500000
O O16 0.000000 0.500000 0.335611
O O17 0.310746 0.335639 0.226387
O O18 0.371694 0.357396 0.000000
O O19 0.250000 0.750000 0.775188
O O20 0.252387 0.690676 0.000000
#
# Coordination Sequence:
#
# PCOD9494723 Si02
#       7
#    16  16  16  16   8  16  16
#     4   9  19  37  60  85 115 150 183 221 278 343
#     4  10  21  35  51  76 112 147 177 217 271 329
#     4  10  20  34  54  80 111 146 180 218 274 336
#     4  11  22  35  55  80 107 141 186 234 274 320
#     4   9  17  31  53  79 107 139 177 221 264 313
#     4  11  22  35  56  83 110 144 185 231 275 323
#     4  10  21  39  57  75 107 147 185 225 272 328
#
# _framework density 8.9163239999999995
#
# number of rings (size 3 to 8) (size 9 to 14) (size 15 to 20)
#    0.000    1.923    1.538    3.000    0.000    7.385 
#    0.000    0.769    1.692    0.000    0.000    0.000 
#    0.000    0.000    0.000    0.000    0.000    0.000 
#
# Total GULP energy -290021.381398 kJ/mol
# GULP energy per Si atom -5577.334258 kJ/mol
# Density = 0.889603 g / cm^3
# Si number density = 8.916324 Si / 1000 Ang^3
#
#
#
# Elastic Constant Matrix: (Units=GPa)
#
#
# Indices 1 2 3 4 5 6 
#
# 1 93.1467 23.4517 26.6638 0.0000 0.0000 0.0000
# 2 23.4517 53.7134 5.9302 0.0000 0.0000 0.0000
# 3 26.6638 5.9302 -12.0412 0.0000 0.0000 0.0000
# 4 0.0000 0.0000 0.0000 22.8059 0.0000 0.0000
# 5 0.0000 0.0000 0.0000 0.0000 26.6737 0.0000
# 6 0.0000 0.0000 0.0000 0.0000 0.0000 14.3360
#
#
#
# Elastic Compliance Matrix: (Units=1/GPa)
#
#
# Indices 1 2 3 4 5 6 
#
# 1 0.007779 -0.005025 0.014750 0.000000 0.000000 0.000000
# 2 -0.005025 0.020903 -0.000832 0.000000 0.000000 0.000000
# 3 0.014750 -0.000832 -0.050796 0.000000 0.000000 0.000000
# 4 0.000000 0.000000 0.000000 0.043848 0.000000 0.000000
# 5 0.000000 0.000000 0.000000 0.000000 0.037490 0.000000
# 6 0.000000 0.000000 0.000000 0.000000 0.000000 0.069754
#
#
# Mechanical properties :
#
#
# Convention : Reuss Voigt Hill
#
# Bulk Modulus (GPa) = -231.09174 27.43450 -101.82862
# Shear Modulus (GPa) = 45.55850 18.01466 31.78658
#
# Velocity S-wave (km/s) = 5.05997 3.18182 4.22654
# Velocity P-wave (km/s) = 9.78431 5.37740 5.77998
#
# Compressibility (1/GPa) = -0.00432729
#
# Stress axis : x y z
#
# Youngs Moduli (GPa) = 128.55891 47.84006 -19.68665
#
# Poissons Ratio (x) = 0.24038 0.29038
# Poissons Ratio (y) = 0.64596 -0.01638
# Poissons Ratio (z) = -1.89625 0.03980
#
# Static dielectric constant tensor:
#      x y z
#    x 1.601940 0.000000 0.000000 
#    y 0.000000 1.613550 0.000000 
#    z 0.000000 0.000000 1.594340 
# 
# From -- ./inp_files/12409.got.cif
#   From: 2010.05.17/outbox.ucp.g08.bks.cvg/sg65_7_cif.got.tgz:12409.got - 2010.06.11 16:39:57.
