data_PCOD9494763
_publ_section_title
;
Structure prediction by ZEFSAII (Michael W. Deem and Ramdas Pophale) SiO2 
 PCOD9494763
Probable space group: C M M M
;
_chemical_formula_sum "Si O2"
_cell_formula_units_Z 36
_cell_length_a 18.000000
_cell_length_b 9.000000
_cell_length_c 24.000000
_cell_angle_alpha 90.000000
_cell_angle_beta 90.000000
_cell_angle_gamma 90.000000
_cell_volume 3888.000000
_symmetry_space_group_name_H-M "C M M M"
_symmetry_group_IT_number 65
_symmetry_cell_setting 'orthorhombic'
loop_
_space_group_symop_operation_xyz
x,y,z
-x,-y,z
x,-y,-z
-x,y,-z
-x,-y,-z
x,y,-z
-x,y,z
x,-y,z
1/2+x,1/2+y,z
1/2-x,1/2-y,z
1/2+x,1/2-y,-z
1/2-x,1/2+y,-z
1/2-x,1/2-y,-z
1/2+x,1/2+y,-z
1/2-x,1/2+y,z
1/2+x,1/2-y,z
loop_
_atom_site_type_symbol
_atom_site_label
_atom_site_fract_x
_atom_site_fract_y
_atom_site_fract_z
Si Si1 0.410532 0.500000 0.065223
Si Si2 0.411725 0.175232 0.335130
Si Si3 0.089706 0.679265 0.124036
Si Si4 0.667355 0.318805 0.230815
Si Si5 0.169304 0.176537 0.434388
O O1 0.500000 0.500000 0.072254
O O2 0.387286 0.667030 0.088885
O O3 0.391794 0.500000 0.000000
O O4 0.500000 0.188418 0.326598
O O5 0.368328 0.273375 0.289726
O O6 0.388253 0.238689 0.395084
O O7 0.391804 0.000000 0.330109
O O8 0.111697 0.500000 0.112044
O O9 0.119989 0.729468 0.184250
O O10 0.000000 0.676448 0.122186
O O11 0.666688 0.500000 0.222842
O O12 0.750000 0.250000 0.228016
O O13 0.152312 0.194103 0.500000
O O14 0.250000 0.250000 0.424310
O O15 0.171494 0.000000 0.422095
#
# Coordination Sequence:
#
# PCOD9494763 Si02
#       5
#     8  16  16  16  16
#     4   9  18  34  58  90 124 160 202 244 292 347
#     4  11  24  40  58  83 116 151 191 240 294 353
#     4  10  20  36  59  89 123 158 199 247 296 350
#     4  12  24  39  60  86 116 154 195 243 296 356
#     4  10  21  38  60  84 112 149 192 239 290 348
#
# _framework density 9.2592590000000001
#
# number of rings (size 3 to 8) (size 9 to 14) (size 15 to 20)
#    0.000    1.444    1.111    4.667    0.000    6.667 
#    0.000    4.444    0.000    0.667    0.000    0.000 
#    0.000    0.000    0.000    0.000    0.000    0.000 
#
# Total GULP energy -200598.647896 kJ/mol
# GULP energy per Si atom -5572.184664 kJ/mol
# Density = 0.923818 g / cm^3
# Si number density = 9.259259 Si / 1000 Ang^3
#
#
#
# Elastic Constant Matrix: (Units=GPa)
#
#
# Indices 1 2 3 4 5 6 
#
# 1 18.2883 21.7503 10.1663 0.0000 0.0000 0.0000
# 2 21.7503 184.0721 41.0785 0.0000 0.0000 0.0000
# 3 10.1663 41.0785 65.1963 0.0000 0.0000 0.0000
# 4 0.0000 0.0000 0.0000 37.3748 0.0000 0.0000
# 5 0.0000 0.0000 0.0000 0.0000 -55.5543 0.0000
# 6 0.0000 0.0000 0.0000 0.0000 0.0000 32.7604
#
#
#
# Elastic Compliance Matrix: (Units=1/GPa)
#
#
# Indices 1 2 3 4 5 6 
#
# 1 0.065726 -0.006376 -0.006232 0.000000 0.000000 0.000000
# 2 -0.006376 0.006940 -0.003379 0.000000 0.000000 0.000000
# 3 -0.006232 -0.003379 0.018439 0.000000 0.000000 0.000000
# 4 0.000000 0.000000 0.000000 0.026756 0.000000 0.000000
# 5 0.000000 0.000000 0.000000 0.000000 -0.018000 0.000000
# 6 0.000000 0.000000 0.000000 0.000000 0.000000 0.030525
#
#
# Mechanical properties :
#
#
# Convention : Reuss Voigt Hill
#
# Bulk Modulus (GPa) = 16.91097 45.94964 31.43031
# Shear Modulus (GPa) = 27.46222 15.88696 21.67459
#
# Velocity S-wave (km/s) = 3.85510 2.93216 3.42486
# Velocity P-wave (km/s) = 5.38214 6.02745 5.71391
#
# Compressibility (1/GPa) = 0.05913320
#
# Stress axis : x y z
#
# Youngs Moduli (GPa) = 15.21460 144.09275 54.23364
#
# Poissons Ratio (x) = 0.91868 0.33797
# Poissons Ratio (y) = 0.09700 0.18323
# Poissons Ratio (z) = 0.09481 0.48682
#
# Static dielectric constant tensor:
#      x y z
#    x 1.626430 0.000000 0.000000 
#    y 0.000000 1.663480 0.000000 
#    z 0.000000 0.000000 1.662320 
# 
# From -- ./inp_files/70319.got.cif
#   From: 2010.05.17/outbox.ucp.g08.bks.cvg/sg65_36_cif.got.tgz:70319.got - 2010.06.11 16:39:57.
