data_PCOD9494428
_publ_section_title
;
Structure prediction by ZEFSAII (Michael W. Deem and Ramdas Pophale) SiO2 
 PCOD9494428
Probable space group: C M M M
;
_chemical_formula_sum "Si O2"
_cell_formula_units_Z 72
_cell_length_a 14.910119
_cell_length_b 24.267066
_cell_length_c 9.704022
_cell_angle_alpha 90.000000
_cell_angle_beta 90.000000
_cell_angle_gamma 90.000000
_cell_volume 3511.156225
_symmetry_space_group_name_H-M "C M M M"
_symmetry_group_IT_number 65
_symmetry_cell_setting 'orthorhombic'
loop_
_space_group_symop_operation_xyz
x,y,z
-x,-y,z
x,-y,-z
-x,y,-z
-x,-y,-z
x,y,-z
-x,y,z
x,-y,z
1/2+x,1/2+y,z
1/2-x,1/2-y,z
1/2+x,1/2-y,-z
1/2-x,1/2+y,-z
1/2-x,1/2-y,-z
1/2+x,1/2+y,-z
1/2-x,1/2+y,z
1/2+x,1/2-y,z
loop_
_atom_site_type_symbol
_atom_site_label
_atom_site_fract_x
_atom_site_fract_y
_atom_site_fract_z
Si Si1 0.896402 0.657687 0.845000
Si Si2 0.149357 0.772576 0.842369
Si Si3 0.390093 0.061098 0.341657
Si Si4 0.891110 0.894431 0.160905
Si Si5 0.390262 0.500000 0.659492
O O1 0.897165 0.718732 0.780001
O O2 0.854688 0.610368 0.752174
O O3 0.000000 0.642370 0.860924
O O4 0.856483 0.659799 0.000000
O O5 0.250000 0.750000 0.845326
O O6 0.140379 0.834091 0.786918
O O7 0.114361 0.777441 0.000000
O O8 0.362151 0.067642 0.500000
O O9 0.500000 0.062447 0.342835
O O10 0.364264 0.000000 0.292741
O O11 0.000000 0.893195 0.161685
O O12 0.862498 0.945239 0.256832
O O13 0.863344 0.902004 0.000000
O O14 0.500000 0.500000 0.658524
O O15 0.360602 0.500000 0.500000
#
# Coordination Sequence:
#
# PCOD9494428 Si02
#       5
#    16  16  16  16   8
#     4   9  16  26  43  67  90 111 142 185 226 261
#     4   9  17  29  46  67  93 122 151 185 227 272
#     4   8  14  25  41  61  85 113 144 178 216 257
#     4   9  16  28  49  74  96 121 156 193 229 276
#     4   9  17  29  47  73 101 123 148 191 242 282
#
# _framework density 20.506067000000002
#
# number of rings (size 3 to 8) (size 9 to 14) (size 15 to 20)
#    0.000    3.222    0.000    1.667    0.000    4.444 
#    0.000    3.333    2.444    8.000    0.000    0.000 
#    0.000    0.000    0.000    0.000    0.000    0.000 
#
# Total GULP energy -200464.212079 kJ/mol
# GULP energy per Si atom -5568.450336 kJ/mol
# Density = 2.045939 g / cm^3
# Si number density = 20.506067 Si / 1000 Ang^3
#
#
#
# Elastic Constant Matrix: (Units=GPa)
#
#
# Indices 1 2 3 4 5 6 
#
# 1 31.9889 12.6815 8.7632 0.0000 0.0000 0.0000
# 2 12.6815 252.0821 103.0547 0.0000 0.0000 0.0000
# 3 8.7632 103.0547 78.5587 0.0000 0.0000 0.0000
# 4 0.0000 0.0000 0.0000 -40.5128 0.0000 0.0000
# 5 0.0000 0.0000 0.0000 0.0000 2.8970 0.0000
# 6 0.0000 0.0000 0.0000 0.0000 0.0000 13.4559
#
#
#
# Elastic Compliance Matrix: (Units=1/GPa)
#
#
# Indices 1 2 3 4 5 6 
#
# 1 0.032259 -0.000327 -0.003169 0.000000 0.000000 0.000000
# 2 -0.000327 0.008558 -0.011190 0.000000 0.000000 0.000000
# 3 -0.003169 -0.011190 0.027762 0.000000 0.000000 0.000000
# 4 0.000000 0.000000 0.000000 -0.024684 0.000000 0.000000
# 5 0.000000 0.000000 0.000000 0.000000 0.345188 0.000000
# 6 0.000000 0.000000 0.000000 0.000000 0.000000 0.074317
#
#
# Mechanical properties :
#
#
# Convention : Reuss Voigt Hill
#
# Bulk Modulus (GPa) = 25.50627 67.95871 46.73249
# Shear Modulus (GPa) = 9.88451 11.04338 10.46394
#
# Velocity S-wave (km/s) = 2.19790 2.32317 2.26140
# Velocity P-wave (km/s) = 4.34815 6.35680 5.44588
#
# Compressibility (1/GPa) = 0.03920604
#
# Stress axis : x y z
#
# Youngs Moduli (GPa) = 30.99935 116.84786 36.02001
#
# Poissons Ratio (x) = 0.03824 0.11415
# Poissons Ratio (y) = 0.01014 0.40307
# Poissons Ratio (z) = 0.09824 1.30755
#
# Static dielectric constant tensor:
#      x y z
#    x 2.051680 0.000000 0.000000 
#    y 0.000000 1.763600 0.000000 
#    z 0.000000 0.000000 1.723660 
# 
# From -- ./inp_files/11235.got.cif
#   From: 2010.05.17/outbox.cif.g08.bks.cpg/sg65_6_cif.got.tgz:11235.got - 2010.06.03 17:01:31.
