data_PCOD9494873
_publ_section_title
;
Structure prediction by ZEFSAII (Michael W. Deem and Ramdas Pophale) SiO2 
 PCOD9494873
Probable space group: C M M M
;
_chemical_formula_sum "Si O2"
_cell_formula_units_Z 44
_cell_length_a 15.000000
_cell_length_b 12.000000
_cell_length_c 24.000000
_cell_angle_alpha 90.000000
_cell_angle_beta 90.000000
_cell_angle_gamma 90.000000
_cell_volume 4320.000000
_symmetry_space_group_name_H-M "C M M M"
_symmetry_group_IT_number 65
_symmetry_cell_setting 'orthorhombic'
loop_
_space_group_symop_operation_xyz
x,y,z
-x,-y,z
x,-y,-z
-x,y,-z
-x,-y,-z
x,y,-z
-x,y,z
x,-y,z
1/2+x,1/2+y,z
1/2-x,1/2-y,z
1/2+x,1/2-y,-z
1/2-x,1/2+y,-z
1/2-x,1/2-y,-z
1/2+x,1/2+y,-z
1/2-x,1/2+y,z
1/2+x,1/2-y,z
loop_
_atom_site_type_symbol
_atom_site_label
_atom_site_fract_x
_atom_site_fract_y
_atom_site_fract_z
Si Si1 0.102665 0.627338 0.726021
Si Si2 0.345494 0.741411 0.620569
Si Si3 0.647234 0.266524 0.172000
Si Si4 0.392933 0.626396 0.062557
Si Si5 0.500000 0.123678 0.434194
Si Si6 0.895041 0.000000 0.772708
Si Si7 0.605640 0.500000 0.650370
O O1 0.133880 0.500000 0.724049
O O2 0.153862 0.707541 0.683411
O O3 0.103538 0.674460 0.788746
O O4 0.000000 0.631756 0.707303
O O5 0.250000 0.750000 0.594572
O O6 0.414971 0.812176 0.587036
O O7 0.369383 0.613242 0.621710
O O8 0.750000 0.250000 0.180164
O O9 0.628682 0.278279 0.106770
O O10 0.624584 0.387609 0.195505
O O11 0.500000 0.619421 0.061734
O O12 0.361074 0.500000 0.077473
O O13 0.361616 0.650352 0.000000
O O14 0.500000 0.118804 0.500000
O O15 0.500000 0.000000 0.410503
O O16 0.852278 0.000000 0.712007
O O17 0.000000 0.000000 0.765362
O O18 0.500000 0.500000 0.655187
#
# Coordination Sequence:
#
# PCOD9494873 Si02
#       7
#    16  16  16  16   8   8   8
#     4  11  23  39  60  90 129 172 214 257 311 384
#     4  12  25  41  69 102 135 171 218 274 326 386
#     4  12  24  34  57  87 125 158 200 259 320 370
#     4   9  18  35  60  84 108 149 206 259 308 373
#     4  11  26  51  75  95 133 186 228 261 312 386
#     4  11  22  38  59  84 123 164 208 246 304 385
#     4  11  22  40  64 100 134 173 211 266 341 381
#
# _framework density 10.185185000000001
#
# number of rings (size 3 to 8) (size 9 to 14) (size 15 to 20)
#    0.000    1.000    4.545    3.273    3.818    0.727 
#    0.000    0.909    0.000    0.545    0.000    2.545 
#    0.000    0.000    0.000    0.000    0.000    0.000 
#
# Total GULP energy -245359.007208 kJ/mol
# GULP energy per Si atom -5576.341073 kJ/mol
# Density = 1.016200 g / cm^3
# Si number density = 10.185185 Si / 1000 Ang^3
#
#
#
# Elastic Constant Matrix: (Units=GPa)
#
#
# Indices 1 2 3 4 5 6 
#
# 1 115.2886 51.9593 31.1933 0.0000 0.0000 0.0000
# 2 51.9593 146.0589 40.6635 0.0000 0.0000 0.0000
# 3 31.1933 40.6635 77.7472 0.0000 0.0000 0.0000
# 4 0.0000 0.0000 0.0000 3.8164 0.0000 0.0000
# 5 0.0000 0.0000 0.0000 0.0000 184.1535 0.0000
# 6 0.0000 0.0000 0.0000 0.0000 0.0000 16.5071
#
#
#
# Elastic Compliance Matrix: (Units=1/GPa)
#
#
# Indices 1 2 3 4 5 6 
#
# 1 0.010800 -0.003085 -0.002720 0.000000 0.000000 0.000000
# 2 -0.003085 0.008895 -0.003414 0.000000 0.000000 0.000000
# 3 -0.002720 -0.003414 0.015739 0.000000 0.000000 0.000000
# 4 0.000000 0.000000 0.000000 0.262029 0.000000 0.000000
# 5 0.000000 0.000000 0.000000 0.000000 0.005430 0.000000
# 6 0.000000 0.000000 0.000000 0.000000 0.000000 0.060580
#
#
# Mechanical properties :
#
#
# Convention : Reuss Voigt Hill
#
# Bulk Modulus (GPa) = 58.83753 65.19188 62.01470
# Shear Modulus (GPa) = 12.90069 55.24732 34.07400
#
# Velocity S-wave (km/s) = 2.51929 5.21347 4.09433
# Velocity P-wave (km/s) = 6.11629 8.26518 7.27056
#
# Compressibility (1/GPa) = 0.01699596
#
# Stress axis : x y z
#
# Youngs Moduli (GPa) = 92.59212 112.42860 63.53587
#
# Poissons Ratio (x) = 0.34683 0.17280
# Poissons Ratio (y) = 0.28563 0.21693
# Poissons Ratio (z) = 0.25182 0.38387
#
# Static dielectric constant tensor:
#      x y z
#    x 1.731010 0.000000 0.000000 
#    y 0.000000 1.683440 0.000000 
#    z 0.000000 0.000000 1.794550 
# 
# From -- ./inp_files/68938.got.cif
#   From: 2010.05.17/outbox.ucp.g08.bks.cvg/sg65_35_cif.got.tgz:68938.got - 2010.06.11 16:39:57.
