data_PCOD9494005
_publ_section_title
;
Structure prediction by ZEFSAII (Michael W. Deem and Ramdas Pophale) SiO2 
 PCOD9494005
Probable space group: C M M M
;
_chemical_formula_sum "Si O2"
_cell_formula_units_Z 58
_cell_length_a 10.044069
_cell_length_b 16.847619
_cell_length_c 17.593201
_cell_angle_alpha 90.000000
_cell_angle_beta 90.000000
_cell_angle_gamma 90.000000
_cell_volume 2977.097682
_symmetry_space_group_name_H-M "C M M M"
_symmetry_group_IT_number 65
_symmetry_cell_setting 'orthorhombic'
loop_
_space_group_symop_operation_xyz
x,y,z
-x,-y,z
x,-y,-z
-x,y,-z
-x,-y,-z
x,y,-z
-x,y,z
x,-y,z
1/2+x,1/2+y,z
1/2-x,1/2-y,z
1/2+x,1/2-y,-z
1/2-x,1/2+y,-z
1/2-x,1/2-y,-z
1/2+x,1/2+y,-z
1/2-x,1/2+y,z
1/2+x,1/2-y,z
loop_
_atom_site_type_symbol
_atom_site_label
_atom_site_fract_x
_atom_site_fract_y
_atom_site_fract_z
Si Si1 0.845441 0.676609 0.844544
Si Si2 0.000000 0.868229 0.634961
Si Si3 0.161464 0.409562 0.000000
Si Si4 0.500000 0.500000 0.500000
Si Si5 0.212383 0.406840 0.309242
Si Si6 0.000000 0.683856 0.590004
O O1 0.750000 0.750000 0.827100
O O2 0.801015 0.636277 0.923370
O O3 0.835867 0.615647 0.774789
O O4 0.000000 0.701587 0.851787
O O5 0.000000 0.930438 0.566051
O O6 0.133553 0.884128 0.682210
O O7 0.000000 0.777576 0.606493
O O8 0.210757 0.500000 0.000000
O O9 0.000000 0.412782 0.000000
O O10 0.194012 0.500000 0.324274
O O11 0.127180 0.356425 0.369709
O O12 0.000000 0.669603 0.500000
#
# Coordination Sequence:
#
# PCOD9494005 Si02
#       6
#    16   8   8   2  16   8
#     4  11  23  41  67  98 134 174 223 277 331 400
#     4  12  26  47  68  95 127 179 220 273 336 405
#     4   9  19  38  67  97 130 175 222 274 333 396
#     4  12  24  48  72  94 134 170 236 266 344 412
#     4  12  26  44  66  97 133 175 220 277 333 395
#     4  12  27  42  68  97 132 168 221 277 334 394
#
# _framework density 19.482061000000002
#
# number of rings (size 3 to 8) (size 9 to 14) (size 15 to 20)
#    0.000    0.690    3.448    4.138    3.862    3.310 
#    0.000    0.000    0.000    0.828    0.000    0.000 
#    0.000    0.000    0.000    0.000    0.000    0.000 
#
# Total GULP energy -161945.604935 kJ/mol
# GULP energy per Si atom -5584.331205 kJ/mol
# Density = 1.943772 g / cm^3
# Si number density = 19.482061 Si / 1000 Ang^3
#
#
#
# Elastic Constant Matrix: (Units=GPa)
#
#
# Indices 1 2 3 4 5 6 
#
# 1 97.5057 42.1071 17.8643 0.0000 0.0000 0.0000
# 2 42.1071 162.2490 44.0849 0.0000 0.0000 0.0000
# 3 17.8643 44.0849 122.2727 0.0000 0.0000 0.0000
# 4 0.0000 0.0000 0.0000 32.6850 0.0000 0.0000
# 5 0.0000 0.0000 0.0000 0.0000 -88.6858 0.0000
# 6 0.0000 0.0000 0.0000 0.0000 0.0000 17.0654
#
#
#
# Elastic Compliance Matrix: (Units=1/GPa)
#
#
# Indices 1 2 3 4 5 6 
#
# 1 0.011600 -0.002827 -0.000676 0.000000 0.000000 0.000000
# 2 -0.002827 0.007522 -0.002299 0.000000 0.000000 0.000000
# 3 -0.000676 -0.002299 0.009106 0.000000 0.000000 0.000000
# 4 0.000000 0.000000 0.000000 0.030595 0.000000 0.000000
# 5 0.000000 0.000000 0.000000 0.000000 -0.011276 0.000000
# 6 0.000000 0.000000 0.000000 0.000000 0.000000 0.058598
#
#
# Mechanical properties :
#
#
# Convention : Reuss Voigt Hill
#
# Bulk Modulus (GPa) = 60.14977 65.57109 62.86043
# Shear Modulus (GPa) = 40.55477 10.74433 25.64955
#
# Velocity S-wave (km/s) = 4.56746 2.35095 3.63240
# Velocity P-wave (km/s) = 7.66531 6.41089 7.06599
#
# Compressibility (1/GPa) = 0.01662517
#
# Stress axis : x y z
#
# Youngs Moduli (GPa) = 86.20394 132.94938 109.81782
#
# Poissons Ratio (x) = 0.37585 0.07419
# Poissons Ratio (y) = 0.24370 0.25246
# Poissons Ratio (z) = 0.05824 0.30563
#
# Static dielectric constant tensor:
#      x y z
#    x 1.678320 0.000000 0.000000 
#    y 0.000000 1.661870 0.000000 
#    z 0.000000 0.000000 1.666560 
# 
# From -- ./inp_files/48901.got.cif
#   From: 2010.05.17/outbox.cif.g08.bks.cpg/sg65_25_cif.got.tgz:48901.got - 2010.06.03 17:01:31.
