data_PCOD9494124
_publ_section_title
;
Structure prediction by ZEFSAII (Michael W. Deem and Ramdas Pophale) SiO2 
 PCOD9494124
Probable space group: C M M M
;
_chemical_formula_sum "Si O2"
_cell_formula_units_Z 56
_cell_length_a 7.651185
_cell_length_b 18.033828
_cell_length_c 20.699940
_cell_angle_alpha 90.000000
_cell_angle_beta 90.000000
_cell_angle_gamma 90.000000
_cell_volume 2856.180915
_symmetry_space_group_name_H-M "C M M M"
_symmetry_group_IT_number 65
_symmetry_cell_setting 'orthorhombic'
loop_
_space_group_symop_operation_xyz
x,y,z
-x,-y,z
x,-y,-z
-x,y,-z
-x,-y,-z
x,y,-z
-x,y,z
x,-y,z
1/2+x,1/2+y,z
1/2-x,1/2-y,z
1/2+x,1/2-y,-z
1/2-x,1/2+y,-z
1/2-x,1/2-y,-z
1/2+x,1/2+y,-z
1/2-x,1/2+y,z
1/2+x,1/2-y,z
loop_
_atom_site_type_symbol
_atom_site_label
_atom_site_fract_x
_atom_site_fract_y
_atom_site_fract_z
Si Si1 0.000000 0.088588 0.575270
Si Si2 0.787977 0.912475 0.210329
Si Si3 0.711104 0.588685 0.930697
Si Si4 0.698178 0.164042 0.657140
O O1 0.831995 0.120618 0.611793
O O2 0.000000 0.109572 0.500000
O O3 0.000000 0.000000 0.580411
O O4 0.728107 0.884333 0.139460
O O5 0.714697 0.868121 0.270538
O O6 0.000000 0.907716 0.212641
O O7 0.744018 0.000000 0.215919
O O8 0.500000 0.596765 0.930942
O O9 0.744805 0.500000 0.930618
O O10 0.776560 0.618332 0.000000
O O11 0.500000 0.155744 0.634475
O O12 0.750000 0.250000 0.657904
#
# Coordination Sequence:
#
# PCOD9494124 Si02
#       4
#     8  16  16  16
#     4  11  26  48  72 100 132 162 200 251 304 368
#     4   9  16  29  53  83 119 159 202 257 310 361
#     4   7  10  18  37  70 109 150 197 247 302 360
#     4  12  24  42  65  94 127 168 211 254 308 367
#
# _framework density 19.6066
#
# number of rings (size 3 to 8) (size 9 to 14) (size 15 to 20)
#    0.000    2.429    2.857    3.429    0.000    3.429 
#    0.000    1.429    0.000    1.714    0.000    4.000 
#    0.000    0.000    0.000    0.000    0.000    0.000 
#
# Total GULP energy -156194.431537 kJ/mol
# GULP energy per Si atom -5578.372555 kJ/mol
# Density = 1.956197 g / cm^3
# Si number density = 19.606600 Si / 1000 Ang^3
#
#
#
# Elastic Constant Matrix: (Units=GPa)
#
#
# Indices 1 2 3 4 5 6 
#
# 1 113.2669 28.0555 62.6322 0.0000 0.0000 0.0000
# 2 28.0555 42.4549 53.7622 0.0000 0.0000 0.0000
# 3 62.6322 53.7622 187.1084 0.0000 0.0000 0.0000
# 4 0.0000 0.0000 0.0000 -19.8674 0.0000 0.0000
# 5 0.0000 0.0000 0.0000 0.0000 -151.4631 0.0000
# 6 0.0000 0.0000 0.0000 0.0000 0.0000 13.0402
#
#
#
# Elastic Compliance Matrix: (Units=1/GPa)
#
#
# Indices 1 2 3 4 5 6 
#
# 1 0.011292 -0.004206 -0.002571 0.000000 0.000000 0.000000
# 2 -0.004206 0.038594 -0.009681 0.000000 0.000000 0.000000
# 3 -0.002571 -0.009681 0.008987 0.000000 0.000000 0.000000
# 4 0.000000 0.000000 0.000000 -0.050334 0.000000 0.000000
# 5 0.000000 0.000000 0.000000 0.000000 -0.006602 0.000000
# 6 0.000000 0.000000 0.000000 0.000000 0.000000 0.076686
#
#
# Mechanical properties :
#
#
# Convention : Reuss Voigt Hill
#
# Bulk Modulus (GPa) = 38.52739 70.19221 54.35980
# Shear Modulus (GPa) = 41.59991 -18.43271 11.58360
#
# Velocity S-wave (km/s) = 4.61122 -3.06948 2.43328
# Velocity P-wave (km/s) = 6.93138 4.82864 5.97326
#
# Compressibility (1/GPa) = 0.02595556
#
# Stress axis : x y z
#
# Youngs Moduli (GPa) = 88.55481 25.91097 111.27171
#
# Poissons Ratio (x) = 0.10898 0.28613
# Poissons Ratio (y) = 0.37246 1.07725
# Poissons Ratio (z) = 0.22772 0.25085
#
# Static dielectric constant tensor:
#      x y z
#    x 1.746390 0.000000 0.000000 
#    y 0.000000 1.638430 0.000000 
#    z 0.000000 0.000000 1.718650 
# 
# From -- ./inp_files/58559.got.cif
#   From: 2010.05.17/outbox.cif.g08.bks.cpg/sg65_30_cif.got.tgz:58559.got - 2010.06.03 17:01:31.
