data_PCOD9494421
_publ_section_title
;
Structure prediction by ZEFSAII (Michael W. Deem and Ramdas Pophale) SiO2 
 PCOD9494421
Probable space group: C M M M
;
_chemical_formula_sum "Si O2"
_cell_formula_units_Z 88
_cell_length_a 7.563539
_cell_length_b 19.286346
_cell_length_c 30.409049
_cell_angle_alpha 90.000000
_cell_angle_beta 90.000000
_cell_angle_gamma 90.000000
_cell_volume 4435.860121
_symmetry_space_group_name_H-M "C M M M"
_symmetry_group_IT_number 65
_symmetry_cell_setting 'orthorhombic'
loop_
_space_group_symop_operation_xyz
x,y,z
-x,-y,z
x,-y,-z
-x,y,-z
-x,-y,-z
x,y,-z
-x,y,z
x,-y,z
1/2+x,1/2+y,z
1/2-x,1/2-y,z
1/2+x,1/2-y,-z
1/2-x,1/2+y,-z
1/2-x,1/2-y,-z
1/2+x,1/2+y,-z
1/2-x,1/2+y,z
1/2+x,1/2-y,z
loop_
_atom_site_type_symbol
_atom_site_label
_atom_site_fract_x
_atom_site_fract_y
_atom_site_fract_z
Si Si1 0.210648 0.079101 0.095689
Si Si2 0.288212 0.332332 0.272913
Si Si3 0.287435 0.331765 0.368499
Si Si4 0.787204 0.831768 0.822807
Si Si5 0.790284 0.578875 0.000000
Si Si6 0.215725 0.919506 0.548906
O O1 0.281130 0.124961 0.135736
O O2 0.000000 0.074507 0.101376
O O3 0.281555 0.000000 0.096252
O O4 0.239277 0.110071 0.046972
O O5 0.500000 0.342386 0.272946
O O6 0.250000 0.250000 0.272937
O O7 0.221008 0.357184 0.320488
O O8 0.221108 0.356895 0.225294
O O9 0.500000 0.339579 0.367826
O O10 0.250000 0.250000 0.372655
O O11 0.220158 0.373425 0.410613
O O12 0.750000 0.750000 0.827503
O O13 0.000000 0.838613 0.822002
O O14 0.714394 0.500000 0.000000
O O15 0.000000 0.574454 0.000000
O O16 0.272042 0.896453 0.500000
O O17 0.000000 0.917406 0.549100
O O18 0.265650 0.000000 0.554378
#
# Coordination Sequence:
#
# PCOD9494421 Si02
#       6
#    16  16  16  16   8  16
#     4   9  17  30  47  65  86 112 140 170 208 252
#     4   8  14  25  40  59  83 109 137 168 205 249
#     4   9  16  26  42  63  84 107 138 176 213 247
#     4   9  17  29  45  64  86 113 142 171 206 249
#     4   9  17  29  46  67  88 111 141 175 208 243
#     4   8  14  25  40  58  82 112 143 173 208 252
#
# _framework density 19.838315999999999
#
# number of rings (size 3 to 8) (size 9 to 14) (size 15 to 20)
#    0.000    3.364    0.000    0.818    0.000    2.182 
#    0.000    1.364    0.000    6.000    0.000    1.273 
#    0.000   14.545    0.000    0.000    0.000    0.000 
#
# Total GULP energy -244944.671961 kJ/mol
# GULP energy per Si atom -5566.924363 kJ/mol
# Density = 1.979316 g / cm^3
# Si number density = 19.838316 Si / 1000 Ang^3
#
#
#
# Elastic Constant Matrix: (Units=GPa)
#
#
# Indices 1 2 3 4 5 6 
#
# 1 49.5858 0.3167 8.6234 0.0000 0.0000 0.0000
# 2 0.3167 45.0482 84.9963 0.0000 0.0000 0.0000
# 3 8.6234 84.9963 275.0395 0.0000 0.0000 0.0000
# 4 0.0000 0.0000 0.0000 67.1109 0.0000 0.0000
# 5 0.0000 0.0000 0.0000 0.0000 1.0509 0.0000
# 6 0.0000 0.0000 0.0000 0.0000 0.0000 10.2208
#
#
#
# Elastic Compliance Matrix: (Units=1/GPa)
#
#
# Indices 1 2 3 4 5 6 
#
# 1 0.020399 0.002550 -0.001428 0.000000 0.000000 0.000000
# 2 0.002550 0.053563 -0.016633 0.000000 0.000000 0.000000
# 3 -0.001428 -0.016633 0.008821 0.000000 0.000000 0.000000
# 4 0.000000 0.000000 0.000000 0.014901 0.000000 0.000000
# 5 0.000000 0.000000 0.000000 0.000000 0.951609 0.000000
# 6 0.000000 0.000000 0.000000 0.000000 0.000000 0.097840
#
#
# Mechanical properties :
#
#
# Convention : Reuss Voigt Hill
#
# Bulk Modulus (GPa) = 19.31899 61.94957 40.63428
# Shear Modulus (GPa) = 4.18268 34.05899 19.12083
#
# Velocity S-wave (km/s) = 1.45360 4.14796 3.10793
# Velocity P-wave (km/s) = 3.54636 7.36449 5.77981
#
# Compressibility (1/GPa) = 0.05176254
#
# Stress axis : x y z
#
# Youngs Moduli (GPa) = 49.02181 18.66970 113.37051
#
# Poissons Ratio (x) = -0.04762 0.16186
# Poissons Ratio (y) = -0.12502 1.88565
# Poissons Ratio (z) = 0.06999 0.31053
#
# Static dielectric constant tensor:
#      x y z
#    x 1.734570 0.000000 0.000000 
#    y 0.000000 1.654760 0.000000 
#    z 0.000000 0.000000 1.770410 
# 
# From -- ./inp_files/76594.got.cif
#   From: 2010.05.17/outbox.cif.g08.bks.cpg/sg65_39_cif.got.tgz:76594.got - 2010.06.03 17:01:31.
