data_PCOD9494147
_publ_section_title
;
Structure prediction by ZEFSAII (Michael W. Deem and Ramdas Pophale) SiO2 
 PCOD9494147
Probable space group: C M M M
;
_chemical_formula_sum "Si O2"
_cell_formula_units_Z 72
_cell_length_a 17.791620
_cell_length_b 14.530336
_cell_length_c 15.521349
_cell_angle_alpha 90.000000
_cell_angle_beta 90.000000
_cell_angle_gamma 90.000000
_cell_volume 4012.551462
_symmetry_space_group_name_H-M "C M M M"
_symmetry_group_IT_number 65
_symmetry_cell_setting 'orthorhombic'
loop_
_space_group_symop_operation_xyz
x,y,z
-x,-y,z
x,-y,-z
-x,y,-z
-x,-y,-z
x,y,-z
-x,y,z
x,-y,z
1/2+x,1/2+y,z
1/2-x,1/2-y,z
1/2+x,1/2-y,-z
1/2-x,1/2+y,-z
1/2-x,1/2-y,-z
1/2+x,1/2+y,-z
1/2-x,1/2+y,z
1/2+x,1/2-y,z
loop_
_atom_site_type_symbol
_atom_site_label
_atom_site_fract_x
_atom_site_fract_y
_atom_site_fract_z
Si Si1 0.085342 0.611776 0.000000
Si Si2 0.910959 0.110485 0.900637
Si Si3 0.336530 0.723073 0.746936
Si Si4 0.912692 0.109538 0.601312
Si Si5 0.909364 0.395178 0.187902
O O1 0.119876 0.633938 0.907683
O O2 0.080050 0.500000 0.000000
O O3 0.000000 0.649173 0.000000
O O4 0.863798 0.164038 0.829476
O O5 0.000000 0.129650 0.887287
O O6 0.901032 0.000000 0.892265
O O7 0.892874 0.135616 0.000000
O O8 0.250000 0.750000 0.752233
O O9 0.358085 0.665008 0.663031
O O10 0.382113 0.818761 0.747148
O O11 0.901729 0.128868 0.500000
O O12 0.000000 0.131060 0.623123
O O13 0.903273 0.000000 0.613853
O O14 0.885206 0.500000 0.205848
O O15 0.000000 0.395919 0.182833
#
# Coordination Sequence:
#
# PCOD9494147 Si02
#       5
#     8  16  16  16  16
#     4   7  12  26  47  66  85 121 179 235 262 271
#     4   9  19  37  59  80 105 144 196 247 287 324
#     4  12  24  33  51  81 120 152 175 213 279 350
#     4   9  19  39  67  91 106 130 179 237 283 327
#     4   9  18  33  51  71  98 139 192 235 259 295
#
# _framework density 17.943694000000001
#
# number of rings (size 3 to 8) (size 9 to 14) (size 15 to 20)
#    0.000    2.556    0.000    5.333    1.556    4.444 
#    0.000    0.000    0.000    0.667    0.000    3.111 
#    0.000    0.000    0.000    0.000    0.000    0.000 
#
# Total GULP energy -200831.576467 kJ/mol
# GULP energy per Si atom -5578.654902 kJ/mol
# Density = 1.790285 g / cm^3
# Si number density = 17.943694 Si / 1000 Ang^3
#
#
#
# Elastic Constant Matrix: (Units=GPa)
#
#
# Indices 1 2 3 4 5 6 
#
# 1 74.8331 47.6055 59.0352 0.0000 0.0000 0.0000
# 2 47.6055 74.9372 54.8696 0.0000 0.0000 0.0000
# 3 59.0352 54.8696 82.0449 0.0000 0.0000 0.0000
# 4 0.0000 0.0000 0.0000 33.3247 0.0000 0.0000
# 5 0.0000 0.0000 0.0000 0.0000 14.7274 0.0000
# 6 0.0000 0.0000 0.0000 0.0000 0.0000 -88.4693
#
#
#
# Elastic Compliance Matrix: (Units=1/GPa)
#
#
# Indices 1 2 3 4 5 6 
#
# 1 0.032649 -0.006936 -0.018854 0.000000 0.000000 0.000000
# 2 -0.006936 0.027623 -0.013483 0.000000 0.000000 0.000000
# 3 -0.018854 -0.013483 0.034772 0.000000 0.000000 0.000000
# 4 0.000000 0.000000 0.000000 0.030008 0.000000 0.000000
# 5 0.000000 0.000000 0.000000 0.000000 0.067901 0.000000
# 6 0.000000 0.000000 0.000000 0.000000 0.000000 -0.011303
#
#
# Mechanical properties :
#
#
# Convention : Reuss Voigt Hill
#
# Bulk Modulus (GPa) = 60.61226 61.64843 61.13035
# Shear Modulus (GPa) = 18.81863 -3.39646 7.71109
#
# Velocity S-wave (km/s) = 3.24197 -1.37730 2.07526
# Velocity P-wave (km/s) = 6.91855 5.64818 6.31539
#
# Compressibility (1/GPa) = 0.01649831
#
# Stress axis : x y z
#
# Youngs Moduli (GPa) = 30.62857 36.20172 28.75901
#
# Poissons Ratio (x) = 0.25110 0.54222
# Poissons Ratio (y) = 0.21244 0.38775
# Poissons Ratio (z) = 0.57747 0.48810
#
# Static dielectric constant tensor:
#      x y z
#    x 1.598470 0.000000 0.000000 
#    y 0.000000 1.630390 0.000000 
#    z 0.000000 0.000000 1.623100 
# 
# From -- ./inp_files/42133.got.cif
#   From: 2010.05.17/outbox.cif.g08.bks.cpg/sg65_22_cif.got.tgz:42133.got - 2010.06.03 17:01:31.
