data_PCOD9494339
_publ_section_title
;
Structure prediction by ZEFSAII (Michael W. Deem and Ramdas Pophale) SiO2 
 PCOD9494339
Probable space group: C M M M
;
_chemical_formula_sum "Si O2"
_cell_formula_units_Z 80
_cell_length_a 14.524204
_cell_length_b 10.029083
_cell_length_c 27.013627
_cell_angle_alpha 90.000000
_cell_angle_beta 90.000000
_cell_angle_gamma 90.000000
_cell_volume 3934.925050
_symmetry_space_group_name_H-M "C M M M"
_symmetry_group_IT_number 65
_symmetry_cell_setting 'orthorhombic'
loop_
_space_group_symop_operation_xyz
x,y,z
-x,-y,z
x,-y,-z
-x,y,-z
-x,-y,-z
x,y,-z
-x,y,z
x,-y,z
1/2+x,1/2+y,z
1/2-x,1/2-y,z
1/2+x,1/2-y,-z
1/2-x,1/2+y,-z
1/2-x,1/2-y,-z
1/2+x,1/2+y,-z
1/2-x,1/2+y,z
1/2+x,1/2-y,z
loop_
_atom_site_type_symbol
_atom_site_label
_atom_site_fract_x
_atom_site_fract_y
_atom_site_fract_z
Si Si1 0.339709 0.658586 0.606876
Si Si2 0.658945 0.342170 0.500000
Si Si3 0.391921 0.647844 0.716853
Si Si4 0.887730 0.653192 0.911883
Si Si5 0.387524 0.151553 0.799749
Si Si6 0.387360 0.346792 0.000000
O O1 0.318942 0.500000 0.608351
O O2 0.250000 0.750000 0.605956
O O3 0.388092 0.681618 0.553433
O O4 0.386001 0.689322 0.659343
O O5 0.683777 0.500000 0.500000
O O6 0.750000 0.250000 0.500000
O O7 0.500000 0.636894 0.727833
O O8 0.350492 0.500000 0.721918
O O9 0.354848 0.751580 0.756555
O O10 0.858632 0.500000 0.922683
O O11 0.860516 0.688892 0.855734
O O12 0.858732 0.761814 0.951992
O O13 0.000000 0.650948 0.913047
O O14 0.500000 0.150979 0.799311
O O15 0.357958 0.000000 0.790746
O O16 0.355727 0.500000 0.000000
O O17 0.500000 0.350135 0.000000
#
# Coordination Sequence:
#
# PCOD9494339 Si02
#       6
#    16   8  16  16  16   8
#     4   9  17  29  45  64  84 108 138 170 205 244
#     4   8  14  26  43  61  81 105 135 168 200 240
#     4   9  17  28  41  59  84 110 135 167 208 250
#     4   8  13  21  31  42  60  89 124 160 196 234
#     4   8  14  24  37  52  70  97 134 168 198 239
#     4   9  15  19  25  41  63  87 120 161 200 237
#
# _framework density 20.330756999999998
#
# number of rings (size 3 to 8) (size 9 to 14) (size 15 to 20)
#    0.000    3.500    0.000    1.500    0.000    2.800 
#    0.000    4.500    0.000    3.000    0.000    0.000 
#    0.000   11.200    0.000    0.900    0.000   12.800 
#
# Total GULP energy -222678.639064 kJ/mol
# GULP energy per Si atom -5566.965977 kJ/mol
# Density = 2.028448 g / cm^3
# Si number density = 20.330757 Si / 1000 Ang^3
#
#
#
# Elastic Constant Matrix: (Units=GPa)
#
#
# Indices 1 2 3 4 5 6 
#
# 1 42.8581 13.7706 9.8531 0.0000 0.0000 0.0000
# 2 13.7706 98.7494 127.3857 0.0000 0.0000 0.0000
# 3 9.8531 127.3857 226.3598 0.0000 0.0000 0.0000
# 4 0.0000 0.0000 0.0000 36.8061 0.0000 0.0000
# 5 0.0000 0.0000 0.0000 0.0000 21.5907 0.0000
# 6 0.0000 0.0000 0.0000 0.0000 0.0000 0.9610
#
#
#
# Elastic Compliance Matrix: (Units=1/GPa)
#
#
# Indices 1 2 3 4 5 6 
#
# 1 0.025044 -0.007612 0.003194 0.000000 0.000000 0.000000
# 2 -0.007612 0.039266 -0.021766 0.000000 0.000000 0.000000
# 3 0.003194 -0.021766 0.016528 0.000000 0.000000 0.000000
# 4 0.000000 0.000000 0.000000 0.027169 0.000000 0.000000
# 5 0.000000 0.000000 0.000000 0.000000 0.046316 0.000000
# 6 0.000000 0.000000 0.000000 0.000000 0.000000 1.040581
#
#
# Mechanical properties :
#
#
# Convention : Reuss Voigt Hill
#
# Bulk Modulus (GPa) = 35.12583 74.44289 54.78436
# Shear Modulus (GPa) = 3.97847 26.33543 15.15695
#
# Velocity S-wave (km/s) = 1.40040 3.60300 2.73338
# Velocity P-wave (km/s) = 4.46425 7.34876 6.08004
#
# Compressibility (1/GPa) = 0.02846908
#
# Stress axis : x y z
#
# Youngs Moduli (GPa) = 39.92902 25.46748 60.50502
#
# Poissons Ratio (x) = 0.19387 -0.19324
# Poissons Ratio (y) = 0.30395 1.31694
# Poissons Ratio (z) = -0.12752 0.55432
#
# Static dielectric constant tensor:
#      x y z
#    x 1.791750 0.000000 0.000000 
#    y 0.000000 1.707340 0.000000 
#    z 0.000000 0.000000 1.757990 
# 
# From -- ./inp_files/75300.got.cif
#   From: 2010.05.17/outbox.cif.g08.bks.cpg/sg65_38_cif.got.tgz:75300.got - 2010.06.03 17:01:31.
