data_PCOD9494180
_publ_section_title
;
Structure prediction by ZEFSAII (Michael W. Deem and Ramdas Pophale) SiO2 
 PCOD9494180
Probable space group: C M M M
;
_chemical_formula_sum "Si O2"
_cell_formula_units_Z 56
_cell_length_a 15.205173
_cell_length_b 8.880397
_cell_length_c 21.825855
_cell_angle_alpha 90.000000
_cell_angle_beta 90.000000
_cell_angle_gamma 90.000000
_cell_volume 2947.100953
_symmetry_space_group_name_H-M "C M M M"
_symmetry_group_IT_number 65
_symmetry_cell_setting 'orthorhombic'
loop_
_space_group_symop_operation_xyz
x,y,z
-x,-y,z
x,-y,-z
-x,y,-z
-x,-y,-z
x,y,-z
-x,y,z
x,-y,z
1/2+x,1/2+y,z
1/2-x,1/2-y,z
1/2+x,1/2-y,-z
1/2-x,1/2+y,-z
1/2-x,1/2-y,-z
1/2+x,1/2+y,-z
1/2-x,1/2+y,z
1/2+x,1/2-y,z
loop_
_atom_site_type_symbol
_atom_site_label
_atom_site_fract_x
_atom_site_fract_y
_atom_site_fract_z
Si Si1 0.500000 0.179664 0.230754
Si Si2 0.848340 0.181236 0.000000
Si Si3 0.393583 0.175100 0.430569
Si Si4 0.158518 0.178137 0.693463
Si Si5 0.000000 0.181914 0.903680
O O1 0.582993 0.244491 0.267131
O O2 0.500000 0.239049 0.161551
O O3 0.500000 0.000000 0.232767
O O4 0.750000 0.250000 0.000000
O O5 0.911741 0.221409 0.057672
O O6 0.839191 0.000000 0.000000
O O7 0.367106 0.214608 0.500000
O O8 0.500000 0.181997 0.428046
O O9 0.356385 0.279586 0.377757
O O10 0.369028 0.000000 0.418978
O O11 0.250000 0.250000 0.712949
O O12 0.157057 0.000000 0.701516
O O13 0.000000 0.000000 0.896887
#
# Coordination Sequence:
#
# PCOD9494180 Si02
#       5
#     8   8  16  16   8
#     4  12  25  43  64  89 124 163 204 254 304 359
#     4   9  19  37  64  94 128 163 199 245 291 342
#     4   9  18  35  60  87 117 153 194 246 307 369
#     4  12  25  41  62  88 118 158 204 254 307 367
#     4   9  20  40  62  89 125 167 204 239 293 354
#
# _framework density 19.001725
#
# number of rings (size 3 to 8) (size 9 to 14) (size 15 to 20)
#    0.000    1.714    1.429    5.571    0.000    3.429 
#    0.000    5.714    0.000    0.000    0.000    0.000 
#    0.000    0.000    0.000    0.000    0.000    0.000 
#
# Total GULP energy -156464.303980 kJ/mol
# GULP energy per Si atom -5588.010856 kJ/mol
# Density = 1.895848 g / cm^3
# Si number density = 19.001725 Si / 1000 Ang^3
#
#
#
# Elastic Constant Matrix: (Units=GPa)
#
#
# Indices 1 2 3 4 5 6 
#
# 1 168.2336 76.7686 77.4513 0.0000 0.0000 0.0000
# 2 76.7686 134.9656 81.6941 0.0000 0.0000 0.0000
# 3 77.4513 81.6941 130.1708 0.0000 0.0000 0.0000
# 4 0.0000 0.0000 0.0000 33.5520 0.0000 0.0000
# 5 0.0000 0.0000 0.0000 0.0000 151.0092 0.0000
# 6 0.0000 0.0000 0.0000 0.0000 0.0000 33.3394
#
#
#
# Elastic Compliance Matrix: (Units=1/GPa)
#
#
# Indices 1 2 3 4 5 6 
#
# 1 0.008875 -0.002986 -0.003407 0.000000 0.000000 0.000000
# 2 -0.002986 0.012953 -0.006352 0.000000 0.000000 0.000000
# 3 -0.003407 -0.006352 0.013696 0.000000 0.000000 0.000000
# 4 0.000000 0.000000 0.000000 0.029804 0.000000 0.000000
# 5 0.000000 0.000000 0.000000 0.000000 0.006622 0.000000
# 6 0.000000 0.000000 0.000000 0.000000 0.000000 0.029995
#
#
# Mechanical properties :
#
#
# Convention : Reuss Voigt Hill
#
# Bulk Modulus (GPa) = 99.66526 100.57756 100.12141
# Shear Modulus (GPa) = 38.23225 56.74385 47.48805
#
# Velocity S-wave (km/s) = 4.49044 5.47059 5.00457
# Velocity P-wave (km/s) = 8.91347 9.64099 9.28436
#
# Compressibility (1/GPa) = 0.01003359
#
# Stress axis : x y z
#
# Youngs Moduli (GPa) = 112.67497 77.20283 73.01523
#
# Poissons Ratio (x) = 0.23054 0.24873
# Poissons Ratio (y) = 0.33647 0.46382
# Poissons Ratio (z) = 0.38383 0.49042
#
# Static dielectric constant tensor:
#      x y z
#    x 1.654450 0.000000 0.000000 
#    y 0.000000 1.629900 0.000000 
#    z 0.000000 0.000000 1.650010 
# 
# From -- ./inp_files/62210.got.cif
#   From: 2010.05.17/outbox.cif.g08.bks.cpg/sg65_32_cif.got.tgz:62210.got - 2010.06.03 17:01:31.
