data_PCOD9494965
_publ_section_title
;
Structure prediction by ZEFSAII (Michael W. Deem and Ramdas Pophale) SiO2 
 PCOD9494965
Probable space group: C C C M
;
_chemical_formula_sum "Si O2"
_cell_formula_units_Z 88
_cell_length_a 13.595433
_cell_length_b 14.368503
_cell_length_c 22.347683
_cell_angle_alpha 90.000000
_cell_angle_beta 90.000000
_cell_angle_gamma 90.000000
_cell_volume 4365.530927
_symmetry_space_group_name_H-M "C C C M"
_symmetry_group_IT_number 66
_symmetry_cell_setting 'orthorhombic'
loop_
_space_group_symop_operation_xyz
x,y,z
-x,-y,z
x,-y,1/2-z
-x,y,1/2-z
-x,-y,-z
x,y,-z
-x,y,1/2+z
x,-y,1/2+z
1/2+x,1/2+y,z
1/2-x,1/2-y,z
1/2+x,1/2-y,1/2-z
1/2-x,1/2+y,1/2-z
1/2-x,1/2-y,-z
1/2+x,1/2+y,-z
1/2-x,1/2+y,1/2+z
1/2+x,1/2-y,1/2+z
loop_
_atom_site_type_symbol
_atom_site_label
_atom_site_fract_x
_atom_site_fract_y
_atom_site_fract_z
Si Si1 0.847775 0.348895 0.863606
Si Si2 0.631701 0.960348 0.184952
Si Si3 0.359713 0.224945 0.226665
Si Si4 0.866078 0.926710 0.801084
Si Si5 0.500000 0.500000 0.402696
Si Si6 0.359610 0.332012 0.568771
O O1 0.888033 0.455145 0.860559
O O2 0.848708 0.312571 0.794614
O O3 0.735417 0.355668 0.889339
O O4 0.895392 0.267231 0.903804
O O5 0.590487 0.854969 0.186089
O O6 0.749263 0.941487 0.187546
O O7 0.605430 0.000000 0.250000
O O8 0.250000 0.250000 0.204513
O O9 0.402405 0.326914 0.221893
O O10 0.890189 0.000000 0.750000
O O11 0.920662 0.949429 0.861464
O O12 0.561289 0.584657 0.431639
O O13 0.328712 0.319723 0.500000
#
# Coordination Sequence:
#
# PCOD9494965 Si02
#       6
#    16  16  16  16   8  16
#     4  10  16  32  51  72 101 132 173 219 258 306
#     4   8  15  26  47  73  99 128 161 197 248 312
#     4   9  15  26  48  74 106 129 159 197 257 319
#     4  10  18  28  44  75 106 139 160 191 258 334
#     4  12  22  34  46  70 112 136 166 216 272 320
#     4  11  22  33  48  70  97 140 185 224 262 301
#
# _framework density 20.157914999999999
#
# number of rings (size 3 to 8) (size 9 to 14) (size 15 to 20)
#    0.000    2.182    3.636    3.818    0.000    0.000 
#    0.000    0.000    0.000    1.091    0.000   11.455 
#    0.000    0.000    0.000    0.000    0.000    0.000 
#
# Total GULP energy -244978.356648 kJ/mol
# GULP energy per Si atom -5567.689924 kJ/mol
# Density = 2.011203 g / cm^3
# Si number density = 20.157915 Si / 1000 Ang^3
#
#
#
# Elastic Constant Matrix: (Units=GPa)
#
#
# Indices 1 2 3 4 5 6 
#
# 1 75.9356 29.5571 14.9357 0.0000 0.0000 0.0000
# 2 29.5571 223.5158 59.3490 0.0000 0.0000 0.0000
# 3 14.9357 59.3490 75.9020 0.0000 0.0000 0.0000
# 4 0.0000 0.0000 0.0000 32.1316 0.0000 0.0000
# 5 0.0000 0.0000 0.0000 0.0000 -2.2307 0.0000
# 6 0.0000 0.0000 0.0000 0.0000 0.0000 8.1689
#
#
#
# Elastic Compliance Matrix: (Units=1/GPa)
#
#
# Indices 1 2 3 4 5 6 
#
# 1 0.014047 -0.001418 -0.001655 0.000000 0.000000 0.000000
# 2 -0.001418 0.005789 -0.004248 0.000000 0.000000 0.000000
# 3 -0.001655 -0.004248 0.016822 0.000000 0.000000 0.000000
# 4 0.000000 0.000000 0.000000 0.031122 0.000000 0.000000
# 5 0.000000 0.000000 0.000000 0.000000 -0.448300 0.000000
# 6 0.000000 0.000000 0.000000 0.000000 0.000000 0.122415
#
#
# Mechanical properties :
#
#
# Convention : Reuss Voigt Hill
#
# Bulk Modulus (GPa) = 45.42180 64.78190 55.10185
# Shear Modulus (GPa) = -21.17531 25.71473 2.26971
#
# Velocity S-wave (km/s) = -3.24461 3.57552 1.06227
# Velocity P-wave (km/s) = 2.92322 7.01803 5.37578
#
# Compressibility (1/GPa) = 0.02201586
#
# Stress axis : x y z
#
# Youngs Moduli (GPa) = 71.19179 172.73086 59.44587
#
# Poissons Ratio (x) = 0.24492 0.09840
# Poissons Ratio (y) = 0.10095 0.25251
# Poissons Ratio (z) = 0.11784 0.73372
#
# Static dielectric constant tensor:
#      x y z
#    x 1.846980 0.000000 0.000000 
#    y 0.000000 1.857530 0.000000 
#    z 0.000000 0.000000 1.650990 
# 
# From -- ./inp_files/49875.got.cif
#   From: 2010.05.17/outbox.cif.g08.bks.cpg/sg66_25_cif.got.tgz:49875.got - 2010.06.03 17:51:23.
