data_PCOD9494768
_publ_section_title
;
Structure prediction by ZEFSAII (Michael W. Deem and Ramdas Pophale) SiO2 
 PCOD9494768
Probable space group: C M M M
;
_chemical_formula_sum "Si O2"
_cell_formula_units_Z 44
_cell_length_a 9.000000
_cell_length_b 24.000000
_cell_length_c 21.000000
_cell_angle_alpha 90.000000
_cell_angle_beta 90.000000
_cell_angle_gamma 90.000000
_cell_volume 4536.000000
_symmetry_space_group_name_H-M "C M M M"
_symmetry_group_IT_number 65
_symmetry_cell_setting 'orthorhombic'
loop_
_space_group_symop_operation_xyz
x,y,z
-x,-y,z
x,-y,-z
-x,y,-z
-x,-y,-z
x,y,-z
-x,y,z
x,-y,z
1/2+x,1/2+y,z
1/2-x,1/2-y,z
1/2+x,1/2-y,-z
1/2-x,1/2+y,-z
1/2-x,1/2-y,-z
1/2+x,1/2+y,-z
1/2-x,1/2+y,z
1/2+x,1/2-y,z
loop_
_atom_site_type_symbol
_atom_site_label
_atom_site_fract_x
_atom_site_fract_y
_atom_site_fract_z
Si Si1 0.673353 0.000000 0.157709
Si Si2 0.178489 0.688974 0.128691
Si Si3 0.171782 0.911096 0.073019
Si Si4 0.323536 0.190560 0.729959
Si Si5 0.321245 0.099983 0.630572
Si Si6 0.177692 0.066572 0.500000
Si Si7 0.176728 0.000000 0.707711
O O1 0.718734 0.052389 0.115211
O O2 0.775045 0.000000 0.219583
O O3 0.500000 0.000000 0.174751
O O4 0.250000 0.750000 0.127230
O O5 0.266169 0.650973 0.079570
O O6 0.209471 0.665209 0.200283
O O7 0.000000 0.690240 0.118981
O O8 0.000000 0.915264 0.094600
O O9 0.176475 0.929435 0.000000
O O10 0.500000 0.196935 0.728541
O O11 0.250000 0.250000 0.727773
O O12 0.279946 0.155209 0.669041
O O13 0.500000 0.094963 0.627428
O O14 0.250129 0.093864 0.561761
O O15 0.251305 0.051987 0.673366
O O16 0.000000 0.072717 0.500000
O O17 0.210084 0.000000 0.500000
O O18 0.000000 0.000000 0.699496
#
# Coordination Sequence:
#
# PCOD9494768 Si02
#       7
#     8  16  16  16  16   8   8
#     4  12  25  41  61  86 116 153 196 241 293 353
#     4  10  20  37  61  88 119 153 194 244 297 352
#     4  11  24  41  60  84 116 154 196 243 297 357
#     4   9  20  37  59  87 116 149 190 237 288 344
#     4  11  22  38  61  89 120 155 196 241 292 345
#     4  11  23  39  58  85 121 158 201 241 286 346
#     4  12  24  38  60  90 120 152 191 239 294 348
#
# _framework density 9.7001760000000008
#
# number of rings (size 3 to 8) (size 9 to 14) (size 15 to 20)
#    0.000    1.364    0.909    4.909    0.000    6.909 
#    0.000    0.455    0.000    0.000    0.000    0.000 
#    0.000    0.000    0.000    0.000    0.000    0.000 
#
# Total GULP energy -245684.531219 kJ/mol
# GULP energy per Si atom -5583.739346 kJ/mol
# Density = 0.967810 g / cm^3
# Si number density = 9.700176 Si / 1000 Ang^3
#
#
#
# Elastic Constant Matrix: (Units=GPa)
#
#
# Indices 1 2 3 4 5 6 
#
# 1 34.1669 11.6954 9.5184 0.0000 0.0000 0.0000
# 2 11.6954 62.9162 32.2718 0.0000 0.0000 0.0000
# 3 9.5184 32.2718 81.9643 0.0000 0.0000 0.0000
# 4 0.0000 0.0000 0.0000 257.8637 0.0000 0.0000
# 5 0.0000 0.0000 0.0000 0.0000 29.9808 0.0000
# 6 0.0000 0.0000 0.0000 0.0000 0.0000 23.5801
#
#
#
# Elastic Compliance Matrix: (Units=1/GPa)
#
#
# Indices 1 2 3 4 5 6 
#
# 1 0.031443 -0.004977 -0.001692 0.000000 0.000000 0.000000
# 2 -0.004977 0.020704 -0.007574 0.000000 0.000000 0.000000
# 3 -0.001692 -0.007574 0.015379 0.000000 0.000000 0.000000
# 4 0.000000 0.000000 0.000000 0.003878 0.000000 0.000000
# 5 0.000000 0.000000 0.000000 0.000000 0.033355 0.000000
# 6 0.000000 0.000000 0.000000 0.000000 0.000000 0.042409
#
#
# Mechanical properties :
#
#
# Convention : Reuss Voigt Hill
#
# Bulk Modulus (GPa) = 25.61433 31.77985 28.69709
# Shear Modulus (GPa) = 26.50175 70.65571 48.57873
#
# Velocity S-wave (km/s) = 3.70001 6.04143 5.00944
# Velocity P-wave (km/s) = 5.61116 8.06733 6.94863
#
# Compressibility (1/GPa) = 0.03904065
#
# Stress axis : x y z
#
# Youngs Moduli (GPa) = 31.80351 48.29928 65.02389
#
# Poissons Ratio (x) = 0.24039 0.11001
# Poissons Ratio (y) = 0.15829 0.49248
# Poissons Ratio (z) = 0.05381 0.36581
#
# Static dielectric constant tensor:
#      x y z
#    x 1.627600 0.000000 0.000000 
#    y 0.000000 1.684860 0.000000 
#    z 0.000000 0.000000 1.706770 
# 
# From -- ./inp_files/59873.got.cif
#   From: 2010.05.17/outbox.ucp.g08.bks.cvg/sg65_30_cif.got.tgz:59873.got - 2010.06.11 16:39:57.
