data_PCOD9494385
_publ_section_title
;
Structure prediction by ZEFSAII (Michael W. Deem and Ramdas Pophale) SiO2 
 PCOD9494385
Probable space group: C M M M
;
_chemical_formula_sum "Si O2"
_cell_formula_units_Z 80
_cell_length_a 18.380608
_cell_length_b 26.885769
_cell_length_c 7.356762
_cell_angle_alpha 90.000000
_cell_angle_beta 90.000000
_cell_angle_gamma 90.000000
_cell_volume 3635.540962
_symmetry_space_group_name_H-M "C M M M"
_symmetry_group_IT_number 65
_symmetry_cell_setting 'orthorhombic'
loop_
_space_group_symop_operation_xyz
x,y,z
-x,-y,z
x,-y,-z
-x,y,-z
-x,-y,-z
x,y,-z
-x,y,z
x,-y,z
1/2+x,1/2+y,z
1/2-x,1/2-y,z
1/2+x,1/2-y,-z
1/2-x,1/2+y,-z
1/2-x,1/2-y,-z
1/2+x,1/2+y,-z
1/2-x,1/2+y,z
1/2+x,1/2-y,z
loop_
_atom_site_type_symbol
_atom_site_label
_atom_site_fract_x
_atom_site_fract_y
_atom_site_fract_z
Si Si1 0.791159 0.837426 0.210406
Si Si2 0.920882 0.769304 0.778097
Si Si3 0.392351 0.946271 0.210184
Si Si4 0.220391 0.053635 0.718116
Si Si5 0.624688 0.839584 0.777192
O O1 0.852362 0.801315 0.287716
O O2 0.815070 0.895092 0.219480
O O3 0.709058 0.835754 0.285113
O O4 0.782740 0.822880 0.000000
O O5 0.912929 0.711638 0.726255
O O6 0.000000 0.788394 0.721231
O O7 0.919291 0.770774 0.000000
O O8 0.303997 0.945645 0.214832
O O9 0.410153 0.891751 0.286003
O O10 0.414072 0.000000 0.290287
O O11 0.415416 0.946997 0.000000
O O12 0.222693 0.054828 0.500000
O O13 0.188936 0.000000 0.774220
O O14 0.624630 0.842364 0.000000
#
# Coordination Sequence:
#
# PCOD9494385 Si02
#       5
#    16  16  16  16  16
#     4   9  16  26  42  62  82 106 136 167 199 238
#     4   9  16  25  39  60  83 106 136 173 206 235
#     4   8  13  22  38  60  84 109 136 164 195 234
#     4   9  16  25  39  61  86 107 129 162 203 243
#     4   8  13  22  38  59  82 107 134 165 200 238
#
# _framework density 22.004978999999999
#
# number of rings (size 3 to 8) (size 9 to 14) (size 15 to 20)
#    0.000    3.400    0.000    2.400    0.000    3.600 
#    0.000    0.000    0.000   11.400    0.000    8.400 
#    0.000    0.000    0.000   50.400    0.000   46.400 
#
# Total GULP energy -222940.755757 kJ/mol
# GULP energy per Si atom -5573.518894 kJ/mol
# Density = 2.195489 g / cm^3
# Si number density = 22.004979 Si / 1000 Ang^3
#
#
#
# Elastic Constant Matrix: (Units=GPa)
#
#
# Indices 1 2 3 4 5 6 
#
# 1 86.8245 60.1293 5.4876 0.0000 0.0000 0.0000
# 2 60.1293 142.8204 -9.9494 0.0000 0.0000 0.0000
# 3 5.4876 -9.9494 83.7584 0.0000 0.0000 0.0000
# 4 0.0000 0.0000 0.0000 -151.8591 0.0000 0.0000
# 5 0.0000 0.0000 0.0000 0.0000 -35.7554 0.0000
# 6 0.0000 0.0000 0.0000 0.0000 0.0000 -65.9650
#
#
#
# Elastic Compliance Matrix: (Units=1/GPa)
#
#
# Indices 1 2 3 4 5 6 
#
# 1 0.016561 -0.007107 -0.001929 0.000000 0.000000 0.000000
# 2 -0.007107 0.010110 0.001667 0.000000 0.000000 0.000000
# 3 -0.001929 0.001667 0.012263 0.000000 0.000000 0.000000
# 4 0.000000 0.000000 0.000000 -0.006585 0.000000 0.000000
# 5 0.000000 0.000000 0.000000 0.000000 -0.027968 0.000000
# 6 0.000000 0.000000 0.000000 0.000000 0.000000 -0.015160
#
#
# Mechanical properties :
#
#
# Convention : Reuss Voigt Hill
#
# Bulk Modulus (GPa) = 41.32999 47.19316 44.26157
# Shear Modulus (GPa) = 415.74473 -33.53352 191.10561
#
# Velocity S-wave (km/s) = 13.76017 -3.90796 9.32926
# Velocity P-wave (km/s) = 16.47056 1.06315 11.67068
#
# Compressibility (1/GPa) = 0.02419551
#
# Stress axis : x y z
#
# Youngs Moduli (GPa) = 60.38203 98.91199 81.54302
#
# Poissons Ratio (x) = 0.70296 0.15732
# Poissons Ratio (y) = 0.42913 -0.13590
# Poissons Ratio (z) = 0.11649 -0.16484
#
# Static dielectric constant tensor:
#      x y z
#    x 1.761590 0.000000 0.000000 
#    y 0.000000 1.851830 0.000000 
#    z 0.000000 0.000000 1.863250 
# 
# From -- ./inp_files/9610.got.cif
#   From: 2010.05.17/outbox.cif.g08.bks.cpg/sg65_5_cif.got.tgz:9610.got - 2010.06.03 17:01:31.
