data_PCOD9494593
_publ_section_title
;
Structure prediction by ZEFSAII (Michael W. Deem and Ramdas Pophale) SiO2 
 PCOD9494593
Probable space group: C M M M
;
_chemical_formula_sum "Si O2"
_cell_formula_units_Z 36
_cell_length_a 18.000000
_cell_length_b 9.000000
_cell_length_c 24.000000
_cell_angle_alpha 90.000000
_cell_angle_beta 90.000000
_cell_angle_gamma 90.000000
_cell_volume 3888.000000
_symmetry_space_group_name_H-M "C M M M"
_symmetry_group_IT_number 65
_symmetry_cell_setting 'orthorhombic'
loop_
_space_group_symop_operation_xyz
x,y,z
-x,-y,z
x,-y,-z
-x,y,-z
-x,-y,-z
x,y,-z
-x,y,z
x,-y,z
1/2+x,1/2+y,z
1/2-x,1/2-y,z
1/2+x,1/2-y,-z
1/2-x,1/2+y,-z
1/2-x,1/2-y,-z
1/2+x,1/2+y,-z
1/2-x,1/2+y,z
1/2+x,1/2-y,z
loop_
_atom_site_type_symbol
_atom_site_label
_atom_site_fract_x
_atom_site_fract_y
_atom_site_fract_z
Si Si1 0.832137 0.678479 0.887881
Si Si2 0.411325 0.672606 0.214931
Si Si3 0.831802 0.678255 0.559298
Si Si4 0.833201 0.820527 0.000000
Si Si5 0.167342 0.320431 0.318725
O O1 0.826859 0.500000 0.893354
O O2 0.750000 0.750000 0.880921
O O3 0.879047 0.729656 0.835167
O O4 0.866257 0.753781 0.943421
O O5 0.500000 0.675232 0.214081
O O6 0.386648 0.500000 0.209665
O O7 0.380899 0.744350 0.271384
O O8 0.868245 0.720817 0.500000
O O9 0.823583 0.500000 0.559235
O O10 0.750000 0.750000 0.559125
O O11 0.864768 0.715142 0.619533
O O12 0.750000 0.750000 0.000000
O O13 0.830950 0.000000 0.000000
O O14 0.171162 0.500000 0.311957
O O15 0.250000 0.250000 0.315560
#
# Coordination Sequence:
#
# PCOD9494593 Si02
#       5
#    16  16  16   8  16
#     4  11  21  36  59  85 112 140 175 215 257 307
#     4  11  24  40  55  73 102 139 178 221 268 313
#     4   8  14  25  43  70 102 132 163 204 254 305
#     4  10  18  32  55  84 115 142 173 211 255 303
#     4  10  19  32  53  79 106 136 173 215 259 311
#
# _framework density 9.2592590000000001
#
# number of rings (size 3 to 8) (size 9 to 14) (size 15 to 20)
#    0.000    2.000    0.000    6.333    0.000    2.667 
#    0.000    0.556    0.000    4.000    0.000    4.667 
#    0.000    0.000    0.000    0.000    0.000    0.000 
#
# Total GULP energy -200674.686814 kJ/mol
# GULP energy per Si atom -5574.296856 kJ/mol
# Density = 0.923818 g / cm^3
# Si number density = 9.259259 Si / 1000 Ang^3
#
#
#
# Elastic Constant Matrix: (Units=GPa)
#
#
# Indices 1 2 3 4 5 6 
#
# 1 29.5003 23.2565 35.7656 0.0000 0.0000 0.0000
# 2 23.2565 144.3666 64.4387 0.0000 0.0000 0.0000
# 3 35.7656 64.4387 193.5571 0.0000 0.0000 0.0000
# 4 0.0000 0.0000 0.0000 31.8478 0.0000 0.0000
# 5 0.0000 0.0000 0.0000 0.0000 -25.7402 0.0000
# 6 0.0000 0.0000 0.0000 0.0000 0.0000 21.4827
#
#
#
# Elastic Compliance Matrix: (Units=1/GPa)
#
#
# Indices 1 2 3 4 5 6 
#
# 1 0.045780 -0.004227 -0.007052 0.000000 0.000000 0.000000
# 2 -0.004227 0.008526 -0.002057 0.000000 0.000000 0.000000
# 3 -0.007052 -0.002057 0.007154 0.000000 0.000000 0.000000
# 4 0.000000 0.000000 0.000000 0.031399 0.000000 0.000000
# 5 0.000000 0.000000 0.000000 0.000000 -0.038850 0.000000
# 6 0.000000 0.000000 0.000000 0.000000 0.000000 0.046549
#
#
# Mechanical properties :
#
#
# Convention : Reuss Voigt Hill
#
# Bulk Modulus (GPa) = 28.74589 68.26061 48.50325
# Shear Modulus (GPa) = 36.01569 21.78228 28.89898
#
# Velocity S-wave (km/s) = 4.41483 3.43336 3.95466
# Velocity P-wave (km/s) = 6.44547 7.25659 6.86302
#
# Compressibility (1/GPa) = 0.03478758
#
# Stress axis : x y z
#
# Youngs Moduli (GPa) = 21.84353 117.28676 139.77327
#
# Poissons Ratio (x) = 0.49579 0.98568
# Poissons Ratio (y) = 0.09234 0.28757
# Poissons Ratio (z) = 0.15404 0.24131
#
# Static dielectric constant tensor:
#      x y z
#    x 1.597290 0.000000 0.000000 
#    y 0.000000 1.614270 0.000000 
#    z 0.000000 0.000000 1.733600 
# 
# From -- ./inp_files/70298.got.cif
#   From: 2010.05.17/outbox.ucp.g08.bks.cvg/sg65_36_cif.got.tgz:70298.got - 2010.06.11 16:39:57.
