data_PCOD9494090
_publ_section_title
;
Structure prediction by ZEFSAII (Michael W. Deem and Ramdas Pophale) SiO2 
 PCOD9494090
Probable space group: C M M M
;
_chemical_formula_sum "Si O2"
_cell_formula_units_Z 64
_cell_length_a 17.093537
_cell_length_b 23.548745
_cell_length_c 7.461139
_cell_angle_alpha 90.000000
_cell_angle_beta 90.000000
_cell_angle_gamma 90.000000
_cell_volume 3003.342309
_symmetry_space_group_name_H-M "C M M M"
_symmetry_group_IT_number 65
_symmetry_cell_setting 'orthorhombic'
loop_
_space_group_symop_operation_xyz
x,y,z
-x,-y,z
x,-y,-z
-x,y,-z
-x,-y,-z
x,y,-z
-x,y,z
x,-y,z
1/2+x,1/2+y,z
1/2-x,1/2-y,z
1/2+x,1/2-y,-z
1/2-x,1/2+y,-z
1/2-x,1/2-y,-z
1/2+x,1/2+y,-z
1/2-x,1/2+y,z
1/2+x,1/2-y,z
loop_
_atom_site_type_symbol
_atom_site_label
_atom_site_fract_x
_atom_site_fract_y
_atom_site_fract_z
Si Si1 0.844091 0.738243 0.293301
Si Si2 0.320931 0.114341 0.280082
Si Si3 0.646659 0.640598 0.287772
Si Si4 0.590580 0.000000 0.281080
Si Si5 0.000000 0.063321 0.213297
O O1 0.870958 0.734786 0.500000
O O2 0.750000 0.750000 0.292749
O O3 0.856520 0.675066 0.219177
O O4 0.875212 0.797015 0.212405
O O5 0.322353 0.114545 0.500000
O O6 0.229942 0.116817 0.222138
O O7 0.365347 0.057559 0.223138
O O8 0.658591 0.649967 0.500000
O O9 0.577144 0.597119 0.266030
O O10 0.500000 0.000000 0.226143
O O11 0.591879 0.000000 0.500000
O O12 0.000000 0.000000 0.288124
O O13 0.000000 0.060068 0.000000
#
# Coordination Sequence:
#
# PCOD9494090 Si02
#       5
#    16  16  16   8   8
#     4   7  11  23  43  68  95 120 152 198 243 278
#     4   8  14  25  44  69 101 134 161 195 240 290
#     4   9  17  31  53  75  94 125 170 208 239 284
#     4   9  16  24  34  61 105 140 156 179 235 299
#     4  11  25  39  47  65 103 136 161 204 258 301
#
# _framework density 21.309594000000001
#
# number of rings (size 3 to 8) (size 9 to 14) (size 15 to 20)
#    0.000    3.500    0.000    3.375    1.750    1.000 
#    2.250    0.000    0.000    6.750    0.000    0.000 
#    0.000    1.000    0.000    0.000    0.000    0.000 
#
# Total GULP energy -178290.172554 kJ/mol
# GULP energy per Si atom -5571.567892 kJ/mol
# Density = 2.126109 g / cm^3
# Si number density = 21.309594 Si / 1000 Ang^3
#
#
#
# Elastic Constant Matrix: (Units=GPa)
#
#
# Indices 1 2 3 4 5 6 
#
# 1 108.0739 121.2522 -0.0281 0.0000 0.0000 0.0000
# 2 121.2522 281.7323 6.3211 0.0000 0.0000 0.0000
# 3 -0.0281 6.3211 59.0532 0.0000 0.0000 0.0000
# 4 0.0000 0.0000 0.0000 2.7619 0.0000 0.0000
# 5 0.0000 0.0000 0.0000 0.0000 113.5268 0.0000
# 6 0.0000 0.0000 0.0000 0.0000 0.0000 32.9594
#
#
#
# Elastic Compliance Matrix: (Units=1/GPa)
#
#
# Indices 1 2 3 4 5 6 
#
# 1 0.017934 -0.007737 0.000837 0.000000 0.000000 0.000000
# 2 -0.007737 0.006896 -0.000742 0.000000 0.000000 0.000000
# 3 0.000837 -0.000742 0.017014 0.000000 0.000000 0.000000
# 4 0.000000 0.000000 0.000000 0.362072 0.000000 0.000000
# 5 0.000000 0.000000 0.000000 0.000000 0.008808 0.000000
# 6 0.000000 0.000000 0.000000 0.000000 0.000000 0.030340
#
#
# Mechanical properties :
#
#
# Convention : Reuss Voigt Hill
#
# Bulk Modulus (GPa) = 37.65206 78.21664 57.93435
# Shear Modulus (GPa) = 10.70201 51.27057 30.98629
#
# Velocity S-wave (km/s) = 2.24345 4.91041 3.81740
# Velocity P-wave (km/s) = 4.94147 8.30265 6.83199
#
# Compressibility (1/GPa) = 0.02655897
#
# Stress axis : x y z
#
# Youngs Moduli (GPa) = 55.76101 145.01148 58.77620
#
# Poissons Ratio (x) = 1.12197 -0.04918
# Poissons Ratio (y) = 0.43143 0.04360
# Poissons Ratio (z) = -0.04666 0.10758
#
# Static dielectric constant tensor:
#      x y z
#    x 1.775080 0.000000 0.000000 
#    y 0.000000 1.809790 0.000000 
#    z 0.000000 0.000000 1.808510 
# 
# From -- ./inp_files/6799.got.cif
#   From: 2010.05.17/outbox.cif.g08.bks.cpg/sg65_4_cif.got.tgz:6799.got - 2010.06.03 17:01:31.
