data_PCOD9494360
_publ_section_title
;
Structure prediction by ZEFSAII (Michael W. Deem and Ramdas Pophale) SiO2 
 PCOD9494360
Probable space group: C M M M
;
_chemical_formula_sum "Si O2"
_cell_formula_units_Z 88
_cell_length_a 7.402857
_cell_length_b 19.082462
_cell_length_c 30.013385
_cell_angle_alpha 90.000000
_cell_angle_beta 90.000000
_cell_angle_gamma 90.000000
_cell_volume 4239.832950
_symmetry_space_group_name_H-M "C M M M"
_symmetry_group_IT_number 65
_symmetry_cell_setting 'orthorhombic'
loop_
_space_group_symop_operation_xyz
x,y,z
-x,-y,z
x,-y,-z
-x,y,-z
-x,-y,-z
x,y,-z
-x,y,z
x,-y,z
1/2+x,1/2+y,z
1/2-x,1/2-y,z
1/2+x,1/2-y,-z
1/2-x,1/2+y,-z
1/2-x,1/2-y,-z
1/2+x,1/2+y,-z
1/2-x,1/2+y,z
1/2+x,1/2-y,z
loop_
_atom_site_type_symbol
_atom_site_label
_atom_site_fract_x
_atom_site_fract_y
_atom_site_fract_z
Si Si1 0.715951 0.831918 0.184376
Si Si2 0.221252 0.580731 0.000000
Si Si3 0.216298 0.333095 0.645064
Si Si4 0.215896 0.331855 0.084716
Si Si5 0.778779 0.580903 0.269216
Si Si6 0.783984 0.666265 0.547901
O O1 0.500000 0.841096 0.182760
O O2 0.750000 0.750000 0.193867
O O3 0.786206 0.847322 0.134541
O O4 0.783044 0.880183 0.224343
O O5 0.283357 0.620667 0.955564
O O6 0.274877 0.500000 0.000000
O O7 0.000000 0.582849 0.000000
O O8 0.250000 0.250000 0.650559
O O9 0.282863 0.376843 0.687139
O O10 0.285371 0.357183 0.596286
O O11 0.000000 0.341523 0.643917
O O12 0.250000 0.250000 0.075447
O O13 0.000000 0.341369 0.086344
O O14 0.724972 0.500000 0.270339
O O15 0.000000 0.582666 0.269180
O O16 0.714540 0.639164 0.500000
O O17 0.750000 0.750000 0.547766
O O18 0.000000 0.655351 0.547750
#
# Coordination Sequence:
#
# PCOD9494360 Si02
#       6
#    16   8  16  16  16  16
#     4   9  17  29  46  66  85 107 137 172 207 243
#     4   9  17  28  43  65  90 113 140 174 206 237
#     4   9  16  26  42  61  80 105 135 167 202 239
#     4   9  17  29  46  66  86 110 139 171 207 244
#     4   9  17  28  42  61  84 109 137 168 202 242
#     4   8  13  21  34  54  78 100 125 160 199 236
#
# _framework density 20.755534000000001
#
# number of rings (size 3 to 8) (size 9 to 14) (size 15 to 20)
#    0.000    3.182    0.000    0.818    0.000    0.727 
#    0.000    3.636    0.000    3.818    0.000    8.909 
#    0.000    0.000    0.000   29.455    0.000   13.818 
#
# Total GULP energy -245327.913214 kJ/mol
# GULP energy per Si atom -5575.634391 kJ/mol
# Density = 2.070829 g / cm^3
# Si number density = 20.755534 Si / 1000 Ang^3
#
#
#
# Elastic Constant Matrix: (Units=GPa)
#
#
# Indices 1 2 3 4 5 6 
#
# 1 73.4387 -0.6119 11.7922 0.0000 0.0000 0.0000
# 2 -0.6119 112.0541 144.4014 0.0000 0.0000 0.0000
# 3 11.7922 144.4014 265.0321 0.0000 0.0000 0.0000
# 4 0.0000 0.0000 0.0000 15.3452 0.0000 0.0000
# 5 0.0000 0.0000 0.0000 0.0000 -36.0169 0.0000
# 6 0.0000 0.0000 0.0000 0.0000 0.0000 13.5926
#
#
#
# Elastic Compliance Matrix: (Units=1/GPa)
#
#
# Indices 1 2 3 4 5 6 
#
# 1 0.014000 0.002951 -0.002231 0.000000 0.000000 0.000000
# 2 0.002951 0.030582 -0.016794 0.000000 0.000000 0.000000
# 3 -0.002231 -0.016794 0.013022 0.000000 0.000000 0.000000
# 4 0.000000 0.000000 0.000000 0.065167 0.000000 0.000000
# 5 0.000000 0.000000 0.000000 0.000000 -0.027765 0.000000
# 6 0.000000 0.000000 0.000000 0.000000 0.000000 0.073569
#
#
# Mechanical properties :
#
#
# Convention : Reuss Voigt Hill
#
# Bulk Modulus (GPa) = 39.28117 84.63203 61.95660
# Shear Modulus (GPa) = 23.89957 18.24706 21.07332
#
# Velocity S-wave (km/s) = 3.39703 2.96825 3.18985
# Velocity P-wave (km/s) = 5.86115 7.25338 6.59411
#
# Compressibility (1/GPa) = 0.02545749
#
# Stress axis : x y z
#
# Youngs Moduli (GPa) = 71.43050 32.69864 76.79032
#
# Poissons Ratio (x) = -0.09651 0.17132
# Poissons Ratio (y) = -0.21082 1.28961
# Poissons Ratio (z) = 0.15936 0.54914
#
# Static dielectric constant tensor:
#      x y z
#    x 1.781070 0.000000 0.000000 
#    y 0.000000 1.658520 0.000000 
#    z 0.000000 0.000000 1.785000 
# 
# From -- ./inp_files/76497.got.cif
#   From: 2010.05.17/outbox.cif.g08.bks.cpg/sg65_39_cif.got.tgz:76497.got - 2010.06.03 17:01:31.
