data_PCOD9494926
_publ_section_title
;
Structure prediction by ZEFSAII (Michael W. Deem and Ramdas Pophale) SiO2 
 PCOD9494926
Probable space group: C C C M
;
_chemical_formula_sum "Si O2"
_cell_formula_units_Z 48
_cell_length_a 14.758252
_cell_length_b 5.142225
_cell_length_c 28.398595
_cell_angle_alpha 90.000000
_cell_angle_beta 90.000000
_cell_angle_gamma 90.000000
_cell_volume 2155.176542
_symmetry_space_group_name_H-M "C C C M"
_symmetry_group_IT_number 66
_symmetry_cell_setting 'orthorhombic'
loop_
_space_group_symop_operation_xyz
x,y,z
-x,-y,z
x,-y,1/2-z
-x,y,1/2-z
-x,-y,-z
x,y,-z
-x,y,1/2+z
x,-y,1/2+z
1/2+x,1/2+y,z
1/2-x,1/2-y,z
1/2+x,1/2-y,1/2-z
1/2-x,1/2+y,1/2-z
1/2-x,1/2-y,-z
1/2+x,1/2+y,-z
1/2-x,1/2+y,1/2+z
1/2+x,1/2-y,1/2+z
loop_
_atom_site_type_symbol
_atom_site_label
_atom_site_fract_x
_atom_site_fract_y
_atom_site_fract_z
Si Si1 0.360426 0.744990 0.156558
Si Si2 0.813714 0.000000 0.750000
Si Si3 0.858516 0.248243 0.602759
Si Si4 0.563084 0.753707 0.000000
O O1 0.250000 0.750000 0.154680
O O2 0.373334 0.629624 0.208792
O O3 0.393175 0.528439 0.120432
O O4 0.391882 0.023495 0.137735
O O5 0.750000 0.250000 0.733804
O O6 0.750000 0.250000 0.607106
O O7 0.881010 0.274262 0.548147
O O8 0.500000 0.500000 0.000000
O O9 0.500000 0.000000 0.000000
#
# Coordination Sequence:
#
# PCOD9494926 Si02
#       4
#    16   8  16   8
#     4   9  17  29  50  80 113 143 174 217 271 323
#     4  10  16  26  46  80 119 146 169 216 276 328
#     4  10  20  36  56  80 110 145 183 224 271 327
#     4  12  25  40  57  80 108 146 190 236 285 332
#
# _framework density 22.271954000000001
#
# number of rings (size 3 to 8) (size 9 to 14) (size 15 to 20)
#    0.000    2.000    0.000    7.500    0.000    0.000 
#    0.000    6.667    0.000    0.000    0.000   17.500 
#    0.000    0.000    0.000    0.000    0.000    0.000 
#
# Total GULP energy -133934.191689 kJ/mol
# GULP energy per Si atom -5580.591320 kJ/mol
# Density = 2.222126 g / cm^3
# Si number density = 22.271954 Si / 1000 Ang^3
#
#
#
# Elastic Constant Matrix: (Units=GPa)
#
#
# Indices 1 2 3 4 5 6 
#
# 1 47.7195 7.6531 5.3768 0.0000 0.0000 0.0000
# 2 7.6531 152.2703 39.2409 0.0000 0.0000 0.0000
# 3 5.3768 39.2409 166.0852 0.0000 0.0000 0.0000
# 4 0.0000 0.0000 0.0000 34.9314 0.0000 0.0000
# 5 0.0000 0.0000 0.0000 0.0000 -28.4955 0.0000
# 6 0.0000 0.0000 0.0000 0.0000 0.0000 7.1430
#
#
#
# Elastic Compliance Matrix: (Units=1/GPa)
#
#
# Indices 1 2 3 4 5 6 
#
# 1 0.021159 -0.000944 -0.000462 0.000000 0.000000 0.000000
# 2 -0.000944 0.007035 -0.001632 0.000000 0.000000 0.000000
# 3 -0.000462 -0.001632 0.006421 0.000000 0.000000 0.000000
# 4 0.000000 0.000000 0.000000 0.028628 0.000000 0.000000
# 5 0.000000 0.000000 0.000000 0.000000 -0.035093 0.000000
# 6 0.000000 0.000000 0.000000 0.000000 0.000000 0.139996
#
#
# Mechanical properties :
#
#
# Convention : Reuss Voigt Hill
#
# Bulk Modulus (GPa) = 35.03839 52.29072 43.66456
# Shear Modulus (GPa) = 27.21296 23.63607 25.42452
#
# Velocity S-wave (km/s) = 3.49929 3.26121 3.38235
# Velocity P-wave (km/s) = 5.66506 6.14084 5.90774
#
# Compressibility (1/GPa) = 0.02854012
#
# Stress axis : x y z
#
# Youngs Moduli (GPa) = 47.26051 142.14203 155.72769
#
# Poissons Ratio (x) = 0.13425 0.07192
# Poissons Ratio (y) = 0.04463 0.25409
# Poissons Ratio (z) = 0.02183 0.23192
#
# Static dielectric constant tensor:
#      x y z
#    x 1.837280 0.000000 0.000000 
#    y 0.000000 1.819870 0.000000 
#    z 0.000000 0.000000 2.070990 
# 
# From -- ./inp_files/53781.got.cif
#   From: 2010.05.17/outbox.cif.g08.bks.cpg/sg66_27_cif.got.tgz:53781.got - 2010.06.03 17:51:23.
