data_PCOD9494860
_publ_section_title
;
Structure prediction by ZEFSAII (Michael W. Deem and Ramdas Pophale) SiO2 
 PCOD9494860
Probable space group: C M M M
;
_chemical_formula_sum "Si O2"
_cell_formula_units_Z 36
_cell_length_a 21.000000
_cell_length_b 9.000000
_cell_length_c 21.000000
_cell_angle_alpha 90.000000
_cell_angle_beta 90.000000
_cell_angle_gamma 90.000000
_cell_volume 3969.000000
_symmetry_space_group_name_H-M "C M M M"
_symmetry_group_IT_number 65
_symmetry_cell_setting 'orthorhombic'
loop_
_space_group_symop_operation_xyz
x,y,z
-x,-y,z
x,-y,-z
-x,y,-z
-x,-y,-z
x,y,-z
-x,y,z
x,-y,z
1/2+x,1/2+y,z
1/2-x,1/2-y,z
1/2+x,1/2-y,-z
1/2-x,1/2+y,-z
1/2-x,1/2-y,-z
1/2+x,1/2+y,-z
1/2-x,1/2+y,z
1/2+x,1/2-y,z
loop_
_atom_site_type_symbol
_atom_site_label
_atom_site_fract_x
_atom_site_fract_y
_atom_site_fract_z
Si Si1 0.321186 0.820595 0.826921
Si Si2 0.926912 0.175540 0.589097
Si Si3 0.072646 0.824696 0.741339
Si Si4 0.177697 0.679372 0.500000
Si Si5 0.428662 0.180197 0.926290
O O1 0.250000 0.750000 0.826194
O O2 0.368494 0.765407 0.770793
O O3 0.366197 0.774480 0.886980
O O4 0.314875 0.000000 0.825786
O O5 0.923676 0.186900 0.665175
O O6 0.868153 0.264000 0.557871
O O7 0.000000 0.221555 0.571246
O O8 0.920950 0.000000 0.573014
O O9 0.000000 0.775897 0.759177
O O10 0.078339 0.000000 0.758387
O O11 0.183398 0.500000 0.500000
O O12 0.250000 0.750000 0.500000
O O13 0.500000 0.230608 0.904941
O O14 0.430015 0.000000 0.922962
O O15 0.422291 0.222735 0.000000
#
# Coordination Sequence:
#
# PCOD9494860 Si02
#       5
#    16  16  16   8  16
#     4  11  22  34  51  77 109 145 181 219 266 317
#     4   9  19  38  62  84 108 140 176 216 266 321
#     4   9  19  37  60  83 107 138 176 219 267 318
#     4  12  25  38  55  81 113 147 181 220 265 312
#     4   8  15  30  52  76 101 132 174 222 269 318
#
# _framework density 9.0702949999999998
#
# number of rings (size 3 to 8) (size 9 to 14) (size 15 to 20)
#    0.000    2.444    0.000    4.667    0.000    5.333 
#    0.000    2.222    0.000    2.000    0.000    7.778 
#    0.000    0.000    0.000    0.000    0.000    0.000 
#
# Total GULP energy -200500.844646 kJ/mol
# GULP energy per Si atom -5569.467907 kJ/mol
# Density = 0.904965 g / cm^3
# Si number density = 9.070295 Si / 1000 Ang^3
#
#
#
# Elastic Constant Matrix: (Units=GPa)
#
#
# Indices 1 2 3 4 5 6 
#
# 1 228.2282 71.7753 67.4187 0.0000 0.0000 0.0000
# 2 71.7753 76.0717 28.0967 0.0000 0.0000 0.0000
# 3 67.4187 28.0967 110.0523 0.0000 0.0000 0.0000
# 4 0.0000 0.0000 0.0000 15.9087 0.0000 0.0000
# 5 0.0000 0.0000 0.0000 0.0000 13.7015 0.0000
# 6 0.0000 0.0000 0.0000 0.0000 0.0000 31.4024
#
#
#
# Elastic Compliance Matrix: (Units=1/GPa)
#
#
# Indices 1 2 3 4 5 6 
#
# 1 0.006958 -0.005510 -0.002856 0.000000 0.000000 0.000000
# 2 -0.005510 0.018878 -0.001444 0.000000 0.000000 0.000000
# 3 -0.002856 -0.001444 0.011205 0.000000 0.000000 0.000000
# 4 0.000000 0.000000 0.000000 0.062859 0.000000 0.000000
# 5 0.000000 0.000000 0.000000 0.000000 0.072984 0.000000
# 6 0.000000 0.000000 0.000000 0.000000 0.000000 0.031845
#
#
# Mechanical properties :
#
#
# Convention : Reuss Voigt Hill
#
# Bulk Modulus (GPa) = 57.40315 83.21486 70.30900
# Shear Modulus (GPa) = 21.72444 28.67330 25.19887
#
# Velocity S-wave (km/s) = 3.46433 3.98001 3.73109
# Velocity P-wave (km/s) = 6.90755 8.19100 7.57650
#
# Compressibility (1/GPa) = 0.01742065
#
# Stress axis : x y z
#
# Youngs Moduli (GPa) = 143.71667 52.97184 89.24831
#
# Poissons Ratio (x) = 0.29190 0.25487
# Poissons Ratio (y) = 0.79193 0.12887
# Poissons Ratio (z) = 0.41042 0.07649
#
# Static dielectric constant tensor:
#      x y z
#    x 1.597860 0.000000 0.000000 
#    y 0.000000 1.616750 0.000000 
#    z 0.000000 0.000000 1.686100 
# 
# From -- ./inp_files/64376.got.cif
#   From: 2010.05.17/outbox.ucp.g08.bks.cvg/sg65_33_cif.got.tgz:64376.got - 2010.06.11 16:39:57.
