data_PCOD9494643
_publ_section_title
;
Structure prediction by ZEFSAII (Michael W. Deem and Ramdas Pophale) SiO2 
 PCOD9494643
Probable space group: C M M M
;
_chemical_formula_sum "Si O2"
_cell_formula_units_Z 56
_cell_length_a 21.000000
_cell_length_b 18.000000
_cell_length_c 18.000000
_cell_angle_alpha 90.000000
_cell_angle_beta 90.000000
_cell_angle_gamma 90.000000
_cell_volume 6804.000000
_symmetry_space_group_name_H-M "C M M M"
_symmetry_group_IT_number 65
_symmetry_cell_setting 'orthorhombic'
loop_
_space_group_symop_operation_xyz
x,y,z
-x,-y,z
x,-y,-z
-x,y,-z
-x,-y,-z
x,y,-z
-x,y,z
x,-y,z
1/2+x,1/2+y,z
1/2-x,1/2-y,z
1/2+x,1/2-y,-z
1/2-x,1/2+y,-z
1/2-x,1/2-y,-z
1/2+x,1/2+y,-z
1/2-x,1/2+y,z
1/2+x,1/2-y,z
loop_
_atom_site_type_symbol
_atom_site_label
_atom_site_fract_x
_atom_site_fract_y
_atom_site_fract_z
Si Si1 0.824889 0.729247 0.588072
Si Si2 0.071926 0.734228 0.865019
Si Si3 0.576875 0.691684 0.296808
Si Si4 0.315372 0.086077 0.321388
Si Si5 0.184689 0.088390 0.231296
Si Si6 0.803435 0.186524 0.915475
Si Si7 0.573214 0.084348 0.800423
O O1 0.835881 0.740681 0.500000
O O2 0.750000 0.750000 0.603511
O O3 0.878888 0.771656 0.638062
O O4 0.828062 0.643420 0.612820
O O5 0.076763 0.757250 0.777537
O O6 0.127279 0.775238 0.908543
O O7 0.081898 0.645917 0.863465
O O8 0.000000 0.752153 0.889626
O O9 0.500000 0.679472 0.314278
O O10 0.620424 0.621770 0.269179
O O11 0.247566 0.103352 0.281654
O O12 0.372727 0.094189 0.261907
O O13 0.313582 0.000000 0.344898
O O14 0.197194 0.127277 0.151547
O O15 0.178836 0.000000 0.222938
O O16 0.750000 0.250000 0.902012
O O17 0.794476 0.158131 0.000000
O O18 0.500000 0.093997 0.771804
O O19 0.578624 0.000000 0.827744
#
# Coordination Sequence:
#
# PCOD9494643 Si02
#       7
#    16  16  16  16  16  16  16
#     4  11  22  35  54  80 110 147 183 222 275 329
#     4   9  17  30  51  74  98 135 181 223 263 314
#     4  10  20  35  57  81 106 140 184 233 275 319
#     4  10  19  32  53  80 109 145 183 221 269 324
#     4  10  21  36  58  82 106 143 186 229 275 328
#     4  10  21  34  52  79 111 143 175 220 278 333
#     4   9  16  26  45  75 106 135 174 221 262 305
#
# _framework density 8.2304530000000007
#
# number of rings (size 3 to 8) (size 9 to 14) (size 15 to 20)
#    0.000    2.143    2.857    0.857    2.000    1.429 
#    0.000    0.000    0.000    1.714    0.000   10.000 
#    0.000    0.000    0.000    0.000    0.000    0.000 
#
# Total GULP energy -311852.596493 kJ/mol
# GULP energy per Si atom -5568.796366 kJ/mol
# Density = 0.821172 g / cm^3
# Si number density = 8.230453 Si / 1000 Ang^3
#
#
#
# Elastic Constant Matrix: (Units=GPa)
#
#
# Indices 1 2 3 4 5 6 
#
# 1 109.8047 32.6854 31.6203 0.0000 0.0000 0.0000
# 2 32.6854 83.3684 36.5811 0.0000 0.0000 0.0000
# 3 31.6203 36.5811 76.4169 0.0000 0.0000 0.0000
# 4 0.0000 0.0000 0.0000 18.6655 0.0000 0.0000
# 5 0.0000 0.0000 0.0000 0.0000 20.5437 0.0000
# 6 0.0000 0.0000 0.0000 0.0000 0.0000 27.7845
#
#
#
# Elastic Compliance Matrix: (Units=1/GPa)
#
#
# Indices 1 2 3 4 5 6 
#
# 1 0.010864 -0.002895 -0.003110 0.000000 0.000000 0.000000
# 2 -0.002895 0.015956 -0.006440 0.000000 0.000000 0.000000
# 3 -0.003110 -0.006440 0.017456 0.000000 0.000000 0.000000
# 4 0.000000 0.000000 0.000000 0.053575 0.000000 0.000000
# 5 0.000000 0.000000 0.000000 0.000000 0.048677 0.000000
# 6 0.000000 0.000000 0.000000 0.000000 0.000000 0.035991
#
#
# Mechanical properties :
#
#
# Convention : Reuss Voigt Hill
#
# Bulk Modulus (GPa) = 51.58299 52.37371 51.97835
# Shear Modulus (GPa) = 23.37863 24.64563 24.01213
#
# Velocity S-wave (km/s) = 3.77271 3.87359 3.82348
# Velocity P-wave (km/s) = 7.09806 7.20364 7.15105
#
# Compressibility (1/GPa) = 0.01938623
#
# Stress axis : x y z
#
# Youngs Moduli (GPa) = 92.04456 62.67291 57.28751
#
# Poissons Ratio (x) = 0.18144 0.17815
# Poissons Ratio (y) = 0.26647 0.36894
# Poissons Ratio (z) = 0.28623 0.40363
#
# Static dielectric constant tensor:
#      x y z
#    x 1.563030 0.000000 0.000000 
#    y 0.000000 1.576090 0.000000 
#    z 0.000000 0.000000 1.531940 
# 
# From -- ./inp_files/54814.got.cif
#   From: 2010.05.17/outbox.ucp.g08.bks.cvg/sg65_28_cif.got.tgz:54814.got - 2010.06.11 16:39:57.
