data_PCOD9494278
_publ_section_title
;
Structure prediction by ZEFSAII (Michael W. Deem and Ramdas Pophale) SiO2 
 PCOD9494278
Probable space group: C M M M
;
_chemical_formula_sum "Si O2"
_cell_formula_units_Z 96
_cell_length_a 31.180173
_cell_length_b 20.651068
_cell_length_c 7.335905
_cell_angle_alpha 90.000000
_cell_angle_beta 90.000000
_cell_angle_gamma 90.000000
_cell_volume 4723.617641
_symmetry_space_group_name_H-M "C M M M"
_symmetry_group_IT_number 65
_symmetry_cell_setting 'orthorhombic'
loop_
_space_group_symop_operation_xyz
x,y,z
-x,-y,z
x,-y,-z
-x,y,-z
-x,-y,-z
x,y,-z
-x,y,z
x,-y,z
1/2+x,1/2+y,z
1/2-x,1/2-y,z
1/2+x,1/2-y,-z
1/2-x,1/2+y,-z
1/2-x,1/2-y,-z
1/2+x,1/2+y,-z
1/2-x,1/2+y,z
1/2+x,1/2-y,z
loop_
_atom_site_type_symbol
_atom_site_label
_atom_site_fract_x
_atom_site_fract_y
_atom_site_fract_z
Si Si1 0.873934 0.794892 0.776806
Si Si2 0.764872 0.571786 0.221614
Si Si3 0.292494 0.210430 0.222104
Si Si4 0.835220 0.071629 0.221588
Si Si5 0.949886 0.430632 0.281153
Si Si6 0.048445 0.711955 0.213886
O O1 0.834727 0.748631 0.721134
O O2 0.863180 0.867685 0.718002
O O3 0.918345 0.764069 0.712146
O O4 0.874359 0.794909 0.000000
O O5 0.779152 0.500000 0.281568
O O6 0.789781 0.635767 0.281966
O O7 0.714765 0.580008 0.272889
O O8 0.766039 0.571330 0.000000
O O9 0.250000 0.250000 0.277647
O O10 0.292203 0.210169 0.000000
O O11 0.849189 0.000000 0.280337
O O12 0.835586 0.072043 0.000000
O O13 0.949541 0.431501 0.500000
O O14 0.931301 0.500000 0.218763
O O15 0.932346 0.360840 0.227089
O O16 0.000000 0.429952 0.222419
O O17 0.000000 0.712165 0.291180
O O18 0.044402 0.725246 0.000000
#
# Coordination Sequence:
#
# PCOD9494278 Si02
#       6
#    16  16  16  16  16  16
#     4   9  15  22  32  47  69  99 131 158 191 236
#     4   8  12  17  25  38  57  82 113 150 190 228
#     4   9  13  18  28  42  61  88 122 158 192 229
#     4   8  12  18  29  44  61  86 123 160 190 226
#     4   8  14  26  44  62  77  97 131 172 204 229
#     4   9  17  27  38  55  81 110 135 160 193 234
#
# _framework density 20.323405000000001
#
# number of rings (size 3 to 8) (size 9 to 14) (size 15 to 20)
#    0.000    3.500    1.667    1.500    0.000    0.333 
#    0.000    2.500    0.000    3.500    0.000    3.500 
#    0.000    1.333    0.000    4.167    0.333    4.333 
#
# Total GULP energy -267528.404138 kJ/mol
# GULP energy per Si atom -5573.508420 kJ/mol
# Density = 2.027715 g / cm^3
# Si number density = 20.323405 Si / 1000 Ang^3
#
#
#
# Elastic Constant Matrix: (Units=GPa)
#
#
# Indices 1 2 3 4 5 6 
#
# 1 72.7167 77.9679 5.3376 0.0000 0.0000 0.0000
# 2 77.9679 221.4980 3.9005 0.0000 0.0000 0.0000
# 3 5.3376 3.9005 76.7825 0.0000 0.0000 0.0000
# 4 0.0000 0.0000 0.0000 23.2937 0.0000 0.0000
# 5 0.0000 0.0000 0.0000 0.0000 -21.3031 0.0000
# 6 0.0000 0.0000 0.0000 0.0000 0.0000 30.4454
#
#
#
# Elastic Compliance Matrix: (Units=1/GPa)
#
#
# Indices 1 2 3 4 5 6 
#
# 1 0.022189 -0.007790 -0.001147 0.000000 0.000000 0.000000
# 2 -0.007790 0.007254 0.000173 0.000000 0.000000 0.000000
# 3 -0.001147 0.000173 0.013095 0.000000 0.000000 0.000000
# 4 0.000000 0.000000 0.000000 0.042930 0.000000 0.000000
# 5 0.000000 0.000000 0.000000 0.000000 -0.046941 0.000000
# 6 0.000000 0.000000 0.000000 0.000000 0.000000 0.032846
#
#
# Mechanical properties :
#
#
# Convention : Reuss Voigt Hill
#
# Bulk Modulus (GPa) = 39.98467 60.60100 50.29283
# Shear Modulus (GPa) = 51.42079 25.40662 38.41371
#
# Velocity S-wave (km/s) = 5.03549 3.53953 4.35227
# Velocity P-wave (km/s) = 7.31609 6.82550 7.07505
#
# Compressibility (1/GPa) = 0.02500959
#
# Stress axis : x y z
#
# Youngs Moduli (GPa) = 45.06687 137.85618 76.36662
#
# Poissons Ratio (x) = 1.07397 0.08757
# Poissons Ratio (y) = 0.35109 -0.01322
# Poissons Ratio (z) = 0.05168 -0.02386
#
# Static dielectric constant tensor:
#      x y z
#    x 1.694870 0.000000 0.000000 
#    y 0.000000 1.743290 0.000000 
#    z 0.000000 0.000000 1.780390 
# 
# From -- ./inp_files/32675.got.cif
#   From: 2010.05.17/outbox.cif.g08.bks.cpg/sg65_17_cif.got.tgz:32675.got - 2010.06.03 17:01:31.
