data_PCOD9494885
_publ_section_title
;
Structure prediction by ZEFSAII (Michael W. Deem and Ramdas Pophale) SiO2 
 PCOD9494885
Probable space group: C C C M
;
_chemical_formula_sum "Si O2"
_cell_formula_units_Z 96
_cell_length_a 27.758653
_cell_length_b 6.809021
_cell_length_c 20.887845
_cell_angle_alpha 90.000000
_cell_angle_beta 90.000000
_cell_angle_gamma 90.000000
_cell_volume 3947.995943
_symmetry_space_group_name_H-M "C C C M"
_symmetry_group_IT_number 66
_symmetry_cell_setting 'orthorhombic'
loop_
_space_group_symop_operation_xyz
x,y,z
-x,-y,z
x,-y,1/2-z
-x,y,1/2-z
-x,-y,-z
x,y,-z
-x,y,1/2+z
x,-y,1/2+z
1/2+x,1/2+y,z
1/2-x,1/2-y,z
1/2+x,1/2-y,1/2-z
1/2-x,1/2+y,1/2-z
1/2-x,1/2-y,-z
1/2+x,1/2+y,-z
1/2-x,1/2+y,1/2+z
1/2+x,1/2-y,1/2+z
loop_
_atom_site_type_symbol
_atom_site_label
_atom_site_fract_x
_atom_site_fract_y
_atom_site_fract_z
Si Si1 0.112600 0.267718 0.199742
Si Si2 0.781171 0.573329 0.816254
Si Si3 0.501518 0.234528 0.931573
Si Si4 0.081906 0.299029 0.338737
Si Si5 0.110273 0.158363 0.931367
Si Si6 0.664158 0.915669 0.572222
O O1 0.167309 0.342536 0.206619
O O2 0.093604 0.215014 0.269263
O O3 0.082245 0.461737 0.176234
O O4 0.115935 0.106947 0.143587
O O5 0.757364 0.500000 0.750000
O O6 0.750000 0.750000 0.843687
O O7 0.794025 0.426963 0.874151
O O8 0.533327 0.281932 0.870152
O O9 0.447056 0.305725 0.932821
O O10 0.500000 0.000000 0.932083
O O11 0.524513 0.293511 0.000000
O O12 0.122023 0.288762 0.394947
O O13 0.140674 0.364506 0.932307
O O14 0.123305 0.062329 0.000000
O O15 0.677673 0.859312 0.500000
#
# Coordination Sequence:
#
# PCOD9494885 Si02
#       6
#    16  16  16  16  16  16
#     4   9  15  25  34  50  72 103 139 164 208 251
#     4  10  18  31  47  64  83 108 142 179 218 264
#     4  10  14  17  26  44  69 105 143 164 187 235
#     4   9  14  21  31  47  76 103 140 162 197 245
#     4   8  14  21  29  45  74 107 141 169 196 240
#     4   9  15  25  40  57  80 110 140 173 213 253
#
# _framework density 24.316133000000001
#
# number of rings (size 3 to 8) (size 9 to 14) (size 15 to 20)
#    0.000    3.167    6.667    0.500    0.000    1.000 
#    0.000    0.000    0.000    0.500    0.000    0.000 
#    0.000    0.000    0.000   12.000   10.667   27.000 
#
# Total GULP energy -267485.116016 kJ/mol
# GULP energy per Si atom -5572.606584 kJ/mol
# Density = 2.426079 g / cm^3
# Si number density = 24.316133 Si / 1000 Ang^3
#
#
#
# Elastic Constant Matrix: (Units=GPa)
#
#
# Indices 1 2 3 4 5 6 
#
# 1 39.6764 3.3095 3.8666 0.0000 0.0000 0.0000
# 2 3.3095 68.8130 18.9552 0.0000 0.0000 0.0000
# 3 3.8666 18.9552 240.9965 0.0000 0.0000 0.0000
# 4 0.0000 0.0000 0.0000 27.4726 0.0000 0.0000
# 5 0.0000 0.0000 0.0000 0.0000 6.3822 0.0000
# 6 0.0000 0.0000 0.0000 0.0000 0.0000 1.4997
#
#
#
# Elastic Compliance Matrix: (Units=1/GPa)
#
#
# Indices 1 2 3 4 5 6 
#
# 1 0.025329 -0.001131 -0.000317 0.000000 0.000000 0.000000
# 2 -0.001131 0.014904 -0.001154 0.000000 0.000000 0.000000
# 3 -0.000317 -0.001154 0.004245 0.000000 0.000000 0.000000
# 4 0.000000 0.000000 0.000000 0.036400 0.000000 0.000000
# 5 0.000000 0.000000 0.000000 0.000000 0.156686 0.000000
# 6 0.000000 0.000000 0.000000 0.000000 0.000000 0.666801
#
#
# Mechanical properties :
#
#
# Convention : Reuss Voigt Hill
#
# Bulk Modulus (GPa) = 25.46197 44.63872 35.05035
# Shear Modulus (GPa) = 5.41910 28.62788 17.02349
#
# Velocity S-wave (km/s) = 1.49447 3.43493 2.64879
# Velocity P-wave (km/s) = 3.67041 5.84202 4.87858
#
# Compressibility (1/GPa) = 0.03927426
#
# Stress axis : x y z
#
# Youngs Moduli (GPa) = 39.48019 67.09413 235.55418
#
# Poissons Ratio (x) = 0.07587 0.07478
# Poissons Ratio (y) = 0.04464 0.27186
# Poissons Ratio (z) = 0.01253 0.07744
#
# Static dielectric constant tensor:
#      x y z
#    x 1.879830 0.000000 0.000000 
#    y 0.000000 2.139970 0.000000 
#    z 0.000000 0.000000 2.013340 
# 
# From -- ./inp_files/53120.got.cif
#   From: 2010.05.17/outbox.cif.g08.bks.cpg/sg66_27_cif.got.tgz:53120.got - 2010.06.03 17:51:23.
