data_PCOD9494010
_publ_section_title
;
Structure prediction by ZEFSAII (Michael W. Deem and Ramdas Pophale) SiO2 
 PCOD9494010
Probable space group: C M M M
;
_chemical_formula_sum "Si O2"
_cell_formula_units_Z 72
_cell_length_a 27.745148
_cell_length_b 10.346593
_cell_length_c 13.976786
_cell_angle_alpha 90.000000
_cell_angle_beta 90.000000
_cell_angle_gamma 90.000000
_cell_volume 4012.284566
_symmetry_space_group_name_H-M "C M M M"
_symmetry_group_IT_number 65
_symmetry_cell_setting 'orthorhombic'
loop_
_space_group_symop_operation_xyz
x,y,z
-x,-y,z
x,-y,-z
-x,y,-z
-x,-y,-z
x,y,-z
-x,y,z
x,-y,z
1/2+x,1/2+y,z
1/2-x,1/2-y,z
1/2+x,1/2-y,-z
1/2-x,1/2+y,-z
1/2-x,1/2-y,-z
1/2+x,1/2+y,-z
1/2-x,1/2+y,z
1/2+x,1/2-y,z
loop_
_atom_site_type_symbol
_atom_site_label
_atom_site_fract_x
_atom_site_fract_y
_atom_site_fract_z
Si Si1 0.399259 0.253360 0.299920
Si Si2 0.753040 0.000000 0.301592
Si Si3 0.250000 0.250000 0.172509
Si Si4 0.353288 0.000000 0.612368
Si Si5 0.650715 0.500000 0.608993
Si Si6 0.146592 0.655571 0.108612
Si Si7 0.500000 0.656473 0.385347
O O1 0.368280 0.374447 0.336572
O O2 0.386536 0.222348 0.189311
O O3 0.453339 0.287498 0.331273
O O4 0.381810 0.126596 0.355692
O O5 0.761348 0.126779 0.238237
O O6 0.698570 0.000000 0.337316
O O7 0.791676 0.000000 0.386003
O O8 0.201200 0.289513 0.117502
O O9 0.346093 0.000000 0.500000
O O10 0.632786 0.500000 0.500000
O O11 0.148085 0.500000 0.125781
O O12 0.129600 0.676733 0.000000
O O13 0.500000 0.500000 0.378567
O O14 0.500000 0.687683 0.500000
#
# Coordination Sequence:
#
# PCOD9494010 Si02
#       7
#    16   8   8   8   8  16   8
#     4  12  23  43  64  94 128 163 218 269 310 380
#     4  12  21  36  59  88 136 168 213 254 315 378
#     4  12  19  38  59  90 124 172 213 268 311 368
#     4  12  23  39  60  89 133 175 210 261 318 381
#     4  12  23  37  62  91 131 181 210 247 318 389
#     4  11  23  42  66  92 128 172 213 267 330 374
#     4  11  24  43  70  97 126 168 209 259 324 377
#
# _framework density 17.944889
#
# number of rings (size 3 to 8) (size 9 to 14) (size 15 to 20)
#    0.000    0.333    7.778    2.667    0.000    0.444 
#    0.000    6.667    0.000    2.000    0.000    0.000 
#    0.000    0.000    0.000    0.000    0.000    0.000 
#
# Total GULP energy -201129.590646 kJ/mol
# GULP energy per Si atom -5586.933073 kJ/mol
# Density = 1.790405 g / cm^3
# Si number density = 17.944889 Si / 1000 Ang^3
#
#
#
# Elastic Constant Matrix: (Units=GPa)
#
#
# Indices 1 2 3 4 5 6 
#
# 1 137.1775 44.0492 51.5925 0.0000 0.0000 0.0000
# 2 44.0492 149.4703 61.9105 0.0000 0.0000 0.0000
# 3 51.5925 61.9105 165.3797 0.0000 0.0000 0.0000
# 4 0.0000 0.0000 0.0000 27.9437 0.0000 0.0000
# 5 0.0000 0.0000 0.0000 0.0000 11.2410 0.0000
# 6 0.0000 0.0000 0.0000 0.0000 0.0000 23.2531
#
#
#
# Elastic Compliance Matrix: (Units=1/GPa)
#
#
# Indices 1 2 3 4 5 6 
#
# 1 0.008603 -0.001685 -0.002053 0.000000 0.000000 0.000000
# 2 -0.001685 0.008248 -0.002562 0.000000 0.000000 0.000000
# 3 -0.002053 -0.002562 0.007646 0.000000 0.000000 0.000000
# 4 0.000000 0.000000 0.000000 0.035786 0.000000 0.000000
# 5 0.000000 0.000000 0.000000 0.000000 0.088960 0.000000
# 6 0.000000 0.000000 0.000000 0.000000 0.000000 0.043005
#
#
# Mechanical properties :
#
#
# Convention : Reuss Voigt Hill
#
# Bulk Modulus (GPa) = 84.05309 85.23688 84.64499
# Shear Modulus (GPa) = 23.94474 32.11927 28.03200
#
# Velocity S-wave (km/s) = 3.65684 4.23529 3.95665
# Velocity P-wave (km/s) = 8.04806 8.45691 8.25501
#
# Compressibility (1/GPa) = 0.01189724
#
# Stress axis : x y z
#
# Youngs Moduli (GPa) = 116.23800 121.24087 130.78250
#
# Poissons Ratio (x) = 0.20429 0.26851
# Poissons Ratio (y) = 0.19586 0.33507
# Poissons Ratio (z) = 0.23864 0.31062
#
# Static dielectric constant tensor:
#      x y z
#    x 1.618290 0.000000 0.000000 
#    y 0.000000 1.589130 0.000000 
#    z 0.000000 0.000000 1.615560 
# 
# From -- ./inp_files/46609.got.cif
#   From: 2010.05.17/outbox.cif.g08.bks.cpg/sg65_24_cif.got.tgz:46609.got - 2010.06.03 17:01:31.
