data_PCOD9494631
_publ_section_title
;
Structure prediction by ZEFSAII (Michael W. Deem and Ramdas Pophale) SiO2 
 PCOD9494631
Probable space group: C M M M
;
_chemical_formula_sum "Si O2"
_cell_formula_units_Z 52
_cell_length_a 9.000000
_cell_length_b 27.000000
_cell_length_c 24.000000
_cell_angle_alpha 90.000000
_cell_angle_beta 90.000000
_cell_angle_gamma 90.000000
_cell_volume 5832.000000
_symmetry_space_group_name_H-M "C M M M"
_symmetry_group_IT_number 65
_symmetry_cell_setting 'orthorhombic'
loop_
_space_group_symop_operation_xyz
x,y,z
-x,-y,z
x,-y,-z
-x,y,-z
-x,-y,-z
x,y,-z
-x,y,z
x,-y,z
1/2+x,1/2+y,z
1/2-x,1/2-y,z
1/2+x,1/2-y,-z
1/2-x,1/2+y,-z
1/2-x,1/2-y,-z
1/2+x,1/2+y,-z
1/2-x,1/2+y,z
1/2+x,1/2-y,z
loop_
_atom_site_type_symbol
_atom_site_label
_atom_site_fract_x
_atom_site_fract_y
_atom_site_fract_z
Si Si1 0.321573 0.103417 0.063936
Si Si2 0.823453 0.058059 0.564775
Si Si3 0.175758 0.392095 0.666267
Si Si4 0.821926 0.447390 0.225070
Si Si5 0.830126 0.000000 0.067819
Si Si6 0.821108 0.344333 0.169524
Si Si7 0.823538 0.200175 0.272783
O O1 0.500000 0.097223 0.066520
O O2 0.284765 0.149010 0.104642
O O3 0.252023 0.051031 0.082762
O O4 0.278105 0.112310 0.000000
O O5 0.794677 0.069078 0.500000
O O6 0.731446 0.091741 0.606325
O O7 0.000000 0.064298 0.574694
O O8 0.788481 0.000000 0.573846
O O9 0.204090 0.436848 0.709818
O O10 0.263030 0.345546 0.691160
O O11 0.000000 0.381745 0.667718
O O12 0.756808 0.500000 0.207740
O O13 0.775661 0.398280 0.193472
O O14 0.000000 0.449394 0.216884
O O15 0.000000 0.000000 0.087140
O O16 0.830586 0.000000 0.000000
O O17 0.735605 0.307327 0.209511
O O18 0.000000 0.337701 0.176436
O O19 0.750000 0.250000 0.294993
O O20 0.000000 0.202333 0.273557
#
# Coordination Sequence:
#
# PCOD9494631 Si02
#       7
#    16  16  16  16   8  16  16
#     4   9  17  29  46  68  96 132 171 208 248 299
#     4   9  18  32  50  76 114 157 193 222 253 290
#     4  10  19  32  51  77 106 137 176 217 259 308
#     4   8  14  24  40  64  95 130 164 200 244 290
#     4   9  17  27  39  59  91 131 171 207 240 281
#     4   9  18  31  49  73 100 129 166 208 253 306
#     4  11  22  38  59  79 101 127 162 210 265 321
#
# _framework density 8.9163239999999995
#
# number of rings (size 3 to 8) (size 9 to 14) (size 15 to 20)
#    0.000    2.692    0.000    3.923    1.077    2.769 
#    0.000    0.769    0.000    2.769    0.000    0.000 
#    0.000    0.000    0.000    0.000    0.000    0.000 
#
# Total GULP energy -289720.485164 kJ/mol
# GULP energy per Si atom -5571.547792 kJ/mol
# Density = 0.889603 g / cm^3
# Si number density = 8.916324 Si / 1000 Ang^3
#
#
#
# Elastic Constant Matrix: (Units=GPa)
#
#
# Indices 1 2 3 4 5 6 
#
# 1 66.7181 31.7661 42.4951 0.0000 0.0000 0.0000
# 2 31.7661 64.4338 24.5422 0.0000 0.0000 0.0000
# 3 42.4951 24.5422 72.0716 0.0000 0.0000 0.0000
# 4 0.0000 0.0000 0.0000 19.7157 0.0000 0.0000
# 5 0.0000 0.0000 0.0000 0.0000 19.8146 0.0000
# 6 0.0000 0.0000 0.0000 0.0000 0.0000 3.3001
#
#
#
# Elastic Compliance Matrix: (Units=1/GPa)
#
#
# Indices 1 2 3 4 5 6 
#
# 1 0.027527 -0.008490 -0.013340 0.000000 0.000000 0.000000
# 2 -0.008490 0.020451 -0.001958 0.000000 0.000000 0.000000
# 3 -0.013340 -0.001958 0.022407 0.000000 0.000000 0.000000
# 4 0.000000 0.000000 0.000000 0.050721 0.000000 0.000000
# 5 0.000000 0.000000 0.000000 0.000000 0.050468 0.000000
# 6 0.000000 0.000000 0.000000 0.000000 0.000000 0.303019
#
#
# Mechanical properties :
#
#
# Convention : Reuss Voigt Hill
#
# Bulk Modulus (GPa) = 43.84053 44.53671 44.18862
# Shear Modulus (GPa) = 9.43800 15.52741 12.48270
#
# Velocity S-wave (km/s) = 2.30305 2.95401 2.64861
# Velocity P-wave (km/s) = 5.63115 6.05508 5.84696
#
# Compressibility (1/GPa) = 0.02280994
#
# Stress axis : x y z
#
# Youngs Moduli (GPa) = 36.32763 48.89655 44.62834
#
# Poissons Ratio (x) = 0.41514 0.59533
# Poissons Ratio (y) = 0.30843 0.08739
# Poissons Ratio (z) = 0.48460 0.09575
#
# Static dielectric constant tensor:
#      x y z
#    x 1.596910 0.000000 0.000000 
#    y 0.000000 1.893320 0.000000 
#    z 0.000000 0.000000 1.652490 
# 
# From -- ./inp_files/68283.got.cif
#   From: 2010.05.17/outbox.ucp.g08.bks.cvg/sg65_35_cif.got.tgz:68283.got - 2010.06.11 16:39:57.
