data_PCOD9494063
_publ_section_title
;
Structure prediction by ZEFSAII (Michael W. Deem and Ramdas Pophale) SiO2 
 PCOD9494063
Probable space group: C M M M
;
_chemical_formula_sum "Si O2"
_cell_formula_units_Z 66
_cell_length_a 15.188333
_cell_length_b 23.755914
_cell_length_c 9.351607
_cell_angle_alpha 90.000000
_cell_angle_beta 90.000000
_cell_angle_gamma 90.000000
_cell_volume 3374.178875
_symmetry_space_group_name_H-M "C M M M"
_symmetry_group_IT_number 65
_symmetry_cell_setting 'orthorhombic'
loop_
_space_group_symop_operation_xyz
x,y,z
-x,-y,z
x,-y,-z
-x,y,-z
-x,-y,-z
x,y,-z
-x,y,z
x,-y,z
1/2+x,1/2+y,z
1/2-x,1/2-y,z
1/2+x,1/2-y,-z
1/2-x,1/2+y,-z
1/2-x,1/2-y,-z
1/2+x,1/2+y,-z
1/2-x,1/2+y,z
1/2+x,1/2-y,z
loop_
_atom_site_type_symbol
_atom_site_label
_atom_site_fract_x
_atom_site_fract_y
_atom_site_fract_z
Si Si1 0.898814 0.885925 0.331645
Si Si2 0.150299 0.500000 0.244906
Si Si3 0.354404 0.500000 0.832695
Si Si4 0.000000 0.500000 0.000000
Si Si5 0.247750 0.817254 0.166339
Si Si6 0.603722 0.877968 0.338280
O O1 0.878508 0.893513 0.500000
O O2 0.888660 0.944813 0.248597
O O3 0.831133 0.843006 0.259395
O O4 0.000000 0.866710 0.319460
O O5 0.248509 0.500000 0.182366
O O6 0.135336 0.442586 0.331296
O O7 0.076943 0.500000 0.123040
O O8 0.378533 0.500000 0.000000
O O9 0.250000 0.750000 0.176436
O O10 0.337608 0.843375 0.227785
O O11 0.236708 0.833410 0.000000
O O12 0.616534 0.856630 0.500000
O O13 0.500000 0.875861 0.304155
#
# Coordination Sequence:
#
# PCOD9494063 Si02
#       6
#    16   8   8   2  16  16
#     4  11  25  44  68  96 130 170 214 267 326 386
#     4  12  23  36  62  97 135 170 206 252 316 380
#     4  12  24  38  64 101 133 170 211 258 321 386
#     4  12  24  36  58 104 142 180 206 260 308 394
#     4  11  26  45  66  93 126 168 219 270 322 380
#     4  11  24  41  65  96 131 168 208 259 319 386
#
# _framework density 19.560316
#
# number of rings (size 3 to 8) (size 9 to 14) (size 15 to 20)
#    0.000    0.727    4.242    2.545    1.697    8.727 
#    0.000    4.848    0.000    0.000    0.000    0.000 
#    0.000    0.000    0.000    0.000    0.000    0.000 
#
# Total GULP energy -184335.405008 kJ/mol
# GULP energy per Si atom -5585.921364 kJ/mol
# Density = 1.951580 g / cm^3
# Si number density = 19.560316 Si / 1000 Ang^3
#
#
#
# Elastic Constant Matrix: (Units=GPa)
#
#
# Indices 1 2 3 4 5 6 
#
# 1 107.0844 34.5812 66.8018 0.0000 0.0000 0.0000
# 2 34.5812 77.0606 56.2718 0.0000 0.0000 0.0000
# 3 66.8018 56.2718 170.0428 0.0000 0.0000 0.0000
# 4 0.0000 0.0000 0.0000 32.6386 0.0000 0.0000
# 5 0.0000 0.0000 0.0000 0.0000 19.6990 0.0000
# 6 0.0000 0.0000 0.0000 0.0000 0.0000 -6.9305
#
#
#
# Elastic Compliance Matrix: (Units=1/GPa)
#
#
# Indices 1 2 3 4 5 6 
#
# 1 0.012791 -0.002730 -0.004121 0.000000 0.000000 0.000000
# 2 -0.002730 0.017695 -0.004783 0.000000 0.000000 0.000000
# 3 -0.004121 -0.004783 0.009083 0.000000 0.000000 0.000000
# 4 0.000000 0.000000 0.000000 0.030639 0.000000 0.000000
# 5 0.000000 0.000000 0.000000 0.000000 0.050764 0.000000
# 6 0.000000 0.000000 0.000000 0.000000 0.000000 -0.144290
#
#
# Mechanical properties :
#
#
# Convention : Reuss Voigt Hill
#
# Bulk Modulus (GPa) = 61.35372 74.38858 67.87115
# Shear Modulus (GPa) = 928.51219 22.18360 475.34790
#
# Velocity S-wave (km/s) = 21.81106 3.37131 15.60590
# Velocity P-wave (km/s) = 25.80176 7.29844 18.96046
#
# Compressibility (1/GPa) = 0.01629893
#
# Stress axis : x y z
#
# Youngs Moduli (GPa) = 78.17827 56.51374 110.09765
#
# Poissons Ratio (x) = 0.15431 0.45377
# Poissons Ratio (y) = 0.21346 0.52660
# Poissons Ratio (z) = 0.32221 0.27031
#
# Static dielectric constant tensor:
#      x y z
#    x 1.668140 0.000000 0.000000 
#    y 0.000000 1.661860 0.000000 
#    z 0.000000 0.000000 1.669390 
# 
# From -- ./inp_files/7138.got.cif
#   From: 2010.05.17/outbox.cif.g08.bks.cpg/sg65_4_cif.got.tgz:7138.got - 2010.06.03 17:01:31.
