data_PCOD9494179
_publ_section_title
;
Structure prediction by ZEFSAII (Michael W. Deem and Ramdas Pophale) SiO2 
 PCOD9494179
Probable space group: C M M M
;
_chemical_formula_sum "Si O2"
_cell_formula_units_Z 72
_cell_length_a 15.131096
_cell_length_b 8.735224
_cell_length_c 27.907009
_cell_angle_alpha 90.000000
_cell_angle_beta 90.000000
_cell_angle_gamma 90.000000
_cell_volume 3688.567415
_symmetry_space_group_name_H-M "C M M M"
_symmetry_group_IT_number 65
_symmetry_cell_setting 'orthorhombic'
loop_
_space_group_symop_operation_xyz
x,y,z
-x,-y,z
x,-y,-z
-x,y,-z
-x,-y,-z
x,y,-z
-x,y,z
x,-y,z
1/2+x,1/2+y,z
1/2-x,1/2-y,z
1/2+x,1/2-y,-z
1/2-x,1/2+y,-z
1/2-x,1/2-y,-z
1/2+x,1/2+y,-z
1/2-x,1/2+y,z
1/2+x,1/2-y,z
loop_
_atom_site_type_symbol
_atom_site_label
_atom_site_fract_x
_atom_site_fract_y
_atom_site_fract_z
Si Si1 0.107286 0.179547 0.344462
Si Si2 0.343163 0.818824 0.755976
Si Si3 0.500000 0.317943 0.181492
Si Si4 0.000000 0.315046 0.075279
Si Si5 0.105771 0.184960 0.448670
Si Si6 0.150539 0.315347 0.000000
O O1 0.140590 0.273278 0.299366
O O2 0.138299 0.238783 0.396738
O O3 0.000000 0.184213 0.344307
O O4 0.132159 0.000000 0.339004
O O5 0.250000 0.750000 0.770622
O O6 0.416896 0.743560 0.788942
O O7 0.345432 0.000000 0.760934
O O8 0.500000 0.500000 0.181355
O O9 0.500000 0.255368 0.127683
O O10 0.000000 0.500000 0.078267
O O11 0.088282 0.271309 0.045319
O O12 0.141067 0.243094 0.500000
O O13 0.000000 0.213421 0.449165
O O14 0.115821 0.000000 0.448206
O O15 0.250000 0.250000 0.000000
O O16 0.157118 0.500000 0.000000
#
# Coordination Sequence:
#
# PCOD9494179 Si02
#       6
#    16  16   8   8  16   8
#     4   9  16  29  52  79 110 146 186 235 290 354
#     4  12  25  41  61  85 115 155 200 250 304 363
#     4  12  25  43  65  92 125 161 204 255 306 360
#     4   9  20  40  62  90 128 171 209 247 298 351
#     4   7  10  18  37  69 104 137 176 222 276 342
#     4   9  19  37  64  94 130 171 211 251 293 344
#
# _framework density 19.519774000000002
#
# number of rings (size 3 to 8) (size 9 to 14) (size 15 to 20)
#    0.000    2.444    1.111    5.667    0.000    1.778 
#    0.000    3.333    0.000    1.333    0.000    3.111 
#    0.000    0.000    0.000    0.000    0.000    0.000 
#
# Total GULP energy -200848.390293 kJ/mol
# GULP energy per Si atom -5579.121953 kJ/mol
# Density = 1.947535 g / cm^3
# Si number density = 19.519774 Si / 1000 Ang^3
#
#
#
# Elastic Constant Matrix: (Units=GPa)
#
#
# Indices 1 2 3 4 5 6 
#
# 1 135.7799 43.9720 83.5664 0.0000 0.0000 0.0000
# 2 43.9720 78.9041 61.9762 0.0000 0.0000 0.0000
# 3 83.5664 61.9762 189.8674 0.0000 0.0000 0.0000
# 4 0.0000 0.0000 0.0000 27.9648 0.0000 0.0000
# 5 0.0000 0.0000 0.0000 0.0000 -579.8948 0.0000
# 6 0.0000 0.0000 0.0000 0.0000 0.0000 25.5182
#
#
#
# Elastic Compliance Matrix: (Units=1/GPa)
#
#
# Indices 1 2 3 4 5 6 
#
# 1 0.010610 -0.003019 -0.003684 0.000000 0.000000 0.000000
# 2 -0.003019 0.017902 -0.004515 0.000000 0.000000 0.000000
# 3 -0.003684 -0.004515 0.008362 0.000000 0.000000 0.000000
# 4 0.000000 0.000000 0.000000 0.035759 0.000000 0.000000
# 5 0.000000 0.000000 0.000000 0.000000 -0.001724 0.000000
# 6 0.000000 0.000000 0.000000 0.000000 0.000000 0.039188
#
#
# Mechanical properties :
#
#
# Convention : Reuss Voigt Hill
#
# Bulk Modulus (GPa) = 69.26088 87.06452 78.16270
# Shear Modulus (GPa) = 36.40432 -90.94657 -27.27112
#
# Velocity S-wave (km/s) = 4.32325 -6.83324 -3.74184
# Velocity P-wave (km/s) = 7.77689 4.19017 4.63263
#
# Compressibility (1/GPa) = 0.01443816
#
# Stress axis : x y z
#
# Youngs Moduli (GPa) = 94.24974 55.85868 119.58551
#
# Poissons Ratio (x) = 0.16863 0.44060
# Poissons Ratio (y) = 0.28453 0.53992
# Poissons Ratio (z) = 0.34725 0.25220
#
# Static dielectric constant tensor:
#      x y z
#    x 1.733900 0.000000 0.000000 
#    y 0.000000 1.650990 0.000000 
#    z 0.000000 0.000000 1.703650 
# 
# From -- ./inp_files/74705.got.cif
#   From: 2010.05.17/outbox.cif.g08.bks.cpg/sg65_38_cif.got.tgz:74705.got - 2010.06.03 17:01:31.
