data_PCOD9494650
_publ_section_title
;
Structure prediction by ZEFSAII (Michael W. Deem and Ramdas Pophale) SiO2 
 PCOD9494650
Probable space group: C M M M
;
_chemical_formula_sum "Si O2"
_cell_formula_units_Z 44
_cell_length_a 18.000000
_cell_length_b 15.000000
_cell_length_c 18.000000
_cell_angle_alpha 90.000000
_cell_angle_beta 90.000000
_cell_angle_gamma 90.000000
_cell_volume 4860.000000
_symmetry_space_group_name_H-M "C M M M"
_symmetry_group_IT_number 65
_symmetry_cell_setting 'orthorhombic'
loop_
_space_group_symop_operation_xyz
x,y,z
-x,-y,z
x,-y,-z
-x,y,-z
-x,-y,-z
x,y,-z
-x,y,z
x,-y,z
1/2+x,1/2+y,z
1/2-x,1/2-y,z
1/2+x,1/2-y,-z
1/2-x,1/2+y,-z
1/2-x,1/2-y,-z
1/2+x,1/2+y,-z
1/2-x,1/2+y,z
1/2+x,1/2-y,z
loop_
_atom_site_type_symbol
_atom_site_label
_atom_site_fract_x
_atom_site_fract_y
_atom_site_fract_z
Si Si1 0.318047 0.834158 0.586462
Si Si2 0.800868 0.102397 0.295486
Si Si3 0.419175 0.000000 0.410843
Si Si4 0.689433 0.895179 0.000000
Si Si5 0.319025 0.393342 0.120863
Si Si6 0.411351 0.651989 0.583673
Si Si7 0.089977 0.217964 0.000000
O O1 0.289356 0.845922 0.500000
O O2 0.255769 0.844100 0.650267
O O3 0.368657 0.746552 0.584765
O O4 0.373279 0.913243 0.606208
O O5 0.810840 0.132046 0.208899
O O6 0.876236 0.103495 0.344952
O O7 0.774353 0.000000 0.291311
O O8 0.500000 0.000000 0.376224
O O9 0.426256 0.000000 0.500000
O O10 0.742778 0.882936 0.927292
O O11 0.627662 0.817065 0.000000
O O12 0.664603 0.000000 0.000000
O O13 0.337338 0.500000 0.118620
O O14 0.378272 0.335795 0.072677
O O15 0.397612 0.613273 0.500000
O O16 0.500000 0.661898 0.590714
O O17 0.000000 0.221234 0.000000
#
# Coordination Sequence:
#
# PCOD9494650 Si02
#       7
#    16  16   8   8  16  16   8
#     4  10  19  33  53  78 106 140 188 239 283 329
#     4  11  22  36  56  83 110 142 186 236 280 330
#     4   9  16  28  50  76 103 136 173 222 283 334
#     4   9  19  39  63  87 116 151 181 216 262 339
#     4   9  20  38  60  85 113 147 188 229 277 331
#     4  10  22  37  51  72 107 150 192 234 284 339
#     4  11  22  36  61  93 119 145 179 225 278 328
#
# _framework density 9.0534979999999994
#
# number of rings (size 3 to 8) (size 9 to 14) (size 15 to 20)
#    0.000    2.091    0.909    3.545    0.000    9.636 
#    0.000    2.727    0.000    1.091    0.000    0.000 
#    0.000    0.000    0.000    0.000    0.000    0.000 
#
# Total GULP energy -245084.671794 kJ/mol
# GULP energy per Si atom -5570.106177 kJ/mol
# Density = 0.903289 g / cm^3
# Si number density = 9.053498 Si / 1000 Ang^3
#
#
#
# Elastic Constant Matrix: (Units=GPa)
#
#
# Indices 1 2 3 4 5 6 
#
# 1 132.5926 53.7553 61.8091 0.0000 0.0000 0.0000
# 2 53.7553 99.5300 37.0904 0.0000 0.0000 0.0000
# 3 61.8091 37.0904 173.7423 0.0000 0.0000 0.0000
# 4 0.0000 0.0000 0.0000 21.3228 0.0000 0.0000
# 5 0.0000 0.0000 0.0000 0.0000 6.2319 0.0000
# 6 0.0000 0.0000 0.0000 0.0000 0.0000 19.0789
#
#
#
# Elastic Compliance Matrix: (Units=1/GPa)
#
#
# Indices 1 2 3 4 5 6 
#
# 1 0.010794 -0.004779 -0.002820 0.000000 0.000000 0.000000
# 2 -0.004779 0.013031 -0.001082 0.000000 0.000000 0.000000
# 3 -0.002820 -0.001082 0.006990 0.000000 0.000000 0.000000
# 4 0.000000 0.000000 0.000000 0.046898 0.000000 0.000000
# 5 0.000000 0.000000 0.000000 0.000000 0.160464 0.000000
# 6 0.000000 0.000000 0.000000 0.000000 0.000000 0.052414
#
#
# Mechanical properties :
#
#
# Convention : Reuss Voigt Hill
#
# Bulk Modulus (GPa) = 74.32701 79.01940 76.67321
# Shear Modulus (GPa) = 16.00325 26.20739 21.10532
#
# Velocity S-wave (km/s) = 2.97613 3.80855 3.41778
# Velocity P-wave (km/s) = 7.27652 7.94198 7.61652
#
# Compressibility (1/GPa) = 0.01345406
#
# Stress axis : x y z
#
# Youngs Moduli (GPa) = 92.64622 76.73783 143.06713
#
# Poissons Ratio (x) = 0.36672 0.40341
# Poissons Ratio (y) = 0.44274 0.15478
# Poissons Ratio (z) = 0.26124 0.08302
#
# Static dielectric constant tensor:
#      x y z
#    x 1.643450 0.000000 0.000000 
#    y 0.000000 1.674640 0.000000 
#    z 0.000000 0.000000 1.618580 
# 
# From -- ./inp_files/54365.got.cif
#   From: 2010.05.17/outbox.ucp.g08.bks.cvg/sg65_28_cif.got.tgz:54365.got - 2010.06.11 16:39:57.
