data_PCOD9494684
_publ_section_title
;
Structure prediction by ZEFSAII (Michael W. Deem and Ramdas Pophale) SiO2 
 PCOD9494684
Probable space group: C M M M
;
_chemical_formula_sum "Si O2"
_cell_formula_units_Z 58
_cell_length_a 18.000000
_cell_length_b 15.000000
_cell_length_c 24.000000
_cell_angle_alpha 90.000000
_cell_angle_beta 90.000000
_cell_angle_gamma 90.000000
_cell_volume 6480.000000
_symmetry_space_group_name_H-M "C M M M"
_symmetry_group_IT_number 65
_symmetry_cell_setting 'orthorhombic'
loop_
_space_group_symop_operation_xyz
x,y,z
-x,-y,z
x,-y,-z
-x,y,-z
-x,-y,-z
x,y,-z
-x,y,z
x,-y,z
1/2+x,1/2+y,z
1/2-x,1/2-y,z
1/2+x,1/2-y,-z
1/2-x,1/2+y,-z
1/2-x,1/2-y,-z
1/2+x,1/2+y,-z
1/2-x,1/2+y,z
1/2+x,1/2-y,z
loop_
_atom_site_type_symbol
_atom_site_label
_atom_site_fract_x
_atom_site_fract_y
_atom_site_fract_z
Si Si1 0.845157 0.393682 0.321580
Si Si2 0.110990 0.329806 0.890174
Si Si3 0.765706 0.897978 0.874795
Si Si4 0.198855 0.896128 0.253446
Si Si5 0.585645 0.760957 0.236090
Si Si6 0.582112 0.645744 0.064204
Si Si7 0.586598 0.891873 0.437538
Si Si8 0.500000 0.000000 0.896410
O O1 0.858883 0.500000 0.317395
O O2 0.761262 0.378637 0.300104
O O3 0.896517 0.341189 0.278286
O O4 0.864017 0.364589 0.384646
O O5 0.198867 0.341647 0.900134
O O6 0.102118 0.293298 0.826812
O O7 0.082155 0.252648 0.930371
O O8 0.064775 0.420617 0.895519
O O9 0.765495 0.884844 0.808065
O O10 0.848060 0.882990 0.898573
O O11 0.746427 0.000000 0.885548
O O12 0.134904 0.823091 0.254207
O O13 0.175092 0.000000 0.257647
O O14 0.500000 0.736530 0.238509
O O15 0.500000 0.614060 0.082826
O O16 0.592691 0.618778 0.000000
O O17 0.608610 0.861528 0.500000
O O18 0.500000 0.866811 0.428431
O O19 0.588530 0.000000 0.438650
#
# Coordination Sequence:
#
# PCOD9494684 Si02
#       8
#    16  16  16  16  16  16  16   4
#     4  10  20  32  53  86 119 153 190 234 290 347
#     4  12  23  40  61  89 118 152 187 232 295 356
#     4  11  23  39  63  87 114 151 191 235 295 350
#     4  10  22  38  55  80 113 151 191 239 286 344
#     4  12  23  34  56  83 115 151 192 238 292 343
#     4  11  25  45  65  87 115 148 191 243 294 347
#     4   8  14  27  47  76 119 164 199 234 281 341
#     4  12  24  40  65  92 124 148 185 240 288 370
#
# _framework density 8.9506169999999994
#
# number of rings (size 3 to 8) (size 9 to 14) (size 15 to 20)
#    0.000    1.379    4.828    1.655    0.966    2.759 
#    0.000    2.759    0.000    1.655    0.000    0.000 
#    0.000    0.000    0.000    8.276    0.000    0.276 
#
# Total GULP energy -323135.940939 kJ/mol
# GULP energy per Si atom -5571.309327 kJ/mol
# Density = 0.893025 g / cm^3
# Si number density = 8.950617 Si / 1000 Ang^3
#
#
#
# Elastic Constant Matrix: (Units=GPa)
#
#
# Indices 1 2 3 4 5 6 
#
# 1 113.3434 21.9545 22.8684 0.0000 0.0000 0.0000
# 2 21.9545 41.9546 -0.8119 0.0000 0.0000 0.0000
# 3 22.8684 -0.8119 55.5465 0.0000 0.0000 0.0000
# 4 0.0000 0.0000 0.0000 17.6836 0.0000 0.0000
# 5 0.0000 0.0000 0.0000 0.0000 25.8847 0.0000
# 6 0.0000 0.0000 0.0000 0.0000 0.0000 32.1256
#
#
#
# Elastic Compliance Matrix: (Units=1/GPa)
#
#
# Indices 1 2 3 4 5 6 
#
# 1 0.010860 -0.005771 -0.004555 0.000000 0.000000 0.000000
# 2 -0.005771 0.026909 0.002769 0.000000 0.000000 0.000000
# 3 -0.004555 0.002769 0.019919 0.000000 0.000000 0.000000
# 4 0.000000 0.000000 0.000000 0.056550 0.000000 0.000000
# 5 0.000000 0.000000 0.000000 0.000000 0.038633 0.000000
# 6 0.000000 0.000000 0.000000 0.000000 0.000000 0.031128
#
#
# Mechanical properties :
#
#
# Convention : Reuss Voigt Hill
#
# Bulk Modulus (GPa) = 23.48896 33.20740 28.34818
# Shear Modulus (GPa) = 23.44090 26.26102 24.85096
#
# Velocity S-wave (km/s) = 3.62257 3.83429 3.72993
# Velocity P-wave (km/s) = 5.53599 6.18005 5.86687
#
# Compressibility (1/GPa) = 0.04257320
#
# Stress axis : x y z
#
# Youngs Moduli (GPa) = 92.08409 37.16268 50.20381
#
# Poissons Ratio (x) = 0.21446 0.22869
# Poissons Ratio (y) = 0.53141 -0.13902
# Poissons Ratio (z) = 0.41947 -0.10291
#
# Static dielectric constant tensor:
#      x y z
#    x 1.636620 0.000000 0.000000 
#    y 0.000000 1.630810 0.000000 
#    z 0.000000 0.000000 1.606820 
# 
# From -- ./inp_files/70163.got.cif
#   From: 2010.05.17/outbox.ucp.g08.bks.cvg/sg65_36_cif.got.tgz:70163.got - 2010.06.11 16:39:57.
