data_PCOD9494298
_publ_section_title
;
Structure prediction by ZEFSAII (Michael W. Deem and Ramdas Pophale) SiO2 
 PCOD9494298
Probable space group: C M M M
;
_chemical_formula_sum "Si O2"
_cell_formula_units_Z 72
_cell_length_a 7.302645
_cell_length_b 27.950900
_cell_length_c 16.700765
_cell_angle_alpha 90.000000
_cell_angle_beta 90.000000
_cell_angle_gamma 90.000000
_cell_volume 3408.885001
_symmetry_space_group_name_H-M "C M M M"
_symmetry_group_IT_number 65
_symmetry_cell_setting 'orthorhombic'
loop_
_space_group_symop_operation_xyz
x,y,z
-x,-y,z
x,-y,-z
-x,y,-z
-x,-y,-z
x,y,-z
-x,y,z
x,-y,z
1/2+x,1/2+y,z
1/2-x,1/2-y,z
1/2+x,1/2-y,-z
1/2-x,1/2+y,-z
1/2-x,1/2-y,-z
1/2+x,1/2+y,-z
1/2-x,1/2+y,z
1/2+x,1/2-y,z
loop_
_atom_site_type_symbol
_atom_site_label
_atom_site_fract_x
_atom_site_fract_y
_atom_site_fract_z
Si Si1 0.776969 0.900109 0.166986
Si Si2 0.277507 0.446809 0.333541
Si Si3 0.276440 0.444689 0.000000
Si Si4 0.723129 0.652111 0.588564
Si Si5 0.282413 0.304149 0.247319
O O1 0.724576 0.933202 0.242520
O O2 0.715584 0.919119 0.081447
O O3 0.716147 0.846420 0.189423
O O4 0.000000 0.900663 0.165230
O O5 0.500000 0.447228 0.335285
O O6 0.215632 0.500000 0.355574
O O7 0.222544 0.402343 0.389105
O O8 0.221818 0.500000 0.000000
O O9 0.500000 0.443832 0.000000
O O10 0.785023 0.665789 0.500000
O O11 0.500000 0.653052 0.587841
O O12 0.785213 0.685019 0.662456
O O13 0.500000 0.310479 0.250846
O O14 0.250000 0.250000 0.222319
#
# Coordination Sequence:
#
# PCOD9494298 Si02
#       5
#    16  16   8  16  16
#     4   8  14  23  34  52  78 104 129 159 194 228
#     4   8  12  18  29  46  72 104 130 152 186 235
#     4   9  14  20  35  58  83 109 131 151 184 235
#     4   8  14  23  34  51  75 101 129 161 196 232
#     4   9  17  29  43  57  77 105 133 163 198 231
#
# _framework density 21.121275000000001
#
# number of rings (size 3 to 8) (size 9 to 14) (size 15 to 20)
#    0.000    3.667    0.000    3.333    0.000    3.556 
#    0.000    2.778    0.000    0.000    0.000    0.000 
#    0.000   23.111    0.000    8.000    0.000    8.889 
#
# Total GULP energy -200801.932795 kJ/mol
# GULP energy per Si atom -5577.831467 kJ/mol
# Density = 2.107320 g / cm^3
# Si number density = 21.121275 Si / 1000 Ang^3
#
#
#
# Elastic Constant Matrix: (Units=GPa)
#
#
# Indices 1 2 3 4 5 6 
#
# 1 85.0504 -2.0205 4.8273 0.0000 0.0000 0.0000
# 2 -2.0205 111.7930 31.4434 0.0000 0.0000 0.0000
# 3 4.8273 31.4434 117.3699 0.0000 0.0000 0.0000
# 4 0.0000 0.0000 0.0000 9.9790 0.0000 0.0000
# 5 0.0000 0.0000 0.0000 0.0000 372.5996 0.0000
# 6 0.0000 0.0000 0.0000 0.0000 0.0000 2.0236
#
#
#
# Elastic Compliance Matrix: (Units=1/GPa)
#
#
# Indices 1 2 3 4 5 6 
#
# 1 0.011800 0.000378 -0.000587 0.000000 0.000000 0.000000
# 2 0.000378 0.009686 -0.002610 0.000000 0.000000 0.000000
# 3 -0.000587 -0.002610 0.009244 0.000000 0.000000 0.000000
# 4 0.000000 0.000000 0.000000 0.100210 0.000000 0.000000
# 5 0.000000 0.000000 0.000000 0.000000 0.002684 0.000000
# 6 0.000000 0.000000 0.000000 0.000000 0.000000 0.494180
#
#
# Mechanical properties :
#
#
# Convention : Reuss Voigt Hill
#
# Bulk Modulus (GPa) = 39.85334 42.52375 41.18854
# Shear Modulus (GPa) = 7.79052 95.58464 51.68758
#
# Velocity S-wave (km/s) = 1.92262 6.73449 4.95227
# Velocity P-wave (km/s) = 4.88246 8.98042 7.22795
#
# Compressibility (1/GPa) = 0.02509200
#
# Stress axis : x y z
#
# Youngs Moduli (GPa) = 84.74564 103.23991 108.18349
#
# Poissons Ratio (x) = -0.03905 0.06347
# Poissons Ratio (y) = -0.03206 0.28241
# Poissons Ratio (z) = 0.04972 0.26951
#
# Static dielectric constant tensor:
#      x y z
#    x 1.873750 0.000000 0.000000 
#    y 0.000000 1.745520 0.000000 
#    z 0.000000 0.000000 1.725150 
# 
# From -- ./inp_files/45267.got.cif
#   From: 2010.05.17/outbox.cif.g08.bks.cpg/sg65_23_cif.got.tgz:45267.got - 2010.06.03 17:01:31.
