data_PCOD9494587
_publ_section_title
;
Structure prediction by ZEFSAII (Michael W. Deem and Ramdas Pophale) SiO2 
 PCOD9494587
Probable space group: C M M M
;
_chemical_formula_sum "Si O2"
_cell_formula_units_Z 36
_cell_length_a 9.000000
_cell_length_b 27.000000
_cell_length_c 15.000000
_cell_angle_alpha 90.000000
_cell_angle_beta 90.000000
_cell_angle_gamma 90.000000
_cell_volume 3645.000000
_symmetry_space_group_name_H-M "C M M M"
_symmetry_group_IT_number 65
_symmetry_cell_setting 'orthorhombic'
loop_
_space_group_symop_operation_xyz
x,y,z
-x,-y,z
x,-y,-z
-x,y,-z
-x,-y,-z
x,y,-z
-x,y,z
x,-y,z
1/2+x,1/2+y,z
1/2-x,1/2-y,z
1/2+x,1/2-y,-z
1/2-x,1/2+y,-z
1/2-x,1/2-y,-z
1/2+x,1/2+y,-z
1/2-x,1/2+y,z
1/2+x,1/2-y,z
loop_
_atom_site_type_symbol
_atom_site_label
_atom_site_fract_x
_atom_site_fract_y
_atom_site_fract_z
Si Si1 0.336064 0.558103 0.394241
Si Si2 0.821052 0.694608 0.000000
Si Si3 0.825637 0.802709 0.178007
Si Si4 0.670765 0.440518 0.101659
Si Si5 0.830389 0.385405 0.257996
O O1 0.332960 0.563809 0.500000
O O2 0.500000 0.575010 0.361452
O O3 0.327246 0.500000 0.373663
O O4 0.202362 0.585522 0.347656
O O5 0.750000 0.750000 0.000000
O O6 0.752884 0.673755 0.909534
O O7 0.000000 0.695270 0.000000
O O8 0.750000 0.750000 0.191843
O O9 0.779276 0.838750 0.256244
O O10 0.000000 0.797439 0.163791
O O11 0.500000 0.422613 0.115888
O O12 0.666823 0.500000 0.107009
O O13 0.777960 0.420611 0.177477
O O14 0.714628 0.428194 0.000000
O O15 0.000000 0.370086 0.247086
#
# Coordination Sequence:
#
# PCOD9494587 Si02
#       5
#    16   8  16  16  16
#     4   9  19  38  63  88 114 146 186 232 282 337
#     4  10  18  32  52  76 105 138 181 230 280 328
#     4  11  22  38  57  78 108 147 190 237 284 332
#     4   9  19  36  55  75 105 147 192 233 275 328
#     4  12  24  35  53  83 116 149 186 231 281 338
#
# _framework density 9.8765429999999999
#
# number of rings (size 3 to 8) (size 9 to 14) (size 15 to 20)
#    0.000    1.778    0.000    8.333    1.556    4.444 
#    0.000    2.222    0.000    0.667    0.000    0.000 
#    0.000    0.000    0.000    0.000    0.000    0.000 
#
# Total GULP energy -200915.187909 kJ/mol
# GULP energy per Si atom -5580.977442 kJ/mol
# Density = 0.985406 g / cm^3
# Si number density = 9.876543 Si / 1000 Ang^3
#
#
#
# Elastic Constant Matrix: (Units=GPa)
#
#
# Indices 1 2 3 4 5 6 
#
# 1 134.9252 27.8341 18.1056 0.0000 0.0000 0.0000
# 2 27.8341 64.8607 37.3466 0.0000 0.0000 0.0000
# 3 18.1056 37.3466 3.6946 0.0000 0.0000 0.0000
# 4 0.0000 0.0000 0.0000 16.9305 0.0000 0.0000
# 5 0.0000 0.0000 0.0000 0.0000 -12.5990 0.0000
# 6 0.0000 0.0000 0.0000 0.0000 0.0000 24.3761
#
#
#
# Elastic Compliance Matrix: (Units=1/GPa)
#
#
# Indices 1 2 3 4 5 6 
#
# 1 0.008115 -0.004028 0.000947 0.000000 0.000000 0.000000
# 2 -0.004028 -0.001199 0.031861 0.000000 0.000000 0.000000
# 3 0.000947 0.031861 -0.056040 0.000000 0.000000 0.000000
# 4 0.000000 0.000000 0.000000 0.059065 0.000000 0.000000
# 5 0.000000 0.000000 0.000000 0.000000 -0.079372 0.000000
# 6 0.000000 0.000000 0.000000 0.000000 0.000000 0.041024
#
#
# Mechanical properties :
#
#
# Convention : Reuss Voigt Hill
#
# Bulk Modulus (GPa) = 118.52734 41.11700 79.82217
# Shear Modulus (GPa) = -60.12959 13.75445 -23.18757
#
# Velocity S-wave (km/s) = -5.52329 2.64165 -3.42990
# Velocity P-wave (km/s) = 4.41125 5.49227 4.98118
#
# Compressibility (1/GPa) = 0.00843687
#
# Stress axis : x y z
#
# Youngs Moduli (GPa) = 123.22316 -833.93855 -17.84455
#
# Poissons Ratio (x) = -3.35913 0.01690
# Poissons Ratio (y) = 0.49635 0.56854
# Poissons Ratio (z) = -0.11672 26.57000
#
# Static dielectric constant tensor:
#      x y z
#    x 1.710330 0.000000 0.000000 
#    y 0.000000 1.784350 0.000000 
#    z 0.000000 0.000000 1.743810 
# 
# From -- ./inp_files/36554.got.cif
#   From: 2010.05.17/outbox.ucp.g08.bks.cvg/sg65_19_cif.got.tgz:36554.got - 2010.06.11 16:39:57.
