data_PCOD9494729
_publ_section_title
;
Structure prediction by ZEFSAII (Michael W. Deem and Ramdas Pophale) SiO2 
 PCOD9494729
Probable space group: C M M M
;
_chemical_formula_sum "Si O2"
_cell_formula_units_Z 48
_cell_length_a 27.000000
_cell_length_b 9.000000
_cell_length_c 21.000000
_cell_angle_alpha 90.000000
_cell_angle_beta 90.000000
_cell_angle_gamma 90.000000
_cell_volume 5103.000000
_symmetry_space_group_name_H-M "C M M M"
_symmetry_group_IT_number 65
_symmetry_cell_setting 'orthorhombic'
loop_
_space_group_symop_operation_xyz
x,y,z
-x,-y,z
x,-y,-z
-x,y,-z
-x,-y,-z
x,y,-z
-x,y,z
x,-y,z
1/2+x,1/2+y,z
1/2-x,1/2-y,z
1/2+x,1/2-y,-z
1/2-x,1/2+y,-z
1/2-x,1/2-y,-z
1/2+x,1/2+y,-z
1/2-x,1/2+y,z
1/2+x,1/2-y,z
loop_
_atom_site_type_symbol
_atom_site_label
_atom_site_fract_x
_atom_site_fract_y
_atom_site_fract_z
Si Si1 0.138432 0.325555 0.186331
Si Si2 0.558029 0.666733 0.755674
Si Si3 0.555484 0.826254 0.621693
Si Si4 0.160843 0.676217 0.429506
Si Si5 0.696246 0.324323 0.926453
Si Si6 0.697545 0.322851 0.301175
O O1 0.147427 0.500000 0.188567
O O2 0.081722 0.281253 0.195406
O O3 0.160731 0.254420 0.123318
O O4 0.161859 0.246516 0.248248
O O5 0.500000 0.659217 0.766570
O O6 0.579018 0.500000 0.762195
O O7 0.563959 0.725412 0.683509
O O8 0.500000 0.798013 0.596341
O O9 0.601308 0.805491 0.574833
O O10 0.557077 0.000000 0.641899
O O11 0.178339 0.718214 0.500000
O O12 0.171273 0.500000 0.419566
O O13 0.182903 0.769535 0.371821
O O14 0.699617 0.500000 0.913246
O O15 0.750000 0.250000 0.919421
O O16 0.680743 0.304841 0.000000
O O17 0.698936 0.500000 0.297455
O O18 0.750000 0.250000 0.286392
#
# Coordination Sequence:
#
# PCOD9494729 Si02
#       6
#    16  16  16  16  16  16
#     4  12  23  37  60  88 119 152 190 233 281 335
#     4  10  20  34  55  84 116 149 187 233 283 334
#     4   9  17  31  53  80 111 146 183 226 278 336
#     4  10  21  37  56  80 112 148 187 232 285 344
#     4  10  21  38  60  88 123 159 194 232 278 332
#     4  12  25  41  60  81 108 143 188 239 289 340
#
# _framework density 9.4062319999999993
#
# number of rings (size 3 to 8) (size 9 to 14) (size 15 to 20)
#    0.000    1.500    1.667    4.500    0.000    3.000 
#    0.000    1.667    0.000    0.500    0.000    7.000 
#    0.000    0.000    0.000    0.000    0.000    0.000 
#
# Total GULP energy -267951.264927 kJ/mol
# GULP energy per Si atom -5582.318019 kJ/mol
# Density = 0.938482 g / cm^3
# Si number density = 9.406232 Si / 1000 Ang^3
#
#
#
# Elastic Constant Matrix: (Units=GPa)
#
#
# Indices 1 2 3 4 5 6 
#
# 1 45.5786 28.8341 20.7650 0.0000 0.0000 0.0000
# 2 28.8341 130.7565 62.6162 0.0000 0.0000 0.0000
# 3 20.7650 62.6162 76.0782 0.0000 0.0000 0.0000
# 4 0.0000 0.0000 0.0000 29.7981 0.0000 0.0000
# 5 0.0000 0.0000 0.0000 0.0000 29.3508 0.0000
# 6 0.0000 0.0000 0.0000 0.0000 0.0000 24.4305
#
#
#
# Elastic Compliance Matrix: (Units=1/GPa)
#
#
# Indices 1 2 3 4 5 6 
#
# 1 0.026199 -0.003884 -0.003954 0.000000 0.000000 0.000000
# 2 -0.003884 0.013199 -0.009803 0.000000 0.000000 0.000000
# 3 -0.003954 -0.009803 0.022292 0.000000 0.000000 0.000000
# 4 0.000000 0.000000 0.000000 0.033559 0.000000 0.000000
# 5 0.000000 0.000000 0.000000 0.000000 0.034071 0.000000
# 6 0.000000 0.000000 0.000000 0.000000 0.000000 0.040933
#
#
# Mechanical properties :
#
#
# Convention : Reuss Voigt Hill
#
# Bulk Modulus (GPa) = 37.86840 52.98265 45.42552
# Shear Modulus (GPa) = 23.32781 26.06240 24.69511
#
# Velocity S-wave (km/s) = 3.52521 3.72611 3.62705
# Velocity P-wave (km/s) = 6.06157 6.83641 6.46062
#
# Compressibility (1/GPa) = 0.02640724
#
# Stress axis : x y z
#
# Youngs Moduli (GPa) = 38.17007 75.76486 44.85878
#
# Poissons Ratio (x) = 0.29424 0.17738
# Poissons Ratio (y) = 0.14824 0.43976
# Poissons Ratio (z) = 0.15093 0.74274
#
# Static dielectric constant tensor:
#      x y z
#    x 1.992740 0.000000 0.000000 
#    y 0.000000 1.605300 0.000000 
#    z 0.000000 0.000000 1.626970 
# 
# From -- ./inp_files/60197.got.cif
#   From: 2010.05.17/outbox.ucp.g08.bks.cvg/sg65_31_cif.got.tgz:60197.got - 2010.06.11 16:39:57.
