data_PCOD9494776
_publ_section_title
;
Structure prediction by ZEFSAII (Michael W. Deem and Ramdas Pophale) SiO2 
 PCOD9494776
Probable space group: C M M M
;
_chemical_formula_sum "Si O2"
_cell_formula_units_Z 50
_cell_length_a 18.000000
_cell_length_b 21.000000
_cell_length_c 15.000000
_cell_angle_alpha 90.000000
_cell_angle_beta 90.000000
_cell_angle_gamma 90.000000
_cell_volume 5670.000000
_symmetry_space_group_name_H-M "C M M M"
_symmetry_group_IT_number 65
_symmetry_cell_setting 'orthorhombic'
loop_
_space_group_symop_operation_xyz
x,y,z
-x,-y,z
x,-y,-z
-x,y,-z
-x,-y,-z
x,y,-z
-x,y,z
x,-y,z
1/2+x,1/2+y,z
1/2-x,1/2-y,z
1/2+x,1/2-y,-z
1/2-x,1/2+y,-z
1/2-x,1/2-y,-z
1/2+x,1/2+y,-z
1/2-x,1/2+y,z
1/2+x,1/2-y,z
loop_
_atom_site_type_symbol
_atom_site_label
_atom_site_fract_x
_atom_site_fract_y
_atom_site_fract_z
Si Si1 0.500000 0.000000 0.637070
Si Si2 0.622059 0.112477 0.606487
Si Si3 0.706734 0.424474 0.605290
Si Si4 0.708243 0.818057 0.896507
Si Si5 0.914223 0.711310 0.754655
Si Si6 0.586189 0.637004 0.264517
Si Si7 0.666707 0.574977 0.895214
O O1 0.565425 0.055936 0.632259
O O2 0.615064 0.121532 0.500000
O O3 0.708054 0.094701 0.626010
O O4 0.601987 0.175211 0.662256
O O5 0.695010 0.412003 0.500000
O O6 0.699245 0.500000 0.620471
O O7 0.645916 0.388518 0.664393
O O8 0.750000 0.750000 0.885329
O O9 0.640296 0.817353 0.828715
O O10 0.763514 0.877462 0.880002
O O11 0.684479 0.821462 0.000000
O O12 0.902689 0.787218 0.747668
O O13 0.000000 0.700519 0.778888
O O14 0.500000 0.626269 0.290120
O O15 0.604440 0.600553 0.172201
O O16 0.682879 0.500000 0.878661
O O17 0.646438 0.581339 0.000000
#
# Coordination Sequence:
#
# PCOD9494776 Si02
#       7
#     4  16  16  16  16  16  16
#     4  12  21  40  68  96 127 160 199 254 316 372
#     4  11  22  38  63  92 123 156 197 251 308 366
#     4  10  22  39  59  84 112 151 200 244 293 357
#     4  10  20  39  64  85 114 158 200 243 301 367
#     4  11  24  38  56  88 122 157 201 247 296 364
#     4  11  24  40  57  81 120 160 199 248 301 352
#     4  10  21  38  62  91 117 147 196 254 306 358
#
# _framework density 8.8183419999999995
#
# number of rings (size 3 to 8) (size 9 to 14) (size 15 to 20)
#    0.000    1.440    3.200    2.160    0.000    2.880 
#    1.440    6.400    0.000    0.000    0.000    2.800 
#    0.000    0.000    0.000    0.000    0.000    0.000 
#
# Total GULP energy -278677.119115 kJ/mol
# GULP energy per Si atom -5573.542382 kJ/mol
# Density = 0.879827 g / cm^3
# Si number density = 8.818342 Si / 1000 Ang^3
#
#
#
# Elastic Constant Matrix: (Units=GPa)
#
#
# Indices 1 2 3 4 5 6 
#
# 1 132.9124 52.2625 57.5478 0.0000 0.0000 0.0000
# 2 52.2625 123.9686 43.7693 0.0000 0.0000 0.0000
# 3 57.5478 43.7693 57.1364 0.0000 0.0000 0.0000
# 4 0.0000 0.0000 0.0000 17.0788 0.0000 0.0000
# 5 0.0000 0.0000 0.0000 0.0000 8.1114 0.0000
# 6 0.0000 0.0000 0.0000 0.0000 0.0000 35.7523
#
#
#
# Elastic Compliance Matrix: (Units=1/GPa)
#
#
# Indices 1 2 3 4 5 6 
#
# 1 0.013475 -0.001219 -0.012639 0.000000 0.000000 0.000000
# 2 -0.001219 0.011167 -0.007327 0.000000 0.000000 0.000000
# 3 -0.012639 -0.007327 0.035845 0.000000 0.000000 0.000000
# 4 0.000000 0.000000 0.000000 0.058552 0.000000 0.000000
# 5 0.000000 0.000000 0.000000 0.000000 0.123283 0.000000
# 6 0.000000 0.000000 0.000000 0.000000 0.000000 0.027970
#
#
# Mechanical properties :
#
#
# Convention : Reuss Voigt Hill
#
# Bulk Modulus (GPa) = 55.19371 69.01961 62.10666
# Shear Modulus (GPa) = 15.68869 22.88438 19.28653
#
# Velocity S-wave (km/s) = 2.98577 3.60605 3.31047
# Velocity P-wave (km/s) = 6.57641 7.52045 7.06422
#
# Compressibility (1/GPa) = 0.01811801
#
# Stress axis : x y z
#
# Youngs Moduli (GPa) = 74.21077 89.54693 27.89800
#
# Poissons Ratio (x) = 0.10911 0.35259
# Poissons Ratio (y) = 0.09043 0.20442
# Poissons Ratio (z) = 0.93793 0.65615
#
# Static dielectric constant tensor:
#      x y z
#    x 1.588940 0.000000 0.000000 
#    y 0.000000 1.584980 0.000000 
#    z 0.000000 0.000000 1.606180 
# 
# From -- ./inp_files/42890.got.cif
#   From: 2010.05.17/outbox.ucp.g08.bks.cvg/sg65_22_cif.got.tgz:42890.got - 2010.06.11 16:39:57.
