data_PCOD9494462
_publ_section_title
;
Structure prediction by ZEFSAII (Michael W. Deem and Ramdas Pophale) SiO2 
 PCOD9494462
Probable space group: C M M M
;
_chemical_formula_sum "Si O2"
_cell_formula_units_Z 104
_cell_length_a 14.106098
_cell_length_b 11.853277
_cell_length_c 30.097295
_cell_angle_alpha 90.000000
_cell_angle_beta 90.000000
_cell_angle_gamma 90.000000
_cell_volume 5032.372673
_symmetry_space_group_name_H-M "C M M M"
_symmetry_group_IT_number 65
_symmetry_cell_setting 'orthorhombic'
loop_
_space_group_symop_operation_xyz
x,y,z
-x,-y,z
x,-y,-z
-x,y,-z
-x,-y,-z
x,y,-z
-x,y,z
x,-y,z
1/2+x,1/2+y,z
1/2-x,1/2-y,z
1/2+x,1/2-y,-z
1/2-x,1/2+y,-z
1/2-x,1/2-y,-z
1/2+x,1/2+y,-z
1/2-x,1/2+y,z
1/2+x,1/2-y,z
loop_
_atom_site_type_symbol
_atom_site_label
_atom_site_fract_x
_atom_site_fract_y
_atom_site_fract_z
Si Si1 0.384425 0.242807 0.451310
Si Si2 0.810226 0.132039 0.097276
Si Si3 0.384191 0.000000 0.685109
Si Si4 0.112933 0.123725 0.805211
Si Si5 0.384706 0.000000 0.418824
Si Si6 0.884635 0.128607 0.363374
Si Si7 0.615627 0.233978 0.723361
Si Si8 0.189180 0.130833 0.000000
O O1 0.355145 0.284002 0.500000
O O2 0.500000 0.245418 0.450791
O O3 0.352467 0.312519 0.408587
O O4 0.355360 0.113708 0.443271
O O5 0.750000 0.250000 0.097192
O O6 0.867257 0.142364 0.142942
O O7 0.769108 0.000000 0.099593
O O8 0.859672 0.134075 0.048497
O O9 0.352363 0.890486 0.711371
O O10 0.500000 0.000000 0.684608
O O11 0.357716 0.000000 0.633167
O O12 0.146787 0.216437 0.770369
O O13 0.000000 0.119517 0.800003
O O14 0.151561 0.000000 0.792943
O O15 0.500000 0.000000 0.419154
O O16 0.855500 0.189722 0.318369
O O17 0.000000 0.132909 0.363843
O O18 0.855803 0.000000 0.362655
O O19 0.500000 0.232459 0.723616
O O20 0.250000 0.250000 0.000000
O O21 0.233702 0.000000 0.000000
#
# Coordination Sequence:
#
# PCOD9494462 Si02
#       8
#    16  16   8  16   8  16  16   8
#     4   9  15  20  26  36  51  74 108 153 201 246
#     4   9  17  31  50  72  97 125 158 193 229 270
#     4   9  14  21  34  47  64  91 124 169 212 252
#     4   9  17  29  45  65  91 121 152 188 229 272
#     4   9  13  20  29  38  52  74 109 154 202 246
#     4   9  15  21  29  40  56  82 117 157 200 248
#     4   9  15  24  36  51  71  97 132 170 213 259
#     4   8  14  26  47  71  93 121 157 192 224 264
#
# _framework density 20.666194999999998
#
# number of rings (size 3 to 8) (size 9 to 14) (size 15 to 20)
#    0.000    3.077    1.538    0.692    0.000    3.077 
#    1.385    1.923    0.000    2.308    0.000    0.000 
#    0.000    6.154    0.000    0.000    0.000    0.769 
#
# Total GULP energy -289484.907855 kJ/mol
# GULP energy per Si atom -5567.017459 kJ/mol
# Density = 2.061916 g / cm^3
# Si number density = 20.666195 Si / 1000 Ang^3
#
#
#
# Elastic Constant Matrix: (Units=GPa)
#
#
# Indices 1 2 3 4 5 6 
#
# 1 57.6773 8.6801 6.1664 0.0000 0.0000 0.0000
# 2 8.6801 139.6504 74.8983 0.0000 0.0000 0.0000
# 3 6.1664 74.8983 188.2375 0.0000 0.0000 0.0000
# 4 0.0000 0.0000 0.0000 38.8616 0.0000 0.0000
# 5 0.0000 0.0000 0.0000 0.0000 31.3161 0.0000
# 6 0.0000 0.0000 0.0000 0.0000 0.0000 3.0979
#
#
#
# Elastic Compliance Matrix: (Units=1/GPa)
#
#
# Indices 1 2 3 4 5 6 
#
# 1 0.017506 -0.000992 -0.000179 0.000000 0.000000 0.000000
# 2 -0.000992 0.009160 -0.003612 0.000000 0.000000 0.000000
# 3 -0.000179 -0.003612 0.006755 0.000000 0.000000 0.000000
# 4 0.000000 0.000000 0.000000 0.025732 0.000000 0.000000
# 5 0.000000 0.000000 0.000000 0.000000 0.031932 0.000000
# 6 0.000000 0.000000 0.000000 0.000000 0.000000 0.322801
#
#
# Mechanical properties :
#
#
# Convention : Reuss Voigt Hill
#
# Bulk Modulus (GPa) = 41.91920 62.78387 52.35153
# Shear Modulus (GPa) = 11.59005 34.37649 22.98327
#
# Velocity S-wave (km/s) = 2.37074 4.08293 3.33846
# Velocity P-wave (km/s) = 5.27464 7.25761 6.34408
#
# Compressibility (1/GPa) = 0.02385542
#
# Stress axis : x y z
#
# Youngs Moduli (GPa) = 57.12240 109.17442 148.02760
#
# Poissons Ratio (x) = 0.10833 0.02645
# Poissons Ratio (y) = 0.05668 0.53468
# Poissons Ratio (z) = 0.01021 0.39434
#
# Static dielectric constant tensor:
#      x y z
#    x 1.822460 0.000000 0.000000 
#    y 0.000000 1.786010 0.000000 
#    z 0.000000 0.000000 1.714110 
# 
# From -- ./inp_files/75220.got.cif
#   From: 2010.05.17/outbox.cif.g08.bks.cpg/sg65_38_cif.got.tgz:75220.got - 2010.06.03 17:01:31.
