data_PCOD9494027
_publ_section_title
;
Structure prediction by ZEFSAII (Michael W. Deem and Ramdas Pophale) SiO2 
 PCOD9494027
Probable space group: C M M M
;
_chemical_formula_sum "Si O2"
_cell_formula_units_Z 88
_cell_length_a 27.709299
_cell_length_b 20.325459
_cell_length_c 7.461193
_cell_angle_alpha 90.000000
_cell_angle_beta 90.000000
_cell_angle_gamma 90.000000
_cell_volume 4202.175389
_symmetry_space_group_name_H-M "C M M M"
_symmetry_group_IT_number 65
_symmetry_cell_setting 'orthorhombic'
loop_
_space_group_symop_operation_xyz
x,y,z
-x,-y,z
x,-y,-z
-x,y,-z
-x,-y,-z
x,y,-z
-x,y,z
x,-y,z
1/2+x,1/2+y,z
1/2-x,1/2-y,z
1/2+x,1/2-y,-z
1/2-x,1/2+y,-z
1/2-x,1/2-y,-z
1/2+x,1/2+y,-z
1/2-x,1/2+y,z
1/2+x,1/2-y,z
loop_
_atom_site_type_symbol
_atom_site_label
_atom_site_fract_x
_atom_site_fract_y
_atom_site_fract_z
Si Si1 0.922559 0.826838 0.298822
Si Si2 0.808877 0.799951 0.294651
Si Si3 0.947265 0.318715 0.718318
Si Si4 0.749612 0.925737 0.281473
Si Si5 0.056947 0.070847 0.000000
Si Si6 0.661623 0.158507 0.718377
O O1 0.939847 0.838739 0.500000
O O2 0.865500 0.815142 0.302035
O O3 0.945307 0.758528 0.233162
O O4 0.931120 0.887331 0.172942
O O5 0.791015 0.795031 0.500000
O O6 0.782675 0.864454 0.217379
O O7 0.810359 0.725364 0.218664
O O8 0.946690 0.322036 0.500000
O O9 0.894491 0.345315 0.777351
O O10 0.000000 0.345605 0.776020
O O11 0.753707 0.927132 0.500000
O O12 0.695048 0.903277 0.237062
O O13 0.760770 0.000000 0.219792
O O14 0.000000 0.063730 0.000000
O O15 0.081148 0.000000 0.000000
O O16 0.660154 0.164233 0.500000
#
# Coordination Sequence:
#
# PCOD9494027 Si02
#       6
#    16  16  16  16   8  16
#     4   9  18  33  51  69  91 120 156 201 245 281
#     4   8  14  25  42  62  82 111 152 193 236 284
#     4   8  13  23  42  64  82 107 148 194 236 277
#     4   9  15  21  32  55  88 120 150 190 238 288
#     4  11  24  36  46  66  95 128 163 195 237 294
#     4   8  13  21  34  55  83 113 149 194 239 283
#
# _framework density 20.941534000000001
#
# number of rings (size 3 to 8) (size 9 to 14) (size 15 to 20)
#    0.000    3.364    0.000    3.273    0.000    4.364 
#    0.000    2.727    0.000    0.545    0.000   14.000 
#    0.000    0.000    0.000    0.000    0.000   31.273 
#
# Total GULP energy -245047.120510 kJ/mol
# GULP energy per Si atom -5569.252739 kJ/mol
# Density = 2.089387 g / cm^3
# Si number density = 20.941534 Si / 1000 Ang^3
#
#
#
# Elastic Constant Matrix: (Units=GPa)
#
#
# Indices 1 2 3 4 5 6 
#
# 1 112.7027 36.9624 -10.4604 0.0000 0.0000 0.0000
# 2 36.9624 62.3635 3.4322 0.0000 0.0000 0.0000
# 3 -10.4604 3.4322 52.0216 0.0000 0.0000 0.0000
# 4 0.0000 0.0000 0.0000 11.6321 0.0000 0.0000
# 5 0.0000 0.0000 0.0000 0.0000 -6.8166 0.0000
# 6 0.0000 0.0000 0.0000 0.0000 0.0000 56.3110
#
#
#
# Elastic Compliance Matrix: (Units=1/GPa)
#
#
# Indices 1 2 3 4 5 6 
#
# 1 0.011392 -0.006903 0.002746 0.000000 0.000000 0.000000
# 2 -0.006903 0.020276 -0.002726 0.000000 0.000000 0.000000
# 3 0.002746 -0.002726 0.019955 0.000000 0.000000 0.000000
# 4 0.000000 0.000000 0.000000 0.085969 0.000000 0.000000
# 5 0.000000 0.000000 0.000000 0.000000 -0.146701 0.000000
# 6 0.000000 0.000000 0.000000 0.000000 0.000000 0.017759
#
#
# Mechanical properties :
#
#
# Convention : Reuss Voigt Hill
#
# Bulk Modulus (GPa) = 26.41483 31.88401 29.14942
# Shear Modulus (GPa) = 142.72005 25.36889 84.04447
#
# Velocity S-wave (km/s) = 8.26436 3.48431 6.34193
# Velocity P-wave (km/s) = 10.18367 5.60763 8.22048
#
# Compressibility (1/GPa) = 0.03785753
#
# Stress axis : x y z
#
# Youngs Moduli (GPa) = 87.78343 49.31861 50.11329
#
# Poissons Ratio (x) = 0.34044 -0.13761
# Poissons Ratio (y) = 0.60596 0.13660
# Poissons Ratio (z) = -0.24106 0.13443
#
# Static dielectric constant tensor:
#      x y z
#    x 1.812760 0.000000 0.000000 
#    y 0.000000 1.792510 0.000000 
#    z 0.000000 0.000000 1.900330 
# 
# From -- ./inp_files/18338.got.cif
#   From: 2010.05.17/outbox.cif.g08.bks.cpg/sg65_10_cif.got.tgz:18338.got - 2010.06.03 17:01:31.
