data_PCOD9494536
_publ_section_title
;
Structure prediction by ZEFSAII (Michael W. Deem and Ramdas Pophale) SiO2 
 PCOD9494536
Probable space group: C M M M
;
_chemical_formula_sum "Si O2"
_cell_formula_units_Z 72
_cell_length_a 7.502137
_cell_length_b 29.435923
_cell_length_c 16.287253
_cell_angle_alpha 90.000000
_cell_angle_beta 90.000000
_cell_angle_gamma 90.000000
_cell_volume 3596.751982
_symmetry_space_group_name_H-M "C M M M"
_symmetry_group_IT_number 65
_symmetry_cell_setting 'orthorhombic'
loop_
_space_group_symop_operation_xyz
x,y,z
-x,-y,z
x,-y,-z
-x,y,-z
-x,-y,-z
x,y,-z
-x,y,z
x,-y,z
1/2+x,1/2+y,z
1/2-x,1/2-y,z
1/2+x,1/2-y,-z
1/2-x,1/2+y,-z
1/2-x,1/2-y,-z
1/2+x,1/2+y,-z
1/2-x,1/2+y,z
1/2+x,1/2-y,z
loop_
_atom_site_type_symbol
_atom_site_label
_atom_site_fract_x
_atom_site_fract_y
_atom_site_fract_z
Si Si1 0.713540 0.197120 0.591902
Si Si2 0.213342 0.303727 0.090333
Si Si3 0.219388 0.358038 0.250821
Si Si4 0.712542 0.552638 0.000000
Si Si5 0.209170 0.448766 0.180353
O O1 0.782558 0.187218 0.500000
O O2 0.500000 0.191730 0.589290
O O3 0.750000 0.250000 0.609734
O O4 0.779788 0.165968 0.665865
O O5 0.250000 0.250000 0.098634
O O6 0.279103 0.330137 0.170321
O O7 0.000000 0.309648 0.088701
O O8 0.282289 0.318326 0.000000
O O9 0.279953 0.410008 0.240020
O O10 0.000000 0.357656 0.250626
O O11 0.775125 0.570666 0.912615
O O12 0.775541 0.500000 0.000000
O O13 0.500000 0.553365 0.000000
O O14 0.286549 0.500000 0.183043
O O15 0.000000 0.453117 0.197154
#
# Coordination Sequence:
#
# PCOD9494536 Si02
#       5
#    16  16  16   8  16
#     4   9  17  30  48  69  92 117 145 181 226 271
#     4   9  17  28  41  57  81 112 141 172 210 253
#     4   9  17  28  45  66  87 114 147 183 221 261
#     4   9  17  29  43  61  88 117 146 185 230 263
#     4   9  17  29  46  65  85 115 155 190 217 256
#
# _framework density 20.018059999999998
#
# number of rings (size 3 to 8) (size 9 to 14) (size 15 to 20)
#    0.000    3.000    0.000    1.000    1.556    1.333 
#    0.000    2.222    0.000    0.667    0.000    4.667 
#    0.000    0.000    0.000   11.111    0.000   11.556 
#
# Total GULP energy -200786.873948 kJ/mol
# GULP energy per Si atom -5577.413165 kJ/mol
# Density = 1.997250 g / cm^3
# Si number density = 20.018060 Si / 1000 Ang^3
#
#
#
# Elastic Constant Matrix: (Units=GPa)
#
#
# Indices 1 2 3 4 5 6 
#
# 1 56.5890 1.1223 7.3189 0.0000 0.0000 0.0000
# 2 1.1223 121.9436 113.5577 0.0000 0.0000 0.0000
# 3 7.3189 113.5577 165.5471 0.0000 0.0000 0.0000
# 4 0.0000 0.0000 0.0000 16.7982 0.0000 0.0000
# 5 0.0000 0.0000 0.0000 0.0000 -2.3533 0.0000
# 6 0.0000 0.0000 0.0000 0.0000 0.0000 10.6024
#
#
#
# Elastic Compliance Matrix: (Units=1/GPa)
#
#
# Indices 1 2 3 4 5 6 
#
# 1 0.017883 0.001583 -0.001876 0.000000 0.000000 0.000000
# 2 0.001583 0.022842 -0.015739 0.000000 0.000000 0.000000
# 3 -0.001876 -0.015739 0.016920 0.000000 0.000000 0.000000
# 4 0.000000 0.000000 0.000000 0.059530 0.000000 0.000000
# 5 0.000000 0.000000 0.000000 0.000000 -0.424929 0.000000
# 6 0.000000 0.000000 0.000000 0.000000 0.000000 0.094318
#
#
# Mechanical properties :
#
#
# Convention : Reuss Voigt Hill
#
# Bulk Modulus (GPa) = 39.09342 65.34196 52.21769
# Shear Modulus (GPa) = -28.92782 19.81482 -4.55650
#
# Velocity S-wave (km/s) = -3.80555 3.14960 -1.51034
# Velocity P-wave (km/s) = 0.51169 6.77783 4.80629
#
# Compressibility (1/GPa) = 0.02557975
#
# Stress axis : x y z
#
# Youngs Moduli (GPa) = 55.92046 43.77809 59.10283
#
# Poissons Ratio (x) = -0.06928 0.11089
# Poissons Ratio (y) = -0.08850 0.93021
# Poissons Ratio (z) = 0.10492 0.68902
#
# Static dielectric constant tensor:
#      x y z
#    x 1.865950 0.000000 0.000000 
#    y 0.000000 1.723940 0.000000 
#    z 0.000000 0.000000 1.710220 
# 
# From -- ./inp_files/36942.got.cif
#   From: 2010.05.17/outbox.cif.g08.bks.cpg/sg65_19_cif.got.tgz:36942.got - 2010.06.03 17:01:31.
