data_PCOD9494463
_publ_section_title
;
Structure prediction by ZEFSAII (Michael W. Deem and Ramdas Pophale) SiO2 
 PCOD9494463
Probable space group: C M M M
;
_chemical_formula_sum "Si O2"
_cell_formula_units_Z 56
_cell_length_a 7.283888
_cell_length_b 44.044084
_cell_length_c 8.030891
_cell_angle_alpha 90.000000
_cell_angle_beta 90.000000
_cell_angle_gamma 90.000000
_cell_volume 2576.407608
_symmetry_space_group_name_H-M "C M M M"
_symmetry_group_IT_number 65
_symmetry_cell_setting 'orthorhombic'
loop_
_space_group_symop_operation_xyz
x,y,z
-x,-y,z
x,-y,-z
-x,y,-z
-x,-y,-z
x,y,-z
-x,y,z
x,-y,z
1/2+x,1/2+y,z
1/2-x,1/2-y,z
1/2+x,1/2-y,-z
1/2-x,1/2+y,-z
1/2-x,1/2-y,-z
1/2+x,1/2+y,-z
1/2-x,1/2+y,z
1/2+x,1/2-y,z
loop_
_atom_site_type_symbol
_atom_site_label
_atom_site_fract_x
_atom_site_fract_y
_atom_site_fract_z
Si Si1 0.723302 0.500000 0.193458
Si Si2 0.781269 0.785462 0.687092
Si Si3 0.276272 0.565856 0.684733
Si Si4 0.723849 0.394527 0.000000
Si Si5 0.775286 0.175436 0.000000
O O1 0.500000 0.500000 0.196485
O O2 0.781276 0.531225 0.279119
O O3 0.777773 0.500000 0.000000
O O4 0.709650 0.791285 0.500000
O O5 0.750000 0.750000 0.726124
O O6 0.000000 0.789857 0.679965
O O7 0.713368 0.806827 0.834688
O O8 0.219100 0.575387 0.500000
O O9 0.500000 0.565917 0.686991
O O10 0.217245 0.587478 0.834885
O O11 0.780505 0.359587 0.000000
O O12 0.500000 0.394956 0.000000
O O13 0.000000 0.176024 0.000000
#
# Coordination Sequence:
#
# PCOD9494463 Si02
#       5
#     8  16  16   8   8
#     4   9  13  19  29  38  53  75 104 147 193 230
#     4   9  17  29  45  64  84 106 133 166 203 241
#     4   9  15  21  29  40  55  78 109 147 191 232
#     4   9  16  24  31  43  62  85 114 149 187 231
#     4   9  17  27  39  54  75 101 128 159 199 242
#
# _framework density 21.735690999999999
#
# number of rings (size 3 to 8) (size 9 to 14) (size 15 to 20)
#    0.000    3.000    1.429    0.857    0.000    2.857 
#    0.000    5.714    0.000    0.000    0.000    0.000 
#    0.000    0.000    0.000    0.000    0.000    0.000 
#
# Total GULP energy -156406.847604 kJ/mol
# GULP energy per Si atom -5585.958843 kJ/mol
# Density = 2.168622 g / cm^3
# Si number density = 21.735691 Si / 1000 Ang^3
#
#
#
# Elastic Constant Matrix: (Units=GPa)
#
#
# Indices 1 2 3 4 5 6 
#
# 1 94.3157 3.1845 8.2736 0.0000 0.0000 0.0000
# 2 3.1845 196.1046 156.1839 0.0000 0.0000 0.0000
# 3 8.2736 156.1839 241.0104 0.0000 0.0000 0.0000
# 4 0.0000 0.0000 0.0000 8.9699 0.0000 0.0000
# 5 0.0000 0.0000 0.0000 0.0000 -18.9272 0.0000
# 6 0.0000 0.0000 0.0000 0.0000 0.0000 -16.9825
#
#
#
# Elastic Compliance Matrix: (Units=1/GPa)
#
#
# Indices 1 2 3 4 5 6 
#
# 1 0.010640 0.000244 -0.000523 0.000000 0.000000 0.000000
# 2 0.000244 0.010544 -0.006841 0.000000 0.000000 0.000000
# 3 -0.000523 -0.006841 0.008601 0.000000 0.000000 0.000000
# 4 0.000000 0.000000 0.000000 0.111484 0.000000 0.000000
# 5 0.000000 0.000000 0.000000 0.000000 -0.052834 0.000000
# 6 0.000000 0.000000 0.000000 0.000000 0.000000 -0.058884
#
#
# Mechanical properties :
#
#
# Convention : Reuss Voigt Hill
#
# Bulk Modulus (GPa) = 64.33491 96.30164 80.31827
# Shear Modulus (GPa) = 102.09728 18.86462 60.48095
#
# Velocity S-wave (km/s) = 6.86106 2.94923 5.28072
# Velocity P-wave (km/s) = 9.61398 7.48326 8.61475
#
# Compressibility (1/GPa) = 0.01554366
#
# Stress axis : x y z
#
# Youngs Moduli (GPa) = 93.98171 94.84113 116.27141
#
# Poissons Ratio (x) = -0.02315 0.06086
# Poissons Ratio (y) = -0.02294 0.79544
# Poissons Ratio (z) = 0.04920 0.64883
#
# Static dielectric constant tensor:
#      x y z
#    x 1.513040 0.000000 0.000000 
#    y 0.000000 1.718310 0.000000 
#    z 0.000000 0.000000 1.766600 
# 
# From -- ./inp_files/4789.got.cif
#   From: 2010.05.17/outbox.cif.g08.bks.cpg/sg65_3_cif.got.tgz:4789.got - 2010.06.03 17:01:31.
