data_PCOD9494641
_publ_section_title
;
Structure prediction by ZEFSAII (Michael W. Deem and Ramdas Pophale) SiO2 
 PCOD9494641
Probable space group: C M M M
;
_chemical_formula_sum "Si O2"
_cell_formula_units_Z 60
_cell_length_a 9.000000
_cell_length_b 27.000000
_cell_length_c 27.000000
_cell_angle_alpha 90.000000
_cell_angle_beta 90.000000
_cell_angle_gamma 90.000000
_cell_volume 6561.000000
_symmetry_space_group_name_H-M "C M M M"
_symmetry_group_IT_number 65
_symmetry_cell_setting 'orthorhombic'
loop_
_space_group_symop_operation_xyz
x,y,z
-x,-y,z
x,-y,-z
-x,y,-z
-x,-y,-z
x,y,-z
-x,y,z
x,-y,z
1/2+x,1/2+y,z
1/2-x,1/2-y,z
1/2+x,1/2-y,-z
1/2-x,1/2+y,-z
1/2-x,1/2-y,-z
1/2+x,1/2+y,-z
1/2-x,1/2+y,z
1/2+x,1/2-y,z
loop_
_atom_site_type_symbol
_atom_site_label
_atom_site_fract_x
_atom_site_fract_y
_atom_site_fract_z
Si Si1 0.166154 0.204735 0.279451
Si Si2 0.675450 0.696968 0.441256
Si Si3 0.165878 0.881070 0.199080
Si Si4 0.322899 0.140642 0.642094
Si Si5 0.821291 0.443392 0.720340
Si Si6 0.320013 0.803590 0.000000
Si Si7 0.835644 0.057101 0.059144
Si Si8 0.328128 0.858975 0.899442
O O1 0.250000 0.250000 0.254845
O O2 0.156584 0.160971 0.240520
O O3 0.267196 0.186158 0.324232
O O4 0.000000 0.217413 0.296111
O O5 0.697010 0.689543 0.500000
O O6 0.500000 0.699809 0.431029
O O7 0.750000 0.750000 0.428665
O O8 0.747015 0.652295 0.410098
O O9 0.258237 0.923316 0.227496
O O10 0.239033 0.855774 0.151341
O O11 0.000000 0.899019 0.187283
O O12 0.500000 0.140109 0.637160
O O13 0.276740 0.092233 0.674245
O O14 0.775728 0.500000 0.712068
O O15 0.000000 0.440825 0.722927
O O16 0.250000 0.750000 0.000000
O O17 0.274172 0.829871 0.948500
O O18 0.500000 0.802922 0.000000
O O19 0.701748 0.084621 0.084891
O O20 0.000000 0.078363 0.071160
O O21 0.837072 0.000000 0.072903
O O22 0.819532 0.060353 0.000000
O O23 0.500000 0.847363 0.891461
#
# Coordination Sequence:
#
# PCOD9494641 Si02
#       8
#    16  16  16  16  16   8  16  16
#     4  10  20  34  52  74 103 135 171 213 259 314
#     4  10  20  33  50  75 110 150 190 231 275 323
#     4  10  22  37  54  79 106 136 173 212 261 315
#     4  10  19  32  53  79 107 140 179 223 269 319
#     4   9  19  37  59  82 108 140 179 222 270 321
#     4  10  24  42  59  80 103 135 178 217 257 308
#     4   9  18  33  54  79 103 128 159 195 240 295
#     4  11  22  38  57  79 107 136 171 213 257 309
#
# _framework density 9.1449470000000002
#
# number of rings (size 3 to 8) (size 9 to 14) (size 15 to 20)
#    0.000    2.133    0.667    2.800    0.000    5.600 
#    0.000    3.333    0.000    0.400    0.000    2.800 
#    0.000    0.000    0.000    0.000    0.000    0.000 
#
# Total GULP energy -334228.725327 kJ/mol
# GULP energy per Si atom -5570.478755 kJ/mol
# Density = 0.912413 g / cm^3
# Si number density = 9.144947 Si / 1000 Ang^3
#
#
#
# Elastic Constant Matrix: (Units=GPa)
#
#
# Indices 1 2 3 4 5 6 
#
# 1 53.9386 34.6870 47.9695 0.0000 0.0000 0.0000
# 2 34.6870 57.8738 33.1818 0.0000 0.0000 0.0000
# 3 47.9695 33.1818 102.6994 0.0000 0.0000 0.0000
# 4 0.0000 0.0000 0.0000 -10.4872 0.0000 0.0000
# 5 0.0000 0.0000 0.0000 0.0000 29.4432 0.0000
# 6 0.0000 0.0000 0.0000 0.0000 0.0000 22.6543
#
#
#
# Elastic Compliance Matrix: (Units=1/GPa)
#
#
# Indices 1 2 3 4 5 6 
#
# 1 0.042151 -0.017153 -0.014146 0.000000 0.000000 0.000000
# 2 -0.017153 0.028188 -0.001096 0.000000 0.000000 0.000000
# 3 -0.014146 -0.001096 0.016699 0.000000 0.000000 0.000000
# 4 0.000000 0.000000 0.000000 -0.095354 0.000000 0.000000
# 5 0.000000 0.000000 0.000000 0.000000 0.033964 0.000000
# 6 0.000000 0.000000 0.000000 0.000000 0.000000 0.044142
#
#
# Mechanical properties :
#
#
# Convention : Reuss Voigt Hill
#
# Bulk Modulus (GPa) = 44.94712 49.57651 47.26181
# Shear Modulus (GPa) = 35.21292 14.90029 25.05660
#
# Velocity S-wave (km/s) = 4.39255 2.85734 3.70533
# Velocity P-wave (km/s) = 7.09606 6.16852 6.64849
#
# Compressibility (1/GPa) = 0.02224837
#
# Stress axis : x y z
#
# Youngs Moduli (GPa) = 23.72425 35.47642 59.88530
#
# Poissons Ratio (x) = 0.60852 0.84715
# Poissons Ratio (y) = 0.40694 0.06561
# Poissons Ratio (z) = 0.33561 0.03887
#
# Static dielectric constant tensor:
#      x y z
#    x 1.645170 0.000000 0.000000 
#    y 0.000000 1.654350 0.000000 
#    z 0.000000 0.000000 1.669310 
# 
# From -- ./inp_files/73890.got.cif
#   From: 2010.05.17/outbox.ucp.g08.bks.cvg/sg65_37_cif.got.tgz:73890.got - 2010.06.11 16:39:57.
