data_PCOD9494705
_publ_section_title
;
Structure prediction by ZEFSAII (Michael W. Deem and Ramdas Pophale) SiO2 
 PCOD9494705
Probable space group: C M M M
;
_chemical_formula_sum "Si O2"
_cell_formula_units_Z 40
_cell_length_a 30.000000
_cell_length_b 9.000000
_cell_length_c 21.000000
_cell_angle_alpha 90.000000
_cell_angle_beta 90.000000
_cell_angle_gamma 90.000000
_cell_volume 5670.000000
_symmetry_space_group_name_H-M "C M M M"
_symmetry_group_IT_number 65
_symmetry_cell_setting 'orthorhombic'
loop_
_space_group_symop_operation_xyz
x,y,z
-x,-y,z
x,-y,-z
-x,y,-z
-x,-y,-z
x,y,-z
-x,y,z
x,-y,z
1/2+x,1/2+y,z
1/2-x,1/2-y,z
1/2+x,1/2-y,-z
1/2-x,1/2+y,-z
1/2-x,1/2-y,-z
1/2+x,1/2+y,-z
1/2-x,1/2+y,z
1/2+x,1/2-y,z
loop_
_atom_site_type_symbol
_atom_site_label
_atom_site_fract_x
_atom_site_fract_y
_atom_site_fract_z
Si Si1 0.051567 0.181676 0.500000
Si Si2 0.554237 0.328806 0.636504
Si Si3 0.051013 0.322164 0.233182
Si Si4 0.702799 0.324399 0.923202
Si Si5 0.553061 0.678642 0.000000
Si Si6 0.110054 0.320562 0.113468
O O1 0.071321 0.226856 0.432093
O O2 0.000000 0.231268 0.500000
O O3 0.050958 0.000000 0.500000
O O4 0.500000 0.328104 0.632338
O O5 0.567709 0.500000 0.645256
O O6 0.565633 0.235097 0.697998
O O7 0.048974 0.500000 0.233807
O O8 0.086116 0.279113 0.179493
O O9 0.000000 0.267926 0.220310
O O10 0.703000 0.500000 0.908591
O O11 0.750000 0.250000 0.904945
O O12 0.659634 0.244754 0.893712
O O13 0.698576 0.308883 0.000000
O O14 0.578184 0.750315 0.059874
O O15 0.558775 0.500000 0.000000
O O16 0.500000 0.710556 0.000000
O O17 0.111264 0.500000 0.106975
#
# Coordination Sequence:
#
# PCOD9494705 Si02
#       6
#     8  16  16  16   8  16
#     4   7  10  18  33  53  75  99 134 177 214 247
#     4   8  13  22  37  55  75 104 141 178 213 248
#     4   9  18  30  41  57  84 116 148 179 211 251
#     4  10  20  34  52  71  90 107 132 172 218 265
#     4  11  23  35  46  63  86 111 145 187 221 251
#     4  11  21  33  49  65  85 114 145 177 218 262
#
# _framework density 7.0546740000000003
#
# number of rings (size 3 to 8) (size 9 to 14) (size 15 to 20)
#    0.000    2.600    1.000    3.300    0.000    4.000 
#    0.000    2.500    0.000    3.000    0.000    0.000 
#    0.000    0.000    0.000    0.900    0.000   11.700 
#
# Total GULP energy -222712.058178 kJ/mol
# GULP energy per Si atom -5567.801454 kJ/mol
# Density = 0.703862 g / cm^3
# Si number density = 7.054674 Si / 1000 Ang^3
#
#
#
# Elastic Constant Matrix: (Units=GPa)
#
#
# Indices 1 2 3 4 5 6 
#
# 1 98.8203 42.6134 57.9244 0.0000 0.0000 0.0000
# 2 42.6134 43.5865 37.5407 0.0000 0.0000 0.0000
# 3 57.9244 37.5407 118.3857 0.0000 0.0000 0.0000
# 4 0.0000 0.0000 0.0000 22.3857 0.0000 0.0000
# 5 0.0000 0.0000 0.0000 0.0000 -2.0653 0.0000
# 6 0.0000 0.0000 0.0000 0.0000 0.0000 20.6845
#
#
#
# Elastic Compliance Matrix: (Units=1/GPa)
#
#
# Indices 1 2 3 4 5 6 
#
# 1 0.019259 -0.014738 -0.004749 0.000000 0.000000 0.000000
# 2 -0.014738 0.042842 -0.006374 0.000000 0.000000 0.000000
# 3 -0.004749 -0.006374 0.012792 0.000000 0.000000 0.000000
# 4 0.000000 0.000000 0.000000 0.044671 0.000000 0.000000
# 5 0.000000 0.000000 0.000000 0.000000 -0.484197 0.000000
# 6 0.000000 0.000000 0.000000 0.000000 0.000000 0.048345
#
#
# Mechanical properties :
#
#
# Convention : Reuss Voigt Hill
#
# Bulk Modulus (GPa) = 43.16081 59.66107 51.41094
# Shear Modulus (GPa) = -19.46734 16.38191 -1.54271
#
# Velocity S-wave (km/s) = -3.71852 3.41114 -1.04679
# Velocity P-wave (km/s) = 3.49572 7.60862 5.92078
#
# Compressibility (1/GPa) = 0.02316916
#
# Stress axis : x y z
#
# Youngs Moduli (GPa) = 51.92472 23.34163 78.17292
#
# Poissons Ratio (x) = 0.34401 0.37128
# Poissons Ratio (y) = 0.76526 0.49830
# Poissons Ratio (z) = 0.24662 0.14879
#
# Static dielectric constant tensor:
#      x y z
#    x 1.435340 0.000000 0.000000 
#    y 0.000000 1.473140 0.000000 
#    z 0.000000 0.000000 1.491230 
# 
# From -- ./inp_files/60054.got.cif
#   From: 2010.05.17/outbox.ucp.g08.bks.cvg/sg65_31_cif.got.tgz:60054.got - 2010.06.11 16:39:57.
