data_PCOD9494693
_publ_section_title
;
Structure prediction by ZEFSAII (Michael W. Deem and Ramdas Pophale) SiO2 
 PCOD9494693
Probable space group: C M M M
;
_chemical_formula_sum "Si O2"
_cell_formula_units_Z 52
_cell_length_a 21.000000
_cell_length_b 27.000000
_cell_length_c 9.000000
_cell_angle_alpha 90.000000
_cell_angle_beta 90.000000
_cell_angle_gamma 90.000000
_cell_volume 5103.000000
_symmetry_space_group_name_H-M "C M M M"
_symmetry_group_IT_number 65
_symmetry_cell_setting 'orthorhombic'
loop_
_space_group_symop_operation_xyz
x,y,z
-x,-y,z
x,-y,-z
-x,y,-z
-x,-y,-z
x,y,-z
-x,y,z
x,-y,z
1/2+x,1/2+y,z
1/2-x,1/2-y,z
1/2+x,1/2-y,-z
1/2-x,1/2+y,-z
1/2-x,1/2-y,-z
1/2+x,1/2+y,-z
1/2-x,1/2+y,z
1/2+x,1/2-y,z
loop_
_atom_site_type_symbol
_atom_site_label
_atom_site_fract_x
_atom_site_fract_y
_atom_site_fract_z
Si Si1 0.149517 0.943337 0.670769
Si Si2 0.740642 0.139323 0.327324
Si Si3 0.575207 0.633266 0.831972
Si Si4 0.575786 0.000000 0.822851
Si Si5 0.115103 0.394083 0.822687
Si Si6 0.931253 0.708662 0.178899
Si Si7 0.156368 0.784885 0.324537
O O1 0.126142 0.941173 0.500000
O O2 0.208684 0.905658 0.679199
O O3 0.097826 0.920826 0.781493
O O4 0.166853 0.000000 0.703574
O O5 0.719994 0.143955 0.500000
O O6 0.684504 0.124190 0.220584
O O7 0.776349 0.190115 0.283794
O O8 0.500000 0.637250 0.829023
O O9 0.606474 0.672105 0.719890
O O10 0.597725 0.644231 0.000000
O O11 0.601668 0.051550 0.759326
O O12 0.500000 0.000000 0.809743
O O13 0.590942 0.000000 0.000000
O O14 0.070979 0.348650 0.774198
O O15 0.107353 0.397393 0.000000
O O16 0.871223 0.737092 0.244720
O O17 0.000000 0.730438 0.224021
O O18 0.927903 0.711347 0.000000
O O19 0.157387 0.776819 0.500000
#
# Coordination Sequence:
#
# PCOD9494693 Si02
#       7
#    16  16  16   8  16  16  16
#     4   9  19  35  53  73 101 142 188 230 276 334
#     4   9  20  37  55  78 110 146 183 228 281 330
#     4  10  20  33  50  75 107 141 179 227 284 337
#     4   9  18  36  61  87 117 151 188 231 278 331
#     4  10  21  36  58  87 114 146 188 231 277 334
#     4  10  21  37  57  83 115 148 183 228 284 337
#     4  10  21  37  57  80 108 146 189 229 274 333
#
# _framework density 10.190084000000001
#
# number of rings (size 3 to 8) (size 9 to 14) (size 15 to 20)
#    0.000    2.385    0.000    2.769    1.077   10.154 
#    0.000    4.615    0.000    1.846    0.000    0.000 
#    0.000    0.000    0.000    0.000    0.000    0.000 
#
# Total GULP energy -289964.808718 kJ/mol
# GULP energy per Si atom -5576.246321 kJ/mol
# Density = 1.016689 g / cm^3
# Si number density = 10.190084 Si / 1000 Ang^3
#
#
#
# Elastic Constant Matrix: (Units=GPa)
#
#
# Indices 1 2 3 4 5 6 
#
# 1 -31.9009 20.4311 -42.2495 0.0000 0.0000 0.0000
# 2 20.4311 136.9883 5.8458 0.0000 0.0000 0.0000
# 3 -42.2495 5.8458 -39.4621 0.0000 0.0000 0.0000
# 4 0.0000 0.0000 0.0000 11.9425 0.0000 0.0000
# 5 0.0000 0.0000 0.0000 0.0000 41.8244 0.0000
# 6 0.0000 0.0000 0.0000 0.0000 0.0000 16.8638
#
#
#
# Elastic Compliance Matrix: (Units=1/GPa)
#
#
# Indices 1 2 3 4 5 6 
#
# 1 0.084205 -0.008657 -0.091435 0.000000 0.000000 0.000000
# 2 -0.008657 0.008144 0.010475 0.000000 0.000000 0.000000
# 3 -0.091435 0.010475 0.074104 0.000000 0.000000 0.000000
# 4 0.000000 0.000000 0.000000 0.083734 0.000000 0.000000
# 5 0.000000 0.000000 0.000000 0.000000 0.023909 0.000000
# 6 0.000000 0.000000 0.000000 0.000000 0.000000 0.059299
#
#
# Mechanical properties :
#
#
# Convention : Reuss Voigt Hill
#
# Bulk Modulus (GPa) = -78.24149 3.74226 -37.24962
# Shear Modulus (GPa) = 9.83536 19.56600 14.70068
#
# Velocity S-wave (km/s) = 2.19919 3.10183 2.68866
# Velocity P-wave (km/s) = 5.65913 3.82997 2.94594
#
# Compressibility (1/GPa) = -0.01278094
#
# Stress axis : x y z
#
# Youngs Moduli (GPa) = 11.87579 122.78943 13.49450
#
# Poissons Ratio (x) = 1.06297 1.23387
# Poissons Ratio (y) = 0.10281 -0.14135
# Poissons Ratio (z) = 1.08586 -1.28619
#
# Static dielectric constant tensor:
#      x y z
#    x 1.740150 0.000000 0.000000 
#    y 0.000000 1.772900 0.000000 
#    z 0.000000 0.000000 1.700350 
# 
# From -- ./inp_files/12406.got.cif
#   From: 2010.05.17/outbox.ucp.g08.bks.cvg/sg65_7_cif.got.tgz:12406.got - 2010.06.11 16:39:57.
