data_PCOD9494699
_publ_section_title
;
Structure prediction by ZEFSAII (Michael W. Deem and Ramdas Pophale) SiO2 
 PCOD9494699
Probable space group: C M M M
;
_chemical_formula_sum "Si O2"
_cell_formula_units_Z 48
_cell_length_a 9.000000
_cell_length_b 21.000000
_cell_length_c 27.000000
_cell_angle_alpha 90.000000
_cell_angle_beta 90.000000
_cell_angle_gamma 90.000000
_cell_volume 5103.000000
_symmetry_space_group_name_H-M "C M M M"
_symmetry_group_IT_number 65
_symmetry_cell_setting 'orthorhombic'
loop_
_space_group_symop_operation_xyz
x,y,z
-x,-y,z
x,-y,-z
-x,y,-z
-x,-y,-z
x,y,-z
-x,y,z
x,-y,z
1/2+x,1/2+y,z
1/2-x,1/2-y,z
1/2+x,1/2-y,-z
1/2-x,1/2+y,-z
1/2-x,1/2-y,-z
1/2+x,1/2+y,-z
1/2-x,1/2+y,z
1/2+x,1/2-y,z
loop_
_atom_site_type_symbol
_atom_site_label
_atom_site_fract_x
_atom_site_fract_y
_atom_site_fract_z
Si Si1 0.169380 0.424536 0.350675
Si Si2 0.178106 0.425697 0.882371
Si Si3 0.333386 0.683476 0.058928
Si Si4 0.674886 0.687792 0.299637
Si Si5 0.822770 0.314215 0.192595
Si Si6 0.165015 0.923089 0.444682
O O1 0.194627 0.500000 0.342356
O O2 0.284536 0.378816 0.324230
O O3 0.201168 0.409707 0.408065
O O4 0.000000 0.410088 0.336290
O O5 0.227004 0.500000 0.880033
O O6 0.251717 0.380662 0.923599
O O7 0.208413 0.381127 0.834552
O O8 0.000000 0.426617 0.889345
O O9 0.500000 0.685663 0.080330
O O10 0.250000 0.750000 0.069017
O O11 0.343369 0.680164 0.000000
O O12 0.500000 0.697778 0.295710
O O13 0.750000 0.750000 0.324636
O O14 0.751977 0.682744 0.246397
O O15 0.750000 0.250000 0.170212
O O16 0.000000 0.305941 0.193980
O O17 0.186442 0.898633 0.500000
O O18 0.000000 0.902379 0.426903
O O19 0.158449 0.000000 0.447144
#
# Coordination Sequence:
#
# PCOD9494699 Si02
#       6
#    16  16  16  16  16  16
#     4  10  20  33  51  77 108 140 175 217 264 313
#     4  10  22  38  56  81 113 147 179 216 266 318
#     4  10  21  37  58  83 110 143 184 227 268 313
#     4  11  22  37  57  79 105 138 177 218 264 318
#     4  10  20  36  57  79 104 136 177 220 262 312
#     4   8  14  26  45  70 101 136 174 216 260 307
#
# _framework density 9.4062319999999993
#
# number of rings (size 3 to 8) (size 9 to 14) (size 15 to 20)
#    0.000    2.167    0.000    5.000    0.000    6.333 
#    0.000    5.000    0.000    0.500    0.000    0.000 
#    0.000    0.000    0.000    0.000    0.000    0.000 
#
# Total GULP energy -267202.369606 kJ/mol
# GULP energy per Si atom -5566.716033 kJ/mol
# Density = 0.938482 g / cm^3
# Si number density = 9.406232 Si / 1000 Ang^3
#
#
#
# Elastic Constant Matrix: (Units=GPa)
#
#
# Indices 1 2 3 4 5 6 
#
# 1 44.6483 47.0239 19.7105 0.0000 0.0000 0.0000
# 2 47.0239 134.4470 26.9521 0.0000 0.0000 0.0000
# 3 19.7105 26.9521 52.2328 0.0000 0.0000 0.0000
# 4 0.0000 0.0000 0.0000 13.6707 0.0000 0.0000
# 5 0.0000 0.0000 0.0000 0.0000 23.7803 0.0000
# 6 0.0000 0.0000 0.0000 0.0000 0.0000 32.4807
#
#
#
# Elastic Compliance Matrix: (Units=1/GPa)
#
#
# Indices 1 2 3 4 5 6 
#
# 1 0.038546 -0.011785 -0.008465 0.000000 0.000000 0.000000
# 2 -0.011785 0.011899 -0.001693 0.000000 0.000000 0.000000
# 3 -0.008465 -0.001693 0.023213 0.000000 0.000000 0.000000
# 4 0.000000 0.000000 0.000000 0.073149 0.000000 0.000000
# 5 0.000000 0.000000 0.000000 0.000000 0.042052 0.000000
# 6 0.000000 0.000000 0.000000 0.000000 0.000000 0.030788
#
#
# Mechanical properties :
#
#
# Convention : Reuss Voigt Hill
#
# Bulk Modulus (GPa) = 33.58731 46.52234 40.05483
# Shear Modulus (GPa) = 18.28454 23.16246 20.72350
#
# Velocity S-wave (km/s) = 3.12097 3.51269 3.32261
# Velocity P-wave (km/s) = 5.55696 6.42147 6.00479
#
# Compressibility (1/GPa) = 0.02977315
#
# Stress axis : x y z
#
# Youngs Moduli (GPa) = 25.94300 84.04007 43.07980
#
# Poissons Ratio (x) = 0.99040 0.36466
# Poissons Ratio (y) = 0.30574 0.07292
# Poissons Ratio (z) = 0.21960 0.14226
#
# Static dielectric constant tensor:
#      x y z
#    x 1.666510 0.000000 0.000000 
#    y 0.000000 1.591910 0.000000 
#    z 0.000000 0.000000 1.734640 
# 
# From -- ./inp_files/73199.got.cif
#   From: 2010.05.17/outbox.ucp.g08.bks.cvg/sg65_37_cif.got.tgz:73199.got - 2010.06.11 16:39:57.
