data_PCOD9494636
_publ_section_title
;
Structure prediction by ZEFSAII (Michael W. Deem and Ramdas Pophale) SiO2 
 PCOD9494636
Probable space group: C M M M
;
_chemical_formula_sum "Si O2"
_cell_formula_units_Z 36
_cell_length_a 9.000000
_cell_length_b 15.000000
_cell_length_c 27.000000
_cell_angle_alpha 90.000000
_cell_angle_beta 90.000000
_cell_angle_gamma 90.000000
_cell_volume 3645.000000
_symmetry_space_group_name_H-M "C M M M"
_symmetry_group_IT_number 65
_symmetry_cell_setting 'orthorhombic'
loop_
_space_group_symop_operation_xyz
x,y,z
-x,-y,z
x,-y,-z
-x,y,-z
-x,-y,-z
x,y,-z
-x,y,z
x,-y,z
1/2+x,1/2+y,z
1/2-x,1/2-y,z
1/2+x,1/2-y,-z
1/2-x,1/2+y,-z
1/2-x,1/2-y,-z
1/2+x,1/2+y,-z
1/2-x,1/2+y,z
1/2+x,1/2-y,z
loop_
_atom_site_type_symbol
_atom_site_label
_atom_site_fract_x
_atom_site_fract_y
_atom_site_fract_z
Si Si1 0.828260 0.109038 0.342250
Si Si2 0.180141 0.000000 0.942066
Si Si3 0.174143 0.608551 0.555232
Si Si4 0.670492 0.107778 0.760192
Si Si5 0.179051 0.844193 0.134943
O O1 0.758287 0.138289 0.394944
O O2 0.742827 0.137354 0.292099
O O3 0.000000 0.136205 0.339431
O O4 0.823539 0.000000 0.342517
O O5 0.222374 0.084373 0.907539
O O6 0.000000 0.000000 0.944465
O O7 0.231846 0.000000 0.000000
O O8 0.228501 0.636811 0.500000
O O9 0.181578 0.500000 0.555253
O O10 0.000000 0.632464 0.559057
O O11 0.500000 0.139890 0.763872
O O12 0.759657 0.132767 0.809971
O O13 0.668009 0.000000 0.758640
O O14 0.250000 0.750000 0.121367
O O15 0.000000 0.840991 0.137186
#
# Coordination Sequence:
#
# PCOD9494636 Si02
#       5
#    16   8  16  16  16
#     4   9  16  24  37  60  90 127 174 225 282 345
#     4   9  20  40  65  91 123 163 200 237 286 341
#     4   8  13  21  32  48  77 120 169 221 278 338
#     4  10  19  32  52  76 106 143 187 237 290 347
#     4  11  22  38  61  89 121 157 198 242 290 344
#
# _framework density 9.8765429999999999
#
# number of rings (size 3 to 8) (size 9 to 14) (size 15 to 20)
#    0.000    2.556    1.111    2.667    0.000    4.444 
#    0.000    2.222    0.000    4.667    0.000    0.000 
#    0.000    0.889    0.000    3.333    0.000    7.778 
#
# Total GULP energy -200929.407116 kJ/mol
# GULP energy per Si atom -5581.372420 kJ/mol
# Density = 0.985406 g / cm^3
# Si number density = 9.876543 Si / 1000 Ang^3
#
#
#
# Elastic Constant Matrix: (Units=GPa)
#
#
# Indices 1 2 3 4 5 6 
#
# 1 113.5811 32.4688 87.4582 0.0000 0.0000 0.0000
# 2 32.4688 71.7502 53.1911 0.0000 0.0000 0.0000
# 3 87.4582 53.1911 236.1050 0.0000 0.0000 0.0000
# 4 0.0000 0.0000 0.0000 -5.2596 0.0000 0.0000
# 5 0.0000 0.0000 0.0000 0.0000 34.4408 0.0000
# 6 0.0000 0.0000 0.0000 0.0000 0.0000 15.3518
#
#
#
# Elastic Compliance Matrix: (Units=1/GPa)
#
#
# Indices 1 2 3 4 5 6 
#
# 1 0.012746 -0.002722 -0.004108 0.000000 0.000000 0.000000
# 2 -0.002722 0.017313 -0.002892 0.000000 0.000000 0.000000
# 3 -0.004108 -0.002892 0.006409 0.000000 0.000000 0.000000
# 4 0.000000 0.000000 0.000000 -0.190129 0.000000 0.000000
# 5 0.000000 0.000000 0.000000 0.000000 0.029035 0.000000
# 6 0.000000 0.000000 0.000000 0.000000 0.000000 0.065139
#
#
# Mechanical properties :
#
#
# Convention : Reuss Voigt Hill
#
# Bulk Modulus (GPa) = 58.74475 85.29692 72.02083
# Shear Modulus (GPa) = -145.48403 25.46114 -60.01145
#
# Velocity S-wave (km/s) = -8.59134 3.59412 -5.51786
# Velocity P-wave (km/s) = 8.28316 7.77810 2.01394
#
# Compressibility (1/GPa) = 0.01702280
#
# Stress axis : x y z
#
# Youngs Moduli (GPa) = 78.45806 57.75967 156.04038
#
# Poissons Ratio (x) = 0.15724 0.64101
# Poissons Ratio (y) = 0.21359 0.45127
# Poissons Ratio (z) = 0.32230 0.16704
#
# Static dielectric constant tensor:
#      x y z
#    x 1.680170 0.000000 0.000000 
#    y 0.000000 1.735560 0.000000 
#    z 0.000000 0.000000 1.673410 
# 
# From -- ./inp_files/72526.got.cif
#   From: 2010.05.17/outbox.ucp.g08.bks.cvg/sg65_37_cif.got.tgz:72526.got - 2010.06.11 16:39:57.
