data_PCOD9494992
_publ_section_title
;
Structure prediction by ZEFSAII (Michael W. Deem and Ramdas Pophale) SiO2 
 PCOD9494992
Probable space group: C C C M
;
_chemical_formula_sum "Si O2"
_cell_formula_units_Z 80
_cell_length_a 28.171113
_cell_length_b 7.382357
_cell_length_c 17.553347
_cell_angle_alpha 90.000000
_cell_angle_beta 90.000000
_cell_angle_gamma 90.000000
_cell_volume 3650.555766
_symmetry_space_group_name_H-M "C C C M"
_symmetry_group_IT_number 66
_symmetry_cell_setting 'orthorhombic'
loop_
_space_group_symop_operation_xyz
x,y,z
-x,-y,z
x,-y,1/2-z
-x,y,1/2-z
-x,-y,-z
x,y,-z
-x,y,1/2+z
x,-y,1/2+z
1/2+x,1/2+y,z
1/2-x,1/2-y,z
1/2+x,1/2-y,1/2-z
1/2-x,1/2+y,1/2-z
1/2-x,1/2-y,-z
1/2+x,1/2+y,-z
1/2-x,1/2+y,1/2+z
1/2+x,1/2-y,1/2+z
loop_
_atom_site_type_symbol
_atom_site_label
_atom_site_fract_x
_atom_site_fract_y
_atom_site_fract_z
Si Si1 0.448201 0.965079 0.913383
Si Si2 0.949226 0.968436 0.586846
Si Si3 0.350956 0.966167 0.161195
Si Si4 0.253816 0.028887 0.588265
Si Si5 0.848715 0.060734 0.093657
O O1 0.444229 0.748026 0.916867
O O2 0.400217 0.035421 0.875279
O O3 0.500000 0.000000 0.877398
O O4 0.449805 0.035248 0.000000
O O5 0.953097 0.039873 0.500000
O O6 0.898201 0.033524 0.616582
O O7 0.000000 0.000000 0.625801
O O8 0.300058 0.036790 0.132137
O O9 0.348862 0.754913 0.135364
O O10 0.353922 0.000000 0.250000
O O11 0.260905 0.982632 0.500000
O O12 0.250000 0.250000 0.592316
O O13 0.201215 0.966721 0.612432
O O14 0.849347 0.086416 0.000000
#
# Coordination Sequence:
#
# PCOD9494992 Si02
#       5
#    16  16  16  16  16
#     4   9  17  29  44  64  92 123 153 184 222 274
#     4   8  13  23  43  70  92 110 142 188 229 266
#     4  10  17  24  39  65  92 116 143 182 231 280
#     4   8  13  24  43  63  84 112 148 190 231 272
#     4   8  14  26  45  68  92 116 149 194 237 277
#
# _framework density 21.914473000000001
#
# number of rings (size 3 to 8) (size 9 to 14) (size 15 to 20)
#    0.000    3.400    0.000    4.200    0.000    0.400 
#    0.000    0.000    0.000    7.200    0.000    9.800 
#    0.000   60.000    0.000    0.000    0.000   12.800 
#
# Total GULP energy -222687.069334 kJ/mol
# GULP energy per Si atom -5567.176733 kJ/mol
# Density = 2.186459 g / cm^3
# Si number density = 21.914473 Si / 1000 Ang^3
#
#
#
# Elastic Constant Matrix: (Units=GPa)
#
#
# Indices 1 2 3 4 5 6 
#
# 1 310.6583 11.6195 69.8412 0.0000 0.0000 0.0000
# 2 11.6195 74.9542 11.9192 0.0000 0.0000 0.0000
# 3 69.8412 11.9192 52.1662 0.0000 0.0000 0.0000
# 4 0.0000 0.0000 0.0000 -6.1533 0.0000 0.0000
# 5 0.0000 0.0000 0.0000 0.0000 -7.8054 0.0000
# 6 0.0000 0.0000 0.0000 0.0000 0.0000 11.7853
#
#
#
# Elastic Compliance Matrix: (Units=1/GPa)
#
#
# Indices 1 2 3 4 5 6 
#
# 1 0.004611 0.000277 -0.006236 0.000000 0.000000 0.000000
# 2 0.000277 0.013861 -0.003538 0.000000 0.000000 0.000000
# 3 -0.006236 -0.003538 0.028327 0.000000 0.000000 0.000000
# 4 0.000000 0.000000 0.000000 -0.162514 0.000000 0.000000
# 5 0.000000 0.000000 0.000000 0.000000 -0.128116 0.000000
# 6 0.000000 0.000000 0.000000 0.000000 0.000000 0.084851
#
#
# Mechanical properties :
#
#
# Convention : Reuss Voigt Hill
#
# Bulk Modulus (GPa) = 35.96520 69.39316 52.67918
# Shear Modulus (GPa) = -38.25017 22.52523 -7.86247
#
# Velocity S-wave (km/s) = -4.18237 3.20952 -1.89620
# Velocity P-wave (km/s) = 2.62215 6.74306 4.39279
#
# Compressibility (1/GPa) = 0.02780465
#
# Stress axis : x y z
#
# Youngs Moduli (GPa) = 216.89284 72.14413 35.30236
#
# Poissons Ratio (x) = -0.01998 0.22015
# Poissons Ratio (y) = -0.06006 0.12489
# Poissons Ratio (z) = 1.35254 0.25523
#
# Static dielectric constant tensor:
#      x y z
#    x 1.931960 0.000000 0.000000 
#    y 0.000000 1.949000 0.000000 
#    z 0.000000 0.000000 1.732870 
# 
# From -- ./inp_files/26710.got.cif
#   From: 2010.05.17/outbox.cif.g08.bks.cpg/sg66_14_cif.got.tgz:26710.got - 2010.06.03 17:51:23.
