data_PCOD9494734
_publ_section_title
;
Structure prediction by ZEFSAII (Michael W. Deem and Ramdas Pophale) SiO2 
 PCOD9494734
Probable space group: C M M M
;
_chemical_formula_sum "Si O2"
_cell_formula_units_Z 48
_cell_length_a 24.000000
_cell_length_b 9.000000
_cell_length_c 24.000000
_cell_angle_alpha 90.000000
_cell_angle_beta 90.000000
_cell_angle_gamma 90.000000
_cell_volume 5184.000000
_symmetry_space_group_name_H-M "C M M M"
_symmetry_group_IT_number 65
_symmetry_cell_setting 'orthorhombic'
loop_
_space_group_symop_operation_xyz
x,y,z
-x,-y,z
x,-y,-z
-x,y,-z
-x,-y,-z
x,y,-z
-x,y,z
x,-y,z
1/2+x,1/2+y,z
1/2-x,1/2-y,z
1/2+x,1/2-y,-z
1/2-x,1/2+y,-z
1/2-x,1/2-y,-z
1/2+x,1/2+y,-z
1/2-x,1/2+y,z
1/2+x,1/2-y,z
loop_
_atom_site_type_symbol
_atom_site_label
_atom_site_fract_x
_atom_site_fract_y
_atom_site_fract_z
Si Si1 0.000000 0.180234 0.289909
Si Si2 0.085434 0.820944 0.062097
Si Si3 0.808960 0.676622 0.236482
Si Si4 0.500000 0.319838 0.157860
Si Si5 0.190033 0.321992 0.890293
Si Si6 0.811002 0.821613 0.433816
Si Si7 0.888663 0.679705 0.660425
O O1 0.000000 0.227417 0.223247
O O2 0.946995 0.245341 0.323019
O O3 0.000000 0.000000 0.290936
O O4 0.050900 0.773631 0.117147
O O5 0.145253 0.747525 0.068905
O O6 0.088495 0.000000 0.064264
O O7 0.063075 0.783666 0.000000
O O8 0.801756 0.500000 0.236301
O O9 0.750000 0.750000 0.248160
O O10 0.826359 0.718887 0.173762
O O11 0.851012 0.714000 0.285357
O O12 0.500000 0.500000 0.159936
O O13 0.192365 0.500000 0.894858
O O14 0.250000 0.250000 0.899894
O O15 0.822580 0.796336 0.500000
O O16 0.750000 0.750000 0.422088
O O17 0.857006 0.747799 0.393343
O O18 0.808814 0.000000 0.424758
O O19 0.893681 0.500000 0.654683
#
# Coordination Sequence:
#
# PCOD9494734 Si02
#       7
#     8  16  16   8  16  16  16
#     4  11  23  38  58  83 112 148 189 231 280 337
#     4  10  20  35  56  80 105 136 177 224 273 327
#     4   9  19  33  52  79 108 140 177 223 277 330
#     4   9  19  37  60  83 107 140 181 226 276 331
#     4  10  20  35  53  75 106 141 178 220 271 331
#     4  10  21  38  61  90 123 157 193 233 276 322
#     4  11  22  37  57  83 116 151 190 234 281 333
#
# _framework density 9.2592590000000001
#
# number of rings (size 3 to 8) (size 9 to 14) (size 15 to 20)
#    0.000    2.000    0.000    3.500    0.000    6.000 
#    0.000    1.667    0.000    3.500    0.000    0.000 
#    0.000    0.000    0.000    0.000    0.000    0.000 
#
# Total GULP energy -267765.821256 kJ/mol
# GULP energy per Si atom -5578.454610 kJ/mol
# Density = 0.923818 g / cm^3
# Si number density = 9.259259 Si / 1000 Ang^3
#
#
#
# Elastic Constant Matrix: (Units=GPa)
#
#
# Indices 1 2 3 4 5 6 
#
# 1 135.4408 52.9440 100.7510 0.0000 0.0000 0.0000
# 2 52.9440 49.5971 55.5100 0.0000 0.0000 0.0000
# 3 100.7510 55.5100 121.4371 0.0000 0.0000 0.0000
# 4 0.0000 0.0000 0.0000 27.1835 0.0000 0.0000
# 5 0.0000 0.0000 0.0000 0.0000 57.7738 0.0000
# 6 0.0000 0.0000 0.0000 0.0000 0.0000 26.7792
#
#
#
# Elastic Compliance Matrix: (Units=1/GPa)
#
#
# Indices 1 2 3 4 5 6 
#
# 1 0.020043 -0.005701 -0.014023 0.000000 0.000000 0.000000
# 2 -0.005701 0.042905 -0.014882 0.000000 0.000000 0.000000
# 3 -0.014023 -0.014882 0.026672 0.000000 0.000000 0.000000
# 4 0.000000 0.000000 0.000000 0.036787 0.000000 0.000000
# 5 0.000000 0.000000 0.000000 0.000000 0.017309 0.000000
# 6 0.000000 0.000000 0.000000 0.000000 0.000000 0.037342
#
#
# Mechanical properties :
#
#
# Convention : Reuss Voigt Hill
#
# Bulk Modulus (GPa) = 49.00231 80.54277 64.77254
# Shear Modulus (GPa) = 19.44976 28.83196 24.14086
#
# Velocity S-wave (km/s) = 3.24433 3.95007 3.61447
# Velocity P-wave (km/s) = 6.36812 8.02444 7.24377
#
# Compressibility (1/GPa) = 0.02040720
#
# Stress axis : x y z
#
# Youngs Moduli (GPa) = 49.89232 23.30751 37.49278
#
# Poissons Ratio (x) = 0.13287 0.52576
# Poissons Ratio (y) = 0.28443 0.55798
# Poissons Ratio (z) = 0.69964 0.34687
#
# Static dielectric constant tensor:
#      x y z
#    x 1.755530 0.000000 0.000000 
#    y 0.000000 1.615030 0.000000 
#    z 0.000000 0.000000 1.643650 
# 
# From -- ./inp_files/71471.got.cif
#   From: 2010.05.17/outbox.ucp.g08.bks.cvg/sg65_36_cif.got.tgz:71471.got - 2010.06.11 16:39:57.
