data_PCOD9494389
_publ_section_title
;
Structure prediction by ZEFSAII (Michael W. Deem and Ramdas Pophale) SiO2 
 PCOD9494389
Probable space group: C M M M
;
_chemical_formula_sum "Si O2"
_cell_formula_units_Z 88
_cell_length_a 15.239039
_cell_length_b 7.331155
_cell_length_c 34.607213
_cell_angle_alpha 90.000000
_cell_angle_beta 90.000000
_cell_angle_gamma 90.000000
_cell_volume 3866.309425
_symmetry_space_group_name_H-M "C M M M"
_symmetry_group_IT_number 65
_symmetry_cell_setting 'orthorhombic'
loop_
_space_group_symop_operation_xyz
x,y,z
-x,-y,z
x,-y,-z
-x,y,-z
-x,-y,-z
x,y,-z
-x,y,z
x,-y,z
1/2+x,1/2+y,z
1/2-x,1/2-y,z
1/2+x,1/2-y,-z
1/2-x,1/2+y,-z
1/2-x,1/2-y,-z
1/2+x,1/2+y,-z
1/2-x,1/2+y,z
1/2+x,1/2-y,z
loop_
_atom_site_type_symbol
_atom_site_label
_atom_site_fract_x
_atom_site_fract_y
_atom_site_fract_z
Si Si1 0.603224 0.704359 0.500000
Si Si2 0.646134 0.717872 0.125913
Si Si3 0.500000 0.276948 0.726489
Si Si4 0.354049 0.282024 0.332733
Si Si5 0.646884 0.283363 0.583494
Si Si6 0.644766 0.282320 0.958495
Si Si7 0.000000 0.776913 0.185047
O O1 0.646061 0.500000 0.500000
O O2 0.500000 0.683311 0.500000
O O3 0.623734 0.792142 0.458682
O O4 0.635206 0.500000 0.124302
O O5 0.750000 0.750000 0.131210
O O6 0.616488 0.787894 0.083498
O O7 0.585221 0.782520 0.160686
O O8 0.500000 0.500000 0.727199
O O9 0.585367 0.217860 0.702188
O O10 0.500000 0.216198 0.770718
O O11 0.364122 0.500000 0.334618
O O12 0.250000 0.250000 0.327411
O O13 0.386164 0.213756 0.375007
O O14 0.625306 0.500000 0.581706
O O15 0.750000 0.250000 0.586830
O O16 0.629197 0.500000 0.958683
O O17 0.750000 0.250000 0.958642
O O18 0.611366 0.212005 0.000000
O O19 0.000000 0.000000 0.185894
#
# Coordination Sequence:
#
# PCOD9494389 Si02
#       7
#     8  16   8  16  16  16   8
#     4   9  17  26  41  67  92 115 148 186 216 249
#     4   9  17  30  48  68  92 123 155 189 229 273
#     4   9  18  32  51  71  93 123 155 189 231 282
#     4   9  18  32  51  73  95 121 155 192 231 276
#     4   9  17  29  46  66  89 117 147 182 221 262
#     4   8  13  22  38  61  87 115 148 184 222 264
#     4   9  18  32  48  69  95 122 153 189 233 282
#
# _framework density 22.760725000000001
#
# number of rings (size 3 to 8) (size 9 to 14) (size 15 to 20)
#    0.000    3.182    0.000    0.273    1.273    0.727 
#    0.000    1.364    0.000    4.909    0.000    0.000 
#    0.000   14.545    0.000    0.000    0.000    0.000 
#
# Total GULP energy -245239.894925 kJ/mol
# GULP energy per Si atom -5573.633976 kJ/mol
# Density = 2.270892 g / cm^3
# Si number density = 22.760725 Si / 1000 Ang^3
#
#
#
# Elastic Constant Matrix: (Units=GPa)
#
#
# Indices 1 2 3 4 5 6 
#
# 1 95.5076 -5.7519 103.4366 0.0000 0.0000 0.0000
# 2 -5.7519 93.9165 15.0666 0.0000 0.0000 0.0000
# 3 103.4366 15.0666 314.8036 0.0000 0.0000 0.0000
# 4 0.0000 0.0000 0.0000 3.7489 0.0000 0.0000
# 5 0.0000 0.0000 0.0000 0.0000 50.1814 0.0000
# 6 0.0000 0.0000 0.0000 0.0000 0.0000 5.3313
#
#
#
# Elastic Compliance Matrix: (Units=1/GPa)
#
#
# Indices 1 2 3 4 5 6 
#
# 1 0.016586 0.001905 -0.005541 0.000000 0.000000 0.000000
# 2 0.001905 0.010949 -0.001150 0.000000 0.000000 0.000000
# 3 -0.005541 -0.001150 0.005052 0.000000 0.000000 0.000000
# 4 0.000000 0.000000 0.000000 0.266742 0.000000 0.000000
# 5 0.000000 0.000000 0.000000 0.000000 0.019928 0.000000
# 6 0.000000 0.000000 0.000000 0.000000 0.000000 0.187571
#
#
# Mechanical properties :
#
#
# Convention : Reuss Voigt Hill
#
# Bulk Modulus (GPa) = 43.44999 81.08117 62.26558
# Shear Modulus (GPa) = 9.54068 37.95075 23.74572
#
# Velocity S-wave (km/s) = 2.04959 4.08779 3.23348
# Velocity P-wave (km/s) = 4.97317 7.61450 6.43090
#
# Compressibility (1/GPa) = 0.02301496
#
# Stress axis : x y z
#
# Youngs Moduli (GPa) = 60.29185 91.33363 197.93285
#
# Poissons Ratio (x) = -0.17396 1.09673
# Poissons Ratio (y) = -0.11484 0.22759
# Poissons Ratio (z) = 0.33407 0.10502
#
# Static dielectric constant tensor:
#      x y z
#    x 1.795420 0.000000 0.000000 
#    y 0.000000 1.849660 0.000000 
#    z 0.000000 0.000000 1.895730 
# 
# From -- ./inp_files/78025.got.cif
#   From: 2010.05.17/outbox.cif.g08.bks.cpg/sg65_40_cif.got.tgz:78025.got - 2010.06.03 17:01:31.
