data_PCOD9494584
_publ_section_title
;
Structure prediction by ZEFSAII (Michael W. Deem and Ramdas Pophale) SiO2 
 PCOD9494584
Probable space group: C M M M
;
_chemical_formula_sum "Si O2"
_cell_formula_units_Z 52
_cell_length_a 27.000000
_cell_length_b 9.000000
_cell_length_c 21.000000
_cell_angle_alpha 90.000000
_cell_angle_beta 90.000000
_cell_angle_gamma 90.000000
_cell_volume 5103.000000
_symmetry_space_group_name_H-M "C M M M"
_symmetry_group_IT_number 65
_symmetry_cell_setting 'orthorhombic'
loop_
_space_group_symop_operation_xyz
x,y,z
-x,-y,z
x,-y,-z
-x,y,-z
-x,-y,-z
x,y,-z
-x,y,z
x,-y,z
1/2+x,1/2+y,z
1/2-x,1/2-y,z
1/2+x,1/2-y,-z
1/2-x,1/2+y,-z
1/2-x,1/2-y,-z
1/2+x,1/2+y,-z
1/2-x,1/2+y,z
1/2+x,1/2-y,z
loop_
_atom_site_type_symbol
_atom_site_label
_atom_site_fract_x
_atom_site_fract_y
_atom_site_fract_z
Si Si1 0.442722 0.667705 0.725117
Si Si2 0.000000 0.680512 0.070772
Si Si3 0.698256 0.822847 0.686189
Si Si4 0.094661 0.321284 0.152106
Si Si5 0.149057 0.826603 0.431875
Si Si6 0.300043 0.824014 0.165502
Si Si7 0.443134 0.831179 0.594962
O O1 0.500000 0.658771 0.745061
O O2 0.427401 0.500000 0.705257
O O3 0.412807 0.730031 0.783772
O O4 0.441502 0.787970 0.669230
O O5 0.049990 0.721805 0.106655
O O6 0.000000 0.500000 0.068797
O O7 0.000000 0.739534 0.000000
O O8 0.750000 0.750000 0.668375
O O9 0.663345 0.760079 0.631671
O O10 0.690703 0.780389 0.760172
O O11 0.698756 0.000000 0.683284
O O12 0.091580 0.500000 0.165010
O O13 0.149857 0.290604 0.127800
O O14 0.171593 0.776707 0.500000
O O15 0.091081 0.791488 0.435960
O O16 0.159502 0.000000 0.424395
O O17 0.250000 0.750000 0.142768
O O18 0.292569 0.000000 0.165770
O O19 0.500000 0.823169 0.574973
O O20 0.425477 0.000000 0.583716
#
# Coordination Sequence:
#
# PCOD9494584 Si02
#       7
#    16   8  16  16  16  16  16
#     4  10  19  30  48  77 109 137 171 215 273 337
#     4   9  18  32  53  83 117 155 196 235 274 313
#     4  10  20  36  57  79 105 134 171 219 275 336
#     4  10  18  31  53  79 110 147 188 232 272 321
#     4  11  24  39  54  74 101 135 177 223 274 332
#     4   9  19  33  52  80 108 137 175 221 278 334
#     4  10  21  36  54  75 101 135 175 220 271 327
#
# _framework density 10.190084000000001
#
# number of rings (size 3 to 8) (size 9 to 14) (size 15 to 20)
#    0.000    2.077    0.769    2.769    0.000    5.846 
#    0.000    1.538    0.000    1.385    0.000    0.000 
#    0.000    0.000    0.000    0.000    0.000    0.000 
#
# Total GULP energy -289681.472371 kJ/mol
# GULP energy per Si atom -5570.797546 kJ/mol
# Density = 1.016689 g / cm^3
# Si number density = 10.190084 Si / 1000 Ang^3
#
#
#
# Elastic Constant Matrix: (Units=GPa)
#
#
# Indices 1 2 3 4 5 6 
#
# 1 137.3011 24.9102 40.2819 0.0000 0.0000 0.0000
# 2 24.9102 23.4738 6.2064 0.0000 0.0000 0.0000
# 3 40.2819 6.2064 21.6684 0.0000 0.0000 0.0000
# 4 0.0000 0.0000 0.0000 -28.0544 0.0000 0.0000
# 5 0.0000 0.0000 0.0000 0.0000 -7.8685 0.0000
# 6 0.0000 0.0000 0.0000 0.0000 0.0000 28.9176
#
#
#
# Elastic Compliance Matrix: (Units=1/GPa)
#
#
# Indices 1 2 3 4 5 6 
#
# 1 0.018459 -0.011377 -0.031057 0.000000 0.000000 0.000000
# 2 -0.011377 0.053104 0.005940 0.000000 0.000000 0.000000
# 3 -0.031057 0.005940 0.102184 0.000000 0.000000 0.000000
# 4 0.000000 0.000000 0.000000 -0.035645 0.000000 0.000000
# 5 0.000000 0.000000 0.000000 0.000000 -0.127089 0.000000
# 6 0.000000 0.000000 0.000000 0.000000 0.000000 0.034581
#
#
# Mechanical properties :
#
#
# Convention : Reuss Voigt Hill
#
# Bulk Modulus (GPa) = 9.92473 36.13783 23.03128
# Shear Modulus (GPa) = 32.85868 6.00193 19.43030
#
# Velocity S-wave (km/s) = 4.01969 1.71796 3.09106
# Velocity P-wave (km/s) = 5.14045 4.65892 4.90559
#
# Compressibility (1/GPa) = 0.10075840
#
# Stress axis : x y z
#
# Youngs Moduli (GPa) = 54.17434 18.83114 9.78629
#
# Poissons Ratio (x) = 0.21424 0.30393
# Poissons Ratio (y) = 0.61635 -0.05813
# Poissons Ratio (z) = 1.68248 -0.11186
#
# Static dielectric constant tensor:
#      x y z
#    x 1.856210 0.000000 0.000000 
#    y 0.000000 1.691080 0.000000 
#    z 0.000000 0.000000 1.749280 
# 
# From -- ./inp_files/65920.got.cif
#   From: 2010.05.17/outbox.ucp.g08.bks.cvg/sg65_33_cif.got.tgz:65920.got - 2010.06.11 16:39:57.
