data_PCOD9494556
_publ_section_title
;
Structure prediction by ZEFSAII (Michael W. Deem and Ramdas Pophale) SiO2 
 PCOD9494556
Probable space group: C M M M
;
_chemical_formula_sum "Si O2"
_cell_formula_units_Z 50
_cell_length_a 9.000000
_cell_length_b 30.000000
_cell_length_c 21.000000
_cell_angle_alpha 90.000000
_cell_angle_beta 90.000000
_cell_angle_gamma 90.000000
_cell_volume 5670.000000
_symmetry_space_group_name_H-M "C M M M"
_symmetry_group_IT_number 65
_symmetry_cell_setting 'orthorhombic'
loop_
_space_group_symop_operation_xyz
x,y,z
-x,-y,z
x,-y,-z
-x,y,-z
-x,-y,-z
x,y,-z
-x,y,z
x,-y,z
1/2+x,1/2+y,z
1/2-x,1/2-y,z
1/2+x,1/2-y,-z
1/2-x,1/2+y,-z
1/2-x,1/2-y,-z
1/2+x,1/2+y,-z
1/2-x,1/2+y,z
1/2+x,1/2-y,z
loop_
_atom_site_type_symbol
_atom_site_label
_atom_site_fract_x
_atom_site_fract_y
_atom_site_fract_z
Si Si1 0.319917 0.358951 0.306672
Si Si2 0.674816 0.674605 0.072949
Si Si3 0.277395 0.000000 0.000000
Si Si4 0.324399 0.430180 0.102705
Si Si5 0.678993 0.298311 0.426534
Si Si6 0.322848 0.796199 0.201416
Si Si7 0.819902 0.049925 0.750411
O O1 0.500000 0.356080 0.300576
O O2 0.278358 0.334467 0.372728
O O3 0.246217 0.333498 0.247359
O O4 0.275961 0.410702 0.297686
O O5 0.500000 0.686147 0.082323
O O6 0.687200 0.621274 0.082878
O O7 0.771994 0.695976 0.128555
O O8 0.715543 0.685817 0.000000
O O9 0.266671 0.961328 0.055667
O O10 0.500000 0.442925 0.095308
O O11 0.282292 0.437122 0.176511
O O12 0.719288 0.310173 0.500000
O O13 0.500000 0.294023 0.424252
O O14 0.750000 0.250000 0.412452
O O15 0.500000 0.795170 0.206136
O O16 0.250000 0.750000 0.223068
O O17 0.000000 0.048579 0.749066
O O18 0.765121 0.000000 0.736456
#
# Coordination Sequence:
#
# PCOD9494556 Si02
#       7
#    16  16   4  16  16  16  16
#     4  10  19  34  56  80 110 142 177 220 263 313
#     4  10  20  35  54  75 101 134 172 219 270 319
#     4  12  17  20  40  80 111 130 163 222 281 322
#     4  10  16  23  40  70 104 130 162 211 263 310
#     4   9  18  32  52  80 112 144 175 213 263 318
#     4  12  25  39  56  77 103 136 176 221 269 326
#     4   9  16  26  45  74 105 137 176 219 259 305
#
# _framework density 8.8183419999999995
#
# number of rings (size 3 to 8) (size 9 to 14) (size 15 to 20)
#    0.000    1.920    3.200    2.640    0.000    2.560 
#    0.000    0.000    0.000    0.960    0.000    3.920 
#    0.000    0.000    0.000    5.440    0.000    5.760 
#
# Total GULP energy -278518.555783 kJ/mol
# GULP energy per Si atom -5570.371116 kJ/mol
# Density = 0.879827 g / cm^3
# Si number density = 8.818342 Si / 1000 Ang^3
#
#
#
# Elastic Constant Matrix: (Units=GPa)
#
#
# Indices 1 2 3 4 5 6 
#
# 1 28.4771 17.9492 22.6623 0.0000 0.0000 0.0000
# 2 17.9492 105.0369 58.5496 0.0000 0.0000 0.0000
# 3 22.6623 58.5496 121.8803 0.0000 0.0000 0.0000
# 4 0.0000 0.0000 0.0000 18.6078 0.0000 0.0000
# 5 0.0000 0.0000 0.0000 0.0000 5.1110 0.0000
# 6 0.0000 0.0000 0.0000 0.0000 0.0000 6.2202
#
#
#
# Elastic Compliance Matrix: (Units=1/GPa)
#
#
# Indices 1 2 3 4 5 6 
#
# 1 0.042346 -0.003889 -0.006006 0.000000 0.000000 0.000000
# 2 -0.003889 0.013359 -0.005695 0.000000 0.000000 0.000000
# 3 -0.006006 -0.005695 0.012057 0.000000 0.000000 0.000000
# 4 0.000000 0.000000 0.000000 0.053741 0.000000 0.000000
# 5 0.000000 0.000000 0.000000 0.000000 0.195656 0.000000
# 6 0.000000 0.000000 0.000000 0.000000 0.000000 0.160767
#
#
# Mechanical properties :
#
#
# Convention : Reuss Voigt Hill
#
# Bulk Modulus (GPa) = 27.33374 50.41292 38.87333
# Shear Modulus (GPa) = 9.59142 16.40336 12.99739
#
# Velocity S-wave (km/s) = 2.33455 3.05301 2.71763
# Velocity P-wave (km/s) = 4.77480 6.40890 5.65123
#
# Compressibility (1/GPa) = 0.03658482
#
# Stress axis : x y z
#
# Youngs Moduli (GPa) = 23.61474 74.85477 82.93899
#
# Poissons Ratio (x) = 0.29108 0.49812
# Poissons Ratio (y) = 0.09183 0.47230
# Poissons Ratio (z) = 0.14183 0.42626
#
# Static dielectric constant tensor:
#      x y z
#    x 1.603910 0.000000 0.000000 
#    y 0.000000 1.631260 0.000000 
#    z 0.000000 0.000000 1.591700 
# 
# From -- ./inp_files/60883.got.cif
#   From: 2010.05.17/outbox.ucp.g08.bks.cvg/sg65_31_cif.got.tgz:60883.got - 2010.06.11 16:39:57.
