data_PCOD9494198
_publ_section_title
;
Structure prediction by ZEFSAII (Michael W. Deem and Ramdas Pophale) SiO2 
 PCOD9494198
Probable space group: C M M M
;
_chemical_formula_sum "Si O2"
_cell_formula_units_Z 72
_cell_length_a 29.343557
_cell_length_b 7.320538
_cell_length_c 16.422139
_cell_angle_alpha 90.000000
_cell_angle_beta 90.000000
_cell_angle_gamma 90.000000
_cell_volume 3527.649927
_symmetry_space_group_name_H-M "C M M M"
_symmetry_group_IT_number 65
_symmetry_cell_setting 'orthorhombic'
loop_
_space_group_symop_operation_xyz
x,y,z
-x,-y,z
x,-y,-z
-x,y,-z
-x,-y,-z
x,y,-z
-x,y,z
x,-y,z
1/2+x,1/2+y,z
1/2-x,1/2-y,z
1/2+x,1/2-y,-z
1/2-x,1/2+y,-z
1/2-x,1/2-y,-z
1/2+x,1/2+y,-z
1/2-x,1/2+y,z
1/2+x,1/2-y,z
loop_
_atom_site_type_symbol
_atom_site_label
_atom_site_fract_x
_atom_site_fract_y
_atom_site_fract_z
Si Si1 0.143468 0.776789 0.251170
Si Si2 0.448231 0.276859 0.821570
Si Si3 0.695843 0.717756 0.089772
Si Si4 0.555483 0.292635 0.000000
Si Si5 0.803506 0.217971 0.590777
O O1 0.090723 0.724787 0.241250
O O2 0.170082 0.714896 0.169915
O O3 0.167152 0.712422 0.333715
O O4 0.145426 0.000000 0.251375
O O5 0.500000 0.218385 0.804966
O O6 0.449236 0.500000 0.825767
O O7 0.433356 0.213157 0.912131
O O8 0.688629 0.500000 0.088088
O O9 0.750000 0.750000 0.097771
O O10 0.681578 0.787659 0.000000
O O11 0.573792 0.500000 0.000000
O O12 0.500000 0.301352 0.000000
O O13 0.814152 0.288972 0.500000
O O14 0.750000 0.250000 0.606107
O O15 0.810144 0.000000 0.588131
#
# Coordination Sequence:
#
# PCOD9494198 Si02
#       5
#    16  16  16   8  16
#     4   9  16  24  37  55  76 104 133 160 194 235
#     4   8  13  20  31  49  74 103 132 161 193 230
#     4   9  17  27  38  54  78 105 130 157 190 231
#     4   7  10  16  26  42  65  94 127 159 187 217
#     4   9  17  29  44  61  81 104 131 164 199 234
#
# _framework density 20.41019
#
# number of rings (size 3 to 8) (size 9 to 14) (size 15 to 20)
#    0.000    3.444    0.000    2.000    1.556    0.000 
#    0.000    0.000    0.000    0.667    0.000    4.667 
#    0.000    3.556    0.000   11.111    0.000   11.556 
#
# Total GULP energy -200797.842872 kJ/mol
# GULP energy per Si atom -5577.717858 kJ/mol
# Density = 2.036374 g / cm^3
# Si number density = 20.410190 Si / 1000 Ang^3
#
#
#
# Elastic Constant Matrix: (Units=GPa)
#
#
# Indices 1 2 3 4 5 6 
#
# 1 125.9907 -0.3535 124.8285 0.0000 0.0000 0.0000
# 2 -0.3535 82.6867 11.7361 0.0000 0.0000 0.0000
# 3 124.8285 11.7361 194.7550 0.0000 0.0000 0.0000
# 4 0.0000 0.0000 0.0000 -10.7204 0.0000 0.0000
# 5 0.0000 0.0000 0.0000 0.0000 49.4674 0.0000
# 6 0.0000 0.0000 0.0000 0.0000 0.0000 1.4421
#
#
#
# Elastic Compliance Matrix: (Units=1/GPa)
#
#
# Indices 1 2 3 4 5 6 
#
# 1 0.022112 0.002124 -0.014301 0.000000 0.000000 0.000000
# 2 0.002124 0.012402 -0.002109 0.000000 0.000000 0.000000
# 3 -0.014301 -0.002109 0.014428 0.000000 0.000000 0.000000
# 4 0.000000 0.000000 0.000000 -0.093280 0.000000 0.000000
# 5 0.000000 0.000000 0.000000 0.000000 0.020215 0.000000
# 6 0.000000 0.000000 0.000000 0.000000 0.000000 0.693411
#
#
# Mechanical properties :
#
#
# Convention : Reuss Voigt Hill
#
# Bulk Modulus (GPa) = 49.08877 75.09494 62.09185
# Shear Modulus (GPa) = 7.09573 25.85259 16.47416
#
# Velocity S-wave (km/s) = 1.86658 3.56287 2.84413
# Velocity P-wave (km/s) = 5.36179 7.33472 6.42444
#
# Compressibility (1/GPa) = 0.02037126
#
# Stress axis : x y z
#
# Youngs Moduli (GPa) = 45.22505 80.63046 69.31126
#
# Poissons Ratio (x) = -0.17128 0.99119
# Poissons Ratio (y) = -0.09607 0.14617
# Poissons Ratio (z) = 0.64674 0.17004
#
# Static dielectric constant tensor:
#      x y z
#    x 1.710760 0.000000 0.000000 
#    y 0.000000 2.083880 0.000000 
#    z 0.000000 0.000000 1.724000 
# 
# From -- ./inp_files/47482.got.cif
#   From: 2010.05.17/outbox.cif.g08.bks.cpg/sg65_24_cif.got.tgz:47482.got - 2010.06.03 17:01:31.
