data_PCOD9494195
_publ_section_title
;
Structure prediction by ZEFSAII (Michael W. Deem and Ramdas Pophale) SiO2 
 PCOD9494195
Probable space group: C M M M
;
_chemical_formula_sum "Si O2"
_cell_formula_units_Z 88
_cell_length_a 11.198607
_cell_length_b 14.231278
_cell_length_c 23.130885
_cell_angle_alpha 90.000000
_cell_angle_beta 90.000000
_cell_angle_gamma 90.000000
_cell_volume 3686.380463
_symmetry_space_group_name_H-M "C M M M"
_symmetry_group_IT_number 65
_symmetry_cell_setting 'orthorhombic'
loop_
_space_group_symop_operation_xyz
x,y,z
-x,-y,z
x,-y,-z
-x,y,-z
-x,-y,-z
x,y,-z
-x,y,z
x,-y,z
1/2+x,1/2+y,z
1/2-x,1/2-y,z
1/2+x,1/2-y,-z
1/2-x,1/2+y,-z
1/2-x,1/2-y,-z
1/2+x,1/2+y,-z
1/2-x,1/2+y,z
1/2+x,1/2-y,z
loop_
_atom_site_type_symbol
_atom_site_label
_atom_site_fract_x
_atom_site_fract_y
_atom_site_fract_z
Si Si1 0.500000 0.893185 0.570180
Si Si2 0.870680 0.140181 0.069030
Si Si3 0.131609 0.613790 0.251135
Si Si4 0.629232 0.385902 0.682753
Si Si5 0.736152 0.614590 0.565217
Si Si6 0.871118 0.648363 0.882245
O O1 0.500000 0.899787 0.500000
O O2 0.630402 0.852642 0.583105
O O3 0.500000 0.000000 0.594417
O O4 0.873019 0.249356 0.088131
O O5 0.750086 0.101224 0.096369
O O6 0.000000 0.101906 0.087390
O O7 0.862852 0.133123 0.000000
O O8 0.136226 0.500000 0.245298
O O9 0.249993 0.643345 0.285022
O O10 0.135426 0.655778 0.186881
O O11 0.000000 0.634753 0.277284
O O12 0.500000 0.353373 0.705238
O O13 0.628588 0.500000 0.685837
O O14 0.645244 0.360860 0.615473
O O15 0.706604 0.645160 0.500000
O O16 0.742626 0.500000 0.563517
O O17 0.000000 0.604395 0.895997
#
# Coordination Sequence:
#
# PCOD9494195 Si02
#       6
#     8  16  16  16  16  16
#     4   7  10  16  26  42  60  78 106 148 197 245
#     4   9  17  29  48  73  94 110 129 160 208 257
#     4   9  18  30  42  56  78 113 151 179 202 234
#     4   9  17  26  35  49  70  99 137 177 212 246
#     4   8  13  20  31  47  66  89 122 167 215 255
#     4   9  16  27  44  65  87 110 139 173 205 240
#
# _framework density 23.871653999999999
#
# number of rings (size 3 to 8) (size 9 to 14) (size 15 to 20)
#    0.000    3.364    0.000    2.182    1.273    2.182 
#    0.000    1.818    0.000    2.182    0.000   12.727 
#    0.000    0.000    0.000    3.273    0.000   29.091 
#
# Total GULP energy -245531.038800 kJ/mol
# GULP energy per Si atom -5580.250882 kJ/mol
# Density = 2.381732 g / cm^3
# Si number density = 23.871654 Si / 1000 Ang^3
#
#
#
# Elastic Constant Matrix: (Units=GPa)
#
#
# Indices 1 2 3 4 5 6 
#
# 1 272.3035 1.2206 79.0622 0.0000 0.0000 0.0000
# 2 1.2206 89.4183 -3.4009 0.0000 0.0000 0.0000
# 3 79.0622 -3.4009 66.3994 0.0000 0.0000 0.0000
# 4 0.0000 0.0000 0.0000 3.6313 0.0000 0.0000
# 5 0.0000 0.0000 0.0000 0.0000 32.6096 0.0000
# 6 0.0000 0.0000 0.0000 0.0000 0.0000 -23.9639
#
#
#
# Elastic Compliance Matrix: (Units=1/GPa)
#
#
# Indices 1 2 3 4 5 6 
#
# 1 0.005623 -0.000332 -0.006712 0.000000 0.000000 0.000000
# 2 -0.000332 0.011225 0.000970 0.000000 0.000000 0.000000
# 3 -0.006712 0.000970 0.023102 0.000000 0.000000 0.000000
# 4 0.000000 0.000000 0.000000 0.275384 0.000000 0.000000
# 5 0.000000 0.000000 0.000000 0.000000 0.030666 0.000000
# 6 0.000000 0.000000 0.000000 0.000000 0.000000 -0.041730
#
#
# Mechanical properties :
#
#
# Convention : Reuss Voigt Hill
#
# Bulk Modulus (GPa) = 35.96851 64.65389 50.31120
# Shear Modulus (GPa) = 15.35227 25.87137 20.61182
#
# Velocity S-wave (km/s) = 2.53873 3.29564 2.94163
# Velocity P-wave (km/s) = 4.86762 6.45170 5.71481
#
# Compressibility (1/GPa) = 0.02780210
#
# Stress axis : x y z
#
# Youngs Moduli (GPa) = 177.85249 89.08824 43.28632
#
# Poissons Ratio (x) = 0.02958 0.29053
# Poissons Ratio (y) = 0.05905 -0.04200
# Poissons Ratio (z) = 1.19373 -0.08644
#
# Static dielectric constant tensor:
#      x y z
#    x 1.936520 0.000000 0.000000 
#    y 0.000000 1.910070 0.000000 
#    z 0.000000 0.000000 1.844550 
# 
# From -- ./inp_files/61458.got.cif
#   From: 2010.05.17/outbox.cif.g08.bks.cpg/sg65_31_cif.got.tgz:61458.got - 2010.06.03 17:01:31.
