data_PCOD9494381
_publ_section_title
;
Structure prediction by ZEFSAII (Michael W. Deem and Ramdas Pophale) SiO2 
 PCOD9494381
Probable space group: C M M M
;
_chemical_formula_sum "Si O2"
_cell_formula_units_Z 80
_cell_length_a 19.848260
_cell_length_b 7.581315
_cell_length_c 27.220198
_cell_angle_alpha 90.000000
_cell_angle_beta 90.000000
_cell_angle_gamma 90.000000
_cell_volume 4095.984099
_symmetry_space_group_name_H-M "C M M M"
_symmetry_group_IT_number 65
_symmetry_cell_setting 'orthorhombic'
loop_
_space_group_symop_operation_xyz
x,y,z
-x,-y,z
x,-y,-z
-x,y,-z
-x,-y,-z
x,y,-z
-x,y,z
x,-y,z
1/2+x,1/2+y,z
1/2-x,1/2-y,z
1/2+x,1/2-y,-z
1/2-x,1/2+y,-z
1/2-x,1/2-y,-z
1/2+x,1/2+y,-z
1/2-x,1/2+y,z
1/2+x,1/2-y,z
loop_
_atom_site_type_symbol
_atom_site_label
_atom_site_fract_x
_atom_site_fract_y
_atom_site_fract_z
Si Si1 0.076976 0.711665 0.747835
Si Si2 0.828304 0.211900 0.055017
Si Si3 0.329423 0.787678 0.660074
Si Si4 0.576781 0.288121 0.858170
Si Si5 0.330076 0.211668 0.552769
O O1 0.074148 0.500000 0.743056
O O2 0.125917 0.779425 0.705187
O O3 0.101352 0.749401 0.803069
O O4 0.000000 0.778805 0.743496
O O5 0.750000 0.250000 0.064759
O O6 0.875734 0.279895 0.098438
O O7 0.835702 0.000000 0.053708
O O8 0.844494 0.278479 0.000000
O O9 0.250000 0.750000 0.666203
O O10 0.353166 0.721900 0.606141
O O11 0.335592 0.000000 0.659115
O O12 0.500000 0.221026 0.862242
O O13 0.574214 0.500000 0.862587
O O14 0.356838 0.278807 0.500000
O O15 0.250000 0.250000 0.552573
O O16 0.339094 0.000000 0.552587
#
# Coordination Sequence:
#
# PCOD9494381 Si02
#       5
#    16  16  16  16  16
#     4   9  18  32  47  62  85 118 149 176 212 258
#     4   9  18  32  49  69  93 119 144 173 213 258
#     4   9  17  28  43  64  87 111 142 179 216 255
#     4   9  18  32  49  68  88 112 146 184 216 249
#     4   8  13  22  37  57  81 107 135 170 211 252
#
# _framework density 19.531327000000001
#
# number of rings (size 3 to 8) (size 9 to 14) (size 15 to 20)
#    0.000    3.200    0.000    0.000    0.000    2.800 
#    0.000    6.000    0.000    0.600    0.000    9.800 
#    0.000    0.000    0.000   37.400    0.000   20.400 
#
# Total GULP energy -222783.710944 kJ/mol
# GULP energy per Si atom -5569.592774 kJ/mol
# Density = 1.948687 g / cm^3
# Si number density = 19.531327 Si / 1000 Ang^3
#
#
#
# Elastic Constant Matrix: (Units=GPa)
#
#
# Indices 1 2 3 4 5 6 
#
# 1 62.3539 1.5371 107.5578 0.0000 0.0000 0.0000
# 2 1.5371 46.4325 6.5140 0.0000 0.0000 0.0000
# 3 107.5578 6.5140 252.0391 0.0000 0.0000 0.0000
# 4 0.0000 0.0000 0.0000 12.8579 0.0000 0.0000
# 5 0.0000 0.0000 0.0000 0.0000 -37.4391 0.0000
# 6 0.0000 0.0000 0.0000 0.0000 0.0000 14.0869
#
#
#
# Elastic Compliance Matrix: (Units=1/GPa)
#
#
# Indices 1 2 3 4 5 6 
#
# 1 0.060901 0.001636 -0.026032 0.000000 0.000000 0.000000
# 2 0.001636 0.021659 -0.001258 0.000000 0.000000 0.000000
# 3 -0.026032 -0.001258 0.015109 0.000000 0.000000 0.000000
# 4 0.000000 0.000000 0.000000 0.077773 0.000000 0.000000
# 5 0.000000 0.000000 0.000000 0.000000 -0.026710 0.000000
# 6 0.000000 0.000000 0.000000 0.000000 0.000000 0.070988
#
#
# Mechanical properties :
#
#
# Convention : Reuss Voigt Hill
#
# Bulk Modulus (GPa) = 21.56960 65.78259 43.67609
# Shear Modulus (GPa) = 17.45313 14.24891 15.85102
#
# Velocity S-wave (km/s) = 2.99255 2.70393 2.85190
# Velocity P-wave (km/s) = 4.79667 6.59561 5.76672
#
# Compressibility (1/GPa) = 0.04636155
#
# Stress axis : x y z
#
# Youngs Moduli (GPa) = 16.42013 46.17024 66.18478
#
# Poissons Ratio (x) = -0.07553 1.72291
# Poissons Ratio (y) = -0.02686 0.08325
# Poissons Ratio (z) = 0.42744 0.05808
#
# Static dielectric constant tensor:
#      x y z
#    x 1.671120 0.000000 0.000000 
#    y 0.000000 1.689130 0.000000 
#    z 0.000000 0.000000 1.730750 
# 
# From -- ./inp_files/68814.got.cif
#   From: 2010.05.17/outbox.cif.g08.bks.cpg/sg65_35_cif.got.tgz:68814.got - 2010.06.03 17:01:31.
