data_PCOD9494133
_publ_section_title
;
Structure prediction by ZEFSAII (Michael W. Deem and Ramdas Pophale) SiO2 
 PCOD9494133
Probable space group: C M M M
;
_chemical_formula_sum "Si O2"
_cell_formula_units_Z 64
_cell_length_a 27.724040
_cell_length_b 14.155578
_cell_length_c 10.486189
_cell_angle_alpha 90.000000
_cell_angle_beta 90.000000
_cell_angle_gamma 90.000000
_cell_volume 4115.302888
_symmetry_space_group_name_H-M "C M M M"
_symmetry_group_IT_number 65
_symmetry_cell_setting 'orthorhombic'
loop_
_space_group_symop_operation_xyz
x,y,z
-x,-y,z
x,-y,-z
-x,y,-z
-x,-y,-z
x,y,-z
-x,y,z
x,-y,z
1/2+x,1/2+y,z
1/2-x,1/2-y,z
1/2+x,1/2-y,-z
1/2-x,1/2+y,-z
1/2-x,1/2-y,-z
1/2+x,1/2+y,-z
1/2-x,1/2+y,z
1/2+x,1/2-y,z
loop_
_atom_site_type_symbol
_atom_site_label
_atom_site_fract_x
_atom_site_fract_y
_atom_site_fract_z
Si Si1 0.849825 0.195495 0.250725
Si Si2 0.708040 0.500000 0.249474
Si Si3 0.443805 0.387909 0.651864
Si Si4 0.725856 0.000000 0.500000
Si Si5 0.694316 0.788452 0.000000
Si Si6 0.195153 0.289693 0.500000
Si Si7 0.274845 0.000000 0.000000
O O1 0.906343 0.173886 0.268438
O O2 0.832715 0.249475 0.124656
O O3 0.830606 0.250894 0.374126
O O4 0.824042 0.093570 0.249800
O O5 0.740660 0.500000 0.375270
O O6 0.741382 0.500000 0.125024
O O7 0.434522 0.374610 0.500000
O O8 0.500000 0.366323 0.675583
O O9 0.436703 0.500000 0.677194
O O10 0.696548 0.902844 0.500000
O O11 0.750000 0.750000 0.000000
O O12 0.696259 0.901928 0.000000
O O13 0.250000 0.250000 0.500000
#
# Coordination Sequence:
#
# PCOD9494133 Si02
#       7
#    16   8  16   4   8   8   4
#     4  12  21  35  55  81 109 149 181 215 275 329
#     4  12  20  32  55  75 112 143 184 218 263 324
#     4   9  18  33  56  85 114 142 177 222 273 331
#     4  12  24  32  48  78 108 140 182 244 258 296
#     4  12  24  38  53  77 109 151 189 217 266 325
#     4  12  22  34  51  77 107 143 189 225 266 321
#     4  12  24  40  52  70 110 158 188 222 254 316
#
# _framework density 15.551710999999999
#
# number of rings (size 3 to 8) (size 9 to 14) (size 15 to 20)
#    0.000    0.750    7.500    3.000    0.000    0.000 
#    0.000    0.625    0.000    1.500    0.000    5.250 
#    0.000    0.000    0.000    0.000    0.000    0.000 
#
# Total GULP energy -178749.147367 kJ/mol
# GULP energy per Si atom -5585.910855 kJ/mol
# Density = 1.551631 g / cm^3
# Si number density = 15.551711 Si / 1000 Ang^3
#
#
#
# Elastic Constant Matrix: (Units=GPa)
#
#
# Indices 1 2 3 4 5 6 
#
# 1 113.3257 53.3893 62.9553 0.0000 0.0000 0.0000
# 2 53.3893 142.9913 52.3017 0.0000 0.0000 0.0000
# 3 62.9553 52.3017 134.1571 0.0000 0.0000 0.0000
# 4 0.0000 0.0000 0.0000 49.1556 0.0000 0.0000
# 5 0.0000 0.0000 0.0000 0.0000 25.5148 0.0000
# 6 0.0000 0.0000 0.0000 0.0000 0.0000 27.5771
#
#
#
# Elastic Compliance Matrix: (Units=1/GPa)
#
#
# Indices 1 2 3 4 5 6 
#
# 1 0.012988 -0.003056 -0.004903 0.000000 0.000000 0.000000
# 2 -0.003056 0.008875 -0.002026 0.000000 0.000000 0.000000
# 3 -0.004903 -0.002026 0.010545 0.000000 0.000000 0.000000
# 4 0.000000 0.000000 0.000000 0.020344 0.000000 0.000000
# 5 0.000000 0.000000 0.000000 0.000000 0.039193 0.000000
# 6 0.000000 0.000000 0.000000 0.000000 0.000000 0.036262
#
#
# Mechanical properties :
#
#
# Convention : Reuss Voigt Hill
#
# Bulk Modulus (GPa) = 80.40277 80.86298 80.63287
# Shear Modulus (GPa) = 32.82498 35.23801 34.03149
#
# Velocity S-wave (km/s) = 4.59922 4.76527 4.68298
# Velocity P-wave (km/s) = 8.94518 9.07668 9.01117
#
# Compressibility (1/GPa) = 0.01243738
#
# Stress axis : x y z
#
# Youngs Moduli (GPa) = 76.99596 112.66986 94.83304
#
# Poissons Ratio (x) = 0.34429 0.46500
# Poissons Ratio (y) = 0.23528 0.19215
# Poissons Ratio (z) = 0.37754 0.22829
#
# Static dielectric constant tensor:
#      x y z
#    x 1.530000 0.000000 0.000000 
#    y 0.000000 1.543070 0.000000 
#    z 0.000000 0.000000 1.917730 
# 
# From -- ./inp_files/17891.got.cif
#   From: 2010.05.17/outbox.cif.g08.bks.cpg/sg65_9_cif.got.tgz:17891.got - 2010.06.03 17:01:31.
