data_PCOD9494136
_publ_section_title
;
Structure prediction by ZEFSAII (Michael W. Deem and Ramdas Pophale) SiO2 
 PCOD9494136
Probable space group: C M M M
;
_chemical_formula_sum "Si O2"
_cell_formula_units_Z 64
_cell_length_a 21.053402
_cell_length_b 16.427128
_cell_length_c 10.929962
_cell_angle_alpha 90.000000
_cell_angle_beta 90.000000
_cell_angle_gamma 90.000000
_cell_volume 3780.093797
_symmetry_space_group_name_H-M "C M M M"
_symmetry_group_IT_number 65
_symmetry_cell_setting 'orthorhombic'
loop_
_space_group_symop_operation_xyz
x,y,z
-x,-y,z
x,-y,-z
-x,y,-z
-x,-y,-z
x,y,-z
-x,y,z
x,-y,z
1/2+x,1/2+y,z
1/2-x,1/2-y,z
1/2+x,1/2-y,-z
1/2-x,1/2+y,-z
1/2-x,1/2-y,-z
1/2+x,1/2+y,-z
1/2-x,1/2+y,z
1/2+x,1/2-y,z
loop_
_atom_site_type_symbol
_atom_site_label
_atom_site_fract_x
_atom_site_fract_y
_atom_site_fract_z
Si Si1 0.430396 0.698651 0.000000
Si Si2 0.889180 0.901918 0.231323
Si Si3 0.237676 0.597809 0.234440
Si Si4 0.191068 0.687823 0.000000
Si Si5 0.238100 0.595672 0.500000
Si Si6 0.392318 0.595139 0.500000
O O1 0.422269 0.642393 0.880390
O O2 0.500000 0.736491 0.000000
O O3 0.374258 0.763758 0.000000
O O4 0.813224 0.885952 0.219668
O O5 0.911370 0.872795 0.366460
O O6 0.897439 0.000000 0.225179
O O7 0.231294 0.500000 0.234555
O O8 0.199905 0.635272 0.122439
O O9 0.217574 0.630298 0.368931
O O10 0.250000 0.750000 0.000000
O O11 0.220508 0.500000 0.500000
O O12 0.315116 0.597370 0.500000
O O13 0.410756 0.500000 0.500000
#
# Coordination Sequence:
#
# PCOD9494136 Si02
#       6
#     8  16  16   8   8   8
#     4  12  25  36  45  64 101 140 168 203 243 283
#     4   9  16  30  51  75  99 128 163 197 237 287
#     4   9  16  30  54  79 100 123 157 202 247 290
#     4  12  21  33  49  73 101 130 168 204 238 285
#     4   7  12  24  46  78 105 119 143 195 253 292
#     4   7  12  24  46  72  98 124 157 198 233 277
#
# _framework density 16.930796000000001
#
# number of rings (size 3 to 8) (size 9 to 14) (size 15 to 20)
#    0.000    2.750    2.500    3.750    0.000    3.000 
#    0.000    2.500    0.000    3.750    0.000    0.000 
#    0.000    3.000    0.000    0.000    0.000    0.000 
#
# Total GULP energy -178241.373598 kJ/mol
# GULP energy per Si atom -5570.042925 kJ/mol
# Density = 1.689226 g / cm^3
# Si number density = 16.930796 Si / 1000 Ang^3
#
#
#
# Elastic Constant Matrix: (Units=GPa)
#
#
# Indices 1 2 3 4 5 6 
#
# 1 69.1123 25.0122 41.3093 0.0000 0.0000 0.0000
# 2 25.0122 18.2403 33.3317 0.0000 0.0000 0.0000
# 3 41.3093 33.3317 184.8089 0.0000 0.0000 0.0000
# 4 0.0000 0.0000 0.0000 -19.9291 0.0000 0.0000
# 5 0.0000 0.0000 0.0000 0.0000 -2.0033 0.0000
# 6 0.0000 0.0000 0.0000 0.0000 0.0000 11.2610
#
#
#
# Elastic Compliance Matrix: (Units=1/GPa)
#
#
# Indices 1 2 3 4 5 6 
#
# 1 0.028853 -0.041437 0.001024 0.000000 0.000000 0.000000
# 2 -0.041437 0.141283 -0.016219 0.000000 0.000000 0.000000
# 3 0.001024 -0.016219 0.008107 0.000000 0.000000 0.000000
# 4 0.000000 0.000000 0.000000 -0.050178 0.000000 0.000000
# 5 0.000000 0.000000 0.000000 0.000000 -0.499176 0.000000
# 6 0.000000 0.000000 0.000000 0.000000 0.000000 0.088802
#
#
# Mechanical properties :
#
#
# Convention : Reuss Voigt Hill
#
# Bulk Modulus (GPa) = 15.38948 52.38533 33.88740
# Shear Modulus (GPa) = -33.92483 9.36629 -12.27927
#
# Velocity S-wave (km/s) = -4.48117 2.35459 -2.69599
# Velocity P-wave (km/s) = 4.20299 6.19679 3.21987
#
# Compressibility (1/GPa) = 0.06497944
#
# Stress axis : x y z
#
# Youngs Moduli (GPa) = 34.65796 7.07800 123.34424
#
# Poissons Ratio (x) = 0.29329 -0.12631
# Poissons Ratio (y) = 1.43611 2.00056
# Poissons Ratio (z) = -0.03549 0.11480
#
# Static dielectric constant tensor:
#      x y z
#    x 1.555180 0.000000 0.000000 
#    y 0.000000 1.560410 0.000000 
#    z 0.000000 0.000000 1.638620 
# 
# From -- ./inp_files/26161.got.cif
#   From: 2010.05.17/outbox.cif.g08.bks.cpg/sg65_14_cif.got.tgz:26161.got - 2010.06.03 17:01:31.
