data_PCOD9494269
_publ_section_title
;
Structure prediction by ZEFSAII (Michael W. Deem and Ramdas Pophale) SiO2 
 PCOD9494269
Probable space group: C M M M
;
_chemical_formula_sum "Si O2"
_cell_formula_units_Z 88
_cell_length_a 19.735582
_cell_length_b 7.546819
_cell_length_c 30.140472
_cell_angle_alpha 90.000000
_cell_angle_beta 90.000000
_cell_angle_gamma 90.000000
_cell_volume 4489.147978
_symmetry_space_group_name_H-M "C M M M"
_symmetry_group_IT_number 65
_symmetry_cell_setting 'orthorhombic'
loop_
_space_group_symop_operation_xyz
x,y,z
-x,-y,z
x,-y,-z
-x,y,-z
-x,-y,-z
x,y,-z
-x,y,z
x,-y,z
1/2+x,1/2+y,z
1/2-x,1/2-y,z
1/2+x,1/2-y,-z
1/2-x,1/2+y,-z
1/2-x,1/2-y,-z
1/2+x,1/2+y,-z
1/2-x,1/2+y,z
1/2+x,1/2-y,z
loop_
_atom_site_type_symbol
_atom_site_label
_atom_site_fract_x
_atom_site_fract_y
_atom_site_fract_z
Si Si1 0.077231 0.210925 0.096700
Si Si2 0.421102 0.283028 0.644483
Si Si3 0.828858 0.212891 0.824436
Si Si4 0.418723 0.713199 0.452341
Si Si5 0.828912 0.787479 0.725093
Si Si6 0.077081 0.710272 0.000000
O O1 0.123253 0.281913 0.136460
O O2 0.000000 0.282476 0.097421
O O3 0.072494 0.000000 0.102738
O O4 0.107312 0.238330 0.047427
O O5 0.500000 0.232482 0.649388
O O6 0.419884 0.500000 0.644035
O O7 0.394850 0.223275 0.595883
O O8 0.376217 0.220673 0.685566
O O9 0.750000 0.250000 0.833313
O O10 0.845012 0.279895 0.774747
O O11 0.836263 0.000000 0.823207
O O12 0.392580 0.781411 0.500000
O O13 0.500000 0.743158 0.452074
O O14 0.409385 0.500000 0.452835
O O15 0.750000 0.750000 0.716436
O O16 0.837170 0.000000 0.726246
O O17 0.072964 0.500000 0.000000
O O18 0.000000 0.785883 0.000000
#
# Coordination Sequence:
#
# PCOD9494269 Si02
#       6
#    16  16  16  16  16   8
#     4   9  17  30  48  68  89 113 141 173 209 247
#     4   8  13  21  36  59  82 104 136 178 215 245
#     4   9  18  31  46  64  86 113 143 174 209 250
#     4   7   9  14  26  47  76 105 130 162 208 253
#     4   9  17  29  44  61  83 112 142 171 208 254
#     4   9  17  29  46  69  94 117 141 169 204 247
#
# _framework density 19.602829
#
# number of rings (size 3 to 8) (size 9 to 14) (size 15 to 20)
#    0.000    3.545    0.000    1.909    0.000    2.545 
#    0.000    4.091    0.000    1.091    0.000    5.091 
#    0.000    0.000    0.000    4.545    0.000    3.636 
#
# Total GULP energy -244944.150709 kJ/mol
# GULP energy per Si atom -5566.912516 kJ/mol
# Density = 1.955821 g / cm^3
# Si number density = 19.602829 Si / 1000 Ang^3
#
#
#
# Elastic Constant Matrix: (Units=GPa)
#
#
# Indices 1 2 3 4 5 6 
#
# 1 56.8295 1.1604 102.7203 0.0000 0.0000 0.0000
# 2 1.1604 47.9207 7.5022 0.0000 0.0000 0.0000
# 3 102.7203 7.5022 250.7499 0.0000 0.0000 0.0000
# 4 0.0000 0.0000 0.0000 -8.0581 0.0000 0.0000
# 5 0.0000 0.0000 0.0000 0.0000 119.7403 0.0000
# 6 0.0000 0.0000 0.0000 0.0000 0.0000 11.4523
#
#
#
# Elastic Compliance Matrix: (Units=1/GPa)
#
#
# Indices 1 2 3 4 5 6 
#
# 1 0.068152 0.002733 -0.028000 0.000000 0.000000 0.000000
# 2 0.002733 0.021076 -0.001750 0.000000 0.000000 0.000000
# 3 -0.028000 -0.001750 0.015511 0.000000 0.000000 0.000000
# 4 0.000000 0.000000 0.000000 -0.124098 0.000000 0.000000
# 5 0.000000 0.000000 0.000000 0.000000 0.008351 0.000000
# 6 0.000000 0.000000 0.000000 0.000000 0.000000 0.087319
#
#
# Mechanical properties :
#
#
# Convention : Reuss Voigt Hill
#
# Bulk Modulus (GPa) = 19.72245 64.25177 41.98711
# Shear Modulus (GPa) = 33.95672 40.90135 37.42904
#
# Velocity S-wave (km/s) = 4.16653 4.57278 4.37437
# Velocity P-wave (km/s) = 5.76450 7.79284 6.85412
#
# Compressibility (1/GPa) = 0.05070364
#
# Stress axis : x y z
#
# Youngs Moduli (GPa) = 14.67310 47.44812 64.47110
#
# Poissons Ratio (x) = -0.12969 1.80521
# Poissons Ratio (y) = -0.04011 0.11284
# Poissons Ratio (z) = 0.41085 0.08305
#
# Static dielectric constant tensor:
#      x y z
#    x 1.642190 0.000000 0.000000 
#    y 0.000000 1.740410 0.000000 
#    z 0.000000 0.000000 1.748090 
# 
# From -- ./inp_files/78091.got.cif
#   From: 2010.05.17/outbox.cif.g08.bks.cpg/sg65_40_cif.got.tgz:78091.got - 2010.06.03 17:01:31.
