data_PCOD9494100
_publ_section_title
;
Structure prediction by ZEFSAII (Michael W. Deem and Ramdas Pophale) SiO2 
 PCOD9494100
Probable space group: C M M M
;
_chemical_formula_sum "Si O2"
_cell_formula_units_Z 100
_cell_length_a 13.989242
_cell_length_b 23.493723
_cell_length_c 14.969436
_cell_angle_alpha 90.000000
_cell_angle_beta 90.000000
_cell_angle_gamma 90.000000
_cell_volume 4919.845503
_symmetry_space_group_name_H-M "C M M M"
_symmetry_group_IT_number 65
_symmetry_cell_setting 'orthorhombic'
loop_
_space_group_symop_operation_xyz
x,y,z
-x,-y,z
x,-y,-z
-x,y,-z
-x,-y,-z
x,y,-z
-x,y,z
x,-y,z
1/2+x,1/2+y,z
1/2-x,1/2-y,z
1/2+x,1/2-y,-z
1/2-x,1/2+y,-z
1/2-x,1/2-y,-z
1/2+x,1/2+y,-z
1/2-x,1/2+y,z
1/2+x,1/2-y,z
loop_
_atom_site_type_symbol
_atom_site_label
_atom_site_fract_x
_atom_site_fract_y
_atom_site_fract_z
Si Si1 0.689921 0.325306 0.104137
Si Si2 0.181484 0.000000 0.500000
Si Si3 0.111161 0.661696 0.391540
Si Si4 0.394300 0.206767 0.890523
Si Si5 0.615042 0.710793 0.395003
Si Si6 0.609867 0.561349 0.830602
Si Si7 0.288294 0.406059 0.655606
O O1 0.629847 0.271532 0.139184
O O2 0.799181 0.327066 0.139446
O O3 0.634512 0.383617 0.112916
O O4 0.700906 0.312333 0.000000
O O5 0.183689 0.949515 0.422518
O O6 0.118680 0.660698 0.500000
O O7 0.142450 0.725650 0.363235
O O8 0.178386 0.612567 0.354264
O O9 0.000000 0.654256 0.369208
O O10 0.500000 0.189877 0.858104
O O11 0.399089 0.204312 0.000000
O O12 0.642304 0.707024 0.500000
O O13 0.500000 0.708766 0.390160
O O14 0.657217 0.654858 0.349885
O O15 0.500000 0.565097 0.799096
O O16 0.621095 0.500000 0.876027
O O17 0.680604 0.565762 0.747349
#
# Coordination Sequence:
#
# PCOD9494100 Si02
#       7
#    16   4  16  16  16  16  16
#     4   9  18  35  60  87 116 153 190 227 279 338
#     4  12  24  36  60  80  98 152 208 220 266 346
#     4   9  18  34  58  83 106 134 177 230 283 337
#     4   8  14  29  58  93 122 147 182 228 276 334
#     4   9  17  31  54  81 103 131 170 218 276 334
#     4  11  25  41  55  77 112 147 184 240 287 323
#     4  12  21  39  55  78 109 144 184 231 275 329
#
# _framework density 20.325841
#
# number of rings (size 3 to 8) (size 9 to 14) (size 15 to 20)
#    0.000    2.240    2.400    3.360    0.000    2.560 
#    5.760    4.000    0.000    1.440    0.000    2.240 
#    0.000    0.000    0.000    0.000    0.000    0.000 
#
# Total GULP energy -278449.145983 kJ/mol
# GULP energy per Si atom -5568.982920 kJ/mol
# Density = 2.027958 g / cm^3
# Si number density = 20.325841 Si / 1000 Ang^3
#
#
#
# Elastic Constant Matrix: (Units=GPa)
#
#
# Indices 1 2 3 4 5 6 
#
# 1 84.0165 23.8107 0.6783 0.0000 0.0000 0.0000
# 2 23.8107 95.2722 2.4734 0.0000 0.0000 0.0000
# 3 0.6783 2.4734 22.2887 0.0000 0.0000 0.0000
# 4 0.0000 0.0000 0.0000 27.8299 0.0000 0.0000
# 5 0.0000 0.0000 0.0000 0.0000 17.2620 0.0000
# 6 0.0000 0.0000 0.0000 0.0000 0.0000 20.2569
#
#
#
# Elastic Compliance Matrix: (Units=1/GPa)
#
#
# Indices 1 2 3 4 5 6 
#
# 1 0.012810 -0.003201 -0.000035 0.000000 0.000000 0.000000
# 2 -0.003201 0.011326 -0.001160 0.000000 0.000000 0.000000
# 3 -0.000035 -0.001160 0.044996 0.000000 0.000000 0.000000
# 4 0.000000 0.000000 0.000000 0.035933 0.000000 0.000000
# 5 0.000000 0.000000 0.000000 0.000000 0.057931 0.000000
# 6 0.000000 0.000000 0.000000 0.000000 0.000000 0.049366
#
#
# Mechanical properties :
#
#
# Convention : Reuss Voigt Hill
#
# Bulk Modulus (GPa) = 16.57218 28.38914 22.48066
# Shear Modulus (GPa) = 20.72415 24.71074 22.71745
#
# Velocity S-wave (km/s) = 3.19658 3.49052 3.34677
# Velocity P-wave (km/s) = 4.66852 5.49930 5.10085
#
# Compressibility (1/GPa) = 0.06034209
#
# Stress axis : x y z
#
# Youngs Moduli (GPa) = 78.06547 88.29059 22.22442
#
# Poissons Ratio (x) = 0.28258 0.00077
# Poissons Ratio (y) = 0.24985 0.02577
# Poissons Ratio (z) = 0.00271 0.10237
#
# Static dielectric constant tensor:
#      x y z
#    x 1.759660 0.000000 0.000000 
#    y 0.000000 1.724680 0.000000 
#    z 0.000000 0.000000 1.763040 
# 
# From -- ./inp_files/53344.got.cif
#   From: 2010.05.17/outbox.cif.g08.bks.cpg/sg65_27_cif.got.tgz:53344.got - 2010.06.03 17:01:31.
