data_PCOD9494388
_publ_section_title
;
Structure prediction by ZEFSAII (Michael W. Deem and Ramdas Pophale) SiO2 
 PCOD9494388
Probable space group: C M M M
;
_chemical_formula_sum "Si O2"
_cell_formula_units_Z 56
_cell_length_a 25.285931
_cell_length_b 13.622443
_cell_length_c 7.214308
_cell_angle_alpha 90.000000
_cell_angle_beta 90.000000
_cell_angle_gamma 90.000000
_cell_volume 2485.012786
_symmetry_space_group_name_H-M "C M M M"
_symmetry_group_IT_number 65
_symmetry_cell_setting 'orthorhombic'
loop_
_space_group_symop_operation_xyz
x,y,z
-x,-y,z
x,-y,-z
-x,y,-z
-x,-y,-z
x,y,-z
-x,y,z
x,-y,z
1/2+x,1/2+y,z
1/2-x,1/2-y,z
1/2+x,1/2-y,-z
1/2-x,1/2+y,-z
1/2-x,1/2-y,-z
1/2+x,1/2+y,-z
1/2-x,1/2+y,z
1/2+x,1/2-y,z
loop_
_atom_site_type_symbol
_atom_site_label
_atom_site_fract_x
_atom_site_fract_y
_atom_site_fract_z
Si Si1 0.059939 0.720914 0.277818
Si Si2 0.937133 0.891877 0.000000
Si Si3 0.828213 0.316477 0.724421
Si Si4 0.716707 0.606707 0.274818
O O1 0.059974 0.730741 0.500000
O O2 0.111615 0.657615 0.223546
O O3 0.000000 0.689784 0.224266
O O4 0.071813 0.824879 0.180364
O O5 0.000000 0.903924 0.000000
O O6 0.913245 0.000000 0.000000
O O7 0.827187 0.317838 0.500000
O O8 0.778138 0.380739 0.781954
O O9 0.813653 0.204983 0.783891
O O10 0.715176 0.608370 0.500000
O O11 0.696913 0.500000 0.216167
#
# Coordination Sequence:
#
# PCOD9494388 Si02
#       4
#    16   8  16  16
#     4   9  17  29  45  64  88 118 147 179 221 264
#     4   9  18  30  42  61  89 119 153 185 215 262
#     4   8  14  24  39  62  88 114 149 185 219 266
#     4   8  13  22  38  60  86 116 149 186 224 261
#
# _framework density 22.535094999999998
#
# number of rings (size 3 to 8) (size 9 to 14) (size 15 to 20)
#    0.000    3.571    0.000    1.714    0.000    1.714 
#    0.000    5.714    0.000    4.286    0.000    9.000 
#    0.000    3.429    0.000    0.286    0.000    0.000 
#
# Total GULP energy -155897.957974 kJ/mol
# GULP energy per Si atom -5567.784213 kJ/mol
# Density = 2.248380 g / cm^3
# Si number density = 22.535095 Si / 1000 Ang^3
#
#
#
# Elastic Constant Matrix: (Units=GPa)
#
#
# Indices 1 2 3 4 5 6 
#
# 1 172.9069 0.7160 8.4591 0.0000 0.0000 0.0000
# 2 0.7160 31.6084 -7.6927 0.0000 0.0000 0.0000
# 3 8.4591 -7.6927 99.2464 0.0000 0.0000 0.0000
# 4 0.0000 0.0000 0.0000 -33.6876 0.0000 0.0000
# 5 0.0000 0.0000 0.0000 0.0000 -7.3584 0.0000
# 6 0.0000 0.0000 0.0000 0.0000 0.0000 5.1353
#
#
#
# Elastic Compliance Matrix: (Units=1/GPa)
#
#
# Indices 1 2 3 4 5 6 
#
# 1 0.005810 -0.000257 -0.000515 0.000000 0.000000 0.000000
# 2 -0.000257 0.032257 0.002522 0.000000 0.000000 0.000000
# 3 -0.000515 0.002522 0.010315 0.000000 0.000000 0.000000
# 4 0.000000 0.000000 0.000000 -0.029685 0.000000 0.000000
# 5 0.000000 0.000000 0.000000 0.000000 -0.135900 0.000000
# 6 0.000000 0.000000 0.000000 0.000000 0.000000 0.194730
#
#
# Mechanical properties :
#
#
# Convention : Reuss Voigt Hill
#
# Bulk Modulus (GPa) = 19.27450 34.08073 26.67761
# Shear Modulus (GPa) = 54.75128 12.96982 33.86055
#
# Velocity S-wave (km/s) = 4.93445 2.40164 3.88050
# Velocity P-wave (km/s) = 6.40599 4.77983 5.65170
#
# Compressibility (1/GPa) = 0.05188201
#
# Stress axis : x y z
#
# Youngs Moduli (GPa) = 172.12528 31.00124 96.94307
#
# Poissons Ratio (x) = 0.00797 0.04994
# Poissons Ratio (y) = 0.04423 -0.24451
# Poissons Ratio (z) = 0.08866 -0.07819
#
# Static dielectric constant tensor:
#      x y z
#    x 1.880280 0.000000 0.000000 
#    y 0.000000 1.793930 0.000000 
#    z 0.000000 0.000000 1.844670 
# 
# From -- ./inp_files/6989.got.cif
#   From: 2010.05.17/outbox.cif.g08.bks.cpg/sg65_4_cif.got.tgz:6989.got - 2010.06.03 17:01:31.
