data_PCOD9494191
_publ_section_title
;
Structure prediction by ZEFSAII (Michael W. Deem and Ramdas Pophale) SiO2 
 PCOD9494191
Probable space group: C M M M
;
_chemical_formula_sum "Si O2"
_cell_formula_units_Z 88
_cell_length_a 9.623488
_cell_length_b 14.394700
_cell_length_c 29.666004
_cell_angle_alpha 90.000000
_cell_angle_beta 90.000000
_cell_angle_gamma 90.000000
_cell_volume 4109.549143
_symmetry_space_group_name_H-M "C M M M"
_symmetry_group_IT_number 65
_symmetry_cell_setting 'orthorhombic'
loop_
_space_group_symop_operation_xyz
x,y,z
-x,-y,z
x,-y,-z
-x,y,-z
-x,-y,-z
x,y,-z
-x,y,z
x,-y,z
1/2+x,1/2+y,z
1/2-x,1/2-y,z
1/2+x,1/2-y,-z
1/2-x,1/2+y,-z
1/2-x,1/2-y,-z
1/2+x,1/2+y,-z
1/2-x,1/2+y,z
1/2+x,1/2-y,z
loop_
_atom_site_type_symbol
_atom_site_label
_atom_site_fract_x
_atom_site_fract_y
_atom_site_fract_z
Si Si1 0.341544 0.613381 0.684078
Si Si2 0.157470 0.613656 0.230164
Si Si3 0.344687 0.391837 0.149377
Si Si4 0.833918 0.845246 0.951409
Si Si5 0.168897 0.393056 0.500000
Si Si6 0.839535 0.386172 0.401403
O O1 0.500000 0.646532 0.685714
O O2 0.345392 0.500000 0.684028
O O3 0.253316 0.640485 0.727806
O O4 0.261442 0.641604 0.638792
O O5 0.150879 0.500000 0.230387
O O6 0.230350 0.644616 0.183821
O O7 0.000000 0.647542 0.234370
O O8 0.500000 0.349930 0.154128
O O9 0.358467 0.500000 0.161357
O O10 0.302046 0.389348 0.096917
O O11 0.750000 0.750000 0.951678
O O12 0.000000 0.830062 0.951002
O O13 0.803097 0.892149 0.000000
O O14 0.217132 0.500000 0.500000
O O15 0.208547 0.354433 0.548841
O O16 0.000000 0.394007 0.500000
O O17 0.841209 0.500000 0.402469
O O18 0.000000 0.357829 0.393561
#
# Coordination Sequence:
#
# PCOD9494191 Si02
#       6
#    16  16  16  16   8  16
#     4   9  15  21  29  42  61  85 113 147 190 238
#     4   9  16  25  37  53  73  97 125 158 198 244
#     4   9  17  29  45  65  88 112 139 174 214 251
#     4   9  18  32  49  68  90 117 146 174 206 246
#     4   7  10  16  25  35  47  67  99 141 186 229
#     4   8  12  18  27  37  50  72 105 144 186 232
#
# _framework density 21.413540000000001
#
# number of rings (size 3 to 8) (size 9 to 14) (size 15 to 20)
#    0.000    3.364    0.000    2.182    0.000    5.455 
#    0.000    2.273    0.000    2.727    0.000    5.091 
#    0.000    0.000    0.000    0.000    0.000    0.000 
#
# Total GULP energy -245270.836566 kJ/mol
# GULP energy per Si atom -5574.337195 kJ/mol
# Density = 2.136480 g / cm^3
# Si number density = 21.413540 Si / 1000 Ang^3
#
#
#
# Elastic Constant Matrix: (Units=GPa)
#
#
# Indices 1 2 3 4 5 6 
#
# 1 135.4865 14.2847 128.3870 0.0000 0.0000 0.0000
# 2 14.2847 53.8012 1.7048 0.0000 0.0000 0.0000
# 3 128.3870 1.7048 223.8684 0.0000 0.0000 0.0000
# 4 0.0000 0.0000 0.0000 16.0260 0.0000 0.0000
# 5 0.0000 0.0000 0.0000 0.0000 34.6839 0.0000
# 6 0.0000 0.0000 0.0000 0.0000 0.0000 1.0108
#
#
#
# Elastic Compliance Matrix: (Units=1/GPa)
#
#
# Indices 1 2 3 4 5 6 
#
# 1 0.017075 -0.004224 -0.009760 0.000000 0.000000 0.000000
# 2 -0.004224 0.019637 0.002273 0.000000 0.000000 0.000000
# 3 -0.009760 0.002273 0.010047 0.000000 0.000000 0.000000
# 4 0.000000 0.000000 0.000000 0.062399 0.000000 0.000000
# 5 0.000000 0.000000 0.000000 0.000000 0.028832 0.000000
# 6 0.000000 0.000000 0.000000 0.000000 0.000000 0.989339
#
#
# Mechanical properties :
#
#
# Convention : Reuss Voigt Hill
#
# Bulk Modulus (GPa) = 42.85294 77.98990 60.42142
# Shear Modulus (GPa) = 4.31582 28.26277 16.28929
#
# Velocity S-wave (km/s) = 1.42121 3.63692 2.76107
# Velocity P-wave (km/s) = 4.76955 7.35773 6.20019
#
# Compressibility (1/GPa) = 0.02333562
#
# Stress axis : x y z
#
# Youngs Moduli (GPa) = 58.56531 50.92555 99.53209
#
# Poissons Ratio (x) = 0.21512 0.97145
# Poissons Ratio (y) = 0.24740 -0.22624
# Poissons Ratio (z) = 0.57161 -0.11576
#
# Static dielectric constant tensor:
#      x y z
#    x 1.739720 0.000000 0.000000 
#    y 0.000000 1.821360 0.000000 
#    z 0.000000 0.000000 1.795390 
# 
# From -- ./inp_files/76654.got.cif
#   From: 2010.05.17/outbox.cif.g08.bks.cpg/sg65_39_cif.got.tgz:76654.got - 2010.06.03 17:01:31.
