data_PCOD9494848
_publ_section_title
;
Structure prediction by ZEFSAII (Michael W. Deem and Ramdas Pophale) SiO2 
 PCOD9494848
Probable space group: C M M M
;
_chemical_formula_sum "Si O2"
_cell_formula_units_Z 36
_cell_length_a 21.000000
_cell_length_b 21.000000
_cell_length_c 9.000000
_cell_angle_alpha 90.000000
_cell_angle_beta 90.000000
_cell_angle_gamma 90.000000
_cell_volume 3969.000000
_symmetry_space_group_name_H-M "C M M M"
_symmetry_group_IT_number 65
_symmetry_cell_setting 'orthorhombic'
loop_
_space_group_symop_operation_xyz
x,y,z
-x,-y,z
x,-y,-z
-x,y,-z
-x,-y,-z
x,y,-z
-x,y,z
x,-y,z
1/2+x,1/2+y,z
1/2-x,1/2-y,z
1/2+x,1/2-y,-z
1/2-x,1/2+y,-z
1/2-x,1/2-y,-z
1/2+x,1/2+y,-z
1/2-x,1/2+y,z
1/2+x,1/2-y,z
loop_
_atom_site_type_symbol
_atom_site_label
_atom_site_fract_x
_atom_site_fract_y
_atom_site_fract_z
Si Si1 0.633369 0.500000 0.318802
Si Si2 0.672556 0.249084 0.823322
Si Si3 0.723338 0.000000 0.819009
Si Si4 0.923638 0.130847 0.179461
Si Si5 0.640198 0.884838 0.320657
Si Si6 0.500000 0.072212 0.680023
O O1 0.635113 0.500000 0.500000
O O2 0.705245 0.500000 0.250142
O O3 0.598599 0.435108 0.259312
O O4 0.750000 0.250000 0.804386
O O5 0.627522 0.311271 0.784123
O O6 0.653718 0.186948 0.729965
O O7 0.661566 0.239028 0.000000
O O8 0.685376 0.062614 0.758929
O O9 0.725987 0.000000 0.000000
O O10 0.000000 0.144005 0.212464
O O11 0.919497 0.122047 0.000000
O O12 0.646861 0.892132 0.500000
O O13 0.566804 0.897435 0.276364
O O14 0.500000 0.071634 0.500000
O O15 0.500000 0.000000 0.733850
#
# Coordination Sequence:
#
# PCOD9494848 Si02
#       6
#     8  16   8  16  16   8
#     4  12  25  41  65  94 122 153 201 261 315 371
#     4  10  22  40  61  88 124 165 208 254 304 362
#     4  12  24  40  62  90 123 162 206 253 308 371
#     4  10  22  41  64  90 125 168 209 253 310 371
#     4  11  22  38  62  90 123 162 206 253 307 364
#     4   9  18  36  58  84 124 163 194 241 304 364
#
# _framework density 9.0702949999999998
#
# number of rings (size 3 to 8) (size 9 to 14) (size 15 to 20)
#    0.000    1.444    1.111    4.333    1.556    4.889 
#    0.000    2.222    0.000    0.000    0.000    0.000 
#    0.000    0.000    0.000    0.000    0.000    0.000 
#
# Total GULP energy -200813.943854 kJ/mol
# GULP energy per Si atom -5578.165107 kJ/mol
# Density = 0.904965 g / cm^3
# Si number density = 9.070295 Si / 1000 Ang^3
#
#
#
# Elastic Constant Matrix: (Units=GPa)
#
#
# Indices 1 2 3 4 5 6 
#
# 1 168.0045 73.4237 54.0712 0.0000 0.0000 0.0000
# 2 73.4237 154.5384 60.0564 0.0000 0.0000 0.0000
# 3 54.0712 60.0564 93.7217 0.0000 0.0000 0.0000
# 4 0.0000 0.0000 0.0000 39.6193 0.0000 0.0000
# 5 0.0000 0.0000 0.0000 0.0000 26.3971 0.0000
# 6 0.0000 0.0000 0.0000 0.0000 0.0000 40.3880
#
#
#
# Elastic Compliance Matrix: (Units=1/GPa)
#
#
# Indices 1 2 3 4 5 6 
#
# 1 0.008074 -0.002698 -0.002930 0.000000 0.000000 0.000000
# 2 -0.002698 0.009518 -0.004543 0.000000 0.000000 0.000000
# 3 -0.002930 -0.004543 0.015271 0.000000 0.000000 0.000000
# 4 0.000000 0.000000 0.000000 0.025240 0.000000 0.000000
# 5 0.000000 0.000000 0.000000 0.000000 0.037883 0.000000
# 6 0.000000 0.000000 0.000000 0.000000 0.000000 0.024760
#
#
# Mechanical properties :
#
#
# Convention : Reuss Voigt Hill
#
# Bulk Modulus (GPa) = 79.85182 87.92972 83.89077
# Shear Modulus (GPa) = 34.42101 36.52844 35.47472
#
# Velocity S-wave (km/s) = 4.36071 4.49222 4.42695
# Velocity P-wave (km/s) = 8.33476 8.68811 8.51327
#
# Compressibility (1/GPa) = 0.01252320
#
# Stress axis : x y z
#
# Youngs Moduli (GPa) = 123.85380 105.06467 65.48360
#
# Poissons Ratio (x) = 0.28343 0.19184
# Poissons Ratio (y) = 0.33411 0.29747
# Poissons Ratio (z) = 0.36284 0.47728
#
# Static dielectric constant tensor:
#      x y z
#    x 1.682340 0.000000 0.000000 
#    y 0.000000 1.616530 0.000000 
#    z 0.000000 0.000000 1.611470 
# 
# From -- ./inp_files/11307.got.cif
#   From: 2010.05.17/outbox.ucp.g08.bks.cvg/sg65_6_cif.got.tgz:11307.got - 2010.06.11 16:39:57.
