data_PCOD9494475
_publ_section_title
;
Structure prediction by ZEFSAII (Michael W. Deem and Ramdas Pophale) SiO2 
 PCOD9494475
Probable space group: C M M M
;
_chemical_formula_sum "Si O2"
_cell_formula_units_Z 72
_cell_length_a 22.663091
_cell_length_b 7.310808
_cell_length_c 19.469295
_cell_angle_alpha 90.000000
_cell_angle_beta 90.000000
_cell_angle_gamma 90.000000
_cell_volume 3225.780013
_symmetry_space_group_name_H-M "C M M M"
_symmetry_group_IT_number 65
_symmetry_cell_setting 'orthorhombic'
loop_
_space_group_symop_operation_xyz
x,y,z
-x,-y,z
x,-y,-z
-x,y,-z
-x,-y,-z
x,y,-z
-x,y,z
x,-y,z
1/2+x,1/2+y,z
1/2-x,1/2-y,z
1/2+x,1/2-y,-z
1/2-x,1/2+y,-z
1/2-x,1/2-y,-z
1/2+x,1/2+y,-z
1/2-x,1/2+y,z
1/2+x,1/2-y,z
loop_
_atom_site_type_symbol
_atom_site_label
_atom_site_fract_x
_atom_site_fract_y
_atom_site_fract_z
Si Si1 0.319012 0.782464 0.425954
Si Si2 0.067262 0.276474 0.837822
Si Si3 0.683440 0.781632 0.921539
Si Si4 0.400882 0.778445 0.315321
Si Si5 0.500000 0.778176 0.577347
O O1 0.343629 0.713150 0.500000
O O2 0.250000 0.750000 0.428703
O O3 0.340903 0.717061 0.351613
O O4 0.331213 0.000000 0.426840
O O5 0.066823 0.500000 0.839525
O O6 0.124563 0.216905 0.881885
O O7 0.079848 0.215544 0.759472
O O8 0.000000 0.221349 0.858041
O O9 0.750000 0.750000 0.892566
O O10 0.677619 0.000000 0.924092
O O11 0.683457 0.711458 0.000000
O O12 0.445242 0.725836 0.375931
O O13 0.401666 0.000000 0.308897
O O14 0.500000 0.710637 0.500000
O O15 0.500000 0.000000 0.573846
#
# Coordination Sequence:
#
# PCOD9494475 Si02
#       5
#    16  16  16  16   8
#     4   9  17  28  41  59  84 112 143 180 220 264
#     4   9  16  27  44  67  95 123 152 191 237 278
#     4   9  18  32  50  72  97 125 157 192 230 276
#     4   9  15  24  38  59  86 113 141 178 223 266
#     4   9  14  20  34  56  82 112 142 175 219 263
#
# _framework density 22.320183
#
# number of rings (size 3 to 8) (size 9 to 14) (size 15 to 20)
#    0.000    3.000    1.111    0.667    0.000    4.000 
#    0.000    2.222    0.000    0.667    0.000    3.889 
#    0.000    4.444    0.000    0.000    0.000    0.000 
#
# Total GULP energy -200477.124809 kJ/mol
# GULP energy per Si atom -5568.809022 kJ/mol
# Density = 2.226938 g / cm^3
# Si number density = 22.320183 Si / 1000 Ang^3
#
#
#
# Elastic Constant Matrix: (Units=GPa)
#
#
# Indices 1 2 3 4 5 6 
#
# 1 175.9258 -2.4246 92.5930 0.0000 0.0000 0.0000
# 2 -2.4246 89.3738 3.2035 0.0000 0.0000 0.0000
# 3 92.5930 3.2035 117.5750 0.0000 0.0000 0.0000
# 4 0.0000 0.0000 0.0000 -12.5678 0.0000 0.0000
# 5 0.0000 0.0000 0.0000 0.0000 15.6455 0.0000
# 6 0.0000 0.0000 0.0000 0.0000 0.0000 8.3421
#
#
#
# Elastic Compliance Matrix: (Units=1/GPa)
#
#
# Indices 1 2 3 4 5 6 
#
# 1 0.009734 0.000539 -0.007680 0.000000 0.000000 0.000000
# 2 0.000539 0.011230 -0.000731 0.000000 0.000000 0.000000
# 3 -0.007680 -0.000731 0.014574 0.000000 0.000000 0.000000
# 4 0.000000 0.000000 0.000000 -0.079568 0.000000 0.000000
# 5 0.000000 0.000000 0.000000 0.000000 0.063916 0.000000
# 6 0.000000 0.000000 0.000000 0.000000 0.000000 0.119874
#
#
# Mechanical properties :
#
#
# Convention : Reuss Voigt Hill
#
# Bulk Modulus (GPa) = 50.52083 63.29091 56.90587
# Shear Modulus (GPa) = 30.84497 21.58414 26.21455
#
# Velocity S-wave (km/s) = 3.72147 3.11307 3.43078
# Velocity P-wave (km/s) = 6.41479 6.42955 6.42217
#
# Compressibility (1/GPa) = 0.01979381
#
# Stress axis : x y z
#
# Youngs Moduli (GPa) = 102.73250 89.04892 68.61693
#
# Poissons Ratio (x) = -0.04803 0.52701
# Poissons Ratio (y) = -0.05541 0.05014
# Poissons Ratio (z) = 0.78903 0.06507
#
# Static dielectric constant tensor:
#      x y z
#    x 2.017330 0.000000 0.000000 
#    y 0.000000 1.923240 0.000000 
#    z 0.000000 0.000000 1.809870 
# 
# From -- ./inp_files/49531.got.cif
#   From: 2010.05.17/outbox.cif.g08.bks.cpg/sg65_25_cif.got.tgz:49531.got - 2010.06.03 17:01:31.
