data_PCOD9494086
_publ_section_title
;
Structure prediction by ZEFSAII (Michael W. Deem and Ramdas Pophale) SiO2 
 PCOD9494086
Probable space group: C M M M
;
_chemical_formula_sum "Si O2"
_cell_formula_units_Z 58
_cell_length_a 10.761867
_cell_length_b 24.462792
_cell_length_c 10.471854
_cell_angle_alpha 90.000000
_cell_angle_beta 90.000000
_cell_angle_gamma 90.000000
_cell_volume 2756.875931
_symmetry_space_group_name_H-M "C M M M"
_symmetry_group_IT_number 65
_symmetry_cell_setting 'orthorhombic'
loop_
_space_group_symop_operation_xyz
x,y,z
-x,-y,z
x,-y,-z
-x,y,-z
-x,-y,-z
x,y,-z
-x,y,z
x,-y,z
1/2+x,1/2+y,z
1/2-x,1/2-y,z
1/2+x,1/2-y,-z
1/2-x,1/2+y,-z
1/2-x,1/2-y,-z
1/2+x,1/2+y,-z
1/2-x,1/2+y,z
1/2+x,1/2-y,z
loop_
_atom_site_type_symbol
_atom_site_label
_atom_site_fract_x
_atom_site_fract_y
_atom_site_fract_z
Si Si1 0.250000 0.250000 0.745008
Si Si2 0.270302 0.562372 0.356668
Si Si3 0.354993 0.642806 0.139431
Si Si4 0.500000 0.079944 0.749624
Si Si5 0.000000 0.500000 0.000000
Si Si6 0.000000 0.698456 0.646168
O O1 0.281282 0.302513 0.829542
O O2 0.125448 0.266296 0.667418
O O3 0.292544 0.583095 0.500000
O O4 0.314550 0.500000 0.348483
O O5 0.331383 0.599604 0.250022
O O6 0.124048 0.563377 0.325677
O O7 0.500000 0.656556 0.137538
O O8 0.319282 0.620399 0.000000
O O9 0.500000 0.146540 0.742939
O O10 0.500000 0.048338 0.885320
O O11 0.000000 0.677626 0.500000
#
# Coordination Sequence:
#
# PCOD9494086 Si02
#       6
#     8  16  16   8   2   8
#     4  12  24  46  70 106 141 193 236 296 361 430
#     4  11  24  43  69 100 137 181 231 293 358 427
#     4  11  26  46  68  99 137 183 237 294 359 433
#     4  12  24  41  68 103 141 181 233 292 356 426
#     4  12  28  44  66 112 142 188 238 300 366 430
#     4  12  26  44  71 110 148 190 243 299 366 439
#
# _framework density 21.038307
#
# number of rings (size 3 to 8) (size 9 to 14) (size 15 to 20)
#    0.000    0.552    5.517    2.069    1.931    3.862 
#    2.483    2.759    0.000    0.000    0.000    0.000 
#    0.000    0.000    0.000    0.000    0.000    0.000 
#
# Total GULP energy -161833.842271 kJ/mol
# GULP energy per Si atom -5580.477320 kJ/mol
# Density = 2.099042 g / cm^3
# Si number density = 21.038307 Si / 1000 Ang^3
#
#
#
# Elastic Constant Matrix: (Units=GPa)
#
#
# Indices 1 2 3 4 5 6 
#
# 1 94.6205 28.0749 37.7396 0.0000 0.0000 0.0000
# 2 28.0749 89.6216 66.2014 0.0000 0.0000 0.0000
# 3 37.7396 66.2014 197.4256 0.0000 0.0000 0.0000
# 4 0.0000 0.0000 0.0000 38.2186 0.0000 0.0000
# 5 0.0000 0.0000 0.0000 0.0000 15.3416 0.0000
# 6 0.0000 0.0000 0.0000 0.0000 0.0000 25.8629
#
#
#
# Elastic Compliance Matrix: (Units=1/GPa)
#
#
# Indices 1 2 3 4 5 6 
#
# 1 0.011922 -0.002727 -0.001365 0.000000 0.000000 0.000000
# 2 -0.002727 0.015455 -0.004661 0.000000 0.000000 0.000000
# 3 -0.001365 -0.004661 0.006889 0.000000 0.000000 0.000000
# 4 0.000000 0.000000 0.000000 0.026165 0.000000 0.000000
# 5 0.000000 0.000000 0.000000 0.000000 0.065182 0.000000
# 6 0.000000 0.000000 0.000000 0.000000 0.000000 0.038665
#
#
# Mechanical properties :
#
#
# Convention : Reuss Voigt Hill
#
# Bulk Modulus (GPa) = 59.66180 71.74439 65.70309
# Shear Modulus (GPa) = 26.68496 32.52808 29.60652
#
# Velocity S-wave (km/s) = 3.56532 3.93636 3.75543
# Velocity P-wave (km/s) = 6.73564 7.40511 7.07830
#
# Compressibility (1/GPa) = 0.01676114
#
# Stress axis : x y z
#
# Youngs Moduli (GPa) = 83.87962 64.70240 145.15632
#
# Poissons Ratio (x) = 0.17642 0.19809
# Poissons Ratio (y) = 0.22871 0.67662
# Poissons Ratio (z) = 0.11447 0.30160
#
# Static dielectric constant tensor:
#      x y z
#    x 1.763610 0.000000 0.000000 
#    y 0.000000 1.754220 0.000000 
#    z 0.000000 0.000000 1.749120 
# 
# From -- ./inp_files/4544.got.cif
#   From: 2010.05.17/outbox.cif.g08.bks.cpg/sg65_3_cif.got.tgz:4544.got - 2010.06.03 17:01:31.
