data_PCOD9494242
_publ_section_title
;
Structure prediction by ZEFSAII (Michael W. Deem and Ramdas Pophale) SiO2 
 PCOD9494242
Probable space group: C M M M
;
_chemical_formula_sum "Si O2"
_cell_formula_units_Z 64
_cell_length_a 14.639684
_cell_length_b 7.184464
_cell_length_c 23.029793
_cell_angle_alpha 90.000000
_cell_angle_beta 90.000000
_cell_angle_gamma 90.000000
_cell_volume 2422.234078
_symmetry_space_group_name_H-M "C M M M"
_symmetry_group_IT_number 65
_symmetry_cell_setting 'orthorhombic'
loop_
_space_group_symop_operation_xyz
x,y,z
-x,-y,z
x,-y,-z
-x,y,-z
-x,-y,-z
x,y,-z
-x,y,z
x,-y,z
1/2+x,1/2+y,z
1/2-x,1/2-y,z
1/2+x,1/2-y,-z
1/2-x,1/2+y,-z
1/2-x,1/2-y,-z
1/2+x,1/2+y,-z
1/2-x,1/2+y,z
1/2+x,1/2-y,z
loop_
_atom_site_type_symbol
_atom_site_label
_atom_site_fract_x
_atom_site_fract_y
_atom_site_fract_z
Si Si1 0.139865 0.221761 0.000000
Si Si2 0.391933 0.274023 0.375532
Si Si3 0.890623 0.224322 0.500000
Si Si4 0.141985 0.220330 0.124815
Si Si5 0.891221 0.210530 0.747945
O O1 0.250000 0.250000 0.000000
O O2 0.105928 0.291483 0.937352
O O3 0.124022 0.000000 0.000000
O O4 0.500000 0.228071 0.377802
O O5 0.386111 0.500000 0.373822
O O6 0.353599 0.209903 0.437683
O O7 0.355984 0.207522 0.312952
O O8 0.000000 0.262766 0.500000
O O9 0.882390 0.000000 0.500000
O O10 0.250000 0.250000 0.121220
O O11 0.118589 0.296576 0.188367
O O12 0.118867 0.000000 0.126308
O O13 0.000000 0.197024 0.739601
O O14 0.852743 0.000000 0.752510
#
# Coordination Sequence:
#
# PCOD9494242 Si02
#       5
#     8  16   8  16  16
#     4   8  14  24  37  53  71  91 117 148 178 206
#     4   7   9  13  22  38  61  87 112 138 170 206
#     4   7   8  10  18  34  57  84 111 137 166 201
#     4   9  16  26  40  56  73  94 121 150 178 210
#     4   8  13  21  33  50  72  95 117 144 180 217
#
# _framework density 26.421889
#
# number of rings (size 3 to 8) (size 9 to 14) (size 15 to 20)
#    0.000    4.125    0.000    3.000    0.000    0.000 
#    0.000    0.625    0.000    4.500    0.000    0.875 
#    0.000   10.000    0.000    0.000    0.000   14.500 
#
# Total GULP energy -178233.070129 kJ/mol
# GULP energy per Si atom -5569.783442 kJ/mol
# Density = 2.636175 g / cm^3
# Si number density = 26.421889 Si / 1000 Ang^3
#
#
#
# Elastic Constant Matrix: (Units=GPa)
#
#
# Indices 1 2 3 4 5 6 
#
# 1 76.6906 -10.4630 15.6781 0.0000 0.0000 0.0000
# 2 -10.4630 141.4800 25.7374 0.0000 0.0000 0.0000
# 3 15.6781 25.7374 441.6964 0.0000 0.0000 0.0000
# 4 0.0000 0.0000 0.0000 -50.6381 0.0000 0.0000
# 5 0.0000 0.0000 0.0000 0.0000 26.0457 0.0000
# 6 0.0000 0.0000 0.0000 0.0000 0.0000 -8.7860
#
#
#
# Elastic Compliance Matrix: (Units=1/GPa)
#
#
# Indices 1 2 3 4 5 6 
#
# 1 0.013296 0.001081 -0.000535 0.000000 0.000000 0.000000
# 2 0.001081 0.007232 -0.000460 0.000000 0.000000 0.000000
# 3 -0.000535 -0.000460 0.002310 0.000000 0.000000 0.000000
# 4 0.000000 0.000000 0.000000 -0.019748 0.000000 0.000000
# 5 0.000000 0.000000 0.000000 0.000000 0.038394 0.000000
# 6 0.000000 0.000000 0.000000 0.000000 0.000000 -0.113817
#
#
# Mechanical properties :
#
#
# Convention : Reuss Voigt Hill
#
# Bulk Modulus (GPa) = 43.46019 80.19691 61.82855
# Shear Modulus (GPa) = -77.11871 35.25193 -20.93339
#
# Velocity S-wave (km/s) = -5.40840 3.65663 -2.81779
# Velocity P-wave (km/s) = 4.74519 6.94595 3.58674
#
# Compressibility (1/GPa) = 0.02300956
#
# Stress axis : x y z
#
# Youngs Moduli (GPa) = 75.20947 138.28034 432.94271
#
# Poissons Ratio (x) = -0.14943 0.23159
# Poissons Ratio (y) = -0.08127 0.19904
# Poissons Ratio (z) = 0.04023 0.06357
#
# Static dielectric constant tensor:
#      x y z
#    x 2.048930 0.000000 0.000000 
#    y 0.000000 2.018360 0.000000 
#    z 0.000000 0.000000 2.182880 
# 
# From -- ./inp_files/51240.got.cif
#   From: 2010.05.17/outbox.cif.g08.bks.cpg/sg65_26_cif.got.tgz:51240.got - 2010.06.03 17:01:31.
