data_PCOD9494505
_publ_section_title
;
Structure prediction by ZEFSAII (Michael W. Deem and Ramdas Pophale) SiO2 
 PCOD9494505
Probable space group: C M M M
;
_chemical_formula_sum "Si O2"
_cell_formula_units_Z 72
_cell_length_a 13.323624
_cell_length_b 32.529441
_cell_length_c 9.051273
_cell_angle_alpha 90.000000
_cell_angle_beta 90.000000
_cell_angle_gamma 90.000000
_cell_volume 3922.912600
_symmetry_space_group_name_H-M "C M M M"
_symmetry_group_IT_number 65
_symmetry_cell_setting 'orthorhombic'
loop_
_space_group_symop_operation_xyz
x,y,z
-x,-y,z
x,-y,-z
-x,y,-z
-x,-y,-z
x,y,-z
-x,y,z
x,-y,z
1/2+x,1/2+y,z
1/2-x,1/2-y,z
1/2+x,1/2-y,-z
1/2-x,1/2+y,-z
1/2-x,1/2-y,-z
1/2+x,1/2+y,-z
1/2-x,1/2+y,z
1/2+x,1/2-y,z
loop_
_atom_site_type_symbol
_atom_site_label
_atom_site_fract_x
_atom_site_fract_y
_atom_site_fract_z
Si Si1 0.114091 0.863734 0.821979
Si Si2 0.878019 0.221740 0.333223
Si Si3 0.181178 0.394797 0.179692
Si Si4 0.500000 0.952605 0.819134
Si Si5 0.120372 0.696407 0.167476
O O1 0.143973 0.818280 0.765234
O O2 0.201621 0.895460 0.775964
O O3 0.000000 0.872727 0.771362
O O4 0.112608 0.862567 0.000000
O O5 0.842144 0.215631 0.500000
O O6 0.847048 0.265646 0.267337
O O7 0.000000 0.223097 0.337231
O O8 0.144584 0.349194 0.222396
O O9 0.100452 0.428386 0.230041
O O10 0.178541 0.396178 0.000000
O O11 0.500000 0.000000 0.773198
O O12 0.500000 0.951885 0.000000
O O13 0.000000 0.698700 0.158291
O O14 0.160196 0.701056 0.000000
#
# Coordination Sequence:
#
# PCOD9494505 Si02
#       5
#    16  16  16   8  16
#     4   9  17  29  44  62  88 124 161 188 217 263
#     4   9  17  28  41  60  90 124 158 196 230 261
#     4   9  16  27  44  66  89 116 151 189 228 273
#     4   9  16  28  48  74  99 117 141 187 245 289
#     4   9  15  25  42  61  85 116 153 194 231 268
#
# _framework density 18.353708999999998
#
# number of rings (size 3 to 8) (size 9 to 14) (size 15 to 20)
#    0.000    3.000    1.111    0.667    0.000    3.556 
#    0.000    5.556    0.000    0.667    0.000    4.667 
#    0.000    7.111    0.000    5.556    0.000    5.778 
#
# Total GULP energy -200601.109778 kJ/mol
# GULP energy per Si atom -5572.253049 kJ/mol
# Density = 1.831194 g / cm^3
# Si number density = 18.353709 Si / 1000 Ang^3
#
#
#
# Elastic Constant Matrix: (Units=GPa)
#
#
# Indices 1 2 3 4 5 6 
#
# 1 128.8972 80.5444 15.7099 0.0000 0.0000 0.0000
# 2 80.5444 107.6163 15.1131 0.0000 0.0000 0.0000
# 3 15.7099 15.1131 17.3496 0.0000 0.0000 0.0000
# 4 0.0000 0.0000 0.0000 -4.1159 0.0000 0.0000
# 5 0.0000 0.0000 0.0000 0.0000 10.8933 0.0000
# 6 0.0000 0.0000 0.0000 0.0000 0.0000 18.6373
#
#
#
# Elastic Compliance Matrix: (Units=1/GPa)
#
#
# Indices 1 2 3 4 5 6 
#
# 1 0.014849 -0.010511 -0.004289 0.000000 0.000000 0.000000
# 2 -0.010511 0.018028 -0.006186 0.000000 0.000000 0.000000
# 3 -0.004289 -0.006186 0.066911 0.000000 0.000000 0.000000
# 4 0.000000 0.000000 0.000000 -0.242963 0.000000 0.000000
# 5 0.000000 0.000000 0.000000 0.000000 0.091800 0.000000
# 6 0.000000 0.000000 0.000000 0.000000 0.000000 0.053656
#
#
# Mechanical properties :
#
#
# Convention : Reuss Voigt Hill
#
# Bulk Modulus (GPa) = 17.29676 52.95533 35.12604
# Shear Modulus (GPa) = 78.70733 14.58266 46.64499
#
# Velocity S-wave (km/s) = 6.55566 2.82181 5.04675
# Velocity P-wave (km/s) = 8.16987 6.28745 7.28968
#
# Compressibility (1/GPa) = 0.05781429
#
# Stress axis : x y z
#
# Youngs Moduli (GPa) = 67.34377 55.46877 14.94522
#
# Poissons Ratio (x) = 0.58305 0.06411
# Poissons Ratio (y) = 0.70787 0.09245
# Poissons Ratio (z) = 0.28887 0.34314
#
# Static dielectric constant tensor:
#      x y z
#    x 1.748700 0.000000 0.000000 
#    y 0.000000 1.585560 0.000000 
#    z 0.000000 0.000000 1.620900 
# 
# From -- ./inp_files/7313.got.cif
#   From: 2010.05.17/outbox.cif.g08.bks.cpg/sg65_4_cif.got.tgz:7313.got - 2010.06.03 17:01:31.
