data_PCOD9494656
_publ_section_title
;
Structure prediction by ZEFSAII (Michael W. Deem and Ramdas Pophale) SiO2 
 PCOD9494656
Probable space group: C M M M
;
_chemical_formula_sum "Si O2"
_cell_formula_units_Z 56
_cell_length_a 15.000000
_cell_length_b 24.000000
_cell_length_c 15.000000
_cell_angle_alpha 90.000000
_cell_angle_beta 90.000000
_cell_angle_gamma 90.000000
_cell_volume 5400.000000
_symmetry_space_group_name_H-M "C M M M"
_symmetry_group_IT_number 65
_symmetry_cell_setting 'orthorhombic'
loop_
_space_group_symop_operation_xyz
x,y,z
-x,-y,z
x,-y,-z
-x,y,-z
-x,-y,-z
x,y,-z
-x,y,z
x,-y,z
1/2+x,1/2+y,z
1/2-x,1/2-y,z
1/2+x,1/2-y,-z
1/2-x,1/2+y,-z
1/2-x,1/2-y,-z
1/2+x,1/2+y,-z
1/2-x,1/2+y,z
1/2+x,1/2-y,z
loop_
_atom_site_type_symbol
_atom_site_label
_atom_site_fract_x
_atom_site_fract_y
_atom_site_fract_z
Si Si1 0.598333 0.935127 0.758474
Si Si2 0.604891 0.760439 0.702382
Si Si3 0.646851 0.265353 0.097971
Si Si4 0.891862 0.145337 0.607368
Si Si5 0.290003 0.435435 0.739815
Si Si6 0.606128 0.396434 0.097010
Si Si7 0.105815 0.633111 0.597220
O O1 0.500000 0.910433 0.783477
O O2 0.696371 0.914012 0.784981
O O3 0.608824 0.923608 0.652812
O O4 0.593796 0.000000 0.780884
O O5 0.500000 0.760461 0.685401
O O6 0.614844 0.760423 0.808926
O O7 0.635516 0.703881 0.654066
O O8 0.642476 0.815896 0.656006
O O9 0.750000 0.250000 0.094211
O O10 0.633186 0.331650 0.107243
O O11 0.607968 0.249501 0.000000
O O12 0.880150 0.146755 0.500000
O O13 0.831221 0.099586 0.658000
O O14 0.000000 0.136591 0.623324
O O15 0.277221 0.500000 0.714398
O O16 0.358838 0.430486 0.820281
O O17 0.500000 0.397893 0.096748
O O18 0.639040 0.415974 0.000000
O O19 0.146983 0.630760 0.500000
O O20 0.000000 0.643399 0.587607
#
# Coordination Sequence:
#
# PCOD9494656 Si02
#       7
#    16  16  16  16  16  16  16
#     4   9  20  39  60  82 112 154 200 246 300 355
#     4  10  19  33  56  84 115 153 194 236 288 351
#     4  10  21  35  54  82 115 153 192 233 282 341
#     4  10  21  37  56  82 122 166 200 237 293 359
#     4  11  23  38  60  88 117 152 200 253 300 357
#     4  10  21  39  63  90 122 157 195 244 300 354
#     4   9  18  32  53  83 114 146 189 239 287 339
#
# _framework density 10.370369999999999
#
# number of rings (size 3 to 8) (size 9 to 14) (size 15 to 20)
#    0.000    2.143    1.429    1.286    2.000    5.143 
#    0.000    4.286    0.000    3.000    0.000    2.000 
#    0.000    0.000    0.000    0.000    0.000    0.286 
#
# Total GULP energy -311808.024269 kJ/mol
# GULP energy per Si atom -5568.000433 kJ/mol
# Density = 1.034677 g / cm^3
# Si number density = 10.370370 Si / 1000 Ang^3
#
#
#
# Elastic Constant Matrix: (Units=GPa)
#
#
# Indices 1 2 3 4 5 6 
#
# 1 89.3908 6.9357 -3.2290 0.0000 0.0000 0.0000
# 2 6.9357 -1.8322 -9.5205 0.0000 0.0000 0.0000
# 3 -3.2290 -9.5205 64.5903 0.0000 0.0000 0.0000
# 4 0.0000 0.0000 0.0000 15.8718 0.0000 0.0000
# 5 0.0000 0.0000 0.0000 0.0000 58.3234 0.0000
# 6 0.0000 0.0000 0.0000 0.0000 0.0000 18.4247
#
#
#
# Elastic Compliance Matrix: (Units=1/GPa)
#
#
# Indices 1 2 3 4 5 6 
#
# 1 0.009792 0.019550 0.003371 0.000000 0.000000 0.000000
# 2 0.019550 -0.270041 -0.038826 0.000000 0.000000 0.000000
# 3 0.003371 -0.038826 0.009928 0.000000 0.000000 0.000000
# 4 0.000000 0.000000 0.000000 0.063005 0.000000 0.000000
# 5 0.000000 0.000000 0.000000 0.000000 0.017146 0.000000
# 6 0.000000 0.000000 0.000000 0.000000 0.000000 0.054275
#
#
# Mechanical properties :
#
#
# Convention : Reuss Voigt Hill
#
# Bulk Modulus (GPa) = -3.54443 15.61348 6.03452
# Shear Modulus (GPa) = -28.06953 29.05483 0.49265
#
# Velocity S-wave (km/s) = -3.68278 3.74686 0.48790
# Velocity P-wave (km/s) = 4.44933 5.12474 1.79811
#
# Compressibility (1/GPa) = -0.28213248
#
# Stress axis : x y z
#
# Youngs Moduli (GPa) = 102.12660 -3.70314 100.72730
#
# Poissons Ratio (x) = 0.07240 -0.33956
# Poissons Ratio (y) = -1.99654 3.91087
# Poissons Ratio (z) = -0.34428 -0.14378
#
# Static dielectric constant tensor:
#      x y z
#    x 1.911950 0.000000 0.000000 
#    y 0.000000 1.758160 0.000000 
#    z 0.000000 0.000000 1.752790 
# 
# From -- ./inp_files/40769.got.cif
#   From: 2010.05.17/outbox.ucp.g08.bks.cvg/sg65_21_cif.got.tgz:40769.got - 2010.06.11 16:39:57.
