data_PCOD9494276
_publ_section_title
;
Structure prediction by ZEFSAII (Michael W. Deem and Ramdas Pophale) SiO2 
 PCOD9494276
Probable space group: C M M M
;
_chemical_formula_sum "Si O2"
_cell_formula_units_Z 80
_cell_length_a 15.232202
_cell_length_b 40.392125
_cell_length_c 7.370630
_cell_angle_alpha 90.000000
_cell_angle_beta 90.000000
_cell_angle_gamma 90.000000
_cell_volume 4534.861238
_symmetry_space_group_name_H-M "C M M M"
_symmetry_group_IT_number 65
_symmetry_cell_setting 'orthorhombic'
loop_
_space_group_symop_operation_xyz
x,y,z
-x,-y,z
x,-y,-z
-x,y,-z
-x,-y,-z
x,y,-z
-x,y,z
x,-y,z
1/2+x,1/2+y,z
1/2-x,1/2-y,z
1/2+x,1/2-y,-z
1/2-x,1/2+y,-z
1/2-x,1/2-y,-z
1/2+x,1/2+y,-z
1/2-x,1/2+y,z
1/2+x,1/2-y,z
loop_
_atom_site_type_symbol
_atom_site_label
_atom_site_fract_x
_atom_site_fract_y
_atom_site_fract_z
Si Si1 0.400241 0.229293 0.279586
Si Si2 0.279993 0.168544 0.277922
Si Si3 0.600249 0.108762 0.713488
Si Si4 0.602060 0.035561 0.217964
Si Si5 0.901210 0.805184 0.278910
O O1 0.398291 0.229376 0.500000
O O2 0.500000 0.220635 0.226065
O O3 0.331857 0.201653 0.221149
O O4 0.382682 0.267072 0.223848
O O5 0.279599 0.168132 0.500000
O O6 0.334474 0.136686 0.214495
O O7 0.179018 0.171865 0.220362
O O8 0.591924 0.115478 0.500000
O O9 0.500000 0.109889 0.788407
O O10 0.637319 0.071479 0.730349
O O11 0.500000 0.035975 0.278313
O O12 0.639963 0.000000 0.279413
O O13 0.602109 0.034978 0.000000
O O14 0.902161 0.805198 0.500000
O O15 0.000000 0.813859 0.220194
#
# Coordination Sequence:
#
# PCOD9494276 Si02
#       5
#    16  16  16  16  16
#     4   8  12  17  25  37  55  83 117 146 172 205
#     4   9  14  19  27  40  63  91 114 140 176 210
#     4   9  16  23  32  50  74  96 116 138 167 203
#     4   8  14  25  39  52  68  93 120 140 160 192
#     4   8  13  19  26  37  55  84 121 152 175 203
#
# _framework density 17.641112
#
# number of rings (size 3 to 8) (size 9 to 14) (size 15 to 20)
#    0.000    3.600    0.000    3.000    0.000    5.200 
#    0.000    2.000    0.000    0.000    0.000    0.000 
#    0.000    4.800    0.000   14.800    0.000    6.000 
#
# Total GULP energy -222783.053500 kJ/mol
# GULP energy per Si atom -5569.576337 kJ/mol
# Density = 1.760096 g / cm^3
# Si number density = 17.641112 Si / 1000 Ang^3
#
#
#
# Elastic Constant Matrix: (Units=GPa)
#
#
# Indices 1 2 3 4 5 6 
#
# 1 109.3499 90.7336 4.8860 0.0000 0.0000 0.0000
# 2 90.7336 119.8627 2.6061 0.0000 0.0000 0.0000
# 3 4.8860 2.6061 60.3547 0.0000 0.0000 0.0000
# 4 0.0000 0.0000 0.0000 26.7782 0.0000 0.0000
# 5 0.0000 0.0000 0.0000 0.0000 -8.4311 0.0000
# 6 0.0000 0.0000 0.0000 0.0000 0.0000 14.2466
#
#
#
# Elastic Compliance Matrix: (Units=1/GPa)
#
#
# Indices 1 2 3 4 5 6 
#
# 1 0.024676 -0.018653 -0.001192 0.000000 0.000000 0.000000
# 2 -0.018653 0.022451 0.000541 0.000000 0.000000 0.000000
# 3 -0.001192 0.000541 0.016642 0.000000 0.000000 0.000000
# 4 0.000000 0.000000 0.000000 0.037344 0.000000 0.000000
# 5 0.000000 0.000000 0.000000 0.000000 -0.118609 0.000000
# 6 0.000000 0.000000 0.000000 0.000000 0.000000 0.070192
#
#
# Mechanical properties :
#
#
# Convention : Reuss Voigt Hill
#
# Bulk Modulus (GPa) = 39.74654 54.00209 46.87431
# Shear Modulus (GPa) = 50.15465 19.27487 34.71476
#
# Velocity S-wave (km/s) = 5.33781 3.30905 4.44084
# Velocity P-wave (km/s) = 7.78262 6.72887 7.27485
#
# Compressibility (1/GPa) = 0.02515942
#
# Stress axis : x y z
#
# Youngs Moduli (GPa) = 40.52563 44.54112 60.08939
#
# Poissons Ratio (x) = 0.83083 0.07164
# Poissons Ratio (y) = 0.75593 -0.03249
# Poissons Ratio (z) = 0.04831 -0.02408
#
# Static dielectric constant tensor:
#      x y z
#    x 1.590440 0.000000 0.000000 
#    y 0.000000 1.618480 0.000000 
#    z 0.000000 0.000000 1.690880 
# 
# From -- ./inp_files/25276.got.cif
#   From: 2010.05.17/outbox.cif.g08.bks.cpg/sg65_13_cif.got.tgz:25276.got - 2010.06.03 17:01:31.
