data_PCOD9494394
_publ_section_title
;
Structure prediction by ZEFSAII (Michael W. Deem and Ramdas Pophale) SiO2 
 PCOD9494394
Probable space group: C M M M
;
_chemical_formula_sum "Si O2"
_cell_formula_units_Z 88
_cell_length_a 9.871994
_cell_length_b 31.149048
_cell_length_c 17.308065
_cell_angle_alpha 90.000000
_cell_angle_beta 90.000000
_cell_angle_gamma 90.000000
_cell_volume 5322.285632
_symmetry_space_group_name_H-M "C M M M"
_symmetry_group_IT_number 65
_symmetry_cell_setting 'orthorhombic'
loop_
_space_group_symop_operation_xyz
x,y,z
-x,-y,z
x,-y,-z
-x,y,-z
-x,-y,-z
x,y,-z
-x,y,z
x,-y,z
1/2+x,1/2+y,z
1/2-x,1/2-y,z
1/2+x,1/2-y,-z
1/2-x,1/2+y,-z
1/2-x,1/2-y,-z
1/2+x,1/2+y,-z
1/2-x,1/2+y,z
1/2+x,1/2-y,z
loop_
_atom_site_type_symbol
_atom_site_label
_atom_site_fract_x
_atom_site_fract_y
_atom_site_fract_z
Si Si1 0.656198 0.210909 0.619893
Si Si2 0.158337 0.050293 0.091988
Si Si3 0.836659 0.614350 0.191066
Si Si4 0.165351 0.450742 0.500000
Si Si5 0.154586 0.711625 0.191785
Si Si6 0.335494 0.115653 0.370767
O O1 0.500000 0.216128 0.594981
O O2 0.750000 0.250000 0.593892
O O3 0.655393 0.211291 0.714080
O O4 0.706642 0.162986 0.599883
O O5 0.256991 0.080704 0.139516
O O6 0.000000 0.059224 0.109333
O O7 0.183315 0.000000 0.109098
O O8 0.177092 0.056150 0.000000
O O9 0.804494 0.663576 0.168044
O O10 0.797802 0.609415 0.281424
O O11 0.000000 0.609260 0.185559
O O12 0.211288 0.500000 0.500000
O O13 0.208003 0.423081 0.425519
O O14 0.000000 0.451521 0.500000
O O15 0.250000 0.750000 0.165365
O O16 0.000000 0.719074 0.167630
O O17 0.500000 0.117271 0.372257
#
# Coordination Sequence:
#
# PCOD9494394 Si02
#       6
#    16  16  16   8  16  16
#     4   8  13  23  39  59  86 116 144 178 221 264
#     4   9  19  35  51  68  93 122 150 183 227 280
#     4   9  17  29  47  72  97 119 150 193 233 268
#     4   9  16  26  41  60  85 121 159 189 224 271
#     4   8  14  24  39  62  91 120 149 182 220 263
#     4   8  15  27  41  62  93 122 149 187 229 264
#
# _framework density 16.534251000000001
#
# number of rings (size 3 to 8) (size 9 to 14) (size 15 to 20)
#    0.000    3.545    0.000    2.727    0.000    2.182 
#    0.000    5.909    0.000    0.545    0.000    1.909 
#    0.000    4.364    0.000    0.000    0.000    0.000 
#
# Total GULP energy -244951.708817 kJ/mol
# GULP energy per Si atom -5567.084291 kJ/mol
# Density = 1.649662 g / cm^3
# Si number density = 16.534251 Si / 1000 Ang^3
#
#
#
# Elastic Constant Matrix: (Units=GPa)
#
#
# Indices 1 2 3 4 5 6 
#
# 1 48.8056 74.7543 36.5764 0.0000 0.0000 0.0000
# 2 74.7543 175.7062 65.5230 0.0000 0.0000 0.0000
# 3 36.5764 65.5230 47.7657 0.0000 0.0000 0.0000
# 4 0.0000 0.0000 0.0000 -512.7951 0.0000 0.0000
# 5 0.0000 0.0000 0.0000 0.0000 -17.1326 0.0000
# 6 0.0000 0.0000 0.0000 0.0000 0.0000 32.8657
#
#
#
# Elastic Compliance Matrix: (Units=1/GPa)
#
#
# Indices 1 2 3 4 5 6 
#
# 1 0.072688 -0.020818 -0.027103 0.000000 0.000000 0.000000
# 2 -0.020818 0.017614 -0.008221 0.000000 0.000000 0.000000
# 3 -0.027103 -0.008221 0.052967 0.000000 0.000000 0.000000
# 4 0.000000 0.000000 0.000000 -0.001950 0.000000 0.000000
# 5 0.000000 0.000000 0.000000 0.000000 -0.058368 0.000000
# 6 0.000000 0.000000 0.000000 0.000000 0.000000 0.030427
#
#
# Mechanical properties :
#
#
# Convention : Reuss Voigt Hill
#
# Bulk Modulus (GPa) = 32.27421 69.55387 50.91404
# Shear Modulus (GPa) = 21.18749 -93.05080 -35.93165
#
# Velocity S-wave (km/s) = 3.58359 -7.50998 -4.66678
# Velocity P-wave (km/s) = 6.05680 5.74820 1.34962
#
# Compressibility (1/GPa) = 0.03098449
#
# Stress axis : x y z
#
# Youngs Moduli (GPa) = 13.75751 56.77308 18.87982
#
# Poissons Ratio (x) = 1.18190 0.51170
# Poissons Ratio (y) = 0.28640 0.15521
# Poissons Ratio (z) = 0.37287 0.46673
#
# Static dielectric constant tensor:
#      x y z
#    x 1.540430 0.000000 0.000000 
#    y 0.000000 1.560870 0.000000 
#    z 0.000000 0.000000 1.562980 
# 
# From -- ./inp_files/50331.got.cif
#   From: 2010.05.17/outbox.cif.g08.bks.cpg/sg65_26_cif.got.tgz:50331.got - 2010.06.03 17:01:31.
