data_PCOD9494281
_publ_section_title
;
Structure prediction by ZEFSAII (Michael W. Deem and Ramdas Pophale) SiO2 
 PCOD9494281
Probable space group: C M M M
;
_chemical_formula_sum "Si O2"
_cell_formula_units_Z 80
_cell_length_a 7.376525
_cell_length_b 18.571292
_cell_length_c 27.953686
_cell_angle_alpha 90.000000
_cell_angle_beta 90.000000
_cell_angle_gamma 90.000000
_cell_volume 3829.420163
_symmetry_space_group_name_H-M "C M M M"
_symmetry_group_IT_number 65
_symmetry_cell_setting 'orthorhombic'
loop_
_space_group_symop_operation_xyz
x,y,z
-x,-y,z
x,-y,-z
-x,y,-z
-x,-y,-z
x,y,-z
-x,y,z
x,-y,z
1/2+x,1/2+y,z
1/2-x,1/2-y,z
1/2+x,1/2-y,-z
1/2-x,1/2+y,-z
1/2-x,1/2-y,-z
1/2+x,1/2+y,-z
1/2-x,1/2+y,z
1/2+x,1/2-y,z
loop_
_atom_site_type_symbol
_atom_site_label
_atom_site_fract_x
_atom_site_fract_y
_atom_site_fract_z
Si Si1 0.783017 0.663656 0.948458
Si Si2 0.783449 0.665106 0.447107
Si Si3 0.716692 0.836171 0.845454
Si Si4 0.283186 0.835396 0.741480
Si Si5 0.778203 0.416914 0.352988
O O1 0.750000 0.750000 0.948422
O O2 0.713685 0.636329 0.896931
O O3 0.000000 0.653066 0.948500
O O4 0.713782 0.636392 0.000000
O O5 0.713341 0.644855 0.500000
O O6 0.750000 0.750000 0.440440
O O7 0.715014 0.621579 0.401515
O O8 0.000000 0.654562 0.448356
O O9 0.500000 0.847453 0.845699
O O10 0.750000 0.750000 0.845394
O O11 0.786202 0.861072 0.793629
O O12 0.500000 0.845290 0.742585
O O13 0.250000 0.750000 0.736921
O O14 0.215235 0.876321 0.694790
O O15 0.726210 0.500000 0.352221
O O16 0.000000 0.413840 0.353021
#
# Coordination Sequence:
#
# PCOD9494281 Si02
#       5
#    16  16  16  16  16
#     4   8  12  17  25  38  59  86 112 139 174 216
#     4   9  17  29  46  66  85 106 132 161 192 227
#     4   8  13  20  30  46  66  88 117 149 181 219
#     4   9  16  26  41  58  76 100 129 161 194 228
#     4   9  17  28  42  61  83 105 131 163 195 226
#
# _framework density 20.890889999999999
#
# number of rings (size 3 to 8) (size 9 to 14) (size 15 to 20)
#    0.000    3.400    0.000    0.600    0.000    0.400 
#    0.000    2.000    0.000    2.400    0.000    2.800 
#    0.000    0.800    0.000   11.200    0.000    3.800 
#
# Total GULP energy -222751.481919 kJ/mol
# GULP energy per Si atom -5568.787048 kJ/mol
# Density = 2.084334 g / cm^3
# Si number density = 20.890890 Si / 1000 Ang^3
#
#
#
# Elastic Constant Matrix: (Units=GPa)
#
#
# Indices 1 2 3 4 5 6 
#
# 1 80.1133 -2.3789 14.6953 0.0000 0.0000 0.0000
# 2 -2.3789 47.5685 93.4337 0.0000 0.0000 0.0000
# 3 14.6953 93.4337 317.5564 0.0000 0.0000 0.0000
# 4 0.0000 0.0000 0.0000 -4.1202 0.0000 0.0000
# 5 0.0000 0.0000 0.0000 0.0000 -0.9264 0.0000
# 6 0.0000 0.0000 0.0000 0.0000 0.0000 6.6634
#
#
#
# Elastic Compliance Matrix: (Units=1/GPa)
#
#
# Indices 1 2 3 4 5 6 
#
# 1 0.012954 0.004325 -0.001872 0.000000 0.000000 0.000000
# 2 0.004325 0.051250 -0.015279 0.000000 0.000000 0.000000
# 3 -0.001872 -0.015279 0.007731 0.000000 0.000000 0.000000
# 4 0.000000 0.000000 0.000000 -0.242706 0.000000 0.000000
# 5 0.000000 0.000000 0.000000 0.000000 -1.079425 0.000000
# 6 0.000000 0.000000 0.000000 0.000000 0.000000 0.150073
#
#
# Mechanical properties :
#
#
# Convention : Reuss Voigt Hill
#
# Bulk Modulus (GPa) = 21.60660 72.97093 47.28877
# Shear Modulus (GPa) = -4.72125 22.95590 9.11733
#
# Velocity S-wave (km/s) = -1.50495 3.31848 2.09135
# Velocity P-wave (km/s) = 2.71021 7.04901 5.34012
#
# Compressibility (1/GPa) = 0.04628215
#
# Stress axis : x y z
#
# Youngs Moduli (GPa) = 77.19563 19.51220 129.34530
#
# Poissons Ratio (x) = -0.08438 0.24212
# Poissons Ratio (y) = -0.33384 1.97630
# Poissons Ratio (z) = 0.14450 0.29813
#
# Static dielectric constant tensor:
#      x y z
#    x 1.772020 0.000000 0.000000 
#    y 0.000000 1.671670 0.000000 
#    z 0.000000 0.000000 1.834870 
# 
# From -- ./inp_files/68826.got.cif
#   From: 2010.05.17/outbox.cif.g08.bks.cpg/sg65_35_cif.got.tgz:68826.got - 2010.06.03 17:01:31.
