data_PCOD9494368
_publ_section_title
;
Structure prediction by ZEFSAII (Michael W. Deem and Ramdas Pophale) SiO2 
 PCOD9494368
Probable space group: C M M M
;
_chemical_formula_sum "Si O2"
_cell_formula_units_Z 64
_cell_length_a 25.307733
_cell_length_b 13.163943
_cell_length_c 7.312048
_cell_angle_alpha 90.000000
_cell_angle_beta 90.000000
_cell_angle_gamma 90.000000
_cell_volume 2436.005535
_symmetry_space_group_name_H-M "C M M M"
_symmetry_group_IT_number 65
_symmetry_cell_setting 'orthorhombic'
loop_
_space_group_symop_operation_xyz
x,y,z
-x,-y,z
x,-y,-z
-x,y,-z
-x,-y,-z
x,y,-z
-x,y,z
x,-y,z
1/2+x,1/2+y,z
1/2-x,1/2-y,z
1/2+x,1/2-y,-z
1/2-x,1/2+y,-z
1/2-x,1/2-y,-z
1/2+x,1/2+y,-z
1/2-x,1/2+y,z
1/2+x,1/2-y,z
loop_
_atom_site_type_symbol
_atom_site_label
_atom_site_fract_x
_atom_site_fract_y
_atom_site_fract_z
Si Si1 0.059189 0.160626 0.293242
Si Si2 0.563362 0.108564 0.789114
Si Si3 0.786993 0.609519 0.277624
Si Si4 0.329413 0.325524 0.276613
O O1 0.056228 0.121522 0.500000
O O2 0.070126 0.282371 0.302155
O O3 0.115268 0.127141 0.210607
O O4 0.000000 0.145042 0.212550
O O5 0.500000 0.100950 0.792099
O O6 0.582089 0.000000 0.710112
O O7 0.580583 0.115402 0.000000
O O8 0.788490 0.611201 0.500000
O O9 0.805712 0.500000 0.214114
O O10 0.725566 0.622018 0.225358
O O11 0.819612 0.708107 0.219595
O O12 0.331465 0.328548 0.500000
#
# Coordination Sequence:
#
# PCOD9494368 Si02
#       4
#    16  16  16  16
#     4   9  16  24  35  53  78 104 123 146 187 231
#     4   8  14  24  35  47  68 100 134 161 182 213
#     4   8  13  22  36  51  69  97 130 162 193 221
#     4   8  14  23  34  52  76  98 125 159 190 224
#
# _framework density 26.272517000000001
#
# number of rings (size 3 to 8) (size 9 to 14) (size 15 to 20)
#    0.000    3.750    0.000    2.250    0.000    1.500 
#    0.000    5.000    0.000    0.750    0.000    8.750 
#    0.000    3.000    0.000    6.250    0.000    6.500 
#
# Total GULP energy -178432.817800 kJ/mol
# GULP energy per Si atom -5576.025556 kJ/mol
# Density = 2.621272 g / cm^3
# Si number density = 26.272517 Si / 1000 Ang^3
#
#
#
# Elastic Constant Matrix: (Units=GPa)
#
#
# Indices 1 2 3 4 5 6 
#
# 1 269.4171 11.0672 3.8949 0.0000 0.0000 0.0000
# 2 11.0672 102.5298 4.2764 0.0000 0.0000 0.0000
# 3 3.8949 4.2764 106.5958 0.0000 0.0000 0.0000
# 4 0.0000 0.0000 0.0000 -15.3154 0.0000 0.0000
# 5 0.0000 0.0000 0.0000 0.0000 -13.7093 0.0000
# 6 0.0000 0.0000 0.0000 0.0000 0.0000 -16.9521
#
#
#
# Elastic Compliance Matrix: (Units=1/GPa)
#
#
# Indices 1 2 3 4 5 6 
#
# 1 0.003730 -0.000398 -0.000120 0.000000 0.000000 0.000000
# 2 -0.000398 0.009812 -0.000379 0.000000 0.000000 0.000000
# 3 -0.000120 -0.000379 0.009401 0.000000 0.000000 0.000000
# 4 0.000000 0.000000 0.000000 -0.065294 0.000000 0.000000
# 5 0.000000 0.000000 0.000000 0.000000 -0.072943 0.000000
# 6 0.000000 0.000000 0.000000 0.000000 0.000000 -0.058990
#
#
# Mechanical properties :
#
#
# Convention : Reuss Voigt Hill
#
# Bulk Modulus (GPa) = 47.28452 57.44663 52.36557
# Shear Modulus (GPa) = -30.22229 21.42494 -4.39868
#
# Velocity S-wave (km/s) = -3.39534 2.85877 -1.29533
# Velocity P-wave (km/s) = 1.63268 5.72800 4.21162
#
# Compressibility (1/GPa) = 0.02114857
#
# Stress axis : x y z
#
# Youngs Moduli (GPa) = 268.11171 101.91618 106.37351
#
# Poissons Ratio (x) = 0.04052 0.01280
# Poissons Ratio (y) = 0.10660 0.04033
# Poissons Ratio (z) = 0.03226 0.03864
#
# Static dielectric constant tensor:
#      x y z
#    x 2.079390 0.000000 0.000000 
#    y 0.000000 2.075310 0.000000 
#    z 0.000000 0.000000 2.001320 
# 
# From -- ./inp_files/7567.got.cif
#   From: 2010.05.17/outbox.cif.g08.bks.cpg/sg65_4_cif.got.tgz:7567.got - 2010.06.03 17:01:31.
