data_PCOD9494709
_publ_section_title
;
Structure prediction by ZEFSAII (Michael W. Deem and Ramdas Pophale) SiO2 
 PCOD9494709
Probable space group: C M M M
;
_chemical_formula_sum "Si O2"
_cell_formula_units_Z 44
_cell_length_a 18.000000
_cell_length_b 30.000000
_cell_length_c 9.000000
_cell_angle_alpha 90.000000
_cell_angle_beta 90.000000
_cell_angle_gamma 90.000000
_cell_volume 4860.000000
_symmetry_space_group_name_H-M "C M M M"
_symmetry_group_IT_number 65
_symmetry_cell_setting 'orthorhombic'
loop_
_space_group_symop_operation_xyz
x,y,z
-x,-y,z
x,-y,-z
-x,y,-z
-x,-y,-z
x,y,-z
-x,y,z
x,-y,z
1/2+x,1/2+y,z
1/2-x,1/2-y,z
1/2+x,1/2-y,-z
1/2-x,1/2+y,-z
1/2-x,1/2-y,-z
1/2+x,1/2+y,-z
1/2-x,1/2+y,z
1/2+x,1/2-y,z
loop_
_atom_site_type_symbol
_atom_site_label
_atom_site_fract_x
_atom_site_fract_y
_atom_site_fract_z
Si Si1 0.585480 0.762843 0.680558
Si Si2 0.674041 0.673919 0.679347
Si Si3 0.589527 0.407836 0.826532
Si Si4 0.409504 0.500000 0.328140
Si Si5 0.411257 0.052111 0.820925
Si Si6 0.342647 0.857057 0.680026
O O1 0.587490 0.762801 0.500000
O O2 0.500000 0.753120 0.725804
O O3 0.642263 0.722872 0.727068
O O4 0.608146 0.813440 0.724692
O O5 0.670042 0.673646 0.500000
O O6 0.622525 0.635052 0.745079
O O7 0.758532 0.659328 0.718007
O O8 0.500000 0.406464 0.816257
O O9 0.614629 0.454457 0.752126
O O10 0.610038 0.407576 0.000000
O O11 0.500000 0.500000 0.324392
O O12 0.386465 0.500000 0.500000
O O13 0.500000 0.056740 0.788456
O O14 0.368513 0.095116 0.749379
O O15 0.390615 0.000000 0.777897
O O16 0.402148 0.054581 0.000000
O O17 0.347015 0.861643 0.500000
#
# Coordination Sequence:
#
# PCOD9494709 Si02
#       6
#    16  16  16   8  16  16
#     4   9  17  31  54  81 108 141 182 226 273 325
#     4  10  20  34  52  77 110 148 182 218 268 328
#     4  10  20  34  52  75 104 138 181 231 276 320
#     4   9  17  31  53  77  99 129 172 221 272 325
#     4   9  19  37  59  81 107 142 183 224 269 327
#     4  10  20  34  54  83 114 142 177 226 277 325
#
# _framework density 9.0534979999999994
#
# number of rings (size 3 to 8) (size 9 to 14) (size 15 to 20)
#    0.000    2.455    0.000    3.000    0.000    7.273 
#    1.636    1.818    0.000    5.455    0.000    0.000 
#    0.000    0.000    0.000    0.000    0.000    0.000 
#
# Total GULP energy -245218.574210 kJ/mol
# GULP energy per Si atom -5573.149414 kJ/mol
# Density = 0.903289 g / cm^3
# Si number density = 9.053498 Si / 1000 Ang^3
#
#
#
# Elastic Constant Matrix: (Units=GPa)
#
#
# Indices 1 2 3 4 5 6 
#
# 1 79.3826 65.0030 27.0042 0.0000 0.0000 0.0000
# 2 65.0030 198.4272 36.0308 0.0000 0.0000 0.0000
# 3 27.0042 36.0308 30.2025 0.0000 0.0000 0.0000
# 4 0.0000 0.0000 0.0000 25.1205 0.0000 0.0000
# 5 0.0000 0.0000 0.0000 0.0000 21.2471 0.0000
# 6 0.0000 0.0000 0.0000 0.0000 0.0000 28.1122
#
#
#
# Elastic Compliance Matrix: (Units=1/GPa)
#
#
# Indices 1 2 3 4 5 6 
#
# 1 0.020694 -0.004365 -0.013295 0.000000 0.000000 0.000000
# 2 -0.004365 0.007354 -0.004870 0.000000 0.000000 0.000000
# 3 -0.013295 -0.004870 0.050807 0.000000 0.000000 0.000000
# 4 0.000000 0.000000 0.000000 0.039808 0.000000 0.000000
# 5 0.000000 0.000000 0.000000 0.000000 0.047065 0.000000
# 6 0.000000 0.000000 0.000000 0.000000 0.000000 0.035572
#
#
# Mechanical properties :
#
#
# Convention : Reuss Voigt Hill
#
# Bulk Modulus (GPa) = 29.59095 62.67647 46.13371
# Shear Modulus (GPa) = 19.40790 26.89426 23.15108
#
# Velocity S-wave (km/s) = 3.27746 3.85814 3.57959
# Velocity P-wave (km/s) = 5.54076 7.38489 6.52827
#
# Compressibility (1/GPa) = 0.03379412
#
# Stress axis : x y z
#
# Youngs Moduli (GPa) = 48.32220 135.98157 19.68220
#
# Poissons Ratio (x) = 0.59357 0.26168
# Poissons Ratio (y) = 0.21093 0.09586
# Poissons Ratio (z) = 0.64247 0.66226
#
# Static dielectric constant tensor:
#      x y z
#    x 1.648000 0.000000 0.000000 
#    y 0.000000 1.614380 0.000000 
#    z 0.000000 0.000000 1.611540 
# 
# From -- ./inp_files/10049.got.cif
#   From: 2010.05.17/outbox.ucp.g08.bks.cvg/sg65_6_cif.got.tgz:10049.got - 2010.06.11 16:39:57.
