data_PCOD9494751
_publ_section_title
;
Structure prediction by ZEFSAII (Michael W. Deem and Ramdas Pophale) SiO2 
 PCOD9494751
Probable space group: C M M M
;
_chemical_formula_sum "Si O2"
_cell_formula_units_Z 36
_cell_length_a 18.000000
_cell_length_b 24.000000
_cell_length_c 9.000000
_cell_angle_alpha 90.000000
_cell_angle_beta 90.000000
_cell_angle_gamma 90.000000
_cell_volume 3888.000000
_symmetry_space_group_name_H-M "C M M M"
_symmetry_group_IT_number 65
_symmetry_cell_setting 'orthorhombic'
loop_
_space_group_symop_operation_xyz
x,y,z
-x,-y,z
x,-y,-z
-x,y,-z
-x,-y,-z
x,y,-z
-x,y,z
x,-y,z
1/2+x,1/2+y,z
1/2-x,1/2-y,z
1/2+x,1/2-y,-z
1/2-x,1/2+y,-z
1/2-x,1/2-y,-z
1/2+x,1/2+y,-z
1/2-x,1/2+y,z
1/2+x,1/2-y,z
loop_
_atom_site_type_symbol
_atom_site_label
_atom_site_fract_x
_atom_site_fract_y
_atom_site_fract_z
Si Si1 0.582304 0.566322 0.831618
Si Si2 0.000000 0.567186 0.679759
Si Si3 0.340425 0.747590 0.328393
Si Si4 0.864750 0.361639 0.178549
Si Si5 0.297572 0.629670 0.323279
O O1 0.500000 0.586983 0.787067
O O2 0.577759 0.500000 0.840038
O O3 0.648365 0.580479 0.721286
O O4 0.598512 0.586811 0.000000
O O5 0.072670 0.598362 0.748516
O O6 0.000000 0.500000 0.711472
O O7 0.000000 0.573538 0.500000
O O8 0.364264 0.754742 0.500000
O O9 0.250000 0.750000 0.326574
O O10 0.374438 0.797100 0.231379
O O11 0.347465 0.683870 0.278538
O O12 0.781515 0.374574 0.240224
O O13 0.867304 0.365861 0.000000
O O14 0.283294 0.633873 0.500000
#
# Coordination Sequence:
#
# PCOD9494751 Si02
#       5
#    16   8  16  16  16
#     4   9  19  36  55  77 110 149 186 232 287 334
#     4  11  25  45  65  83 111 153 198 245 294 345
#     4   8  16  33  55  80 112 147 181 224 277 333
#     4  11  22  37  60  87 115 148 187 235 289 341
#     4  10  20  35  58  86 115 151 193 234 282 340
#
# _framework density 9.2592590000000001
#
# number of rings (size 3 to 8) (size 9 to 14) (size 15 to 20)
#    0.000    2.333    0.000    5.000    0.000    7.556 
#    2.000    1.111    0.000    0.000    0.000    0.000 
#    0.000    0.000    0.000    0.000    0.000    0.000 
#
# Total GULP energy -200497.619788 kJ/mol
# GULP energy per Si atom -5569.378327 kJ/mol
# Density = 0.923818 g / cm^3
# Si number density = 9.259259 Si / 1000 Ang^3
#
#
#
# Elastic Constant Matrix: (Units=GPa)
#
#
# Indices 1 2 3 4 5 6 
#
# 1 95.9714 55.6850 60.7416 0.0000 0.0000 0.0000
# 2 55.6850 96.4171 54.2927 0.0000 0.0000 0.0000
# 3 60.7416 54.2927 120.4362 0.0000 0.0000 0.0000
# 4 0.0000 0.0000 0.0000 23.5604 0.0000 0.0000
# 5 0.0000 0.0000 0.0000 0.0000 28.5031 0.0000
# 6 0.0000 0.0000 0.0000 0.0000 0.0000 31.3745
#
#
#
# Elastic Compliance Matrix: (Units=1/GPa)
#
#
# Indices 1 2 3 4 5 6 
#
# 1 0.018450 -0.007258 -0.006033 0.000000 0.000000 0.000000
# 2 -0.007258 0.016756 -0.003893 0.000000 0.000000 0.000000
# 3 -0.006033 -0.003893 0.013101 0.000000 0.000000 0.000000
# 4 0.000000 0.000000 0.000000 0.042444 0.000000 0.000000
# 5 0.000000 0.000000 0.000000 0.000000 0.035084 0.000000
# 6 0.000000 0.000000 0.000000 0.000000 0.000000 0.031873
#
#
# Mechanical properties :
#
#
# Convention : Reuss Voigt Hill
#
# Bulk Modulus (GPa) = 71.74665 72.69594 72.22130
# Shear Modulus (GPa) = 25.41676 26.16129 25.78903
#
# Velocity S-wave (km/s) = 3.70875 3.76268 3.73581
# Velocity P-wave (km/s) = 7.56089 7.63008 7.59556
#
# Compressibility (1/GPa) = 0.01393793
#
# Stress axis : x y z
#
# Youngs Moduli (GPa) = 54.20198 59.68170 76.33180
#
# Poissons Ratio (x) = 0.43318 0.46050
# Poissons Ratio (y) = 0.39341 0.29714
# Poissons Ratio (z) = 0.32700 0.23233
#
# Static dielectric constant tensor:
#      x y z
#    x 1.629200 0.000000 0.000000 
#    y 0.000000 1.744010 0.000000 
#    z 0.000000 0.000000 1.633470 
# 
# From -- ./inp_files/9233.got.cif
#   From: 2010.05.17/outbox.ucp.g08.bks.cvg/sg65_5_cif.got.tgz:9233.got - 2010.06.11 16:39:57.
