data_PCOD9494031
_publ_section_title
;
Structure prediction by ZEFSAII (Michael W. Deem and Ramdas Pophale) SiO2 
 PCOD9494031
Probable space group: C M M M
;
_chemical_formula_sum "Si O2"
_cell_formula_units_Z 72
_cell_length_a 28.002501
_cell_length_b 18.480383
_cell_length_c 7.256796
_cell_angle_alpha 90.000000
_cell_angle_beta 90.000000
_cell_angle_gamma 90.000000
_cell_volume 3755.369749
_symmetry_space_group_name_H-M "C M M M"
_symmetry_group_IT_number 65
_symmetry_cell_setting 'orthorhombic'
loop_
_space_group_symop_operation_xyz
x,y,z
-x,-y,z
x,-y,-z
-x,y,-z
-x,-y,-z
x,y,-z
-x,y,z
x,-y,z
1/2+x,1/2+y,z
1/2-x,1/2-y,z
1/2+x,1/2-y,-z
1/2-x,1/2+y,-z
1/2-x,1/2-y,-z
1/2+x,1/2+y,-z
1/2-x,1/2+y,z
1/2+x,1/2-y,z
loop_
_atom_site_type_symbol
_atom_site_label
_atom_site_fract_x
_atom_site_fract_y
_atom_site_fract_z
Si Si1 0.446888 0.651679 0.223360
Si Si2 0.899741 0.695677 0.779060
Si Si3 0.697527 0.727889 0.223976
Si Si4 0.942716 0.585470 0.500000
Si Si5 0.149973 0.920042 0.775530
O O1 0.500000 0.634592 0.288035
O O2 0.431470 0.733643 0.269841
O O3 0.404116 0.599321 0.281670
O O4 0.447451 0.648853 0.000000
O O5 0.845609 0.718018 0.725971
O O6 0.919820 0.626692 0.674144
O O7 0.901628 0.686705 0.000000
O O8 0.750000 0.750000 0.286322
O O9 0.682565 0.647181 0.282691
O O10 0.697903 0.727471 0.000000
O O11 0.932737 0.500000 0.500000
O O12 0.000000 0.595204 0.500000
O O13 0.164185 0.000000 0.715433
O O14 0.150437 0.919765 0.000000
#
# Coordination Sequence:
#
# PCOD9494031 Si02
#       5
#    16  16  16   8  16
#     4   8  13  22  39  62  87 120 158 190 229 288
#     4   9  18  34  54  75 102 133 168 213 259 310
#     4   8  14  27  48  72  98 132 173 210 249 304
#     4  11  24  38  53  76 103 133 174 223 274 324
#     4   8  13  20  32  57  93 124 153 197 243 281
#
# _framework density 19.172547000000002
#
# number of rings (size 3 to 8) (size 9 to 14) (size 15 to 20)
#    0.000    3.444    0.000    3.333    0.000    2.222 
#    0.000    5.000    0.000    4.000    0.000   12.444 
#    0.000   21.333    0.000    0.889    0.000    0.000 
#
# Total GULP energy -200803.280081 kJ/mol
# GULP energy per Si atom -5577.868891 kJ/mol
# Density = 1.912891 g / cm^3
# Si number density = 19.172547 Si / 1000 Ang^3
#
#
#
# Elastic Constant Matrix: (Units=GPa)
#
#
# Indices 1 2 3 4 5 6 
#
# 1 157.6862 85.3684 16.4360 0.0000 0.0000 0.0000
# 2 85.3684 156.1809 30.0638 0.0000 0.0000 0.0000
# 3 16.4360 30.0638 91.8390 0.0000 0.0000 0.0000
# 4 0.0000 0.0000 0.0000 106.4158 0.0000 0.0000
# 5 0.0000 0.0000 0.0000 0.0000 -10.5188 0.0000
# 6 0.0000 0.0000 0.0000 0.0000 0.0000 12.5929
#
#
#
# Elastic Compliance Matrix: (Units=1/GPa)
#
#
# Indices 1 2 3 4 5 6 
#
# 1 0.009007 -0.004923 0.000000 0.000000 0.000000 0.000000
# 2 -0.004923 0.009524 -0.002237 0.000000 0.000000 0.000000
# 3 0.000000 -0.002237 0.011621 0.000000 0.000000 0.000000
# 4 0.000000 0.000000 0.000000 0.009397 0.000000 0.000000
# 5 0.000000 0.000000 0.000000 0.000000 -0.095068 0.000000
# 6 0.000000 0.000000 0.000000 0.000000 0.000000 0.079410
#
#
# Mechanical properties :
#
#
# Convention : Reuss Voigt Hill
#
# Bulk Modulus (GPa) = 63.16406 74.38251 68.77329
# Shear Modulus (GPa) = 114.97236 39.95386 77.46311
#
# Velocity S-wave (km/s) = 7.75225 4.56994 6.36324
# Velocity P-wave (km/s) = 10.63703 8.16862 9.48348
#
# Compressibility (1/GPa) = 0.01583179
#
# Stress axis : x y z
#
# Youngs Moduli (GPa) = 111.02391 104.99335 86.05195
#
# Poissons Ratio (x) = 0.51690 0.00003
# Poissons Ratio (y) = 0.54659 0.19248
# Poissons Ratio (z) = 0.00004 0.23485
#
# Static dielectric constant tensor:
#      x y z
#    x 1.653460 0.000000 0.000000 
#    y 0.000000 1.625180 0.000000 
#    z 0.000000 0.000000 1.729140 
# 
# From -- ./inp_files/15958.got.cif
#   From: 2010.05.17/outbox.cif.g08.bks.cpg/sg65_8_cif.got.tgz:15958.got - 2010.06.03 17:01:31.
