data_PCOD9494912
_publ_section_title
;
Structure prediction by ZEFSAII (Michael W. Deem and Ramdas Pophale) SiO2 
 PCOD9494912
Probable space group: C C C M
;
_chemical_formula_sum "Si O2"
_cell_formula_units_Z 128
_cell_length_a 19.716417
_cell_length_b 24.244415
_cell_length_c 14.377276
_cell_angle_alpha 90.000000
_cell_angle_beta 90.000000
_cell_angle_gamma 90.000000
_cell_volume 6872.524776
_symmetry_space_group_name_H-M "C C C M"
_symmetry_group_IT_number 66
_symmetry_cell_setting 'orthorhombic'
loop_
_space_group_symop_operation_xyz
x,y,z
-x,-y,z
x,-y,1/2-z
-x,y,1/2-z
-x,-y,-z
x,y,-z
-x,y,1/2+z
x,-y,1/2+z
1/2+x,1/2+y,z
1/2-x,1/2-y,z
1/2+x,1/2-y,1/2-z
1/2-x,1/2+y,1/2-z
1/2-x,1/2-y,-z
1/2+x,1/2+y,-z
1/2-x,1/2+y,1/2+z
1/2+x,1/2-y,1/2+z
loop_
_atom_site_type_symbol
_atom_site_label
_atom_site_fract_x
_atom_site_fract_y
_atom_site_fract_z
Si Si1 0.893520 0.509750 0.639046
Si Si2 0.397948 0.187679 0.889970
Si Si3 0.258375 0.866531 0.386284
Si Si4 0.740681 0.509003 0.891290
Si Si5 0.490127 0.088068 0.860563
Si Si6 0.102110 0.970340 0.112765
Si Si7 0.029071 0.086179 0.886547
Si Si8 0.117596 0.188911 0.113524
O O1 0.895112 0.500000 0.750000
O O2 0.815623 0.515304 0.613696
O O3 0.931245 0.453968 0.605372
O O4 0.939261 0.561177 0.607120
O O5 0.330770 0.156517 0.852608
O O6 0.463775 0.149153 0.879848
O O7 0.401471 0.249933 0.853037
O O8 0.386411 0.193203 0.000000
O O9 0.260923 0.868295 0.500000
O O10 0.245598 0.928888 0.352352
O O11 0.194480 0.828317 0.361359
O O12 0.679488 0.471779 0.853583
O O13 0.723835 0.516782 0.000000
O O14 0.500000 0.084509 0.750000
O O15 0.047257 0.926100 0.147717
O O16 0.072400 0.031149 0.134161
O O17 0.101233 0.964205 0.000000
O O18 0.066228 0.141271 0.854550
O O19 0.027456 0.088847 0.000000
O O20 0.115581 0.188567 0.000000
#
# Coordination Sequence:
#
# PCOD9494912 Si02
#       8
#    16  16  16  16  16  16  16  16
#     4   9  18  31  45  60  81 108 141 173 208 256
#     4  10  18  26  40  64  89 114 143 170 206 254
#     4   9  15  23  35  60  96 118 131 161 205 255
#     4  10  16  24  41  66  90 111 133 167 214 253
#     4   9  18  32  45  59  80 110 143 175 208 247
#     4   8  13  20  34  57  85 110 136 167 202 241
#     4   8  12  20  33  54  84 114 138 166 199 236
#     4   9  15  23  36  59  92 121 139 162 201 247
#
# _framework density 18.624887000000001
#
# number of rings (size 3 to 8) (size 9 to 14) (size 15 to 20)
#    0.000    3.000    2.500    1.875    0.000    2.000 
#    0.000    1.250    0.000    0.000    3.250    2.625 
#    0.000    5.000    0.000    0.000    0.000    0.000 
#
# Total GULP energy -356436.228101 kJ/mol
# GULP energy per Si atom -5569.316064 kJ/mol
# Density = 1.858250 g / cm^3
# Si number density = 18.624887 Si / 1000 Ang^3
#
#
#
# Elastic Constant Matrix: (Units=GPa)
#
#
# Indices 1 2 3 4 5 6 
#
# 1 135.3386 68.1158 -5.8457 0.0000 0.0000 0.0000
# 2 68.1158 99.7191 -4.7552 0.0000 0.0000 0.0000
# 3 -5.8457 -4.7552 34.7522 0.0000 0.0000 0.0000
# 4 0.0000 0.0000 0.0000 8.9952 0.0000 0.0000
# 5 0.0000 0.0000 0.0000 0.0000 16.0135 0.0000
# 6 0.0000 0.0000 0.0000 0.0000 0.0000 20.3310
#
#
#
# Elastic Compliance Matrix: (Units=1/GPa)
#
#
# Indices 1 2 3 4 5 6 
#
# 1 0.011285 -0.007668 0.000849 0.000000 0.000000 0.000000
# 2 -0.007668 0.015304 0.000804 0.000000 0.000000 0.000000
# 3 0.000849 0.000804 0.029028 0.000000 0.000000 0.000000
# 4 0.000000 0.000000 0.000000 0.111170 0.000000 0.000000
# 5 0.000000 0.000000 0.000000 0.000000 0.062447 0.000000
# 6 0.000000 0.000000 0.000000 0.000000 0.000000 0.049186
#
#
# Mechanical properties :
#
#
# Convention : Reuss Voigt Hill
#
# Bulk Modulus (GPa) = 22.94213 42.75997 32.85105
# Shear Modulus (GPa) = 16.39457 23.22095 19.80776
#
# Velocity S-wave (km/s) = 2.97012 3.53479 3.26469
# Velocity P-wave (km/s) = 4.90988 6.29826 5.64690
#
# Compressibility (1/GPa) = 0.04358793
#
# Stress axis : x y z
#
# Youngs Moduli (GPa) = 88.61486 65.34120 34.44947
#
# Poissons Ratio (x) = 0.50103 -0.02925
# Poissons Ratio (y) = 0.67949 -0.02771
# Poissons Ratio (z) = -0.07523 -0.05255
#
# Static dielectric constant tensor:
#      x y z
#    x 1.681870 0.000000 0.000000 
#    y 0.000000 1.647630 0.000000 
#    z 0.000000 0.000000 1.702200 
# 
# From -- ./inp_files/42153.got.cif
#   From: 2010.05.17/outbox.cif.g08.bks.cpg/sg66_22_cif.got.tgz:42153.got - 2010.06.03 17:51:23.
