data_PCOD9494000
_publ_section_title
;
Structure prediction by ZEFSAII (Michael W. Deem and Ramdas Pophale) SiO2 
 PCOD9494000
Probable space group: C M M M
;
_chemical_formula_sum "Si O2"
_cell_formula_units_Z 52
_cell_length_a 10.877574
_cell_length_b 30.055222
_cell_length_c 7.381987
_cell_angle_alpha 90.000000
_cell_angle_beta 90.000000
_cell_angle_gamma 90.000000
_cell_volume 2413.377518
_symmetry_space_group_name_H-M "C M M M"
_symmetry_group_IT_number 65
_symmetry_cell_setting 'orthorhombic'
loop_
_space_group_symop_operation_xyz
x,y,z
-x,-y,z
x,-y,-z
-x,y,-z
-x,-y,-z
x,y,-z
-x,y,z
x,-y,z
1/2+x,1/2+y,z
1/2-x,1/2-y,z
1/2+x,1/2-y,-z
1/2-x,1/2+y,-z
1/2-x,1/2-y,-z
1/2+x,1/2+y,-z
1/2-x,1/2+y,z
1/2+x,1/2-y,z
loop_
_atom_site_type_symbol
_atom_site_label
_atom_site_fract_x
_atom_site_fract_y
_atom_site_fract_z
Si Si1 0.000000 0.649355 0.500000
Si Si2 0.782756 0.638110 0.793672
Si Si3 0.134455 0.221641 0.781632
Si Si4 0.140872 0.949390 0.280970
O O1 0.892361 0.646971 0.657451
O O2 0.668703 0.670547 0.745835
O O3 0.734195 0.587800 0.785070
O O4 0.819046 0.649243 0.000000
O O5 0.250000 0.250000 0.714171
O O6 0.000000 0.234447 0.710974
O O7 0.130198 0.227267 0.000000
O O8 0.142994 0.948259 0.500000
O O9 0.000000 0.940151 0.224110
O O10 0.171218 0.000000 0.226037
#
# Coordination Sequence:
#
# PCOD9494000 Si02
#       4
#     4  16  16  16
#     4  12  26  44  61  90 126 170 216 268 317 382
#     4  11  23  41  66  91 124 168 214 262 323 379
#     4   9  19  36  63  97 130 167 209 258 317 379
#     4   9  18  36  64  95 128 164 203 259 325 380
#
# _framework density 21.546568000000001
#
# number of rings (size 3 to 8) (size 9 to 14) (size 15 to 20)
#    0.000    2.154    1.538    2.308    2.154    2.462 
#    0.000    3.846    0.000    1.846    0.000    0.000 
#    0.000    0.000    0.000    0.000    0.000    0.000 
#
# Total GULP energy -144796.993873 kJ/mol
# GULP energy per Si atom -5569.115149 kJ/mol
# Density = 2.149753 g / cm^3
# Si number density = 21.546568 Si / 1000 Ang^3
#
#
#
# Elastic Constant Matrix: (Units=GPa)
#
#
# Indices 1 2 3 4 5 6 
#
# 1 167.4380 41.4437 40.0843 0.0000 0.0000 0.0000
# 2 41.4437 71.6119 2.3634 0.0000 0.0000 0.0000
# 3 40.0843 2.3634 115.2024 0.0000 0.0000 0.0000
# 4 0.0000 0.0000 0.0000 37.0669 0.0000 0.0000
# 5 0.0000 0.0000 0.0000 0.0000 22.1913 0.0000
# 6 0.0000 0.0000 0.0000 0.0000 0.0000 6.7270
#
#
#
# Elastic Compliance Matrix: (Units=1/GPa)
#
#
# Indices 1 2 3 4 5 6 
#
# 1 0.007667 -0.004352 -0.002578 0.000000 0.000000 0.000000
# 2 -0.004352 0.016444 0.001177 0.000000 0.000000 0.000000
# 3 -0.002578 0.001177 0.009553 0.000000 0.000000 0.000000
# 4 0.000000 0.000000 0.000000 0.026978 0.000000 0.000000
# 5 0.000000 0.000000 0.000000 0.000000 0.045063 0.000000
# 6 0.000000 0.000000 0.000000 0.000000 0.000000 0.148654
#
#
# Mechanical properties :
#
#
# Convention : Reuss Voigt Hill
#
# Bulk Modulus (GPa) = 45.13183 58.00390 51.56786
# Shear Modulus (GPa) = 18.29817 31.22108 24.75963
#
# Velocity S-wave (km/s) = 2.91733 3.81071 3.39355
# Velocity P-wave (km/s) = 5.68678 6.80740 6.27217
#
# Compressibility (1/GPa) = 0.02215731
#
# Stress axis : x y z
#
# Youngs Moduli (GPa) = 130.43290 60.81289 104.67515
#
# Poissons Ratio (x) = 0.26465 0.26989
# Poissons Ratio (y) = 0.56763 -0.12319
# Poissons Ratio (z) = 0.33630 -0.07157
#
# Static dielectric constant tensor:
#      x y z
#    x 1.734910 0.000000 0.000000 
#    y 0.000000 1.799390 0.000000 
#    z 0.000000 0.000000 1.808690 
# 
# From -- ./inp_files/4650.got.cif
#   From: 2010.05.17/outbox.cif.g08.bks.cpg/sg65_3_cif.got.tgz:4650.got - 2010.06.03 17:01:31.
