data_PCOD9494635
_publ_section_title
;
Structure prediction by ZEFSAII (Michael W. Deem and Ramdas Pophale) SiO2 
 PCOD9494635
Probable space group: C M M M
;
_chemical_formula_sum "Si O2"
_cell_formula_units_Z 32
_cell_length_a 9.000000
_cell_length_b 18.000000
_cell_length_c 21.000000
_cell_angle_alpha 90.000000
_cell_angle_beta 90.000000
_cell_angle_gamma 90.000000
_cell_volume 3402.000000
_symmetry_space_group_name_H-M "C M M M"
_symmetry_group_IT_number 65
_symmetry_cell_setting 'orthorhombic'
loop_
_space_group_symop_operation_xyz
x,y,z
-x,-y,z
x,-y,-z
-x,y,-z
-x,-y,-z
x,y,-z
-x,y,z
x,-y,z
1/2+x,1/2+y,z
1/2-x,1/2-y,z
1/2+x,1/2-y,-z
1/2-x,1/2+y,-z
1/2-x,1/2-y,-z
1/2+x,1/2+y,-z
1/2-x,1/2+y,z
1/2+x,1/2-y,z
loop_
_atom_site_type_symbol
_atom_site_label
_atom_site_fract_x
_atom_site_fract_y
_atom_site_fract_z
Si Si1 0.828177 0.828373 0.000000
Si Si2 0.175281 0.169684 0.364227
Si Si3 0.671535 0.089068 0.889186
Si Si4 0.178786 0.831912 0.500000
Si Si5 0.168093 0.410994 0.254373
O O1 0.750000 0.750000 0.000000
O O2 0.778332 0.874046 0.061199
O O3 0.000000 0.816031 0.000000
O O4 0.250000 0.250000 0.358619
O O5 0.221836 0.134118 0.432268
O O6 0.222504 0.120049 0.305957
O O7 0.000000 0.180137 0.364672
O O8 0.500000 0.108122 0.904087
O O9 0.703368 0.113382 0.817218
O O10 0.682697 0.000000 0.892219
O O11 0.250000 0.750000 0.500000
O O12 0.000000 0.825522 0.500000
O O13 0.168994 0.500000 0.254224
O O14 0.000000 0.386348 0.269538
#
# Coordination Sequence:
#
# PCOD9494635 Si02
#       5
#     8  16  16   8  16
#     4  12  25  38  55  81 111 139 171 214 257 300
#     4  10  19  32  52  76 103 136 174 217 262 309
#     4   9  19  38  61  80 103 138 174 209 255 310
#     4   8  16  30  47  70  99 133 173 213 257 308
#     4   9  19  36  56  78 105 137 173 212 255 306
#
# _framework density 9.4062319999999993
#
# number of rings (size 3 to 8) (size 9 to 14) (size 15 to 20)
#    0.000    2.500    0.000    3.750    0.000    5.500 
#    0.000    3.125    0.000    3.750    0.000    0.000 
#    0.000    0.000    0.000    0.000    0.000    0.000 
#
# Total GULP energy -178284.005112 kJ/mol
# GULP energy per Si atom -5571.375160 kJ/mol
# Density = 0.938482 g / cm^3
# Si number density = 9.406232 Si / 1000 Ang^3
#
#
#
# Elastic Constant Matrix: (Units=GPa)
#
#
# Indices 1 2 3 4 5 6 
#
# 1 75.4038 33.8932 97.1893 0.0000 0.0000 0.0000
# 2 33.8932 12.3463 32.1932 0.0000 0.0000 0.0000
# 3 97.1893 32.1932 60.8103 0.0000 0.0000 0.0000
# 4 0.0000 0.0000 0.0000 25.8141 0.0000 0.0000
# 5 0.0000 0.0000 0.0000 0.0000 25.0219 0.0000
# 6 0.0000 0.0000 0.0000 0.0000 0.0000 28.3823
#
#
#
# Elastic Compliance Matrix: (Units=1/GPa)
#
#
# Indices 1 2 3 4 5 6 
#
# 1 -0.070013 0.261743 -0.026670 0.000000 0.000000 0.000000
# 2 0.261743 -1.191432 0.212421 0.000000 0.000000 0.000000
# 3 -0.026670 0.212421 -0.053386 0.000000 0.000000 0.000000
# 4 0.000000 0.000000 0.000000 0.038739 0.000000 0.000000
# 5 0.000000 0.000000 0.000000 0.000000 0.039965 0.000000
# 6 0.000000 0.000000 0.000000 0.000000 0.000000 0.035233
#
#
# Mechanical properties :
#
#
# Convention : Reuss Voigt Hill
#
# Bulk Modulus (GPa) = -2.38183 52.79020 25.20418
# Shear Modulus (GPa) = -2.23631 14.86264 6.31317
#
# Velocity S-wave (km/s) = -1.09148 2.81382 1.83388
# Velocity P-wave (km/s) = 1.69034 6.21924 4.23212
#
# Compressibility (1/GPa) = -0.41984466
#
# Stress axis : x y z
#
# Youngs Moduli (GPa) = -14.28310 -0.83933 -18.73138
#
# Poissons Ratio (x) = 0.21969 -0.49957
# Poissons Ratio (y) = 3.73850 3.97893
# Poissons Ratio (z) = -0.38093 0.17829
#
# Static dielectric constant tensor:
#      x y z
#    x 1.642310 0.000000 0.000000 
#    y 0.000000 1.611740 0.000000 
#    z 0.000000 0.000000 1.682460 
# 
# From -- ./inp_files/49095.got.cif
#   From: 2010.05.17/outbox.ucp.g08.bks.cvg/sg65_25_cif.got.tgz:49095.got - 2010.06.11 16:39:57.
