data_PCOD9494695
_publ_section_title
;
Structure prediction by ZEFSAII (Michael W. Deem and Ramdas Pophale) SiO2 
 PCOD9494695
Probable space group: C M M M
;
_chemical_formula_sum "Si O2"
_cell_formula_units_Z 48
_cell_length_a 27.000000
_cell_length_b 24.000000
_cell_length_c 9.000000
_cell_angle_alpha 90.000000
_cell_angle_beta 90.000000
_cell_angle_gamma 90.000000
_cell_volume 5832.000000
_symmetry_space_group_name_H-M "C M M M"
_symmetry_group_IT_number 65
_symmetry_cell_setting 'orthorhombic'
loop_
_space_group_symop_operation_xyz
x,y,z
-x,-y,z
x,-y,-z
-x,y,-z
-x,-y,-z
x,y,-z
-x,y,z
x,-y,z
1/2+x,1/2+y,z
1/2-x,1/2-y,z
1/2+x,1/2-y,-z
1/2-x,1/2+y,-z
1/2-x,1/2-y,-z
1/2+x,1/2+y,-z
1/2-x,1/2+y,z
1/2+x,1/2-y,z
loop_
_atom_site_type_symbol
_atom_site_label
_atom_site_fract_x
_atom_site_fract_y
_atom_site_fract_z
Si Si1 0.356803 0.289485 0.676982
Si Si2 0.362320 0.000000 0.821017
Si Si3 0.205504 0.119886 0.176655
Si Si4 0.557417 0.217952 0.176747
Si Si5 0.245813 0.000000 0.819505
Si Si6 0.894990 0.386850 0.328121
Si Si7 0.207225 0.682257 0.669555
O O1 0.363482 0.292317 0.500000
O O2 0.339453 0.348163 0.743643
O O3 0.405366 0.262799 0.751345
O O4 0.313020 0.243861 0.704378
O O5 0.303863 0.000000 0.774408
O O6 0.388244 0.944912 0.756480
O O7 0.363931 0.000000 0.000000
O O8 0.218311 0.056849 0.227234
O O9 0.253682 0.156384 0.218593
O O10 0.197809 0.119578 0.000000
O O11 0.500000 0.231886 0.202698
O O12 0.569713 0.157815 0.248287
O O13 0.566345 0.215263 0.000000
O O14 0.246228 0.000000 0.000000
O O15 0.909500 0.395301 0.500000
O O16 0.841330 0.356686 0.328132
O O17 0.227364 0.681801 0.500000
#
# Coordination Sequence:
#
# PCOD9494695 Si02
#       7
#    16   8  16  16   8  16  16
#     4  10  21  35  51  75 105 135 168 210 262 313
#     4  11  19  33  52  72 103 144 188 224 256 301
#     4  11  20  32  49  72 103 139 179 214 251 301
#     4  10  21  38  59  81 102 128 167 215 267 320
#     4   9  20  33  47  72 105 144 181 217 254 292
#     4  10  20  33  51  76 105 139 177 218 264 310
#     4   9  18  31  46  68 102 137 169 209 254 304
#
# _framework density 8.2304530000000007
#
# number of rings (size 3 to 8) (size 9 to 14) (size 15 to 20)
#    0.000    2.000    1.667    3.750    0.000    6.667 
#    0.000    2.083    0.000    2.500    0.000    0.583 
#    0.000    4.667    0.000    0.000    0.000    0.000 
#
# Total GULP energy -267909.524050 kJ/mol
# GULP energy per Si atom -5581.448418 kJ/mol
# Density = 0.821172 g / cm^3
# Si number density = 8.230453 Si / 1000 Ang^3
#
#
#
# Elastic Constant Matrix: (Units=GPa)
#
#
# Indices 1 2 3 4 5 6 
#
# 1 76.7364 52.1872 50.6053 0.0000 0.0000 0.0000
# 2 52.1872 98.8563 54.5561 0.0000 0.0000 0.0000
# 3 50.6053 54.5561 87.9551 0.0000 0.0000 0.0000
# 4 0.0000 0.0000 0.0000 25.9957 0.0000 0.0000
# 5 0.0000 0.0000 0.0000 0.0000 17.8897 0.0000
# 6 0.0000 0.0000 0.0000 0.0000 0.0000 13.2215
#
#
#
# Elastic Compliance Matrix: (Units=1/GPa)
#
#
# Indices 1 2 3 4 5 6 
#
# 1 0.024410 -0.007808 -0.009201 0.000000 0.000000 0.000000
# 2 -0.007808 0.017879 -0.006597 0.000000 0.000000 0.000000
# 3 -0.009201 -0.006597 0.020755 0.000000 0.000000 0.000000
# 4 0.000000 0.000000 0.000000 0.038468 0.000000 0.000000
# 5 0.000000 0.000000 0.000000 0.000000 0.055898 0.000000
# 6 0.000000 0.000000 0.000000 0.000000 0.000000 0.075635
#
#
# Mechanical properties :
#
#
# Convention : Reuss Voigt Hill
#
# Bulk Modulus (GPa) = 63.16780 64.24945 63.70863
# Shear Modulus (GPa) = 17.51110 18.50133 18.00622
#
# Velocity S-wave (km/s) = 3.26513 3.35618 3.31097
# Velocity P-wave (km/s) = 7.25758 7.35764 7.30778
#
# Compressibility (1/GPa) = 0.01583085
#
# Stress axis : x y z
#
# Youngs Moduli (GPa) = 40.96733 55.93310 48.18100
#
# Poissons Ratio (x) = 0.43675 0.44331
# Poissons Ratio (y) = 0.31989 0.31785
# Poissons Ratio (z) = 0.37693 0.36899
#
# Static dielectric constant tensor:
#      x y z
#    x 1.549820 0.000000 0.000000 
#    y 0.000000 1.553000 0.000000 
#    z 0.000000 0.000000 1.554580 
# 
# From -- ./inp_files/16683.got.cif
#   From: 2010.05.17/outbox.ucp.g08.bks.cvg/sg65_9_cif.got.tgz:16683.got - 2010.06.11 16:39:57.
