data_PCOD9494067
_publ_section_title
;
Structure prediction by ZEFSAII (Michael W. Deem and Ramdas Pophale) SiO2 
 PCOD9494067
Probable space group: C M M M
;
_chemical_formula_sum "Si O2"
_cell_formula_units_Z 64
_cell_length_a 17.225457
_cell_length_b 15.667742
_cell_length_c 11.198042
_cell_angle_alpha 90.000000
_cell_angle_beta 90.000000
_cell_angle_gamma 90.000000
_cell_volume 3022.172548
_symmetry_space_group_name_H-M "C M M M"
_symmetry_group_IT_number 65
_symmetry_cell_setting 'orthorhombic'
loop_
_space_group_symop_operation_xyz
x,y,z
-x,-y,z
x,-y,-z
-x,y,-z
-x,-y,-z
x,y,-z
-x,y,z
x,-y,z
1/2+x,1/2+y,z
1/2-x,1/2-y,z
1/2+x,1/2-y,-z
1/2-x,1/2+y,-z
1/2-x,1/2-y,-z
1/2+x,1/2+y,-z
1/2-x,1/2+y,z
1/2+x,1/2-y,z
loop_
_atom_site_type_symbol
_atom_site_label
_atom_site_fract_x
_atom_site_fract_y
_atom_site_fract_z
Si Si1 0.500000 0.640830 0.716777
Si Si2 0.270379 0.000000 0.139492
Si Si3 0.258736 0.500000 0.500000
Si Si4 0.128002 0.000000 0.721656
Si Si5 0.836996 0.670218 0.500000
Si Si6 0.679144 0.812162 0.228494
Si Si7 0.000000 0.724723 0.500000
Si Si8 0.500000 0.785730 0.864985
O O1 0.574711 0.582149 0.706039
O O2 0.500000 0.712715 0.614372
O O3 0.500000 0.684384 0.845274
O O4 0.177469 0.000000 0.158143
O O5 0.298850 0.910997 0.199817
O O6 0.291923 0.000000 0.000000
O O7 0.311397 0.500000 0.615543
O O8 0.207360 0.417135 0.500000
O O9 0.821762 0.710327 0.370011
O O10 0.928240 0.662795 0.500000
O O11 0.750000 0.750000 0.178784
O O12 0.587775 0.806289 0.186533
O O13 0.500000 0.816258 0.000000
#
# Coordination Sequence:
#
# PCOD9494067 Si02
#       8
#     8   8   4   8   8  16   4   8
#     4  11  24  42  66  98 139 184 234 296 362 431
#     4  12  27  46  70 102 142 193 245 295 352 424
#     4  12  24  42  68 106 142 182 230 298 370 438
#     4  11  24  42  66  98 139 184 234 296 362 431
#     4  12  23  43  74 106 144 183 229 298 368 436
#     4  12  26  47  75 108 146 188 242 305 367 435
#     4  12  24  42  68 106 142 182 230 298 370 438
#     4  12  27  46  70 102 142 193 245 295 352 424
#
# _framework density 21.176819999999999
#
# number of rings (size 3 to 8) (size 9 to 14) (size 15 to 20)
#    0.000    0.250    5.000    3.375    0.000    8.750 
#    0.000    5.000    0.000    0.000    0.000    0.000 
#    0.000    0.000    0.000    0.000    0.000    0.000 
#
# Total GULP energy -178219.927741 kJ/mol
# GULP energy per Si atom -5569.372742 kJ/mol
# Density = 2.112862 g / cm^3
# Si number density = 21.176820 Si / 1000 Ang^3
#
#
#
# Elastic Constant Matrix: (Units=GPa)
#
#
# Indices 1 2 3 4 5 6 
#
# 1 214.2021 78.0381 42.8814 0.0000 0.0000 0.0000
# 2 78.0381 77.5351 5.7972 0.0000 0.0000 0.0000
# 3 42.8814 5.7972 104.6869 0.0000 0.0000 0.0000
# 4 0.0000 0.0000 0.0000 5.0917 0.0000 0.0000
# 5 0.0000 0.0000 0.0000 0.0000 20.7025 0.0000
# 6 0.0000 0.0000 0.0000 0.0000 0.0000 -246.6503
#
#
#
# Elastic Compliance Matrix: (Units=1/GPa)
#
#
# Indices 1 2 3 4 5 6 
#
# 1 0.008164 -0.008000 -0.002901 0.000000 0.000000 0.000000
# 2 -0.008000 0.020790 0.002126 0.000000 0.000000 0.000000
# 3 -0.002901 0.002126 0.010623 0.000000 0.000000 0.000000
# 4 0.000000 0.000000 0.000000 0.196399 0.000000 0.000000
# 5 0.000000 0.000000 0.000000 0.000000 0.048303 0.000000
# 6 0.000000 0.000000 0.000000 0.000000 0.000000 -0.004054
#
#
# Mechanical properties :
#
#
# Convention : Reuss Voigt Hill
#
# Bulk Modulus (GPa) = 45.40021 72.20637 58.80329
# Shear Modulus (GPa) = 16.38715 -26.19074 -4.90180
#
# Velocity S-wave (km/s) = 2.78479 -3.52058 -1.52306
# Velocity P-wave (km/s) = 5.64139 4.20059 4.97344
#
# Compressibility (1/GPa) = 0.02202633
#
# Stress axis : x y z
#
# Youngs Moduli (GPa) = 122.49300 48.09964 94.13640
#
# Poissons Ratio (x) = 0.38479 0.27309
# Poissons Ratio (y) = 0.97992 -0.20009
# Poissons Ratio (z) = 0.35535 -0.10224
#
# Static dielectric constant tensor:
#      x y z
#    x 1.808840 0.000000 0.000000 
#    y 0.000000 1.735010 0.000000 
#    z 0.000000 0.000000 1.845450 
# 
# From -- ./inp_files/26182.got.cif
#   From: 2010.05.17/outbox.cif.g08.bks.cpg/sg65_14_cif.got.tgz:26182.got - 2010.06.03 17:01:31.
