data_PCOD9494748
_publ_section_title
;
Structure prediction by ZEFSAII (Michael W. Deem and Ramdas Pophale) SiO2 
 PCOD9494748
Probable space group: C M M M
;
_chemical_formula_sum "Si O2"
_cell_formula_units_Z 48
_cell_length_a 27.000000
_cell_length_b 21.000000
_cell_length_c 9.000000
_cell_angle_alpha 90.000000
_cell_angle_beta 90.000000
_cell_angle_gamma 90.000000
_cell_volume 5103.000000
_symmetry_space_group_name_H-M "C M M M"
_symmetry_group_IT_number 65
_symmetry_cell_setting 'orthorhombic'
loop_
_space_group_symop_operation_xyz
x,y,z
-x,-y,z
x,-y,-z
-x,y,-z
-x,-y,-z
x,y,-z
-x,y,z
x,-y,z
1/2+x,1/2+y,z
1/2-x,1/2-y,z
1/2+x,1/2-y,-z
1/2-x,1/2+y,-z
1/2-x,1/2-y,-z
1/2+x,1/2+y,-z
1/2-x,1/2+y,z
1/2+x,1/2-y,z
loop_
_atom_site_type_symbol
_atom_site_label
_atom_site_fract_x
_atom_site_fract_y
_atom_site_fract_z
Si Si1 0.441056 0.569520 0.832351
Si Si2 0.693502 0.710092 0.671805
Si Si3 0.556706 0.833445 0.174596
Si Si4 0.362338 0.074843 0.322392
Si Si5 0.923492 0.799287 0.331072
Si Si6 0.221432 0.655011 0.177487
O O1 0.500000 0.563844 0.844952
O O2 0.422533 0.500000 0.777827
O O3 0.434623 0.631587 0.733743
O O4 0.421215 0.579914 0.000000
O O5 0.710158 0.707488 0.500000
O O6 0.635475 0.702924 0.669800
O O7 0.722061 0.656517 0.765964
O O8 0.702755 0.778689 0.748498
O O9 0.500000 0.855751 0.190677
O O10 0.594139 0.879586 0.261311
O O11 0.559153 0.761241 0.235500
O O12 0.569861 0.833435 0.000000
O O13 0.358016 0.083320 0.500000
O O14 0.312307 0.099345 0.243405
O O15 0.371370 0.000000 0.292024
O O16 0.941487 0.792384 0.500000
O O17 0.218087 0.657745 0.000000
#
# Coordination Sequence:
#
# PCOD9494748 Si02
#       6
#    16  16  16  16  16  16
#     4   9  19  36  56  78 109 151 194 236 287 345
#     4  10  20  35  57  84 118 152 187 233 285 342
#     4  11  24  40  60  87 119 155 198 250 301 352
#     4  11  24  42  63  86 117 158 200 246 303 362
#     4  11  22  35  57  88 119 154 193 239 291 347
#     4  11  21  35  59  88 114 146 190 237 285 343
#
# _framework density 9.4062319999999993
#
# number of rings (size 3 to 8) (size 9 to 14) (size 15 to 20)
#    0.000    1.500    1.667    5.500    0.000    7.667 
#    0.000    3.333    0.000    1.000    0.000    0.000 
#    0.000    0.000    0.000    0.000    0.000    0.000 
#
# Total GULP energy -267690.003738 kJ/mol
# GULP energy per Si atom -5576.875078 kJ/mol
# Density = 0.938482 g / cm^3
# Si number density = 9.406232 Si / 1000 Ang^3
#
#
#
# Elastic Constant Matrix: (Units=GPa)
#
#
# Indices 1 2 3 4 5 6 
#
# 1 67.9584 19.2714 28.8080 0.0000 0.0000 0.0000
# 2 19.2714 101.9491 55.7510 0.0000 0.0000 0.0000
# 3 28.8080 55.7510 132.4101 0.0000 0.0000 0.0000
# 4 0.0000 0.0000 0.0000 43.0743 0.0000 0.0000
# 5 0.0000 0.0000 0.0000 0.0000 25.2925 0.0000
# 6 0.0000 0.0000 0.0000 0.0000 0.0000 46.1955
#
#
#
# Elastic Compliance Matrix: (Units=1/GPa)
#
#
# Indices 1 2 3 4 5 6 
#
# 1 0.016382 -0.001491 -0.002937 0.000000 0.000000 0.000000
# 2 -0.001491 0.012879 -0.005098 0.000000 0.000000 0.000000
# 3 -0.002937 -0.005098 0.010338 0.000000 0.000000 0.000000
# 4 0.000000 0.000000 0.000000 0.023216 0.000000 0.000000
# 5 0.000000 0.000000 0.000000 0.000000 0.039537 0.000000
# 6 0.000000 0.000000 0.000000 0.000000 0.000000 0.021647
#
#
# Mechanical properties :
#
#
# Convention : Reuss Voigt Hill
#
# Bulk Modulus (GPa) = 48.66738 56.66426 52.66582
# Shear Modulus (GPa) = 33.35570 36.14493 34.75032
#
# Velocity S-wave (km/s) = 4.21534 4.38805 4.30257
# Velocity P-wave (km/s) = 7.04401 7.47391 7.26214
#
# Compressibility (1/GPa) = 0.02054764
#
# Stress axis : x y z
#
# Youngs Moduli (GPa) = 61.04075 77.64854 96.73308
#
# Poissons Ratio (x) = 0.11577 0.28406
# Poissons Ratio (y) = 0.09101 0.49316
# Poissons Ratio (z) = 0.17925 0.39586
#
# Static dielectric constant tensor:
#      x y z
#    x 1.705940 0.000000 0.000000 
#    y 0.000000 1.649220 0.000000 
#    z 0.000000 0.000000 1.663530 
# 
# From -- ./inp_files/16321.got.cif
#   From: 2010.05.17/outbox.ucp.g08.bks.cvg/sg65_9_cif.got.tgz:16321.got - 2010.06.11 16:39:57.
