data_PCOD9494858
_publ_section_title
;
Structure prediction by ZEFSAII (Michael W. Deem and Ramdas Pophale) SiO2 
 PCOD9494858
Probable space group: C M M M
;
_chemical_formula_sum "Si O2"
_cell_formula_units_Z 52
_cell_length_a 21.000000
_cell_length_b 30.000000
_cell_length_c 9.000000
_cell_angle_alpha 90.000000
_cell_angle_beta 90.000000
_cell_angle_gamma 90.000000
_cell_volume 5670.000000
_symmetry_space_group_name_H-M "C M M M"
_symmetry_group_IT_number 65
_symmetry_cell_setting 'orthorhombic'
loop_
_space_group_symop_operation_xyz
x,y,z
-x,-y,z
x,-y,-z
-x,y,-z
-x,-y,-z
x,y,-z
-x,y,z
x,-y,z
1/2+x,1/2+y,z
1/2-x,1/2-y,z
1/2+x,1/2-y,-z
1/2-x,1/2+y,-z
1/2-x,1/2-y,-z
1/2+x,1/2+y,-z
1/2-x,1/2+y,z
1/2+x,1/2-y,z
loop_
_atom_site_type_symbol
_atom_site_label
_atom_site_fract_x
_atom_site_fract_y
_atom_site_fract_z
Si Si1 0.323995 0.701228 0.178772
Si Si2 0.267838 0.052565 0.173453
Si Si3 0.375913 0.890828 0.677195
Si Si4 0.000000 0.447892 0.680991
Si Si5 0.570909 0.638653 0.323025
Si Si6 0.882730 0.051036 0.177456
Si Si7 0.676889 0.804678 0.821254
O O1 0.375066 0.669027 0.250832
O O2 0.336485 0.753068 0.218365
O O3 0.251420 0.688392 0.220368
O O4 0.327386 0.697947 0.000000
O O5 0.313557 0.081675 0.274086
O O6 0.192871 0.058252 0.204422
O O7 0.282061 0.000000 0.190775
O O8 0.278156 0.064543 0.000000
O O9 0.379038 0.886603 0.500000
O O10 0.437328 0.919899 0.726635
O O11 0.367489 0.841902 0.748007
O O12 0.000000 0.500000 0.730609
O O13 0.000000 0.449274 0.500000
O O14 0.577192 0.639342 0.500000
O O15 0.500000 0.654607 0.282618
O O16 0.579681 0.588528 0.264130
O O17 0.898235 0.000000 0.218049
O O18 0.892716 0.055614 0.000000
O O19 0.672655 0.808437 0.000000
#
# Coordination Sequence:
#
# PCOD9494858 Si02
#       7
#    16  16  16   8  16  16  16
#     4   9  19  38  62  83 106 141 180 219 268 328
#     4   9  18  33  53  78 108 138 172 223 279 320
#     4  11  21  33  53  80 107 143 184 224 271 326
#     4   9  20  38  53  69 105 153 193 225 262 321
#     4  11  24  38  52  77 113 148 179 218 267 313
#     4   9  19  36  57  80 106 140 182 224 266 318
#     4   9  19  37  60  85 110 134 170 225 280 324
#
# _framework density 9.1710759999999993
#
# number of rings (size 3 to 8) (size 9 to 14) (size 15 to 20)
#    0.000    2.385    0.000    4.154    0.000    8.308 
#    1.385    6.154    0.000    2.769    0.000    0.000 
#    0.000    0.000    0.000    0.000    0.000    0.000 
#
# Total GULP energy -290274.348310 kJ/mol
# GULP energy per Si atom -5582.199006 kJ/mol
# Density = 0.915020 g / cm^3
# Si number density = 9.171076 Si / 1000 Ang^3
#
#
#
# Elastic Constant Matrix: (Units=GPa)
#
#
# Indices 1 2 3 4 5 6 
#
# 1 65.9935 68.6782 30.3291 0.0000 0.0000 0.0000
# 2 68.6782 113.4967 37.3416 0.0000 0.0000 0.0000
# 3 30.3291 37.3416 24.1577 0.0000 0.0000 0.0000
# 4 0.0000 0.0000 0.0000 1.3373 0.0000 0.0000
# 5 0.0000 0.0000 0.0000 0.0000 21.2457 0.0000
# 6 0.0000 0.0000 0.0000 0.0000 0.0000 25.2329
#
#
#
# Elastic Compliance Matrix: (Units=1/GPa)
#
#
# Indices 1 2 3 4 5 6 
#
# 1 0.051551 -0.020146 -0.033580 0.000000 0.000000 0.000000
# 2 -0.020146 0.025802 -0.014590 0.000000 0.000000 0.000000
# 3 -0.033580 -0.014590 0.106106 0.000000 0.000000 0.000000
# 4 0.000000 0.000000 0.000000 0.747778 0.000000 0.000000
# 5 0.000000 0.000000 0.000000 0.000000 0.047068 0.000000
# 6 0.000000 0.000000 0.000000 0.000000 0.000000 0.039631
#
#
# Mechanical properties :
#
#
# Convention : Reuss Voigt Hill
#
# Bulk Modulus (GPa) = 21.35556 52.92731 37.14143
# Shear Modulus (GPa) = 4.27286 14.04979 9.16132
#
# Velocity S-wave (km/s) = 1.52793 2.77064 2.23730
# Velocity P-wave (km/s) = 3.84460 6.25727 5.19300
#
# Compressibility (1/GPa) = 0.04682621
#
# Stress axis : x y z
#
# Youngs Moduli (GPa) = 19.39813 38.75697 9.42454
#
# Poissons Ratio (x) = 0.78080 0.31648
# Poissons Ratio (y) = 0.39080 0.13751
# Poissons Ratio (z) = 0.65139 0.56547
#
# Static dielectric constant tensor:
#      x y z
#    x 1.626030 0.000000 0.000000 
#    y 0.000000 1.630690 0.000000 
#    z 0.000000 0.000000 1.611120 
# 
# From -- ./inp_files/12741.got.cif
#   From: 2010.05.17/outbox.ucp.g08.bks.cvg/sg65_7_cif.got.tgz:12741.got - 2010.06.11 16:39:57.
