data_PCOD9494981
_publ_section_title
;
Structure prediction by ZEFSAII (Michael W. Deem and Ramdas Pophale) SiO2 
 PCOD9494981
Probable space group: C C C M
;
_chemical_formula_sum "Si O2"
_cell_formula_units_Z 56
_cell_length_a 18.359526
_cell_length_b 16.207225
_cell_length_c 8.943874
_cell_angle_alpha 90.000000
_cell_angle_beta 90.000000
_cell_angle_gamma 90.000000
_cell_volume 2661.312037
_symmetry_space_group_name_H-M "C C C M"
_symmetry_group_IT_number 66
_symmetry_cell_setting 'orthorhombic'
loop_
_space_group_symop_operation_xyz
x,y,z
-x,-y,z
x,-y,1/2-z
-x,y,1/2-z
-x,-y,-z
x,y,-z
-x,y,1/2+z
x,-y,1/2+z
1/2+x,1/2+y,z
1/2-x,1/2-y,z
1/2+x,1/2-y,1/2-z
1/2-x,1/2+y,1/2-z
1/2-x,1/2-y,-z
1/2+x,1/2+y,-z
1/2-x,1/2+y,1/2+z
1/2+x,1/2-y,1/2+z
loop_
_atom_site_type_symbol
_atom_site_label
_atom_site_fract_x
_atom_site_fract_y
_atom_site_fract_z
Si Si1 0.927489 0.607088 0.500000
Si Si2 0.156387 0.144978 0.758763
Si Si3 0.551123 0.289171 0.000000
Si Si4 0.741132 0.149498 0.000000
Si Si5 0.500000 0.000000 0.250000
Si Si6 0.750000 0.250000 0.500000
Si Si7 0.563196 0.569303 0.000000
O O1 0.968748 0.693956 0.500000
O O2 0.842930 0.628494 0.500000
O O3 0.950351 0.555721 0.355824
O O4 0.098508 0.188424 0.646969
O O5 0.218535 0.114238 0.645441
O O6 0.196524 0.208383 0.869908
O O7 0.114743 0.075892 0.855445
O O8 0.480655 0.345208 0.000000
O O9 0.750000 0.250000 0.000000
O O10 0.500000 0.500000 0.000000
#
# Coordination Sequence:
#
# PCOD9494981 Si02
#       7
#     8  16   8   8   4   4   8
#     4  11  23  47  71 100 139 175 229 285 363 422
#     4  10  21  38  65 104 131 182 233 285 349 406
#     4  11  22  39  71  95 130 193 230 285 342 427
#     4  11  19  41  75 103 135 175 233 304 349 425
#     4  10  28  46  68 106 138 174 222 294 356 434
#     4  10  16  34  58  92 132 156 232 290 332 402
#     4  11  26  43  63 103 153 190 235 292 339 426
#
# _framework density 21.042252000000001
#
# number of rings (size 3 to 8) (size 9 to 14) (size 15 to 20)
#    0.000    1.429    4.286    0.857    4.000    2.286 
#    0.000   12.143    0.000    0.000    0.000    0.000 
#    0.000    0.000    0.000    0.000    0.000    0.000 
#
# Total GULP energy -156024.160304 kJ/mol
# GULP energy per Si atom -5572.291439 kJ/mol
# Density = 2.099436 g / cm^3
# Si number density = 21.042252 Si / 1000 Ang^3
#
#
#
# Elastic Constant Matrix: (Units=GPa)
#
#
# Indices 1 2 3 4 5 6 
#
# 1 140.1178 64.8977 69.1443 0.0000 0.0000 0.0000
# 2 64.8977 111.5361 58.8658 0.0000 0.0000 0.0000
# 3 69.1443 58.8658 188.7170 0.0000 0.0000 0.0000
# 4 0.0000 0.0000 0.0000 12.7579 0.0000 0.0000
# 5 0.0000 0.0000 0.0000 0.0000 167.7996 0.0000
# 6 0.0000 0.0000 0.0000 0.0000 0.0000 48.8884
#
#
#
# Elastic Compliance Matrix: (Units=1/GPa)
#
#
# Indices 1 2 3 4 5 6 
#
# 1 0.010567 -0.004914 -0.002339 0.000000 0.000000 0.000000
# 2 -0.004914 0.013018 -0.002260 0.000000 0.000000 0.000000
# 3 -0.002339 -0.002260 0.006861 0.000000 0.000000 0.000000
# 4 0.000000 0.000000 0.000000 0.078383 0.000000 0.000000
# 5 0.000000 0.000000 0.000000 0.000000 0.005959 0.000000
# 6 0.000000 0.000000 0.000000 0.000000 0.000000 0.020455
#
#
# Mechanical properties :
#
#
# Convention : Reuss Voigt Hill
#
# Bulk Modulus (GPa) = 87.56858 91.79850 89.68354
# Shear Modulus (GPa) = 31.63046 62.38673 47.00860
#
# Velocity S-wave (km/s) = 3.88130 5.45093 4.73166
# Velocity P-wave (km/s) = 7.86079 9.12893 8.51849
#
# Compressibility (1/GPa) = 0.01141962
#
# Stress axis : x y z
#
# Youngs Moduli (GPa) = 94.63387 76.81777 145.75434
#
# Poissons Ratio (x) = 0.37749 0.34090
# Poissons Ratio (y) = 0.46504 0.32942
# Poissons Ratio (z) = 0.22133 0.17362
#
# Static dielectric constant tensor:
#      x y z
#    x 1.754260 0.000000 0.000000 
#    y 0.000000 1.776810 0.000000 
#    z 0.000000 0.000000 1.802130 
# 
# From -- ./inp_files/6064.got.cif
#   From: 2010.05.17/outbox.cif.g08.bks.cpg/sg66_4_cif.got.tgz:6064.got - 2010.06.03 17:51:23.
