data_PCOD9494670
_publ_section_title
;
Structure prediction by ZEFSAII (Michael W. Deem and Ramdas Pophale) SiO2 
 PCOD9494670
Probable space group: C M M M
;
_chemical_formula_sum "Si O2"
_cell_formula_units_Z 40
_cell_length_a 18.000000
_cell_length_b 21.000000
_cell_length_c 15.000000
_cell_angle_alpha 90.000000
_cell_angle_beta 90.000000
_cell_angle_gamma 90.000000
_cell_volume 5670.000000
_symmetry_space_group_name_H-M "C M M M"
_symmetry_group_IT_number 65
_symmetry_cell_setting 'orthorhombic'
loop_
_space_group_symop_operation_xyz
x,y,z
-x,-y,z
x,-y,-z
-x,y,-z
-x,-y,-z
x,y,-z
-x,y,z
x,-y,z
1/2+x,1/2+y,z
1/2-x,1/2-y,z
1/2+x,1/2-y,-z
1/2-x,1/2+y,-z
1/2-x,1/2-y,-z
1/2+x,1/2+y,-z
1/2-x,1/2+y,z
1/2+x,1/2-y,z
loop_
_atom_site_type_symbol
_atom_site_label
_atom_site_fract_x
_atom_site_fract_y
_atom_site_fract_z
Si Si1 0.820906 0.000000 0.391839
Si Si2 0.145625 0.500000 0.392182
Si Si3 0.338592 0.757120 0.605956
Si Si4 0.914324 0.122893 0.608281
Si Si5 0.909866 0.425638 0.099905
Si Si6 0.589110 0.874755 0.708714
O O1 0.864070 0.063467 0.361271
O O2 0.824190 0.000000 0.500000
O O3 0.733783 0.000000 0.370010
O O4 0.137449 0.500000 0.500000
O O5 0.109357 0.562399 0.348307
O O6 0.352663 0.768868 0.500000
O O7 0.250000 0.750000 0.616764
O O8 0.378326 0.690775 0.631308
O O9 0.370685 0.814914 0.663491
O O10 0.914940 0.120441 0.500000
O O11 0.000000 0.117753 0.637856
O O12 0.888292 0.500000 0.110702
O O13 0.887173 0.387217 0.188242
O O14 0.000000 0.424518 0.099668
O O15 0.885901 0.404646 0.000000
O O16 0.500000 0.865722 0.706686
#
# Coordination Sequence:
#
# PCOD9494670 Si02
#       6
#     8   8  16  16  16  16
#     4   9  17  29  43  58  79 109 144 184 226 261
#     4  11  21  29  38  59  93 125 149 173 209 260
#     4  10  20  32  43  58  87 126 158 182 218 268
#     4   9  16  27  43  60  76 102 147 195 226 249
#     4   8  14  27  46  66  88 112 142 182 224 266
#     4  11  20  30  45  66  89 117 151 186 220 259
#
# _framework density 7.0546740000000003
#
# number of rings (size 3 to 8) (size 9 to 14) (size 15 to 20)
#    0.000    2.400    1.000    3.600    0.000    7.200 
#    0.000    0.000    0.000    0.600    0.000    0.000 
#    0.000    0.000    0.000    0.000    0.000   25.900 
#
# Total GULP energy -222888.306326 kJ/mol
# GULP energy per Si atom -5572.207658 kJ/mol
# Density = 0.703862 g / cm^3
# Si number density = 7.054674 Si / 1000 Ang^3
#
#
#
# Elastic Constant Matrix: (Units=GPa)
#
#
# Indices 1 2 3 4 5 6 
#
# 1 62.3180 34.5767 31.6567 0.0000 0.0000 0.0000
# 2 34.5767 111.1666 53.8556 0.0000 0.0000 0.0000
# 3 31.6567 53.8556 91.7164 0.0000 0.0000 0.0000
# 4 0.0000 0.0000 0.0000 18.3914 0.0000 0.0000
# 5 0.0000 0.0000 0.0000 0.0000 9.8015 0.0000
# 6 0.0000 0.0000 0.0000 0.0000 0.0000 26.8110
#
#
#
# Elastic Compliance Matrix: (Units=1/GPa)
#
#
# Indices 1 2 3 4 5 6 
#
# 1 0.020756 -0.004172 -0.004714 0.000000 0.000000 0.000000
# 2 -0.004172 0.013410 -0.006435 0.000000 0.000000 0.000000
# 3 -0.004714 -0.006435 0.016309 0.000000 0.000000 0.000000
# 4 0.000000 0.000000 0.000000 0.054373 0.000000 0.000000
# 5 0.000000 0.000000 0.000000 0.000000 0.102025 0.000000
# 6 0.000000 0.000000 0.000000 0.000000 0.000000 0.037298
#
#
# Mechanical properties :
#
#
# Convention : Reuss Voigt Hill
#
# Bulk Modulus (GPa) = 50.41961 56.15321 53.28641
# Shear Modulus (GPa) = 17.76669 20.67490 19.22079
#
# Velocity S-wave (km/s) = 3.55239 3.83212 3.69490
# Velocity P-wave (km/s) = 7.25524 7.71137 7.48678
#
# Compressibility (1/GPa) = 0.01983355
#
# Stress axis : x y z
#
# Youngs Moduli (GPa) = 48.17783 74.56884 61.31672
#
# Poissons Ratio (x) = 0.31110 0.28908
# Poissons Ratio (y) = 0.20100 0.39455
# Poissons Ratio (z) = 0.22713 0.47982
#
# Static dielectric constant tensor:
#      x y z
#    x 1.463480 0.000000 0.000000 
#    y 0.000000 1.460130 0.000000 
#    z 0.000000 0.000000 1.457370 
# 
# From -- ./inp_files/42646.got.cif
#   From: 2010.05.17/outbox.ucp.g08.bks.cvg/sg65_22_cif.got.tgz:42646.got - 2010.06.11 16:39:57.
