data_PCOD9494550
_publ_section_title
;
Structure prediction by ZEFSAII (Michael W. Deem and Ramdas Pophale) SiO2 
 PCOD9494550
Probable space group: C M M M
;
_chemical_formula_sum "Si O2"
_cell_formula_units_Z 120
_cell_length_a 25.211517
_cell_length_b 29.615909
_cell_length_c 7.461436
_cell_angle_alpha 90.000000
_cell_angle_beta 90.000000
_cell_angle_gamma 90.000000
_cell_volume 5571.170676
_symmetry_space_group_name_H-M "C M M M"
_symmetry_group_IT_number 65
_symmetry_cell_setting 'orthorhombic'
loop_
_space_group_symop_operation_xyz
x,y,z
-x,-y,z
x,-y,-z
-x,y,-z
-x,-y,-z
x,y,-z
-x,y,z
x,-y,z
1/2+x,1/2+y,z
1/2-x,1/2-y,z
1/2+x,1/2-y,-z
1/2-x,1/2+y,-z
1/2-x,1/2-y,-z
1/2+x,1/2+y,-z
1/2-x,1/2+y,z
1/2+x,1/2-y,z
loop_
_atom_site_type_symbol
_atom_site_label
_atom_site_fract_x
_atom_site_fract_y
_atom_site_fract_z
Si Si1 0.648669 0.448384 0.280168
Si Si2 0.623949 0.910933 0.785738
Si Si3 0.561821 0.000000 0.780611
Si Si4 0.106126 0.313158 0.205305
Si Si5 0.560521 0.621224 0.711786
Si Si6 0.272564 0.798147 0.282156
Si Si7 0.747917 0.103628 0.285189
Si Si8 0.439040 0.279804 0.215676
O O1 0.648747 0.447583 0.500000
O O2 0.641652 0.500000 0.225298
O O3 0.601065 0.416049 0.218046
O O4 0.705391 0.428618 0.219989
O O5 0.593395 0.955213 0.720613
O O6 0.600640 0.863274 0.714287
O O7 0.687548 0.911116 0.756935
O O8 0.616815 0.909439 0.000000
O O9 0.500000 0.000000 0.727249
O O10 0.562598 0.000000 0.000000
O O11 0.168756 0.304435 0.207554
O O12 0.082843 0.267469 0.287462
O O13 0.086122 0.315564 0.000000
O O14 0.555967 0.613294 0.500000
O O15 0.500000 0.619735 0.785903
O O16 0.584280 0.671718 0.732398
O O17 0.275334 0.797625 0.500000
O O18 0.250000 0.750000 0.224486
O O19 0.243138 0.844283 0.227525
O O20 0.750878 0.103721 0.500000
O O21 0.500000 0.282359 0.271667
O O22 0.435844 0.278068 0.000000
#
# Coordination Sequence:
#
# PCOD9494550 Si02
#       8
#    16  16   8  16  16  16  16  16
#     4   9  18  31  49  74  99 125 163 207 246 292
#     4   9  18  33  51  72 100 129 160 202 245 285
#     4   9  18  32  53  79 101 127 164 203 246 290
#     4   9  18  31  47  69  96 126 159 196 239 284
#     4   9  18  32  51  74  98 126 161 203 249 292
#     4   9  18  30  46  69  95 126 159 194 237 284
#     4   9  18  32  49  71  97 129 165 196 238 292
#     4   9  18  32  49  70  97 129 162 195 238 291
#
# _framework density 21.539458
#
# number of rings (size 3 to 8) (size 9 to 14) (size 15 to 20)
#    0.000    3.000    0.000    0.000    2.800    1.600 
#    0.000    4.667    0.000    2.000    0.000    5.600 
#    0.000    0.000    0.000    0.000    0.000    0.000 
#
# Total GULP energy -334529.698889 kJ/mol
# GULP energy per Si atom -5575.494981 kJ/mol
# Density = 2.149043 g / cm^3
# Si number density = 21.539458 Si / 1000 Ang^3
#
#
#
# Elastic Constant Matrix: (Units=GPa)
#
#
# Indices 1 2 3 4 5 6 
#
# 1 91.2086 111.4798 -0.0343 0.0000 0.0000 0.0000
# 2 111.4798 257.6222 8.9453 0.0000 0.0000 0.0000
# 3 -0.0343 8.9453 62.7764 0.0000 0.0000 0.0000
# 4 0.0000 0.0000 0.0000 211.9119 0.0000 0.0000
# 5 0.0000 0.0000 0.0000 0.0000 18.5179 0.0000
# 6 0.0000 0.0000 0.0000 0.0000 0.0000 41.2901
#
#
#
# Elastic Compliance Matrix: (Units=1/GPa)
#
#
# Indices 1 2 3 4 5 6 
#
# 1 0.023406 -0.010179 0.001463 0.000000 0.000000 0.000000
# 2 -0.010179 0.008328 -0.001192 0.000000 0.000000 0.000000
# 3 0.001463 -0.001192 0.016100 0.000000 0.000000 0.000000
# 4 0.000000 0.000000 0.000000 0.004719 0.000000 0.000000
# 5 0.000000 0.000000 0.000000 0.000000 0.054002 0.000000
# 6 0.000000 0.000000 0.000000 0.000000 0.000000 0.024219
#
#
# Mechanical properties :
#
#
# Convention : Reuss Voigt Hill
#
# Bulk Modulus (GPa) = 35.69168 72.48766 54.08967
# Shear Modulus (GPa) = 31.26387 73.75841 52.51114
#
# Velocity S-wave (km/s) = 3.81395 5.85813 4.94287
# Velocity P-wave (km/s) = 6.00011 8.91535 7.59884
#
# Compressibility (1/GPa) = 0.02801773
#
# Stress axis : x y z
#
# Youngs Moduli (GPa) = 42.72428 120.07927 62.11092
#
# Poissons Ratio (x) = 1.22230 -0.09089
# Poissons Ratio (y) = 0.43490 0.07405
# Poissons Ratio (z) = -0.06252 0.14316
#
# Static dielectric constant tensor:
#      x y z
#    x 1.751380 0.000000 0.000000 
#    y 0.000000 1.811500 0.000000 
#    z 0.000000 0.000000 1.830550 
# 
# From -- ./inp_files/29684.got.cif
#   From: 2010.05.17/outbox.cif.g08.bks.cpg/sg65_15_cif.got.tgz:29684.got - 2010.06.03 17:01:31.
