data_PCOD9494177
_publ_section_title
;
Structure prediction by ZEFSAII (Michael W. Deem and Ramdas Pophale) SiO2 
 PCOD9494177
Probable space group: C M M M
;
_chemical_formula_sum "Si O2"
_cell_formula_units_Z 72
_cell_length_a 18.069831
_cell_length_b 9.311028
_cell_length_c 23.710271
_cell_angle_alpha 90.000000
_cell_angle_beta 90.000000
_cell_angle_gamma 90.000000
_cell_volume 3989.222329
_symmetry_space_group_name_H-M "C M M M"
_symmetry_group_IT_number 65
_symmetry_cell_setting 'orthorhombic'
loop_
_space_group_symop_operation_xyz
x,y,z
-x,-y,z
x,-y,-z
-x,y,-z
-x,-y,-z
x,y,-z
-x,y,z
x,-y,z
1/2+x,1/2+y,z
1/2-x,1/2-y,z
1/2+x,1/2-y,-z
1/2-x,1/2+y,-z
1/2-x,1/2-y,-z
1/2+x,1/2+y,-z
1/2-x,1/2+y,z
1/2+x,1/2-y,z
loop_
_atom_site_type_symbol
_atom_site_label
_atom_site_fract_x
_atom_site_fract_y
_atom_site_fract_z
Si Si1 0.590034 0.165630 0.389878
Si Si2 0.409507 0.664787 0.500000
Si Si3 0.088768 0.334417 0.934059
Si Si4 0.328647 0.671373 0.162693
Si Si5 0.089051 0.330306 0.737269
O O1 0.500000 0.169529 0.389873
O O2 0.615727 0.258482 0.442674
O O3 0.612237 0.209767 0.326662
O O4 0.611435 0.000000 0.398171
O O5 0.387520 0.500000 0.500000
O O6 0.500000 0.671009 0.500000
O O7 0.108746 0.500000 0.919305
O O8 0.128513 0.224461 0.893059
O O9 0.000000 0.322808 0.928134
O O10 0.106714 0.312211 0.000000
O O11 0.321590 0.500000 0.164354
O O12 0.250000 0.750000 0.162803
O O13 0.373419 0.731843 0.216327
O O14 0.106615 0.500000 0.745962
O O15 0.000000 0.317947 0.741155
#
# Coordination Sequence:
#
# PCOD9494177 Si02
#       5
#    16   8  16  16  16
#     4   8  14  25  42  64  92 129 168 204 249 307
#     4   9  15  21  33  59  96 131 162 205 256 299
#     4   9  19  38  63  87 111 140 172 208 254 308
#     4  12  25  38  54  77 107 142 178 218 262 308
#     4   9  18  34  55  77 103 136 174 217 264 314
#
# _framework density 18.048631
#
# number of rings (size 3 to 8) (size 9 to 14) (size 15 to 20)
#    0.000    2.556    0.000    5.000    0.000    6.667 
#    0.000    3.333    0.000    0.000    0.000    0.778 
#    0.000    0.000    0.000    0.000    0.000    0.000 
#
# Total GULP energy -200815.886613 kJ/mol
# GULP energy per Si atom -5578.219073 kJ/mol
# Density = 1.800755 g / cm^3
# Si number density = 18.048631 Si / 1000 Ang^3
#
#
#
# Elastic Constant Matrix: (Units=GPa)
#
#
# Indices 1 2 3 4 5 6 
#
# 1 28.8814 46.1343 45.8506 0.0000 0.0000 0.0000
# 2 46.1343 144.4417 110.0832 0.0000 0.0000 0.0000
# 3 45.8506 110.0832 140.9423 0.0000 0.0000 0.0000
# 4 0.0000 0.0000 0.0000 17.8403 0.0000 0.0000
# 5 0.0000 0.0000 0.0000 0.0000 -13.3118 0.0000
# 6 0.0000 0.0000 0.0000 0.0000 0.0000 21.3442
#
#
#
# Elastic Compliance Matrix: (Units=1/GPa)
#
#
# Indices 1 2 3 4 5 6 
#
# 1 0.082353 -0.014541 -0.015433 0.000000 0.000000 0.000000
# 2 -0.014541 0.019673 -0.010635 0.000000 0.000000 0.000000
# 3 -0.015433 -0.010635 0.020422 0.000000 0.000000 0.000000
# 4 0.000000 0.000000 0.000000 0.056053 0.000000 0.000000
# 5 0.000000 0.000000 0.000000 0.000000 -0.075121 0.000000
# 6 0.000000 0.000000 0.000000 0.000000 0.000000 0.046851
#
#
# Mechanical properties :
#
#
# Convention : Reuss Voigt Hill
#
# Bulk Modulus (GPa) = 24.25456 79.82238 52.03847
# Shear Modulus (GPa) = 20.39203 12.65436 16.52320
#
# Velocity S-wave (km/s) = 3.36495 2.65075 3.02898
# Velocity P-wave (km/s) = 5.34461 7.32741 6.41310
#
# Compressibility (1/GPa) = 0.04122936
#
# Stress axis : x y z
#
# Youngs Moduli (GPa) = 12.14278 50.83117 48.96592
#
# Poissons Ratio (x) = 0.73915 0.75571
# Poissons Ratio (y) = 0.17657 0.52076
# Poissons Ratio (z) = 0.18740 0.54059
#
# Static dielectric constant tensor:
#      x y z
#    x 1.610510 0.000000 0.000000 
#    y 0.000000 1.595920 0.000000 
#    z 0.000000 0.000000 1.625620 
# 
# From -- ./inp_files/70333.got.cif
#   From: 2010.05.17/outbox.cif.g08.bks.cpg/sg65_36_cif.got.tgz:70333.got - 2010.06.03 17:01:31.
