data_PCOD9494102
_publ_section_title
;
Structure prediction by ZEFSAII (Michael W. Deem and Ramdas Pophale) SiO2 
 PCOD9494102
Probable space group: C M M M
;
_chemical_formula_sum "Si O2"
_cell_formula_units_Z 64
_cell_length_a 14.060343
_cell_length_b 19.048603
_cell_length_c 12.387059
_cell_angle_alpha 90.000000
_cell_angle_beta 90.000000
_cell_angle_gamma 90.000000
_cell_volume 3317.624672
_symmetry_space_group_name_H-M "C M M M"
_symmetry_group_IT_number 65
_symmetry_cell_setting 'orthorhombic'
loop_
_space_group_symop_operation_xyz
x,y,z
-x,-y,z
x,-y,-z
-x,y,-z
-x,-y,-z
x,y,-z
-x,y,z
x,-y,z
1/2+x,1/2+y,z
1/2-x,1/2-y,z
1/2+x,1/2-y,-z
1/2-x,1/2+y,-z
1/2-x,1/2-y,-z
1/2+x,1/2+y,-z
1/2-x,1/2+y,z
1/2+x,1/2-y,z
loop_
_atom_site_type_symbol
_atom_site_label
_atom_site_fract_x
_atom_site_fract_y
_atom_site_fract_z
Si Si1 0.884789 0.844820 0.375396
Si Si2 0.278700 0.323282 0.826176
Si Si3 0.610999 0.917916 0.870625
Si Si4 0.385923 0.582872 0.000000
Si Si5 0.606039 0.500000 0.370012
O O1 0.860404 0.828990 0.500000
O O2 0.834954 0.801798 0.282168
O O3 0.851124 0.924652 0.346972
O O4 0.000000 0.843504 0.368650
O O5 0.250000 0.250000 0.880517
O O6 0.182469 0.367367 0.809379
O O7 0.344622 0.374336 0.898207
O O8 0.500000 0.903632 0.849168
O O9 0.629141 0.000000 0.847274
O O10 0.626503 0.908216 0.000000
O O11 0.357082 0.500000 0.000000
O O12 0.500000 0.584901 0.000000
O O13 0.500000 0.500000 0.320602
O O14 0.595887 0.500000 0.500000
#
# Coordination Sequence:
#
# PCOD9494102 Si02
#       5
#    16  16  16   8   8
#     4   9  19  36  58  85 119 158 197 239 295 360
#     4  12  24  37  57  90 123 155 194 241 299 358
#     4   9  19  37  59  78 103 149 204 246 278 329
#     4  11  25  42  61  89 123 157 192 241 306 364
#     4   7  12  26  50  79 106 139 186 231 275 334
#
# _framework density 19.29091
#
# number of rings (size 3 to 8) (size 9 to 14) (size 15 to 20)
#    0.000    2.250    1.250    4.125    3.500    2.500 
#    0.000    0.000    0.000    0.750    0.000    1.750 
#    0.000    0.000    0.000    0.000    0.000    0.000 
#
# Total GULP energy -178342.425273 kJ/mol
# GULP energy per Si atom -5573.200790 kJ/mol
# Density = 1.924700 g / cm^3
# Si number density = 19.290910 Si / 1000 Ang^3
#
#
#
# Elastic Constant Matrix: (Units=GPa)
#
#
# Indices 1 2 3 4 5 6 
#
# 1 84.9499 47.6177 39.6421 0.0000 0.0000 0.0000
# 2 47.6177 81.9172 32.7035 0.0000 0.0000 0.0000
# 3 39.6421 32.7035 100.4315 0.0000 0.0000 0.0000
# 4 0.0000 0.0000 0.0000 16.3268 0.0000 0.0000
# 5 0.0000 0.0000 0.0000 0.0000 5085.7074 0.0000
# 6 0.0000 0.0000 0.0000 0.0000 0.0000 17.3149
#
#
#
# Elastic Compliance Matrix: (Units=1/GPa)
#
#
# Indices 1 2 3 4 5 6 
#
# 1 0.019085 -0.009295 -0.004506 0.000000 0.000000 0.000000
# 2 -0.009295 0.018558 -0.002374 0.000000 0.000000 0.000000
# 3 -0.004506 -0.002374 0.012509 0.000000 0.000000 0.000000
# 4 0.000000 0.000000 0.000000 0.061249 0.000000 0.000000
# 5 0.000000 0.000000 0.000000 0.000000 0.000197 0.000000
# 6 0.000000 0.000000 0.000000 0.000000 0.000000 0.057754
#
#
# Mechanical properties :
#
#
# Convention : Reuss Voigt Hill
#
# Bulk Modulus (GPa) = 56.17671 56.35839 56.26755
# Shear Modulus (GPa) = 24.08066 1033.69218 528.88642
#
# Velocity S-wave (km/s) = 3.53695 23.17342 16.57585
# Velocity P-wave (km/s) = 6.77230 27.29997 19.88910
#
# Compressibility (1/GPa) = 0.01780097
#
# Stress axis : x y z
#
# Youngs Moduli (GPa) = 52.39840 53.88447 79.94269
#
# Poissons Ratio (x) = 0.50083 0.36025
# Poissons Ratio (y) = 0.48702 0.18981
# Poissons Ratio (z) = 0.23613 0.12794
#
# Static dielectric constant tensor:
#      x y z
#    x 1.669640 0.000000 0.000000 
#    y 0.000000 1.707000 0.000000 
#    z 0.000000 0.000000 1.681410 
# 
# From -- ./inp_files/23987.got.cif
#   From: 2010.05.17/outbox.cif.g08.bks.cpg/sg65_12_cif.got.tgz:23987.got - 2010.06.03 17:01:31.
