data_PCOD9494596
_publ_section_title
;
Structure prediction by ZEFSAII (Michael W. Deem and Ramdas Pophale) SiO2 
 PCOD9494596
Probable space group: C M M M
;
_chemical_formula_sum "Si O2"
_cell_formula_units_Z 44
_cell_length_a 18.000000
_cell_length_b 18.000000
_cell_length_c 15.000000
_cell_angle_alpha 90.000000
_cell_angle_beta 90.000000
_cell_angle_gamma 90.000000
_cell_volume 4860.000000
_symmetry_space_group_name_H-M "C M M M"
_symmetry_group_IT_number 65
_symmetry_cell_setting 'orthorhombic'
loop_
_space_group_symop_operation_xyz
x,y,z
-x,-y,z
x,-y,-z
-x,y,-z
-x,-y,-z
x,y,-z
-x,y,z
x,-y,z
1/2+x,1/2+y,z
1/2-x,1/2-y,z
1/2+x,1/2-y,-z
1/2-x,1/2+y,-z
1/2-x,1/2-y,-z
1/2+x,1/2+y,-z
1/2-x,1/2+y,z
1/2+x,1/2-y,z
loop_
_atom_site_type_symbol
_atom_site_label
_atom_site_fract_x
_atom_site_fract_y
_atom_site_fract_z
Si Si1 0.855315 0.630174 0.213143
Si Si2 0.182313 0.808037 0.396980
Si Si3 0.912200 0.667779 0.402146
Si Si4 0.837396 0.225027 0.895876
Si Si5 0.183964 0.911083 0.226746
Si Si6 0.586142 0.000000 0.096279
O O1 0.878292 0.628867 0.316208
O O2 0.868758 0.711208 0.169819
O O3 0.770946 0.602303 0.209034
O O4 0.897012 0.572253 0.152512
O O5 0.194867 0.832210 0.500000
O O6 0.250000 0.750000 0.372860
O O7 0.111354 0.753983 0.395714
O O8 0.173219 0.872833 0.324465
O O9 0.884822 0.641740 0.500000
O O10 0.000000 0.659397 0.399647
O O11 0.750000 0.250000 0.897708
O O12 0.850337 0.145119 0.848098
O O13 0.861957 0.226220 0.000000
O O14 0.166499 0.000000 0.223048
O O15 0.500000 0.000000 0.082610
O O16 0.625920 0.000000 0.000000
#
# Coordination Sequence:
#
# PCOD9494596 Si02
#       6
#    16  16  16  16  16   8
#     4  11  19  36  55  78 110 146 182 223 269 326
#     4  10  18  33  55  77 108 143 180 226 274 328
#     4  10  20  34  57  84 108 141 182 223 271 328
#     4   9  18  32  51  76 105 139 180 225 273 323
#     4  11  20  32  51  80 111 141 181 229 279 325
#     4  11  24  38  53  79 115 153 187 222 270 326
#
# _framework density 9.0534979999999994
#
# number of rings (size 3 to 8) (size 9 to 14) (size 15 to 20)
#    0.000    1.727    4.545    1.636    0.000    1.455 
#    0.000    0.455    0.000    2.182    0.000    2.545 
#    0.000    1.455    0.000    0.000    0.000    0.000 
#
# Total GULP energy -244974.091181 kJ/mol
# GULP energy per Si atom -5567.592981 kJ/mol
# Density = 0.903289 g / cm^3
# Si number density = 9.053498 Si / 1000 Ang^3
#
#
#
# Elastic Constant Matrix: (Units=GPa)
#
#
# Indices 1 2 3 4 5 6 
#
# 1 15.2945 -3.1645 10.2388 0.0000 0.0000 0.0000
# 2 -3.1645 113.8953 65.8113 0.0000 0.0000 0.0000
# 3 10.2388 65.8113 159.1325 0.0000 0.0000 0.0000
# 4 0.0000 0.0000 0.0000 40.7335 0.0000 0.0000
# 5 0.0000 0.0000 0.0000 0.0000 16.1595 0.0000
# 6 0.0000 0.0000 0.0000 0.0000 0.0000 38.0624
#
#
#
# Elastic Compliance Matrix: (Units=1/GPa)
#
#
# Indices 1 2 3 4 5 6 
#
# 1 0.071407 0.006095 -0.007115 0.000000 0.000000 0.000000
# 2 0.006095 0.012057 -0.005379 0.000000 0.000000 0.000000
# 3 -0.007115 -0.005379 0.008966 0.000000 0.000000 0.000000
# 4 0.000000 0.000000 0.000000 0.024550 0.000000 0.000000
# 5 0.000000 0.000000 0.000000 0.000000 0.061883 0.000000
# 6 0.000000 0.000000 0.000000 0.000000 0.000000 0.026273
#
#
# Mechanical properties :
#
#
# Convention : Reuss Voigt Hill
#
# Bulk Modulus (GPa) = 12.55747 48.23263 30.39505
# Shear Modulus (GPa) = 20.45172 33.35352 26.90262
#
# Velocity S-wave (km/s) = 3.36444 4.29654 3.85874
# Velocity P-wave (km/s) = 4.69498 7.16303 6.05606
#
# Compressibility (1/GPa) = 0.07963388
#
# Stress axis : x y z
#
# Youngs Moduli (GPa) = 14.00414 82.93780 111.52902
#
# Poissons Ratio (x) = -0.50554 0.79356
# Poissons Ratio (y) = -0.08536 0.59987
# Poissons Ratio (z) = 0.09964 0.44609
#
# Static dielectric constant tensor:
#      x y z
#    x 1.665500 0.000000 0.000000 
#    y 0.000000 1.611500 0.000000 
#    z 0.000000 0.000000 1.710940 
# 
# From -- ./inp_files/42467.got.cif
#   From: 2010.05.17/outbox.ucp.g08.bks.cvg/sg65_22_cif.got.tgz:42467.got - 2010.06.11 16:39:57.
