data_PCOD9494333
_publ_section_title
;
Structure prediction by ZEFSAII (Michael W. Deem and Ramdas Pophale) SiO2 
 PCOD9494333
Probable space group: C M M M
;
_chemical_formula_sum "Si O2"
_cell_formula_units_Z 112
_cell_length_a 14.711307
_cell_length_b 19.562581
_cell_length_c 19.654802
_cell_angle_alpha 90.000000
_cell_angle_beta 90.000000
_cell_angle_gamma 90.000000
_cell_volume 5656.477772
_symmetry_space_group_name_H-M "C M M M"
_symmetry_group_IT_number 65
_symmetry_cell_setting 'orthorhombic'
loop_
_space_group_symop_operation_xyz
x,y,z
-x,-y,z
x,-y,-z
-x,y,-z
-x,-y,-z
x,y,-z
-x,y,z
x,-y,z
1/2+x,1/2+y,z
1/2-x,1/2-y,z
1/2+x,1/2-y,-z
1/2-x,1/2+y,-z
1/2-x,1/2-y,-z
1/2+x,1/2+y,-z
1/2-x,1/2+y,z
1/2+x,1/2-y,z
loop_
_atom_site_type_symbol
_atom_site_label
_atom_site_fract_x
_atom_site_fract_y
_atom_site_fract_z
Si Si1 0.352061 0.078099 0.423522
Si Si2 0.891683 0.342644 0.711308
Si Si3 0.105865 0.922891 0.723448
Si Si4 0.388980 0.076309 0.842550
Si Si5 0.389055 0.209662 0.076597
Si Si6 0.611524 0.289665 0.791151
Si Si7 0.865983 0.078971 0.572574
O O1 0.385587 0.094494 0.500000
O O2 0.373567 0.131148 0.364278
O O3 0.242890 0.077114 0.427445
O O4 0.381976 0.000000 0.406878
O O5 0.861393 0.398321 0.767325
O O6 0.858946 0.268566 0.737085
O O7 0.000000 0.339226 0.717947
O O8 0.146313 0.864313 0.770895
O O9 0.107124 0.893955 0.646113
O O10 0.000000 0.929895 0.741892
O O11 0.145932 0.000000 0.724421
O O12 0.500000 0.074797 0.843596
O O13 0.361659 0.134902 0.895695
O O14 0.356382 0.000000 0.857138
O O15 0.500000 0.210158 0.076155
O O16 0.361392 0.263912 0.134176
O O17 0.358220 0.222777 0.000000
O O18 0.500000 0.291643 0.789651
O O19 0.894840 0.110261 0.500000
O O20 0.897500 0.000000 0.572613
#
# Coordination Sequence:
#
# PCOD9494333 Si02
#       7
#    16  16  16  16  16  16  16
#     4   9  17  28  41  57  80 111 142 171 200 226
#     4   9  16  26  39  54  78 113 146 172 199 230
#     4   9  16  27  46  66  79  97 127 163 205 252
#     4   8  13  20  31  50  75 102 136 177 207 222
#     4   8  13  21  34  52  77 111 138 153 187 243
#     4   8  15  27  40  57  82 106 130 165 204 239
#     4   8  15  28  43  60  83 105 126 161 208 247
#
# _framework density 19.800307
#
# number of rings (size 3 to 8) (size 9 to 14) (size 15 to 20)
#    0.000    3.571    0.000    3.000    0.000    1.714 
#    0.000    5.000    0.000    4.714    0.000    3.000 
#    0.000    9.143    0.000   16.857    0.000   14.857 
#
# Total GULP energy -311854.996916 kJ/mol
# GULP energy per Si atom -5568.839231 kJ/mol
# Density = 1.975524 g / cm^3
# Si number density = 19.800307 Si / 1000 Ang^3
#
#
#
# Elastic Constant Matrix: (Units=GPa)
#
#
# Indices 1 2 3 4 5 6 
#
# 1 40.7476 8.2730 1.9142 0.0000 0.0000 0.0000
# 2 8.2730 125.9336 94.9474 0.0000 0.0000 0.0000
# 3 1.9142 94.9474 161.9765 0.0000 0.0000 0.0000
# 4 0.0000 0.0000 0.0000 15.1852 0.0000 0.0000
# 5 0.0000 0.0000 0.0000 0.0000 22.0172 0.0000
# 6 0.0000 0.0000 0.0000 0.0000 0.0000 5.0545
#
#
#
# Elastic Compliance Matrix: (Units=1/GPa)
#
#
# Indices 1 2 3 4 5 6 
#
# 1 0.025002 -0.002544 0.001196 0.000000 0.000000 0.000000
# 2 -0.002544 0.014488 -0.008463 0.000000 0.000000 0.000000
# 3 0.001196 -0.008463 0.011120 0.000000 0.000000 0.000000
# 4 0.000000 0.000000 0.000000 0.065853 0.000000 0.000000
# 5 0.000000 0.000000 0.000000 0.000000 0.045419 0.000000
# 6 0.000000 0.000000 0.000000 0.000000 0.000000 0.197844
#
#
# Mechanical properties :
#
#
# Convention : Reuss Voigt Hill
#
# Bulk Modulus (GPa) = 32.27016 59.88076 46.07546
# Shear Modulus (GPa) = 12.83112 23.35292 18.09202
#
# Velocity S-wave (km/s) = 2.54840 3.43800 3.02607
# Velocity P-wave (km/s) = 4.99923 6.78732 5.96071
#
# Compressibility (1/GPa) = 0.03098838
#
# Stress axis : x y z
#
# Youngs Moduli (GPa) = 39.99739 69.02168 89.92614
#
# Poissons Ratio (x) = 0.17559 -0.10753
# Poissons Ratio (y) = 0.10175 0.76101
# Poissons Ratio (z) = -0.04783 0.58411
#
# Static dielectric constant tensor:
#      x y z
#    x 1.746450 0.000000 0.000000 
#    y 0.000000 1.698640 0.000000 
#    z 0.000000 0.000000 1.720830 
# 
# From -- ./inp_files/54859.got.cif
#   From: 2010.05.17/outbox.cif.g08.bks.cpg/sg65_28_cif.got.tgz:54859.got - 2010.06.03 17:01:31.
