data_PCOD9494424
_publ_section_title
;
Structure prediction by ZEFSAII (Michael W. Deem and Ramdas Pophale) SiO2 
 PCOD9494424
Probable space group: C M M M
;
_chemical_formula_sum "Si O2"
_cell_formula_units_Z 72
_cell_length_a 18.680623
_cell_length_b 26.498244
_cell_length_c 7.506641
_cell_angle_alpha 90.000000
_cell_angle_beta 90.000000
_cell_angle_gamma 90.000000
_cell_volume 3715.815117
_symmetry_space_group_name_H-M "C M M M"
_symmetry_group_IT_number 65
_symmetry_cell_setting 'orthorhombic'
loop_
_space_group_symop_operation_xyz
x,y,z
-x,-y,z
x,-y,-z
-x,y,-z
-x,-y,-z
x,y,-z
-x,y,z
x,-y,z
1/2+x,1/2+y,z
1/2-x,1/2-y,z
1/2+x,1/2-y,-z
1/2-x,1/2+y,-z
1/2-x,1/2-y,-z
1/2+x,1/2+y,-z
1/2-x,1/2+y,z
1/2+x,1/2-y,z
loop_
_atom_site_type_symbol
_atom_site_label
_atom_site_fract_x
_atom_site_fract_y
_atom_site_fract_z
Si Si1 0.919269 0.662921 0.788447
Si Si2 0.168625 0.758652 0.217690
Si Si3 0.416760 0.054011 0.286146
Si Si4 0.914787 0.859997 0.211898
Si Si5 0.413333 0.442465 0.500000
O O1 0.876514 0.710574 0.718699
O O2 0.884411 0.607821 0.763649
O O3 0.000000 0.661585 0.714143
O O4 0.924834 0.670081 0.000000
O O5 0.250000 0.750000 0.274584
O O6 0.131225 0.811215 0.268109
O O7 0.168278 0.758650 0.000000
O O8 0.418018 0.052920 0.500000
O O9 0.500000 0.055219 0.224020
O O10 0.386078 0.000000 0.224942
O O11 0.894206 0.908824 0.327683
O O12 0.000000 0.849941 0.240528
O O13 0.905082 0.868261 0.000000
O O14 0.385832 0.500000 0.500000
O O15 0.500000 0.445621 0.500000
#
# Coordination Sequence:
#
# PCOD9494424 Si02
#       5
#    16  16  16  16   8
#     4   9  16  26  43  67  91 115 148 191 233 272
#     4   9  17  30  48  69  95 127 160 196 239 288
#     4   8  14  25  40  59  85 115 146 181 220 262
#     4   9  17  31  52  76 103 134 165 202 251 301
#     4   9  18  32  51  78 106 128 161 210 254 299
#
# _framework density 19.376636999999999
#
# number of rings (size 3 to 8) (size 9 to 14) (size 15 to 20)
#    0.000    3.222    0.000    1.333    0.000    3.556 
#    2.000    5.000    0.000    1.333    0.000    6.222 
#    0.000    0.000    0.000    0.000    0.000    0.000 
#
# Total GULP energy -200493.506157 kJ/mol
# GULP energy per Si atom -5569.264060 kJ/mol
# Density = 1.933253 g / cm^3
# Si number density = 19.376637 Si / 1000 Ang^3
#
#
#
# Elastic Constant Matrix: (Units=GPa)
#
#
# Indices 1 2 3 4 5 6 
#
# 1 53.1355 70.5716 20.3400 0.0000 0.0000 0.0000
# 2 70.5716 235.6085 43.8544 0.0000 0.0000 0.0000
# 3 20.3400 43.8544 66.6279 0.0000 0.0000 0.0000
# 4 0.0000 0.0000 0.0000 28.9140 0.0000 0.0000
# 5 0.0000 0.0000 0.0000 0.0000 3.0525 0.0000
# 6 0.0000 0.0000 0.0000 0.0000 0.0000 -3.0645
#
#
#
# Elastic Compliance Matrix: (Units=1/GPa)
#
#
# Indices 1 2 3 4 5 6 
#
# 1 0.032145 -0.008891 -0.003961 0.000000 0.000000 0.000000
# 2 -0.008891 0.007296 -0.002088 0.000000 0.000000 0.000000
# 3 -0.003961 -0.002088 0.017592 0.000000 0.000000 0.000000
# 4 0.000000 0.000000 0.000000 0.034585 0.000000 0.000000
# 5 0.000000 0.000000 0.000000 0.000000 0.327605 0.000000
# 6 0.000000 0.000000 0.000000 0.000000 0.000000 -0.326321
#
#
# Mechanical properties :
#
#
# Convention : Reuss Voigt Hill
#
# Bulk Modulus (GPa) = 36.82846 69.43375 53.13111
# Shear Modulus (GPa) = 37.92681 20.48746 29.20713
#
# Velocity S-wave (km/s) = 4.42899 3.25519 3.88666
# Velocity P-wave (km/s) = 6.72328 7.07389 6.90081
#
# Compressibility (1/GPa) = 0.02715291
#
# Stress axis : x y z
#
# Youngs Moduli (GPa) = 31.10947 137.05973 56.84310
#
# Poissons Ratio (x) = 1.21859 0.22515
# Poissons Ratio (y) = 0.27659 0.11869
# Poissons Ratio (z) = 0.12322 0.28619
#
# Static dielectric constant tensor:
#      x y z
#    x 1.646890 0.000000 0.000000 
#    y 0.000000 1.707330 0.000000 
#    z 0.000000 0.000000 1.713280 
# 
# From -- ./inp_files/11236.got.cif
#   From: 2010.05.17/outbox.cif.g08.bks.cpg/sg65_6_cif.got.tgz:11236.got - 2010.06.03 17:01:31.
