data_PCOD9494518
_publ_section_title
;
Structure prediction by ZEFSAII (Michael W. Deem and Ramdas Pophale) SiO2 
 PCOD9494518
Probable space group: C M M M
;
_chemical_formula_sum "Si O2"
_cell_formula_units_Z 88
_cell_length_a 17.058307
_cell_length_b 14.207713
_cell_length_c 15.321175
_cell_angle_alpha 90.000000
_cell_angle_beta 90.000000
_cell_angle_gamma 90.000000
_cell_volume 3713.232774
_symmetry_space_group_name_H-M "C M M M"
_symmetry_group_IT_number 65
_symmetry_cell_setting 'orthorhombic'
loop_
_space_group_symop_operation_xyz
x,y,z
-x,-y,z
x,-y,-z
-x,y,-z
-x,-y,-z
x,y,-z
-x,y,z
x,-y,z
1/2+x,1/2+y,z
1/2-x,1/2-y,z
1/2+x,1/2-y,-z
1/2-x,1/2+y,-z
1/2-x,1/2-y,-z
1/2+x,1/2+y,-z
1/2-x,1/2+y,z
1/2+x,1/2-y,z
loop_
_atom_site_type_symbol
_atom_site_label
_atom_site_fract_x
_atom_site_fract_y
_atom_site_fract_z
Si Si1 0.589727 0.384303 0.000000
Si Si2 0.085153 0.153430 0.600586
Si Si3 0.793033 0.112088 0.855331
Si Si4 0.383353 0.112835 0.904527
Si Si5 0.756208 0.854000 0.339014
Si Si6 0.914730 0.347727 0.294242
O O1 0.636596 0.352147 0.085353
O O2 0.594083 0.500000 0.000000
O O3 0.500000 0.357759 0.000000
O O4 0.085616 0.184742 0.500000
O O5 0.167620 0.101210 0.616420
O O6 0.085380 0.243673 0.664292
O O7 0.000000 0.105949 0.615051
O O8 0.710591 0.124989 0.903219
O O9 0.784038 0.155767 0.761067
O O10 0.803403 0.000000 0.841810
O O11 0.410719 0.152791 0.811402
O O12 0.399024 0.000000 0.899958
O O13 0.411871 0.145804 0.000000
O O14 0.750000 0.750000 0.379943
O O15 0.667216 0.892077 0.330073
O O16 0.000000 0.389716 0.317852
#
# Coordination Sequence:
#
# PCOD9494518 Si02
#       6
#     8  16  16  16  16  16
#     4   9  16  26  43  66  91 127 175 214 246 296
#     4   9  18  34  56  76  94 122 163 209 255 307
#     4   9  16  29  47  69  98 132 168 207 250 297
#     4   9  16  28  48  70  96 135 175 209 246 293
#     4   9  18  31  50  74  97 128 165 201 253 302
#     4   9  18  30  45  70 102 128 163 208 249 293
#
# _framework density 23.699024999999999
#
# number of rings (size 3 to 8) (size 9 to 14) (size 15 to 20)
#    0.000    3.000    0.909    0.000    0.000    4.727 
#    0.000    1.364    6.000    1.091    0.000   11.455 
#    0.000    0.000    0.000    0.000    0.000    0.000 
#
# Total GULP energy -245268.667311 kJ/mol
# GULP energy per Si atom -5574.287893 kJ/mol
# Density = 2.364508 g / cm^3
# Si number density = 23.699025 Si / 1000 Ang^3
#
#
#
# Elastic Constant Matrix: (Units=GPa)
#
#
# Indices 1 2 3 4 5 6 
#
# 1 254.1162 24.9827 42.4368 0.0000 0.0000 0.0000
# 2 24.9827 85.4936 36.8490 0.0000 0.0000 0.0000
# 3 42.4368 36.8490 108.4315 0.0000 0.0000 0.0000
# 4 0.0000 0.0000 0.0000 374.8395 0.0000 0.0000
# 5 0.0000 0.0000 0.0000 0.0000 31.3527 0.0000
# 6 0.0000 0.0000 0.0000 0.0000 0.0000 -6.5867
#
#
#
# Elastic Compliance Matrix: (Units=1/GPa)
#
#
# Indices 1 2 3 4 5 6 
#
# 1 0.004238 -0.000613 -0.001450 0.000000 0.000000 0.000000
# 2 -0.000613 0.013793 -0.004447 0.000000 0.000000 0.000000
# 3 -0.001450 -0.004447 0.011301 0.000000 0.000000 0.000000
# 4 0.000000 0.000000 0.000000 0.002668 0.000000 0.000000
# 5 0.000000 0.000000 0.000000 0.000000 0.031895 0.000000
# 6 0.000000 0.000000 0.000000 0.000000 0.000000 -0.151821
#
#
# Mechanical properties :
#
#
# Convention : Reuss Voigt Hill
#
# Bulk Modulus (GPa) = 61.31038 72.95315 67.13176
# Shear Modulus (GPa) = -71.97561 102.83929 15.43184
#
# Velocity S-wave (km/s) = -5.51694 6.59455 2.55455
# Velocity P-wave (km/s) = 3.82826 9.42519 6.09010
#
# Compressibility (1/GPa) = 0.01631045
#
# Stress axis : x y z
#
# Youngs Moduli (GPa) = 235.97923 72.50136 88.48563
#
# Poissons Ratio (x) = 0.04447 0.12831
# Poissons Ratio (y) = 0.14473 0.39352
# Poissons Ratio (z) = 0.34218 0.32243
#
# Static dielectric constant tensor:
#      x y z
#    x 1.983960 0.000000 0.000000 
#    y 0.000000 1.925390 0.000000 
#    z 0.000000 0.000000 1.833280 
# 
# From -- ./inp_files/42469.got.cif
#   From: 2010.05.17/outbox.cif.g08.bks.cpg/sg65_22_cif.got.tgz:42469.got - 2010.06.03 17:01:31.
