data_PCOD9494620
_publ_section_title
;
Structure prediction by ZEFSAII (Michael W. Deem and Ramdas Pophale) SiO2 
 PCOD9494620
Probable space group: C M M M
;
_chemical_formula_sum "Si O2"
_cell_formula_units_Z 44
_cell_length_a 24.000000
_cell_length_b 21.000000
_cell_length_c 9.000000
_cell_angle_alpha 90.000000
_cell_angle_beta 90.000000
_cell_angle_gamma 90.000000
_cell_volume 4536.000000
_symmetry_space_group_name_H-M "C M M M"
_symmetry_group_IT_number 65
_symmetry_cell_setting 'orthorhombic'
loop_
_space_group_symop_operation_xyz
x,y,z
-x,-y,z
x,-y,-z
-x,y,-z
-x,-y,-z
x,y,-z
-x,y,z
x,-y,z
1/2+x,1/2+y,z
1/2-x,1/2-y,z
1/2+x,1/2-y,-z
1/2-x,1/2+y,-z
1/2-x,1/2-y,-z
1/2+x,1/2+y,-z
1/2-x,1/2+y,z
1/2+x,1/2-y,z
loop_
_atom_site_type_symbol
_atom_site_label
_atom_site_fract_x
_atom_site_fract_y
_atom_site_fract_z
Si Si1 0.436290 0.390003 0.821594
Si Si2 0.864362 0.625349 0.819666
Si Si3 0.671389 0.432118 0.678102
Si Si4 0.253487 0.175748 0.679819
Si Si5 0.937916 0.256028 0.819910
Si Si6 0.934988 0.500000 0.180741
O O1 0.500000 0.406738 0.786880
O O2 0.390486 0.430461 0.740391
O O3 0.426912 0.316278 0.775144
O O4 0.429935 0.394228 0.000000
O O5 0.805014 0.635989 0.745076
O O6 0.896690 0.689318 0.772652
O O7 0.900160 0.563132 0.776165
O O8 0.859184 0.624187 0.000000
O O9 0.670964 0.430528 0.500000
O O10 0.698297 0.500000 0.723483
O O11 0.701342 0.367445 0.728219
O O12 0.256825 0.176541 0.500000
O O13 0.250000 0.250000 0.728975
O O14 0.000000 0.273186 0.771050
O O15 0.937765 0.255700 0.000000
O O16 0.000000 0.500000 0.230628
O O17 0.937073 0.500000 0.000000
#
# Coordination Sequence:
#
# PCOD9494620 Si02
#       6
#    16  16  16  16  16   8
#     4   9  18  33  54  80 106 132 167 213 263 308
#     4  10  19  31  53  81 107 140 183 224 266 318
#     4  10  22  38  54  73 101 138 175 208 253 315
#     4  10  22  39  57  77 104 140 181 226 276 324
#     4   8  14  27  49  76 105 136 170 210 258 311
#     4   9  18  32  51  81 119 151 182 225 276 333
#
# _framework density 9.7001760000000008
#
# number of rings (size 3 to 8) (size 9 to 14) (size 15 to 20)
#    0.000    2.636    0.000    2.727    1.273    4.364 
#    0.000    1.818    0.000    3.818    0.000    0.000 
#    0.000    0.000    0.000    0.000    0.000    0.000 
#
# Total GULP energy -245117.666154 kJ/mol
# GULP energy per Si atom -5570.856049 kJ/mol
# Density = 0.967810 g / cm^3
# Si number density = 9.700176 Si / 1000 Ang^3
#
#
#
# Elastic Constant Matrix: (Units=GPa)
#
#
# Indices 1 2 3 4 5 6 
#
# 1 108.5886 67.6997 8.7096 0.0000 0.0000 0.0000
# 2 67.6997 110.1549 13.6959 0.0000 0.0000 0.0000
# 3 8.7096 13.6959 -10.5432 0.0000 0.0000 0.0000
# 4 0.0000 0.0000 0.0000 4.9389 0.0000 0.0000
# 5 0.0000 0.0000 0.0000 0.0000 65.7956 0.0000
# 6 0.0000 0.0000 0.0000 0.0000 0.0000 27.8972
#
#
#
# Elastic Compliance Matrix: (Units=1/GPa)
#
#
# Indices 1 2 3 4 5 6 
#
# 1 0.014928 -0.009219 0.000356 0.000000 0.000000 0.000000
# 2 -0.009219 0.013509 0.009933 0.000000 0.000000 0.000000
# 3 0.000356 0.009933 -0.081651 0.000000 0.000000 0.000000
# 4 0.000000 0.000000 0.000000 0.202473 0.000000 0.000000
# 5 0.000000 0.000000 0.000000 0.000000 0.015199 0.000000
# 6 0.000000 0.000000 0.000000 0.000000 0.000000 0.035846
#
#
# Mechanical properties :
#
#
# Convention : Reuss Voigt Hill
#
# Bulk Modulus (GPa) = -19.57976 43.15673 11.78849
# Shear Modulus (GPa) = 27.60326 27.59935 27.60131
#
# Velocity S-wave (km/s) = 3.77612 3.77586 3.77599
# Velocity P-wave (km/s) = 2.98291 6.42675 5.01003
#
# Compressibility (1/GPa) = -0.05107315
#
# Stress axis : x y z
#
# Youngs Moduli (GPa) = 66.98825 74.02522 -12.24728
#
# Poissons Ratio (x) = 0.68243 0.00436
# Poissons Ratio (y) = 0.61755 0.12165
# Poissons Ratio (z) = -0.02387 -0.73529
#
# Static dielectric constant tensor:
#      x y z
#    x 1.757000 0.000000 0.000000 
#    y 0.000000 1.715270 0.000000 
#    z 0.000000 0.000000 1.643220 
# 
# From -- ./inp_files/11847.got.cif
#   From: 2010.05.17/outbox.ucp.g08.bks.cvg/sg65_6_cif.got.tgz:11847.got - 2010.06.11 16:39:57.
