data_PCOD9494384
_publ_section_title
;
Structure prediction by ZEFSAII (Michael W. Deem and Ramdas Pophale) SiO2 
 PCOD9494384
Probable space group: C M M M
;
_chemical_formula_sum "Si O2"
_cell_formula_units_Z 96
_cell_length_a 28.644284
_cell_length_b 7.620568
_cell_length_c 24.820653
_cell_angle_alpha 90.000000
_cell_angle_beta 90.000000
_cell_angle_gamma 90.000000
_cell_volume 5417.993963
_symmetry_space_group_name_H-M "C M M M"
_symmetry_group_IT_number 65
_symmetry_cell_setting 'orthorhombic'
loop_
_space_group_symop_operation_xyz
x,y,z
-x,-y,z
x,-y,-z
-x,y,-z
-x,-y,-z
x,y,-z
-x,y,z
x,-y,z
1/2+x,1/2+y,z
1/2-x,1/2-y,z
1/2+x,1/2-y,-z
1/2-x,1/2+y,-z
1/2-x,1/2-y,-z
1/2+x,1/2+y,-z
1/2-x,1/2+y,z
1/2+x,1/2-y,z
loop_
_atom_site_type_symbol
_atom_site_label
_atom_site_fract_x
_atom_site_fract_y
_atom_site_fract_z
Si Si1 0.304192 0.710883 0.060431
Si Si2 0.393542 0.710036 0.332835
Si Si3 0.355586 0.714564 0.166033
Si Si4 0.552750 0.789655 0.560196
Si Si5 0.803542 0.210078 0.273204
Si Si6 0.052620 0.214340 0.773175
O O1 0.308906 0.500000 0.058867
O O2 0.250000 0.750000 0.072650
O O3 0.336970 0.776513 0.108485
O O4 0.314175 0.778044 0.000000
O O5 0.392628 0.500000 0.328432
O O6 0.412069 0.749226 0.391932
O O7 0.341988 0.774909 0.316205
O O8 0.428980 0.771103 0.285837
O O9 0.355131 0.500000 0.165229
O O10 0.320838 0.771274 0.214220
O O11 0.407572 0.767605 0.184222
O O12 0.565504 0.726263 0.500000
O O13 0.500000 0.725258 0.572602
O O14 0.550272 0.000000 0.557457
O O15 0.750000 0.250000 0.284339
O O16 0.807207 0.000000 0.271991
O O17 0.000000 0.274249 0.783532
O O18 0.052011 0.000000 0.773218
#
# Coordination Sequence:
#
# PCOD9494384 Si02
#       6
#    16  16  16  16  16  16
#     4   9  16  25  38  56  78 104 133 165 200 237
#     4   9  17  28  43  64  85 105 135 172 203 235
#     4   8  14  24  37  55  80 107 133 163 200 240
#     4   9  18  31  45  63  88 114 136 160 196 242
#     4   9  17  28  42  61  84 108 135 168 205 245
#     4   8  13  22  38  59  81 105 132 162 198 239
#
# _framework density 17.718736
#
# number of rings (size 3 to 8) (size 9 to 14) (size 15 to 20)
#    0.000    3.333    0.000    3.500    0.000    2.000 
#    0.000    0.833    0.000    2.000    0.000    3.500 
#    0.000    0.000    0.000    4.167    0.000    4.333 
#
# Total GULP energy -267396.054821 kJ/mol
# GULP energy per Si atom -5570.751142 kJ/mol
# Density = 1.767841 g / cm^3
# Si number density = 17.718736 Si / 1000 Ang^3
#
#
#
# Elastic Constant Matrix: (Units=GPa)
#
#
# Indices 1 2 3 4 5 6 
#
# 1 164.8303 3.9410 112.6233 0.0000 0.0000 0.0000
# 2 3.9410 32.6885 6.2726 0.0000 0.0000 0.0000
# 3 112.6233 6.2726 160.8859 0.0000 0.0000 0.0000
# 4 0.0000 0.0000 0.0000 -36.4007 0.0000 0.0000
# 5 0.0000 0.0000 0.0000 0.0000 26.4755 0.0000
# 6 0.0000 0.0000 0.0000 0.0000 0.0000 12.3151
#
#
#
# Elastic Compliance Matrix: (Units=1/GPa)
#
#
# Indices 1 2 3 4 5 6 
#
# 1 0.011630 0.000161 -0.008147 0.000000 0.000000 0.000000
# 2 0.000161 0.030825 -0.001315 0.000000 0.000000 0.000000
# 3 -0.008147 -0.001315 0.011970 0.000000 0.000000 0.000000
# 4 0.000000 0.000000 0.000000 -0.027472 0.000000 0.000000
# 5 0.000000 0.000000 0.000000 0.000000 0.037771 0.000000
# 6 0.000000 0.000000 0.000000 0.000000 0.000000 0.081201
#
#
# Mechanical properties :
#
#
# Convention : Reuss Voigt Hill
#
# Bulk Modulus (GPa) = 27.91497 67.11984 47.51740
# Shear Modulus (GPa) = 28.33382 16.18249 22.25816
#
# Velocity S-wave (km/s) = 4.00320 3.02536 3.54813
# Velocity P-wave (km/s) = 6.09559 7.08285 6.60768
#
# Compressibility (1/GPa) = 0.03582307
#
# Stress axis : x y z
#
# Youngs Moduli (GPa) = 85.98545 32.44155 83.54074
#
# Poissons Ratio (x) = -0.00523 0.68064
# Poissons Ratio (y) = -0.01387 0.10983
# Poissons Ratio (z) = 0.70056 0.04265
#
# Static dielectric constant tensor:
#      x y z
#    x 1.605690 0.000000 0.000000 
#    y 0.000000 1.683550 0.000000 
#    z 0.000000 0.000000 1.610500 
# 
# From -- ./inp_files/61885.got.cif
#   From: 2010.05.17/outbox.cif.g08.bks.cpg/sg65_31_cif.got.tgz:61885.got - 2010.06.03 17:01:31.
