data_PCOD9494770
_publ_section_title
;
Structure prediction by ZEFSAII (Michael W. Deem and Ramdas Pophale) SiO2 
 PCOD9494770
Probable space group: C M M M
;
_chemical_formula_sum "Si O2"
_cell_formula_units_Z 52
_cell_length_a 27.000000
_cell_length_b 21.000000
_cell_length_c 9.000000
_cell_angle_alpha 90.000000
_cell_angle_beta 90.000000
_cell_angle_gamma 90.000000
_cell_volume 5103.000000
_symmetry_space_group_name_H-M "C M M M"
_symmetry_group_IT_number 65
_symmetry_cell_setting 'orthorhombic'
loop_
_space_group_symop_operation_xyz
x,y,z
-x,-y,z
x,-y,-z
-x,y,-z
-x,-y,-z
x,y,-z
-x,y,z
x,-y,z
1/2+x,1/2+y,z
1/2-x,1/2-y,z
1/2+x,1/2-y,-z
1/2-x,1/2+y,-z
1/2-x,1/2-y,-z
1/2+x,1/2+y,-z
1/2-x,1/2+y,z
1/2+x,1/2-y,z
loop_
_atom_site_type_symbol
_atom_site_label
_atom_site_fract_x
_atom_site_fract_y
_atom_site_fract_z
Si Si1 0.058440 0.865949 0.328796
Si Si2 0.286920 0.500000 0.670460
Si Si3 0.226869 0.866784 0.824499
Si Si4 0.000000 0.577708 0.328655
Si Si5 0.094297 0.000000 0.328648
Si Si6 0.601493 0.923566 0.829591
Si Si7 0.131320 0.781147 0.825942
Si Si8 0.176067 0.662764 0.674572
O O1 0.077982 0.860141 0.500000
O O2 0.080690 0.812318 0.225303
O O3 0.000000 0.863320 0.335562
O O4 0.074779 0.934332 0.264535
O O5 0.269804 0.500000 0.500000
O O6 0.270949 0.563715 0.752682
O O7 0.346675 0.500000 0.671396
O O8 0.174457 0.833178 0.796619
O O9 0.271235 0.827815 0.752009
O O10 0.234229 0.870893 0.000000
O O11 0.050093 0.598041 0.245876
O O12 0.000000 0.500000 0.327742
O O13 0.000000 0.598312 0.500000
O O14 0.076026 0.000000 0.500000
O O15 0.648359 0.898699 0.739305
O O16 0.601123 0.000000 0.829668
O O17 0.604209 0.901498 0.000000
O O18 0.142273 0.720950 0.725067
O O19 0.132850 0.764979 0.000000
O O20 0.181926 0.658558 0.500000
#
# Coordination Sequence:
#
# PCOD9494770 Si02
#       8
#    16   8  16   8   8  16  16  16
#     4  10  20  37  63  94 128 167 213 264 316 369
#     4  11  21  36  63  95 126 165 211 261 310 369
#     4  11  24  42  64  90 125 164 204 253 312 375
#     4   9  17  33  59  89 121 155 193 238 289 350
#     4   9  17  33  60  93 129 165 208 260 314 367
#     4  10  21  39  63  90 122 158 197 245 304 366
#     4  11  24  43  64  87 122 165 209 254 310 377
#     4  12  26  42  64  92 122 158 206 259 310 370
#
# _framework density 10.190084000000001
#
# number of rings (size 3 to 8) (size 9 to 14) (size 15 to 20)
#    0.000    1.462    1.538    3.923    1.077    6.769 
#    1.385    0.385    0.000    0.923    0.000    0.000 
#    0.000    0.000    0.000    0.000    0.000    0.000 
#
# Total GULP energy -290536.114391 kJ/mol
# GULP energy per Si atom -5587.232969 kJ/mol
# Density = 1.016689 g / cm^3
# Si number density = 10.190084 Si / 1000 Ang^3
#
#
#
# Elastic Constant Matrix: (Units=GPa)
#
#
# Indices 1 2 3 4 5 6 
#
# 1 48.3450 10.5684 13.6949 0.0000 0.0000 0.0000
# 2 10.5684 43.7350 13.8032 0.0000 0.0000 0.0000
# 3 13.6949 13.8032 64.0517 0.0000 0.0000 0.0000
# 4 0.0000 0.0000 0.0000 25.4228 0.0000 0.0000
# 5 0.0000 0.0000 0.0000 0.0000 32.3180 0.0000
# 6 0.0000 0.0000 0.0000 0.0000 0.0000 -38.8161
#
#
#
# Elastic Compliance Matrix: (Units=1/GPa)
#
#
# Indices 1 2 3 4 5 6 
#
# 1 0.022731 -0.004248 -0.003945 0.000000 0.000000 0.000000
# 2 -0.004248 0.025327 -0.004550 0.000000 0.000000 0.000000
# 3 -0.003945 -0.004550 0.017436 0.000000 0.000000 0.000000
# 4 0.000000 0.000000 0.000000 0.039335 0.000000 0.000000
# 5 0.000000 0.000000 0.000000 0.000000 0.030942 0.000000
# 6 0.000000 0.000000 0.000000 0.000000 0.000000 -0.025763
#
#
# Mechanical properties :
#
#
# Convention : Reuss Voigt Hill
#
# Bulk Modulus (GPa) = 24.99389 25.80718 25.40054
# Shear Modulus (GPa) = 33.59531 11.65597 22.62564
#
# Velocity S-wave (km/s) = 4.06449 2.39409 3.33555
# Velocity P-wave (km/s) = 5.85809 4.50917 5.22733
#
# Compressibility (1/GPa) = 0.04000978
#
# Stress axis : x y z
#
# Youngs Moduli (GPa) = 43.99339 39.48288 57.35172
#
# Poissons Ratio (x) = 0.16772 0.22623
# Poissons Ratio (y) = 0.18688 0.26094
# Poissons Ratio (z) = 0.17354 0.17964
#
# Static dielectric constant tensor:
#      x y z
#    x 1.715790 0.000000 0.000000 
#    y 0.000000 1.724810 0.000000 
#    z 0.000000 0.000000 1.704240 
# 
# From -- ./inp_files/16546.got.cif
#   From: 2010.05.17/outbox.ucp.g08.bks.cvg/sg65_9_cif.got.tgz:16546.got - 2010.06.11 16:39:57.
