data_PCOD9494314
_publ_section_title
;
Structure prediction by ZEFSAII (Michael W. Deem and Ramdas Pophale) SiO2 
 PCOD9494314
Probable space group: C M M M
;
_chemical_formula_sum "Si O2"
_cell_formula_units_Z 72
_cell_length_a 29.741314
_cell_length_b 16.166626
_cell_length_c 7.353008
_cell_angle_alpha 90.000000
_cell_angle_beta 90.000000
_cell_angle_gamma 90.000000
_cell_volume 3535.449043
_symmetry_space_group_name_H-M "C M M M"
_symmetry_group_IT_number 65
_symmetry_cell_setting 'orthorhombic'
loop_
_space_group_symop_operation_xyz
x,y,z
-x,-y,z
x,-y,-z
-x,y,-z
-x,-y,-z
x,y,-z
-x,y,z
x,-y,z
1/2+x,1/2+y,z
1/2-x,1/2-y,z
1/2+x,1/2-y,-z
1/2-x,1/2+y,-z
1/2-x,1/2-y,-z
1/2+x,1/2+y,-z
1/2-x,1/2+y,z
1/2+x,1/2-y,z
loop_
_atom_site_type_symbol
_atom_site_label
_atom_site_fract_x
_atom_site_fract_y
_atom_site_fract_z
Si Si1 0.050754 0.317254 0.212234
Si Si2 0.359234 0.748325 0.223087
Si Si3 0.801242 0.907608 0.778726
Si Si4 0.948099 0.500000 0.283382
Si Si5 0.697005 0.907766 0.778838
O O1 0.089334 0.257843 0.285876
O O2 0.069766 0.411394 0.222838
O O3 0.000000 0.315488 0.290809
O O4 0.046286 0.298240 0.000000
O O5 0.333230 0.666275 0.281956
O O6 0.332368 0.830398 0.281121
O O7 0.359377 0.748296 0.000000
O O8 0.749151 0.895748 0.725467
O O9 0.815146 0.000000 0.722423
O O10 0.801439 0.906392 0.000000
O O11 0.947726 0.500000 0.500000
O O12 0.000000 0.500000 0.217678
O O13 0.682326 0.000000 0.720015
O O14 0.695961 0.908117 0.000000
#
# Coordination Sequence:
#
# PCOD9494314 Si02
#       5
#    16  16  16   8  16
#     4   9  17  27  39  57  81 107 134 162 192 231
#     4   9  15  21  33  50  72 104 134 159 193 237
#     4   8  13  21  31  45  69 102 134 163 198 237
#     4   9  17  29  43  57  77 107 137 163 195 233
#     4   8  13  19  28  45  70  99 129 159 193 236
#
# _framework density 20.365165000000001
#
# number of rings (size 3 to 8) (size 9 to 14) (size 15 to 20)
#    0.000    3.444    0.000    2.333    1.556    4.000 
#    0.000    0.000    0.000    0.667    0.000    4.667 
#    0.000    4.444    0.000    5.556    0.000    5.778 
#
# Total GULP energy -200775.003793 kJ/mol
# GULP energy per Si atom -5577.083439 kJ/mol
# Density = 2.031881 g / cm^3
# Si number density = 20.365165 Si / 1000 Ang^3
#
#
#
# Elastic Constant Matrix: (Units=GPa)
#
#
# Indices 1 2 3 4 5 6 
#
# 1 120.8526 103.5389 5.9359 0.0000 0.0000 0.0000
# 2 103.5389 146.4651 4.1437 0.0000 0.0000 0.0000
# 3 5.9359 4.1437 76.6734 0.0000 0.0000 0.0000
# 4 0.0000 0.0000 0.0000 -39.9206 0.0000 0.0000
# 5 0.0000 0.0000 0.0000 0.0000 -16.1419 0.0000
# 6 0.0000 0.0000 0.0000 0.0000 0.0000 33.3995
#
#
#
# Elastic Compliance Matrix: (Units=1/GPa)
#
#
# Indices 1 2 3 4 5 6 
#
# 1 0.021035 -0.014846 -0.000826 0.000000 0.000000 0.000000
# 2 -0.014846 0.017317 0.000214 0.000000 0.000000 0.000000
# 3 -0.000826 0.000214 0.013095 0.000000 0.000000 0.000000
# 4 0.000000 0.000000 0.000000 -0.025050 0.000000 0.000000
# 5 0.000000 0.000000 0.000000 0.000000 -0.061951 0.000000
# 6 0.000000 0.000000 0.000000 0.000000 0.000000 0.029941
#
#
# Mechanical properties :
#
#
# Convention : Reuss Voigt Hill
#
# Bulk Modulus (GPa) = 48.71367 63.46979 56.09173
# Shear Modulus (GPa) = 155.53698 10.82556 83.18127
#
# Velocity S-wave (km/s) = 8.74870 2.30809 6.39793
# Velocity P-wave (km/s) = 11.22609 6.19165 9.06536
#
# Compressibility (1/GPa) = 0.02052812
#
# Stress axis : x y z
#
# Youngs Moduli (GPa) = 47.54093 57.74787 76.36652
#
# Poissons Ratio (x) = 0.85734 0.06309
# Poissons Ratio (y) = 0.70581 -0.01630
# Poissons Ratio (z) = 0.03927 -0.01233
#
# Static dielectric constant tensor:
#      x y z
#    x 1.736900 0.000000 0.000000 
#    y 0.000000 1.702340 0.000000 
#    z 0.000000 0.000000 1.748930 
# 
# From -- ./inp_files/15965.got.cif
#   From: 2010.05.17/outbox.cif.g08.bks.cpg/sg65_8_cif.got.tgz:15965.got - 2010.06.03 17:01:31.
