data_PCOD9494808
_publ_section_title
;
Structure prediction by ZEFSAII (Michael W. Deem and Ramdas Pophale) SiO2 
 PCOD9494808
Probable space group: C M M M
;
_chemical_formula_sum "Si O2"
_cell_formula_units_Z 44
_cell_length_a 30.000000
_cell_length_b 18.000000
_cell_length_c 9.000000
_cell_angle_alpha 90.000000
_cell_angle_beta 90.000000
_cell_angle_gamma 90.000000
_cell_volume 4860.000000
_symmetry_space_group_name_H-M "C M M M"
_symmetry_group_IT_number 65
_symmetry_cell_setting 'orthorhombic'
loop_
_space_group_symop_operation_xyz
x,y,z
-x,-y,z
x,-y,-z
-x,y,-z
-x,-y,-z
x,y,-z
-x,y,z
x,-y,z
1/2+x,1/2+y,z
1/2-x,1/2-y,z
1/2+x,1/2-y,-z
1/2-x,1/2+y,-z
1/2-x,1/2-y,-z
1/2+x,1/2+y,-z
1/2-x,1/2+y,z
1/2+x,1/2-y,z
loop_
_atom_site_type_symbol
_atom_site_label
_atom_site_fract_x
_atom_site_fract_y
_atom_site_fract_z
Si Si1 0.000000 0.412648 0.833000
Si Si2 0.727107 0.409498 0.673261
Si Si3 0.674356 0.086427 0.318981
Si Si4 0.082356 0.337392 0.678784
Si Si5 0.551749 0.316715 0.179466
Si Si6 0.863758 0.913673 0.822051
O O1 0.955933 0.389810 0.744543
O O2 0.000000 0.500000 0.847535
O O3 0.000000 0.378475 0.000000
O O4 0.723799 0.389275 0.500000
O O5 0.727907 0.500000 0.682171
O O6 0.776361 0.386751 0.730384
O O7 0.682284 0.382602 0.753716
O O8 0.675813 0.086423 0.500000
O O9 0.631624 0.134838 0.274501
O O10 0.668097 0.000000 0.273742
O O11 0.080815 0.337198 0.500000
O O12 0.068672 0.258005 0.743435
O O13 0.500000 0.332649 0.220221
O O14 0.589527 0.376453 0.221168
O O15 0.552631 0.308861 0.000000
O O16 0.865811 0.000000 0.779529
O O17 0.860013 0.908707 0.000000
#
# Coordination Sequence:
#
# PCOD9494808 Si02
#       6
#     8  16  16  16  16  16
#     4  11  23  37  53  75 106 141 176 215 259 306
#     4   8  14  28  51  76 102 132 163 203 259 310
#     4   8  15  29  50  76 104 133 169 212 254 297
#     4  11  21  34  54  78 103 136 178 220 256 298
#     4  10  21  37  54  71 101 141 172 210 267 320
#     4   9  18  33  54  79 102 128 170 217 258 311
#
# _framework density 9.0534979999999994
#
# number of rings (size 3 to 8) (size 9 to 14) (size 15 to 20)
#    0.000    2.636    0.909    2.455    0.000    2.545 
#    0.000    4.545    0.000    9.818    0.000    3.818 
#    0.000    0.000    0.000    0.000    0.000    0.000 
#
# Total GULP energy -245084.719136 kJ/mol
# GULP energy per Si atom -5570.107253 kJ/mol
# Density = 0.903289 g / cm^3
# Si number density = 9.053498 Si / 1000 Ang^3
#
#
#
# Elastic Constant Matrix: (Units=GPa)
#
#
# Indices 1 2 3 4 5 6 
#
# 1 236.4226 63.9330 45.6900 0.0000 0.0000 0.0000
# 2 63.9330 39.5226 19.4470 0.0000 0.0000 0.0000
# 3 45.6900 19.4470 18.8854 0.0000 0.0000 0.0000
# 4 0.0000 0.0000 0.0000 9.6688 0.0000 0.0000
# 5 0.0000 0.0000 0.0000 0.0000 78.0628 0.0000
# 6 0.0000 0.0000 0.0000 0.0000 0.0000 52.1831
#
#
#
# Elastic Compliance Matrix: (Units=1/GPa)
#
#
# Indices 1 2 3 4 5 6 
#
# 1 0.008988 -0.007783 -0.013730 0.000000 0.000000 0.000000
# 2 -0.007783 0.058029 -0.040924 0.000000 0.000000 0.000000
# 3 -0.013730 -0.040924 0.128310 0.000000 0.000000 0.000000
# 4 0.000000 0.000000 0.000000 0.103425 0.000000 0.000000
# 5 0.000000 0.000000 0.000000 0.000000 0.012810 0.000000
# 6 0.000000 0.000000 0.000000 0.000000 0.000000 0.019163
#
#
# Mechanical properties :
#
#
# Convention : Reuss Voigt Hill
#
# Bulk Modulus (GPa) = 14.19417 61.44118 37.81767
# Shear Modulus (GPa) = 10.43658 39.03364 24.73511
#
# Velocity S-wave (km/s) = 2.40340 4.64801 3.70002
# Velocity P-wave (km/s) = 3.94435 7.92536 6.25976
#
# Compressibility (1/GPa) = 0.07045148
#
# Stress axis : x y z
#
# Youngs Moduli (GPa) = 111.26168 17.23272 7.79365
#
# Poissons Ratio (x) = 0.13413 0.10701
# Poissons Ratio (y) = 0.86598 0.31895
# Poissons Ratio (z) = 1.52760 0.70524
#
# Static dielectric constant tensor:
#      x y z
#    x 1.654020 0.000000 0.000000 
#    y 0.000000 1.660300 0.000000 
#    z 0.000000 0.000000 1.620700 
# 
# From -- ./inp_files/18323.got.cif
#   From: 2010.05.17/outbox.ucp.g08.bks.cvg/sg65_10_cif.got.tgz:18323.got - 2010.06.11 16:39:57.
