data_PCOD9494073
_publ_section_title
;
Structure prediction by ZEFSAII (Michael W. Deem and Ramdas Pophale) SiO2 
 PCOD9494073
Probable space group: C M M M
;
_chemical_formula_sum "Si O2"
_cell_formula_units_Z 68
_cell_length_a 7.684893
_cell_length_b 21.284567
_cell_length_c 19.790939
_cell_angle_alpha 90.000000
_cell_angle_beta 90.000000
_cell_angle_gamma 90.000000
_cell_volume 3237.196371
_symmetry_space_group_name_H-M "C M M M"
_symmetry_group_IT_number 65
_symmetry_cell_setting 'orthorhombic'
loop_
_space_group_symop_operation_xyz
x,y,z
-x,-y,z
x,-y,-z
-x,y,-z
-x,-y,-z
x,y,-z
-x,y,z
x,-y,z
1/2+x,1/2+y,z
1/2-x,1/2-y,z
1/2+x,1/2-y,-z
1/2-x,1/2+y,-z
1/2-x,1/2-y,-z
1/2+x,1/2+y,-z
1/2-x,1/2+y,z
1/2+x,1/2-y,z
loop_
_atom_site_type_symbol
_atom_site_label
_atom_site_fract_x
_atom_site_fract_y
_atom_site_fract_z
Si Si1 0.301787 0.318406 0.677215
Si Si2 0.708406 0.178111 0.075988
Si Si3 0.789754 0.569473 0.579290
Si Si4 0.500000 0.500000 0.236243
Si Si5 0.799784 0.397999 0.204987
O O1 0.500000 0.314576 0.698770
O O2 0.250000 0.250000 0.650895
O O3 0.280761 0.372819 0.621599
O O4 0.195394 0.340397 0.742262
O O5 0.500000 0.173404 0.073312
O O6 0.750000 0.250000 0.094665
O O7 0.762294 0.128734 0.132707
O O8 0.777453 0.166903 0.000000
O O9 0.746042 0.574667 0.500000
O O10 0.729528 0.500000 0.603107
O O11 0.000000 0.570272 0.584728
O O12 0.655821 0.445859 0.232211
O O13 0.000000 0.422242 0.199951
#
# Coordination Sequence:
#
# PCOD9494073 Si02
#       5
#    16  16  16   4  16
#     4  12  25  41  63  94 128 167 217 269 326 389
#     4   9  19  36  62  93 125 166 213 267 328 383
#     4   9  20  40  65  93 126 167 213 261 320 387
#     4  12  26  44  65  96 125 178 218 254 330 398
#     4  11  24  43  65  93 132 167 215 273 322 382
#
# _framework density 21.00583
#
# number of rings (size 3 to 8) (size 9 to 14) (size 15 to 20)
#    0.000    1.647    1.176    3.882    3.294    3.294 
#    0.000    2.353    0.000    2.824    0.000    0.000 
#    0.000    0.000    0.000    0.000    0.000    0.000 
#
# Total GULP energy -189409.713293 kJ/mol
# GULP energy per Si atom -5570.873920 kJ/mol
# Density = 2.095802 g / cm^3
# Si number density = 21.005830 Si / 1000 Ang^3
#
#
#
# Elastic Constant Matrix: (Units=GPa)
#
#
# Indices 1 2 3 4 5 6 
#
# 1 98.0844 28.1195 7.6382 0.0000 0.0000 0.0000
# 2 28.1195 139.1429 45.0977 0.0000 0.0000 0.0000
# 3 7.6382 45.0977 60.3280 0.0000 0.0000 0.0000
# 4 0.0000 0.0000 0.0000 -9.9210 0.0000 0.0000
# 5 0.0000 0.0000 0.0000 0.0000 23.3976 0.0000
# 6 0.0000 0.0000 0.0000 0.0000 0.0000 176.5207
#
#
#
# Elastic Compliance Matrix: (Units=1/GPa)
#
#
# Indices 1 2 3 4 5 6 
#
# 1 0.010828 -0.002302 0.000350 0.000000 0.000000 0.000000
# 2 -0.002302 0.009974 -0.007165 0.000000 0.000000 0.000000
# 3 0.000350 -0.007165 0.021888 0.000000 0.000000 0.000000
# 4 0.000000 0.000000 0.000000 -0.100796 0.000000 0.000000
# 5 0.000000 0.000000 0.000000 0.000000 0.042739 0.000000
# 6 0.000000 0.000000 0.000000 0.000000 0.000000 0.005665
#
#
# Mechanical properties :
#
#
# Convention : Reuss Voigt Hill
#
# Bulk Modulus (GPa) = 40.88903 51.02956 45.95929
# Shear Modulus (GPa) = 299.69565 52.44612 176.07088
#
# Velocity S-wave (km/s) = 11.95752 5.00216 9.16526
# Velocity P-wave (km/s) = 14.49658 7.59657 11.57279
#
# Compressibility (1/GPa) = 0.02445644
#
# Stress axis : x y z
#
# Youngs Moduli (GPa) = 92.35401 100.25945 45.68775
#
# Poissons Ratio (x) = 0.23075 -0.01597
# Poissons Ratio (y) = 0.21255 0.32734
# Poissons Ratio (z) = -0.03228 0.71833
#
# Static dielectric constant tensor:
#      x y z
#    x 1.772010 0.000000 0.000000 
#    y 0.000000 1.768320 0.000000 
#    z 0.000000 0.000000 1.772690 
# 
# From -- ./inp_files/58948.got.cif
#   From: 2010.05.17/outbox.cif.g08.bks.cpg/sg65_30_cif.got.tgz:58948.got - 2010.06.03 17:01:31.
