data_PCOD9494050
_publ_section_title
;
Structure prediction by ZEFSAII (Michael W. Deem and Ramdas Pophale) SiO2 
 PCOD9494050
Probable space group: C M M M
;
_chemical_formula_sum "Si O2"
_cell_formula_units_Z 56
_cell_length_a 8.536300
_cell_length_b 22.434681
_cell_length_c 13.953120
_cell_angle_alpha 90.000000
_cell_angle_beta 90.000000
_cell_angle_gamma 90.000000
_cell_volume 2672.150394
_symmetry_space_group_name_H-M "C M M M"
_symmetry_group_IT_number 65
_symmetry_cell_setting 'orthorhombic'
loop_
_space_group_symop_operation_xyz
x,y,z
-x,-y,z
x,-y,-z
-x,y,-z
-x,-y,-z
x,y,-z
-x,y,z
x,-y,z
1/2+x,1/2+y,z
1/2-x,1/2-y,z
1/2+x,1/2-y,-z
1/2-x,1/2+y,-z
1/2-x,1/2-y,-z
1/2+x,1/2+y,-z
1/2-x,1/2+y,z
1/2+x,1/2-y,z
loop_
_atom_site_type_symbol
_atom_site_label
_atom_site_fract_x
_atom_site_fract_y
_atom_site_fract_z
Si Si1 0.676940 0.811773 0.308570
Si Si2 0.500000 0.434071 0.115044
Si Si3 0.822645 0.364612 0.888160
Si Si4 0.313031 0.434971 0.385983
O O1 0.500000 0.812673 0.342189
O O2 0.750000 0.750000 0.342272
O O3 0.679503 0.813956 0.192384
O O4 0.750414 0.874078 0.341703
O O5 0.500000 0.500000 0.157246
O O6 0.333020 0.403057 0.135770
O O7 0.500000 0.438114 0.000000
O O8 0.000000 0.392576 0.879142
O O9 0.808897 0.346395 0.000000
O O10 0.282949 0.433053 0.500000
O O11 0.500000 0.434910 0.372253
O O12 0.252251 0.500000 0.350878
#
# Coordination Sequence:
#
# PCOD9494050 Si02
#       4
#    16   8  16  16
#     4  11  24  39  60  90 123 161 205 255 311 363
#     4   9  18  32  54  82 111 155 206 249 303 361
#     4   9  20  38  56  81 121 164 209 258 305 360
#     4   9  20  41  67  92 120 157 199 246 305 372
#
# _framework density 20.956903000000001
#
# number of rings (size 3 to 8) (size 9 to 14) (size 15 to 20)
#    0.000    2.429    0.000    1.714    4.000    4.000 
#    0.000    7.143    0.000    0.000    0.000    0.000 
#    0.000    0.000    0.000    0.000    0.000    0.000 
#
# Total GULP energy -155929.616914 kJ/mol
# GULP energy per Si atom -5568.914890 kJ/mol
# Density = 2.090920 g / cm^3
# Si number density = 20.956903 Si / 1000 Ang^3
#
#
#
# Elastic Constant Matrix: (Units=GPa)
#
#
# Indices 1 2 3 4 5 6 
#
# 1 106.1278 66.5672 37.7187 0.0000 0.0000 0.0000
# 2 66.5672 171.1885 54.5658 0.0000 0.0000 0.0000
# 3 37.7187 54.5658 48.9988 0.0000 0.0000 0.0000
# 4 0.0000 0.0000 0.0000 13.1019 0.0000 0.0000
# 5 0.0000 0.0000 0.0000 0.0000 12.6844 0.0000
# 6 0.0000 0.0000 0.0000 0.0000 0.0000 26.3484
#
#
#
# Elastic Compliance Matrix: (Units=1/GPa)
#
#
# Indices 1 2 3 4 5 6 
#
# 1 0.013961 -0.003106 -0.007289 0.000000 0.000000 0.000000
# 2 -0.003106 0.009747 -0.008464 0.000000 0.000000 0.000000
# 3 -0.007289 -0.008464 0.035445 0.000000 0.000000 0.000000
# 4 0.000000 0.000000 0.000000 0.076325 0.000000 0.000000
# 5 0.000000 0.000000 0.000000 0.000000 0.078837 0.000000
# 6 0.000000 0.000000 0.000000 0.000000 0.000000 0.037953
#
#
# Mechanical properties :
#
#
# Convention : Reuss Voigt Hill
#
# Bulk Modulus (GPa) = 46.64872 71.55762 59.10317
# Shear Modulus (GPa) = 16.82773 21.59116 19.20944
#
# Velocity S-wave (km/s) = 2.83674 3.21326 3.03085
# Velocity P-wave (km/s) = 5.74780 6.92719 6.36487
#
# Compressibility (1/GPa) = 0.02143681
#
# Stress axis : x y z
#
# Youngs Moduli (GPa) = 71.62842 102.59696 28.21307
#
# Poissons Ratio (x) = 0.31862 0.20563
# Poissons Ratio (y) = 0.22245 0.23879
# Poissons Ratio (z) = 0.52207 0.86835
#
# Static dielectric constant tensor:
#      x y z
#    x 1.772100 0.000000 0.000000 
#    y 0.000000 1.722130 0.000000 
#    z 0.000000 0.000000 1.789150 
# 
# From -- ./inp_files/35465.got.cif
#   From: 2010.05.17/outbox.cif.g08.bks.cpg/sg65_18_cif.got.tgz:35465.got - 2010.06.03 17:01:31.
