data_PCOD9494876
_publ_section_title
;
Structure prediction by ZEFSAII (Michael W. Deem and Ramdas Pophale) SiO2 
 PCOD9494876
Probable space group: C M M M
;
_chemical_formula_sum "Si O2"
_cell_formula_units_Z 32
_cell_length_a 21.000000
_cell_length_b 9.000000
_cell_length_c 18.000000
_cell_angle_alpha 90.000000
_cell_angle_beta 90.000000
_cell_angle_gamma 90.000000
_cell_volume 3402.000000
_symmetry_space_group_name_H-M "C M M M"
_symmetry_group_IT_number 65
_symmetry_cell_setting 'orthorhombic'
loop_
_space_group_symop_operation_xyz
x,y,z
-x,-y,z
x,-y,-z
-x,y,-z
-x,-y,-z
x,y,-z
-x,y,z
x,-y,z
1/2+x,1/2+y,z
1/2-x,1/2-y,z
1/2+x,1/2-y,-z
1/2-x,1/2+y,-z
1/2-x,1/2-y,-z
1/2+x,1/2+y,-z
1/2-x,1/2+y,z
1/2+x,1/2-y,z
loop_
_atom_site_type_symbol
_atom_site_label
_atom_site_fract_x
_atom_site_fract_y
_atom_site_fract_z
Si Si1 0.425717 0.822079 0.411430
Si Si2 0.500000 0.177145 0.912696
Si Si3 0.633472 0.820931 0.151963
Si Si4 0.318894 0.679591 0.694159
Si Si5 0.817848 0.821907 0.000000
O O1 0.416710 0.795921 0.500000
O O2 0.500000 0.785092 0.393863
O O3 0.374073 0.734885 0.362395
O O4 0.418149 0.000000 0.398655
O O5 0.559092 0.209122 0.859454
O O6 0.500000 0.000000 0.923895
O O7 0.500000 0.237720 0.000000
O O8 0.662975 0.744817 0.224425
O O9 0.655529 0.745551 0.075756
O O10 0.645394 0.000000 0.153007
O O11 0.315308 0.500000 0.695744
O O12 0.250000 0.750000 0.673836
O O13 0.750000 0.750000 0.000000
O O14 0.820476 0.000000 0.000000
#
# Coordination Sequence:
#
# PCOD9494876 Si02
#       5
#    16   8  16  16   8
#     4   9  20  42  71 100 130 167 209 252 307 377
#     4   9  18  36  62  90 115 152 203 248 306 375
#     4  11  22  40  63  88 120 161 207 257 309 372
#     4  12  26  43  63  93 130 169 213 263 317 374
#     4  12  24  39  58  83 115 158 204 256 313 371
#
# _framework density 9.4062319999999993
#
# number of rings (size 3 to 8) (size 9 to 14) (size 15 to 20)
#    0.000    1.375    1.250    5.625    1.750    1.500 
#    0.000    3.750    0.000    0.000    0.000    0.000 
#    0.000    0.000    0.000    0.000    0.000    0.000 
#
# Total GULP energy -178413.100398 kJ/mol
# GULP energy per Si atom -5575.409387 kJ/mol
# Density = 0.938482 g / cm^3
# Si number density = 9.406232 Si / 1000 Ang^3
#
#
#
# Elastic Constant Matrix: (Units=GPa)
#
#
# Indices 1 2 3 4 5 6 
#
# 1 161.2777 82.0601 73.2787 0.0000 0.0000 0.0000
# 2 82.0601 156.3563 72.5131 0.0000 0.0000 0.0000
# 3 73.2787 72.5131 114.1521 0.0000 0.0000 0.0000
# 4 0.0000 0.0000 0.0000 49.1161 0.0000 0.0000
# 5 0.0000 0.0000 0.0000 0.0000 66.0178 0.0000
# 6 0.0000 0.0000 0.0000 0.0000 0.0000 24.1865
#
#
#
# Elastic Compliance Matrix: (Units=1/GPa)
#
#
# Indices 1 2 3 4 5 6 
#
# 1 0.009727 -0.003132 -0.004255 0.000000 0.000000 0.000000
# 2 -0.003132 0.010075 -0.004390 0.000000 0.000000 0.000000
# 3 -0.004255 -0.004390 0.014280 0.000000 0.000000 0.000000
# 4 0.000000 0.000000 0.000000 0.020360 0.000000 0.000000
# 5 0.000000 0.000000 0.000000 0.000000 0.015147 0.000000
# 6 0.000000 0.000000 0.000000 0.000000 0.000000 0.041345
#
#
# Mechanical properties :
#
#
# Convention : Reuss Voigt Hill
#
# Bulk Modulus (GPa) = 94.96865 98.61000 96.78932
# Shear Modulus (GPa) = 36.23253 41.45968 38.84610
#
# Velocity S-wave (km/s) = 4.39337 4.69960 4.54906
# Velocity P-wave (km/s) = 8.73653 9.05425 8.89681
#
# Compressibility (1/GPa) = 0.01052979
#
# Stress axis : x y z
#
# Youngs Moduli (GPa) = 102.80370 99.25486 70.02813
#
# Poissons Ratio (x) = 0.31085 0.29796
# Poissons Ratio (y) = 0.32197 0.30739
# Poissons Ratio (z) = 0.43741 0.43568
#
# Static dielectric constant tensor:
#      x y z
#    x 1.798390 0.000000 0.000000 
#    y 0.000000 1.650650 0.000000 
#    z 0.000000 0.000000 1.598230 
# 
# From -- ./inp_files/55291.got.cif
#   From: 2010.05.17/outbox.ucp.g08.bks.cvg/sg65_28_cif.got.tgz:55291.got - 2010.06.11 16:39:57.
