data_PCOD9494415
_publ_section_title
;
Structure prediction by ZEFSAII (Michael W. Deem and Ramdas Pophale) SiO2 
 PCOD9494415
Probable space group: C M M M
;
_chemical_formula_sum "Si O2"
_cell_formula_units_Z 88
_cell_length_a 7.507031
_cell_length_b 20.153040
_cell_length_c 31.495686
_cell_angle_alpha 90.000000
_cell_angle_beta 90.000000
_cell_angle_gamma 90.000000
_cell_volume 4764.966462
_symmetry_space_group_name_H-M "C M M M"
_symmetry_group_IT_number 65
_symmetry_cell_setting 'orthorhombic'
loop_
_space_group_symop_operation_xyz
x,y,z
-x,-y,z
x,-y,-z
-x,y,-z
-x,-y,-z
x,y,-z
-x,y,z
x,-y,z
1/2+x,1/2+y,z
1/2-x,1/2-y,z
1/2+x,1/2-y,-z
1/2-x,1/2+y,-z
1/2-x,1/2-y,-z
1/2+x,1/2+y,-z
1/2-x,1/2+y,z
1/2+x,1/2-y,z
loop_
_atom_site_type_symbol
_atom_site_label
_atom_site_fract_x
_atom_site_fract_y
_atom_site_fract_z
Si Si1 0.286488 0.327030 0.782958
Si Si2 0.000000 0.418999 0.548619
Si Si3 0.286440 0.673029 0.878419
Si Si4 0.717411 0.576482 0.047771
Si Si5 0.282171 0.576433 0.291152
Si Si6 0.296486 0.580790 0.385565
O O1 0.500000 0.335111 0.784261
O O2 0.250000 0.250000 0.773383
O O3 0.218315 0.340893 0.830696
O O4 0.219957 0.375922 0.746418
O O5 0.170750 0.398106 0.576142
O O6 0.000000 0.500000 0.547820
O O7 0.000000 0.396464 0.500000
O O8 0.500000 0.664893 0.877006
O O9 0.250000 0.750000 0.887969
O O10 0.218682 0.624882 0.915229
O O11 0.500000 0.577836 0.047965
O O12 0.769468 0.500000 0.055055
O O13 0.773014 0.595735 0.000000
O O14 0.500000 0.576378 0.291635
O O15 0.226865 0.500000 0.284702
O O16 0.229579 0.599361 0.338465
O O17 0.500000 0.602910 0.391046
O O18 0.297839 0.500000 0.385049
#
# Coordination Sequence:
#
# PCOD9494415 Si02
#       6
#    16   8  16  16  16  16
#     4   9  17  29  43  61  87 114 140 178 221 263
#     4   9  16  24  36  58  88 120 152 184 222 274
#     4   9  17  28  43  62  84 112 142 173 218 267
#     4   8  14  25  41  62  86 109 139 183 225 257
#     4   8  14  26  44  62  81 111 146 179 217 260
#     4   8  14  25  39  56  82 115 148 185 228 269
#
# _framework density 18.468125000000001
#
# number of rings (size 3 to 8) (size 9 to 14) (size 15 to 20)
#    0.000    3.545    0.000    1.636    0.000    1.455 
#    1.636    5.455    0.000    0.545    0.000    6.364 
#    0.000    0.727    0.364    0.000    0.000    0.000 
#
# Total GULP energy -245144.474394 kJ/mol
# GULP energy per Si atom -5571.465327 kJ/mol
# Density = 1.842609 g / cm^3
# Si number density = 18.468125 Si / 1000 Ang^3
#
#
#
# Elastic Constant Matrix: (Units=GPa)
#
#
# Indices 1 2 3 4 5 6 
#
# 1 60.3896 15.5267 41.3998 0.0000 0.0000 0.0000
# 2 15.5267 62.1024 102.8772 0.0000 0.0000 0.0000
# 3 41.3998 102.8772 218.1255 0.0000 0.0000 0.0000
# 4 0.0000 0.0000 0.0000 -44.6568 0.0000 0.0000
# 5 0.0000 0.0000 0.0000 0.0000 -3.6651 0.0000
# 6 0.0000 0.0000 0.0000 0.0000 0.0000 13.0467
#
#
#
# Elastic Compliance Matrix: (Units=1/GPa)
#
#
# Indices 1 2 3 4 5 6 
#
# 1 0.019473 0.005734 -0.006400 0.000000 0.000000 0.000000
# 2 0.005734 0.075320 -0.036612 0.000000 0.000000 0.000000
# 3 -0.006400 -0.036612 0.023067 0.000000 0.000000 0.000000
# 4 0.000000 0.000000 0.000000 -0.022393 0.000000 0.000000
# 5 0.000000 0.000000 0.000000 0.000000 -0.272845 0.000000
# 6 0.000000 0.000000 0.000000 0.000000 0.000000 0.076648
#
#
# Mechanical properties :
#
#
# Convention : Reuss Voigt Hill
#
# Bulk Modulus (GPa) = 23.09338 73.35832 48.22585
# Shear Modulus (GPa) = -425.93956 4.99921 -210.47018
#
# Velocity S-wave (km/s) = -15.20315 1.64706 -10.68697
# Velocity P-wave (km/s) = 17.19445 6.58976 11.22997
#
# Compressibility (1/GPa) = 0.04330246
#
# Stress axis : x y z
#
# Youngs Moduli (GPa) = 51.35434 13.27670 43.35160
#
# Poissons Ratio (x) = -0.07613 0.27746
# Poissons Ratio (y) = -0.29447 1.58720
# Poissons Ratio (z) = 0.32868 0.48609
#
# Static dielectric constant tensor:
#      x y z
#    x 1.690830 0.000000 0.000000 
#    y 0.000000 1.591360 0.000000 
#    z 0.000000 0.000000 1.645630 
# 
# From -- ./inp_files/76536.got.cif
#   From: 2010.05.17/outbox.cif.g08.bks.cpg/sg65_39_cif.got.tgz:76536.got - 2010.06.03 17:01:31.
