data_PCOD9494576
_publ_section_title
;
Structure prediction by ZEFSAII (Michael W. Deem and Ramdas Pophale) SiO2 
 PCOD9494576
Probable space group: C M M M
;
_chemical_formula_sum "Si O2"
_cell_formula_units_Z 40
_cell_length_a 9.000000
_cell_length_b 18.000000
_cell_length_c 27.000000
_cell_angle_alpha 90.000000
_cell_angle_beta 90.000000
_cell_angle_gamma 90.000000
_cell_volume 4374.000000
_symmetry_space_group_name_H-M "C M M M"
_symmetry_group_IT_number 65
_symmetry_cell_setting 'orthorhombic'
loop_
_space_group_symop_operation_xyz
x,y,z
-x,-y,z
x,-y,-z
-x,y,-z
-x,-y,-z
x,y,-z
-x,y,z
x,-y,z
1/2+x,1/2+y,z
1/2-x,1/2-y,z
1/2+x,1/2-y,-z
1/2-x,1/2+y,-z
1/2-x,1/2-y,-z
1/2+x,1/2+y,-z
1/2-x,1/2+y,z
1/2+x,1/2-y,z
loop_
_atom_site_type_symbol
_atom_site_label
_atom_site_fract_x
_atom_site_fract_y
_atom_site_fract_z
Si Si1 0.680417 0.832232 0.601475
Si Si2 0.820060 0.166524 0.297622
Si Si3 0.824009 0.412143 0.092662
Si Si4 0.321203 0.831816 0.803120
Si Si5 0.176976 0.831055 0.000000
Si Si6 0.680042 0.915887 0.500000
O O1 0.500000 0.828797 0.606440
O O2 0.750000 0.750000 0.596848
O O3 0.753061 0.866363 0.651447
O O4 0.720601 0.875020 0.551021
O O5 0.750000 0.250000 0.297279
O O6 0.756531 0.134354 0.246055
O O7 0.000000 0.168512 0.298303
O O8 0.795665 0.500000 0.093146
O O9 0.793772 0.377722 0.146793
O O10 0.732297 0.373584 0.049101
O O11 0.000000 0.400520 0.082609
O O12 0.500000 0.825981 0.795384
O O13 0.250000 0.750000 0.810075
O O14 0.250000 0.750000 0.000000
O O15 0.000000 0.825147 0.000000
O O16 0.500000 0.917647 0.500000
O O17 0.735841 0.000000 0.500000
#
# Coordination Sequence:
#
# PCOD9494576 Si02
#       6
#    16  16  16  16   8   8
#     4  10  18  31  53  77 102 131 169 216 260 309
#     4  10  18  30  50  76 106 136 171 216 263 310
#     4  10  22  40  60  83 114 149 183 223 271 322
#     4  10  19  33  55  81 108 140 179 220 264 313
#     4  12  25  40  61  87 113 145 185 228 273 322
#     4   9  19  34  51  73 100 133 172 212 256 307
#
# _framework density 9.1449470000000002
#
# number of rings (size 3 to 8) (size 9 to 14) (size 15 to 20)
#    0.000    1.900    0.000    7.500    0.000    4.800 
#    0.000    2.500    0.000   10.800    0.000    0.000 
#    0.000    0.000    0.000    0.000    0.000    0.000 
#
# Total GULP energy -223224.711562 kJ/mol
# GULP energy per Si atom -5580.617789 kJ/mol
# Density = 0.912413 g / cm^3
# Si number density = 9.144947 Si / 1000 Ang^3
#
#
#
# Elastic Constant Matrix: (Units=GPa)
#
#
# Indices 1 2 3 4 5 6 
#
# 1 137.6578 49.9178 96.7528 0.0000 0.0000 0.0000
# 2 49.9178 77.5677 75.5978 0.0000 0.0000 0.0000
# 3 96.7528 75.5978 211.2765 0.0000 0.0000 0.0000
# 4 0.0000 0.0000 0.0000 -2.8712 0.0000 0.0000
# 5 0.0000 0.0000 0.0000 0.0000 33.8677 0.0000
# 6 0.0000 0.0000 0.0000 0.0000 0.0000 19.2945
#
#
#
# Elastic Compliance Matrix: (Units=1/GPa)
#
#
# Indices 1 2 3 4 5 6 
#
# 1 0.011272 -0.003413 -0.003940 0.000000 0.000000 0.000000
# 2 -0.003413 0.020829 -0.005890 0.000000 0.000000 0.000000
# 3 -0.003940 -0.005890 0.008645 0.000000 0.000000 0.000000
# 4 0.000000 0.000000 0.000000 -0.348292 0.000000 0.000000
# 5 0.000000 0.000000 0.000000 0.000000 0.029527 0.000000
# 6 0.000000 0.000000 0.000000 0.000000 0.000000 0.051828
#
#
# Mechanical properties :
#
#
# Convention : Reuss Voigt Hill
#
# Bulk Modulus (GPa) = 70.13394 96.78210 83.45802
# Shear Modulus (GPa) = -25.64737 23.67378 -0.98680
#
# Velocity S-wave (km/s) = -3.74875 3.60163 -0.73532
# Velocity P-wave (km/s) = 4.43751 8.38607 6.70886
#
# Compressibility (1/GPa) = 0.01425843
#
# Stress axis : x y z
#
# Youngs Moduli (GPa) = 88.71761 48.01064 115.67317
#
# Poissons Ratio (x) = 0.16388 0.45580
# Poissons Ratio (y) = 0.30283 0.68128
# Poissons Ratio (z) = 0.34959 0.28277
#
# Static dielectric constant tensor:
#      x y z
#    x 1.613730 0.000000 0.000000 
#    y 0.000000 1.618380 0.000000 
#    z 0.000000 0.000000 1.669310 
# 
# From -- ./inp_files/72961.got.cif
#   From: 2010.05.17/outbox.ucp.g08.bks.cvg/sg65_37_cif.got.tgz:72961.got - 2010.06.11 16:39:57.
