data_PCOD9494935
_publ_section_title
;
Structure prediction by ZEFSAII (Michael W. Deem and Ramdas Pophale) SiO2 
 PCOD9494935
Probable space group: C C C M
;
_chemical_formula_sum "Si O2"
_cell_formula_units_Z 80
_cell_length_a 8.511671
_cell_length_b 18.907838
_cell_length_c 27.186427
_cell_angle_alpha 90.000000
_cell_angle_beta 90.000000
_cell_angle_gamma 90.000000
_cell_volume 4375.310060
_symmetry_space_group_name_H-M "C C C M"
_symmetry_group_IT_number 66
_symmetry_cell_setting 'orthorhombic'
loop_
_space_group_symop_operation_xyz
x,y,z
-x,-y,z
x,-y,1/2-z
-x,y,1/2-z
-x,-y,-z
x,y,-z
-x,y,1/2+z
x,-y,1/2+z
1/2+x,1/2+y,z
1/2-x,1/2-y,z
1/2+x,1/2-y,1/2-z
1/2-x,1/2+y,1/2-z
1/2-x,1/2-y,-z
1/2+x,1/2+y,-z
1/2-x,1/2+y,1/2+z
1/2+x,1/2-y,1/2+z
loop_
_atom_site_type_symbol
_atom_site_label
_atom_site_fract_x
_atom_site_fract_y
_atom_site_fract_z
Si Si1 0.522034 0.804720 0.645906
Si Si2 0.316998 0.829919 0.556261
Si Si3 0.855766 0.143005 0.847676
Si Si4 0.500534 0.584407 0.555688
Si Si5 0.250000 0.750000 0.288573
Si Si6 0.000000 0.856013 0.250000
O O1 0.459650 0.833448 0.594064
O O2 0.670505 0.850225 0.663317
O O3 0.579815 0.723162 0.644467
O O4 0.368212 0.798079 0.679710
O O5 0.366621 0.841168 0.500000
O O6 0.250000 0.750000 0.560719
O O7 0.171785 0.882509 0.566749
O O8 0.887128 0.106965 0.899946
O O9 0.954585 0.109067 0.802214
O O10 0.500000 0.500000 0.554310
O O11 0.542110 0.609943 0.500000
O O12 0.145913 0.803402 0.257771
#
# Coordination Sequence:
#
# PCOD9494935 Si02
#       6
#    16  16  16  16   8   8
#     4  10  18  30  51  80 110 139 177 227 270 320
#     4  10  17  30  52  78 106 141 183 227 272 320
#     4  10  20  32  51  80 109 140 179 223 272 317
#     4  10  21  38  57  77 107 145 181 219 271 332
#     4  10  16  28  45  74 111 142 170 218 272 322
#     4  10  18  30  49  76 108 142 179 218 268 320
#
# _framework density 18.284419
#
# number of rings (size 3 to 8) (size 9 to 14) (size 15 to 20)
#    0.000    2.000    3.000    3.600    0.000    0.800 
#    0.000    3.500    0.000    3.600    0.000    2.800 
#    0.000    0.000    0.000    0.000    0.000    0.000 
#
# Total GULP energy -222831.878020 kJ/mol
# GULP energy per Si atom -5570.796951 kJ/mol
# Density = 1.824280 g / cm^3
# Si number density = 18.284419 Si / 1000 Ang^3
#
#
#
# Elastic Constant Matrix: (Units=GPa)
#
#
# Indices 1 2 3 4 5 6 
#
# 1 100.5090 14.4625 51.7492 0.0000 0.0000 0.0000
# 2 14.4625 38.2384 11.0715 0.0000 0.0000 0.0000
# 3 51.7492 11.0715 110.0888 0.0000 0.0000 0.0000
# 4 0.0000 0.0000 0.0000 7.4239 0.0000 0.0000
# 5 0.0000 0.0000 0.0000 0.0000 23.1712 0.0000
# 6 0.0000 0.0000 0.0000 0.0000 0.0000 15.3508
#
#
#
# Elastic Compliance Matrix: (Units=1/GPa)
#
#
# Indices 1 2 3 4 5 6 
#
# 1 0.013536 -0.003376 -0.006024 0.000000 0.000000 0.000000
# 2 -0.003376 0.027778 -0.001207 0.000000 0.000000 0.000000
# 3 -0.006024 -0.001207 0.012036 0.000000 0.000000 0.000000
# 4 0.000000 0.000000 0.000000 0.134701 0.000000 0.000000
# 5 0.000000 0.000000 0.000000 0.000000 0.043157 0.000000
# 6 0.000000 0.000000 0.000000 0.000000 0.000000 0.065143
#
#
# Mechanical properties :
#
#
# Convention : Reuss Voigt Hill
#
# Bulk Modulus (GPa) = 31.11515 44.82252 37.96884
# Shear Modulus (GPa) = 15.23105 20.62603 17.92854
#
# Velocity S-wave (km/s) = 2.88932 3.36231 3.13475
# Velocity P-wave (km/s) = 5.30897 6.29609 5.82348
#
# Compressibility (1/GPa) = 0.03213868
#
# Stress axis : x y z
#
# Youngs Moduli (GPa) = 73.87457 35.99983 83.08113
#
# Poissons Ratio (x) = 0.12152 0.50044
# Poissons Ratio (y) = 0.24938 0.10026
# Poissons Ratio (z) = 0.44499 0.04344
#
# Static dielectric constant tensor:
#      x y z
#    x 1.664780 0.000000 0.000000 
#    y 0.000000 1.592740 0.000000 
#    z 0.000000 0.000000 1.723760 
# 
# From -- ./inp_files/68157.got.cif
#   From: 2010.05.17/outbox.cif.g08.bks.cpg/sg66_35_cif.got.tgz:68157.got - 2010.06.03 17:51:23.
