data_PCOD9494120
_publ_section_title
;
Structure prediction by ZEFSAII (Michael W. Deem and Ramdas Pophale) SiO2 
 PCOD9494120
Probable space group: C M M M
;
_chemical_formula_sum "Si O2"
_cell_formula_units_Z 64
_cell_length_a 9.628245
_cell_length_b 13.574758
_cell_length_c 24.192246
_cell_angle_alpha 90.000000
_cell_angle_beta 90.000000
_cell_angle_gamma 90.000000
_cell_volume 3161.953063
_symmetry_space_group_name_H-M "C M M M"
_symmetry_group_IT_number 65
_symmetry_cell_setting 'orthorhombic'
loop_
_space_group_symop_operation_xyz
x,y,z
-x,-y,z
x,-y,-z
-x,y,-z
-x,-y,-z
x,y,-z
-x,y,z
x,-y,z
1/2+x,1/2+y,z
1/2-x,1/2-y,z
1/2+x,1/2-y,-z
1/2-x,1/2+y,-z
1/2-x,1/2-y,-z
1/2+x,1/2+y,-z
1/2-x,1/2+y,z
1/2+x,1/2-y,z
loop_
_atom_site_type_symbol
_atom_site_label
_atom_site_fract_x
_atom_site_fract_y
_atom_site_fract_z
Si Si1 0.663983 0.108958 0.284951
Si Si2 0.158463 0.880678 0.938744
Si Si3 0.500000 0.381131 0.566377
Si Si4 0.250000 0.250000 0.618558
Si Si5 0.342312 0.880263 0.834527
O O1 0.500000 0.101245 0.274246
O O2 0.679785 0.174759 0.338535
O O3 0.721119 0.144507 0.225718
O O4 0.721337 0.000000 0.296358
O O5 0.251798 0.852507 0.887087
O O6 0.000000 0.845168 0.933640
O O7 0.152929 0.000000 0.937651
O O8 0.212083 0.854798 0.000000
O O9 0.500000 0.500000 0.583669
O O10 0.500000 0.382503 0.500000
O O11 0.364780 0.316579 0.586203
O O12 0.500000 0.842917 0.840009
O O13 0.348767 0.000000 0.833945
#
# Coordination Sequence:
#
# PCOD9494120 Si02
#       5
#    16  16   8   8  16
#     4   9  18  34  56  83 117 156 203 256 313 379
#     4   8  13  21  33  54  90 135 182 235 298 368
#     4  11  26  46  69 103 141 175 221 272 314 374
#     4  12  21  42  68  94 129 176 214 262 324 374
#     4   8  14  25  41  63  94 134 183 242 299 358
#
# _framework density 20.240655
#
# number of rings (size 3 to 8) (size 9 to 14) (size 15 to 20)
#    0.000    2.875    1.250    3.375    0.000    0.500 
#    2.250    2.500    0.000    3.000    0.000    0.875 
#    0.000    0.000    0.000    0.000    0.000    0.750 
#
# Total GULP energy -178165.353434 kJ/mol
# GULP energy per Si atom -5567.667295 kJ/mol
# Density = 2.019459 g / cm^3
# Si number density = 20.240655 Si / 1000 Ang^3
#
#
#
# Elastic Constant Matrix: (Units=GPa)
#
#
# Indices 1 2 3 4 5 6 
#
# 1 63.1570 33.9983 58.0153 0.0000 0.0000 0.0000
# 2 33.9983 135.3544 52.7816 0.0000 0.0000 0.0000
# 3 58.0153 52.7816 163.1184 0.0000 0.0000 0.0000
# 4 0.0000 0.0000 0.0000 230.4370 0.0000 0.0000
# 5 0.0000 0.0000 0.0000 0.0000 36.2299 0.0000
# 6 0.0000 0.0000 0.0000 0.0000 0.0000 10.2089
#
#
#
# Elastic Compliance Matrix: (Units=1/GPa)
#
#
# Indices 1 2 3 4 5 6 
#
# 1 0.024653 -0.003174 -0.007741 0.000000 0.000000 0.000000
# 2 -0.003174 0.008863 -0.001739 0.000000 0.000000 0.000000
# 3 -0.007741 -0.001739 0.009447 0.000000 0.000000 0.000000
# 4 0.000000 0.000000 0.000000 0.004340 0.000000 0.000000
# 5 0.000000 0.000000 0.000000 0.000000 0.027602 0.000000
# 6 0.000000 0.000000 0.000000 0.000000 0.000000 0.097954
#
#
# Mechanical properties :
#
#
# Convention : Reuss Voigt Hill
#
# Bulk Modulus (GPa) = 56.64218 72.35780 64.49999
# Shear Modulus (GPa) = 24.50368 69.83080 47.16724
#
# Velocity S-wave (km/s) = 3.48317 5.88006 4.83258
# Velocity P-wave (km/s) = 6.64994 9.05133 7.94192
#
# Compressibility (1/GPa) = 0.01765469
#
# Stress axis : x y z
#
# Youngs Moduli (GPa) = 40.56307 112.82368 105.85831
#
# Poissons Ratio (x) = 0.35806 0.81948
# Poissons Ratio (y) = 0.12873 0.18412
# Poissons Ratio (z) = 0.31401 0.19623
#
# Static dielectric constant tensor:
#      x y z
#    x 1.716190 0.000000 0.000000 
#    y 0.000000 1.950230 0.000000 
#    z 0.000000 0.000000 1.711790 
# 
# From -- ./inp_files/66807.got.cif
#   From: 2010.05.17/outbox.cif.g08.bks.cpg/sg65_34_cif.got.tgz:66807.got - 2010.06.03 17:01:31.
