data_PCOD9494797
_publ_section_title
;
Structure prediction by ZEFSAII (Michael W. Deem and Ramdas Pophale) SiO2 
 PCOD9494797
Probable space group: C M M M
;
_chemical_formula_sum "Si O2"
_cell_formula_units_Z 60
_cell_length_a 9.000000
_cell_length_b 27.000000
_cell_length_c 27.000000
_cell_angle_alpha 90.000000
_cell_angle_beta 90.000000
_cell_angle_gamma 90.000000
_cell_volume 6561.000000
_symmetry_space_group_name_H-M "C M M M"
_symmetry_group_IT_number 65
_symmetry_cell_setting 'orthorhombic'
loop_
_space_group_symop_operation_xyz
x,y,z
-x,-y,z
x,-y,-z
-x,y,-z
-x,-y,-z
x,y,-z
-x,y,z
x,-y,z
1/2+x,1/2+y,z
1/2-x,1/2-y,z
1/2+x,1/2-y,-z
1/2-x,1/2+y,-z
1/2-x,1/2-y,-z
1/2+x,1/2+y,-z
1/2-x,1/2+y,z
1/2+x,1/2-y,z
loop_
_atom_site_type_symbol
_atom_site_label
_atom_site_fract_x
_atom_site_fract_y
_atom_site_fract_z
Si Si1 0.324379 0.696615 0.240183
Si Si2 0.829031 0.440650 0.096051
Si Si3 0.500000 0.442694 0.940851
Si Si4 0.177295 0.803757 0.649047
Si Si5 0.169440 0.606922 0.203003
Si Si6 0.667915 0.440601 0.706733
Si Si7 0.675568 0.147453 0.445907
Si Si8 0.674313 0.558566 0.592440
O O1 0.500000 0.702707 0.237857
O O2 0.250000 0.750000 0.234002
O O3 0.286374 0.676358 0.295757
O O4 0.267894 0.656291 0.201538
O O5 0.830117 0.500000 0.089282
O O6 0.666533 0.422918 0.074639
O O7 0.820772 0.425515 0.153644
O O8 0.000000 0.424225 0.079287
O O9 0.500000 0.500000 0.922698
O O10 0.500000 0.442246 0.000000
O O11 0.250000 0.750000 0.649253
O O12 0.240991 0.829535 0.600645
O O13 0.000000 0.801610 0.645343
O O14 0.224260 0.576572 0.250418
O O15 0.000000 0.622487 0.210113
O O16 0.500000 0.421539 0.716436
O O17 0.661096 0.500000 0.707839
O O18 0.706845 0.428355 0.650001
O O19 0.721229 0.167074 0.500000
O O20 0.500000 0.154416 0.440619
O O21 0.720109 0.090015 0.442174
O O22 0.500000 0.570645 0.583767
O O23 0.691286 0.500000 0.586385
#
# Coordination Sequence:
#
# PCOD9494797 Si02
#       8
#    16  16   8  16  16  16  16  16
#     4  10  21  36  54  76 101 132 167 205 247 302
#     4   9  19  33  48  74 112 149 188 233 273 317
#     4   9  18  32  52  76 104 148 198 236 277 321
#     4  10  21  38  59  79  99 125 159 197 245 302
#     4  11  21  31  47  73 106 142 173 210 255 308
#     4   9  18  31  48  71  98 130 167 203 243 295
#     4  11  24  38  52  73  98 123 155 198 248 302
#     4   9  19  36  54  72  95 124 162 204 244 294
#
# _framework density 9.1449470000000002
#
# number of rings (size 3 to 8) (size 9 to 14) (size 15 to 20)
#    0.000    2.200    0.000    3.600    1.867    8.267 
#    0.000    4.000    0.000    0.000    0.000    0.000 
#    0.000    0.533    0.267    0.000    0.000    0.000 
#
# Total GULP energy -334302.098102 kJ/mol
# GULP energy per Si atom -5571.701635 kJ/mol
# Density = 0.912413 g / cm^3
# Si number density = 9.144947 Si / 1000 Ang^3
#
#
#
# Elastic Constant Matrix: (Units=GPa)
#
#
# Indices 1 2 3 4 5 6 
#
# 1 85.7784 5.0264 32.9480 0.0000 0.0000 0.0000
# 2 5.0264 21.8980 2.2451 0.0000 0.0000 0.0000
# 3 32.9480 2.2451 31.7743 0.0000 0.0000 0.0000
# 4 0.0000 0.0000 0.0000 7.2884 0.0000 0.0000
# 5 0.0000 0.0000 0.0000 0.0000 37.8176 0.0000
# 6 0.0000 0.0000 0.0000 0.0000 0.0000 28.4219
#
#
#
# Elastic Compliance Matrix: (Units=1/GPa)
#
#
# Indices 1 2 3 4 5 6 
#
# 1 0.019501 -0.002421 -0.020051 0.000000 0.000000 0.000000
# 2 -0.002421 0.046300 -0.000761 0.000000 0.000000 0.000000
# 3 -0.020051 -0.000761 0.052317 0.000000 0.000000 0.000000
# 4 0.000000 0.000000 0.000000 0.137203 0.000000 0.000000
# 5 0.000000 0.000000 0.000000 0.000000 0.026443 0.000000
# 6 0.000000 0.000000 0.000000 0.000000 0.000000 0.035184
#
#
# Mechanical properties :
#
#
# Convention : Reuss Voigt Hill
#
# Bulk Modulus (GPa) = 13.95615 24.43220 19.19417
# Shear Modulus (GPa) = 12.90994 21.32102 17.11548
#
# Velocity S-wave (km/s) = 2.65967 3.41798 3.06239
# Velocity P-wave (km/s) = 4.13266 5.38183 4.79807
#
# Compressibility (1/GPa) = 0.07165301
#
# Stress axis : x y z
#
# Youngs Moduli (GPa) = 51.27834 21.59834 19.11417
#
# Poissons Ratio (x) = 0.05228 0.38325
# Poissons Ratio (y) = 0.12413 0.01455
# Poissons Ratio (z) = 1.02817 0.01644
#
# Static dielectric constant tensor:
#      x y z
#    x 1.673980 0.000000 0.000000 
#    y 0.000000 1.656680 0.000000 
#    z 0.000000 0.000000 1.623460 
# 
# From -- ./inp_files/73922.got.cif
#   From: 2010.05.17/outbox.ucp.g08.bks.cvg/sg65_37_cif.got.tgz:73922.got - 2010.06.11 16:39:57.
