data_PCOD9494826
_publ_section_title
;
Structure prediction by ZEFSAII (Michael W. Deem and Ramdas Pophale) SiO2 
 PCOD9494826
Probable space group: C M M M
;
_chemical_formula_sum "Si O2"
_cell_formula_units_Z 48
_cell_length_a 27.000000
_cell_length_b 21.000000
_cell_length_c 9.000000
_cell_angle_alpha 90.000000
_cell_angle_beta 90.000000
_cell_angle_gamma 90.000000
_cell_volume 5103.000000
_symmetry_space_group_name_H-M "C M M M"
_symmetry_group_IT_number 65
_symmetry_cell_setting 'orthorhombic'
loop_
_space_group_symop_operation_xyz
x,y,z
-x,-y,z
x,-y,-z
-x,y,-z
-x,-y,-z
x,y,-z
-x,y,z
x,-y,z
1/2+x,1/2+y,z
1/2-x,1/2-y,z
1/2+x,1/2-y,-z
1/2-x,1/2+y,-z
1/2-x,1/2-y,-z
1/2+x,1/2+y,-z
1/2-x,1/2+y,z
1/2+x,1/2-y,z
loop_
_atom_site_type_symbol
_atom_site_label
_atom_site_fract_x
_atom_site_fract_y
_atom_site_fract_z
Si Si1 0.202330 0.072833 0.676059
Si Si2 0.943638 0.802427 0.675887
Si Si3 0.885335 0.688536 0.823755
Si Si4 0.405694 0.427851 0.177861
Si Si5 0.230651 0.679681 0.822457
Si Si6 0.059270 0.572075 0.675682
O O1 0.194108 0.081244 0.500000
O O2 0.150203 0.079215 0.761144
O O3 0.240033 0.124949 0.737025
O O4 0.220089 0.000000 0.700058
O O5 0.935367 0.807403 0.500000
O O6 0.906437 0.751376 0.745238
O O7 0.936547 0.871345 0.749238
O O8 0.000000 0.779928 0.700860
O O9 0.827593 0.678434 0.790897
O O10 0.914669 0.626995 0.767150
O O11 0.891129 0.696363 0.000000
O O12 0.422363 0.500000 0.215450
O O13 0.406071 0.421600 0.000000
O O14 0.250000 0.750000 0.783117
O O15 0.238214 0.671062 0.000000
O O16 0.069817 0.580414 0.500000
O O17 0.074340 0.500000 0.717808
O O18 0.000000 0.576364 0.693317
#
# Coordination Sequence:
#
# PCOD9494826 Si02
#       6
#    16  16  16  16  16  16
#     4  10  21  37  59  87 116 148 188 231 277 333
#     4  11  24  40  59  84 115 151 190 234 283 335
#     4  11  23  37  57  85 114 146 188 238 287 337
#     4  10  21  38  61  87 116 151 188 229 280 335
#     4  10  22  39  57  79 110 148 189 232 279 332
#     4   9  19  37  59  81 109 148 189 227 274 336
#
# _framework density 9.4062319999999993
#
# number of rings (size 3 to 8) (size 9 to 14) (size 15 to 20)
#    0.000    1.833    0.000    4.000    0.000   10.000 
#    0.000    5.833    0.000    0.000    0.000    0.000 
#    0.000    0.000    0.000    0.000    0.000    0.000 
#
# Total GULP energy -268228.075318 kJ/mol
# GULP energy per Si atom -5588.084902 kJ/mol
# Density = 0.938482 g / cm^3
# Si number density = 9.406232 Si / 1000 Ang^3
#
#
#
# Elastic Constant Matrix: (Units=GPa)
#
#
# Indices 1 2 3 4 5 6 
#
# 1 30.5546 17.9446 20.6349 0.0000 0.0000 0.0000
# 2 17.9446 60.9710 10.6836 0.0000 0.0000 0.0000
# 3 20.6349 10.6836 24.2995 0.0000 0.0000 0.0000
# 4 0.0000 0.0000 0.0000 38.7266 0.0000 0.0000
# 5 0.0000 0.0000 0.0000 0.0000 32.8228 0.0000
# 6 0.0000 0.0000 0.0000 0.0000 0.0000 33.8780
#
#
#
# Elastic Compliance Matrix: (Units=1/GPa)
#
#
# Indices 1 2 3 4 5 6 
#
# 1 0.085964 -0.013553 -0.067041 0.000000 0.000000 0.000000
# 2 -0.013553 0.019907 0.002757 0.000000 0.000000 0.000000
# 3 -0.067041 0.002757 0.096871 0.000000 0.000000 0.000000
# 4 0.000000 0.000000 0.000000 0.025822 0.000000 0.000000
# 5 0.000000 0.000000 0.000000 0.000000 0.030467 0.000000
# 6 0.000000 0.000000 0.000000 0.000000 0.000000 0.029518
#
#
# Mechanical properties :
#
#
# Convention : Reuss Voigt Hill
#
# Bulk Modulus (GPa) = 21.24586 23.81680 22.53133
# Shear Modulus (GPa) = 10.87167 25.52295 18.19731
#
# Velocity S-wave (km/s) = 2.40656 3.68734 3.11352
# Velocity P-wave (km/s) = 4.36349 5.55124 4.99281
#
# Compressibility (1/GPa) = 0.04706799
#
# Stress axis : x y z
#
# Youngs Moduli (GPa) = 11.63283 50.23336 10.32300
#
# Poissons Ratio (x) = 0.68082 0.69206
# Poissons Ratio (y) = 0.15766 -0.02846
# Poissons Ratio (z) = 0.77987 -0.13849
#
# Static dielectric constant tensor:
#      x y z
#    x 1.632190 0.000000 0.000000 
#    y 0.000000 1.630830 0.000000 
#    z 0.000000 0.000000 1.628670 
# 
# From -- ./inp_files/12305.got.cif
#   From: 2010.05.17/outbox.ucp.g08.bks.cvg/sg65_7_cif.got.tgz:12305.got - 2010.06.11 16:39:57.
