data_PCOD9494105
_publ_section_title
;
Structure prediction by ZEFSAII (Michael W. Deem and Ramdas Pophale) SiO2 
 PCOD9494105
Probable space group: C M M M
;
_chemical_formula_sum "Si O2"
_cell_formula_units_Z 72
_cell_length_a 9.264214
_cell_length_b 14.869679
_cell_length_c 24.074961
_cell_angle_alpha 90.000000
_cell_angle_beta 90.000000
_cell_angle_gamma 90.000000
_cell_volume 3316.467640
_symmetry_space_group_name_H-M "C M M M"
_symmetry_group_IT_number 65
_symmetry_cell_setting 'orthorhombic'
loop_
_space_group_symop_operation_xyz
x,y,z
-x,-y,z
x,-y,-z
-x,y,-z
-x,-y,-z
x,y,-z
-x,y,z
x,-y,z
1/2+x,1/2+y,z
1/2-x,1/2-y,z
1/2+x,1/2-y,-z
1/2-x,1/2+y,-z
1/2-x,1/2-y,-z
1/2+x,1/2+y,-z
1/2-x,1/2+y,z
1/2+x,1/2-y,z
loop_
_atom_site_type_symbol
_atom_site_label
_atom_site_fract_x
_atom_site_fract_y
_atom_site_fract_z
Si Si1 0.336435 0.607953 0.562079
Si Si2 0.171004 0.106856 0.934481
Si Si3 0.169822 0.658113 0.328526
Si Si4 0.250000 0.250000 0.854003
Si Si5 0.342369 0.598166 0.770170
O O1 0.294750 0.638917 0.500000
O O2 0.500000 0.641221 0.573862
O O3 0.343733 0.500000 0.560177
O O4 0.228993 0.631067 0.611230
O O5 0.278558 0.169360 0.898654
O O6 0.000000 0.126275 0.920006
O O7 0.193263 0.000000 0.926989
O O8 0.186682 0.125622 0.000000
O O9 0.250000 0.750000 0.315482
O O10 0.222477 0.598388 0.277254
O O11 0.000000 0.665837 0.329385
O O12 0.332304 0.315732 0.810329
O O13 0.500000 0.602297 0.742298
O O14 0.335006 0.500000 0.799405
#
# Coordination Sequence:
#
# PCOD9494105 Si02
#       5
#    16  16  16   8  16
#     4   9  19  38  64  92 124 164 209 260 323 394
#     4   9  19  37  61  91 129 172 217 266 324 389
#     4  12  25  41  63  90 125 167 214 271 330 391
#     4  12  21  34  64  96 125 164 222 278 318 382
#     4  11  25  44  65  91 129 175 219 270 335 401
#
# _framework density 21.709845000000001
#
# number of rings (size 3 to 8) (size 9 to 14) (size 15 to 20)
#    0.000    1.556    1.111    5.667    0.000    7.111 
#    0.000    1.111    0.000    8.000    0.000   12.444 
#    0.000    0.000    0.000    0.000    0.000    0.000 
#
# Total GULP energy -200449.980152 kJ/mol
# GULP energy per Si atom -5568.055004 kJ/mol
# Density = 2.166043 g / cm^3
# Si number density = 21.709845 Si / 1000 Ang^3
#
#
#
# Elastic Constant Matrix: (Units=GPa)
#
#
# Indices 1 2 3 4 5 6 
#
# 1 111.8265 40.0667 69.9921 0.0000 0.0000 0.0000
# 2 40.0667 122.2200 33.4099 0.0000 0.0000 0.0000
# 3 69.9921 33.4099 136.9540 0.0000 0.0000 0.0000
# 4 0.0000 0.0000 0.0000 29.2820 0.0000 0.0000
# 5 0.0000 0.0000 0.0000 0.0000 27.9111 0.0000
# 6 0.0000 0.0000 0.0000 0.0000 0.0000 34.2521
#
#
#
# Elastic Compliance Matrix: (Units=1/GPa)
#
#
# Indices 1 2 3 4 5 6 
#
# 1 0.014001 -0.002822 -0.006467 0.000000 0.000000 0.000000
# 2 -0.002822 0.009335 -0.000835 0.000000 0.000000 0.000000
# 3 -0.006467 -0.000835 0.010811 0.000000 0.000000 0.000000
# 4 0.000000 0.000000 0.000000 0.034151 0.000000 0.000000
# 5 0.000000 0.000000 0.000000 0.000000 0.035828 0.000000
# 6 0.000000 0.000000 0.000000 0.000000 0.000000 0.029195
#
#
# Mechanical properties :
#
#
# Convention : Reuss Voigt Hill
#
# Bulk Modulus (GPa) = 71.94954 73.10423 72.52689
# Shear Modulus (GPa) = 31.60500 33.45782 32.53141
#
# Velocity S-wave (km/s) = 3.81962 3.92999 3.87520
# Velocity P-wave (km/s) = 7.25714 7.37153 7.31456
#
# Compressibility (1/GPa) = 0.01389863
#
# Stress axis : x y z
#
# Youngs Moduli (GPa) = 71.42181 107.11904 92.50236
#
# Poissons Ratio (x) = 0.30231 0.59822
# Poissons Ratio (y) = 0.20156 0.07725
# Poissons Ratio (z) = 0.46189 0.08945
#
# Static dielectric constant tensor:
#      x y z
#    x 1.793980 0.000000 0.000000 
#    y 0.000000 1.867990 0.000000 
#    z 0.000000 0.000000 1.848630 
# 
# From -- ./inp_files/72539.got.cif
#   From: 2010.05.17/outbox.cif.g08.bks.cpg/sg65_37_cif.got.tgz:72539.got - 2010.06.03 17:01:31.
