data_PCOD9494889
_publ_section_title
;
Structure prediction by ZEFSAII (Michael W. Deem and Ramdas Pophale) SiO2 
 PCOD9494889
Probable space group: C C C M
;
_chemical_formula_sum "Si O2"
_cell_formula_units_Z 64
_cell_length_a 7.434650
_cell_length_b 20.177496
_cell_length_c 19.105565
_cell_angle_alpha 90.000000
_cell_angle_beta 90.000000
_cell_angle_gamma 90.000000
_cell_volume 2866.075874
_symmetry_space_group_name_H-M "C C C M"
_symmetry_group_IT_number 66
_symmetry_cell_setting 'orthorhombic'
loop_
_space_group_symop_operation_xyz
x,y,z
-x,-y,z
x,-y,1/2-z
-x,y,1/2-z
-x,-y,-z
x,y,-z
-x,y,1/2+z
x,-y,1/2+z
1/2+x,1/2+y,z
1/2-x,1/2-y,z
1/2+x,1/2-y,1/2-z
1/2-x,1/2+y,1/2-z
1/2-x,1/2-y,-z
1/2+x,1/2+y,-z
1/2-x,1/2+y,1/2+z
1/2+x,1/2-y,1/2+z
loop_
_atom_site_type_symbol
_atom_site_label
_atom_site_fract_x
_atom_site_fract_y
_atom_site_fract_z
Si Si1 0.459991 0.725865 0.079299
Si Si2 0.213962 0.906047 0.917136
Si Si3 0.451624 0.156378 0.168484
Si Si4 0.288307 0.022217 0.826242
O O1 0.250000 0.750000 0.080363
O O2 0.443844 0.647614 0.093573
O O3 0.564408 0.771938 0.133327
O O4 0.525319 0.736391 0.000000
O O5 0.383285 0.875942 0.874934
O O6 0.193274 0.978956 0.885491
O O7 0.251137 0.908277 0.000000
O O8 0.500000 0.163107 0.250000
O O9 0.295741 0.101160 0.164806
O O10 0.500000 0.000000 0.827061
O O11 0.220128 0.000000 0.750000
#
# Coordination Sequence:
#
# PCOD9494889 Si02
#       4
#    16  16  16  16
#     4   8  15  25  35  51  77 111 143 170 197 243
#     4   9  16  25  37  52  78 114 144 168 202 246
#     4  10  15  22  35  53  81 111 133 166 207 248
#     4   9  14  23  33  52  79 110 132 167 205 248
#
# _framework density 22.330185
#
# number of rings (size 3 to 8) (size 9 to 14) (size 15 to 20)
#    0.000    3.000    5.000    2.250    0.000    5.500 
#    0.000    0.000    0.000    0.000    0.000    0.000 
#    0.000   41.000    0.000    5.500    2.000    0.000 
#
# Total GULP energy -178427.032389 kJ/mol
# GULP energy per Si atom -5575.844762 kJ/mol
# Density = 2.227936 g / cm^3
# Si number density = 22.330185 Si / 1000 Ang^3
#
#
#
# Elastic Constant Matrix: (Units=GPa)
#
#
# Indices 1 2 3 4 5 6 
#
# 1 66.3497 33.2881 51.7205 0.0000 0.0000 0.0000
# 2 33.2881 158.0984 126.9792 0.0000 0.0000 0.0000
# 3 51.7205 126.9792 196.8432 0.0000 0.0000 0.0000
# 4 0.0000 0.0000 0.0000 46.1797 0.0000 0.0000
# 5 0.0000 0.0000 0.0000 0.0000 -31.7028 0.0000
# 6 0.0000 0.0000 0.0000 0.0000 0.0000 8.2739
#
#
#
# Elastic Compliance Matrix: (Units=1/GPa)
#
#
# Indices 1 2 3 4 5 6 
#
# 1 0.018954 0.000019 -0.004992 0.000000 0.000000 0.000000
# 2 0.000019 0.013126 -0.008472 0.000000 0.000000 0.000000
# 3 -0.004992 -0.008472 0.011857 0.000000 0.000000 0.000000
# 4 0.000000 0.000000 0.000000 0.021655 0.000000 0.000000
# 5 0.000000 0.000000 0.000000 0.000000 -0.031543 0.000000
# 6 0.000000 0.000000 0.000000 0.000000 0.000000 0.120862
#
#
# Mechanical properties :
#
#
# Convention : Reuss Voigt Hill
#
# Bulk Modulus (GPa) = 58.66642 93.91856 76.29249
# Shear Modulus (GPa) = 26.66919 18.50372 22.58646
#
# Velocity S-wave (km/s) = 3.45963 2.88174 3.18382
# Velocity P-wave (km/s) = 6.50292 7.29540 6.91053
#
# Compressibility (1/GPa) = 0.01704553
#
# Stress axis : x y z
#
# Youngs Moduli (GPa) = 52.76012 76.18681 84.33841
#
# Poissons Ratio (x) = -0.00143 0.42104
# Poissons Ratio (y) = -0.00099 0.71452
# Poissons Ratio (z) = 0.26339 0.64545
#
# Static dielectric constant tensor:
#      x y z
#    x 1.870150 0.000000 0.000000 
#    y 0.000000 1.921780 0.000000 
#    z 0.000000 0.000000 1.769060 
# 
# From -- ./inp_files/25989.got.cif
#   From: 2010.05.17/outbox.cif.g08.bks.cpg/sg66_13_cif.got.tgz:25989.got - 2010.06.03 17:51:23.
