data_PCOD9494880
_publ_section_title
;
Structure prediction by ZEFSAII (Michael W. Deem and Ramdas Pophale) SiO2 
 PCOD9494880
Probable space group: C M M M
;
_chemical_formula_sum "Si O2"
_cell_formula_units_Z 44
_cell_length_a 30.000000
_cell_length_b 9.000000
_cell_length_c 18.000000
_cell_angle_alpha 90.000000
_cell_angle_beta 90.000000
_cell_angle_gamma 90.000000
_cell_volume 4860.000000
_symmetry_space_group_name_H-M "C M M M"
_symmetry_group_IT_number 65
_symmetry_cell_setting 'orthorhombic'
loop_
_space_group_symop_operation_xyz
x,y,z
-x,-y,z
x,-y,-z
-x,y,-z
-x,-y,-z
x,y,-z
-x,y,z
x,-y,z
1/2+x,1/2+y,z
1/2-x,1/2-y,z
1/2+x,1/2-y,-z
1/2-x,1/2+y,-z
1/2-x,1/2-y,-z
1/2+x,1/2+y,-z
1/2-x,1/2+y,z
1/2+x,1/2-y,z
loop_
_atom_site_type_symbol
_atom_site_label
_atom_site_fract_x
_atom_site_fract_y
_atom_site_fract_z
Si Si1 0.946683 0.173789 0.081771
Si Si2 0.609523 0.820953 0.794336
Si Si3 0.294260 0.830176 0.615741
Si Si4 0.447204 0.669616 0.500000
Si Si5 0.206084 0.330097 0.796879
Si Si6 0.608099 0.179930 0.376254
O O1 0.926256 0.264535 0.148470
O O2 0.000000 0.183530 0.083495
O O3 0.934953 0.000000 0.089104
O O4 0.931646 0.225771 0.000000
O O5 0.658448 0.764253 0.818121
O O6 0.601372 0.775368 0.709285
O O7 0.611449 0.000000 0.793900
O O8 0.250000 0.750000 0.589685
O O9 0.293765 0.829199 0.706336
O O10 0.342868 0.768502 0.596596
O O11 0.292390 0.000000 0.591523
O O12 0.431201 0.500000 0.500000
O O13 0.500000 0.670265 0.500000
O O14 0.428799 0.753648 0.428520
O O15 0.207914 0.500000 0.820779
O O16 0.250000 0.250000 0.823529
O O17 0.608356 0.000000 0.379423
#
# Coordination Sequence:
#
# PCOD9494880 Si02
#       6
#    16  16  16   8  16  16
#     4   9  19  35  52  72 101 134 165 201 250 304
#     4   9  18  32  52  79 105 129 164 208 247 289
#     4   8  14  26  46  72 100 128 158 194 238 289
#     4  11  25  41  54  71  96 127 168 217 260 295
#     4   8  14  25  42  68 101 131 160 196 237 283
#     4   9  19  36  55  75 101 133 168 204 246 299
#
# _framework density 9.0534979999999994
#
# number of rings (size 3 to 8) (size 9 to 14) (size 15 to 20)
#    0.000    3.182    0.000    3.000    0.000    4.364 
#    0.000    8.636    0.000    0.545    0.000    0.000 
#    0.000    0.000    0.000    0.000    0.000    0.000 
#
# Total GULP energy -244962.201602 kJ/mol
# GULP energy per Si atom -5567.322764 kJ/mol
# Density = 0.903289 g / cm^3
# Si number density = 9.053498 Si / 1000 Ang^3
#
#
#
# Elastic Constant Matrix: (Units=GPa)
#
#
# Indices 1 2 3 4 5 6 
#
# 1 63.1800 33.4636 44.9013 0.0000 0.0000 0.0000
# 2 33.4636 18.8618 30.2790 0.0000 0.0000 0.0000
# 3 44.9013 30.2790 76.4433 0.0000 0.0000 0.0000
# 4 0.0000 0.0000 0.0000 16.7733 0.0000 0.0000
# 5 0.0000 0.0000 0.0000 0.0000 51.0520 0.0000
# 6 0.0000 0.0000 0.0000 0.0000 0.0000 31.1509
#
#
#
# Elastic Compliance Matrix: (Units=1/GPa)
#
#
# Indices 1 2 3 4 5 6 
#
# 1 0.983277 -2.244525 0.311494 0.000000 0.000000 0.000000
# 2 -2.244525 5.269167 -0.768717 0.000000 0.000000 0.000000
# 3 0.311494 -0.768717 0.134603 0.000000 0.000000 0.000000
# 4 0.000000 0.000000 0.000000 0.059618 0.000000 0.000000
# 5 0.000000 0.000000 0.000000 0.000000 0.019588 0.000000
# 6 0.000000 0.000000 0.000000 0.000000 0.000000 0.032102
#
#
# Mechanical properties :
#
#
# Convention : Reuss Voigt Hill
#
# Bulk Modulus (GPa) = 1.01672 41.75256 21.38464
# Shear Modulus (GPa) = 0.40884 23.11799 11.76341
#
# Velocity S-wave (km/s) = 0.47569 3.57703 2.55161
# Velocity P-wave (km/s) = 0.92975 6.33791 4.52954
#
# Compressibility (1/GPa) = 0.98355282
#
# Stress axis : x y z
#
# Youngs Moduli (GPa) = 1.01701 0.18978 7.42924
#
# Poissons Ratio (x) = 0.42597 -2.31416
# Poissons Ratio (y) = 2.28270 5.71098
# Poissons Ratio (z) = -0.31679 0.14589
#
# Static dielectric constant tensor:
#      x y z
#    x 1.639480 0.000000 0.000000 
#    y 0.000000 1.624760 0.000000 
#    z 0.000000 0.000000 1.623210 
# 
# From -- ./inp_files/50330.got.cif
#   From: 2010.05.17/outbox.ucp.g08.bks.cvg/sg65_26_cif.got.tgz:50330.got - 2010.06.11 16:39:57.
