data_PCOD9494300
_publ_section_title
;
Structure prediction by ZEFSAII (Michael W. Deem and Ramdas Pophale) SiO2 
 PCOD9494300
Probable space group: C M M M
;
_chemical_formula_sum "Si O2"
_cell_formula_units_Z 104
_cell_length_a 9.559144
_cell_length_b 14.400762
_cell_length_c 35.554853
_cell_angle_alpha 90.000000
_cell_angle_beta 90.000000
_cell_angle_gamma 90.000000
_cell_volume 4894.444004
_symmetry_space_group_name_H-M "C M M M"
_symmetry_group_IT_number 65
_symmetry_cell_setting 'orthorhombic'
loop_
_space_group_symop_operation_xyz
x,y,z
-x,-y,z
x,-y,-z
-x,y,-z
-x,-y,-z
x,y,-z
-x,y,z
x,-y,z
1/2+x,1/2+y,z
1/2-x,1/2-y,z
1/2+x,1/2-y,-z
1/2-x,1/2+y,-z
1/2-x,1/2-y,-z
1/2+x,1/2+y,-z
1/2-x,1/2+y,z
1/2+x,1/2-y,z
loop_
_atom_site_type_symbol
_atom_site_label
_atom_site_fract_x
_atom_site_fract_y
_atom_site_fract_z
Si Si1 0.668146 0.847912 0.000000
Si Si2 0.160408 0.886780 0.542424
Si Si3 0.841752 0.886368 0.685339
Si Si4 0.156339 0.608272 0.246463
Si Si5 0.831930 0.347893 0.918743
Si Si6 0.340998 0.113445 0.386617
Si Si7 0.167826 0.346100 0.162416
O O1 0.750000 0.750000 0.000000
O O2 0.701271 0.892806 0.959364
O O3 0.500000 0.833001 0.000000
O O4 0.199965 0.858890 0.500000
O O5 0.264719 0.857286 0.575094
O O6 0.000000 0.857690 0.549733
O O7 0.159630 0.000000 0.542812
O O8 0.500000 0.647602 0.682255
O O9 0.768150 0.855322 0.723921
O O10 0.748469 0.859554 0.649704
O O11 0.847809 0.000000 0.685276
O O12 0.142182 0.500000 0.256085
O O13 0.201835 0.611144 0.202880
O O14 0.000000 0.650210 0.249908
O O15 0.750000 0.250000 0.918792
O O16 0.799439 0.392773 0.878081
O O17 0.000000 0.332614 0.918735
O O18 0.500000 0.146446 0.384460
O O19 0.344250 0.000000 0.386763
O O20 0.250000 0.250000 0.161922
O O21 0.000000 0.333395 0.162829
#
# Coordination Sequence:
#
# PCOD9494300 Si02
#       7
#     8  16  16  16  16  16  16
#     4   8  12  18  30  48  71  97 123 153 187 224
#     4   8  13  20  28  38  55  81 113 149 188 229
#     4   9  16  25  37  52  69  90 119 157 198 236
#     4   9  17  29  43  58  77 102 133 167 201 238
#     4   8  13  21  33  51  74  99 126 155 190 229
#     4   9  15  21  30  44  62  85 114 150 191 233
#     4   9  17  28  42  60  82 107 133 163 200 241
#
# _framework density 21.248584000000001
#
# number of rings (size 3 to 8) (size 9 to 14) (size 15 to 20)
#    0.000    3.385    0.000    1.385    0.000    4.615 
#    0.000    1.538    0.000    0.000    0.000    0.538 
#    0.000    4.308    0.000    0.000    0.000  154.692 
#
# Total GULP energy -289628.057733 kJ/mol
# GULP energy per Si atom -5569.770341 kJ/mol
# Density = 2.120022 g / cm^3
# Si number density = 21.248584 Si / 1000 Ang^3
#
#
#
# Elastic Constant Matrix: (Units=GPa)
#
#
# Indices 1 2 3 4 5 6 
#
# 1 102.5394 15.7787 122.0965 0.0000 0.0000 0.0000
# 2 15.7787 56.1022 4.5836 0.0000 0.0000 0.0000
# 3 122.0965 4.5836 238.4759 0.0000 0.0000 0.0000
# 4 0.0000 0.0000 0.0000 11.3486 0.0000 0.0000
# 5 0.0000 0.0000 0.0000 0.0000 40.4886 0.0000
# 6 0.0000 0.0000 0.0000 0.0000 0.0000 -1.7834
#
#
#
# Elastic Compliance Matrix: (Units=1/GPa)
#
#
# Indices 1 2 3 4 5 6 
#
# 1 0.027169 -0.006515 -0.013785 0.000000 0.000000 0.000000
# 2 -0.006515 0.019415 0.002962 0.000000 0.000000 0.000000
# 3 -0.013785 0.002962 0.011194 0.000000 0.000000 0.000000
# 4 0.000000 0.000000 0.000000 0.088116 0.000000 0.000000
# 5 0.000000 0.000000 0.000000 0.000000 0.024698 0.000000
# 6 0.000000 0.000000 0.000000 0.000000 0.000000 -0.560738
#
#
# Mechanical properties :
#
#
# Convention : Reuss Voigt Hill
#
# Bulk Modulus (GPa) = 43.28454 75.78168 59.53311
# Shear Modulus (GPa) = -14.37733 26.98802 6.30535
#
# Velocity S-wave (km/s) = -2.60402 3.56773 1.72449
# Velocity P-wave (km/s) = 3.37247 7.26039 5.66069
#
# Compressibility (1/GPa) = 0.02310294
#
# Stress axis : x y z
#
# Youngs Moduli (GPa) = 36.80665 51.50672 89.33306
#
# Poissons Ratio (x) = 0.33557 1.23145
# Poissons Ratio (y) = 0.23980 -0.26465
# Poissons Ratio (z) = 0.50738 -0.15259
#
# Static dielectric constant tensor:
#      x y z
#    x 1.724240 0.000000 0.000000 
#    y 0.000000 1.993490 0.000000 
#    z 0.000000 0.000000 1.810180 
# 
# From -- ./inp_files/77526.got.cif
#   From: 2010.05.17/outbox.cif.g08.bks.cpg/sg65_39_cif.got.tgz:77526.got - 2010.06.03 17:01:31.
