data_PCOD9494398
_publ_section_title
;
Structure prediction by ZEFSAII (Michael W. Deem and Ramdas Pophale) SiO2 
 PCOD9494398
Probable space group: C M M M
;
_chemical_formula_sum "Si O2"
_cell_formula_units_Z 72
_cell_length_a 15.290670
_cell_length_b 7.587885
_cell_length_c 27.336646
_cell_angle_alpha 90.000000
_cell_angle_beta 90.000000
_cell_angle_gamma 90.000000
_cell_volume 3171.702793
_symmetry_space_group_name_H-M "C M M M"
_symmetry_group_IT_number 65
_symmetry_cell_setting 'orthorhombic'
loop_
_space_group_symop_operation_xyz
x,y,z
-x,-y,z
x,-y,-z
-x,y,-z
-x,-y,-z
x,y,-z
-x,y,z
x,-y,z
1/2+x,1/2+y,z
1/2-x,1/2-y,z
1/2+x,1/2-y,-z
1/2-x,1/2+y,-z
1/2-x,1/2-y,-z
1/2+x,1/2+y,-z
1/2-x,1/2+y,z
1/2+x,1/2-y,z
loop_
_atom_site_type_symbol
_atom_site_label
_atom_site_fract_x
_atom_site_fract_y
_atom_site_fract_z
Si Si1 0.352188 0.288874 0.447881
Si Si2 0.100019 0.710664 0.763647
Si Si3 0.107337 0.702786 0.130760
Si Si4 0.892979 0.000000 0.944119
Si Si5 0.901392 0.211548 0.659305
O O1 0.391063 0.223866 0.500000
O O2 0.368122 0.500000 0.447176
O O3 0.250000 0.250000 0.451087
O O4 0.375301 0.219226 0.394089
O O5 0.094588 0.500000 0.768032
O O6 0.138002 0.770094 0.815663
O O7 0.143560 0.746855 0.711107
O O8 0.000000 0.783030 0.761668
O O9 0.133778 0.500000 0.123354
O O10 0.134194 0.829676 0.087094
O O11 0.000000 0.704357 0.132934
O O12 0.000000 0.000000 0.945034
O O13 0.862767 0.000000 0.000000
O O14 0.000000 0.276930 0.665312
O O15 0.900131 0.000000 0.655817
#
# Coordination Sequence:
#
# PCOD9494398 Si02
#       5
#    16  16  16   8  16
#     4   9  18  32  47  62  83 113 146 176 210 261
#     4   8  14  24  37  54  76 101 129 166 213 259
#     4   8  14  23  33  46  67  97 132 172 215 257
#     4   9  16  22  30  46  66  96 139 179 213 251
#     4   9  17  27  42  65  86 105 135 180 225 261
#
# _framework density 22.70074
#
# number of rings (size 3 to 8) (size 9 to 14) (size 15 to 20)
#    0.000    3.444    0.000    1.333    1.556    1.778 
#    0.000    4.444    0.000    0.000    0.000    6.222 
#    0.000    0.000    0.000    0.000    0.000    1.111 
#
# Total GULP energy -200410.301262 kJ/mol
# GULP energy per Si atom -5566.952813 kJ/mol
# Density = 2.264907 g / cm^3
# Si number density = 22.700740 Si / 1000 Ang^3
#
#
#
# Elastic Constant Matrix: (Units=GPa)
#
#
# Indices 1 2 3 4 5 6 
#
# 1 27.6263 -2.3611 20.1134 0.0000 0.0000 0.0000
# 2 -2.3611 78.5404 69.4181 0.0000 0.0000 0.0000
# 3 20.1134 69.4181 319.7688 0.0000 0.0000 0.0000
# 4 0.0000 0.0000 0.0000 92.6572 0.0000 0.0000
# 5 0.0000 0.0000 0.0000 0.0000 82.8857 0.0000
# 6 0.0000 0.0000 0.0000 0.0000 0.0000 1.9036
#
#
#
# Elastic Compliance Matrix: (Units=1/GPa)
#
#
# Indices 1 2 3 4 5 6 
#
# 1 0.038989 0.004133 -0.003350 0.000000 0.000000 0.000000
# 2 0.004133 0.016193 -0.003775 0.000000 0.000000 0.000000
# 3 -0.003350 -0.003775 0.004158 0.000000 0.000000 0.000000
# 4 0.000000 0.000000 0.000000 0.010792 0.000000 0.000000
# 5 0.000000 0.000000 0.000000 0.000000 0.012065 0.000000
# 6 0.000000 0.000000 0.000000 0.000000 0.000000 0.525307
#
#
# Mechanical properties :
#
#
# Convention : Reuss Voigt Hill
#
# Bulk Modulus (GPa) = 18.74220 66.69736 42.71978
# Shear Modulus (GPa) = 7.92049 58.07365 32.99707
#
# Velocity S-wave (km/s) = 1.86994 5.06338 3.81670
# Velocity P-wave (km/s) = 3.59671 7.97676 6.18729
#
# Compressibility (1/GPa) = 0.05335554
#
# Stress axis : x y z
#
# Youngs Moduli (GPa) = 25.64813 61.75364 240.52768
#
# Poissons Ratio (x) = -0.25520 0.80566
# Poissons Ratio (y) = -0.10599 0.90807
# Poissons Ratio (z) = 0.08591 0.23314
#
# Static dielectric constant tensor:
#      x y z
#    x 1.846000 0.000000 0.000000 
#    y 0.000000 7.134820 0.000000 
#    z 0.000000 0.000000 1.946220 
# 
# From -- ./inp_files/59525.got.cif
#   From: 2010.05.17/outbox.cif.g08.bks.cpg/sg65_30_cif.got.tgz:59525.got - 2010.06.03 17:01:31.
