data_PCOD9494361
_publ_section_title
;
Structure prediction by ZEFSAII (Michael W. Deem and Ramdas Pophale) SiO2 
 PCOD9494361
Probable space group: C M M M
;
_chemical_formula_sum "Si O2"
_cell_formula_units_Z 72
_cell_length_a 7.376102
_cell_length_b 18.504362
_cell_length_c 25.106140
_cell_angle_alpha 90.000000
_cell_angle_beta 90.000000
_cell_angle_gamma 90.000000
_cell_volume 3426.738594
_symmetry_space_group_name_H-M "C M M M"
_symmetry_group_IT_number 65
_symmetry_cell_setting 'orthorhombic'
loop_
_space_group_symop_operation_xyz
x,y,z
-x,-y,z
x,-y,-z
-x,y,-z
-x,-y,-z
x,y,-z
-x,y,z
x,-y,z
1/2+x,1/2+y,z
1/2-x,1/2-y,z
1/2+x,1/2-y,-z
1/2-x,1/2+y,-z
1/2-x,1/2-y,-z
1/2+x,1/2+y,-z
1/2-x,1/2+y,z
1/2+x,1/2-y,z
loop_
_atom_site_type_symbol
_atom_site_label
_atom_site_fract_x
_atom_site_fract_y
_atom_site_fract_z
Si Si1 0.283577 0.836332 0.000000
Si Si2 0.783143 0.664254 0.884303
Si Si3 0.721778 0.916539 0.221311
Si Si4 0.783169 0.664271 0.673078
Si Si5 0.216730 0.663500 0.442699
O O1 0.250000 0.750000 0.000000
O O2 0.213636 0.861514 0.942359
O O3 0.500000 0.848362 0.000000
O O4 0.750000 0.750000 0.879257
O O5 0.715199 0.623209 0.832299
O O6 0.000000 0.654367 0.885476
O O7 0.500000 0.913480 0.221314
O O8 0.784770 0.876814 0.274933
O O9 0.773687 0.000000 0.221298
O O10 0.750000 0.750000 0.678184
O O11 0.713739 0.638554 0.615011
O O12 0.000000 0.654345 0.671854
O O13 0.286470 0.635855 0.500000
O O14 0.250000 0.750000 0.442687
O O15 0.000000 0.652203 0.442913
#
# Coordination Sequence:
#
# PCOD9494361 Si02
#       5
#     8  16  16  16  16
#     4   8  14  24  39  61  83 101 125 158 196 232
#     4   9  16  27  44  63  82 104 131 163 196 232
#     4   9  17  28  41  58  81 108 135 162 195 234
#     4   9  16  26  42  61  79 102 132 164 196 232
#     4   8  13  21  34  54  78  99 121 154 194 231
#
# _framework density 21.011230999999999
#
# number of rings (size 3 to 8) (size 9 to 14) (size 15 to 20)
#    0.000    3.333    0.000    0.667    0.000    0.000 
#    0.000    0.556    0.000    6.667    0.000    4.667 
#    0.000    8.889    0.000   36.000    0.000   16.889 
#
# Total GULP energy -200540.625757 kJ/mol
# GULP energy per Si atom -5570.572938 kJ/mol
# Density = 2.096341 g / cm^3
# Si number density = 21.011231 Si / 1000 Ang^3
#
#
#
# Elastic Constant Matrix: (Units=GPa)
#
#
# Indices 1 2 3 4 5 6 
#
# 1 80.3184 -3.0038 15.0432 0.0000 0.0000 0.0000
# 2 -3.0038 61.8547 95.6998 0.0000 0.0000 0.0000
# 3 15.0432 95.6998 320.3543 0.0000 0.0000 0.0000
# 4 0.0000 0.0000 0.0000 -10.5872 0.0000 0.0000
# 5 0.0000 0.0000 0.0000 0.0000 12.3940 0.0000
# 6 0.0000 0.0000 0.0000 0.0000 0.0000 8.0158
#
#
#
# Elastic Compliance Matrix: (Units=1/GPa)
#
#
# Indices 1 2 3 4 5 6 
#
# 1 0.012833 0.002892 -0.001467 0.000000 0.000000 0.000000
# 2 0.002892 0.030713 -0.009311 0.000000 0.000000 0.000000
# 3 -0.001467 -0.009311 0.005972 0.000000 0.000000 0.000000
# 4 0.000000 0.000000 0.000000 -0.094454 0.000000 0.000000
# 5 0.000000 0.000000 0.000000 0.000000 0.080684 0.000000
# 6 0.000000 0.000000 0.000000 0.000000 0.000000 0.124754
#
#
# Mechanical properties :
#
#
# Convention : Reuss Voigt Hill
#
# Bulk Modulus (GPa) = 29.63148 75.33400 52.48274
# Shear Modulus (GPa) = 26.66366 25.61706 26.14036
#
# Velocity S-wave (km/s) = 3.56619 3.49550 3.53103
# Velocity P-wave (km/s) = 5.57587 7.22658 6.45421
#
# Compressibility (1/GPa) = 0.03374789
#
# Stress axis : x y z
#
# Youngs Moduli (GPa) = 77.92216 32.56002 167.45409
#
# Poissons Ratio (x) = -0.09418 0.24560
# Poissons Ratio (y) = -0.22538 1.55910
# Poissons Ratio (z) = 0.11429 0.30315
#
# Static dielectric constant tensor:
#      x y z
#    x 1.778740 0.000000 0.000000 
#    y 0.000000 1.664660 0.000000 
#    z 0.000000 0.000000 1.831020 
# 
# From -- ./inp_files/67235.got.cif
#   From: 2010.05.17/outbox.cif.g08.bks.cpg/sg65_34_cif.got.tgz:67235.got - 2010.06.03 17:01:31.
