data_PCOD9494501
_publ_section_title
;
Structure prediction by ZEFSAII (Michael W. Deem and Ramdas Pophale) SiO2 
 PCOD9494501
Probable space group: C M M M
;
_chemical_formula_sum "Si O2"
_cell_formula_units_Z 88
_cell_length_a 28.328595
_cell_length_b 18.748340
_cell_length_c 9.258324
_cell_angle_alpha 90.000000
_cell_angle_beta 90.000000
_cell_angle_gamma 90.000000
_cell_volume 4917.226704
_symmetry_space_group_name_H-M "C M M M"
_symmetry_group_IT_number 65
_symmetry_cell_setting 'orthorhombic'
loop_
_space_group_symop_operation_xyz
x,y,z
-x,-y,z
x,-y,-z
-x,y,-z
-x,-y,-z
x,y,-z
-x,y,z
x,-y,z
1/2+x,1/2+y,z
1/2-x,1/2-y,z
1/2+x,1/2-y,-z
1/2-x,1/2+y,-z
1/2-x,1/2-y,-z
1/2+x,1/2+y,-z
1/2-x,1/2+y,z
1/2+x,1/2-y,z
loop_
_atom_site_type_symbol
_atom_site_label
_atom_site_fract_x
_atom_site_fract_y
_atom_site_fract_z
Si Si1 0.443345 0.860134 0.663850
Si Si2 0.942080 0.500000 0.833240
Si Si3 0.347616 0.324395 0.827344
Si Si4 0.742761 0.417005 0.173461
Si Si5 0.947105 0.211066 0.173226
Si Si6 0.297263 0.201300 0.664635
O O1 0.425089 0.856594 0.500000
O O2 0.500000 0.870074 0.654106
O O3 0.437774 0.786537 0.749560
O O4 0.425529 0.928835 0.751122
O O5 0.000000 0.500000 0.833147
O O6 0.927327 0.500000 0.000000
O O7 0.308564 0.383386 0.787335
O O8 0.402449 0.339172 0.792996
O O9 0.333603 0.250615 0.750527
O O10 0.343661 0.314902 0.000000
O O11 0.744925 0.500000 0.210776
O O12 0.782206 0.370038 0.252755
O O13 0.748076 0.409710 0.000000
O O14 0.000000 0.186640 0.214596
O O15 0.947331 0.222135 0.000000
O O16 0.311708 0.187929 0.500000
O O17 0.250000 0.250000 0.661682
#
# Coordination Sequence:
#
# PCOD9494501 Si02
#       6
#    16   8  16  16  16  16
#     4   9  16  25  38  57  80 107 143 189 237 279
#     4   9  15  23  37  55  75 101 135 177 227 281
#     4   9  17  30  49  71  97 130 165 199 237 284
#     4   9  17  30  50  75 101 129 160 194 235 288
#     4   9  17  29  45  65  90 123 164 205 240 276
#     4   9  17  29  47  72  99 125 154 192 240 291
#
# _framework density 17.896266000000001
#
# number of rings (size 3 to 8) (size 9 to 14) (size 15 to 20)
#    0.000    3.000    0.000    1.364    0.000    6.545 
#    0.000    0.000    2.000    0.545    0.000    3.818 
#    0.000    0.000    0.000   13.636    0.000   14.182 
#
# Total GULP energy -245054.241154 kJ/mol
# GULP energy per Si atom -5569.414572 kJ/mol
# Density = 1.785553 g / cm^3
# Si number density = 17.896266 Si / 1000 Ang^3
#
#
#
# Elastic Constant Matrix: (Units=GPa)
#
#
# Indices 1 2 3 4 5 6 
#
# 1 64.8820 17.8178 12.1270 0.0000 0.0000 0.0000
# 2 17.8178 77.6188 22.8463 0.0000 0.0000 0.0000
# 3 12.1270 22.8463 32.9743 0.0000 0.0000 0.0000
# 4 0.0000 0.0000 0.0000 7.3284 0.0000 0.0000
# 5 0.0000 0.0000 0.0000 0.0000 5.6692 0.0000
# 6 0.0000 0.0000 0.0000 0.0000 0.0000 12.4452
#
#
#
# Elastic Compliance Matrix: (Units=1/GPa)
#
#
# Indices 1 2 3 4 5 6 
#
# 1 0.016953 -0.002583 -0.004445 0.000000 0.000000 0.000000
# 2 -0.002583 0.016578 -0.010536 0.000000 0.000000 0.000000
# 3 -0.004445 -0.010536 0.039261 0.000000 0.000000 0.000000
# 4 0.000000 0.000000 0.000000 0.136455 0.000000 0.000000
# 5 0.000000 0.000000 0.000000 0.000000 0.176391 0.000000
# 6 0.000000 0.000000 0.000000 0.000000 0.000000 0.080352
#
#
# Mechanical properties :
#
#
# Convention : Reuss Voigt Hill
#
# Bulk Modulus (GPa) = 26.55087 31.22858 28.88973
# Shear Modulus (GPa) = 9.73383 13.26750 11.50066
#
# Velocity S-wave (km/s) = 2.33470 2.72574 2.53776
# Velocity P-wave (km/s) = 4.70489 5.23391 4.97644
#
# Compressibility (1/GPa) = 0.03766354
#
# Stress axis : x y z
#
# Youngs Moduli (GPa) = 58.98723 60.32249 25.47055
#
# Poissons Ratio (x) = 0.15583 0.11321
# Poissons Ratio (y) = 0.15238 0.26835
# Poissons Ratio (z) = 0.26219 0.63554
#
# Static dielectric constant tensor:
#      x y z
#    x 1.661950 0.000000 0.000000 
#    y 0.000000 1.572120 0.000000 
#    z 0.000000 0.000000 1.605730 
# 
# From -- ./inp_files/18343.got.cif
#   From: 2010.05.17/outbox.cif.g08.bks.cpg/sg65_10_cif.got.tgz:18343.got - 2010.06.03 17:01:31.
