data_PCOD9494044
_publ_section_title
;
Structure prediction by ZEFSAII (Michael W. Deem and Ramdas Pophale) SiO2 
 PCOD9494044
Probable space group: C M M M
;
_chemical_formula_sum "Si O2"
_cell_formula_units_Z 88
_cell_length_a 7.838554
_cell_length_b 21.928043
_cell_length_c 24.216272
_cell_angle_alpha 90.000000
_cell_angle_beta 90.000000
_cell_angle_gamma 90.000000
_cell_volume 4162.393309
_symmetry_space_group_name_H-M "C M M M"
_symmetry_group_IT_number 65
_symmetry_cell_setting 'orthorhombic'
loop_
_space_group_symop_operation_xyz
x,y,z
-x,-y,z
x,-y,-z
-x,y,-z
-x,-y,-z
x,y,-z
-x,y,z
x,-y,z
1/2+x,1/2+y,z
1/2-x,1/2-y,z
1/2+x,1/2-y,-z
1/2-x,1/2+y,-z
1/2-x,1/2-y,-z
1/2+x,1/2+y,-z
1/2-x,1/2+y,z
1/2+x,1/2-y,z
loop_
_atom_site_type_symbol
_atom_site_label
_atom_site_fract_x
_atom_site_fract_y
_atom_site_fract_z
Si Si1 0.794506 0.632062 0.937749
Si Si2 0.206347 0.432239 0.634894
Si Si3 0.294495 0.817676 0.436613
Si Si4 0.304519 0.000000 0.067283
Si Si5 0.798490 0.815679 0.173477
Si Si6 0.704906 0.566876 0.236306
O O1 0.724997 0.565295 0.918965
O O2 0.751003 0.679296 0.890632
O O3 0.000000 0.626595 0.940561
O O4 0.734256 0.645742 0.000000
O O5 0.262694 0.500000 0.615663
O O6 0.268678 0.374667 0.599458
O O7 0.258482 0.426458 0.698718
O O8 0.000000 0.431795 0.632658
O O9 0.231858 0.821784 0.500000
O O10 0.500000 0.821393 0.437923
O O11 0.250000 0.750000 0.415264
O O12 0.500000 0.000000 0.087563
O O13 0.311352 0.000000 0.000000
O O14 0.750000 0.750000 0.196775
O O15 0.723395 0.874702 0.204310
O O16 0.000000 0.819962 0.177115
O O17 0.500000 0.565779 0.229302
O O18 0.770552 0.500000 0.218173
#
# Coordination Sequence:
#
# PCOD9494044 Si02
#       6
#    16  16  16   8  16  16
#     4   9  18  34  56  81 109 139 172 211 258 314
#     4   9  18  33  54  80 106 135 176 221 264 312
#     4   9  18  32  50  75 109 146 181 218 260 308
#     4   7  12  26  49  77 105 131 161 199 244 297
#     4  11  24  39  56  78 107 140 176 218 264 318
#     4   9  20  39  59  78 103 137 175 218 269 318
#
# _framework density 21.141683
#
# number of rings (size 3 to 8) (size 9 to 14) (size 15 to 20)
#    0.000    2.818    0.000    1.636    1.273    4.000 
#    0.000    5.455    0.000    1.636    0.000    5.091 
#    0.000    0.000    0.000    0.000    0.000    0.000 
#
# Total GULP energy -245421.827196 kJ/mol
# GULP energy per Si atom -5577.768800 kJ/mol
# Density = 2.109356 g / cm^3
# Si number density = 21.141683 Si / 1000 Ang^3
#
#
#
# Elastic Constant Matrix: (Units=GPa)
#
#
# Indices 1 2 3 4 5 6 
#
# 1 29.4088 13.1172 1.6819 0.0000 0.0000 0.0000
# 2 13.1172 212.0860 88.0632 0.0000 0.0000 0.0000
# 3 1.6819 88.0632 64.5504 0.0000 0.0000 0.0000
# 4 0.0000 0.0000 0.0000 25.5729 0.0000 0.0000
# 5 0.0000 0.0000 0.0000 0.0000 12.8010 0.0000
# 6 0.0000 0.0000 0.0000 0.0000 0.0000 13.6503
#
#
#
# Elastic Compliance Matrix: (Units=1/GPa)
#
#
# Indices 1 2 3 4 5 6 
#
# 1 0.035598 -0.004190 0.004789 0.000000 0.000000 0.000000
# 2 -0.004190 0.011369 -0.015401 0.000000 0.000000 0.000000
# 3 0.004789 -0.015401 0.036378 0.000000 0.000000 0.000000
# 4 0.000000 0.000000 0.000000 0.039104 0.000000 0.000000
# 5 0.000000 0.000000 0.000000 0.000000 0.078119 0.000000
# 6 0.000000 0.000000 0.000000 0.000000 0.000000 0.073258
#
#
# Mechanical properties :
#
#
# Convention : Reuss Voigt Hill
#
# Bulk Modulus (GPa) = 18.60782 56.86331 37.73557
# Shear Modulus (GPa) = 15.55954 23.95036 19.75495
#
# Velocity S-wave (km/s) = 2.71581 3.36944 3.06012
# Velocity P-wave (km/s) = 4.31912 6.48785 5.51121
#
# Compressibility (1/GPa) = 0.05374084
#
# Stress axis : x y z
#
# Youngs Moduli (GPa) = 28.09108 87.95672 27.48889
#
# Poissons Ratio (x) = 0.36855 -0.13164
# Poissons Ratio (y) = 0.11771 0.42337
# Poissons Ratio (z) = -0.13453 1.35465
#
# Static dielectric constant tensor:
#      x y z
#    x 1.768370 0.000000 0.000000 
#    y 0.000000 1.844770 0.000000 
#    z 0.000000 0.000000 1.743570 
# 
# From -- ./inp_files/67523.got.cif
#   From: 2010.05.17/outbox.cif.g08.bks.cpg/sg65_34_cif.got.tgz:67523.got - 2010.06.03 17:01:31.
