data_PCOD9494232
_publ_section_title
;
Structure prediction by ZEFSAII (Michael W. Deem and Ramdas Pophale) SiO2 
 PCOD9494232
Probable space group: C M M M
;
_chemical_formula_sum "Si O2"
_cell_formula_units_Z 104
_cell_length_a 37.263313
_cell_length_b 18.738022
_cell_length_c 7.404816
_cell_angle_alpha 90.000000
_cell_angle_beta 90.000000
_cell_angle_gamma 90.000000
_cell_volume 5170.344491
_symmetry_space_group_name_H-M "C M M M"
_symmetry_group_IT_number 65
_symmetry_cell_setting 'orthorhombic'
loop_
_space_group_symop_operation_xyz
x,y,z
-x,-y,z
x,-y,-z
-x,y,-z
-x,-y,-z
x,y,-z
-x,y,z
x,-y,z
1/2+x,1/2+y,z
1/2-x,1/2-y,z
1/2+x,1/2-y,-z
1/2-x,1/2+y,-z
1/2-x,1/2-y,-z
1/2+x,1/2+y,-z
1/2-x,1/2+y,z
1/2+x,1/2-y,z
loop_
_atom_site_type_symbol
_atom_site_label
_atom_site_fract_x
_atom_site_fract_y
_atom_site_fract_z
Si Si1 0.041616 0.843817 0.221474
Si Si2 0.097751 0.728594 0.212279
Si Si3 0.176643 0.783043 0.282031
Si Si4 0.280744 0.579184 0.279172
Si Si5 0.123762 0.578086 0.786490
Si Si6 0.456386 0.500000 0.210788
Si Si7 0.796880 0.368885 0.282348
O O1 0.066661 0.779534 0.285185
O O2 0.000000 0.834411 0.272243
O O3 0.054497 0.922558 0.284219
O O4 0.042524 0.845503 0.000000
O O5 0.135696 0.769172 0.228746
O O6 0.104360 0.648981 0.288419
O O7 0.090101 0.719616 0.000000
O O8 0.177853 0.783355 0.500000
O O9 0.193692 0.856764 0.218662
O O10 0.198918 0.713262 0.222026
O O11 0.280814 0.579967 0.500000
O O12 0.291592 0.500000 0.222211
O O13 0.239954 0.595738 0.221027
O O14 0.114686 0.500000 0.711314
O O15 0.166470 0.591436 0.768685
O O16 0.116095 0.576333 0.000000
O O17 0.500000 0.500000 0.218126
O O18 0.446040 0.500000 0.000000
O O19 0.795809 0.368619 0.500000
#
# Coordination Sequence:
#
# PCOD9494232 Si02
#       7
#    16  16  16  16  16   8  16
#     4   8  13  23  41  63  84 106 134 168 203 237
#     4   9  17  29  44  62  84 109 137 167 202 246
#     4   9  17  29  43  59  82 110 138 167 205 249
#     4   9  16  26  41  60  81 106 138 173 207 244
#     4   9  17  28  41  59  85 113 136 163 206 253
#     4   7  10  18  34  58  83 101 123 161 203 233
#     4   9  16  27  45  64  78  99 139 185 212 231
#
# _framework density 20.114712999999998
#
# number of rings (size 3 to 8) (size 9 to 14) (size 15 to 20)
#    0.000    3.308    0.000    1.846    0.000    2.769 
#    1.385    0.769    0.000    5.538    0.000    3.231 
#    0.000    1.846    0.000    7.692    0.000    8.000 
#
# Total GULP energy -289912.467756 kJ/mol
# GULP energy per Si atom -5575.239765 kJ/mol
# Density = 2.006893 g / cm^3
# Si number density = 20.114713 Si / 1000 Ang^3
#
#
#
# Elastic Constant Matrix: (Units=GPa)
#
#
# Indices 1 2 3 4 5 6 
#
# 1 62.6376 85.6313 -0.6038 0.0000 0.0000 0.0000
# 2 85.6313 223.2335 10.9838 0.0000 0.0000 0.0000
# 3 -0.6038 10.9838 66.8495 0.0000 0.0000 0.0000
# 4 0.0000 0.0000 0.0000 -0.1073 0.0000 0.0000
# 5 0.0000 0.0000 0.0000 0.0000 12.1647 0.0000
# 6 0.0000 0.0000 0.0000 0.0000 0.0000 7.2137
#
#
#
# Elastic Compliance Matrix: (Units=1/GPa)
#
#
# Indices 1 2 3 4 5 6 
#
# 1 0.033968 -0.013151 0.002468 0.000000 0.000000 0.000000
# 2 -0.013151 0.009608 -0.001697 0.000000 0.000000 0.000000
# 3 0.002468 -0.001697 0.015260 0.000000 0.000000 0.000000
# 4 0.000000 0.000000 0.000000 -9.320043 0.000000 0.000000
# 5 0.000000 0.000000 0.000000 0.000000 0.082205 0.000000
# 6 0.000000 0.000000 0.000000 0.000000 0.000000 0.138626
#
#
# Mechanical properties :
#
#
# Convention : Reuss Voigt Hill
#
# Bulk Modulus (GPa) = 29.34828 60.52702 44.93765
# Shear Modulus (GPa) = -0.55529 20.96817 10.20644
#
# Velocity S-wave (km/s) = -0.52599 3.23217 2.25502
# Velocity P-wave (km/s) = 3.77535 6.63969 5.40087
#
# Compressibility (1/GPa) = 0.03407355
#
# Stress axis : x y z
#
# Youngs Moduli (GPa) = 29.43990 104.08136 65.53011
#
# Poissons Ratio (x) = 1.36879 -0.16170
# Poissons Ratio (y) = 0.38717 0.11123
# Poissons Ratio (z) = -0.07265 0.17667
#
# Static dielectric constant tensor:
#      x y z
#    x 1.656480 0.000000 0.000000 
#    y 0.000000 1.750290 0.000000 
#    z 0.000000 0.000000 1.790220 
# 
# From -- ./inp_files/34112.got.cif
#   From: 2010.05.17/outbox.cif.g08.bks.cpg/sg65_18_cif.got.tgz:34112.got - 2010.06.03 17:01:31.
