data_PCOD9494285
_publ_section_title
;
Structure prediction by ZEFSAII (Michael W. Deem and Ramdas Pophale) SiO2 
 PCOD9494285
Probable space group: C M M M
;
_chemical_formula_sum "Si O2"
_cell_formula_units_Z 80
_cell_length_a 14.841413
_cell_length_b 7.335107
_cell_length_c 32.007464
_cell_angle_alpha 90.000000
_cell_angle_beta 90.000000
_cell_angle_gamma 90.000000
_cell_volume 3484.439832
_symmetry_space_group_name_H-M "C M M M"
_symmetry_group_IT_number 65
_symmetry_cell_setting 'orthorhombic'
loop_
_space_group_symop_operation_xyz
x,y,z
-x,-y,z
x,-y,-z
-x,y,-z
-x,-y,-z
x,y,-z
-x,y,z
x,-y,z
1/2+x,1/2+y,z
1/2-x,1/2-y,z
1/2+x,1/2-y,-z
1/2-x,1/2+y,-z
1/2-x,1/2-y,-z
1/2+x,1/2+y,-z
1/2-x,1/2+y,z
1/2+x,1/2-y,z
loop_
_atom_site_type_symbol
_atom_site_label
_atom_site_fract_x
_atom_site_fract_y
_atom_site_fract_z
Si Si1 0.356351 0.282465 0.725881
Si Si2 0.500000 0.723015 0.887697
Si Si3 0.141737 0.781966 0.455004
Si Si4 0.141990 0.217615 0.365080
Si Si5 0.855628 0.782865 0.046259
Si Si6 0.500000 0.277070 0.207732
O O1 0.369042 0.500000 0.724151
O O2 0.250000 0.250000 0.730618
O O3 0.387782 0.212192 0.680238
O O4 0.414011 0.217483 0.765006
O O5 0.500000 0.500000 0.886204
O O6 0.414553 0.783264 0.915179
O O7 0.500000 0.785007 0.839982
O O8 0.108419 0.712373 0.500000
O O9 0.250000 0.750000 0.454973
O O10 0.108379 0.712210 0.410010
O O11 0.126828 0.000000 0.455049
O O12 0.250000 0.250000 0.365028
O O13 0.125952 0.000000 0.365392
O O14 0.750000 0.750000 0.052213
O O15 0.869793 0.000000 0.044653
O O16 0.880801 0.711819 0.000000
O O17 0.500000 0.500000 0.206439
#
# Coordination Sequence:
#
# PCOD9494285 Si02
#       6
#    16   8  16  16  16   8
#     4   9  17  30  47  65  86 113 146 184 223 263
#     4   9  17  30  48  68  92 123 156 187 220 264
#     4   8  12  17  26  43  68  95 122 155 196 242
#     4   8  13  21  34  52  73  99 131 166 205 249
#     4   9  17  30  49  72  96 123 155 188 222 262
#     4   9  18  31  47  68  91 118 153 187 222 266
#
# _framework density 22.959213999999999
#
# number of rings (size 3 to 8) (size 9 to 14) (size 15 to 20)
#    0.000    3.400    0.000    0.300    0.000    2.000 
#    0.000    1.000    0.000    3.600    0.000    0.700 
#    0.000    5.600    0.000    0.000    0.000  335.200 
#
# Total GULP energy -223060.563854 kJ/mol
# GULP energy per Si atom -5576.514096 kJ/mol
# Density = 2.290696 g / cm^3
# Si number density = 22.959214 Si / 1000 Ang^3
#
#
#
# Elastic Constant Matrix: (Units=GPa)
#
#
# Indices 1 2 3 4 5 6 
#
# 1 98.7173 -6.3872 105.0418 0.0000 0.0000 0.0000
# 2 -6.3872 95.4164 14.6110 0.0000 0.0000 0.0000
# 3 105.0418 14.6110 332.3208 0.0000 0.0000 0.0000
# 4 0.0000 0.0000 0.0000 -1.1452 0.0000 0.0000
# 5 0.0000 0.0000 0.0000 0.0000 38.9205 0.0000
# 6 0.0000 0.0000 0.0000 0.0000 0.0000 0.5486
#
#
#
# Elastic Compliance Matrix: (Units=1/GPa)
#
#
# Indices 1 2 3 4 5 6 
#
# 1 0.015567 0.001808 -0.005000 0.000000 0.000000 0.000000
# 2 0.001808 0.010761 -0.001045 0.000000 0.000000 0.000000
# 3 -0.005000 -0.001045 0.004636 0.000000 0.000000 0.000000
# 4 0.000000 0.000000 0.000000 -0.873199 0.000000 0.000000
# 5 0.000000 0.000000 0.000000 0.000000 0.025693 0.000000
# 6 0.000000 0.000000 0.000000 0.000000 0.000000 1.822928
#
#
# Mechanical properties :
#
#
# Convention : Reuss Voigt Hill
#
# Bulk Modulus (GPa) = 44.46339 83.66507 64.06423
# Shear Modulus (GPa) = 4.89066 35.21070 20.05068
#
# Velocity S-wave (km/s) = 1.46109 3.92039 2.95840
# Velocity P-wave (km/s) = 4.71748 7.55066 6.29552
#
# Compressibility (1/GPa) = 0.02249041
#
# Stress axis : x y z
#
# Youngs Moduli (GPa) = 64.23716 92.92526 215.72559
#
# Poissons Ratio (x) = -0.16798 1.07865
# Poissons Ratio (y) = -0.11612 0.22533
# Poissons Ratio (z) = 0.32119 0.09706
#
# Static dielectric constant tensor:
#      x y z
#    x 1.765480 0.000000 0.000000 
#    y 0.000000 1.889640 0.000000 
#    z 0.000000 0.000000 1.877000 
# 
# From -- ./inp_files/75076.got.cif
#   From: 2010.05.17/outbox.cif.g08.bks.cpg/sg65_38_cif.got.tgz:75076.got - 2010.06.03 17:01:31.
