data_PCOD9494201
_publ_section_title
;
Structure prediction by ZEFSAII (Michael W. Deem and Ramdas Pophale) SiO2 
 PCOD9494201
Probable space group: C M M M
;
_chemical_formula_sum "Si O2"
_cell_formula_units_Z 80
_cell_length_a 20.180349
_cell_length_b 27.089939
_cell_length_c 7.447059
_cell_angle_alpha 90.000000
_cell_angle_beta 90.000000
_cell_angle_gamma 90.000000
_cell_volume 4071.191156
_symmetry_space_group_name_H-M "C M M M"
_symmetry_group_IT_number 65
_symmetry_cell_setting 'orthorhombic'
loop_
_space_group_symop_operation_xyz
x,y,z
-x,-y,z
x,-y,-z
-x,y,-z
-x,-y,-z
x,y,-z
-x,y,z
x,-y,z
1/2+x,1/2+y,z
1/2-x,1/2-y,z
1/2+x,1/2-y,-z
1/2-x,1/2+y,-z
1/2-x,1/2-y,-z
1/2+x,1/2+y,-z
1/2-x,1/2+y,z
1/2+x,1/2-y,z
loop_
_atom_site_type_symbol
_atom_site_label
_atom_site_fract_x
_atom_site_fract_y
_atom_site_fract_z
Si Si1 0.580730 0.500000 0.707213
Si Si2 0.076627 0.392296 0.220092
Si Si3 0.673500 0.805772 0.219451
Si Si4 0.580557 0.000000 0.791436
Si Si5 0.424949 0.393047 0.714805
Si Si6 0.175603 0.804936 0.214642
O O1 0.500000 0.500000 0.707021
O O2 0.603759 0.500000 0.500000
O O3 0.599136 0.553400 0.786056
O O4 0.123349 0.347952 0.279531
O O5 0.099971 0.446623 0.283317
O O6 0.000000 0.384982 0.272619
O O7 0.077144 0.393580 0.000000
O O8 0.749339 0.815267 0.277107
O O9 0.655618 0.750014 0.277205
O O10 0.672217 0.806617 0.000000
O O11 0.500000 0.000000 0.788338
O O12 0.601301 0.000000 0.000000
O O13 0.429729 0.399011 0.500000
O O14 0.500000 0.383273 0.780938
O O15 0.375720 0.348073 0.745933
O O16 0.179847 0.801505 0.000000
#
# Coordination Sequence:
#
# PCOD9494201 Si02
#       6
#     8  16  16   8  16  16
#     4   7  12  26  46  63  81 109 140 169 210 262
#     4   8  12  19  33  51  70  97 135 171 199 234
#     4   8  15  27  39  53  81 118 144 164 202 255
#     4   7  10  16  27  46  70  94 126 169 204 228
#     4   9  17  30  48  67  85 108 142 181 216 254
#     4   9  17  29  43  60  86 116 142 171 208 249
#
# _framework density 19.650269000000002
#
# number of rings (size 3 to 8) (size 9 to 14) (size 15 to 20)
#    0.000    3.800    0.000    3.600    0.000    1.200 
#    0.000    5.500    0.000    4.200    0.000    0.000 
#    0.000    0.000    0.000    0.000    0.000   22.400 
#
# Total GULP energy -222697.420749 kJ/mol
# GULP energy per Si atom -5567.435519 kJ/mol
# Density = 1.960554 g / cm^3
# Si number density = 19.650269 Si / 1000 Ang^3
#
#
#
# Elastic Constant Matrix: (Units=GPa)
#
#
# Indices 1 2 3 4 5 6 
#
# 1 92.9032 128.7485 3.4373 0.0000 0.0000 0.0000
# 2 128.7485 253.4094 7.5411 0.0000 0.0000 0.0000
# 3 3.4373 7.5411 56.7086 0.0000 0.0000 0.0000
# 4 0.0000 0.0000 0.0000 8.2510 0.0000 0.0000
# 5 0.0000 0.0000 0.0000 0.0000 5.6299 0.0000
# 6 0.0000 0.0000 0.0000 0.0000 0.0000 -34.8846
#
#
#
# Elastic Compliance Matrix: (Units=1/GPa)
#
#
# Indices 1 2 3 4 5 6 
#
# 1 0.036380 -0.018491 0.000254 0.000000 0.000000 0.000000
# 2 -0.018491 0.013360 -0.000656 0.000000 0.000000 0.000000
# 3 0.000254 -0.000656 0.017706 0.000000 0.000000 0.000000
# 4 0.000000 0.000000 0.000000 0.121198 0.000000 0.000000
# 5 0.000000 0.000000 0.000000 0.000000 0.177623 0.000000
# 6 0.000000 0.000000 0.000000 0.000000 0.000000 -0.028666
#
#
# Mechanical properties :
#
#
# Convention : Reuss Voigt Hill
#
# Bulk Modulus (GPa) = 33.71534 75.83053 54.77294
# Shear Modulus (GPa) = 12.97780 13.35221 13.16501
#
# Velocity S-wave (km/s) = 2.57269 2.60954 2.59118
# Velocity P-wave (km/s) = 5.10097 6.91038 6.07344
#
# Compressibility (1/GPa) = 0.02966009
#
# Stress axis : x y z
#
# Youngs Moduli (GPa) = 27.48785 74.84896 56.47855
#
# Poissons Ratio (x) = 1.38402 -0.01434
# Poissons Ratio (y) = 0.50827 0.03704
# Poissons Ratio (z) = -0.00698 0.04909
#
# Static dielectric constant tensor:
#      x y z
#    x 1.649890 0.000000 0.000000 
#    y 0.000000 1.726720 0.000000 
#    z 0.000000 0.000000 1.752220 
# 
# From -- ./inp_files/12112.got.cif
#   From: 2010.05.17/outbox.cif.g08.bks.cpg/sg65_7_cif.got.tgz:12112.got - 2010.06.03 17:01:31.
