data_PCOD9494018
_publ_section_title
;
Structure prediction by ZEFSAII (Michael W. Deem and Ramdas Pophale) SiO2 
 PCOD9494018
Probable space group: C M M M
;
_chemical_formula_sum "Si O2"
_cell_formula_units_Z 44
_cell_length_a 9.820656
_cell_length_b 29.308385
_cell_length_c 7.377132
_cell_angle_alpha 90.000000
_cell_angle_beta 90.000000
_cell_angle_gamma 90.000000
_cell_volume 2123.341955
_symmetry_space_group_name_H-M "C M M M"
_symmetry_group_IT_number 65
_symmetry_cell_setting 'orthorhombic'
loop_
_space_group_symop_operation_xyz
x,y,z
-x,-y,z
x,-y,-z
-x,y,-z
-x,-y,-z
x,y,-z
-x,y,z
x,-y,z
1/2+x,1/2+y,z
1/2-x,1/2-y,z
1/2+x,1/2-y,-z
1/2-x,1/2+y,-z
1/2-x,1/2-y,-z
1/2+x,1/2+y,-z
1/2-x,1/2+y,z
1/2+x,1/2-y,z
loop_
_atom_site_type_symbol
_atom_site_label
_atom_site_fract_x
_atom_site_fract_y
_atom_site_fract_z
Si Si1 0.269403 0.608958 0.791589
Si Si2 0.500000 0.412581 0.500000
Si Si3 0.000000 0.552780 0.281641
Si Si4 0.156978 0.707780 0.779477
O O1 0.381397 0.589386 0.658069
O O2 0.133909 0.578501 0.785469
O O3 0.225159 0.659815 0.729688
O O4 0.317129 0.612015 0.000000
O O5 0.000000 0.500000 0.227090
O O6 0.000000 0.554898 0.500000
O O7 0.250000 0.750000 0.719672
O O8 0.000000 0.710725 0.718587
O O9 0.153561 0.708659 0.000000
#
# Coordination Sequence:
#
# PCOD9494018 Si02
#       4
#    16   4   8  16
#     4  11  23  43  69  97 133 180 227 276 335 399
#     4  12  26  42  63  96 138 176 214 276 335 402
#     4  11  23  45  76 104 133 173 223 285 341 393
#     4   9  18  33  59  94 130 170 219 271 329 395
#
# _framework density 20.722051
#
# number of rings (size 3 to 8) (size 9 to 14) (size 15 to 20)
#    0.000    1.636    3.636    1.091    2.545    1.455 
#    0.000    2.727    4.000    2.182    0.000    0.000 
#    0.000    0.000    0.000    0.000    0.000    0.000 
#
# Total GULP energy -122495.635315 kJ/mol
# GULP energy per Si atom -5567.983423 kJ/mol
# Density = 2.067489 g / cm^3
# Si number density = 20.722051 Si / 1000 Ang^3
#
#
#
# Elastic Constant Matrix: (Units=GPa)
#
#
# Indices 1 2 3 4 5 6 
#
# 1 142.9303 14.5558 38.0307 0.0000 0.0000 0.0000
# 2 14.5558 95.2767 5.3672 0.0000 0.0000 0.0000
# 3 38.0307 5.3672 120.2093 0.0000 0.0000 0.0000
# 4 0.0000 0.0000 0.0000 8.0967 0.0000 0.0000
# 5 0.0000 0.0000 0.0000 0.0000 51.8179 0.0000
# 6 0.0000 0.0000 0.0000 0.0000 0.0000 26.1521
#
#
#
# Elastic Compliance Matrix: (Units=1/GPa)
#
#
# Indices 1 2 3 4 5 6 
#
# 1 0.007742 -0.001047 -0.002403 0.000000 0.000000 0.000000
# 2 -0.001047 0.010664 -0.000145 0.000000 0.000000 0.000000
# 3 -0.002403 -0.000145 0.009085 0.000000 0.000000 0.000000
# 4 0.000000 0.000000 0.000000 0.123506 0.000000 0.000000
# 5 0.000000 0.000000 0.000000 0.000000 0.019298 0.000000
# 6 0.000000 0.000000 0.000000 0.000000 0.000000 0.038238
#
#
# Mechanical properties :
#
#
# Convention : Reuss Voigt Hill
#
# Bulk Modulus (GPa) = 49.25647 52.70266 50.97956
# Shear Modulus (GPa) = 22.47277 37.24420 29.85848
#
# Velocity S-wave (km/s) = 3.29673 4.24408 3.80004
# Velocity P-wave (km/s) = 6.18974 7.03595 6.62637
#
# Compressibility (1/GPa) = 0.02030190
#
# Stress axis : x y z
#
# Youngs Moduli (GPa) = 129.15896 93.77410 110.06634
#
# Poissons Ratio (x) = 0.09823 0.26446
# Poissons Ratio (y) = 0.13529 0.01593
# Poissons Ratio (z) = 0.31033 0.01357
#
# Static dielectric constant tensor:
#      x y z
#    x 1.675470 0.000000 0.000000 
#    y 0.000000 1.720640 0.000000 
#    z 0.000000 0.000000 1.788240 
# 
# From -- ./inp_files/2869.got.cif
#   From: 2010.05.17/outbox.cif.g08.bks.cpg/sg65_2_cif.got.tgz:2869.got - 2010.06.03 17:01:31.
