data_PCOD9494575
_publ_section_title
;
Structure prediction by ZEFSAII (Michael W. Deem and Ramdas Pophale) SiO2 
 PCOD9494575
Probable space group: C M M M
;
_chemical_formula_sum "Si O2"
_cell_formula_units_Z 52
_cell_length_a 9.000000
_cell_length_b 27.000000
_cell_length_c 24.000000
_cell_angle_alpha 90.000000
_cell_angle_beta 90.000000
_cell_angle_gamma 90.000000
_cell_volume 5832.000000
_symmetry_space_group_name_H-M "C M M M"
_symmetry_group_IT_number 65
_symmetry_cell_setting 'orthorhombic'
loop_
_space_group_symop_operation_xyz
x,y,z
-x,-y,z
x,-y,-z
-x,y,-z
-x,-y,-z
x,y,-z
-x,y,z
x,-y,z
1/2+x,1/2+y,z
1/2-x,1/2-y,z
1/2+x,1/2-y,-z
1/2-x,1/2+y,-z
1/2-x,1/2-y,-z
1/2+x,1/2+y,-z
1/2-x,1/2+y,z
1/2+x,1/2-y,z
loop_
_atom_site_type_symbol
_atom_site_label
_atom_site_fract_x
_atom_site_fract_y
_atom_site_fract_z
Si Si1 0.829634 0.060213 0.000000
Si Si2 0.834055 0.798150 0.740163
Si Si3 0.670542 0.000000 0.281462
Si Si4 0.176458 0.442864 0.111894
Si Si5 0.330588 0.107333 0.435296
Si Si6 0.322438 0.899172 0.229832
Si Si7 0.834800 0.798127 0.393246
Si Si8 0.170545 0.500000 0.413703
O O1 0.751576 0.076453 0.943693
O O2 0.000000 0.074239 0.000000
O O3 0.818823 0.000000 0.000000
O O4 0.750000 0.750000 0.762305
O O5 0.750028 0.848749 0.751515
O O6 0.843230 0.792573 0.673352
O O7 0.000000 0.800446 0.762796
O O8 0.736380 0.948191 0.261333
O O9 0.500000 0.000000 0.258523
O O10 0.664848 0.000000 0.347402
O O11 0.224486 0.500000 0.122888
O O12 0.207018 0.410009 0.165327
O O13 0.000000 0.444410 0.103505
O O14 0.336723 0.120495 0.500000
O O15 0.500000 0.104118 0.413014
O O16 0.246374 0.150589 0.404629
O O17 0.262307 0.052413 0.430929
O O18 0.500000 0.895905 0.239278
O O19 0.750000 0.750000 0.415597
O O20 0.000000 0.799742 0.416713
O O21 0.000000 0.500000 0.436143
#
# Coordination Sequence:
#
# PCOD9494575 Si02
#       8
#     8  16   8  16  16  16  16   8
#     4   9  17  27  41  63  94 135 178 215 253 294
#     4  10  21  36  53  74  99 130 167 207 250 299
#     4   9  16  27  47  75 103 132 165 198 241 296
#     4   9  16  28  45  68 100 136 173 209 247 294
#     4  10  20  34  53  77 102 129 164 204 246 293
#     4  10  18  30  50  76 105 135 168 207 249 297
#     4  10  21  37  56  76  99 127 162 203 252 304
#     4   9  17  30  50  74 101 133 166 200 237 286
#
# _framework density 8.9163239999999995
#
# number of rings (size 3 to 8) (size 9 to 14) (size 15 to 20)
#    0.000    2.385    0.769    2.308    0.000    6.154 
#    0.000    0.769    0.000    3.692    0.000    0.538 
#    0.000    0.000    0.000    0.000    0.000    0.000 
#
# Total GULP energy -289696.078870 kJ/mol
# GULP energy per Si atom -5571.078440 kJ/mol
# Density = 0.889603 g / cm^3
# Si number density = 8.916324 Si / 1000 Ang^3
#
#
#
# Elastic Constant Matrix: (Units=GPa)
#
#
# Indices 1 2 3 4 5 6 
#
# 1 34.7281 51.2271 29.7218 0.0000 0.0000 0.0000
# 2 51.2271 125.0260 16.0064 0.0000 0.0000 0.0000
# 3 29.7218 16.0064 41.9686 0.0000 0.0000 0.0000
# 4 0.0000 0.0000 0.0000 71.0467 0.0000 0.0000
# 5 0.0000 0.0000 0.0000 0.0000 6.4126 0.0000
# 6 0.0000 0.0000 0.0000 0.0000 0.0000 16.1508
#
#
#
# Elastic Compliance Matrix: (Units=1/GPa)
#
#
# Indices 1 2 3 4 5 6 
#
# 1 3.356797 -1.126019 -1.947806 0.000000 0.000000 0.000000
# 2 -1.126019 0.386126 0.650174 0.000000 0.000000 0.000000
# 3 -1.947806 0.650174 1.155279 0.000000 0.000000 0.000000
# 4 0.000000 0.000000 0.000000 0.014075 0.000000 0.000000
# 5 0.000000 0.000000 0.000000 0.000000 0.155944 0.000000
# 6 0.000000 0.000000 0.000000 0.000000 0.000000 0.061916
#
#
# Mechanical properties :
#
#
# Convention : Reuss Voigt Hill
#
# Bulk Modulus (GPa) = 19.64662 43.95927 31.80294
# Shear Modulus (GPa) = 0.50028 25.70650 13.10339
#
# Velocity S-wave (km/s) = 0.53024 3.80088 2.71366
# Velocity P-wave (km/s) = 3.37876 6.63075 5.26226
#
# Compressibility (1/GPa) = 0.05089935
#
# Stress axis : x y z
#
# Youngs Moduli (GPa) = 0.29790 2.58983 0.86559
#
# Poissons Ratio (x) = 2.91620 1.68600
# Poissons Ratio (y) = 0.33544 -0.56278
# Poissons Ratio (z) = 0.58026 -1.68384
#
# Static dielectric constant tensor:
#      x y z
#    x 1.643870 0.000000 0.000000 
#    y 0.000000 1.599890 0.000000 
#    z 0.000000 0.000000 1.607610 
# 
# From -- ./inp_files/68331.got.cif
#   From: 2010.05.17/outbox.ucp.g08.bks.cvg/sg65_35_cif.got.tgz:68331.got - 2010.06.11 16:39:57.
