data_PCOD9494818
_publ_section_title
;
Structure prediction by ZEFSAII (Michael W. Deem and Ramdas Pophale) SiO2 
 PCOD9494818
Probable space group: C M M M
;
_chemical_formula_sum "Si O2"
_cell_formula_units_Z 36
_cell_length_a 9.000000
_cell_length_b 18.000000
_cell_length_c 24.000000
_cell_angle_alpha 90.000000
_cell_angle_beta 90.000000
_cell_angle_gamma 90.000000
_cell_volume 3888.000000
_symmetry_space_group_name_H-M "C M M M"
_symmetry_group_IT_number 65
_symmetry_cell_setting 'orthorhombic'
loop_
_space_group_symop_operation_xyz
x,y,z
-x,-y,z
x,-y,-z
-x,y,-z
-x,-y,-z
x,y,-z
-x,y,z
x,-y,z
1/2+x,1/2+y,z
1/2-x,1/2-y,z
1/2+x,1/2-y,-z
1/2-x,1/2+y,-z
1/2-x,1/2-y,-z
1/2+x,1/2+y,-z
1/2-x,1/2+y,z
1/2+x,1/2-y,z
loop_
_atom_site_type_symbol
_atom_site_label
_atom_site_fract_x
_atom_site_fract_y
_atom_site_fract_z
Si Si1 0.671944 0.410520 0.833788
Si Si2 0.680443 0.415153 0.500000
Si Si3 0.822421 0.331433 0.937161
Si Si4 0.673896 0.089608 0.281733
Si Si5 0.679022 0.668782 0.613272
O O1 0.500000 0.386409 0.832801
O O2 0.675089 0.500000 0.834996
O O3 0.752975 0.380089 0.888310
O O4 0.754625 0.386760 0.777126
O O5 0.733801 0.500000 0.500000
O O6 0.500000 0.416896 0.500000
O O7 0.724638 0.373080 0.443677
O O8 0.750000 0.250000 0.933563
O O9 0.000000 0.326272 0.930758
O O10 0.791669 0.360225 0.000000
O O11 0.500000 0.109884 0.283736
O O12 0.760947 0.124857 0.333220
O O13 0.684686 0.000000 0.285067
O O14 0.500000 0.672873 0.615004
O O15 0.750000 0.750000 0.613236
#
# Coordination Sequence:
#
# PCOD9494818 Si02
#       5
#    16   8  16  16  16
#     4  10  21  37  58  84 113 146 185 229 277 330
#     4   9  19  36  59  85 112 147 188 229 276 330
#     4  10  21  37  57  81 111 147 186 229 278 332
#     4  10  21  38  59  83 112 145 184 230 279 332
#     4  11  22  37  58  84 116 150 187 230 276 328
#
# _framework density 9.2592590000000001
#
# number of rings (size 3 to 8) (size 9 to 14) (size 15 to 20)
#    0.000    1.889    0.000    3.667    0.000    6.222 
#    0.000    8.333    0.000    4.000    0.000    0.000 
#    0.000    0.000    0.000    0.000    0.000    0.000 
#
# Total GULP energy -201099.619071 kJ/mol
# GULP energy per Si atom -5586.100530 kJ/mol
# Density = 0.923818 g / cm^3
# Si number density = 9.259259 Si / 1000 Ang^3
#
#
#
# Elastic Constant Matrix: (Units=GPa)
#
#
# Indices 1 2 3 4 5 6 
#
# 1 125.0516 44.1074 89.9737 0.0000 0.0000 0.0000
# 2 44.1074 43.0031 57.9191 0.0000 0.0000 0.0000
# 3 89.9737 57.9191 199.3439 0.0000 0.0000 0.0000
# 4 0.0000 0.0000 0.0000 49.8043 0.0000 0.0000
# 5 0.0000 0.0000 0.0000 0.0000 33.1353 0.0000
# 6 0.0000 0.0000 0.0000 0.0000 0.0000 25.7641
#
#
#
# Elastic Compliance Matrix: (Units=1/GPa)
#
#
# Indices 1 2 3 4 5 6 
#
# 1 0.013868 -0.009518 -0.003494 0.000000 0.000000 0.000000
# 2 -0.009518 0.044738 -0.008702 0.000000 0.000000 0.000000
# 3 -0.003494 -0.008702 0.009122 0.000000 0.000000 0.000000
# 4 0.000000 0.000000 0.000000 0.020079 0.000000 0.000000
# 5 0.000000 0.000000 0.000000 0.000000 0.030179 0.000000
# 6 0.000000 0.000000 0.000000 0.000000 0.000000 0.038814
#
#
# Mechanical properties :
#
#
# Convention : Reuss Voigt Hill
#
# Bulk Modulus (GPa) = 41.15480 83.48880 62.32180
# Shear Modulus (GPa) = 24.00075 33.43398 28.71736
#
# Velocity S-wave (km/s) = 3.60396 4.25365 3.94221
# Velocity P-wave (km/s) = 6.29205 8.32506 7.37890
#
# Compressibility (1/GPa) = 0.02429850
#
# Stress axis : x y z
#
# Youngs Moduli (GPa) = 72.11090 22.35243 109.62794
#
# Poissons Ratio (x) = 0.21276 0.38299
# Poissons Ratio (y) = 0.68637 0.95403
# Poissons Ratio (z) = 0.25192 0.19452
#
# Static dielectric constant tensor:
#      x y z
#    x 1.620750 0.000000 0.000000 
#    y 0.000000 1.621280 0.000000 
#    z 0.000000 0.000000 1.612660 
# 
# From -- ./inp_files/64334.got.cif
#   From: 2010.05.17/outbox.ucp.g08.bks.cvg/sg65_33_cif.got.tgz:64334.got - 2010.06.11 16:39:57.
