data_PCOD9494836
_publ_section_title
;
Structure prediction by ZEFSAII (Michael W. Deem and Ramdas Pophale) SiO2 
 PCOD9494836
Probable space group: C M M M
;
_chemical_formula_sum "Si O2"
_cell_formula_units_Z 44
_cell_length_a 9.000000
_cell_length_b 21.000000
_cell_length_c 24.000000
_cell_angle_alpha 90.000000
_cell_angle_beta 90.000000
_cell_angle_gamma 90.000000
_cell_volume 4536.000000
_symmetry_space_group_name_H-M "C M M M"
_symmetry_group_IT_number 65
_symmetry_cell_setting 'orthorhombic'
loop_
_space_group_symop_operation_xyz
x,y,z
-x,-y,z
x,-y,-z
-x,y,-z
-x,-y,-z
x,y,-z
-x,y,z
x,-y,z
1/2+x,1/2+y,z
1/2-x,1/2-y,z
1/2+x,1/2-y,-z
1/2-x,1/2+y,-z
1/2-x,1/2-y,-z
1/2+x,1/2+y,-z
1/2-x,1/2+y,z
1/2+x,1/2-y,z
loop_
_atom_site_type_symbol
_atom_site_label
_atom_site_fract_x
_atom_site_fract_y
_atom_site_fract_z
Si Si1 0.324303 0.313320 0.289876
Si Si2 0.348227 0.191077 0.500000
Si Si3 0.323000 0.500000 0.433443
Si Si4 0.671788 0.921995 0.000000
Si Si5 0.667375 0.576639 0.110756
Si Si6 0.668656 0.879267 0.614096
Si Si7 0.325608 0.074652 0.224603
O O1 0.500000 0.305995 0.292892
O O2 0.250000 0.250000 0.264837
O O3 0.248669 0.326381 0.349175
O O4 0.276363 0.377615 0.258752
O O5 0.500000 0.227124 0.500000
O O6 0.250000 0.250000 0.500000
O O7 0.340046 0.147960 0.552898
O O8 0.500000 0.500000 0.435880
O O9 0.272108 0.500000 0.500000
O O10 0.264541 0.558485 0.396514
O O11 0.760313 0.899716 0.054073
O O12 0.500000 0.902654 0.000000
O O13 0.671913 0.000000 0.000000
O O14 0.500000 0.600751 0.121105
O O15 0.655700 0.500000 0.105686
O O16 0.779484 0.587109 0.161108
O O17 0.500000 0.892498 0.634484
O O18 0.500000 0.086851 0.233227
O O19 0.297264 0.000000 0.237096
#
# Coordination Sequence:
#
# PCOD9494836 Si02
#       7
#    16   8   8   8  16  16  16
#     4  12  26  44  64  88 118 153 198 246 296 353
#     4  10  22  37  58  83 109 144 182 226 281 340
#     4  11  23  39  61  91 121 153 189 230 281 342
#     4   9  15  23  39  67 106 151 194 237 288 347
#     4   9  16  27  45  73 110 150 192 240 292 346
#     4  11  23  41  62  86 116 152 190 234 287 344
#     4  10  21  38  60  86 117 155 197 243 297 354
#
# _framework density 9.7001760000000008
#
# number of rings (size 3 to 8) (size 9 to 14) (size 15 to 20)
#    0.000    1.636    0.909    4.364    1.273    7.636 
#    0.000    0.000    0.000    0.000    0.000    0.636 
#    0.000    0.000    0.000    0.000    0.000    0.000 
#
# Total GULP energy -244998.877978 kJ/mol
# GULP energy per Si atom -5568.156318 kJ/mol
# Density = 0.967810 g / cm^3
# Si number density = 9.700176 Si / 1000 Ang^3
#
#
#
# Elastic Constant Matrix: (Units=GPa)
#
#
# Indices 1 2 3 4 5 6 
#
# 1 118.2780 41.6442 23.4009 0.0000 0.0000 0.0000
# 2 41.6442 48.9243 7.0207 0.0000 0.0000 0.0000
# 3 23.4009 7.0207 76.8676 0.0000 0.0000 0.0000
# 4 0.0000 0.0000 0.0000 12.1559 0.0000 0.0000
# 5 0.0000 0.0000 0.0000 0.0000 14.3110 0.0000
# 6 0.0000 0.0000 0.0000 0.0000 0.0000 20.0703
#
#
#
# Elastic Compliance Matrix: (Units=1/GPa)
#
#
# Indices 1 2 3 4 5 6 
#
# 1 0.012686 -0.010380 -0.002914 0.000000 0.000000 0.000000
# 2 -0.010380 0.029204 0.000493 0.000000 0.000000 0.000000
# 3 -0.002914 0.000493 0.013851 0.000000 0.000000 0.000000
# 4 0.000000 0.000000 0.000000 0.082264 0.000000 0.000000
# 5 0.000000 0.000000 0.000000 0.000000 0.069876 0.000000
# 6 0.000000 0.000000 0.000000 0.000000 0.000000 0.049825
#
#
# Mechanical properties :
#
#
# Convention : Reuss Voigt Hill
#
# Bulk Modulus (GPa) = 33.17938 43.13348 38.15643
# Shear Modulus (GPa) = 17.04414 20.77440 18.90927
#
# Velocity S-wave (km/s) = 2.96725 3.27590 3.12538
# Velocity P-wave (km/s) = 5.37392 6.04899 5.72142
#
# Compressibility (1/GPa) = 0.03013920
#
# Stress axis : x y z
#
# Youngs Moduli (GPa) = 78.82820 34.24135 72.19445
#
# Poissons Ratio (x) = 0.35542 0.21037
# Poissons Ratio (y) = 0.81823 -0.03556
# Poissons Ratio (z) = 0.22970 -0.01687
#
# Static dielectric constant tensor:
#      x y z
#    x 1.719780 0.000000 0.000000 
#    y 0.000000 1.394960 0.000000 
#    z 0.000000 0.000000 1.753520 
# 
# From -- ./inp_files/67694.got.cif
#   From: 2010.05.17/outbox.ucp.g08.bks.cvg/sg65_34_cif.got.tgz:67694.got - 2010.06.11 16:39:57.
