data_PCOD9494131
_publ_section_title
;
Structure prediction by ZEFSAII (Michael W. Deem and Ramdas Pophale) SiO2 
 PCOD9494131
Probable space group: C M M M
;
_chemical_formula_sum "Si O2"
_cell_formula_units_Z 96
_cell_length_a 29.269182
_cell_length_b 14.459369
_cell_length_c 14.194050
_cell_angle_alpha 90.000000
_cell_angle_beta 90.000000
_cell_angle_gamma 90.000000
_cell_volume 6007.119298
_symmetry_space_group_name_H-M "C M M M"
_symmetry_group_IT_number 65
_symmetry_cell_setting 'orthorhombic'
loop_
_space_group_symop_operation_xyz
x,y,z
-x,-y,z
x,-y,-z
-x,y,-z
-x,-y,-z
x,y,-z
-x,y,z
x,-y,z
1/2+x,1/2+y,z
1/2-x,1/2-y,z
1/2+x,1/2-y,-z
1/2-x,1/2+y,-z
1/2-x,1/2-y,-z
1/2+x,1/2+y,-z
1/2-x,1/2+y,z
1/2+x,1/2-y,z
loop_
_atom_site_type_symbol
_atom_site_label
_atom_site_fract_x
_atom_site_fract_y
_atom_site_fract_z
Si Si1 0.174104 0.730299 0.111761
Si Si2 0.946541 0.606269 0.613013
Si Si3 0.867551 0.276675 0.297703
Si Si4 0.319870 0.391313 0.386443
Si Si5 0.784558 0.610674 0.388507
Si Si6 0.240000 0.102728 0.113515
O O1 0.133274 0.720755 0.184589
O O2 0.200776 0.824726 0.138853
O O3 0.211006 0.649220 0.130480
O O4 0.163916 0.731054 0.000000
O O5 0.941330 0.612927 0.500000
O O6 0.934801 0.500000 0.639211
O O7 0.912842 0.677990 0.661162
O O8 0.000000 0.621222 0.634732
O O9 0.856076 0.174882 0.336814
O O10 0.824233 0.336602 0.334554
O O11 0.322488 0.379930 0.500000
O O12 0.326327 0.500000 0.366311
O O13 0.267434 0.365707 0.359105
O O14 0.788617 0.632346 0.500000
O O15 0.789667 0.500000 0.378575
O O16 0.235777 0.000000 0.153859
O O17 0.236893 0.096583 0.000000
#
# Coordination Sequence:
#
# PCOD9494131 Si02
#       6
#    16  16  16  16  16  16
#     4   9  20  32  41  65  96 123 164 208 237 269
#     4   9  19  36  56  78 100 117 144 195 249 293
#     4  12  20  28  50  72  89 127 166 196 234 290
#     4   9  19  32  43  64 101 133 157 191 231 278
#     4   9  18  30  43  65  97 126 155 192 231 279
#     4   8  15  30  46  57  83 128 167 201 240 272
#
# _framework density 15.981038
#
# number of rings (size 3 to 8) (size 9 to 14) (size 15 to 20)
#    0.000    2.667    0.000    5.000    4.667    4.667 
#    0.000    0.000    0.000    1.000    0.000    3.500 
#    0.000    0.000    0.000    5.667    0.000    0.167 
#
# Total GULP energy -267833.067985 kJ/mol
# GULP energy per Si atom -5579.855583 kJ/mol
# Density = 1.594466 g / cm^3
# Si number density = 15.981038 Si / 1000 Ang^3
#
#
#
# Elastic Constant Matrix: (Units=GPa)
#
#
# Indices 1 2 3 4 5 6 
#
# 1 55.7868 37.5635 32.2332 0.0000 0.0000 0.0000
# 2 37.5635 78.0994 23.4596 0.0000 0.0000 0.0000
# 3 32.2332 23.4596 66.1767 0.0000 0.0000 0.0000
# 4 0.0000 0.0000 0.0000 0.2588 0.0000 0.0000
# 5 0.0000 0.0000 0.0000 0.0000 20.5858 0.0000
# 6 0.0000 0.0000 0.0000 0.0000 0.0000 24.2338
#
#
#
# Elastic Compliance Matrix: (Units=1/GPa)
#
#
# Indices 1 2 3 4 5 6 
#
# 1 0.033006 -0.012362 -0.011694 0.000000 0.000000 0.000000
# 2 -0.012362 0.018960 -0.000700 0.000000 0.000000 0.000000
# 3 -0.011694 -0.000700 0.021055 0.000000 0.000000 0.000000
# 4 0.000000 0.000000 0.000000 3.863520 0.000000 0.000000
# 5 0.000000 0.000000 0.000000 0.000000 0.048577 0.000000
# 6 0.000000 0.000000 0.000000 0.000000 0.000000 0.041265
#
#
# Mechanical properties :
#
#
# Convention : Reuss Voigt Hill
#
# Bulk Modulus (GPa) = 42.53732 42.95284 42.74508
# Shear Modulus (GPa) = 1.22437 16.13612 8.68024
#
# Velocity S-wave (km/s) = 0.87624 3.18103 2.33311
# Velocity P-wave (km/s) = 5.26297 6.35828 5.83638
#
# Compressibility (1/GPa) = 0.02350877
#
# Stress axis : x y z
#
# Youngs Moduli (GPa) = 30.29725 52.74152 47.49421
#
# Poissons Ratio (x) = 0.65201 0.55541
# Poissons Ratio (y) = 0.37455 0.03325
# Poissons Ratio (z) = 0.35430 0.03692
#
# Static dielectric constant tensor:
#      x y z
#    x 1.490350 0.000000 0.000000 
#    y 0.000000 1.566020 0.000000 
#    z 0.000000 0.000000 1.576340 
# 
# From -- ./inp_files/41261.got.cif
#   From: 2010.05.17/outbox.cif.g08.bks.cpg/sg65_21_cif.got.tgz:41261.got - 2010.06.03 17:01:31.
