data_PCOD9494515
_publ_section_title
;
Structure prediction by ZEFSAII (Michael W. Deem and Ramdas Pophale) SiO2 
 PCOD9494515
Probable space group: C M M M
;
_chemical_formula_sum "Si O2"
_cell_formula_units_Z 104
_cell_length_a 18.658741
_cell_length_b 37.278424
_cell_length_c 7.595674
_cell_angle_alpha 90.000000
_cell_angle_beta 90.000000
_cell_angle_gamma 90.000000
_cell_volume 5283.311254
_symmetry_space_group_name_H-M "C M M M"
_symmetry_group_IT_number 65
_symmetry_cell_setting 'orthorhombic'
loop_
_space_group_symop_operation_xyz
x,y,z
-x,-y,z
x,-y,-z
-x,y,-z
-x,-y,-z
x,y,-z
-x,y,z
x,-y,z
1/2+x,1/2+y,z
1/2-x,1/2-y,z
1/2+x,1/2-y,-z
1/2-x,1/2+y,-z
1/2-x,1/2-y,-z
1/2+x,1/2+y,-z
1/2-x,1/2+y,z
1/2+x,1/2-y,z
loop_
_atom_site_type_symbol
_atom_site_label
_atom_site_fract_x
_atom_site_fract_y
_atom_site_fract_z
Si Si1 0.000000 0.040868 0.290701
Si Si2 0.656782 0.459111 0.209992
Si Si3 0.421762 0.122453 0.791219
Si Si4 0.371023 0.798374 0.712868
Si Si5 0.730917 0.098196 0.790125
Si Si6 0.079266 0.220281 0.284442
Si Si7 0.283210 0.322922 0.712383
O O1 0.923133 0.056613 0.238846
O O2 0.000000 0.039046 0.500000
O O3 0.000000 0.000000 0.216689
O O4 0.658531 0.500000 0.280585
O O5 0.719612 0.433747 0.280895
O O6 0.665995 0.461343 0.000000
O O7 0.500000 0.112703 0.717856
O O8 0.409685 0.165157 0.770034
O O9 0.349936 0.103516 0.718538
O O10 0.423300 0.115151 0.000000
O O11 0.372204 0.798357 0.500000
O O12 0.405768 0.761255 0.771281
O O13 0.288175 0.801711 0.770427
O O14 0.771232 0.135927 0.763271
O O15 0.724085 0.092849 0.000000
O O16 0.080398 0.220167 0.500000
O O17 0.143844 0.195037 0.223894
O O18 0.000000 0.208923 0.229067
O O19 0.283951 0.321339 0.500000
#
# Coordination Sequence:
#
# PCOD9494515 Si02
#       7
#     8  16  16  16  16  16  16
#     4   9  17  29  47  73  99 117 141 183 227 261
#     4   9  17  31  51  71  92 121 155 186 218 262
#     4   9  17  29  45  66  92 119 146 182 229 272
#     4   9  16  27  45  65  83 109 148 191 225 259
#     4   9  18  32  48  66  90 119 150 182 220 269
#     4   9  16  26  41  61  85 112 145 184 224 265
#     4   9  17  29  44  62  86 115 148 182 222 269
#
# _framework density 19.684626000000002
#
# number of rings (size 3 to 8) (size 9 to 14) (size 15 to 20)
#    0.000    3.000    0.000    1.154    0.000    4.308 
#    1.385    0.769    0.000    5.077    0.000    3.231 
#    0.000    0.000    0.000   11.538    0.000   12.000 
#
# Total GULP energy -289898.265137 kJ/mol
# GULP energy per Si atom -5574.966637 kJ/mol
# Density = 1.963982 g / cm^3
# Si number density = 19.684626 Si / 1000 Ang^3
#
#
#
# Elastic Constant Matrix: (Units=GPa)
#
#
# Indices 1 2 3 4 5 6 
#
# 1 199.8907 75.8931 7.1636 0.0000 0.0000 0.0000
# 2 75.8931 59.1939 0.1952 0.0000 0.0000 0.0000
# 3 7.1636 0.1952 42.4840 0.0000 0.0000 0.0000
# 4 0.0000 0.0000 0.0000 15.2795 0.0000 0.0000
# 5 0.0000 0.0000 0.0000 0.0000 3.5437 0.0000
# 6 0.0000 0.0000 0.0000 0.0000 0.0000 13.8436
#
#
#
# Elastic Compliance Matrix: (Units=1/GPa)
#
#
# Indices 1 2 3 4 5 6 
#
# 1 0.009856 -0.012631 -0.001604 0.000000 0.000000 0.000000
# 2 -0.012631 0.033081 0.001978 0.000000 0.000000 0.000000
# 3 -0.001604 0.001978 0.023800 0.000000 0.000000 0.000000
# 4 0.000000 0.000000 0.000000 0.065447 0.000000 0.000000
# 5 0.000000 0.000000 0.000000 0.000000 0.282187 0.000000
# 6 0.000000 0.000000 0.000000 0.000000 0.000000 0.072236
#
#
# Mechanical properties :
#
#
# Convention : Reuss Voigt Hill
#
# Bulk Modulus (GPa) = 23.68386 52.00805 37.84595
# Shear Modulus (GPa) = 9.52027 21.08782 15.30404
#
# Velocity S-wave (km/s) = 2.20157 3.27660 2.79132
# Velocity P-wave (km/s) = 4.30352 6.38692 5.44578
#
# Compressibility (1/GPa) = 0.04222285
#
# Stress axis : x y z
#
# Youngs Moduli (GPa) = 101.46251 30.22845 42.01744
#
# Poissons Ratio (x) = 0.38182 0.06739
# Poissons Ratio (y) = 1.28157 -0.08310
# Poissons Ratio (z) = 0.16273 -0.05979
#
# Static dielectric constant tensor:
#      x y z
#    x 1.731830 0.000000 0.000000 
#    y 0.000000 1.661700 0.000000 
#    z 0.000000 0.000000 1.735970 
# 
# From -- ./inp_files/27705.got.cif
#   From: 2010.05.17/outbox.cif.g08.bks.cpg/sg65_14_cif.got.tgz:27705.got - 2010.06.03 17:01:31.
