data_PCOD9494420
_publ_section_title
;
Structure prediction by ZEFSAII (Michael W. Deem and Ramdas Pophale) SiO2 
 PCOD9494420
Probable space group: C M M M
;
_chemical_formula_sum "Si O2"
_cell_formula_units_Z 80
_cell_length_a 38.787667
_cell_length_b 7.575411
_cell_length_c 14.380074
_cell_angle_alpha 90.000000
_cell_angle_beta 90.000000
_cell_angle_gamma 90.000000
_cell_volume 4225.333371
_symmetry_space_group_name_H-M "C M M M"
_symmetry_group_IT_number 65
_symmetry_cell_setting 'orthorhombic'
loop_
_space_group_symop_operation_xyz
x,y,z
-x,-y,z
x,-y,-z
-x,y,-z
-x,-y,-z
x,y,-z
-x,y,z
x,-y,z
1/2+x,1/2+y,z
1/2-x,1/2-y,z
1/2+x,1/2-y,-z
1/2-x,1/2+y,-z
1/2-x,1/2-y,-z
1/2+x,1/2+y,-z
1/2-x,1/2+y,z
1/2+x,1/2-y,z
loop_
_atom_site_type_symbol
_atom_site_label
_atom_site_fract_x
_atom_site_fract_y
_atom_site_fract_z
Si Si1 0.289034 0.789292 0.289630
Si Si2 0.607307 0.210260 0.788613
Si Si3 0.856736 0.716118 0.395643
Si Si4 0.961484 0.211841 0.894684
Si Si5 0.824959 0.284125 0.895543
O O1 0.250000 0.750000 0.315553
O O2 0.318755 0.727828 0.360096
O O3 0.298811 0.725715 0.185584
O O4 0.292480 0.000000 0.286898
O O5 0.617038 0.274673 0.685379
O O6 0.569329 0.245090 0.825633
O O7 0.637019 0.272321 0.860130
O O8 0.611482 0.000000 0.785376
O O9 0.863946 0.776689 0.500000
O O10 0.857179 0.500000 0.397634
O O11 0.000000 0.274656 0.868779
O O12 0.962993 0.000000 0.899005
O O13 0.953897 0.275797 0.000000
O O14 0.824450 0.500000 0.897663
O O15 0.817724 0.223112 0.000000
#
# Coordination Sequence:
#
# PCOD9494420 Si02
#       5
#    16  16  16  16  16
#     4   9  17  28  42  60  82 110 142 175 214 259
#     4   9  16  27  47  70  86 107 146 190 219 244
#     4   8  15  29  47  65  86 113 143 177 224 273
#     4   9  18  31  45  64  94 127 147 162 201 259
#     4   8  14  25  40  58  82 111 140 172 214 259
#
# _framework density 18.933418
#
# number of rings (size 3 to 8) (size 9 to 14) (size 15 to 20)
#    0.000    3.400    0.000    3.600    0.000    2.400 
#    0.000    5.000    0.000    3.600    0.000    4.200 
#    0.000    0.000    0.000    0.000    0.000    0.000 
#
# Total GULP energy -222878.729488 kJ/mol
# GULP energy per Si atom -5571.968237 kJ/mol
# Density = 1.889032 g / cm^3
# Si number density = 18.933418 Si / 1000 Ang^3
#
#
#
# Elastic Constant Matrix: (Units=GPa)
#
#
# Indices 1 2 3 4 5 6 
#
# 1 124.7080 -4.7726 56.0733 0.0000 0.0000 0.0000
# 2 -4.7726 35.9980 3.6526 0.0000 0.0000 0.0000
# 3 56.0733 3.6526 115.3156 0.0000 0.0000 0.0000
# 4 0.0000 0.0000 0.0000 38.7252 0.0000 0.0000
# 5 0.0000 0.0000 0.0000 0.0000 14.1646 0.0000
# 6 0.0000 0.0000 0.0000 0.0000 0.0000 16.1268
#
#
#
# Elastic Compliance Matrix: (Units=1/GPa)
#
#
# Indices 1 2 3 4 5 6 
#
# 1 0.010390 0.001896 -0.005112 0.000000 0.000000 0.000000
# 2 0.001896 0.028215 -0.001816 0.000000 0.000000 0.000000
# 3 -0.005112 -0.001816 0.011215 0.000000 0.000000 0.000000
# 4 0.000000 0.000000 0.000000 0.025823 0.000000 0.000000
# 5 0.000000 0.000000 0.000000 0.000000 0.070599 0.000000
# 6 0.000000 0.000000 0.000000 0.000000 0.000000 0.062009
#
#
# Mechanical properties :
#
#
# Convention : Reuss Voigt Hill
#
# Bulk Modulus (GPa) = 25.15309 42.88092 34.01701
# Shear Modulus (GPa) = 21.59209 28.54120 25.06664
#
# Velocity S-wave (km/s) = 3.38068 3.88680 3.64254
# Velocity P-wave (km/s) = 5.34345 6.54526 5.97465
#
# Compressibility (1/GPa) = 0.03975654
#
# Stress axis : x y z
#
# Youngs Moduli (GPa) = 96.24661 35.44219 89.16414
#
# Poissons Ratio (x) = -0.06721 0.45583
# Poissons Ratio (y) = -0.18251 0.16190
# Poissons Ratio (z) = 0.49204 0.06435
#
# Static dielectric constant tensor:
#      x y z
#    x 1.655420 0.000000 0.000000 
#    y 0.000000 1.719340 0.000000 
#    z 0.000000 0.000000 1.659550 
# 
# From -- ./inp_files/38531.got.cif
#   From: 2010.05.17/outbox.cif.g08.bks.cpg/sg65_20_cif.got.tgz:38531.got - 2010.06.03 17:01:31.
