data_PCOD9494742
_publ_section_title
;
Structure prediction by ZEFSAII (Michael W. Deem and Ramdas Pophale) SiO2 
 PCOD9494742
Probable space group: C M M M
;
_chemical_formula_sum "Si O2"
_cell_formula_units_Z 40
_cell_length_a 9.000000
_cell_length_b 27.000000
_cell_length_c 18.000000
_cell_angle_alpha 90.000000
_cell_angle_beta 90.000000
_cell_angle_gamma 90.000000
_cell_volume 4374.000000
_symmetry_space_group_name_H-M "C M M M"
_symmetry_group_IT_number 65
_symmetry_cell_setting 'orthorhombic'
loop_
_space_group_symop_operation_xyz
x,y,z
-x,-y,z
x,-y,-z
-x,y,-z
-x,-y,-z
x,y,-z
-x,y,z
x,-y,z
1/2+x,1/2+y,z
1/2-x,1/2-y,z
1/2+x,1/2-y,-z
1/2-x,1/2+y,-z
1/2-x,1/2-y,-z
1/2+x,1/2+y,-z
1/2-x,1/2+y,z
1/2+x,1/2-y,z
loop_
_atom_site_type_symbol
_atom_site_label
_atom_site_fract_x
_atom_site_fract_y
_atom_site_fract_z
Si Si1 0.828896 0.553877 0.285619
Si Si2 0.674125 0.302903 0.500000
Si Si3 0.826472 0.341693 0.643146
Si Si4 0.833378 0.440924 0.000000
Si Si5 0.827855 0.094626 0.144837
Si Si6 0.675777 0.701193 0.788507
O O1 0.800741 0.500000 0.319090
O O2 0.812687 0.600289 0.339022
O O3 0.726460 0.563822 0.215513
O O4 0.000000 0.555072 0.258986
O O5 0.500000 0.297378 0.500000
O O6 0.750000 0.250000 0.500000
O O7 0.731235 0.330375 0.572067
O O8 0.759985 0.311130 0.711862
O O9 0.000000 0.329319 0.632985
O O10 0.756539 0.421839 0.073036
O O11 0.830995 0.500000 0.000000
O O12 0.000000 0.422745 0.000000
O O13 0.802983 0.152367 0.162446
O O14 0.000000 0.086290 0.133860
O O15 0.500000 0.708002 0.775760
O O16 0.750000 0.750000 0.821360
#
# Coordination Sequence:
#
# PCOD9494742 Si02
#       6
#    16   8  16   8  16  16
#     4   9  18  34  56  80 106 138 175 213 254 304
#     4  12  24  38  55  76 105 137 172 215 263 312
#     4  10  20  35  55  79 107 138 174 214 257 306
#     4  11  23  37  54  77 106 139 174 213 258 309
#     4  10  21  35  53  79 108 137 173 216 259 307
#     4  10  20  35  55  79 106 137 174 214 258 307
#
# _framework density 9.1449470000000002
#
# number of rings (size 3 to 8) (size 9 to 14) (size 15 to 20)
#    0.000    1.900    0.000    4.200    0.000    6.800 
#    0.000    1.000    0.000    3.000    0.000    0.000 
#    0.000    0.000    0.000    0.000    0.000    0.000 
#
# Total GULP energy -223163.561789 kJ/mol
# GULP energy per Si atom -5579.089045 kJ/mol
# Density = 0.912413 g / cm^3
# Si number density = 9.144947 Si / 1000 Ang^3
#
#
#
# Elastic Constant Matrix: (Units=GPa)
#
#
# Indices 1 2 3 4 5 6 
#
# 1 -88.0928 69.7033 27.9511 0.0000 0.0000 0.0000
# 2 69.7033 59.5054 -3.1029 0.0000 0.0000 0.0000
# 3 27.9511 -3.1029 29.6399 0.0000 0.0000 0.0000
# 4 0.0000 0.0000 0.0000 -40.1013 0.0000 0.0000
# 5 0.0000 0.0000 0.0000 0.0000 28.0105 0.0000
# 6 0.0000 0.0000 0.0000 0.0000 0.0000 21.9276
#
#
#
# Elastic Compliance Matrix: (Units=1/GPa)
#
#
# Indices 1 2 3 4 5 6 
#
# 1 -0.004912 0.006028 0.005263 0.000000 0.000000 0.000000
# 2 0.006028 0.009499 -0.004690 0.000000 0.000000 0.000000
# 3 0.005263 -0.004690 0.028284 0.000000 0.000000 0.000000
# 4 0.000000 0.000000 0.000000 -0.024937 0.000000 0.000000
# 5 0.000000 0.000000 0.000000 0.000000 0.035701 0.000000
# 6 0.000000 0.000000 0.000000 0.000000 0.000000 0.045605
#
#
# Mechanical properties :
#
#
# Convention : Reuss Voigt Hill
#
# Bulk Modulus (GPa) = 21.70444 21.12841 21.41642
# Shear Modulus (GPa) = 54.70709 -4.26591 25.22059
#
# Velocity S-wave (km/s) = 5.47504 -1.52887 3.71743
# Velocity P-wave (km/s) = 7.20144 2.90868 5.49186
#
# Compressibility (1/GPa) = 0.04607353
#
# Stress axis : x y z
#
# Youngs Moduli (GPa) = -203.58579 105.27033 35.35564
#
# Poissons Ratio (x) = -0.63459 -0.18608
# Poissons Ratio (y) = 1.22725 0.16583
# Poissons Ratio (z) = 1.07150 0.49374
#
# Static dielectric constant tensor:
#      x y z
#    x 1.615510 0.000000 0.000000 
#    y 0.000000 1.642860 0.000000 
#    z 0.000000 0.000000 1.641540 
# 
# From -- ./inp_files/49899.got.cif
#   From: 2010.05.17/outbox.ucp.g08.bks.cvg/sg65_25_cif.got.tgz:49899.got - 2010.06.11 16:39:57.
