data_PCOD9494839
_publ_section_title
;
Structure prediction by ZEFSAII (Michael W. Deem and Ramdas Pophale) SiO2 
 PCOD9494839
Probable space group: C M M M
;
_chemical_formula_sum "Si O2"
_cell_formula_units_Z 40
_cell_length_a 18.000000
_cell_length_b 9.000000
_cell_length_c 27.000000
_cell_angle_alpha 90.000000
_cell_angle_beta 90.000000
_cell_angle_gamma 90.000000
_cell_volume 4374.000000
_symmetry_space_group_name_H-M "C M M M"
_symmetry_group_IT_number 65
_symmetry_cell_setting 'orthorhombic'
loop_
_space_group_symop_operation_xyz
x,y,z
-x,-y,z
x,-y,-z
-x,y,-z
-x,-y,-z
x,y,-z
-x,y,z
x,-y,z
1/2+x,1/2+y,z
1/2-x,1/2-y,z
1/2+x,1/2-y,-z
1/2-x,1/2+y,-z
1/2-x,1/2-y,-z
1/2+x,1/2+y,-z
1/2-x,1/2+y,z
1/2+x,1/2-y,z
loop_
_atom_site_type_symbol
_atom_site_label
_atom_site_fract_x
_atom_site_fract_y
_atom_site_fract_z
Si Si1 0.410546 0.174984 0.556516
Si Si2 0.332046 0.178593 0.943117
Si Si3 0.089070 0.175408 0.151172
Si Si4 0.332812 0.819582 0.246482
Si Si5 0.167820 0.179370 0.650031
O O1 0.387629 0.217077 0.500000
O O2 0.500000 0.186027 0.558365
O O3 0.376214 0.270572 0.600897
O O4 0.391271 0.000000 0.563436
O O5 0.250000 0.250000 0.939510
O O6 0.380317 0.252038 0.899591
O O7 0.328290 0.000000 0.936378
O O8 0.358611 0.206315 0.000000
O O9 0.122144 0.261360 0.198811
O O10 0.000000 0.185257 0.151976
O O11 0.110061 0.000000 0.153357
O O12 0.250000 0.750000 0.241710
O O13 0.362752 0.752273 0.298730
O O14 0.330407 0.000000 0.248311
O O15 0.250000 0.250000 0.645064
O O16 0.170748 0.000000 0.654439
#
# Coordination Sequence:
#
# PCOD9494839 Si02
#       5
#    16  16  16  16  16
#     4   9  19  37  59  82 111 148 188 229 276 332
#     4  10  21  38  61  87 115 149 190 233 277 330
#     4  11  24  40  58  83 116 151 188 231 279 331
#     4  11  22  39  62  84 111 146 186 231 279 334
#     4  11  22  37  58  84 114 146 185 232 280 331
#
# _framework density 9.1449470000000002
#
# number of rings (size 3 to 8) (size 9 to 14) (size 15 to 20)
#    0.000    1.600    0.000    7.200    0.000    5.200 
#    0.000    3.000    0.000    0.000    0.000    0.000 
#    0.000    0.000    0.000    0.000    0.000    0.000 
#
# Total GULP energy -223427.042395 kJ/mol
# GULP energy per Si atom -5585.676060 kJ/mol
# Density = 0.912413 g / cm^3
# Si number density = 9.144947 Si / 1000 Ang^3
#
#
#
# Elastic Constant Matrix: (Units=GPa)
#
#
# Indices 1 2 3 4 5 6 
#
# 1 48.1745 43.2155 59.5716 0.0000 0.0000 0.0000
# 2 43.2155 187.1844 100.1587 0.0000 0.0000 0.0000
# 3 59.5716 100.1587 196.3558 0.0000 0.0000 0.0000
# 4 0.0000 0.0000 0.0000 42.7271 0.0000 0.0000
# 5 0.0000 0.0000 0.0000 0.0000 22.6438 0.0000
# 6 0.0000 0.0000 0.0000 0.0000 0.0000 27.8145
#
#
#
# Elastic Compliance Matrix: (Units=1/GPa)
#
#
# Indices 1 2 3 4 5 6 
#
# 1 0.034612 -0.003263 -0.008836 0.000000 0.000000 0.000000
# 2 -0.003263 0.007655 -0.002915 0.000000 0.000000 0.000000
# 3 -0.008836 -0.002915 0.009261 0.000000 0.000000 0.000000
# 4 0.000000 0.000000 0.000000 0.023404 0.000000 0.000000
# 5 0.000000 0.000000 0.000000 0.000000 0.044162 0.000000
# 6 0.000000 0.000000 0.000000 0.000000 0.000000 0.035952
#
#
# Mechanical properties :
#
#
# Convention : Reuss Voigt Hill
#
# Bulk Modulus (GPa) = 46.51316 93.06737 69.79027
# Shear Modulus (GPa) = 26.00897 33.88833 29.94865
#
# Velocity S-wave (km/s) = 3.77509 4.30914 4.05092
# Velocity P-wave (km/s) = 6.66993 8.70364 7.75375
#
# Compressibility (1/GPa) = 0.02149929
#
# Stress axis : x y z
#
# Youngs Moduli (GPa) = 28.89200 130.62715 107.98428
#
# Poissons Ratio (x) = 0.42619 0.95420
# Poissons Ratio (y) = 0.09426 0.31478
# Poissons Ratio (z) = 0.25530 0.38079
#
# Static dielectric constant tensor:
#      x y z
#    x 1.619780 0.000000 0.000000 
#    y 0.000000 1.614290 0.000000 
#    z 0.000000 0.000000 1.634940 
# 
# From -- ./inp_files/72726.got.cif
#   From: 2010.05.17/outbox.ucp.g08.bks.cvg/sg65_37_cif.got.tgz:72726.got - 2010.06.11 16:39:57.
