data_PCOD9494075
_publ_section_title
;
Structure prediction by ZEFSAII (Michael W. Deem and Ramdas Pophale) SiO2 
 PCOD9494075
Probable space group: C M M M
;
_chemical_formula_sum "Si O2"
_cell_formula_units_Z 56
_cell_length_a 8.627398
_cell_length_b 18.328288
_cell_length_c 19.033151
_cell_angle_alpha 90.000000
_cell_angle_beta 90.000000
_cell_angle_gamma 90.000000
_cell_volume 3009.625286
_symmetry_space_group_name_H-M "C M M M"
_symmetry_group_IT_number 65
_symmetry_cell_setting 'orthorhombic'
loop_
_space_group_symop_operation_xyz
x,y,z
-x,-y,z
x,-y,-z
-x,y,-z
-x,-y,-z
x,y,-z
-x,y,z
x,-y,z
1/2+x,1/2+y,z
1/2-x,1/2-y,z
1/2+x,1/2-y,-z
1/2-x,1/2+y,-z
1/2-x,1/2-y,-z
1/2+x,1/2+y,-z
1/2-x,1/2+y,z
1/2+x,1/2-y,z
loop_
_atom_site_type_symbol
_atom_site_label
_atom_site_fract_x
_atom_site_fract_y
_atom_site_fract_z
Si Si1 0.187262 0.086745 0.229294
Si Si2 0.314019 0.585050 0.500000
Si Si3 0.315549 0.168448 0.364634
Si Si4 0.186112 0.912220 0.075397
O O1 0.262371 0.129821 0.292870
O O2 0.242065 0.113202 0.151801
O O3 0.000000 0.094455 0.232517
O O4 0.220021 0.000000 0.235370
O O5 0.270021 0.500000 0.500000
O O6 0.500000 0.589993 0.500000
O O7 0.250030 0.623874 0.569296
O O8 0.500000 0.170365 0.368543
O O9 0.250000 0.250000 0.366922
O O10 0.000000 0.900855 0.075014
O O11 0.208381 0.000000 0.075513
O O12 0.247671 0.884333 0.000000
#
# Coordination Sequence:
#
# PCOD9494075 Si02
#       4
#    16   8  16  16
#     4   9  17  31  53  81 112 144 180 223 270 320
#     4  11  24  43  66  89 113 139 170 211 260 315
#     4  12  25  40  58  80 110 145 182 222 265 316
#     4   7  10  19  40  72 106 138 174 217 264 314
#
# _framework density 18.606967999999998
#
# number of rings (size 3 to 8) (size 9 to 14) (size 15 to 20)
#    0.000    2.429    0.000    6.857    0.000    5.143 
#    0.000    0.000    0.000    1.714    0.000    4.000 
#    0.000    0.000    0.000    0.000    0.000    0.000 
#
# Total GULP energy -156130.652639 kJ/mol
# GULP energy per Si atom -5576.094737 kJ/mol
# Density = 1.856462 g / cm^3
# Si number density = 18.606968 Si / 1000 Ang^3
#
#
#
# Elastic Constant Matrix: (Units=GPa)
#
#
# Indices 1 2 3 4 5 6 
#
# 1 55.1951 52.8041 59.6417 0.0000 0.0000 0.0000
# 2 52.8041 92.8838 90.4900 0.0000 0.0000 0.0000
# 3 59.6417 90.4900 243.8919 0.0000 0.0000 0.0000
# 4 0.0000 0.0000 0.0000 -18.5100 0.0000 0.0000
# 5 0.0000 0.0000 0.0000 0.0000 -42.0243 0.0000
# 6 0.0000 0.0000 0.0000 0.0000 0.0000 13.4724
#
#
#
# Elastic Compliance Matrix: (Units=1/GPa)
#
#
# Indices 1 2 3 4 5 6 
#
# 1 0.040413 -0.020902 -0.002128 0.000000 0.000000 0.000000
# 2 -0.020902 0.027671 -0.005155 0.000000 0.000000 0.000000
# 3 -0.002128 -0.005155 0.006533 0.000000 0.000000 0.000000
# 4 0.000000 0.000000 0.000000 -0.054025 0.000000 0.000000
# 5 0.000000 0.000000 0.000000 0.000000 -0.023796 0.000000
# 6 0.000000 0.000000 0.000000 0.000000 0.000000 0.074226
#
#
# Mechanical properties :
#
#
# Convention : Reuss Voigt Hill
#
# Bulk Modulus (GPa) = 54.80094 88.64914 71.72504
# Shear Modulus (GPa) = 37.46029 3.18997 20.32513
#
# Velocity S-wave (km/s) = 4.49178 1.31077 3.30864
# Velocity P-wave (km/s) = 7.51114 7.07370 7.29570
#
# Compressibility (1/GPa) = 0.01824786
#
# Stress axis : x y z
#
# Youngs Moduli (GPa) = 24.74458 36.13859 153.06427
#
# Poissons Ratio (x) = 0.75536 0.32565
# Poissons Ratio (y) = 0.51721 0.78910
# Poissons Ratio (z) = 0.05264 0.18631
#
# Static dielectric constant tensor:
#      x y z
#    x 1.620870 0.000000 0.000000 
#    y 0.000000 1.606260 0.000000 
#    z 0.000000 0.000000 1.681420 
# 
# From -- ./inp_files/48763.got.cif
#   From: 2010.05.17/outbox.cif.g08.bks.cpg/sg65_25_cif.got.tgz:48763.got - 2010.06.03 17:01:31.
