data_PCOD9494853
_publ_section_title
;
Structure prediction by ZEFSAII (Michael W. Deem and Ramdas Pophale) SiO2 
 PCOD9494853
Probable space group: C M M M
;
_chemical_formula_sum "Si O2"
_cell_formula_units_Z 29
_cell_length_a 12.000000
_cell_length_b 18.000000
_cell_length_c 15.000000
_cell_angle_alpha 90.000000
_cell_angle_beta 90.000000
_cell_angle_gamma 90.000000
_cell_volume 3240.000000
_symmetry_space_group_name_H-M "C M M M"
_symmetry_group_IT_number 65
_symmetry_cell_setting 'orthorhombic'
loop_
_space_group_symop_operation_xyz
x,y,z
-x,-y,z
x,-y,-z
-x,y,-z
-x,-y,-z
x,y,-z
-x,y,z
x,-y,z
1/2+x,1/2+y,z
1/2-x,1/2-y,z
1/2+x,1/2-y,-z
1/2-x,1/2+y,-z
1/2-x,1/2-y,-z
1/2+x,1/2+y,-z
1/2-x,1/2+y,z
1/2+x,1/2-y,z
loop_
_atom_site_type_symbol
_atom_site_label
_atom_site_fract_x
_atom_site_fract_y
_atom_site_fract_z
Si Si1 0.000000 0.845243 0.901592
Si Si2 0.707721 0.330833 0.227248
Si Si3 0.869443 0.588988 0.902662
Si Si4 0.365905 0.413892 0.597016
Si Si5 0.500000 0.500000 0.000000
O O1 0.893388 0.826355 0.842825
O O2 0.000000 0.933464 0.923882
O O3 0.000000 0.808518 0.000000
O O4 0.750000 0.250000 0.249204
O O5 0.803587 0.375142 0.176542
O O6 0.674417 0.371082 0.317363
O O7 0.857882 0.500000 0.899542
O O8 0.000000 0.606432 0.898897
O O9 0.824785 0.613174 0.000000
O O10 0.328430 0.384986 0.500000
O O11 0.500000 0.412173 0.597577
O O12 0.332039 0.500000 0.603342
#
# Coordination Sequence:
#
# PCOD9494853 Si02
#       5
#     8  16  16  16   2
#     4  10  24  38  57  88 115 152 195 243 293 332
#     4  12  24  35  57  84 120 154 189 233 294 354
#     4   9  20  37  56  78 108 153 200 235 270 329
#     4   9  19  37  63  89 111 140 187 247 300 347
#     4   8  24  40  60  84 120 148 190 256 304 326
#
# _framework density 8.9506169999999994
#
# number of rings (size 3 to 8) (size 9 to 14) (size 15 to 20)
#    0.414    1.655    1.379    3.310    5.793    2.759 
#    0.000    0.000    0.000    0.828    0.000    3.862 
#    0.000    0.000    0.000    0.000    0.000    0.000 
#
# Total GULP energy -161458.444255 kJ/mol
# GULP energy per Si atom -5567.532561 kJ/mol
# Density = 0.893025 g / cm^3
# Si number density = 8.950617 Si / 1000 Ang^3
#
#
#
# Elastic Constant Matrix: (Units=GPa)
#
#
# Indices 1 2 3 4 5 6 
#
# 1 21.3102 49.3748 54.1604 0.0000 0.0000 0.0000
# 2 49.3748 36.3945 70.6755 0.0000 0.0000 0.0000
# 3 54.1604 70.6755 196.3224 0.0000 0.0000 0.0000
# 4 0.0000 0.0000 0.0000 43.3114 0.0000 0.0000
# 5 0.0000 0.0000 0.0000 0.0000 62.6920 0.0000
# 6 0.0000 0.0000 0.0000 0.0000 0.0000 3.8141
#
#
#
# Elastic Compliance Matrix: (Units=1/GPa)
#
#
# Indices 1 2 3 4 5 6 
#
# 1 -0.013308 0.036307 -0.009399 0.000000 0.000000 0.000000
# 2 0.036307 -0.007739 -0.007230 0.000000 0.000000 0.000000
# 3 -0.009399 -0.007230 0.010289 0.000000 0.000000 0.000000
# 4 0.000000 0.000000 0.000000 0.023089 0.000000 0.000000
# 5 0.000000 0.000000 0.000000 0.000000 0.015951 0.000000
# 6 0.000000 0.000000 0.000000 0.000000 0.000000 0.262188
#
#
# Mechanical properties :
#
#
# Convention : Reuss Voigt Hill
#
# Bulk Modulus (GPa) = 34.96778 66.93873 50.95325
# Shear Modulus (GPa) = 19.18315 27.28458 23.23386
#
# Velocity S-wave (km/s) = 3.27710 3.90830 3.60653
# Velocity P-wave (km/s) = 5.82197 7.60532 6.77260
#
# Compressibility (1/GPa) = 0.02859775
#
# Stress axis : x y z
#
# Youngs Moduli (GPa) = -75.14048 -129.21037 97.18728
#
# Poissons Ratio (x) = 4.69126 0.91346
# Poissons Ratio (y) = 2.72813 0.70267
# Poissons Ratio (z) = -0.70625 -0.93420
#
# Static dielectric constant tensor:
#      x y z
#    x 1.615610 0.000000 0.000000 
#    y 0.000000 1.596710 0.000000 
#    z 0.000000 0.000000 1.662530 
# 
# From -- ./inp_files/28117.got.cif
#   From: 2010.05.17/outbox.ucp.g08.bks.cvg/sg65_15_cif.got.tgz:28117.got - 2010.06.11 16:39:57.
