data_PCOD9494008
_publ_section_title
;
Structure prediction by ZEFSAII (Michael W. Deem and Ramdas Pophale) SiO2 
 PCOD9494008
Probable space group: C M M M
;
_chemical_formula_sum "Si O2"
_cell_formula_units_Z 56
_cell_length_a 7.593387
_cell_length_b 17.897092
_cell_length_c 20.960157
_cell_angle_alpha 90.000000
_cell_angle_beta 90.000000
_cell_angle_gamma 90.000000
_cell_volume 2848.475815
_symmetry_space_group_name_H-M "C M M M"
_symmetry_group_IT_number 65
_symmetry_cell_setting 'orthorhombic'
loop_
_space_group_symop_operation_xyz
x,y,z
-x,-y,z
x,-y,-z
-x,y,-z
-x,-y,-z
x,y,-z
-x,y,z
x,-y,z
1/2+x,1/2+y,z
1/2-x,1/2-y,z
1/2+x,1/2-y,-z
1/2-x,1/2+y,-z
1/2-x,1/2-y,-z
1/2+x,1/2+y,-z
1/2-x,1/2+y,z
1/2+x,1/2-y,z
loop_
_atom_site_type_symbol
_atom_site_label
_atom_site_fract_x
_atom_site_fract_y
_atom_site_fract_z
Si Si1 0.288684 0.086917 0.931540
Si Si2 0.289721 0.337612 0.337641
Si Si3 0.500000 0.910654 0.425612
Si Si4 0.790593 0.914933 0.207116
O O1 0.500000 0.085769 0.933474
O O2 0.241527 0.119676 0.862848
O O3 0.227448 0.000000 0.929814
O O4 0.227072 0.118843 0.000000
O O5 0.500000 0.350169 0.345568
O O6 0.250000 0.250000 0.340807
O O7 0.231199 0.368476 0.268144
O O8 0.172095 0.378764 0.390206
O O9 0.500000 0.889485 0.500000
O O10 0.500000 0.000000 0.420647
O O11 0.000000 0.920771 0.213227
O O12 0.717216 0.000000 0.208532
#
# Coordination Sequence:
#
# PCOD9494008 Si02
#       4
#    16  16   8  16
#     4   8  14  24  40  68 105 145 191 243 299 355
#     4  11  23  42  64  94 128 166 209 255 307 367
#     4  11  26  46  70 100 128 162 206 249 306 372
#     4   9  18  31  51  79 111 150 197 251 305 356
#
# _framework density 19.659638999999999
#
# number of rings (size 3 to 8) (size 9 to 14) (size 15 to 20)
#    0.000    2.429    1.429    1.714    2.000    3.429 
#    0.000    4.286    0.000    0.857    0.000    0.000 
#    0.000    0.000    0.000    0.000    0.000    0.000 
#
# Total GULP energy -156074.436847 kJ/mol
# GULP energy per Si atom -5574.087030 kJ/mol
# Density = 1.961489 g / cm^3
# Si number density = 19.659639 Si / 1000 Ang^3
#
#
#
# Elastic Constant Matrix: (Units=GPa)
#
#
# Indices 1 2 3 4 5 6 
#
# 1 91.0360 21.8962 59.8764 0.0000 0.0000 0.0000
# 2 21.8962 51.9680 65.8485 0.0000 0.0000 0.0000
# 3 59.8764 65.8485 229.8382 0.0000 0.0000 0.0000
# 4 0.0000 0.0000 0.0000 -17.2545 0.0000 0.0000
# 5 0.0000 0.0000 0.0000 0.0000 37.3098 0.0000
# 6 0.0000 0.0000 0.0000 0.0000 0.0000 7.2694
#
#
#
# Elastic Compliance Matrix: (Units=1/GPa)
#
#
# Indices 1 2 3 4 5 6 
#
# 1 0.013376 -0.001916 -0.002936 0.000000 0.000000 0.000000
# 2 -0.001916 0.030484 -0.008234 0.000000 0.000000 0.000000
# 3 -0.002936 -0.008234 0.007475 0.000000 0.000000 0.000000
# 4 0.000000 0.000000 0.000000 -0.057956 0.000000 0.000000
# 5 0.000000 0.000000 0.000000 0.000000 0.026803 0.000000
# 6 0.000000 0.000000 0.000000 0.000000 0.000000 0.137563
#
#
# Mechanical properties :
#
#
# Convention : Reuss Voigt Hill
#
# Bulk Modulus (GPa) = 39.74172 74.23160 56.98666
# Shear Modulus (GPa) = 26.00034 20.47967 23.24001
#
# Velocity S-wave (km/s) = 3.64060 3.23106 3.44192
# Velocity P-wave (km/s) = 6.15879 7.19444 6.69667
#
# Compressibility (1/GPa) = 0.02516247
#
# Stress axis : x y z
#
# Youngs Moduli (GPa) = 74.75800 32.80442 133.78175
#
# Poissons Ratio (x) = 0.06286 0.39276
# Poissons Ratio (y) = 0.14324 1.10161
# Poissons Ratio (z) = 0.21948 0.27012
#
# Static dielectric constant tensor:
#      x y z
#    x 1.706320 0.000000 0.000000 
#    y 0.000000 1.668180 0.000000 
#    z 0.000000 0.000000 1.728500 
# 
# From -- ./inp_files/48793.got.cif
#   From: 2010.05.17/outbox.cif.g08.bks.cpg/sg65_25_cif.got.tgz:48793.got - 2010.06.03 17:01:31.
