data_PCOD9494064
_publ_section_title
;
Structure prediction by ZEFSAII (Michael W. Deem and Ramdas Pophale) SiO2 
 PCOD9494064
Probable space group: C M M M
;
_chemical_formula_sum "Si O2"
_cell_formula_units_Z 66
_cell_length_a 9.105327
_cell_length_b 30.332581
_cell_length_c 11.810237
_cell_angle_alpha 90.000000
_cell_angle_beta 90.000000
_cell_angle_gamma 90.000000
_cell_volume 3261.846549
_symmetry_space_group_name_H-M "C M M M"
_symmetry_group_IT_number 65
_symmetry_cell_setting 'orthorhombic'
loop_
_space_group_symop_operation_xyz
x,y,z
-x,-y,z
x,-y,-z
-x,y,-z
-x,-y,-z
x,y,-z
-x,y,z
x,-y,z
1/2+x,1/2+y,z
1/2-x,1/2-y,z
1/2+x,1/2-y,-z
1/2-x,1/2+y,-z
1/2-x,1/2-y,-z
1/2+x,1/2+y,-z
1/2-x,1/2+y,z
1/2+x,1/2-y,z
loop_
_atom_site_type_symbol
_atom_site_label
_atom_site_fract_x
_atom_site_fract_y
_atom_site_fract_z
Si Si1 0.254049 0.076804 0.500000
Si Si2 0.500000 0.000000 0.500000
Si Si3 0.165144 0.051842 0.745042
Si Si4 0.675673 0.294860 0.265523
Si Si5 0.330987 0.127442 0.864738
Si Si6 0.171432 0.679171 0.500000
O O1 0.167447 0.069531 0.616503
O O2 0.318275 0.126024 0.500000
O O3 0.374676 0.038753 0.500000
O O4 0.279092 0.080685 0.815439
O O5 0.000000 0.057224 0.790984
O O6 0.201549 0.000000 0.744648
O O7 0.500000 0.291369 0.271002
O O8 0.750000 0.250000 0.221554
O O9 0.726417 0.335598 0.188386
O O10 0.745196 0.303667 0.389094
O O11 0.500000 0.136153 0.830285
O O12 0.322573 0.127546 0.000000
O O13 0.000000 0.692492 0.500000
#
# Coordination Sequence:
#
# PCOD9494064 Si02
#       6
#     8   2  16  16  16   8
#     4  12  23  36  64  97 138 174 216 265 319 392
#     4  12  24  36  58 112 134 188 222 260 324 390
#     4  11  24  41  65  96 135 175 218 271 328 393
#     4  12  26  45  71 100 134 173 215 270 332 399
#     4  11  26  46  68  95 129 172 225 278 329 390
#     4  12  24  40  66 102 139 176 213 266 325 390
#
# _framework density 20.233937999999998
#
# number of rings (size 3 to 8) (size 9 to 14) (size 15 to 20)
#    0.000    0.485    4.242    4.000    1.697    5.333 
#    0.000    2.424    0.000    0.000    0.000    0.000 
#    0.000    0.000    0.000    0.000    0.000    0.000 
#
# Total GULP energy -184389.246991 kJ/mol
# GULP energy per Si atom -5587.552939 kJ/mol
# Density = 2.018788 g / cm^3
# Si number density = 20.233938 Si / 1000 Ang^3
#
#
#
# Elastic Constant Matrix: (Units=GPa)
#
#
# Indices 1 2 3 4 5 6 
#
# 1 172.0263 43.7381 38.6497 0.0000 0.0000 0.0000
# 2 43.7381 92.1500 15.9118 0.0000 0.0000 0.0000
# 3 38.6497 15.9118 65.7584 0.0000 0.0000 0.0000
# 4 0.0000 0.0000 0.0000 -30.7246 0.0000 0.0000
# 5 0.0000 0.0000 0.0000 0.0000 -51.3546 0.0000
# 6 0.0000 0.0000 0.0000 0.0000 0.0000 -15.1425
#
#
#
# Elastic Compliance Matrix: (Units=1/GPa)
#
#
# Indices 1 2 3 4 5 6 
#
# 1 0.007357 -0.002865 -0.003631 0.000000 0.000000 0.000000
# 2 -0.002865 0.012441 -0.001326 0.000000 0.000000 0.000000
# 3 -0.003631 -0.001326 0.017662 0.000000 0.000000 0.000000
# 4 0.000000 0.000000 0.000000 -0.032547 0.000000 0.000000
# 5 0.000000 0.000000 0.000000 0.000000 -0.019472 0.000000
# 6 0.000000 0.000000 0.000000 0.000000 0.000000 -0.066039
#
#
# Mechanical properties :
#
#
# Convention : Reuss Voigt Hill
#
# Bulk Modulus (GPa) = 45.83915 58.50377 52.17146
# Shear Modulus (GPa) = -86.68209 -4.00198 -45.34203
#
# Velocity S-wave (km/s) = -6.55232 -1.40789 -4.73894
# Velocity P-wave (km/s) = 5.87709 5.13163 2.02566
#
# Compressibility (1/GPa) = 0.02181542
#
# Stress axis : x y z
#
# Youngs Moduli (GPa) = 135.91918 80.38072 56.61789
#
# Poissons Ratio (x) = 0.23030 0.20558
# Poissons Ratio (y) = 0.38942 0.07510
# Poissons Ratio (z) = 0.49352 0.10661
#
# Static dielectric constant tensor:
#      x y z
#    x 1.698610 0.000000 0.000000 
#    y 0.000000 1.703200 0.000000 
#    z 0.000000 0.000000 1.699400 
# 
# From -- ./inp_files/21114.got.cif
#   From: 2010.05.17/outbox.cif.g08.bks.cpg/sg65_11_cif.got.tgz:21114.got - 2010.06.03 17:01:31.
