data_PCOD9494983
_publ_section_title
;
Structure prediction by ZEFSAII (Michael W. Deem and Ramdas Pophale) SiO2 
 PCOD9494983
Probable space group: C C C M
;
_chemical_formula_sum "Si O2"
_cell_formula_units_Z 68
_cell_length_a 6.818382
_cell_length_b 18.368915
_cell_length_c 27.907891
_cell_angle_alpha 90.000000
_cell_angle_beta 90.000000
_cell_angle_gamma 90.000000
_cell_volume 3495.359514
_symmetry_space_group_name_H-M "C C C M"
_symmetry_group_IT_number 66
_symmetry_cell_setting 'orthorhombic'
loop_
_space_group_symop_operation_xyz
x,y,z
-x,-y,z
x,-y,1/2-z
-x,y,1/2-z
-x,-y,-z
x,y,-z
-x,y,1/2+z
x,-y,1/2+z
1/2+x,1/2+y,z
1/2-x,1/2-y,z
1/2+x,1/2-y,1/2-z
1/2-x,1/2+y,1/2-z
1/2-x,1/2-y,-z
1/2+x,1/2+y,-z
1/2-x,1/2+y,1/2+z
1/2+x,1/2-y,1/2+z
loop_
_atom_site_type_symbol
_atom_site_label
_atom_site_fract_x
_atom_site_fract_y
_atom_site_fract_z
Si Si1 0.526243 0.729802 0.448128
Si Si2 0.111061 0.070087 0.420908
Si Si3 0.500000 0.000000 0.392027
Si Si4 0.172517 0.909558 0.666013
Si Si5 0.000000 0.000000 0.750000
Si Si6 0.250000 0.250000 0.862458
O O1 0.453117 0.755907 0.500000
O O2 0.750000 0.750000 0.445094
O O3 0.531874 0.642380 0.445775
O O4 0.423305 0.761015 0.401207
O O5 0.343046 0.051611 0.420151
O O6 0.023361 0.079807 0.366816
O O7 0.000000 0.000000 0.440998
O O8 0.646488 0.050625 0.360883
O O9 0.130320 0.948447 0.715999
O O10 0.214654 0.823341 0.667115
#
# Coordination Sequence:
#
# PCOD9494983 Si02
#       6
#    16  16   8  16   4   8
#     4  10  20  34  56  85 115 151 196 237 272 334
#     4   9  18  34  53  80 113 150 188 229 283 335
#     4  10  16  35  57  80 104 162 186 216 295 351
#     4  10  21  36  59  82 112 144 187 236 284 339
#     4  12  20  42  56  84 116 134 188 246 276 348
#     4  10  21  40  60  82 116 158 184 230 299 340
#
# _framework density 19.454364999999999
#
# number of rings (size 3 to 8) (size 9 to 14) (size 15 to 20)
#    0.000    2.118    3.529    1.765    0.000    0.941 
#    0.000    2.941    2.588    0.000    0.000    0.000 
#    0.000    0.000    0.000    0.000    0.000    0.000 
#
# Total GULP energy -189391.004120 kJ/mol
# GULP energy per Si atom -5570.323651 kJ/mol
# Density = 1.941009 g / cm^3
# Si number density = 19.454365 Si / 1000 Ang^3
#
#
#
# Elastic Constant Matrix: (Units=GPa)
#
#
# Indices 1 2 3 4 5 6 
#
# 1 101.7925 -9.9010 10.7788 0.0000 0.0000 0.0000
# 2 -9.9010 95.1686 20.7762 0.0000 0.0000 0.0000
# 3 10.7788 20.7762 81.8788 0.0000 0.0000 0.0000
# 4 0.0000 0.0000 0.0000 39.0135 0.0000 0.0000
# 5 0.0000 0.0000 0.0000 0.0000 17.7813 0.0000
# 6 0.0000 0.0000 0.0000 0.0000 0.0000 28.4222
#
#
#
# Elastic Compliance Matrix: (Units=1/GPa)
#
#
# Indices 1 2 3 4 5 6 
#
# 1 0.010142 0.001426 -0.001697 0.000000 0.000000 0.000000
# 2 0.001426 0.011324 -0.003061 0.000000 0.000000 0.000000
# 3 -0.001697 -0.003061 0.013213 0.000000 0.000000 0.000000
# 4 0.000000 0.000000 0.000000 0.025632 0.000000 0.000000
# 5 0.000000 0.000000 0.000000 0.000000 0.056239 0.000000
# 6 0.000000 0.000000 0.000000 0.000000 0.000000 0.035184
#
#
# Mechanical properties :
#
#
# Convention : Reuss Voigt Hill
#
# Bulk Modulus (GPa) = 35.69519 35.79421 35.74470
# Shear Modulus (GPa) = 29.80842 34.18911 31.99877
#
# Velocity S-wave (km/s) = 3.91861 4.19668 4.06003
# Velocity P-wave (km/s) = 6.23394 6.47471 6.35547
#
# Compressibility (1/GPa) = 0.02801498
#
# Stress axis : x y z
#
# Youngs Moduli (GPa) = 98.59735 88.30605 75.68128
#
# Poissons Ratio (x) = -0.12589 0.12842
# Poissons Ratio (y) = -0.14056 0.23167
# Poissons Ratio (z) = 0.16731 0.27032
#
# Static dielectric constant tensor:
#      x y z
#    x 1.688280 0.000000 0.000000 
#    y 0.000000 1.651390 0.000000 
#    z 0.000000 0.000000 1.703410 
# 
# From -- ./inp_files/67110.got.cif
#   From: 2010.05.17/outbox.cif.g08.bks.cpg/sg66_34_cif.got.tgz:67110.got - 2010.06.03 17:51:23.
