data_PCOD9494961
_publ_section_title
;
Structure prediction by ZEFSAII (Michael W. Deem and Ramdas Pophale) SiO2 
 PCOD9494961
Probable space group: C C C M
;
_chemical_formula_sum "Si O2"
_cell_formula_units_Z 96
_cell_length_a 14.033232
_cell_length_b 12.927569
_cell_length_c 32.863898
_cell_angle_alpha 90.000000
_cell_angle_beta 90.000000
_cell_angle_gamma 90.000000
_cell_volume 5962.022952
_symmetry_space_group_name_H-M "C C C M"
_symmetry_group_IT_number 66
_symmetry_cell_setting 'orthorhombic'
loop_
_space_group_symop_operation_xyz
x,y,z
-x,-y,z
x,-y,1/2-z
-x,y,1/2-z
-x,-y,-z
x,y,-z
-x,y,1/2+z
x,-y,1/2+z
1/2+x,1/2+y,z
1/2-x,1/2-y,z
1/2+x,1/2-y,1/2-z
1/2-x,1/2+y,1/2-z
1/2-x,1/2-y,-z
1/2+x,1/2+y,-z
1/2-x,1/2+y,1/2+z
1/2+x,1/2-y,1/2+z
loop_
_atom_site_type_symbol
_atom_site_label
_atom_site_fract_x
_atom_site_fract_y
_atom_site_fract_z
Si Si1 0.250000 0.750000 0.146722
Si Si2 0.386366 0.380305 0.703280
Si Si3 0.750000 0.750000 0.856878
Si Si4 0.097622 0.638286 0.909996
Si Si5 0.884037 0.609712 0.910772
Si Si6 0.893053 0.871978 0.798356
Si Si7 0.107576 0.445624 0.000000
Si Si8 0.835875 0.332557 0.000000
O O1 0.308742 0.672427 0.175136
O O2 0.172916 0.694541 0.118241
O O3 0.372380 0.350978 0.750684
O O4 0.380568 0.504132 0.698048
O O5 0.495471 0.349367 0.693327
O O6 0.804175 0.667640 0.885423
O O7 0.825009 0.809371 0.828130
O O8 0.117170 0.515057 0.906848
O O9 0.987858 0.650804 0.897602
O O10 0.110457 0.677634 0.956656
O O11 0.879422 0.620728 0.959605
O O12 0.000000 0.500000 0.000000
O O13 0.181473 0.542506 0.000000
O O14 0.750000 0.250000 0.000000
#
# Coordination Sequence:
#
# PCOD9494961 Si02
#       8
#     8  16   8  16  16  16   8   8
#     4  12  19  27  50  84  98 114 162 235 243 282
#     4   9  19  35  54  70  96 134 177 194 254 300
#     4  12  21  31  52  80 108 124 168 215 267 276
#     4  10  19  32  50  73 104 127 169 202 253 296
#     4  10  20  34  50  74 100 141 164 202 245 309
#     4   9  19  37  52  68  98 141 165 203 241 324
#     4  10  16  35  56  65  99 139 177 193 238 313
#     4  10  16  30  50  76  90 130 166 204 240 292
#
# _framework density 16.101918000000001
#
# number of rings (size 3 to 8) (size 9 to 14) (size 15 to 20)
#    0.000    2.000    4.167    3.500    0.000    0.333 
#    0.000    0.000    0.000    0.000    0.000   16.333 
#    0.000    0.000    0.000    0.000    0.000    0.000 
#
# Total GULP energy -267390.394248 kJ/mol
# GULP energy per Si atom -5570.633214 kJ/mol
# Density = 1.606527 g / cm^3
# Si number density = 16.101918 Si / 1000 Ang^3
#
#
#
# Elastic Constant Matrix: (Units=GPa)
#
#
# Indices 1 2 3 4 5 6 
#
# 1 100.7427 48.7292 67.8086 0.0000 0.0000 0.0000
# 2 48.7292 46.4285 41.6049 0.0000 0.0000 0.0000
# 3 67.8086 41.6049 107.4501 0.0000 0.0000 0.0000
# 4 0.0000 0.0000 0.0000 33.9356 0.0000 0.0000
# 5 0.0000 0.0000 0.0000 0.0000 25.7714 0.0000
# 6 0.0000 0.0000 0.0000 0.0000 0.0000 32.2061
#
#
#
# Elastic Compliance Matrix: (Units=1/GPa)
#
#
# Indices 1 2 3 4 5 6 
#
# 1 0.024217 -0.017951 -0.008332 0.000000 0.000000 0.000000
# 2 -0.017951 0.046288 -0.006595 0.000000 0.000000 0.000000
# 3 -0.008332 -0.006595 0.017118 0.000000 0.000000 0.000000
# 4 0.000000 0.000000 0.000000 0.029468 0.000000 0.000000
# 5 0.000000 0.000000 0.000000 0.000000 0.038803 0.000000
# 6 0.000000 0.000000 0.000000 0.000000 0.000000 0.031050
#
#
# Mechanical properties :
#
#
# Convention : Reuss Voigt Hill
#
# Bulk Modulus (GPa) = 45.72785 63.43406 54.58096
# Shear Modulus (GPa) = 19.23153 24.81453 22.02303
#
# Velocity S-wave (km/s) = 3.45970 3.92993 3.70229
# Velocity P-wave (km/s) = 6.66484 7.75070 7.22819
#
# Compressibility (1/GPa) = 0.02186851
#
# Stress axis : x y z
#
# Youngs Moduli (GPa) = 41.29253 21.60373 58.41660
#
# Poissons Ratio (x) = 0.38780 0.48675
# Poissons Ratio (y) = 0.74123 0.38524
# Poissons Ratio (z) = 0.34406 0.14247
#
# Static dielectric constant tensor:
#      x y z
#    x 1.532620 0.000000 0.000000 
#    y 0.000000 1.518050 0.000000 
#    z 0.000000 0.000000 1.548350 
# 
# From -- ./inp_files/69048.got.cif
#   From: 2010.05.17/outbox.cif.g08.bks.cpg/sg66_35_cif.got.tgz:69048.got - 2010.06.03 17:51:23.
