data_PCOD9494840
_publ_section_title
;
Structure prediction by ZEFSAII (Michael W. Deem and Ramdas Pophale) SiO2 
 PCOD9494840
Probable space group: C M M M
;
_chemical_formula_sum "Si O2"
_cell_formula_units_Z 52
_cell_length_a 27.000000
_cell_length_b 9.000000
_cell_length_c 21.000000
_cell_angle_alpha 90.000000
_cell_angle_beta 90.000000
_cell_angle_gamma 90.000000
_cell_volume 5103.000000
_symmetry_space_group_name_H-M "C M M M"
_symmetry_group_IT_number 65
_symmetry_cell_setting 'orthorhombic'
loop_
_space_group_symop_operation_xyz
x,y,z
-x,-y,z
x,-y,-z
-x,y,-z
-x,-y,-z
x,y,-z
-x,y,z
x,-y,z
1/2+x,1/2+y,z
1/2-x,1/2-y,z
1/2+x,1/2-y,-z
1/2-x,1/2+y,-z
1/2-x,1/2-y,-z
1/2+x,1/2+y,-z
1/2-x,1/2+y,z
1/2+x,1/2-y,z
loop_
_atom_site_type_symbol
_atom_site_label
_atom_site_fract_x
_atom_site_fract_y
_atom_site_fract_z
Si Si1 0.104247 0.324921 0.070106
Si Si2 0.941165 0.329801 0.679908
Si Si3 0.303097 0.677235 0.500000
Si Si4 0.303765 0.678172 0.879188
Si Si5 0.440914 0.667729 0.189924
Si Si6 0.857966 0.175388 0.628851
Si Si7 0.195863 0.321568 0.746467
O O1 0.110830 0.500000 0.083493
O O2 0.156924 0.242149 0.071687
O O3 0.073141 0.246411 0.124682
O O4 0.081710 0.310048 0.000000
O O5 0.924859 0.500000 0.672710
O O6 0.927591 0.268517 0.749815
O O7 0.915035 0.221478 0.630326
O O8 0.000000 0.325377 0.674154
O O9 0.297255 0.500000 0.500000
O O10 0.250000 0.750000 0.500000
O O11 0.332696 0.717253 0.563116
O O12 0.300957 0.500000 0.878380
O O13 0.250000 0.750000 0.889669
O O14 0.322318 0.743237 0.811232
O O15 0.500000 0.655191 0.192285
O O16 0.419888 0.500000 0.194348
O O17 0.833907 0.271031 0.685008
O O18 0.851380 0.000000 0.640702
O O19 0.197810 0.500000 0.753771
O O20 0.250000 0.250000 0.737757
#
# Coordination Sequence:
#
# PCOD9494840 Si02
#       7
#    16  16   8  16  16  16  16
#     4  11  24  40  57  79 110 149 191 233 281 340
#     4  10  21  38  61  89 118 149 189 236 286 338
#     4  10  24  42  61  86 119 159 198 237 279 332
#     4  11  22  38  59  82 110 144 185 235 288 341
#     4  10  21  38  61  88 117 149 186 233 288 341
#     4  11  22  38  59  85 117 154 195 235 283 337
#     4  11  21  35  56  84 115 146 185 233 286 340
#
# _framework density 10.190084000000001
#
# number of rings (size 3 to 8) (size 9 to 14) (size 15 to 20)
#    0.000    1.385    0.000    6.923    0.000    6.154 
#    0.000    1.923    0.000    2.308    0.000    0.000 
#    0.000    0.000    0.000    0.000    0.000    0.000 
#
# Total GULP energy -290509.465324 kJ/mol
# GULP energy per Si atom -5586.720487 kJ/mol
# Density = 1.016689 g / cm^3
# Si number density = 10.190084 Si / 1000 Ang^3
#
#
#
# Elastic Constant Matrix: (Units=GPa)
#
#
# Indices 1 2 3 4 5 6 
#
# 1 44.8041 4.9750 35.5702 0.0000 0.0000 0.0000
# 2 4.9750 97.9192 26.9514 0.0000 0.0000 0.0000
# 3 35.5702 26.9514 90.7816 0.0000 0.0000 0.0000
# 4 0.0000 0.0000 0.0000 18.4245 0.0000 0.0000
# 5 0.0000 0.0000 0.0000 0.0000 -9.6555 0.0000
# 6 0.0000 0.0000 0.0000 0.0000 0.0000 35.2076
#
#
#
# Elastic Compliance Matrix: (Units=1/GPa)
#
#
# Indices 1 2 3 4 5 6 
#
# 1 0.032765 0.002035 -0.013442 0.000000 0.000000 0.000000
# 2 0.002035 0.011248 -0.004137 0.000000 0.000000 0.000000
# 3 -0.013442 -0.004137 0.017511 0.000000 0.000000 0.000000
# 4 0.000000 0.000000 0.000000 0.054276 0.000000 0.000000
# 5 0.000000 0.000000 0.000000 0.000000 -0.103568 0.000000
# 6 0.000000 0.000000 0.000000 0.000000 0.000000 0.028403
#
#
# Mechanical properties :
#
#
# Convention : Reuss Voigt Hill
#
# Bulk Modulus (GPa) = 32.85595 40.94423 36.90009
# Shear Modulus (GPa) = 61.07475 19.86255 40.46865
#
# Velocity S-wave (km/s) = 5.48022 3.12525 4.46094
# Velocity P-wave (km/s) = 7.49668 5.75819 6.68420
#
# Compressibility (1/GPa) = 0.03043589
#
# Stress axis : x y z
#
# Youngs Moduli (GPa) = 30.52005 88.90729 57.10847
#
# Poissons Ratio (x) = -0.18094 0.76767
# Poissons Ratio (y) = -0.06211 0.23624
# Poissons Ratio (z) = 0.41026 0.36778
#
# Static dielectric constant tensor:
#      x y z
#    x 1.825570 0.000000 0.000000 
#    y 0.000000 1.699540 0.000000 
#    z 0.000000 0.000000 1.745640 
# 
# From -- ./inp_files/65933.got.cif
#   From: 2010.05.17/outbox.ucp.g08.bks.cvg/sg65_33_cif.got.tgz:65933.got - 2010.06.11 16:39:57.
