data_PCOD9494549
_publ_section_title
;
Structure prediction by ZEFSAII (Michael W. Deem and Ramdas Pophale) SiO2 
 PCOD9494549
Probable space group: C M M M
;
_chemical_formula_sum "Si O2"
_cell_formula_units_Z 120
_cell_length_a 23.412549
_cell_length_b 31.192264
_cell_length_c 7.474421
_cell_angle_alpha 90.000000
_cell_angle_beta 90.000000
_cell_angle_gamma 90.000000
_cell_volume 5458.497972
_symmetry_space_group_name_H-M "C M M M"
_symmetry_group_IT_number 65
_symmetry_cell_setting 'orthorhombic'
loop_
_space_group_symop_operation_xyz
x,y,z
-x,-y,z
x,-y,-z
-x,y,-z
-x,-y,-z
x,y,-z
-x,y,z
x,-y,z
1/2+x,1/2+y,z
1/2-x,1/2-y,z
1/2+x,1/2-y,-z
1/2-x,1/2+y,-z
1/2-x,1/2-y,-z
1/2+x,1/2+y,-z
1/2-x,1/2+y,z
1/2+x,1/2-y,z
loop_
_atom_site_type_symbol
_atom_site_label
_atom_site_fract_x
_atom_site_fract_y
_atom_site_fract_z
Si Si1 0.670139 0.450618 0.280279
Si Si2 0.596831 0.886116 0.214718
Si Si3 0.500000 0.950912 0.781142
Si Si4 0.091239 0.293161 0.203741
Si Si5 0.435195 0.605562 0.709215
Si Si6 0.277793 0.794532 0.282256
Si Si7 0.731783 0.112345 0.286387
Si Si8 0.431747 0.299341 0.201976
O O1 0.669935 0.450057 0.500000
O O2 0.671256 0.500000 0.225372
O O3 0.613016 0.426023 0.218074
O O4 0.725902 0.424234 0.219037
O O5 0.555934 0.924273 0.275821
O O6 0.575465 0.839438 0.283691
O O7 0.664106 0.893178 0.250508
O O8 0.591449 0.883210 0.000000
O O9 0.500000 0.000000 0.721187
O O10 0.500000 0.951527 0.000000
O O11 0.159318 0.295956 0.203013
O O12 0.079530 0.246867 0.289804
O O13 0.068115 0.290997 0.000000
O O14 0.440231 0.595480 0.500000
O O15 0.500000 0.602410 0.785079
O O16 0.413928 0.654982 0.719899
O O17 0.281789 0.794222 0.500000
O O18 0.250000 0.750000 0.227236
O O19 0.249863 0.839668 0.227642
O O20 0.737238 0.112110 0.500000
O O21 0.500000 0.302094 0.195264
O O22 0.408191 0.297504 0.000000
#
# Coordination Sequence:
#
# PCOD9494549 Si02
#       8
#    16  16   8  16  16  16  16  16
#     4   9  18  32  52  76  99 128 166 206 249 294
#     4   9  18  33  52  73 100 131 164 205 247 292
#     4   9  18  32  53  79 101 127 165 207 254 299
#     4   9  18  30  46  70  96 127 163 199 240 285
#     4   9  18  32  51  75 101 128 163 206 248 292
#     4   9  18  30  46  68  94 129 164 195 238 290
#     4   9  18  33  50  70  99 132 165 201 244 295
#     4   9  18  31  47  69  98 130 162 196 241 295
#
# _framework density 21.984071
#
# number of rings (size 3 to 8) (size 9 to 14) (size 15 to 20)
#    0.000    3.000    0.000    0.000    2.800    1.600 
#    0.000    2.333    0.000    1.600    0.000    1.867 
#    0.000    0.000    0.000    0.000    0.000    0.000 
#
# Total GULP energy -334445.148946 kJ/mol
# GULP energy per Si atom -5574.085816 kJ/mol
# Density = 2.193403 g / cm^3
# Si number density = 21.984071 Si / 1000 Ang^3
#
#
#
# Elastic Constant Matrix: (Units=GPa)
#
#
# Indices 1 2 3 4 5 6 
#
# 1 107.3438 110.5577 1.7160 0.0000 0.0000 0.0000
# 2 110.5577 247.4527 10.7419 0.0000 0.0000 0.0000
# 3 1.7160 10.7419 60.2957 0.0000 0.0000 0.0000
# 4 0.0000 0.0000 0.0000 14.6238 0.0000 0.0000
# 5 0.0000 0.0000 0.0000 0.0000 12.4061 0.0000
# 6 0.0000 0.0000 0.0000 0.0000 0.0000 41.7976
#
#
#
# Elastic Compliance Matrix: (Units=1/GPa)
#
#
# Indices 1 2 3 4 5 6 
#
# 1 0.017304 -0.007770 0.000892 0.000000 0.000000 0.000000
# 2 -0.007770 0.007562 -0.001126 0.000000 0.000000 0.000000
# 3 0.000892 -0.001126 0.016760 0.000000 0.000000 0.000000
# 4 0.000000 0.000000 0.000000 0.068381 0.000000 0.000000
# 5 0.000000 0.000000 0.000000 0.000000 0.080606 0.000000
# 6 0.000000 0.000000 0.000000 0.000000 0.000000 0.023925
#
#
# Mechanical properties :
#
#
# Convention : Reuss Voigt Hill
#
# Bulk Modulus (GPa) = 39.03572 73.45816 56.24694
# Shear Modulus (GPa) = 20.91304 33.23728 27.07516
#
# Velocity S-wave (km/s) = 3.08763 3.89251 3.51320
# Velocity P-wave (km/s) = 5.52324 7.32728 6.48827
#
# Compressibility (1/GPa) = 0.02561756
#
# Stress axis : x y z
#
# Youngs Moduli (GPa) = 57.78957 132.24844 59.66532
#
# Poissons Ratio (x) = 1.02756 -0.05321
# Poissons Ratio (y) = 0.44902 0.06718
# Poissons Ratio (z) = -0.05153 0.14891
#
# Static dielectric constant tensor:
#      x y z
#    x 1.774970 0.000000 0.000000 
#    y 0.000000 1.834070 0.000000 
#    z 0.000000 0.000000 1.839420 
# 
# From -- ./inp_files/29683.got.cif
#   From: 2010.05.17/outbox.cif.g08.bks.cpg/sg65_15_cif.got.tgz:29683.got - 2010.06.03 17:01:31.
