data_PCOD9494563
_publ_section_title
;
Structure prediction by ZEFSAII (Michael W. Deem and Ramdas Pophale) SiO2 
 PCOD9494563
Probable space group: C M M M
;
_chemical_formula_sum "Si O2"
_cell_formula_units_Z 48
_cell_length_a 9.000000
_cell_length_b 27.000000
_cell_length_c 24.000000
_cell_angle_alpha 90.000000
_cell_angle_beta 90.000000
_cell_angle_gamma 90.000000
_cell_volume 5832.000000
_symmetry_space_group_name_H-M "C M M M"
_symmetry_group_IT_number 65
_symmetry_cell_setting 'orthorhombic'
loop_
_space_group_symop_operation_xyz
x,y,z
-x,-y,z
x,-y,-z
-x,y,-z
-x,-y,-z
x,y,-z
-x,y,z
x,-y,z
1/2+x,1/2+y,z
1/2-x,1/2-y,z
1/2+x,1/2-y,-z
1/2-x,1/2+y,-z
1/2-x,1/2-y,-z
1/2+x,1/2+y,-z
1/2-x,1/2+y,z
1/2+x,1/2-y,z
loop_
_atom_site_type_symbol
_atom_site_label
_atom_site_fract_x
_atom_site_fract_y
_atom_site_fract_z
Si Si1 0.326538 0.698062 0.262850
Si Si2 0.827130 0.866604 0.849066
Si Si3 0.819031 0.443606 0.563112
Si Si4 0.823273 0.617802 0.332381
Si Si5 0.171217 0.941761 0.236803
Si Si6 0.824004 0.699175 0.064412
O O1 0.500000 0.703812 0.272559
O O2 0.250000 0.750000 0.255925
O O3 0.306108 0.667639 0.205595
O O4 0.253400 0.668023 0.313226
O O5 0.791211 0.920170 0.823869
O O6 0.728561 0.846037 0.898231
O O7 0.000000 0.864253 0.865585
O O8 0.772095 0.432436 0.500000
O O9 0.773005 0.500000 0.576847
O O10 0.769508 0.405049 0.609451
O O11 0.000000 0.443562 0.563643
O O12 0.777795 0.579481 0.283908
O O13 0.000000 0.623805 0.334080
O O14 0.000000 0.924744 0.248541
O O15 0.174013 0.000000 0.237322
O O16 0.750000 0.750000 0.085423
O O17 0.000000 0.704853 0.066821
O O18 0.778576 0.692681 0.000000
#
# Coordination Sequence:
#
# PCOD9494563 Si02
#       6
#    16  16  16  16  16  16
#     4  10  20  33  48  68  94 122 152 188 230 273
#     4   9  18  31  48  69  91 118 150 184 224 268
#     4   8  14  25  42  66  95 123 151 186 226 267
#     4  10  18  28  46  71  95 121 154 189 227 274
#     4   9  18  32  48  67  94 125 154 188 230 271
#     4  10  20  32  47  68  93 120 149 183 224 268
#
# _framework density 8.2304530000000007
#
# number of rings (size 3 to 8) (size 9 to 14) (size 15 to 20)
#    0.000    2.667    0.000    4.000    0.000    6.667 
#    0.000    0.000    0.000    3.000    0.000    9.333 
#    0.000    0.000    0.000    0.000    0.000    0.000 
#
# Total GULP energy -267378.802884 kJ/mol
# GULP energy per Si atom -5570.391727 kJ/mol
# Density = 0.821172 g / cm^3
# Si number density = 8.230453 Si / 1000 Ang^3
#
#
#
# Elastic Constant Matrix: (Units=GPa)
#
#
# Indices 1 2 3 4 5 6 
#
# 1 30.5606 17.8881 19.4697 0.0000 0.0000 0.0000
# 2 17.8881 27.3863 -13.8977 0.0000 0.0000 0.0000
# 3 19.4697 -13.8977 18.1799 0.0000 0.0000 0.0000
# 4 0.0000 0.0000 0.0000 21.5638 0.0000 0.0000
# 5 0.0000 0.0000 0.0000 0.0000 9.0014 0.0000
# 6 0.0000 0.0000 0.0000 0.0000 0.0000 20.7030
#
#
#
# Elastic Compliance Matrix: (Units=1/GPa)
#
#
# Indices 1 2 3 4 5 6 
#
# 1 -0.018395 0.035964 0.047193 0.000000 0.000000 0.000000
# 2 0.035964 -0.010655 -0.046661 0.000000 0.000000 0.000000
# 3 0.047193 -0.046661 -0.031206 0.000000 0.000000 0.000000
# 4 0.000000 0.000000 0.000000 0.046374 0.000000 0.000000
# 5 0.000000 0.000000 0.000000 0.000000 0.111094 0.000000
# 6 0.000000 0.000000 0.000000 0.000000 0.000000 0.048302
#
#
# Mechanical properties :
#
#
# Convention : Reuss Voigt Hill
#
# Bulk Modulus (GPa) = 78.51874 13.67190 46.09532
# Shear Modulus (GPa) = 65.13170 13.76475 39.44822
#
# Velocity S-wave (km/s) = 6.29710 2.89486 4.90070
# Velocity P-wave (km/s) = 10.03369 4.41558 7.75152
#
# Compressibility (1/GPa) = 0.01273581
#
# Stress axis : x y z
#
# Youngs Moduli (GPa) = -54.36231 -93.84941 -32.04549
#
# Poissons Ratio (x) = 3.37521 1.51232
# Poissons Ratio (y) = 1.95509 -1.49528
# Poissons Ratio (z) = 2.56552 -4.37912
#
# Static dielectric constant tensor:
#      x y z
#    x 1.569250 0.000000 0.000000 
#    y 0.000000 1.529840 0.000000 
#    z 0.000000 0.000000 1.542040 
# 
# From -- ./inp_files/68016.got.cif
#   From: 2010.05.17/outbox.ucp.g08.bks.cvg/sg65_35_cif.got.tgz:68016.got - 2010.06.11 16:39:57.
