data_PCOD9494343
_publ_section_title
;
Structure prediction by ZEFSAII (Michael W. Deem and Ramdas Pophale) SiO2 
 PCOD9494343
Probable space group: C M M M
;
_chemical_formula_sum "Si O2"
_cell_formula_units_Z 88
_cell_length_a 28.126379
_cell_length_b 7.360143
_cell_length_c 22.531519
_cell_angle_alpha 90.000000
_cell_angle_beta 90.000000
_cell_angle_gamma 90.000000
_cell_volume 4664.343739
_symmetry_space_group_name_H-M "C M M M"
_symmetry_group_IT_number 65
_symmetry_cell_setting 'orthorhombic'
loop_
_space_group_symop_operation_xyz
x,y,z
-x,-y,z
x,-y,-z
-x,y,-z
-x,-y,-z
x,y,-z
-x,y,z
x,-y,z
1/2+x,1/2+y,z
1/2-x,1/2-y,z
1/2+x,1/2-y,-z
1/2-x,1/2+y,-z
1/2-x,1/2-y,-z
1/2+x,1/2+y,-z
1/2-x,1/2+y,z
1/2+x,1/2-y,z
loop_
_atom_site_type_symbol
_atom_site_label
_atom_site_fract_x
_atom_site_fract_y
_atom_site_fract_z
Si Si1 0.306496 0.282644 0.870942
Si Si2 0.052886 0.778814 0.687288
Si Si3 0.600778 0.721640 0.565884
Si Si4 0.693275 0.283247 0.000000
Si Si5 0.804159 0.783949 0.372150
Si Si6 0.649226 0.278049 0.251233
O O1 0.312867 0.500000 0.872111
O O2 0.250000 0.250000 0.864989
O O3 0.323108 0.212956 0.935692
O O4 0.333080 0.213630 0.812588
O O5 0.067212 0.723519 0.620372
O O6 0.095985 0.723275 0.730122
O O7 0.000000 0.718070 0.702982
O O8 0.052874 0.000000 0.687727
O O9 0.587856 0.782810 0.500000
O O10 0.600034 0.500000 0.565075
O O11 0.654279 0.780290 0.583935
O O12 0.750000 0.250000 0.000000
O O13 0.685351 0.500000 0.000000
O O14 0.750000 0.750000 0.389186
O O15 0.816613 0.718665 0.305510
O O16 0.809848 0.000000 0.370140
O O17 0.650270 0.500000 0.250215
#
# Coordination Sequence:
#
# PCOD9494343 Si02
#       6
#    16  16  16   8  16  16
#     4   9  15  23  35  51  73  98 121 144 170 200
#     4   8  13  21  33  49  68  89 114 143 175 212
#     4   8  14  23  33  47  68  91 113 140 175 209
#     4   8  14  22  32  48  69  95 123 145 166 196
#     4   9  16  25  36  50  70  95 119 141 167 201
#     4   8  14  23  34  49  69  92 116 143 175 207
#
# _framework density 18.866533
#
# number of rings (size 3 to 8) (size 9 to 14) (size 15 to 20)
#    0.000    3.636    0.000    2.727    0.000    0.727 
#    0.000    1.818    0.000    0.000    0.000    0.636 
#    0.000   23.273    0.000    6.545    0.000   39.091 
#
# Total GULP energy -245131.373981 kJ/mol
# GULP energy per Si atom -5571.167590 kJ/mol
# Density = 1.882359 g / cm^3
# Si number density = 18.866533 Si / 1000 Ang^3
#
#
#
# Elastic Constant Matrix: (Units=GPa)
#
#
# Indices 1 2 3 4 5 6 
#
# 1 76.0565 -5.1416 27.3521 0.0000 0.0000 0.0000
# 2 -5.1416 68.3401 4.2989 0.0000 0.0000 0.0000
# 3 27.3521 4.2989 136.9178 0.0000 0.0000 0.0000
# 4 0.0000 0.0000 0.0000 -12.9143 0.0000 0.0000
# 5 0.0000 0.0000 0.0000 0.0000 13.4964 0.0000
# 6 0.0000 0.0000 0.0000 0.0000 0.0000 5.8210
#
#
#
# Elastic Compliance Matrix: (Units=1/GPa)
#
#
# Indices 1 2 3 4 5 6 
#
# 1 0.014273 0.001256 -0.002891 0.000000 0.000000 0.000000
# 2 0.001256 0.014772 -0.000715 0.000000 0.000000 0.000000
# 3 -0.002891 -0.000715 0.007904 0.000000 0.000000 0.000000
# 4 0.000000 0.000000 0.000000 -0.077434 0.000000 0.000000
# 5 0.000000 0.000000 0.000000 0.000000 0.074094 0.000000
# 6 0.000000 0.000000 0.000000 0.000000 0.000000 0.171792
#
#
# Mechanical properties :
#
#
# Convention : Reuss Voigt Hill
#
# Bulk Modulus (GPa) = 31.00879 37.14812 34.07846
# Shear Modulus (GPa) = 22.63980 18.26761 20.45371
#
# Velocity S-wave (km/s) = 3.46786 3.11506 3.29618
# Velocity P-wave (km/s) = 5.70143 5.71584 5.70864
#
# Compressibility (1/GPa) = 0.03224892
#
# Stress axis : x y z
#
# Youngs Moduli (GPa) = 70.06442 67.69512 126.52527
#
# Poissons Ratio (x) = -0.08500 0.36574
# Poissons Ratio (y) = -0.08798 0.09042
# Poissons Ratio (z) = 0.20253 0.04838
#
# Static dielectric constant tensor:
#      x y z
#    x 1.630110 0.000000 0.000000 
#    y 0.000000 2.082660 0.000000 
#    z 0.000000 0.000000 1.676380 
# 
# From -- ./inp_files/72058.got.cif
#   From: 2010.05.17/outbox.cif.g08.bks.cpg/sg65_37_cif.got.tgz:72058.got - 2010.06.03 17:01:31.
