data_PCOD9494754
_publ_section_title
;
Structure prediction by ZEFSAII (Michael W. Deem and Ramdas Pophale) SiO2 
 PCOD9494754
Probable space group: C M M M
;
_chemical_formula_sum "Si O2"
_cell_formula_units_Z 44
_cell_length_a 9.000000
_cell_length_b 30.000000
_cell_length_c 18.000000
_cell_angle_alpha 90.000000
_cell_angle_beta 90.000000
_cell_angle_gamma 90.000000
_cell_volume 4860.000000
_symmetry_space_group_name_H-M "C M M M"
_symmetry_group_IT_number 65
_symmetry_cell_setting 'orthorhombic'
loop_
_space_group_symop_operation_xyz
x,y,z
-x,-y,z
x,-y,-z
-x,y,-z
-x,-y,-z
x,y,-z
-x,y,z
x,-y,z
1/2+x,1/2+y,z
1/2-x,1/2-y,z
1/2+x,1/2-y,-z
1/2-x,1/2+y,-z
1/2-x,1/2-y,-z
1/2+x,1/2+y,-z
1/2-x,1/2+y,z
1/2+x,1/2-y,z
loop_
_atom_site_type_symbol
_atom_site_label
_atom_site_fract_x
_atom_site_fract_y
_atom_site_fract_z
Si Si1 0.180439 0.201275 0.500000
Si Si2 0.678349 0.950744 0.150053
Si Si3 0.321606 0.298620 0.213549
Si Si4 0.821959 0.644216 0.085257
Si Si5 0.819754 0.855444 0.358030
Si Si6 0.179623 0.049067 0.686924
O O1 0.250000 0.250000 0.500000
O O2 0.228490 0.173416 0.427974
O O3 0.000000 0.204789 0.500000
O O4 0.500000 0.949651 0.160740
O O5 0.717723 0.907365 0.102539
O O6 0.757076 0.947184 0.229808
O O7 0.714952 0.000000 0.118534
O O8 0.500000 0.294865 0.212822
O O9 0.250000 0.250000 0.221000
O O10 0.263481 0.323252 0.140315
O O11 0.276862 0.330071 0.282727
O O12 0.000000 0.648756 0.096954
O O13 0.789417 0.654488 0.000000
O O14 0.770165 0.906888 0.356707
O O15 0.000000 0.856229 0.359913
O O16 0.000000 0.050052 0.690479
O O17 0.223212 0.000000 0.657611
#
# Coordination Sequence:
#
# PCOD9494754 Si02
#       6
#     8  16  16  16  16  16
#     4  10  20  36  55  77 109 139 172 216 263 308
#     4   9  17  30  50  77 106 136 171 212 257 304
#     4  11  22  37  56  77 101 133 176 219 265 315
#     4  10  21  36  53  76 106 138 174 216 262 312
#     4   9  18  33  54  80 107 137 170 212 258 305
#     4   9  16  29  51  77 105 137 172 208 251 306
#
# _framework density 9.0534979999999994
#
# number of rings (size 3 to 8) (size 9 to 14) (size 15 to 20)
#    0.000    2.364    1.818    1.091    0.000    1.091 
#    0.000    4.091    0.000    2.727    0.000    3.818 
#    0.000    3.636    0.000    0.000    0.000    0.000 
#
# Total GULP energy -245327.727859 kJ/mol
# GULP energy per Si atom -5575.630179 kJ/mol
# Density = 0.903289 g / cm^3
# Si number density = 9.053498 Si / 1000 Ang^3
#
#
#
# Elastic Constant Matrix: (Units=GPa)
#
#
# Indices 1 2 3 4 5 6 
#
# 1 15.3689 35.6070 24.9084 0.0000 0.0000 0.0000
# 2 35.6070 180.5595 80.9420 0.0000 0.0000 0.0000
# 3 24.9084 80.9420 95.9423 0.0000 0.0000 0.0000
# 4 0.0000 0.0000 0.0000 -6.8471 0.0000 0.0000
# 5 0.0000 0.0000 0.0000 0.0000 11.4821 0.0000
# 6 0.0000 0.0000 0.0000 0.0000 0.0000 14.9811
#
#
#
# Elastic Compliance Matrix: (Units=1/GPa)
#
#
# Indices 1 2 3 4 5 6 
#
# 1 0.142745 -0.018554 -0.021406 0.000000 0.000000 0.000000
# 2 -0.018554 0.011318 -0.004732 0.000000 0.000000 0.000000
# 3 -0.021406 -0.004732 0.019973 0.000000 0.000000 0.000000
# 4 0.000000 0.000000 0.000000 -0.146047 0.000000 0.000000
# 5 0.000000 0.000000 0.000000 0.000000 0.087092 0.000000
# 6 0.000000 0.000000 0.000000 0.000000 0.000000 0.066751
#
#
# Mechanical properties :
#
#
# Convention : Reuss Voigt Hill
#
# Bulk Modulus (GPa) = 11.81307 63.86506 37.83907
# Shear Modulus (GPa) = 16.69821 13.95077 15.32449
#
# Velocity S-wave (km/s) = 3.04006 2.77873 2.91233
# Velocity P-wave (km/s) = 4.34291 6.75593 5.67906
#
# Compressibility (1/GPa) = 0.08465197
#
# Stress axis : x y z
#
# Youngs Moduli (GPa) = 7.00550 88.35109 50.06870
#
# Poissons Ratio (x) = 1.63924 1.07179
# Poissons Ratio (y) = 0.12998 0.23692
# Poissons Ratio (z) = 0.14996 0.41808
#
# Static dielectric constant tensor:
#      x y z
#    x 1.627260 0.000000 0.000000 
#    y 0.000000 1.638560 0.000000 
#    z 0.000000 0.000000 1.598420 
# 
# From -- ./inp_files/50418.got.cif
#   From: 2010.05.17/outbox.ucp.g08.bks.cvg/sg65_26_cif.got.tgz:50418.got - 2010.06.11 16:39:57.
