data_PCOD9494816
_publ_section_title
;
Structure prediction by ZEFSAII (Michael W. Deem and Ramdas Pophale) SiO2 
 PCOD9494816
Probable space group: C M M M
;
_chemical_formula_sum "Si O2"
_cell_formula_units_Z 48
_cell_length_a 27.000000
_cell_length_b 21.000000
_cell_length_c 9.000000
_cell_angle_alpha 90.000000
_cell_angle_beta 90.000000
_cell_angle_gamma 90.000000
_cell_volume 5103.000000
_symmetry_space_group_name_H-M "C M M M"
_symmetry_group_IT_number 65
_symmetry_cell_setting 'orthorhombic'
loop_
_space_group_symop_operation_xyz
x,y,z
-x,-y,z
x,-y,-z
-x,y,-z
-x,-y,-z
x,y,-z
-x,y,z
x,-y,z
1/2+x,1/2+y,z
1/2-x,1/2-y,z
1/2+x,1/2-y,-z
1/2-x,1/2+y,-z
1/2-x,1/2-y,-z
1/2+x,1/2+y,-z
1/2-x,1/2+y,z
1/2+x,1/2-y,z
loop_
_atom_site_type_symbol
_atom_site_label
_atom_site_fract_x
_atom_site_fract_y
_atom_site_fract_z
Si Si1 0.440830 0.927199 0.823985
Si Si2 0.222951 0.317463 0.175943
Si Si3 0.943210 0.801256 0.174986
Si Si4 0.883076 0.687986 0.676127
Si Si5 0.199453 0.072709 0.824126
Si Si6 0.592475 0.427635 0.322485
O O1 0.500000 0.921490 0.803806
O O2 0.412954 0.873579 0.732813
O O3 0.426747 0.000000 0.785071
O O4 0.430817 0.918314 0.000000
O O5 0.250000 0.250000 0.197165
O O6 0.172943 0.318710 0.268324
O O7 0.260025 0.374798 0.215875
O O8 0.211214 0.323635 0.000000
O O9 0.907204 0.750924 0.252064
O O10 0.937038 0.871132 0.244554
O O11 0.000000 0.779671 0.193710
O O12 0.932079 0.804054 0.000000
O O13 0.885587 0.692969 0.500000
O O14 0.149314 0.079794 0.730856
O O15 0.217585 0.000000 0.804646
O O16 0.187588 0.080999 0.000000
O O17 0.589072 0.421657 0.500000
O O18 0.576973 0.500000 0.281772
#
# Coordination Sequence:
#
# PCOD9494816 Si02
#       6
#    16  16  16  16  16  16
#     4   9  19  38  63  87 113 150 194 236 278 329
#     4  10  21  37  57  80 108 146 191 235 278 329
#     4  11  24  41  61  83 110 149 196 241 281 329
#     4  12  25  38  57  86 119 152 185 231 291 346
#     4   9  18  34  57  83 111 147 190 231 272 325
#     4  10  21  37  59  88 121 153 183 225 285 344
#
# _framework density 9.4062319999999993
#
# number of rings (size 3 to 8) (size 9 to 14) (size 15 to 20)
#    0.000    1.833    0.000    4.500    0.000    8.333 
#    0.000    4.167    0.000    0.000    0.000    0.000 
#    0.000    0.000    0.000    0.000    0.000    0.000 
#
# Total GULP energy -268254.115263 kJ/mol
# GULP energy per Si atom -5588.627401 kJ/mol
# Density = 0.938482 g / cm^3
# Si number density = 9.406232 Si / 1000 Ang^3
#
#
#
# Elastic Constant Matrix: (Units=GPa)
#
#
# Indices 1 2 3 4 5 6 
#
# 1 36.0357 19.9883 26.1334 0.0000 0.0000 0.0000
# 2 19.9883 70.8186 26.7451 0.0000 0.0000 0.0000
# 3 26.1334 26.7451 56.0822 0.0000 0.0000 0.0000
# 4 0.0000 0.0000 0.0000 25.3678 0.0000 0.0000
# 5 0.0000 0.0000 0.0000 0.0000 173.4878 0.0000
# 6 0.0000 0.0000 0.0000 0.0000 0.0000 36.2790
#
#
#
# Elastic Compliance Matrix: (Units=1/GPa)
#
#
# Indices 1 2 3 4 5 6 
#
# 1 0.043701 -0.005664 -0.017663 0.000000 0.000000 0.000000
# 2 -0.005664 0.017956 -0.005924 0.000000 0.000000 0.000000
# 3 -0.017663 -0.005924 0.028887 0.000000 0.000000 0.000000
# 4 0.000000 0.000000 0.000000 0.039420 0.000000 0.000000
# 5 0.000000 0.000000 0.000000 0.000000 0.005764 0.000000
# 6 0.000000 0.000000 0.000000 0.000000 0.000000 0.027564
#
#
# Mechanical properties :
#
#
# Convention : Reuss Voigt Hill
#
# Bulk Modulus (GPa) = 31.20846 34.29668 32.75257
# Shear Modulus (GPa) = 21.50766 53.03156 37.26961
#
# Velocity S-wave (km/s) = 3.38489 5.31515 4.45580
# Velocity P-wave (km/s) = 5.64818 7.47918 6.62722
#
# Compressibility (1/GPa) = 0.03204260
#
# Stress axis : x y z
#
# Youngs Moduli (GPa) = 22.88265 55.69029 34.61802
#
# Poissons Ratio (x) = 0.31543 0.61146
# Poissons Ratio (y) = 0.12961 0.20508
# Poissons Ratio (z) = 0.40417 0.32991
#
# Static dielectric constant tensor:
#      x y z
#    x 1.625640 0.000000 0.000000 
#    y 0.000000 1.639850 0.000000 
#    z 0.000000 0.000000 1.627230 
# 
# From -- ./inp_files/16310.got.cif
#   From: 2010.05.17/outbox.ucp.g08.bks.cvg/sg65_9_cif.got.tgz:16310.got - 2010.06.11 16:39:57.
