data_PCOD9494675
_publ_section_title
;
Structure prediction by ZEFSAII (Michael W. Deem and Ramdas Pophale) SiO2 
 PCOD9494675
Probable space group: C M M M
;
_chemical_formula_sum "Si O2"
_cell_formula_units_Z 40
_cell_length_a 18.000000
_cell_length_b 27.000000
_cell_length_c 9.000000
_cell_angle_alpha 90.000000
_cell_angle_beta 90.000000
_cell_angle_gamma 90.000000
_cell_volume 4374.000000
_symmetry_space_group_name_H-M "C M M M"
_symmetry_group_IT_number 65
_symmetry_cell_setting 'orthorhombic'
loop_
_space_group_symop_operation_xyz
x,y,z
-x,-y,z
x,-y,-z
-x,y,-z
-x,-y,-z
x,y,-z
-x,y,z
x,-y,z
1/2+x,1/2+y,z
1/2-x,1/2-y,z
1/2+x,1/2-y,-z
1/2-x,1/2+y,-z
1/2-x,1/2-y,-z
1/2+x,1/2+y,-z
1/2-x,1/2+y,z
1/2+x,1/2-y,z
loop_
_atom_site_type_symbol
_atom_site_label
_atom_site_fract_x
_atom_site_fract_y
_atom_site_fract_z
Si Si1 0.082049 0.781956 0.326790
Si Si2 0.709682 0.342347 0.175418
Si Si3 0.619138 0.818659 0.826149
Si Si4 0.733664 0.052687 0.177774
Si Si5 0.918635 0.420294 0.322896
O O1 0.091577 0.769102 0.500000
O O2 0.147577 0.816667 0.271762
O O3 0.087142 0.732591 0.229402
O O4 0.000000 0.804380 0.308283
O O5 0.791291 0.318127 0.191592
O O6 0.720962 0.399187 0.222977
O O7 0.690527 0.339694 0.000000
O O8 0.587772 0.863356 0.728759
O O9 0.603710 0.827830 0.000000
O O10 0.652123 0.054975 0.247815
O O11 0.768973 0.000000 0.213936
O O12 0.724536 0.056611 0.000000
O O13 0.912734 0.424270 0.500000
O O14 0.000000 0.439195 0.277891
#
# Coordination Sequence:
#
# PCOD9494675 Si02
#       5
#    16  16  16  16  16
#     4  11  23  35  49  74 106 136 167 204 247 297
#     4   9  19  35  54  76 100 128 166 208 248 296
#     4  10  20  34  53  76 102 135 174 209 243 290
#     4   9  19  36  56  76  98 127 166 212 258 302
#     4  10  20  32  47  72 107 141 172 207 245 289
#
# _framework density 9.1449470000000002
#
# number of rings (size 3 to 8) (size 9 to 14) (size 15 to 20)
#    0.000    2.200    0.000    4.200    0.000   12.800 
#    0.000    2.000    0.000    0.600    0.000    4.200 
#    0.000    0.000    0.000    0.000    0.000    0.000 
#
# Total GULP energy -223180.024501 kJ/mol
# GULP energy per Si atom -5579.500613 kJ/mol
# Density = 0.912413 g / cm^3
# Si number density = 9.144947 Si / 1000 Ang^3
#
#
#
# Elastic Constant Matrix: (Units=GPa)
#
#
# Indices 1 2 3 4 5 6 
#
# 1 40.5684 26.6040 8.8232 0.0000 0.0000 0.0000
# 2 26.6040 75.1344 4.4381 0.0000 0.0000 0.0000
# 3 8.8232 4.4381 -3.9245 0.0000 0.0000 0.0000
# 4 0.0000 0.0000 0.0000 -162.6237 0.0000 0.0000
# 5 0.0000 0.0000 0.0000 0.0000 34.8244 0.0000
# 6 0.0000 0.0000 0.0000 0.0000 0.0000 -25.6350
#
#
#
# Elastic Compliance Matrix: (Units=1/GPa)
#
#
# Indices 1 2 3 4 5 6 
#
# 1 0.022879 -0.010442 0.039628 0.000000 0.000000 0.000000
# 2 -0.010442 0.017242 -0.003977 0.000000 0.000000 0.000000
# 3 0.039628 -0.003977 -0.170214 0.000000 0.000000 0.000000
# 4 0.000000 0.000000 0.000000 -0.006149 0.000000 0.000000
# 5 0.000000 0.000000 0.000000 0.000000 0.028716 0.000000
# 6 0.000000 0.000000 0.000000 0.000000 0.000000 -0.039009
#
#
# Mechanical properties :
#
#
# Convention : Reuss Voigt Hill
#
# Bulk Modulus (GPa) = -12.55088 21.27878 4.36395
# Shear Modulus (GPa) = -22.37008 -25.89268 -24.13138
#
# Velocity S-wave (km/s) = -3.50106 -3.76664 -3.63627
# Velocity P-wave (km/s) = 4.81874 2.69394 3.90369
#
# Compressibility (1/GPa) = -0.07967567
#
# Stress axis : x y z
#
# Youngs Moduli (GPa) = 43.70906 57.99886 -5.87496
#
# Poissons Ratio (x) = 0.60561 0.23281
# Poissons Ratio (y) = 0.45640 -0.02337
# Poissons Ratio (z) = -1.73211 0.23068
#
# Static dielectric constant tensor:
#      x y z
#    x 1.620270 0.000000 0.000000 
#    y 0.000000 1.673920 0.000000 
#    z 0.000000 0.000000 1.599730 
# 
# From -- ./inp_files/9574.got.cif
#   From: 2010.05.17/outbox.ucp.g08.bks.cvg/sg65_5_cif.got.tgz:9574.got - 2010.06.11 16:39:57.
