data_PCOD9494383
_publ_section_title
;
Structure prediction by ZEFSAII (Michael W. Deem and Ramdas Pophale) SiO2 
 PCOD9494383
Probable space group: C M M M
;
_chemical_formula_sum "Si O2"
_cell_formula_units_Z 104
_cell_length_a 21.195818
_cell_length_b 25.627992
_cell_length_c 7.402108
_cell_angle_alpha 90.000000
_cell_angle_beta 90.000000
_cell_angle_gamma 90.000000
_cell_volume 4020.871359
_symmetry_space_group_name_H-M "C M M M"
_symmetry_group_IT_number 65
_symmetry_cell_setting 'orthorhombic'
loop_
_space_group_symop_operation_xyz
x,y,z
-x,-y,z
x,-y,-z
-x,y,-z
-x,-y,-z
x,y,-z
-x,y,z
x,-y,z
1/2+x,1/2+y,z
1/2-x,1/2-y,z
1/2+x,1/2-y,-z
1/2-x,1/2+y,-z
1/2-x,1/2-y,-z
1/2+x,1/2+y,-z
1/2-x,1/2+y,z
1/2+x,1/2-y,z
loop_
_atom_site_type_symbol
_atom_site_label
_atom_site_fract_x
_atom_site_fract_y
_atom_site_fract_z
Si Si1 0.622353 0.219679 0.721397
Si Si2 0.900991 0.943413 0.712987
Si Si3 0.429506 0.889455 0.285108
Si Si4 0.250264 0.057360 0.216879
Si Si5 0.071294 0.500000 0.212268
Si Si6 0.607822 0.668734 0.721264
Si Si7 0.748390 0.173158 0.709320
O O1 0.622821 0.219679 0.500000
O O2 0.593203 0.165672 0.786103
O O3 0.587200 0.272949 0.773657
O O4 0.695348 0.212364 0.779576
O O5 0.916455 0.944373 0.500000
O O6 0.824623 0.942038 0.732109
O O7 0.921427 0.886258 0.783409
O O8 0.921547 0.000000 0.788099
O O9 0.431914 0.883387 0.500000
O O10 0.500000 0.897139 0.212987
O O11 0.396533 0.944976 0.254766
O O12 0.276185 0.113081 0.283782
O O13 0.272494 0.000000 0.280024
O O14 0.255531 0.058342 0.000000
O O15 0.000000 0.500000 0.297018
O O16 0.065197 0.500000 0.000000
O O17 0.605743 0.666231 0.500000
O O18 0.681138 0.670453 0.784009
O O19 0.757085 0.186799 0.500000
#
# Coordination Sequence:
#
# PCOD9494383 Si02
#       7
#    16  16  16  16   8  16  16
#     4   9  16  26  41  62  82 102 132 165 202 245
#     4   8  13  22  38  58  76  98 132 168 196 224
#     4   9  17  30  48  67  86 106 132 171 213 252
#     4   9  16  25  36  50  72 102 132 162 200 238
#     4   9  17  31  51  69  83 105 137 171 213 259
#     4   8  13  22  39  60  81 103 130 167 202 232
#     4   9  16  26  40  56  74 101 136 169 198 234
#
# _framework density 25.865041999999999
#
# number of rings (size 3 to 8) (size 9 to 14) (size 15 to 20)
#    0.000    3.308    0.000    2.077    0.000    3.692 
#    1.385    0.769    0.000   11.077    0.000    0.000 
#    0.000    0.615    0.000    8.615    0.000    0.154 
#
# Total GULP energy -289938.081983 kJ/mol
# GULP energy per Si atom -5575.732346 kJ/mol
# Density = 2.580617 g / cm^3
# Si number density = 25.865042 Si / 1000 Ang^3
#
#
#
# Elastic Constant Matrix: (Units=GPa)
#
#
# Indices 1 2 3 4 5 6 
#
# 1 38.9278 39.0668 -5.8955 0.0000 0.0000 0.0000
# 2 39.0668 297.3578 0.9065 0.0000 0.0000 0.0000
# 3 -5.8955 0.9065 97.4399 0.0000 0.0000 0.0000
# 4 0.0000 0.0000 0.0000 -186.4836 0.0000 0.0000
# 5 0.0000 0.0000 0.0000 0.0000 -8.0023 0.0000
# 6 0.0000 0.0000 0.0000 0.0000 0.0000 2.8335
#
#
#
# Elastic Compliance Matrix: (Units=1/GPa)
#
#
# Indices 1 2 3 4 5 6 
#
# 1 0.029919 -0.003936 0.001847 0.000000 0.000000 0.000000
# 2 -0.003936 0.003881 -0.000274 0.000000 0.000000 0.000000
# 3 0.001847 -0.000274 0.010377 0.000000 0.000000 0.000000
# 4 0.000000 0.000000 0.000000 -0.005362 0.000000 0.000000
# 5 0.000000 0.000000 0.000000 0.000000 -0.124964 0.000000
# 6 0.000000 0.000000 0.000000 0.000000 0.000000 0.352920
#
#
# Mechanical properties :
#
#
# Convention : Reuss Voigt Hill
#
# Bulk Modulus (GPa) = 25.34915 55.76455 40.55685
# Shear Modulus (GPa) = 17.56560 -11.68729 2.93916
#
# Velocity S-wave (km/s) = 2.60883 -2.12800 1.06715
# Velocity P-wave (km/s) = 4.34701 3.94573 4.15122
#
# Compressibility (1/GPa) = 0.03944906
#
# Stress axis : x y z
#
# Youngs Moduli (GPa) = 33.42399 257.66947 96.36674
#
# Poissons Ratio (x) = 1.01427 -0.17797
# Poissons Ratio (y) = 0.13157 0.02643
# Poissons Ratio (z) = -0.06173 0.07067
#
# Static dielectric constant tensor:
#      x y z
#    x 2.082070 0.000000 0.000000 
#    y 0.000000 2.148210 0.000000 
#    z 0.000000 0.000000 2.036260 
# 
# From -- ./inp_files/18899.got.cif
#   From: 2010.05.17/outbox.cif.g08.bks.cpg/sg65_10_cif.got.tgz:18899.got - 2010.06.03 17:01:31.
