data_PCOD9494512
_publ_section_title
;
Structure prediction by ZEFSAII (Michael W. Deem and Ramdas Pophale) SiO2 
 PCOD9494512
Probable space group: C M M M
;
_chemical_formula_sum "Si O2"
_cell_formula_units_Z 88
_cell_length_a 28.463137
_cell_length_b 19.143184
_cell_length_c 7.471625
_cell_angle_alpha 90.000000
_cell_angle_beta 90.000000
_cell_angle_gamma 90.000000
_cell_volume 4071.102186
_symmetry_space_group_name_H-M "C M M M"
_symmetry_group_IT_number 65
_symmetry_cell_setting 'orthorhombic'
loop_
_space_group_symop_operation_xyz
x,y,z
-x,-y,z
x,-y,-z
-x,y,-z
-x,-y,-z
x,y,-z
-x,y,z
x,-y,z
1/2+x,1/2+y,z
1/2-x,1/2-y,z
1/2+x,1/2-y,-z
1/2-x,1/2+y,-z
1/2-x,1/2-y,-z
1/2+x,1/2+y,-z
1/2-x,1/2+y,z
1/2+x,1/2-y,z
loop_
_atom_site_type_symbol
_atom_site_label
_atom_site_fract_x
_atom_site_fract_y
_atom_site_fract_z
Si Si1 0.749340 0.922846 0.218815
Si Si2 0.500000 0.078327 0.281384
Si Si3 0.815712 0.702210 0.205313
Si Si4 0.580917 0.819615 0.282819
Si Si5 0.051752 0.164519 0.286309
Si Si6 0.656642 0.643985 0.214071
O O1 0.719947 0.855115 0.282244
O O2 0.803699 0.910596 0.269566
O O3 0.733241 0.000000 0.277052
O O4 0.746430 0.922320 0.000000
O O5 0.500000 0.078116 0.500000
O O6 0.454455 0.120884 0.225984
O O7 0.500000 0.000000 0.218001
O O8 0.867289 0.669011 0.210702
O O9 0.826013 0.779512 0.284420
O O10 0.800554 0.713712 0.000000
O O11 0.583204 0.818046 0.500000
O O12 0.561131 0.744146 0.224086
O O13 0.048140 0.166493 0.500000
O O14 0.102024 0.127938 0.252257
O O15 0.000000 0.140309 0.219849
O O16 0.658705 0.649343 0.000000
#
# Coordination Sequence:
#
# PCOD9494512 Si02
#       6
#    16   8  16  16  16  16
#     4   9  17  30  48  67  90 122 154 182 221 275
#     4   9  16  26  41  59  83 119 156 185 216 258
#     4   9  17  29  46  68  91 116 147 187 227 262
#     4   9  16  28  44  63  87 116 151 187 220 259
#     4   9  16  28  47  68  91 118 147 182 226 273
#     4   9  17  29  47  71  93 115 149 191 226 259
#
# _framework density 21.615767000000002
#
# number of rings (size 3 to 8) (size 9 to 14) (size 15 to 20)
#    0.000    3.000    0.909    0.545    0.000    3.273 
#    0.000    1.364    0.000    7.091    0.000    3.818 
#    0.000    0.000    0.000    0.000    0.000    0.000 
#
# Total GULP energy -245186.324868 kJ/mol
# GULP energy per Si atom -5572.416474 kJ/mol
# Density = 2.156657 g / cm^3
# Si number density = 21.615767 Si / 1000 Ang^3
#
#
#
# Elastic Constant Matrix: (Units=GPa)
#
#
# Indices 1 2 3 4 5 6 
#
# 1 143.3006 21.2149 2.7976 0.0000 0.0000 0.0000
# 2 21.2149 22.1837 0.0702 0.0000 0.0000 0.0000
# 3 2.7976 0.0702 61.0501 0.0000 0.0000 0.0000
# 4 0.0000 0.0000 0.0000 2.3640 0.0000 0.0000
# 5 0.0000 0.0000 0.0000 0.0000 20.1682 0.0000
# 6 0.0000 0.0000 0.0000 0.0000 0.0000 17.3397
#
#
#
# Elastic Compliance Matrix: (Units=1/GPa)
#
#
# Indices 1 2 3 4 5 6 
#
# 1 0.008137 -0.007781 -0.000364 0.000000 0.000000 0.000000
# 2 -0.007781 0.052518 0.000296 0.000000 0.000000 0.000000
# 3 -0.000364 0.000296 0.016396 0.000000 0.000000 0.000000
# 4 0.000000 0.000000 0.000000 0.423010 0.000000 0.000000
# 5 0.000000 0.000000 0.000000 0.000000 0.049583 0.000000
# 6 0.000000 0.000000 0.000000 0.000000 0.000000 0.057671
#
#
# Mechanical properties :
#
#
# Convention : Reuss Voigt Hill
#
# Bulk Modulus (GPa) = 16.29866 30.52220 23.41043
# Shear Modulus (GPa) = 7.77043 21.47115 14.62079
#
# Velocity S-wave (km/s) = 1.89805 3.15510 2.60358
# Velocity P-wave (km/s) = 3.51568 5.23678 4.46004
#
# Compressibility (1/GPa) = 0.06135475
#
# Stress axis : x y z
#
# Youngs Moduli (GPa) = 122.89002 19.04100 60.98928
#
# Poissons Ratio (x) = 0.14815 0.02220
# Poissons Ratio (y) = 0.95619 -0.01807
# Poissons Ratio (z) = 0.04473 -0.00564
#
# Static dielectric constant tensor:
#      x y z
#    x 1.798910 0.000000 0.000000 
#    y 0.000000 1.764410 0.000000 
#    z 0.000000 0.000000 1.825920 
# 
# From -- ./inp_files/18344.got.cif
#   From: 2010.05.17/outbox.cif.g08.bks.cpg/sg65_10_cif.got.tgz:18344.got - 2010.06.03 17:01:31.
