data_PCOD9494183
_publ_section_title
;
Structure prediction by ZEFSAII (Michael W. Deem and Ramdas Pophale) SiO2 
 PCOD9494183
Probable space group: C M M M
;
_chemical_formula_sum "Si O2"
_cell_formula_units_Z 56
_cell_length_a 8.842787
_cell_length_b 21.735070
_cell_length_c 14.054384
_cell_angle_alpha 90.000000
_cell_angle_beta 90.000000
_cell_angle_gamma 90.000000
_cell_volume 2701.232851
_symmetry_space_group_name_H-M "C M M M"
_symmetry_group_IT_number 65
_symmetry_cell_setting 'orthorhombic'
loop_
_space_group_symop_operation_xyz
x,y,z
-x,-y,z
x,-y,-z
-x,y,-z
-x,-y,-z
x,y,-z
-x,y,z
x,-y,z
1/2+x,1/2+y,z
1/2-x,1/2-y,z
1/2+x,1/2-y,-z
1/2-x,1/2+y,-z
1/2-x,1/2-y,-z
1/2+x,1/2+y,-z
1/2-x,1/2+y,z
1/2+x,1/2-y,z
loop_
_atom_site_type_symbol
_atom_site_label
_atom_site_fract_x
_atom_site_fract_y
_atom_site_fract_z
Si Si1 0.321043 0.188009 0.207259
Si Si2 0.177029 0.068846 0.114573
Si Si3 0.183522 0.864142 0.610363
Si Si4 0.827374 0.000000 0.615438
O O1 0.500000 0.193050 0.208214
O O2 0.250000 0.250000 0.164216
O O3 0.268870 0.126174 0.154040
O O4 0.256107 0.180703 0.313951
O O5 0.000000 0.076521 0.140886
O O6 0.224611 0.000000 0.147042
O O7 0.185339 0.068990 0.000000
O O8 0.222424 0.852493 0.500000
O O9 0.000000 0.863313 0.616734
O O10 0.238102 0.933382 0.638455
O O11 0.835491 0.000000 0.500000
O O12 0.000000 0.000000 0.651062
#
# Coordination Sequence:
#
# PCOD9494183 Si02
#       4
#    16  16  16   8
#     4  12  26  41  59  87 125 166 208 252 303 360
#     4   9  20  42  71  98 123 155 196 243 300 367
#     4   9  18  35  59  86 118 159 206 253 302 358
#     4   7  12  26  51  81 108 141 188 237 289 348
#
# _framework density 20.731275
#
# number of rings (size 3 to 8) (size 9 to 14) (size 15 to 20)
#    0.000    2.429    0.000    5.143    2.000    2.857 
#    0.000    1.429    0.000    2.571    0.000    0.000 
#    0.000    0.000    0.000    0.000    0.000    0.000 
#
# Total GULP energy -156341.626980 kJ/mol
# GULP energy per Si atom -5583.629535 kJ/mol
# Density = 2.068409 g / cm^3
# Si number density = 20.731275 Si / 1000 Ang^3
#
#
#
# Elastic Constant Matrix: (Units=GPa)
#
#
# Indices 1 2 3 4 5 6 
#
# 1 75.5465 55.9656 28.2549 0.0000 0.0000 0.0000
# 2 55.9656 152.9259 34.8894 0.0000 0.0000 0.0000
# 3 28.2549 34.8894 56.4374 0.0000 0.0000 0.0000
# 4 0.0000 0.0000 0.0000 19.2694 0.0000 0.0000
# 5 0.0000 0.0000 0.0000 0.0000 17.7472 0.0000
# 6 0.0000 0.0000 0.0000 0.0000 0.0000 31.7062
#
#
#
# Elastic Compliance Matrix: (Units=1/GPa)
#
#
# Indices 1 2 3 4 5 6 
#
# 1 0.019953 -0.005848 -0.006374 0.000000 0.000000 0.000000
# 2 -0.005848 0.009327 -0.002838 0.000000 0.000000 0.000000
# 3 -0.006374 -0.002838 0.022664 0.000000 0.000000 0.000000
# 4 0.000000 0.000000 0.000000 0.051896 0.000000 0.000000
# 5 0.000000 0.000000 0.000000 0.000000 0.056347 0.000000
# 6 0.000000 0.000000 0.000000 0.000000 0.000000 0.031540
#
#
# Mechanical properties :
#
#
# Convention : Reuss Voigt Hill
#
# Bulk Modulus (GPa) = 45.82129 58.12554 51.97342
# Shear Modulus (GPa) = 21.82251 24.79789 23.31020
#
# Velocity S-wave (km/s) = 3.24796 3.46230 3.35684
# Velocity P-wave (km/s) = 6.01798 6.63942 6.33632
#
# Compressibility (1/GPa) = 0.02182392
#
# Stress axis : x y z
#
# Youngs Moduli (GPa) = 50.11770 107.21876 44.12208
#
# Poissons Ratio (x) = 0.62700 0.28124
# Poissons Ratio (y) = 0.29308 0.12522
# Poissons Ratio (z) = 0.31946 0.30429
#
# Static dielectric constant tensor:
#      x y z
#    x 1.690690 0.000000 0.000000 
#    y 0.000000 1.780300 0.000000 
#    z 0.000000 0.000000 1.771410 
# 
# From -- ./inp_files/35482.got.cif
#   From: 2010.05.17/outbox.cif.g08.bks.cpg/sg65_18_cif.got.tgz:35482.got - 2010.06.03 17:01:31.
