data_PCOD9494468
_publ_section_title
;
Structure prediction by ZEFSAII (Michael W. Deem and Ramdas Pophale) SiO2 
 PCOD9494468
Probable space group: C M M M
;
_chemical_formula_sum "Si O2"
_cell_formula_units_Z 80
_cell_length_a 11.672375
_cell_length_b 14.158999
_cell_length_c 21.875802
_cell_angle_alpha 90.000000
_cell_angle_beta 90.000000
_cell_angle_gamma 90.000000
_cell_volume 3615.395114
_symmetry_space_group_name_H-M "C M M M"
_symmetry_group_IT_number 65
_symmetry_cell_setting 'orthorhombic'
loop_
_space_group_symop_operation_xyz
x,y,z
-x,-y,z
x,-y,-z
-x,y,-z
-x,-y,-z
x,y,-z
-x,y,z
x,-y,z
1/2+x,1/2+y,z
1/2-x,1/2-y,z
1/2+x,1/2-y,-z
1/2-x,1/2+y,-z
1/2-x,1/2-y,-z
1/2+x,1/2+y,-z
1/2-x,1/2+y,z
1/2+x,1/2-y,z
loop_
_atom_site_type_symbol
_atom_site_label
_atom_site_fract_x
_atom_site_fract_y
_atom_site_fract_z
Si Si1 0.739518 0.884766 0.621816
Si Si2 0.869245 0.885196 0.500000
Si Si3 0.872597 0.363451 0.927589
Si Si4 0.500000 0.884794 0.428737
Si Si5 0.870386 0.849362 0.120385
Si Si6 0.868699 0.112184 0.741520
O O1 0.810876 0.854092 0.562579
O O2 0.611355 0.854690 0.607682
O O3 0.788434 0.855266 0.686811
O O4 0.743742 0.000000 0.622553
O O5 0.000000 0.857996 0.500000
O O6 0.862119 0.000000 0.500000
O O7 0.873613 0.251541 0.912994
O O8 0.749455 0.396358 0.900990
O O9 0.000000 0.396674 0.905610
O O10 0.869272 0.379559 0.000000
O O11 0.500000 0.856565 0.500000
O O12 0.500000 0.000000 0.430208
O O13 0.857878 0.837571 0.193425
O O14 0.000000 0.891307 0.110958
O O15 0.000000 0.120937 0.720209
O O16 0.848566 0.000000 0.753378
#
# Coordination Sequence:
#
# PCOD9494468 Si02
#       6
#    16   8  16   8  16  16
#     4   9  15  23  34  49  72 104 140 174 209 245
#     4   9  14  19  31  49  67  93 133 177 212 240
#     4   9  17  30  50  73  91 106 131 174 221 255
#     4   9  14  22  34  48  68  98 139 185 219 241
#     4   9  16  27  45  67  89 113 141 172 208 250
#     4   9  17  28  40  57  86 120 147 170 200 246
#
# _framework density 22.127594999999999
#
# number of rings (size 3 to 8) (size 9 to 14) (size 15 to 20)
#    0.000    3.000    1.000    1.800    0.000    3.600 
#    1.800    0.000    0.000    2.400    0.000   14.000 
#    0.000    3.200    0.000    7.400    0.000    5.400 
#
# Total GULP energy -223099.876796 kJ/mol
# GULP energy per Si atom -5577.496920 kJ/mol
# Density = 2.207723 g / cm^3
# Si number density = 22.127595 Si / 1000 Ang^3
#
#
#
# Elastic Constant Matrix: (Units=GPa)
#
#
# Indices 1 2 3 4 5 6 
#
# 1 230.5275 11.7170 80.8119 0.0000 0.0000 0.0000
# 2 11.7170 81.0702 1.2778 0.0000 0.0000 0.0000
# 3 80.8119 1.2778 107.1272 0.0000 0.0000 0.0000
# 4 0.0000 0.0000 0.0000 11.5402 0.0000 0.0000
# 5 0.0000 0.0000 0.0000 0.0000 61.8301 0.0000
# 6 0.0000 0.0000 0.0000 0.0000 0.0000 -7.9875
#
#
#
# Elastic Compliance Matrix: (Units=1/GPa)
#
#
# Indices 1 2 3 4 5 6 
#
# 1 0.005947 -0.000789 -0.004477 0.000000 0.000000 0.000000
# 2 -0.000789 0.012442 0.000447 0.000000 0.000000 0.000000
# 3 -0.004477 0.000447 0.012707 0.000000 0.000000 0.000000
# 4 0.000000 0.000000 0.000000 0.086654 0.000000 0.000000
# 5 0.000000 0.000000 0.000000 0.000000 0.016173 0.000000
# 6 0.000000 0.000000 0.000000 0.000000 0.000000 -0.125196
#
#
# Mechanical properties :
#
#
# Convention : Reuss Voigt Hill
#
# Bulk Modulus (GPa) = 46.60374 67.37093 56.98734
# Shear Modulus (GPa) = 195.93573 34.73777 115.33675
#
# Velocity S-wave (km/s) = 9.42021 3.96648 7.22749
# Velocity P-wave (km/s) = 11.80795 7.17565 9.77030
#
# Compressibility (1/GPa) = 0.02145750
#
# Stress axis : x y z
#
# Youngs Moduli (GPa) = 168.14010 80.37301 78.69893
#
# Poissons Ratio (x) = 0.06341 0.35234
# Poissons Ratio (y) = 0.13266 -0.03516
# Poissons Ratio (z) = 0.75277 -0.03591
#
# Static dielectric constant tensor:
#      x y z
#    x 1.833960 0.000000 0.000000 
#    y 0.000000 1.878800 0.000000 
#    z 0.000000 0.000000 1.733810 
# 
# From -- ./inp_files/56632.got.cif
#   From: 2010.05.17/outbox.cif.g08.bks.cpg/sg65_29_cif.got.tgz:56632.got - 2010.06.03 17:01:31.
