data_PCOD9494790
_publ_section_title
;
Structure prediction by ZEFSAII (Michael W. Deem and Ramdas Pophale) SiO2 
 PCOD9494790
Probable space group: C M M M
;
_chemical_formula_sum "Si O2"
_cell_formula_units_Z 52
_cell_length_a 9.000000
_cell_length_b 21.000000
_cell_length_c 27.000000
_cell_angle_alpha 90.000000
_cell_angle_beta 90.000000
_cell_angle_gamma 90.000000
_cell_volume 5103.000000
_symmetry_space_group_name_H-M "C M M M"
_symmetry_group_IT_number 65
_symmetry_cell_setting 'orthorhombic'
loop_
_space_group_symop_operation_xyz
x,y,z
-x,-y,z
x,-y,-z
-x,y,-z
-x,-y,-z
x,y,-z
-x,y,z
x,-y,z
1/2+x,1/2+y,z
1/2-x,1/2-y,z
1/2+x,1/2-y,-z
1/2-x,1/2+y,-z
1/2-x,1/2-y,-z
1/2+x,1/2+y,-z
1/2-x,1/2+y,z
1/2+x,1/2-y,z
loop_
_atom_site_type_symbol
_atom_site_label
_atom_site_fract_x
_atom_site_fract_y
_atom_site_fract_z
Si Si1 0.179853 0.073151 0.608361
Si Si2 0.165955 0.311622 0.654641
Si Si3 0.328894 0.432142 0.922312
Si Si4 0.328814 0.567671 0.803098
Si Si5 0.159531 0.693352 0.942172
Si Si6 0.337806 0.809121 0.227426
Si Si7 0.669480 0.577206 0.500000
O O1 0.243517 0.124299 0.645539
O O2 0.235475 0.093058 0.553270
O O3 0.000000 0.074614 0.607873
O O4 0.223503 0.000000 0.618273
O O5 0.250000 0.250000 0.633708
O O6 0.153334 0.301667 0.713452
O O7 0.000000 0.316953 0.634184
O O8 0.500000 0.428807 0.937804
O O9 0.265850 0.500000 0.938417
O O10 0.326806 0.430637 0.862655
O O11 0.243429 0.372204 0.940788
O O12 0.500000 0.570875 0.787540
O O13 0.265290 0.500000 0.786755
O O14 0.243034 0.626118 0.782606
O O15 0.250000 0.750000 0.917988
O O16 0.000000 0.686629 0.918543
O O17 0.141239 0.709565 0.000000
O O18 0.500000 0.810692 0.205768
O O19 0.250000 0.750000 0.206361
O O20 0.660829 0.500000 0.500000
O O21 0.500000 0.601598 0.500000
#
# Coordination Sequence:
#
# PCOD9494790 Si02
#       7
#    16  16  16  16  16  16   8
#     4   9  17  31  53  78 102 131 167 205 248 299
#     4  10  21  36  52  72 101 134 169 210 253 299
#     4   9  19  36  56  78 105 137 171 207 251 302
#     4   9  19  36  56  78 105 135 168 208 251 298
#     4  10  21  36  54  77 105 137 174 215 256 299
#     4  10  21  36  54  75 100 133 171 210 253 301
#     4   7  12  26  48  73 100 129 163 203 244 291
#
# _framework density 10.190084000000001
#
# number of rings (size 3 to 8) (size 9 to 14) (size 15 to 20)
#    0.000    2.692    0.000    3.231    0.000    5.846 
#    0.000    6.923    0.000    1.385    0.000    0.000 
#    0.000    0.000    0.000    0.000    0.000    0.000 
#
# Total GULP energy -289469.267619 kJ/mol
# GULP energy per Si atom -5566.716685 kJ/mol
# Density = 1.016689 g / cm^3
# Si number density = 10.190084 Si / 1000 Ang^3
#
#
#
# Elastic Constant Matrix: (Units=GPa)
#
#
# Indices 1 2 3 4 5 6 
#
# 1 66.4767 88.0295 18.4110 0.0000 0.0000 0.0000
# 2 88.0295 152.2439 11.9515 0.0000 0.0000 0.0000
# 3 18.4110 11.9515 9.1963 0.0000 0.0000 0.0000
# 4 0.0000 0.0000 0.0000 74.9223 0.0000 0.0000
# 5 0.0000 0.0000 0.0000 0.0000 -6.4008 0.0000
# 6 0.0000 0.0000 0.0000 0.0000 0.0000 -28.6218
#
#
#
# Elastic Compliance Matrix: (Units=1/GPa)
#
#
# Indices 1 2 3 4 5 6 
#
# 1 -2.277114 1.067711 3.171193 0.000000 0.000000 0.000000
# 2 1.067711 -0.493322 -1.496441 0.000000 0.000000 0.000000
# 3 3.171193 -1.496441 -4.295228 0.000000 0.000000 0.000000
# 4 0.000000 0.000000 0.000000 0.013347 0.000000 0.000000
# 5 0.000000 0.000000 0.000000 0.000000 -0.156231 0.000000
# 6 0.000000 0.000000 0.000000 0.000000 0.000000 -0.034938
#
#
# Mechanical properties :
#
#
# Convention : Reuss Voigt Hill
#
# Bulk Modulus (GPa) = -0.63262 51.63341 25.50040
# Shear Modulus (GPa) = -0.37721 15.28160 7.45220
#
# Velocity S-wave (km/s) = -0.43068 2.74127 1.91430
# Velocity P-wave (km/s) = 0.74726 5.95059 4.17439
#
# Compressibility (1/GPa) = -1.58073659
#
# Stress axis : x y z
#
# Youngs Moduli (GPa) = -0.43915 -2.02707 -0.23282
#
# Poissons Ratio (x) = 2.16433 0.73831
# Poissons Ratio (y) = 0.46889 -0.34840
# Poissons Ratio (z) = 1.39264 -3.03339
#
# Static dielectric constant tensor:
#      x y z
#    x 1.759450 0.000000 0.000000 
#    y 0.000000 1.704630 0.000000 
#    z 0.000000 0.000000 1.770780 
# 
# From -- ./inp_files/73314.got.cif
#   From: 2010.05.17/outbox.ucp.g08.bks.cvg/sg65_37_cif.got.tgz:73314.got - 2010.06.11 16:39:57.
