data_PCOD9494707
_publ_section_title
;
Structure prediction by ZEFSAII (Michael W. Deem and Ramdas Pophale) SiO2 
 PCOD9494707
Probable space group: C M M M
;
_chemical_formula_sum "Si O2"
_cell_formula_units_Z 36
_cell_length_a 30.000000
_cell_length_b 15.000000
_cell_length_c 9.000000
_cell_angle_alpha 90.000000
_cell_angle_beta 90.000000
_cell_angle_gamma 90.000000
_cell_volume 4050.000000
_symmetry_space_group_name_H-M "C M M M"
_symmetry_group_IT_number 65
_symmetry_cell_setting 'orthorhombic'
loop_
_space_group_symop_operation_xyz
x,y,z
-x,-y,z
x,-y,-z
-x,y,-z
-x,-y,-z
x,y,-z
-x,y,z
x,-y,z
1/2+x,1/2+y,z
1/2-x,1/2-y,z
1/2+x,1/2-y,-z
1/2-x,1/2+y,-z
1/2-x,1/2-y,-z
1/2+x,1/2+y,-z
1/2-x,1/2+y,z
1/2+x,1/2-y,z
loop_
_atom_site_type_symbol
_atom_site_label
_atom_site_fract_x
_atom_site_fract_y
_atom_site_fract_z
Si Si1 0.000000 0.608550 0.830194
Si Si2 0.666034 0.400565 0.329998
Si Si3 0.162982 0.720459 0.826688
Si Si4 0.726817 0.100225 0.670543
Si Si5 0.910722 0.397034 0.676070
O O1 0.043921 0.638123 0.746595
O O2 0.000000 0.500000 0.825830
O O3 0.000000 0.636596 0.000000
O O4 0.651770 0.381755 0.500000
O O5 0.650811 0.500000 0.288911
O O6 0.654310 0.321293 0.221367
O O7 0.719876 0.401909 0.331481
O O8 0.209765 0.679023 0.773448
O O9 0.129286 0.659231 0.737187
O O10 0.157713 0.709195 0.000000
O O11 0.711762 0.115289 0.500000
O O12 0.711673 0.000000 0.715264
O O13 0.913356 0.393878 0.500000
O O14 0.905117 0.500000 0.721191
#
# Coordination Sequence:
#
# PCOD9494707 Si02
#       5
#     8  16  16  16  16
#     4   9  17  31  51  75 104 131 154 189 239 289
#     4   9  19  36  54  68  87 123 169 210 247 290
#     4  12  23  31  45  72 102 129 159 201 250 291
#     4   9  18  33  51  69  92 126 166 204 242 289
#     4  10  20  34  52  73  99 133 169 198 228 278
#
# _framework density 8.8888890000000007
#
# number of rings (size 3 to 8) (size 9 to 14) (size 15 to 20)
#    0.000    2.111    0.000    5.667    0.000    9.778 
#    0.000    2.222    0.000    0.000    0.000    0.778 
#    0.000    6.222    0.000    0.000    0.000    0.000 
#
# Total GULP energy -200712.157698 kJ/mol
# GULP energy per Si atom -5575.337714 kJ/mol
# Density = 0.886866 g / cm^3
# Si number density = 8.888889 Si / 1000 Ang^3
#
#
#
# Elastic Constant Matrix: (Units=GPa)
#
#
# Indices 1 2 3 4 5 6 
#
# 1 42.8691 2.9856 5.3043 0.0000 0.0000 0.0000
# 2 2.9856 -3.9778 -48.6396 0.0000 0.0000 0.0000
# 3 5.3043 -48.6396 -82.8292 0.0000 0.0000 0.0000
# 4 0.0000 0.0000 0.0000 -1.7487 0.0000 0.0000
# 5 0.0000 0.0000 0.0000 0.0000 27.4855 0.0000
# 6 0.0000 0.0000 0.0000 0.0000 0.0000 -1.2941
#
#
#
# Elastic Compliance Matrix: (Units=1/GPa)
#
#
# Indices 1 2 3 4 5 6 
#
# 1 0.023144 0.000122 0.001411 0.000000 0.000000 0.000000
# 2 0.000122 0.040676 -0.023878 0.000000 0.000000 0.000000
# 3 0.001411 -0.023878 0.002039 0.000000 0.000000 0.000000
# 4 0.000000 0.000000 0.000000 -0.571839 0.000000 0.000000
# 5 0.000000 0.000000 0.000000 0.000000 0.036383 0.000000
# 6 0.000000 0.000000 0.000000 0.000000 0.000000 -0.772708
#
#
# Mechanical properties :
#
#
# Convention : Reuss Voigt Hill
#
# Bulk Modulus (GPa) = 47.24282 -13.84859 16.69711
# Shear Modulus (GPa) = -4.19972 4.64930 0.22479
#
# Velocity S-wave (km/s) = -1.53866 1.61892 0.35598
# Velocity P-wave (km/s) = 4.84512 2.07658 3.09540
#
# Compressibility (1/GPa) = 0.02116724
#
# Stress axis : x y z
#
# Youngs Moduli (GPa) = 43.20810 24.58438 490.34449
#
# Poissons Ratio (x) = -0.00299 -0.69171
# Poissons Ratio (y) = -0.00526 11.70866
# Poissons Ratio (z) = -0.06095 0.58704
#
# Static dielectric constant tensor:
#      x y z
#    x 1.568840 0.000000 0.000000 
#    y 0.000000 1.630350 0.000000 
#    z 0.000000 0.000000 1.590820 
# 
# From -- ./inp_files/7645.got.cif
#   From: 2010.05.17/outbox.ucp.g08.bks.cvg/sg65_4_cif.got.tgz:7645.got - 2010.06.11 16:39:57.
