data_PCOD9494335
_publ_section_title
;
Structure prediction by ZEFSAII (Michael W. Deem and Ramdas Pophale) SiO2 
 PCOD9494335
Probable space group: C M M M
;
_chemical_formula_sum "Si O2"
_cell_formula_units_Z 80
_cell_length_a 7.499511
_cell_length_b 29.380714
_cell_length_c 19.212908
_cell_angle_alpha 90.000000
_cell_angle_beta 90.000000
_cell_angle_gamma 90.000000
_cell_volume 4233.391128
_symmetry_space_group_name_H-M "C M M M"
_symmetry_group_IT_number 65
_symmetry_cell_setting 'orthorhombic'
loop_
_space_group_symop_operation_xyz
x,y,z
-x,-y,z
x,-y,-z
-x,y,-z
-x,-y,-z
x,y,-z
-x,y,z
x,-y,z
1/2+x,1/2+y,z
1/2-x,1/2-y,z
1/2+x,1/2-y,-z
1/2-x,1/2+y,-z
1/2-x,1/2-y,-z
1/2+x,1/2+y,-z
1/2-x,1/2+y,z
1/2+x,1/2-y,z
loop_
_atom_site_type_symbol
_atom_site_label
_atom_site_fract_x
_atom_site_fract_y
_atom_site_fract_z
Si Si1 0.211731 0.948130 0.651892
Si Si2 0.783075 0.946706 0.077054
Si Si3 0.281507 0.392942 0.784805
Si Si4 0.711465 0.051701 0.500000
Si Si5 0.786307 0.803140 0.847810
Si Si6 0.287151 0.695924 0.000000
O O1 0.281706 0.918156 0.715438
O O2 0.237583 0.928073 0.574555
O O3 0.000000 0.951722 0.662223
O O4 0.284391 0.000000 0.652983
O O5 0.725178 0.919299 0.144975
O O6 0.000000 0.944754 0.076832
O O7 0.734259 0.000000 0.083145
O O8 0.725733 0.930211 0.000000
O O9 0.500000 0.393969 0.783793
O O10 0.225319 0.340442 0.792591
O O11 0.500000 0.048791 0.500000
O O12 0.787977 0.000000 0.500000
O O13 0.750000 0.750000 0.835112
O O14 0.000000 0.806351 0.851620
O O15 0.717822 0.818328 0.924506
O O16 0.250000 0.750000 0.000000
O O17 0.500000 0.686984 0.000000
#
# Coordination Sequence:
#
# PCOD9494335 Si02
#       6
#    16  16  16   8  16   8
#     4   9  16  27  44  66  91 116 141 170 207 253
#     4   8  13  20  31  51  81 114 144 174 208 246
#     4   9  16  24  38  59  84 113 144 176 213 254
#     4   9  17  29  45  65  90 117 142 169 204 249
#     4   9  17  28  41  58  81 110 144 182 221 256
#     4   8  14  24  38  54  73 101 137 177 216 250
#
# _framework density 18.897379999999998
#
# number of rings (size 3 to 8) (size 9 to 14) (size 15 to 20)
#    0.000    3.300    0.000    1.500    1.400    3.600 
#    0.000    1.000    0.000    0.000    0.000    0.700 
#    0.000    0.000    0.000    9.600    0.000    9.200 
#
# Total GULP energy -222830.915008 kJ/mol
# GULP energy per Si atom -5570.772875 kJ/mol
# Density = 1.885437 g / cm^3
# Si number density = 18.897380 Si / 1000 Ang^3
#
#
#
# Elastic Constant Matrix: (Units=GPa)
#
#
# Indices 1 2 3 4 5 6 
#
# 1 50.7327 2.6057 3.1382 0.0000 0.0000 0.0000
# 2 2.6057 92.2681 90.0327 0.0000 0.0000 0.0000
# 3 3.1382 90.0327 178.3071 0.0000 0.0000 0.0000
# 4 0.0000 0.0000 0.0000 15.2536 0.0000 0.0000
# 5 0.0000 0.0000 0.0000 0.0000 -19.7503 0.0000
# 6 0.0000 0.0000 0.0000 0.0000 0.0000 4.8509
#
#
#
# Elastic Compliance Matrix: (Units=1/GPa)
#
#
# Indices 1 2 3 4 5 6 
#
# 1 0.019741 -0.000431 -0.000130 0.000000 0.000000 0.000000
# 2 -0.000431 0.021373 -0.010784 0.000000 0.000000 0.000000
# 3 -0.000130 -0.010784 0.011056 0.000000 0.000000 0.000000
# 4 0.000000 0.000000 0.000000 0.065558 0.000000 0.000000
# 5 0.000000 0.000000 0.000000 0.000000 -0.050632 0.000000
# 6 0.000000 0.000000 0.000000 0.000000 0.000000 0.206149
#
#
# Mechanical properties :
#
#
# Convention : Reuss Voigt Hill
#
# Bulk Modulus (GPa) = 33.92087 56.98458 45.45272
# Shear Modulus (GPa) = 16.35255 15.10627 15.72941
#
# Velocity S-wave (km/s) = 2.94485 2.83041 2.88819
# Velocity P-wave (km/s) = 5.43616 6.39545 5.93522
#
# Compressibility (1/GPa) = 0.02948037
#
# Stress axis : x y z
#
# Youngs Moduli (GPa) = 50.65521 46.78735 90.44878
#
# Poissons Ratio (x) = 0.02015 0.01176
# Poissons Ratio (y) = 0.02182 0.97544
# Poissons Ratio (z) = 0.00658 0.50458
#
# Static dielectric constant tensor:
#      x y z
#    x 1.732390 0.000000 0.000000 
#    y 0.000000 1.661760 0.000000 
#    z 0.000000 0.000000 1.678160 
# 
# From -- ./inp_files/51616.got.cif
#   From: 2010.05.17/outbox.cif.g08.bks.cpg/sg65_26_cif.got.tgz:51616.got - 2010.06.03 17:01:31.
