data_PCOD9494432
_publ_section_title
;
Structure prediction by ZEFSAII (Michael W. Deem and Ramdas Pophale) SiO2 
 PCOD9494432
Probable space group: C M M M
;
_chemical_formula_sum "Si O2"
_cell_formula_units_Z 104
_cell_length_a 19.549696
_cell_length_b 9.375226
_cell_length_c 34.675009
_cell_angle_alpha 90.000000
_cell_angle_beta 90.000000
_cell_angle_gamma 90.000000
_cell_volume 6355.333372
_symmetry_space_group_name_H-M "C M M M"
_symmetry_group_IT_number 65
_symmetry_cell_setting 'orthorhombic'
loop_
_space_group_symop_operation_xyz
x,y,z
-x,-y,z
x,-y,-z
-x,y,-z
-x,-y,-z
x,y,-z
-x,y,z
x,-y,z
1/2+x,1/2+y,z
1/2-x,1/2-y,z
1/2+x,1/2-y,-z
1/2-x,1/2+y,-z
1/2-x,1/2-y,-z
1/2+x,1/2+y,-z
1/2-x,1/2+y,z
1/2+x,1/2-y,z
loop_
_atom_site_type_symbol
_atom_site_label
_atom_site_fract_x
_atom_site_fract_y
_atom_site_fract_z
Si Si1 0.178269 0.171160 0.188603
Si Si2 0.083495 0.164825 0.500000
Si Si3 0.579989 0.671040 0.118832
Si Si4 0.178477 0.170637 0.723705
Si Si5 0.916945 0.666698 0.042640
Si Si6 0.083322 0.335536 0.576149
Si Si7 0.080805 0.830120 0.653220
O O1 0.250000 0.250000 0.182376
O O2 0.124086 0.212878 0.155983
O O3 0.155236 0.203550 0.232484
O O4 0.188039 0.000000 0.186197
O O5 0.105528 0.247951 0.538463
O O6 0.000000 0.164895 0.500000
O O7 0.105164 0.000000 0.500000
O O8 0.500000 0.708889 0.124277
O O9 0.583598 0.500000 0.114639
O O10 0.605851 0.743932 0.079522
O O11 0.250000 0.250000 0.717209
O O12 0.123888 0.208730 0.690994
O O13 0.189235 0.000000 0.721716
O O14 0.899120 0.500000 0.046915
O O15 0.000000 0.674903 0.042295
O O16 0.893745 0.715460 0.000000
O O17 0.105509 0.500000 0.574844
O O18 0.103538 0.257320 0.615620
O O19 0.000000 0.335172 0.575637
O O20 0.000000 0.803954 0.659447
O O21 0.088730 0.000000 0.646029
#
# Coordination Sequence:
#
# PCOD9494432 Si02
#       7
#    16   8  16  16  16  16  16
#     4   9  18  32  48  66  89 118 150 183 222 267
#     4   9  15  23  37  57  84 119 154 185 218 261
#     4   9  17  28  44  68  94 117 145 184 226 265
#     4   9  18  32  49  67  88 117 152 187 222 265
#     4   8  14  25  41  62  89 119 148 178 215 261
#     4   9  16  25  38  59  88 119 149 183 224 266
#     4   9  17  29  45  66  91 118 149 185 225 266
#
# _framework density 16.364208000000001
#
# number of rings (size 3 to 8) (size 9 to 14) (size 15 to 20)
#    0.000    3.154    0.000    1.154    0.000    4.923 
#    0.000    4.615    0.000    0.462    0.000    9.154 
#    0.000    0.000    0.000    0.000    0.000    0.000 
#
# Total GULP energy -289529.845773 kJ/mol
# GULP energy per Si atom -5567.881649 kJ/mol
# Density = 1.632696 g / cm^3
# Si number density = 16.364208 Si / 1000 Ang^3
#
#
#
# Elastic Constant Matrix: (Units=GPa)
#
#
# Indices 1 2 3 4 5 6 
#
# 1 33.7020 31.5281 68.4276 0.0000 0.0000 0.0000
# 2 31.5281 56.2526 79.9261 0.0000 0.0000 0.0000
# 3 68.4276 79.9261 198.9712 0.0000 0.0000 0.0000
# 4 0.0000 0.0000 0.0000 25.9874 0.0000 0.0000
# 5 0.0000 0.0000 0.0000 0.0000 -4.6509 0.0000
# 6 0.0000 0.0000 0.0000 0.0000 0.0000 16.3181
#
#
#
# Elastic Compliance Matrix: (Units=1/GPa)
#
#
# Indices 1 2 3 4 5 6 
#
# 1 0.105340 -0.017629 -0.029146 0.000000 0.000000 0.000000
# 2 -0.017629 0.044364 -0.011758 0.000000 0.000000 0.000000
# 3 -0.029146 -0.011758 0.019773 0.000000 0.000000 0.000000
# 4 0.000000 0.000000 0.000000 0.038480 0.000000 0.000000
# 5 0.000000 0.000000 0.000000 0.000000 -0.215011 0.000000
# 6 0.000000 0.000000 0.000000 0.000000 0.000000 0.061282
#
#
# Mechanical properties :
#
#
# Convention : Reuss Voigt Hill
#
# Bulk Modulus (GPa) = 19.07989 72.07660 45.57825
# Shear Modulus (GPa) = 26.48827 14.80052 20.64439
#
# Velocity S-wave (km/s) = 4.02764 3.01066 3.55569
# Velocity P-wave (km/s) = 5.77183 7.49842 6.69105
#
# Compressibility (1/GPa) = 0.05241120
#
# Stress axis : x y z
#
# Youngs Moduli (GPa) = 9.49308 22.54083 50.57510
#
# Poissons Ratio (x) = 0.39736 1.47405
# Poissons Ratio (y) = 0.16735 0.59468
# Poissons Ratio (z) = 0.27668 0.26504
#
# Static dielectric constant tensor:
#      x y z
#    x 1.520560 0.000000 0.000000 
#    y 0.000000 1.547100 0.000000 
#    z 0.000000 0.000000 1.556190 
# 
# From -- ./inp_files/75769.got.cif
#   From: 2010.05.17/outbox.cif.g08.bks.cpg/sg65_38_cif.got.tgz:75769.got - 2010.06.03 17:01:31.
