data_PCOD9494606
_publ_section_title
;
Structure prediction by ZEFSAII (Michael W. Deem and Ramdas Pophale) SiO2 
 PCOD9494606
Probable space group: C M M M
;
_chemical_formula_sum "Si O2"
_cell_formula_units_Z 44
_cell_length_a 15.000000
_cell_length_b 21.000000
_cell_length_c 15.000000
_cell_angle_alpha 90.000000
_cell_angle_beta 90.000000
_cell_angle_gamma 90.000000
_cell_volume 4725.000000
_symmetry_space_group_name_H-M "C M M M"
_symmetry_group_IT_number 65
_symmetry_cell_setting 'orthorhombic'
loop_
_space_group_symop_operation_xyz
x,y,z
-x,-y,z
x,-y,-z
-x,y,-z
-x,-y,-z
x,y,-z
-x,y,z
x,-y,z
1/2+x,1/2+y,z
1/2-x,1/2-y,z
1/2+x,1/2-y,-z
1/2-x,1/2+y,-z
1/2-x,1/2-y,-z
1/2+x,1/2+y,-z
1/2-x,1/2+y,z
1/2+x,1/2-y,z
loop_
_atom_site_type_symbol
_atom_site_label
_atom_site_fract_x
_atom_site_fract_y
_atom_site_fract_z
Si Si1 0.398329 0.000000 0.608150
Si Si2 0.399804 0.781943 0.289241
Si Si3 0.718985 0.121799 0.393846
Si Si4 0.397781 0.385196 0.904112
Si Si5 0.144228 0.262508 0.903144
Si Si6 0.104891 0.127579 0.706895
O O1 0.343661 0.937235 0.633354
O O2 0.500000 0.000000 0.640947
O O3 0.401586 0.000000 0.500000
O O4 0.500000 0.799181 0.319734
O O5 0.324055 0.817002 0.345330
O O6 0.388408 0.797979 0.184489
O O7 0.392252 0.705087 0.292851
O O8 0.715311 0.130249 0.500000
O O9 0.820308 0.108522 0.363712
O O10 0.500000 0.407480 0.905214
O O11 0.397861 0.308040 0.905002
O O12 0.364507 0.398967 0.804310
O O13 0.356142 0.404863 0.000000
O O14 0.250000 0.250000 0.894529
O O15 0.127305 0.292641 0.000000
O O16 0.000000 0.110528 0.692441
#
# Coordination Sequence:
#
# PCOD9494606 Si02
#       6
#     8  16  16  16  16  16
#     4   9  20  40  61  75  86 111 163 223 261 282
#     4  10  19  30  47  73 104 135 166 201 244 294
#     4  11  22  36  53  71  94 126 167 213 253 292
#     4   8  13  23  40  62  93 132 164 189 222 269
#     4   9  15  23  38  62  95 132 164 194 232 284
#     4   9  18  31  48  76 111 137 158 190 240 305
#
# _framework density 9.3121690000000008
#
# number of rings (size 3 to 8) (size 9 to 14) (size 15 to 20)
#    0.000    2.636    0.000    4.909    0.000    4.000 
#    0.000    2.273    0.000    1.636    0.000    2.545 
#    0.000    7.273    0.000    0.000    0.000    0.000 
#
# Total GULP energy -244974.794462 kJ/mol
# GULP energy per Si atom -5567.608965 kJ/mol
# Density = 0.929097 g / cm^3
# Si number density = 9.312169 Si / 1000 Ang^3
#
#
#
# Elastic Constant Matrix: (Units=GPa)
#
#
# Indices 1 2 3 4 5 6 
#
# 1 105.8325 13.4774 31.7760 0.0000 0.0000 0.0000
# 2 13.4774 11.2508 3.2594 0.0000 0.0000 0.0000
# 3 31.7760 3.2594 94.1265 0.0000 0.0000 0.0000
# 4 0.0000 0.0000 0.0000 -14.7490 0.0000 0.0000
# 5 0.0000 0.0000 0.0000 0.0000 23.9982 0.0000
# 6 0.0000 0.0000 0.0000 0.0000 0.0000 15.1996
#
#
#
# Elastic Compliance Matrix: (Units=1/GPa)
#
#
# Indices 1 2 3 4 5 6 
#
# 1 0.012292 -0.013660 -0.003677 0.000000 0.000000 0.000000
# 2 -0.013660 0.104963 0.000977 0.000000 0.000000 0.000000
# 3 -0.003677 0.000977 0.011831 0.000000 0.000000 0.000000
# 4 0.000000 0.000000 0.000000 -0.067801 0.000000 0.000000
# 5 0.000000 0.000000 0.000000 0.000000 0.041670 0.000000
# 6 0.000000 0.000000 0.000000 0.000000 0.000000 0.065791
#
#
# Mechanical properties :
#
#
# Convention : Reuss Voigt Hill
#
# Bulk Modulus (GPa) = 10.37698 34.24835 22.31267
# Shear Modulus (GPa) = 21.40513 15.73622 18.57067
#
# Velocity S-wave (km/s) = 3.39382 2.90992 3.16114
# Velocity P-wave (km/s) = 4.57616 5.45152 5.03291
#
# Compressibility (1/GPa) = 0.09636715
#
# Stress axis : x y z
#
# Youngs Moduli (GPa) = 81.35124 9.52715 84.52081
#
# Poissons Ratio (x) = 0.13014 0.31076
# Poissons Ratio (y) = 1.11125 -0.08256
# Poissons Ratio (z) = 0.29911 -0.00931
#
# Static dielectric constant tensor:
#      x y z
#    x 1.671560 0.000000 0.000000 
#    y 0.000000 1.638760 0.000000 
#    z 0.000000 0.000000 1.694430 
# 
# From -- ./inp_files/40168.got.cif
#   From: 2010.05.17/outbox.ucp.g08.bks.cvg/sg65_21_cif.got.tgz:40168.got - 2010.06.11 16:39:57.
