data_PCOD9494713
_publ_section_title
;
Structure prediction by ZEFSAII (Michael W. Deem and Ramdas Pophale) SiO2 
 PCOD9494713
Probable space group: C M M M
;
_chemical_formula_sum "Si O2"
_cell_formula_units_Z 40
_cell_length_a 18.000000
_cell_length_b 9.000000
_cell_length_c 27.000000
_cell_angle_alpha 90.000000
_cell_angle_beta 90.000000
_cell_angle_gamma 90.000000
_cell_volume 4374.000000
_symmetry_space_group_name_H-M "C M M M"
_symmetry_group_IT_number 65
_symmetry_cell_setting 'orthorhombic'
loop_
_space_group_symop_operation_xyz
x,y,z
-x,-y,z
x,-y,-z
-x,y,-z
-x,-y,-z
x,y,-z
-x,y,z
x,-y,z
1/2+x,1/2+y,z
1/2-x,1/2-y,z
1/2+x,1/2-y,-z
1/2-x,1/2+y,-z
1/2-x,1/2-y,-z
1/2+x,1/2+y,-z
1/2-x,1/2+y,z
1/2+x,1/2-y,z
loop_
_atom_site_type_symbol
_atom_site_label
_atom_site_fract_x
_atom_site_fract_y
_atom_site_fract_z
Si Si1 0.831152 0.822909 0.943571
Si Si2 0.168328 0.177435 0.761345
Si Si3 0.167687 0.177459 0.348585
Si Si4 0.911471 0.671382 0.147030
Si Si5 0.832625 0.322220 0.445590
O O1 0.750000 0.750000 0.938481
O O2 0.882735 0.751882 0.902175
O O3 0.825668 0.000000 0.936812
O O4 0.857028 0.794329 0.000000
O O5 0.250000 0.250000 0.763918
O O6 0.135750 0.206394 0.706162
O O7 0.120467 0.246194 0.805043
O O8 0.175053 0.000000 0.766922
O O9 0.250000 0.250000 0.346334
O O10 0.130656 0.250619 0.396925
O O11 0.173569 0.000000 0.355318
O O12 0.885836 0.500000 0.146994
O O13 0.000000 0.673998 0.148280
O O14 0.866687 0.292843 0.500000
O O15 0.826316 0.500000 0.439683
O O16 0.750000 0.250000 0.447420
#
# Coordination Sequence:
#
# PCOD9494713 Si02
#       5
#    16  16  16  16  16
#     4  10  21  38  61  86 111 140 173 209 249 295
#     4  10  20  34  53  75 100 132 171 214 257 304
#     4   9  16  25  39  60  85 117 157 199 244 292
#     4  11  24  39  55  77 106 139 173 211 256 303
#     4   9  15  21  31  50  79 116 154 192 238 291
#
# _framework density 9.1449470000000002
#
# number of rings (size 3 to 8) (size 9 to 14) (size 15 to 20)
#    0.000    2.200    0.000    4.800    0.000    6.800 
#    0.000    2.000    0.000    0.000    0.000    0.000 
#    0.000    0.800    0.000    8.800    0.000    9.800 
#
# Total GULP energy -223013.957928 kJ/mol
# GULP energy per Si atom -5575.348948 kJ/mol
# Density = 0.912413 g / cm^3
# Si number density = 9.144947 Si / 1000 Ang^3
#
#
#
# Elastic Constant Matrix: (Units=GPa)
#
#
# Indices 1 2 3 4 5 6 
#
# 1 21.1941 24.9274 48.1115 0.0000 0.0000 0.0000
# 2 24.9274 125.9729 98.4353 0.0000 0.0000 0.0000
# 3 48.1115 98.4353 197.2825 0.0000 0.0000 0.0000
# 4 0.0000 0.0000 0.0000 36.6703 0.0000 0.0000
# 5 0.0000 0.0000 0.0000 0.0000 -13.5826 0.0000
# 6 0.0000 0.0000 0.0000 0.0000 0.0000 18.1491
#
#
#
# Elastic Compliance Matrix: (Units=1/GPa)
#
#
# Indices 1 2 3 4 5 6 
#
# 1 0.105819 -0.001269 -0.025173 0.000000 0.000000 0.000000
# 2 -0.001269 0.013026 -0.006190 0.000000 0.000000 0.000000
# 3 -0.025173 -0.006190 0.014296 0.000000 0.000000 0.000000
# 4 0.000000 0.000000 0.000000 0.027270 0.000000 0.000000
# 5 0.000000 0.000000 0.000000 0.000000 -0.073624 0.000000
# 6 0.000000 0.000000 0.000000 0.000000 0.000000 0.055099
#
#
# Mechanical properties :
#
#
# Convention : Reuss Voigt Hill
#
# Bulk Modulus (GPa) = 14.73243 76.37753 45.55498
# Shear Modulus (GPa) = 21.76016 19.77904 20.76960
#
# Velocity S-wave (km/s) = 3.45300 3.29206 3.37349
# Velocity P-wave (km/s) = 4.89592 7.50335 6.33523
#
# Compressibility (1/GPa) = 0.06787747
#
# Stress axis : x y z
#
# Youngs Moduli (GPa) = 9.45008 76.76820 69.94784
#
# Poissons Ratio (x) = 0.09744 1.76079
# Poissons Ratio (y) = 0.01199 0.43298
# Poissons Ratio (z) = 0.23789 0.47519
#
# Static dielectric constant tensor:
#      x y z
#    x 1.582120 0.000000 0.000000 
#    y 0.000000 1.611080 0.000000 
#    z 0.000000 0.000000 1.691610 
# 
# From -- ./inp_files/72805.got.cif
#   From: 2010.05.17/outbox.ucp.g08.bks.cvg/sg65_37_cif.got.tgz:72805.got - 2010.06.11 16:39:57.
