data_PCOD9494905
_publ_section_title
;
Structure prediction by ZEFSAII (Michael W. Deem and Ramdas Pophale) SiO2 
 PCOD9494905
Probable space group: C C C M
;
_chemical_formula_sum "Si O2"
_cell_formula_units_Z 84
_cell_length_a 28.955001
_cell_length_b 8.155806
_cell_length_c 15.904461
_cell_angle_alpha 90.000000
_cell_angle_beta 90.000000
_cell_angle_gamma 90.000000
_cell_volume 3755.860268
_symmetry_space_group_name_H-M "C C C M"
_symmetry_group_IT_number 66
_symmetry_cell_setting 'orthorhombic'
loop_
_space_group_symop_operation_xyz
x,y,z
-x,-y,z
x,-y,1/2-z
-x,y,1/2-z
-x,-y,-z
x,y,-z
-x,y,1/2+z
x,-y,1/2+z
1/2+x,1/2+y,z
1/2-x,1/2-y,z
1/2+x,1/2-y,1/2-z
1/2-x,1/2+y,1/2-z
1/2-x,1/2-y,-z
1/2+x,1/2+y,-z
1/2-x,1/2+y,1/2+z
1/2+x,1/2-y,1/2+z
loop_
_atom_site_type_symbol
_atom_site_label
_atom_site_fract_x
_atom_site_fract_y
_atom_site_fract_z
Si Si1 0.177208 0.105058 0.500000
Si Si2 0.500000 0.000000 0.250000
Si Si3 0.078912 0.736690 0.319865
Si Si4 0.719591 0.017308 0.000000
Si Si5 0.329890 0.017794 0.162806
Si Si6 0.386573 0.313174 0.357408
Si Si7 0.054158 0.342447 0.500000
Si Si8 0.945852 0.277643 0.500000
O O1 0.225485 0.013315 0.500000
O O2 0.196593 0.296673 0.500000
O O3 0.145810 0.072538 0.416776
O O4 0.535244 0.116133 0.301606
O O5 0.125912 0.634636 0.330973
O O6 0.089918 0.836606 0.234106
O O7 0.067989 0.809313 0.412384
O O8 0.700365 0.937156 0.916077
O O9 0.352268 0.839470 0.153962
O O10 0.302575 0.000000 0.250000
O O11 0.426139 0.246601 0.418481
O O12 0.072147 0.531600 0.500000
O O13 0.000034 0.314875 0.500000
#
# Coordination Sequence:
#
# PCOD9494905 Si02
#       8
#     8   4  16   8  16  16   8   8
#     4   8  16  25  40  50  56  84 115 159 182 207
#     4  12  16  22  32  44  64 102 136 154 182 196
#     4  11  17  22  29  46  69  99 120 153 186 206
#     4   9  15  26  39  52  65  79 117 145 188 226
#     4   9  15  23  33  47  68  89 103 145 198 213
#     4   9  15  25  32  42  65  86 117 152 194 196
#     4  10  16  21  28  42  63  89 119 164 174 198
#     4  11  17  18  27  43  63  93 127 139 179 205
#
# _framework density 22.365051000000001
#
# number of rings (size 3 to 8) (size 9 to 14) (size 15 to 20)
#    0.000    2.286    4.762    3.429    0.000    0.000 
#    0.000    0.000    0.000    0.000    0.000    1.333 
#    0.000    9.143    0.000    0.000    0.000    0.000 
#
# Total GULP energy -233942.128558 kJ/mol
# GULP energy per Si atom -5570.050680 kJ/mol
# Density = 2.231415 g / cm^3
# Si number density = 22.365051 Si / 1000 Ang^3
#
#
#
# Elastic Constant Matrix: (Units=GPa)
#
#
# Indices 1 2 3 4 5 6 
#
# 1 117.0543 22.6748 87.0059 0.0000 0.0000 0.0000
# 2 22.6748 34.3306 18.2038 0.0000 0.0000 0.0000
# 3 87.0059 18.2038 250.1359 0.0000 0.0000 0.0000
# 4 0.0000 0.0000 0.0000 -80.3777 0.0000 0.0000
# 5 0.0000 0.0000 0.0000 0.0000 38.3089 0.0000
# 6 0.0000 0.0000 0.0000 0.0000 0.0000 3.9843
#
#
#
# Elastic Compliance Matrix: (Units=1/GPa)
#
#
# Indices 1 2 3 4 5 6 
#
# 1 0.012707 -0.006292 -0.003962 0.000000 0.000000 0.000000
# 2 -0.006292 0.033413 -0.000243 0.000000 0.000000 0.000000
# 3 -0.003962 -0.000243 0.005394 0.000000 0.000000 0.000000
# 4 0.000000 0.000000 0.000000 -0.012441 0.000000 0.000000
# 5 0.000000 0.000000 0.000000 0.000000 0.026104 0.000000
# 6 0.000000 0.000000 0.000000 0.000000 0.000000 0.250985
#
#
# Mechanical properties :
#
#
# Convention : Reuss Voigt Hill
#
# Bulk Modulus (GPa) = 32.76572 73.03221 52.89896
# Shear Modulus (GPa) = 14.39563 10.62553 12.51058
#
# Velocity S-wave (km/s) = 2.53981 2.18203 2.36769
# Velocity P-wave (km/s) = 4.82525 6.25091 5.58377
#
# Compressibility (1/GPa) = 0.03051971
#
# Stress axis : x y z
#
# Youngs Moduli (GPa) = 78.69850 29.92836 185.40404
#
# Poissons Ratio (x) = 0.18830 0.73456
# Poissons Ratio (y) = 0.49515 0.04509
# Poissons Ratio (z) = 0.31180 0.00728
#
# Static dielectric constant tensor:
#      x y z
#    x 1.832020 0.000000 0.000000 
#    y 0.000000 1.892750 0.000000 
#    z 0.000000 0.000000 1.936580 
# 
# From -- ./inp_files/33275.got.cif
#   From: 2010.05.17/outbox.cif.g08.bks.cpg/sg66_17_cif.got.tgz:33275.got - 2010.06.03 17:51:23.
