data_PCOD9494637
_publ_section_title
;
Structure prediction by ZEFSAII (Michael W. Deem and Ramdas Pophale) SiO2 
 PCOD9494637
Probable space group: C M M M
;
_chemical_formula_sum "Si O2"
_cell_formula_units_Z 44
_cell_length_a 9.000000
_cell_length_b 18.000000
_cell_length_c 30.000000
_cell_angle_alpha 90.000000
_cell_angle_beta 90.000000
_cell_angle_gamma 90.000000
_cell_volume 4860.000000
_symmetry_space_group_name_H-M "C M M M"
_symmetry_group_IT_number 65
_symmetry_cell_setting 'orthorhombic'
loop_
_space_group_symop_operation_xyz
x,y,z
-x,-y,z
x,-y,-z
-x,y,-z
-x,-y,-z
x,y,-z
-x,y,z
x,-y,z
1/2+x,1/2+y,z
1/2-x,1/2-y,z
1/2+x,1/2-y,-z
1/2-x,1/2+y,-z
1/2-x,1/2-y,-z
1/2+x,1/2+y,-z
1/2-x,1/2+y,z
1/2+x,1/2-y,z
loop_
_atom_site_type_symbol
_atom_site_label
_atom_site_fract_x
_atom_site_fract_y
_atom_site_fract_z
Si Si1 0.178351 0.331981 0.825904
Si Si2 0.671832 0.589604 0.091282
Si Si3 0.178263 0.668328 0.728643
Si Si4 0.825777 0.910812 0.450487
Si Si5 0.177592 0.668487 0.368162
Si Si6 0.328755 0.909395 0.000000
O O1 0.250000 0.250000 0.828141
O O2 0.241756 0.379166 0.866386
O O3 0.217713 0.365243 0.776819
O O4 0.000000 0.326560 0.829053
O O5 0.500000 0.612789 0.092814
O O6 0.676939 0.500000 0.092021
O O7 0.746377 0.614660 0.044982
O O8 0.250000 0.750000 0.728568
O O9 0.218463 0.634208 0.680586
O O10 0.000000 0.676100 0.728686
O O11 0.775739 0.886160 0.500000
O O12 0.736052 0.877166 0.409886
O O13 0.000000 0.891083 0.446006
O O14 0.815788 0.000000 0.449391
O O15 0.250000 0.750000 0.370105
O O16 0.000000 0.674948 0.370248
O O17 0.500000 0.885844 0.000000
O O18 0.326684 0.000000 0.000000
#
# Coordination Sequence:
#
# PCOD9494637 Si02
#       6
#    16  16  16  16  16   8
#     4  10  19  33  53  75 101 133 168 204 246 296
#     4  10  20  34  52  75 103 133 167 207 248 291
#     4   8  16  30  48  71  98 129 163 200 243 291
#     4   9  19  36  54  71  96 131 167 203 247 298
#     4  10  19  32  52  77 102 128 163 206 248 291
#     4   9  17  31  52  75  98 129 168 205 247 299
#
# _framework density 9.0534979999999994
#
# number of rings (size 3 to 8) (size 9 to 14) (size 15 to 20)
#    0.000    2.636    0.000    2.455    0.000    4.727 
#    0.000    2.273    0.000    5.455    0.000    0.000 
#    0.000    0.000    0.000    0.000    0.000    0.000 
#
# Total GULP energy -245115.009552 kJ/mol
# GULP energy per Si atom -5570.795672 kJ/mol
# Density = 0.903289 g / cm^3
# Si number density = 9.053498 Si / 1000 Ang^3
#
#
#
# Elastic Constant Matrix: (Units=GPa)
#
#
# Indices 1 2 3 4 5 6 
#
# 1 85.3659 21.2945 85.3534 0.0000 0.0000 0.0000
# 2 21.2945 9.2422 35.7719 0.0000 0.0000 0.0000
# 3 85.3534 35.7719 225.1508 0.0000 0.0000 0.0000
# 4 0.0000 0.0000 0.0000 29.4264 0.0000 0.0000
# 5 0.0000 0.0000 0.0000 0.0000 28.8685 0.0000
# 6 0.0000 0.0000 0.0000 0.0000 0.0000 24.4390
#
#
#
# Elastic Compliance Matrix: (Units=1/GPa)
#
#
# Indices 1 2 3 4 5 6 
#
# 1 0.027622 -0.060027 -0.000934 0.000000 0.000000 0.000000
# 2 -0.060027 0.411447 -0.042615 0.000000 0.000000 0.000000
# 3 -0.000934 -0.042615 0.011566 0.000000 0.000000 0.000000
# 4 0.000000 0.000000 0.000000 0.033983 0.000000 0.000000
# 5 0.000000 0.000000 0.000000 0.000000 0.034640 0.000000
# 6 0.000000 0.000000 0.000000 0.000000 0.000000 0.040918
#
#
# Mechanical properties :
#
#
# Convention : Reuss Voigt Hill
#
# Bulk Modulus (GPa) = 4.10706 67.17762 35.64234
# Shear Modulus (GPa) = 5.89282 28.36938 17.13110
#
# Velocity S-wave (km/s) = 1.80597 3.96253 3.07922
# Velocity P-wave (km/s) = 2.57329 7.62341 5.68939
#
# Compressibility (1/GPa) = 0.24348336
#
# Stress axis : x y z
#
# Youngs Moduli (GPa) = 36.20274 2.43045 86.45799
#
# Poissons Ratio (x) = 0.14589 0.08078
# Poissons Ratio (y) = 2.17314 3.68439
# Poissons Ratio (z) = 0.03383 0.10357
#
# Static dielectric constant tensor:
#      x y z
#    x 1.606050 0.000000 0.000000 
#    y 0.000000 1.603560 0.000000 
#    z 0.000000 0.000000 1.660700 
# 
# From -- ./inp_files/67563.got.cif
#   From: 2010.05.17/outbox.ucp.g08.bks.cvg/sg65_34_cif.got.tgz:67563.got - 2010.06.11 16:39:57.
