data_PCOD9494277
_publ_section_title
;
Structure prediction by ZEFSAII (Michael W. Deem and Ramdas Pophale) SiO2 
 PCOD9494277
Probable space group: C M M M
;
_chemical_formula_sum "Si O2"
_cell_formula_units_Z 88
_cell_length_a 14.509620
_cell_length_b 7.327064
_cell_length_c 33.379133
_cell_angle_alpha 90.000000
_cell_angle_beta 90.000000
_cell_angle_gamma 90.000000
_cell_volume 3548.632908
_symmetry_space_group_name_H-M "C M M M"
_symmetry_group_IT_number 65
_symmetry_cell_setting 'orthorhombic'
loop_
_space_group_symop_operation_xyz
x,y,z
-x,-y,z
x,-y,-z
-x,y,-z
-x,-y,-z
x,y,-z
-x,y,z
x,-y,z
1/2+x,1/2+y,z
1/2-x,1/2-y,z
1/2+x,1/2-y,-z
1/2-x,1/2+y,-z
1/2-x,1/2-y,-z
1/2+x,1/2+y,-z
1/2-x,1/2+y,z
1/2+x,1/2-y,z
loop_
_atom_site_type_symbol
_atom_site_label
_atom_site_fract_x
_atom_site_fract_y
_atom_site_fract_z
Si Si1 0.886924 0.500000 0.454367
Si Si2 0.139384 0.781676 0.870477
Si Si3 0.112173 0.788338 0.610011
Si Si4 0.641706 0.717114 0.215516
Si Si5 0.139472 0.781849 0.956819
Si Si6 0.109500 0.793304 0.303329
O O1 0.854387 0.500000 0.500000
O O2 0.856924 0.671979 0.427694
O O3 0.000000 0.500000 0.455731
O O4 0.250000 0.750000 0.870995
O O5 0.104458 0.713460 0.827281
O O6 0.105609 0.712320 0.913651
O O7 0.124292 0.000000 0.870157
O O8 0.141589 0.715389 0.654045
O O9 0.000000 0.780314 0.609076
O O10 0.138112 0.000000 0.607404
O O11 0.619415 0.500000 0.217015
O O12 0.750000 0.750000 0.212166
O O13 0.620362 0.792992 0.259570
O O14 0.250000 0.750000 0.956887
O O15 0.123717 0.000000 0.956763
O O16 0.105821 0.712203 0.000000
O O17 0.000000 0.808595 0.307810
O O18 0.148870 0.000000 0.300829
#
# Coordination Sequence:
#
# PCOD9494277 Si02
#       6
#     8  16  16  16  16  16
#     4   9  16  24  36  58  86 112 138 168 204 250
#     4   8  13  20  30  44  64  91 118 146 189 233
#     4   8  14  25  39  55  78 109 140 169 205 245
#     4   9  16  26  39  56  79 103 128 164 203 242
#     4   8  12  17  25  38  57  82 113 145 176 220
#     4   8  14  26  43  58  75 106 140 166 195 235
#
# _framework density 24.798283999999999
#
# number of rings (size 3 to 8) (size 9 to 14) (size 15 to 20)
#    0.000    3.727    0.000    1.091    0.000    0.364 
#    1.636    1.818    0.000    0.000    0.000    0.000 
#    0.000    1.455    0.364   10.182    0.000    3.455 
#
# Total GULP energy -245128.920592 kJ/mol
# GULP energy per Si atom -5571.111832 kJ/mol
# Density = 2.474184 g / cm^3
# Si number density = 24.798284 Si / 1000 Ang^3
#
#
#
# Elastic Constant Matrix: (Units=GPa)
#
#
# Indices 1 2 3 4 5 6 
#
# 1 77.2183 -5.5455 13.0985 0.0000 0.0000 0.0000
# 2 -5.5455 113.0182 67.4898 0.0000 0.0000 0.0000
# 3 13.0985 67.4898 384.5132 0.0000 0.0000 0.0000
# 4 0.0000 0.0000 0.0000 63.8929 0.0000 0.0000
# 5 0.0000 0.0000 0.0000 0.0000 14.1176 0.0000
# 6 0.0000 0.0000 0.0000 0.0000 0.0000 -11.5959
#
#
#
# Elastic Compliance Matrix: (Units=1/GPa)
#
#
# Indices 1 2 3 4 5 6 
#
# 1 0.013130 0.001018 -0.000626 0.000000 0.000000 0.000000
# 2 0.001018 0.009963 -0.001783 0.000000 0.000000 0.000000
# 3 -0.000626 -0.001783 0.002935 0.000000 0.000000 0.000000
# 4 0.000000 0.000000 0.000000 0.015651 0.000000 0.000000
# 5 0.000000 0.000000 0.000000 0.000000 0.070834 0.000000
# 6 0.000000 0.000000 0.000000 0.000000 0.000000 -0.086237
#
#
# Mechanical properties :
#
#
# Convention : Reuss Voigt Hill
#
# Bulk Modulus (GPa) = 43.01992 80.53726 61.77859
# Shear Modulus (GPa) = 135.84661 46.59670 91.22166
#
# Velocity S-wave (km/s) = 7.40942 4.33948 6.07168
# Velocity P-wave (km/s) = 9.51762 7.59313 8.60931
#
# Compressibility (1/GPa) = 0.02324505
#
# Stress axis : x y z
#
# Youngs Moduli (GPa) = 76.16384 100.37085 340.71130
#
# Poissons Ratio (x) = -0.10218 0.21327
# Poissons Ratio (y) = -0.07754 0.60762
# Poissons Ratio (z) = 0.04767 0.17900
#
# Static dielectric constant tensor:
#      x y z
#    x 2.101420 0.000000 0.000000 
#    y 0.000000 1.915650 0.000000 
#    z 0.000000 0.000000 2.020880 
# 
# From -- ./inp_files/78106.got.cif
#   From: 2010.05.17/outbox.cif.g08.bks.cpg/sg65_40_cif.got.tgz:78106.got - 2010.06.03 17:01:31.
