data_PCOD9494830
_publ_section_title
;
Structure prediction by ZEFSAII (Michael W. Deem and Ramdas Pophale) SiO2 
 PCOD9494830
Probable space group: C M M M
;
_chemical_formula_sum "Si O2"
_cell_formula_units_Z 44
_cell_length_a 30.000000
_cell_length_b 18.000000
_cell_length_c 9.000000
_cell_angle_alpha 90.000000
_cell_angle_beta 90.000000
_cell_angle_gamma 90.000000
_cell_volume 4860.000000
_symmetry_space_group_name_H-M "C M M M"
_symmetry_group_IT_number 65
_symmetry_cell_setting 'orthorhombic'
loop_
_space_group_symop_operation_xyz
x,y,z
-x,-y,z
x,-y,-z
-x,y,-z
-x,-y,-z
x,y,-z
-x,y,z
x,-y,z
1/2+x,1/2+y,z
1/2-x,1/2-y,z
1/2+x,1/2-y,-z
1/2-x,1/2+y,-z
1/2-x,1/2-y,-z
1/2+x,1/2+y,-z
1/2-x,1/2+y,z
1/2+x,1/2-y,z
loop_
_atom_site_type_symbol
_atom_site_label
_atom_site_fract_x
_atom_site_fract_y
_atom_site_fract_z
Si Si1 0.264662 0.586722 0.322480
Si Si2 0.816856 0.325452 0.823929
Si Si3 0.910003 0.355492 0.322524
Si Si4 0.447203 0.000000 0.168373
Si Si5 0.552186 0.705953 0.820467
Si Si6 0.651026 0.345389 0.174749
O O1 0.262397 0.598137 0.500000
O O2 0.253674 0.500000 0.290839
O O3 0.228804 0.641482 0.243531
O O4 0.314994 0.603364 0.266225
O O5 0.859312 0.358064 0.737255
O O6 0.826712 0.236955 0.809915
O O7 0.818256 0.342359 0.000000
O O8 0.910538 0.351641 0.500000
O O9 0.932803 0.428184 0.258558
O O10 0.935945 0.284504 0.254811
O O11 0.500000 0.000000 0.156189
O O12 0.428333 0.000000 0.000000
O O13 0.500000 0.683953 0.783473
O O14 0.597841 0.658415 0.783140
O O15 0.553436 0.713685 0.000000
O O16 0.652701 0.365103 0.000000
#
# Coordination Sequence:
#
# PCOD9494830 Si02
#       6
#    16  16  16   8  16  16
#     4  11  24  38  54  80 114 147 182 226 278 331
#     4  10  21  38  59  81 107 143 185 227 272 327
#     4  11  22  34  51  77 109 140 178 228 274 323
#     4  11  23  37  51  67  97 145 191 229 274 323
#     4   9  18  35  58  82 109 140 177 223 272 325
#     4   9  19  36  58  84 110 141 184 226 269 327
#
# _framework density 9.0534979999999994
#
# number of rings (size 3 to 8) (size 9 to 14) (size 15 to 20)
#    0.000    1.909    0.000    5.182    1.273   10.545 
#    0.000    0.000    0.000    0.545    0.000    3.818 
#    0.000    0.000    0.000    0.000    0.000    0.000 
#
# Total GULP energy -245356.832192 kJ/mol
# GULP energy per Si atom -5576.291641 kJ/mol
# Density = 0.903289 g / cm^3
# Si number density = 9.053498 Si / 1000 Ang^3
#
#
#
# Elastic Constant Matrix: (Units=GPa)
#
#
# Indices 1 2 3 4 5 6 
#
# 1 141.6338 15.0752 36.6948 0.0000 0.0000 0.0000
# 2 15.0752 19.0520 18.2998 0.0000 0.0000 0.0000
# 3 36.6948 18.2998 70.0745 0.0000 0.0000 0.0000
# 4 0.0000 0.0000 0.0000 86.6726 0.0000 0.0000
# 5 0.0000 0.0000 0.0000 0.0000 12.1999 0.0000
# 6 0.0000 0.0000 0.0000 0.0000 0.0000 68.5782
#
#
#
# Elastic Compliance Matrix: (Units=1/GPa)
#
#
# Indices 1 2 3 4 5 6 
#
# 1 0.008312 -0.003199 -0.003517 0.000000 0.000000 0.000000
# 2 -0.003199 0.071293 -0.016943 0.000000 0.000000 0.000000
# 3 -0.003517 -0.016943 0.020537 0.000000 0.000000 0.000000
# 4 0.000000 0.000000 0.000000 0.011538 0.000000 0.000000
# 5 0.000000 0.000000 0.000000 0.000000 0.081968 0.000000
# 6 0.000000 0.000000 0.000000 0.000000 0.000000 0.014582
#
#
# Mechanical properties :
#
#
# Convention : Reuss Voigt Hill
#
# Bulk Modulus (GPa) = 18.93076 41.21111 30.07093
# Shear Modulus (GPa) = 18.30455 44.20284 31.25369
#
# Velocity S-wave (km/s) = 3.18293 4.94621 4.15909
# Velocity P-wave (km/s) = 4.89752 7.44508 6.30139
#
# Compressibility (1/GPa) = 0.05282409
#
# Stress axis : x y z
#
# Youngs Moduli (GPa) = 120.30489 14.02663 48.69245
#
# Poissons Ratio (x) = 0.04487 0.17127
# Poissons Ratio (y) = 0.38481 0.82500
# Poissons Ratio (z) = 0.42316 0.23765
#
# Static dielectric constant tensor:
#      x y z
#    x 1.639550 0.000000 0.000000 
#    y 0.000000 1.566990 0.000000 
#    z 0.000000 0.000000 1.605890 
# 
# From -- ./inp_files/10041.got.cif
#   From: 2010.05.17/outbox.ucp.g08.bks.cvg/sg65_6_cif.got.tgz:10041.got - 2010.06.11 16:39:57.
