data_PCOD9494083
_publ_section_title
;
Structure prediction by ZEFSAII (Michael W. Deem and Ramdas Pophale) SiO2 
 PCOD9494083
Probable space group: C M M M
;
_chemical_formula_sum "Si O2"
_cell_formula_units_Z 68
_cell_length_a 17.322524
_cell_length_b 22.484760
_cell_length_c 8.242710
_cell_angle_alpha 90.000000
_cell_angle_beta 90.000000
_cell_angle_gamma 90.000000
_cell_volume 3210.476154
_symmetry_space_group_name_H-M "C M M M"
_symmetry_group_IT_number 65
_symmetry_cell_setting 'orthorhombic'
loop_
_space_group_symop_operation_xyz
x,y,z
-x,-y,z
x,-y,-z
-x,y,-z
-x,-y,-z
x,y,-z
-x,y,z
x,-y,z
1/2+x,1/2+y,z
1/2-x,1/2-y,z
1/2+x,1/2-y,-z
1/2-x,1/2+y,-z
1/2-x,1/2-y,-z
1/2+x,1/2+y,-z
1/2-x,1/2+y,z
1/2+x,1/2-y,z
loop_
_atom_site_type_symbol
_atom_site_label
_atom_site_fract_x
_atom_site_fract_y
_atom_site_fract_z
Si Si1 0.087187 0.167500 0.308764
Si Si2 0.870127 0.408945 0.311270
Si Si3 0.700562 0.434633 0.807037
Si Si4 0.168827 0.279102 0.189138
Si Si5 0.000000 0.500000 0.206661
O O1 0.094474 0.180736 0.500000
O O2 0.147027 0.116759 0.261054
O O3 0.107613 0.226823 0.211633
O O4 0.000000 0.148028 0.275399
O O5 0.890316 0.418106 0.500000
O O6 0.784279 0.431660 0.273786
O O7 0.862195 0.338717 0.273235
O O8 0.932356 0.447585 0.213471
O O9 0.666605 0.500000 0.777967
O O10 0.710211 0.426400 0.000000
O O11 0.250000 0.250000 0.251449
O O12 0.181568 0.293730 0.000000
#
# Coordination Sequence:
#
# PCOD9494083 Si02
#       5
#    16  16  16  16   4
#     4  11  25  44  68 100 133 172 226 283 340 405
#     4  12  24  43  69  98 136 182 232 282 340 406
#     4  11  24  43  67  97 133 175 222 273 337 408
#     4  11  24  43  68 100 136 177 227 282 344 412
#     4  12  29  48  69 106 147 188 235 294 353 418
#
# _framework density 21.180658000000001
#
# number of rings (size 3 to 8) (size 9 to 14) (size 15 to 20)
#    0.000    0.706    3.529    3.882    1.647    4.706 
#    0.000    6.471    0.000    0.000    0.000    0.000 
#    0.000    0.000    0.000    0.000    0.000    0.000 
#
# Total GULP energy -189644.644559 kJ/mol
# GULP energy per Si atom -5577.783663 kJ/mol
# Density = 2.113245 g / cm^3
# Si number density = 21.180658 Si / 1000 Ang^3
#
#
#
# Elastic Constant Matrix: (Units=GPa)
#
#
# Indices 1 2 3 4 5 6 
#
# 1 116.7693 52.3505 2.4966 0.0000 0.0000 0.0000
# 2 52.3505 146.9925 6.3646 0.0000 0.0000 0.0000
# 3 2.4966 6.3646 28.6502 0.0000 0.0000 0.0000
# 4 0.0000 0.0000 0.0000 3.4951 0.0000 0.0000
# 5 0.0000 0.0000 0.0000 0.0000 8419.2975 0.0000
# 6 0.0000 0.0000 0.0000 0.0000 0.0000 41.4066
#
#
#
# Elastic Compliance Matrix: (Units=1/GPa)
#
#
# Indices 1 2 3 4 5 6 
#
# 1 0.010191 -0.003626 -0.000083 0.000000 0.000000 0.000000
# 2 -0.003626 0.008159 -0.001497 0.000000 0.000000 0.000000
# 3 -0.000083 -0.001497 0.035243 0.000000 0.000000 0.000000
# 4 0.000000 0.000000 0.000000 0.286117 0.000000 0.000000
# 5 0.000000 0.000000 0.000000 0.000000 0.000119 0.000000
# 6 0.000000 0.000000 0.000000 0.000000 0.000000 0.024151
#
#
# Mechanical properties :
#
#
# Convention : Reuss Voigt Hill
#
# Bulk Modulus (GPa) = 23.15692 46.09284 34.62488
# Shear Modulus (GPa) = 12.86057 1708.25318 860.55688
#
# Velocity S-wave (km/s) = 2.46679 28.43003 20.17860
# Velocity P-wave (km/s) = 4.36694 33.15867 23.64918
#
# Compressibility (1/GPa) = 0.04318364
#
# Stress axis : x y z
#
# Youngs Moduli (GPa) = 98.12307 122.56030 28.37407
#
# Poissons Ratio (x) = 0.44440 0.00234
# Poissons Ratio (y) = 0.35579 0.04246
# Poissons Ratio (z) = 0.00810 0.18342
#
# Static dielectric constant tensor:
#      x y z
#    x 1.729720 0.000000 0.000000 
#    y 0.000000 1.734810 0.000000 
#    z 0.000000 0.000000 1.793370 
# 
# From -- ./inp_files/8952.got.cif
#   From: 2010.05.17/outbox.cif.g08.bks.cpg/sg65_5_cif.got.tgz:8952.got - 2010.06.03 17:01:31.
