data_PCOD9494828
_publ_section_title
;
Structure prediction by ZEFSAII (Michael W. Deem and Ramdas Pophale) SiO2 
 PCOD9494828
Probable space group: C M M M
;
_chemical_formula_sum "Si O2"
_cell_formula_units_Z 32
_cell_length_a 21.000000
_cell_length_b 18.000000
_cell_length_c 9.000000
_cell_angle_alpha 90.000000
_cell_angle_beta 90.000000
_cell_angle_gamma 90.000000
_cell_volume 3402.000000
_symmetry_space_group_name_H-M "C M M M"
_symmetry_group_IT_number 65
_symmetry_cell_setting 'orthorhombic'
loop_
_space_group_symop_operation_xyz
x,y,z
-x,-y,z
x,-y,-z
-x,y,-z
-x,-y,-z
x,y,-z
-x,y,z
x,-y,z
1/2+x,1/2+y,z
1/2-x,1/2-y,z
1/2+x,1/2-y,-z
1/2-x,1/2+y,-z
1/2-x,1/2-y,-z
1/2+x,1/2+y,-z
1/2-x,1/2+y,z
1/2+x,1/2-y,z
loop_
_atom_site_type_symbol
_atom_site_label
_atom_site_fract_x
_atom_site_fract_y
_atom_site_fract_z
Si Si1 0.423044 0.500000 0.329527
Si Si2 0.575158 0.342632 0.178552
Si Si3 0.627272 0.081992 0.323980
Si Si4 0.500000 0.090041 0.836127
Si Si5 0.820736 0.265509 0.678748
O O1 0.500000 0.500000 0.334756
O O2 0.399243 0.500000 0.500000
O O3 0.406301 0.576457 0.245566
O O4 0.500000 0.328408 0.216850
O O5 0.623397 0.281597 0.244534
O O6 0.579397 0.344351 0.000000
O O7 0.617942 0.077076 0.500000
O O8 0.562198 0.109192 0.252423
O O9 0.675015 0.146768 0.293276
O O10 0.643629 0.000000 0.267461
O O11 0.500000 0.000000 0.845342
O O12 0.500000 0.122251 0.000000
O O13 0.825661 0.252687 0.500000
O O14 0.750000 0.250000 0.731171
#
# Coordination Sequence:
#
# PCOD9494828 Si02
#       5
#     8  16  16   8  16
#     4   9  17  33  59  89 117 147 188 237 286 339
#     4  10  21  37  59  87 118 152 189 234 290 350
#     4   9  18  34  55  77 106 145 185 228 279 334
#     4   9  17  29  49  79 109 134 171 224 273 325
#     4  10  22  39  56  81 115 150 194 242 287 339
#
# _framework density 9.4062319999999993
#
# number of rings (size 3 to 8) (size 9 to 14) (size 15 to 20)
#    0.000    2.500    0.000    1.500    1.750    6.000 
#    2.250    0.000    0.000    0.000    0.000    0.000 
#    0.000    0.000    0.000    0.000    0.000    0.000 
#
# Total GULP energy -178195.916146 kJ/mol
# GULP energy per Si atom -5568.622380 kJ/mol
# Density = 0.938482 g / cm^3
# Si number density = 9.406232 Si / 1000 Ang^3
#
#
#
# Elastic Constant Matrix: (Units=GPa)
#
#
# Indices 1 2 3 4 5 6 
#
# 1 92.3097 48.7607 61.4659 0.0000 0.0000 0.0000
# 2 48.7607 55.3729 101.5565 0.0000 0.0000 0.0000
# 3 61.4659 101.5565 -1.4973 0.0000 0.0000 0.0000
# 4 0.0000 0.0000 0.0000 20.6400 0.0000 0.0000
# 5 0.0000 0.0000 0.0000 0.0000 8.1658 0.0000
# 6 0.0000 0.0000 0.0000 0.0000 0.0000 29.2640
#
#
#
# Elastic Compliance Matrix: (Units=1/GPa)
#
#
# Indices 1 2 3 4 5 6 
#
# 1 0.018679 -0.011346 -0.002782 0.000000 0.000000 0.000000
# 2 -0.011346 0.007036 0.011458 0.000000 0.000000 0.000000
# 3 -0.002782 0.011458 -0.004912 0.000000 0.000000 0.000000
# 4 0.000000 0.000000 0.000000 0.048450 0.000000 0.000000
# 5 0.000000 0.000000 0.000000 0.000000 0.122462 0.000000
# 6 0.000000 0.000000 0.000000 0.000000 0.000000 0.034172
#
#
# Mechanical properties :
#
#
# Convention : Reuss Voigt Hill
#
# Bulk Modulus (GPa) = 64.67004 63.30569 63.98787
# Shear Modulus (GPa) = 21.15228 7.24078 14.19653
#
# Velocity S-wave (km/s) = 3.35681 1.96400 2.75004
# Velocity P-wave (km/s) = 7.03385 6.23434 6.64613
#
# Compressibility (1/GPa) = 0.01546311
#
# Stress axis : x y z
#
# Youngs Moduli (GPa) = 53.53638 142.12458 -203.59490
#
# Poissons Ratio (x) = 1.61257 -0.56639
# Poissons Ratio (y) = 0.60743 2.33280
# Poissons Ratio (z) = 0.14893 -1.62847
#
# Static dielectric constant tensor:
#      x y z
#    x 1.622340 0.000000 0.000000 
#    y 0.000000 1.674530 0.000000 
#    z 0.000000 0.000000 1.647620 
# 
# From -- ./inp_files/10852.got.cif
#   From: 2010.05.17/outbox.ucp.g08.bks.cvg/sg65_6_cif.got.tgz:10852.got - 2010.06.11 16:39:57.
