data_PCOD9494869
_publ_section_title
;
Structure prediction by ZEFSAII (Michael W. Deem and Ramdas Pophale) SiO2 
 PCOD9494869
Probable space group: C M M M
;
_chemical_formula_sum "Si O2"
_cell_formula_units_Z 44
_cell_length_a 9.000000
_cell_length_b 18.000000
_cell_length_c 30.000000
_cell_angle_alpha 90.000000
_cell_angle_beta 90.000000
_cell_angle_gamma 90.000000
_cell_volume 4860.000000
_symmetry_space_group_name_H-M "C M M M"
_symmetry_group_IT_number 65
_symmetry_cell_setting 'orthorhombic'
loop_
_space_group_symop_operation_xyz
x,y,z
-x,-y,z
x,-y,-z
-x,y,-z
-x,-y,-z
x,y,-z
-x,y,z
x,-y,z
1/2+x,1/2+y,z
1/2-x,1/2-y,z
1/2+x,1/2-y,-z
1/2-x,1/2+y,-z
1/2-x,1/2-y,-z
1/2+x,1/2+y,-z
1/2-x,1/2+y,z
1/2+x,1/2-y,z
loop_
_atom_site_type_symbol
_atom_site_label
_atom_site_fract_x
_atom_site_fract_y
_atom_site_fract_z
Si Si1 0.172188 0.909375 0.270739
Si Si2 0.826917 0.588758 0.000000
Si Si3 0.179245 0.169154 0.083144
Si Si4 0.324988 0.590149 0.548594
Si Si5 0.680853 0.414319 0.173294
Si Si6 0.328301 0.909415 0.638915
O O1 0.231828 0.886606 0.222038
O O2 0.255879 0.883745 0.314868
O O3 0.000000 0.887852 0.274527
O O4 0.176534 0.000000 0.269904
O O5 0.744200 0.619503 0.956521
O O6 0.822644 0.500000 0.000000
O O7 0.000000 0.612782 0.000000
O O8 0.250000 0.250000 0.078737
O O9 0.222641 0.134324 0.130946
O O10 0.000000 0.171999 0.080453
O O11 0.267868 0.615829 0.500000
O O12 0.500000 0.606336 0.550927
O O13 0.310838 0.500000 0.548594
O O14 0.247416 0.617578 0.593380
O O15 0.500000 0.415309 0.175402
O O16 0.728616 0.500000 0.166999
O O17 0.500000 0.890241 0.638246
O O18 0.315667 0.000000 0.638964
#
# Coordination Sequence:
#
# PCOD9494869 Si02
#       6
#    16   8  16  16  16  16
#     4   8  13  23  39  56  74  99 135 179 223 267
#     4  11  24  41  60  83 109 135 168 209 250 291
#     4  11  22  37  57  80 108 139 171 205 245 293
#     4   8  13  20  28  37  52  81 124 170 213 259
#     4   8  15  29  50  73  93 119 160 204 241 282
#     4   9  15  20  27  43  67  93 123 164 217 271
#
# _framework density 9.0534979999999994
#
# number of rings (size 3 to 8) (size 9 to 14) (size 15 to 20)
#    0.000    3.000    0.000    3.818    0.000    4.000 
#    0.000    3.636    0.000    4.364    0.000    0.000 
#    0.000    0.000    0.000    0.000    0.000    0.909 
#
# Total GULP energy -245079.724633 kJ/mol
# GULP energy per Si atom -5569.993742 kJ/mol
# Density = 0.903289 g / cm^3
# Si number density = 9.053498 Si / 1000 Ang^3
#
#
#
# Elastic Constant Matrix: (Units=GPa)
#
#
# Indices 1 2 3 4 5 6 
#
# 1 63.2332 19.1132 77.3489 0.0000 0.0000 0.0000
# 2 19.1132 26.8304 33.3438 0.0000 0.0000 0.0000
# 3 77.3489 33.3438 210.8497 0.0000 0.0000 0.0000
# 4 0.0000 0.0000 0.0000 -7.2923 0.0000 0.0000
# 5 0.0000 0.0000 0.0000 0.0000 -181.2263 0.0000
# 6 0.0000 0.0000 0.0000 0.0000 0.0000 5.6336
#
#
#
# Elastic Compliance Matrix: (Units=1/GPa)
#
#
# Indices 1 2 3 4 5 6 
#
# 1 0.030617 -0.009773 -0.009686 0.000000 0.000000 0.000000
# 2 -0.009773 0.049507 -0.004244 0.000000 0.000000 0.000000
# 3 -0.009686 -0.004244 0.008967 0.000000 0.000000 0.000000
# 4 0.000000 0.000000 0.000000 -0.137131 0.000000 0.000000
# 5 0.000000 0.000000 0.000000 0.000000 -0.005518 0.000000
# 6 0.000000 0.000000 0.000000 0.000000 0.000000 0.177505
#
#
# Mechanical properties :
#
#
# Convention : Reuss Voigt Hill
#
# Bulk Modulus (GPa) = 23.98933 62.28058 43.13495
# Shear Modulus (GPa) = 26.99065 -25.16983 0.91041
#
# Velocity S-wave (km/s) = 3.86504 -3.73240 0.70985
# Velocity P-wave (km/s) = 5.76155 3.98700 4.95437
#
# Compressibility (1/GPa) = 0.04168519
#
# Stress axis : x y z
#
# Youngs Moduli (GPa) = 32.66167 20.19900 111.51837
#
# Poissons Ratio (x) = 0.19741 1.08018
# Poissons Ratio (y) = 0.31921 0.47327
# Poissons Ratio (z) = 0.31636 0.08572
#
# Static dielectric constant tensor:
#      x y z
#    x 1.605690 0.000000 0.000000 
#    y 0.000000 1.593010 0.000000 
#    z 0.000000 0.000000 1.648660 
# 
# From -- ./inp_files/76675.got.cif
#   From: 2010.05.17/outbox.ucp.g08.bks.cvg/sg65_39_cif.got.tgz:76675.got - 2010.06.11 16:39:57.
