data_PCOD9494878
_publ_section_title
;
Structure prediction by ZEFSAII (Michael W. Deem and Ramdas Pophale) SiO2 
 PCOD9494878
Probable space group: C M M M
;
_chemical_formula_sum "Si O2"
_cell_formula_units_Z 56
_cell_length_a 15.000000
_cell_length_b 15.000000
_cell_length_c 24.000000
_cell_angle_alpha 90.000000
_cell_angle_beta 90.000000
_cell_angle_gamma 90.000000
_cell_volume 5400.000000
_symmetry_space_group_name_H-M "C M M M"
_symmetry_group_IT_number 65
_symmetry_cell_setting 'orthorhombic'
loop_
_space_group_symop_operation_xyz
x,y,z
-x,-y,z
x,-y,-z
-x,y,-z
-x,-y,-z
x,y,-z
-x,y,z
x,-y,z
1/2+x,1/2+y,z
1/2-x,1/2-y,z
1/2+x,1/2-y,-z
1/2-x,1/2+y,-z
1/2-x,1/2-y,-z
1/2+x,1/2+y,-z
1/2-x,1/2+y,z
1/2+x,1/2-y,z
loop_
_atom_site_type_symbol
_atom_site_label
_atom_site_fract_x
_atom_site_fract_y
_atom_site_fract_z
Si Si1 0.106513 0.106590 0.255670
Si Si2 0.153379 0.228394 0.155435
Si Si3 0.104310 0.097263 0.378514
Si Si4 0.646482 0.768459 0.440444
Si Si5 0.895090 0.097229 0.061256
Si Si6 0.107498 0.398298 0.340075
Si Si7 0.394446 0.098678 0.783013
O O1 0.154600 0.165071 0.209673
O O2 0.140888 0.126125 0.318195
O O3 0.000000 0.128206 0.250628
O O4 0.115332 0.000000 0.247306
O O5 0.250000 0.250000 0.134465
O O6 0.110870 0.172252 0.106998
O O7 0.115780 0.323214 0.173361
O O8 0.109260 0.172325 0.424262
O O9 0.000000 0.086547 0.366368
O O10 0.140580 0.000000 0.394525
O O11 0.611590 0.801101 0.500000
O O12 0.750000 0.750000 0.444764
O O13 0.633892 0.835243 0.389942
O O14 0.000000 0.086467 0.054609
O O15 0.858683 0.000000 0.079588
O O16 0.857111 0.118500 0.000000
O O17 0.136077 0.500000 0.349659
O O18 0.139840 0.372849 0.278217
O O19 0.000000 0.396141 0.339507
O O20 0.500000 0.088353 0.776031
O O21 0.357635 0.000000 0.796754
#
# Coordination Sequence:
#
# PCOD9494878 Si02
#       7
#    16  16  16  16  16  16  16
#     4   9  18  34  56  80 105 134 172 219 266 311
#     4  12  23  31  49  82 118 147 171 207 259 314
#     4   9  19  36  57  79 101 129 169 216 265 316
#     4  11  24  37  49  71 103 136 169 207 259 324
#     4   9  19  38  63  85 104 135 183 231 268 303
#     4   9  19  37  59  78  96 126 173 225 266 296
#     4   9  19  36  55  75 103 140 179 214 249 300
#
# _framework density 10.370369999999999
#
# number of rings (size 3 to 8) (size 9 to 14) (size 15 to 20)
#    0.000    2.286    0.000    5.143    0.000    9.429 
#    0.000    5.714    0.000    0.429    0.000    2.000 
#    0.000    0.000    0.000    0.000    0.000    0.000 
#
# Total GULP energy -311874.392114 kJ/mol
# GULP energy per Si atom -5569.185573 kJ/mol
# Density = 1.034677 g / cm^3
# Si number density = 10.370370 Si / 1000 Ang^3
#
#
#
# Elastic Constant Matrix: (Units=GPa)
#
#
# Indices 1 2 3 4 5 6 
#
# 1 33.1339 13.9277 16.8165 0.0000 0.0000 0.0000
# 2 13.9277 111.1839 104.4055 0.0000 0.0000 0.0000
# 3 16.8165 104.4055 115.2675 0.0000 0.0000 0.0000
# 4 0.0000 0.0000 0.0000 -52.7495 0.0000 0.0000
# 5 0.0000 0.0000 0.0000 0.0000 21.1945 0.0000
# 6 0.0000 0.0000 0.0000 0.0000 0.0000 29.6630
#
#
#
# Elastic Compliance Matrix: (Units=1/GPa)
#
#
# Indices 1 2 3 4 5 6 
#
# 1 0.032703 0.002567 -0.007096 0.000000 0.000000 0.000000
# 2 0.002567 0.060381 -0.055066 0.000000 0.000000 0.000000
# 3 -0.007096 -0.055066 0.059588 0.000000 0.000000 0.000000
# 4 0.000000 0.000000 0.000000 -0.018958 0.000000 0.000000
# 5 0.000000 0.000000 0.000000 0.000000 0.047182 0.000000
# 6 0.000000 0.000000 0.000000 0.000000 0.000000 0.033712
#
#
# Mechanical properties :
#
#
# Convention : Reuss Voigt Hill
#
# Bulk Modulus (GPa) = 29.86706 58.87610 44.37158
# Shear Modulus (GPa) = 14.49446 7.91730 11.20588
#
# Velocity S-wave (km/s) = 2.64643 1.95590 2.32692
# Velocity P-wave (km/s) = 4.87540 5.79215 5.35344
#
# Compressibility (1/GPa) = 0.03348170
#
# Stress axis : x y z
#
# Youngs Moduli (GPa) = 30.57821 16.56140 16.78202
#
# Poissons Ratio (x) = -0.04251 0.11908
# Poissons Ratio (y) = -0.07848 0.92412
# Poissons Ratio (z) = 0.21698 0.91197
#
# Static dielectric constant tensor:
#      x y z
#    x 1.771180 0.000000 0.000000 
#    y 0.000000 1.667800 0.000000 
#    z 0.000000 0.000000 1.790710 
# 
# From -- ./inp_files/69998.got.cif
#   From: 2010.05.17/outbox.ucp.g08.bks.cvg/sg65_35_cif.got.tgz:69998.got - 2010.06.11 16:39:57.
