data_PCOD9494228
_publ_section_title
;
Structure prediction by ZEFSAII (Michael W. Deem and Ramdas Pophale) SiO2 
 PCOD9494228
Probable space group: C M M M
;
_chemical_formula_sum "Si O2"
_cell_formula_units_Z 80
_cell_length_a 7.618041
_cell_length_b 27.057661
_cell_length_c 19.935871
_cell_angle_alpha 90.000000
_cell_angle_beta 90.000000
_cell_angle_gamma 90.000000
_cell_volume 4109.308739
_symmetry_space_group_name_H-M "C M M M"
_symmetry_group_IT_number 65
_symmetry_cell_setting 'orthorhombic'
loop_
_space_group_symop_operation_xyz
x,y,z
-x,-y,z
x,-y,-z
-x,y,-z
-x,-y,-z
x,y,-z
-x,y,z
x,-y,z
1/2+x,1/2+y,z
1/2-x,1/2-y,z
1/2+x,1/2-y,-z
1/2-x,1/2+y,-z
1/2-x,1/2-y,-z
1/2+x,1/2+y,-z
1/2-x,1/2+y,z
1/2+x,1/2-y,z
loop_
_atom_site_type_symbol
_atom_site_label
_atom_site_fract_x
_atom_site_fract_y
_atom_site_fract_z
Si Si1 0.784394 0.107912 0.577589
Si Si2 0.209117 0.107793 0.923513
Si Si3 0.711014 0.305681 0.172048
Si Si4 0.789398 0.194390 0.324894
Si Si5 0.796601 0.000000 0.581549
Si Si6 0.791239 0.500000 0.923495
O O1 0.733173 0.115573 0.500000
O O2 0.724750 0.151895 0.625503
O O3 0.722295 0.053413 0.600765
O O4 0.000000 0.106686 0.578074
O O5 0.278879 0.151604 0.876921
O O6 0.237626 0.052814 0.894104
O O7 0.000000 0.114584 0.928310
O O8 0.280318 0.109062 0.000000
O O9 0.500000 0.310429 0.174910
O O10 0.750000 0.250000 0.148548
O O11 0.777981 0.310552 0.248504
O O12 0.750000 0.250000 0.348270
O O13 0.000000 0.189626 0.322273
O O14 0.796200 0.000000 0.500000
O O15 0.000000 0.000000 0.603497
O O16 0.000000 0.500000 0.926711
O O17 0.718051 0.500000 0.000000
#
# Coordination Sequence:
#
# PCOD9494228 Si02
#       6
#    16  16  16  16   8   8
#     4   8  13  22  38  60  84 108 135 169 208 249
#     4   9  17  30  47  65  87 116 147 178 214 257
#     4   9  18  31  45  62  85 114 146 179 218 260
#     4   9  17  29  43  60  84 112 140 171 208 250
#     4   7  10  18  33  54  79 103 126 158 202 241
#     4   9  17  29  46  69  93 115 142 177 216 256
#
# _framework density 19.467994999999998
#
# number of rings (size 3 to 8) (size 9 to 14) (size 15 to 20)
#    0.000    3.400    0.000    1.500    0.000    2.800 
#    0.000    1.000    0.000    4.800    0.000    0.700 
#    0.000    2.400    0.000    0.000    0.000    0.000 
#
# Total GULP energy -222778.897133 kJ/mol
# GULP energy per Si atom -5569.472428 kJ/mol
# Density = 1.942369 g / cm^3
# Si number density = 19.467995 Si / 1000 Ang^3
#
#
#
# Elastic Constant Matrix: (Units=GPa)
#
#
# Indices 1 2 3 4 5 6 
#
# 1 39.3803 0.7507 4.6839 0.0000 0.0000 0.0000
# 2 0.7507 236.7252 101.7565 0.0000 0.0000 0.0000
# 3 4.6839 101.7565 65.8416 0.0000 0.0000 0.0000
# 4 0.0000 0.0000 0.0000 -507.2702 0.0000 0.0000
# 5 0.0000 0.0000 0.0000 0.0000 0.4141 0.0000
# 6 0.0000 0.0000 0.0000 0.0000 0.0000 19.5092
#
#
#
# Elastic Compliance Matrix: (Units=1/GPa)
#
#
# Indices 1 2 3 4 5 6 
#
# 1 0.025962 0.002120 -0.005123 0.000000 0.000000 0.000000
# 2 0.002120 0.012758 -0.019867 0.000000 0.000000 0.000000
# 3 -0.005123 -0.019867 0.046257 0.000000 0.000000 0.000000
# 4 0.000000 0.000000 0.000000 -0.001971 0.000000 0.000000
# 5 0.000000 0.000000 0.000000 0.000000 2.414867 0.000000
# 6 0.000000 0.000000 0.000000 0.000000 0.000000 0.051258
#
#
# Mechanical properties :
#
#
# Convention : Reuss Voigt Hill
#
# Bulk Modulus (GPa) = 25.48702 61.81434 43.65068
# Shear Modulus (GPa) = 1.91722 -81.81898 -39.95088
#
# Velocity S-wave (km/s) = 0.99345 -6.48989 -4.53496
# Velocity P-wave (km/s) = 3.79949 4.93331 2.22502
#
# Compressibility (1/GPa) = 0.03923566
#
# Stress axis : x y z
#
# Youngs Moduli (GPa) = 38.51732 78.38521 21.61853
#
# Poissons Ratio (x) = -0.16616 0.11075
# Poissons Ratio (y) = -0.08165 0.42950
# Poissons Ratio (z) = 0.19733 1.55729
#
# Static dielectric constant tensor:
#      x y z
#    x 1.730640 0.000000 0.000000 
#    y 0.000000 1.697910 0.000000 
#    z 0.000000 0.000000 1.672130 
# 
# From -- ./inp_files/49938.got.cif
#   From: 2010.05.17/outbox.cif.g08.bks.cpg/sg65_25_cif.got.tgz:49938.got - 2010.06.03 17:01:31.
