data_PCOD9494429
_publ_section_title
;
Structure prediction by ZEFSAII (Michael W. Deem and Ramdas Pophale) SiO2 
 PCOD9494429
Probable space group: C M M M
;
_chemical_formula_sum "Si O2"
_cell_formula_units_Z 80
_cell_length_a 7.588269
_cell_length_b 20.246726
_cell_length_c 26.910158
_cell_angle_alpha 90.000000
_cell_angle_beta 90.000000
_cell_angle_gamma 90.000000
_cell_volume 4134.412178
_symmetry_space_group_name_H-M "C M M M"
_symmetry_group_IT_number 65
_symmetry_cell_setting 'orthorhombic'
loop_
_space_group_symop_operation_xyz
x,y,z
-x,-y,z
x,-y,-z
-x,y,-z
-x,-y,-z
x,y,-z
-x,y,z
x,-y,z
1/2+x,1/2+y,z
1/2-x,1/2-y,z
1/2+x,1/2-y,-z
1/2-x,1/2+y,-z
1/2-x,1/2-y,-z
1/2+x,1/2+y,-z
1/2-x,1/2+y,z
1/2+x,1/2-y,z
loop_
_atom_site_type_symbol
_atom_site_label
_atom_site_fract_x
_atom_site_fract_y
_atom_site_fract_z
Si Si1 0.211535 0.826165 0.141317
Si Si2 0.715181 0.423944 0.944020
Si Si3 0.788077 0.173756 0.253464
Si Si4 0.290479 0.424638 0.337637
Si Si5 0.211970 0.576989 0.553404
O O1 0.250000 0.750000 0.129241
O O2 0.278491 0.875342 0.099005
O O3 0.278346 0.839103 0.197353
O O4 0.000000 0.833649 0.142923
O O5 0.500000 0.422655 0.943748
O O6 0.766939 0.500000 0.935251
O O7 0.770112 0.405079 0.000000
O O8 0.750000 0.250000 0.265858
O O9 0.719658 0.123036 0.294750
O O10 0.000000 0.167270 0.252041
O O11 0.500000 0.429657 0.330255
O O12 0.218806 0.500000 0.335914
O O13 0.265384 0.395782 0.393130
O O14 0.272230 0.605338 0.500000
O O15 0.269950 0.500000 0.554029
O O16 0.000000 0.577332 0.552731
#
# Coordination Sequence:
#
# PCOD9494429 Si02
#       5
#    16  16  16  16  16
#     4   9  17  29  45  64  86 113 145 180 216 254
#     4   8  14  25  42  65  90 114 143 179 216 254
#     4   9  18  31  45  62  86 116 146 176 214 258
#     4   9  17  28  43  65  89 110 138 178 218 254
#     4   8  14  25  41  62  88 115 141 170 207 253
#
# _framework density 19.349789000000001
#
# number of rings (size 3 to 8) (size 9 to 14) (size 15 to 20)
#    0.000    3.400    0.000    1.200    0.000    2.400 
#    0.000    6.000    0.000    1.200    0.000    7.000 
#    0.000    0.000    0.000    0.000    0.000    0.000 
#
# Total GULP energy -222762.443981 kJ/mol
# GULP energy per Si atom -5569.061100 kJ/mol
# Density = 1.930575 g / cm^3
# Si number density = 19.349789 Si / 1000 Ang^3
#
#
#
# Elastic Constant Matrix: (Units=GPa)
#
#
# Indices 1 2 3 4 5 6 
#
# 1 41.0970 2.3703 6.2478 0.0000 0.0000 0.0000
# 2 2.3703 89.3686 122.4857 0.0000 0.0000 0.0000
# 3 6.2478 122.4857 208.9917 0.0000 0.0000 0.0000
# 4 0.0000 0.0000 0.0000 -77.5186 0.0000 0.0000
# 5 0.0000 0.0000 0.0000 0.0000 -5.8034 0.0000
# 6 0.0000 0.0000 0.0000 0.0000 0.0000 15.5254
#
#
#
# Elastic Compliance Matrix: (Units=1/GPa)
#
#
# Indices 1 2 3 4 5 6 
#
# 1 0.024501 0.001800 -0.001787 0.000000 0.000000 0.000000
# 2 0.001800 0.057008 -0.033465 0.000000 0.000000 0.000000
# 3 -0.001787 -0.033465 0.024451 0.000000 0.000000 0.000000
# 4 0.000000 0.000000 0.000000 -0.012900 0.000000 0.000000
# 5 0.000000 0.000000 0.000000 0.000000 -0.172314 0.000000
# 6 0.000000 0.000000 0.000000 0.000000 0.000000 0.064411
#
#
# Mechanical properties :
#
#
# Convention : Reuss Voigt Hill
#
# Bulk Modulus (GPa) = 25.60500 66.85165 46.22833
# Shear Modulus (GPa) = 76.82824 0.33090 38.57957
#
# Velocity S-wave (km/s) = 6.30802 0.41398 4.47004
# Velocity P-wave (km/s) = 8.14348 5.90360 7.11227
#
# Compressibility (1/GPa) = 0.03905487
#
# Stress axis : x y z
#
# Youngs Moduli (GPa) = 40.81539 17.54144 40.89741
#
# Poissons Ratio (x) = -0.03157 0.07309
# Poissons Ratio (y) = -0.07345 1.36863
# Poissons Ratio (z) = 0.07294 0.58702
#
# Static dielectric constant tensor:
#      x y z
#    x 1.733810 0.000000 0.000000 
#    y 0.000000 1.639060 0.000000 
#    z 0.000000 0.000000 1.712760 
# 
# From -- ./inp_files/68822.got.cif
#   From: 2010.05.17/outbox.cif.g08.bks.cpg/sg65_35_cif.got.tgz:68822.got - 2010.06.03 17:01:31.
