data_PCOD9494909
_publ_section_title
;
Structure prediction by ZEFSAII (Michael W. Deem and Ramdas Pophale) SiO2 
 PCOD9494909
Probable space group: C C C M
;
_chemical_formula_sum "Si O2"
_cell_formula_units_Z 64
_cell_length_a 7.034429
_cell_length_b 33.359747
_cell_length_c 11.050354
_cell_angle_alpha 90.000000
_cell_angle_beta 90.000000
_cell_angle_gamma 90.000000
_cell_volume 2593.150900
_symmetry_space_group_name_H-M "C C C M"
_symmetry_group_IT_number 66
_symmetry_cell_setting 'orthorhombic'
loop_
_space_group_symop_operation_xyz
x,y,z
-x,-y,z
x,-y,1/2-z
-x,y,1/2-z
-x,-y,-z
x,y,-z
-x,y,1/2+z
x,-y,1/2+z
1/2+x,1/2+y,z
1/2-x,1/2-y,z
1/2+x,1/2-y,1/2-z
1/2-x,1/2+y,1/2-z
1/2-x,1/2-y,-z
1/2+x,1/2+y,-z
1/2-x,1/2+y,1/2+z
1/2+x,1/2-y,1/2+z
loop_
_atom_site_type_symbol
_atom_site_label
_atom_site_fract_x
_atom_site_fract_y
_atom_site_fract_z
Si Si1 0.189482 0.164770 0.134789
Si Si2 0.792319 0.924890 0.234612
Si Si3 0.250884 0.036254 0.000000
Si Si4 0.801046 0.942440 0.500000
Si Si5 0.236014 0.202148 0.370192
O O1 0.177474 0.118966 0.178229
O O2 0.302379 0.186881 0.240179
O O3 0.981422 0.185453 0.127339
O O4 0.268288 0.166339 0.000000
O O5 0.677461 0.948564 0.131195
O O6 0.732938 0.921916 0.375223
O O7 0.000000 0.945592 0.250000
O O8 0.032735 0.053853 0.000000
O O9 0.261496 0.988622 0.000000
O O10 0.318367 0.188606 0.500000
O O11 0.250000 0.250000 0.368412
#
# Coordination Sequence:
#
# PCOD9494909 Si02
#       5
#    16  16   8   8  16
#     4  10  18  28  43  58  77 102 127 164 198 229
#     4  10  16  23  37  51  68  97 129 157 188 214
#     4   9  16  26  30  48  72  94 124 164 188 204
#     4   9  18  22  34  48  70  96 126 162 186 204
#     4   9  18  29  42  58  73  92 123 161 198 235
#
# _framework density 24.680399999999999
#
# number of rings (size 3 to 8) (size 9 to 14) (size 15 to 20)
#    0.000    2.500    3.750    0.750    1.750    3.500 
#    0.000    0.000    0.000    0.000    0.000    0.000 
#    0.000    0.000    0.000    0.000    0.000    0.000 
#
# Total GULP energy -178430.334272 kJ/mol
# GULP energy per Si atom -5575.947946 kJ/mol
# Density = 2.462423 g / cm^3
# Si number density = 24.680400 Si / 1000 Ang^3
#
#
#
# Elastic Constant Matrix: (Units=GPa)
#
#
# Indices 1 2 3 4 5 6 
#
# 1 94.2718 16.0288 16.0106 0.0000 0.0000 0.0000
# 2 16.0288 123.4793 65.6826 0.0000 0.0000 0.0000
# 3 16.0106 65.6826 350.4768 0.0000 0.0000 0.0000
# 4 0.0000 0.0000 0.0000 56.3613 0.0000 0.0000
# 5 0.0000 0.0000 0.0000 0.0000 -26.1339 0.0000
# 6 0.0000 0.0000 0.0000 0.0000 0.0000 -8.4910
#
#
#
# Elastic Compliance Matrix: (Units=1/GPa)
#
#
# Indices 1 2 3 4 5 6 
#
# 1 0.010868 -0.001274 -0.000258 0.000000 0.000000 0.000000
# 2 -0.001274 0.009145 -0.001656 0.000000 0.000000 0.000000
# 3 -0.000258 -0.001656 0.003175 0.000000 0.000000 0.000000
# 4 0.000000 0.000000 0.000000 0.017743 0.000000 0.000000
# 5 0.000000 0.000000 0.000000 0.000000 -0.038265 0.000000
# 6 0.000000 0.000000 0.000000 0.000000 0.000000 -0.117772
#
#
# Mechanical properties :
#
#
# Convention : Reuss Voigt Hill
#
# Bulk Modulus (GPa) = 59.47512 84.85244 72.16378
# Shear Modulus (GPa) = -48.48376 35.71435 -6.38471
#
# Velocity S-wave (km/s) = -4.43704 3.80817 -1.61015
# Velocity P-wave (km/s) = 1.44889 7.33426 5.08390
#
# Compressibility (1/GPa) = 0.01681375
#
# Stress axis : x y z
#
# Youngs Moduli (GPa) = 92.01360 109.35519 314.93056
#
# Poissons Ratio (x) = 0.13928 0.08118
# Poissons Ratio (y) = 0.11719 0.52139
# Poissons Ratio (z) = 0.02372 0.18105
#
# Static dielectric constant tensor:
#      x y z
#    x 2.006110 0.000000 0.000000 
#    y 0.000000 1.890830 0.000000 
#    z 0.000000 0.000000 2.070530 
# 
# From -- ./inp_files/13606.got.cif
#   From: 2010.05.17/outbox.cif.g08.bks.cpg/sg66_7_cif.got.tgz:13606.got - 2010.06.03 17:51:23.
