data_PCOD9494819
_publ_section_title
;
Structure prediction by ZEFSAII (Michael W. Deem and Ramdas Pophale) SiO2 
 PCOD9494819
Probable space group: C M M M
;
_chemical_formula_sum "Si O2"
_cell_formula_units_Z 36
_cell_length_a 9.000000
_cell_length_b 15.000000
_cell_length_c 27.000000
_cell_angle_alpha 90.000000
_cell_angle_beta 90.000000
_cell_angle_gamma 90.000000
_cell_volume 3645.000000
_symmetry_space_group_name_H-M "C M M M"
_symmetry_group_IT_number 65
_symmetry_cell_setting 'orthorhombic'
loop_
_space_group_symop_operation_xyz
x,y,z
-x,-y,z
x,-y,-z
-x,y,-z
-x,-y,-z
x,y,-z
-x,y,z
x,-y,z
1/2+x,1/2+y,z
1/2-x,1/2-y,z
1/2+x,1/2-y,-z
1/2-x,1/2+y,-z
1/2-x,1/2-y,-z
1/2+x,1/2+y,-z
1/2-x,1/2+y,z
1/2+x,1/2-y,z
loop_
_atom_site_type_symbol
_atom_site_label
_atom_site_fract_x
_atom_site_fract_y
_atom_site_fract_z
Si Si1 0.178064 0.151973 0.500000
Si Si2 0.677982 0.348135 0.054992
Si Si3 0.668779 0.102816 0.845030
Si Si4 0.821994 0.500000 0.686786
Si Si5 0.320705 0.500000 0.420712
Si Si6 0.322877 0.340284 0.252607
O O1 0.250000 0.250000 0.500000
O O2 0.215251 0.088430 0.453031
O O3 0.000000 0.163064 0.500000
O O4 0.500000 0.344172 0.062336
O O5 0.750000 0.250000 0.054337
O O6 0.757947 0.393808 0.100981
O O7 0.704087 0.387396 0.000000
O O8 0.500000 0.139841 0.845718
O O9 0.771600 0.148827 0.804448
O O10 0.659195 0.000000 0.829786
O O11 0.766633 0.500000 0.630397
O O12 0.751658 0.416913 0.715356
O O13 0.000000 0.500000 0.690200
O O14 0.500000 0.500000 0.412617
O O15 0.500000 0.341479 0.256040
O O16 0.250000 0.250000 0.271262
#
# Coordination Sequence:
#
# PCOD9494819 Si02
#       6
#     8  16  16   8   8  16
#     4   9  19  37  64  94 130 173 221 267 313 372
#     4  10  21  37  57  81 111 147 191 243 301 368
#     4  11  23  39  60  85 117 153 196 250 306 374
#     4  12  25  43  65  96 133 169 216 269 320 379
#     4   9  20  40  62  90 130 177 217 261 320 375
#     4  12  25  43  67  92 123 165 210 262 319 380
#
# _framework density 9.8765429999999999
#
# number of rings (size 3 to 8) (size 9 to 14) (size 15 to 20)
#    0.000    1.333    1.111    5.667    0.000    4.889 
#    0.000    5.556    0.000    0.000    0.000    0.000 
#    0.000    0.000    0.000    0.000    0.000    0.000 
#
# Total GULP energy -201113.182672 kJ/mol
# GULP energy per Si atom -5586.477296 kJ/mol
# Density = 0.985406 g / cm^3
# Si number density = 9.876543 Si / 1000 Ang^3
#
#
#
# Elastic Constant Matrix: (Units=GPa)
#
#
# Indices 1 2 3 4 5 6 
#
# 1 180.4661 66.2782 82.3371 0.0000 0.0000 0.0000
# 2 66.2782 153.4408 64.8233 0.0000 0.0000 0.0000
# 3 82.3371 64.8233 134.4716 0.0000 0.0000 0.0000
# 4 0.0000 0.0000 0.0000 25.9403 0.0000 0.0000
# 5 0.0000 0.0000 0.0000 0.0000 32.5272 0.0000
# 6 0.0000 0.0000 0.0000 0.0000 0.0000 32.4020
#
#
#
# Elastic Compliance Matrix: (Units=1/GPa)
#
#
# Indices 1 2 3 4 5 6 
#
# 1 0.008047 -0.001751 -0.004083 0.000000 0.000000 0.000000
# 2 -0.001751 0.008565 -0.003057 0.000000 0.000000 0.000000
# 3 -0.004083 -0.003057 0.011410 0.000000 0.000000 0.000000
# 4 0.000000 0.000000 0.000000 0.038550 0.000000 0.000000
# 5 0.000000 0.000000 0.000000 0.000000 0.030744 0.000000
# 6 0.000000 0.000000 0.000000 0.000000 0.000000 0.030862
#
#
# Mechanical properties :
#
#
# Convention : Reuss Voigt Hill
#
# Bulk Modulus (GPa) = 97.65126 99.47284 98.56205
# Shear Modulus (GPa) = 33.47317 35.16989 34.32153
#
# Velocity S-wave (km/s) = 4.12099 4.22415 4.17289
# Velocity P-wave (km/s) = 8.49628 8.61735 8.55703
#
# Compressibility (1/GPa) = 0.01024052
#
# Stress axis : x y z
#
# Youngs Moduli (GPa) = 124.26616 116.75695 87.64090
#
# Poissons Ratio (x) = 0.20443 0.35786
# Poissons Ratio (y) = 0.21758 0.26789
# Poissons Ratio (z) = 0.50741 0.35688
#
# Static dielectric constant tensor:
#      x y z
#    x 1.655210 0.000000 0.000000 
#    y 0.000000 1.671700 0.000000 
#    z 0.000000 0.000000 1.691500 
# 
# From -- ./inp_files/72604.got.cif
#   From: 2010.05.17/outbox.ucp.g08.bks.cvg/sg65_37_cif.got.tgz:72604.got - 2010.06.11 16:39:57.
