data_PCOD9494331
_publ_section_title
;
Structure prediction by ZEFSAII (Michael W. Deem and Ramdas Pophale) SiO2 
 PCOD9494331
Probable space group: C M M M
;
_chemical_formula_sum "Si O2"
_cell_formula_units_Z 72
_cell_length_a 14.411783
_cell_length_b 7.663512
_cell_length_c 28.584869
_cell_angle_alpha 90.000000
_cell_angle_beta 90.000000
_cell_angle_gamma 90.000000
_cell_volume 3157.052197
_symmetry_space_group_name_H-M "C M M M"
_symmetry_group_IT_number 65
_symmetry_cell_setting 'orthorhombic'
loop_
_space_group_symop_operation_xyz
x,y,z
-x,-y,z
x,-y,-z
-x,y,-z
-x,-y,-z
x,y,-z
-x,y,z
x,-y,z
1/2+x,1/2+y,z
1/2-x,1/2-y,z
1/2+x,1/2-y,-z
1/2-x,1/2+y,-z
1/2-x,1/2-y,-z
1/2+x,1/2+y,-z
1/2-x,1/2+y,z
1/2+x,1/2-y,z
loop_
_atom_site_type_symbol
_atom_site_label
_atom_site_fract_x
_atom_site_fract_y
_atom_site_fract_z
Si Si1 0.886952 0.199480 0.447418
Si Si2 0.385651 0.000000 0.729254
Si Si3 0.141258 0.208867 0.100590
Si Si4 0.613656 0.000000 0.377953
Si Si5 0.639683 0.710431 0.000000
Si Si6 0.608184 0.304195 0.204574
O O1 0.860217 0.255817 0.500000
O O2 0.856631 0.331413 0.407505
O O3 0.000000 0.199284 0.446867
O O4 0.857196 0.000000 0.440190
O O5 0.353582 0.169113 0.758084
O O6 0.500000 0.000000 0.729618
O O7 0.355313 0.000000 0.675586
O O8 0.250000 0.250000 0.099585
O O9 0.110536 0.270125 0.151597
O O10 0.124406 0.000000 0.100792
O O11 0.104371 0.275307 0.050434
O O12 0.500000 0.000000 0.377216
O O13 0.750000 0.750000 0.000000
O O14 0.627845 0.500000 0.000000
O O15 0.500000 0.322600 0.216042
O O16 0.649505 0.500000 0.204669
#
# Coordination Sequence:
#
# PCOD9494331 Si02
#       6
#    16   8  16   8   8  16
#     4   8  13  20  30  46  70  99 131 171 215 253
#     4   9  18  29  42  58  78 111 149 186 221 251
#     4   9  17  28  46  68  87 111 140 176 218 263
#     4   9  15  22  33  50  69  96 139 180 212 247
#     4   8  14  26  41  63  90 108 132 168 215 264
#     4   9  18  32  46  61  85 115 146 181 221 261
#
# _framework density 22.806084999999999
#
# number of rings (size 3 to 8) (size 9 to 14) (size 15 to 20)
#    0.000    3.333    0.000    1.000    1.556    2.222 
#    0.000    5.000    0.000    3.333    0.000    2.333 
#    0.000    0.000    0.000    0.000    0.000    4.444 
#
# Total GULP energy -200794.971318 kJ/mol
# GULP energy per Si atom -5577.638092 kJ/mol
# Density = 2.275418 g / cm^3
# Si number density = 22.806085 Si / 1000 Ang^3
#
#
#
# Elastic Constant Matrix: (Units=GPa)
#
#
# Indices 1 2 3 4 5 6 
#
# 1 65.0270 4.0924 2.5389 0.0000 0.0000 0.0000
# 2 4.0924 100.8223 120.6215 0.0000 0.0000 0.0000
# 3 2.5389 120.6215 269.5655 0.0000 0.0000 0.0000
# 4 0.0000 0.0000 0.0000 -37.4921 0.0000 0.0000
# 5 0.0000 0.0000 0.0000 0.0000 14.5705 0.0000
# 6 0.0000 0.0000 0.0000 0.0000 0.0000 4.5612
#
#
#
# Elastic Compliance Matrix: (Units=1/GPa)
#
#
# Indices 1 2 3 4 5 6 
#
# 1 0.015428 -0.000974 0.000290 0.000000 0.000000 0.000000
# 2 -0.000974 0.021407 -0.009570 0.000000 0.000000 0.000000
# 3 0.000290 -0.009570 0.007989 0.000000 0.000000 0.000000
# 4 0.000000 0.000000 0.000000 -0.026672 0.000000 0.000000
# 5 0.000000 0.000000 0.000000 0.000000 0.068632 0.000000
# 6 0.000000 0.000000 0.000000 0.000000 0.000000 0.219239
#
#
# Mechanical properties :
#
#
# Convention : Reuss Voigt Hill
#
# Bulk Modulus (GPa) = 41.12136 76.65782 58.88959
# Shear Modulus (GPa) = 14.94164 16.87205 15.90684
#
# Velocity S-wave (km/s) = 2.56239 2.72289 2.64385
# Velocity P-wave (km/s) = 5.17923 6.60086 5.93278
#
# Compressibility (1/GPa) = 0.02431826
#
# Stress axis : x y z
#
# Youngs Moduli (GPa) = 64.81651 46.71383 125.17112
#
# Poissons Ratio (x) = 0.04548 -0.03634
# Poissons Ratio (y) = 0.06310 1.19785
# Poissons Ratio (z) = -0.01882 0.44704
#
# Static dielectric constant tensor:
#      x y z
#    x 1.877580 0.000000 0.000000 
#    y 0.000000 1.872270 0.000000 
#    z 0.000000 0.000000 1.831160 
# 
# From -- ./inp_files/75280.got.cif
#   From: 2010.05.17/outbox.cif.g08.bks.cpg/sg65_38_cif.got.tgz:75280.got - 2010.06.03 17:01:31.
