data_PCOD9494522
_publ_section_title
;
Structure prediction by ZEFSAII (Michael W. Deem and Ramdas Pophale) SiO2 
 PCOD9494522
Probable space group: C M M M
;
_chemical_formula_sum "Si O2"
_cell_formula_units_Z 72
_cell_length_a 18.030292
_cell_length_b 26.333513
_cell_length_c 7.551256
_cell_angle_alpha 90.000000
_cell_angle_beta 90.000000
_cell_angle_gamma 90.000000
_cell_volume 3585.343362
_symmetry_space_group_name_H-M "C M M M"
_symmetry_group_IT_number 65
_symmetry_cell_setting 'orthorhombic'
loop_
_space_group_symop_operation_xyz
x,y,z
-x,-y,z
x,-y,-z
-x,y,-z
-x,-y,-z
x,y,-z
-x,y,z
x,-y,z
1/2+x,1/2+y,z
1/2-x,1/2-y,z
1/2+x,1/2-y,-z
1/2-x,1/2+y,-z
1/2-x,1/2-y,-z
1/2+x,1/2+y,-z
1/2-x,1/2+y,z
1/2+x,1/2-y,z
loop_
_atom_site_type_symbol
_atom_site_label
_atom_site_fract_x
_atom_site_fract_y
_atom_site_fract_z
Si Si1 0.761676 0.807635 0.286144
Si Si2 0.134495 0.056042 0.785112
Si Si3 0.700335 0.913849 0.210547
Si Si4 0.578393 0.338777 0.705335
Si Si5 0.913809 0.500000 0.216998
O O1 0.763471 0.807481 0.500000
O O2 0.750000 0.750000 0.226905
O O3 0.704229 0.852988 0.241255
O O4 0.843318 0.822110 0.215643
O O5 0.219602 0.065842 0.724868
O O6 0.084184 0.100597 0.712955
O O7 0.111289 0.000000 0.733003
O O8 0.133560 0.058999 0.000000
O O9 0.633130 0.949790 0.274534
O O10 0.700651 0.920935 0.000000
O O11 0.578624 0.322465 0.500000
O O12 0.500000 0.321978 0.784710
O O13 0.000000 0.500000 0.274160
O O14 0.915210 0.500000 0.000000
#
# Coordination Sequence:
#
# PCOD9494522 Si02
#       5
#    16  16  16  16   8
#     4   9  18  33  51  69  90 121 161 199 238 285
#     4   9  16  27  44  65  90 120 150 179 216 263
#     4   9  16  29  49  71  95 123 158 194 230 280
#     4   9  18  31  45  63  88 117 149 185 225 268
#     4   9  16  28  49  75 102 131 160 196 245 295
#
# _framework density 20.081759000000002
#
# number of rings (size 3 to 8) (size 9 to 14) (size 15 to 20)
#    0.000    3.000    1.111    0.000    0.000    1.778 
#    0.000    3.889    0.000    2.667    0.000    0.000 
#    0.000    0.000    0.000    0.000    0.000    0.000 
#
# Total GULP energy -200462.792349 kJ/mol
# GULP energy per Si atom -5568.410899 kJ/mol
# Density = 2.003605 g / cm^3
# Si number density = 20.081759 Si / 1000 Ang^3
#
#
#
# Elastic Constant Matrix: (Units=GPa)
#
#
# Indices 1 2 3 4 5 6 
#
# 1 139.5538 65.5687 5.2120 0.0000 0.0000 0.0000
# 2 65.5687 138.0901 -6.2429 0.0000 0.0000 0.0000
# 3 5.2120 -6.2429 46.3992 0.0000 0.0000 0.0000
# 4 0.0000 0.0000 0.0000 20.0872 0.0000 0.0000
# 5 0.0000 0.0000 0.0000 0.0000 6.5136 0.0000
# 6 0.0000 0.0000 0.0000 0.0000 0.0000 9.7628
#
#
#
# Elastic Compliance Matrix: (Units=1/GPa)
#
#
# Indices 1 2 3 4 5 6 
#
# 1 0.009348 -0.004514 -0.001657 0.000000 0.000000 0.000000
# 2 -0.004514 0.009465 0.001781 0.000000 0.000000 0.000000
# 3 -0.001657 0.001781 0.021978 0.000000 0.000000 0.000000
# 4 0.000000 0.000000 0.000000 0.049783 0.000000 0.000000
# 5 0.000000 0.000000 0.000000 0.000000 0.153526 0.000000
# 6 0.000000 0.000000 0.000000 0.000000 0.000000 0.102430
#
#
# Mechanical properties :
#
#
# Convention : Reuss Voigt Hill
#
# Bulk Modulus (GPa) = 31.23984 50.34651 40.79318
# Shear Modulus (GPa) = 13.66189 24.57307 19.11748
#
# Velocity S-wave (km/s) = 2.61111 3.50187 3.08877
# Velocity P-wave (km/s) = 4.96796 6.44018 5.75137
#
# Compressibility (1/GPa) = 0.03201040
#
# Stress axis : x y z
#
# Youngs Moduli (GPa) = 106.97048 105.64792 45.50037
#
# Poissons Ratio (x) = 0.47687 0.07541
# Poissons Ratio (y) = 0.48284 -0.08102
# Poissons Ratio (z) = 0.17729 -0.18811
#
# Static dielectric constant tensor:
#      x y z
#    x 1.728940 0.000000 0.000000 
#    y 0.000000 1.721850 0.000000 
#    z 0.000000 0.000000 1.782950 
# 
# From -- ./inp_files/9291.got.cif
#   From: 2010.05.17/outbox.cif.g08.bks.cpg/sg65_5_cif.got.tgz:9291.got - 2010.06.03 17:01:31.
