data_PCOD9494577
_publ_section_title
;
Structure prediction by ZEFSAII (Michael W. Deem and Ramdas Pophale) SiO2 
 PCOD9494577
Probable space group: C M M M
;
_chemical_formula_sum "Si O2"
_cell_formula_units_Z 44
_cell_length_a 24.000000
_cell_length_b 21.000000
_cell_length_c 9.000000
_cell_angle_alpha 90.000000
_cell_angle_beta 90.000000
_cell_angle_gamma 90.000000
_cell_volume 4536.000000
_symmetry_space_group_name_H-M "C M M M"
_symmetry_group_IT_number 65
_symmetry_cell_setting 'orthorhombic'
loop_
_space_group_symop_operation_xyz
x,y,z
-x,-y,z
x,-y,-z
-x,y,-z
-x,-y,-z
x,y,-z
-x,y,z
x,-y,z
1/2+x,1/2+y,z
1/2-x,1/2-y,z
1/2+x,1/2-y,-z
1/2-x,1/2+y,-z
1/2-x,1/2-y,-z
1/2+x,1/2+y,-z
1/2-x,1/2+y,z
1/2+x,1/2-y,z
loop_
_atom_site_type_symbol
_atom_site_label
_atom_site_fract_x
_atom_site_fract_y
_atom_site_fract_z
Si Si1 0.933168 0.000000 0.820649
Si Si2 0.000000 0.783417 0.676406
Si Si3 0.500000 0.145863 0.819998
Si Si4 0.155434 0.094999 0.677229
Si Si5 0.122573 0.359525 0.170001
Si Si6 0.886876 0.793010 0.171782
Si Si7 0.218939 0.431033 0.322386
O O1 0.895820 0.058593 0.756491
O O2 0.000000 0.000000 0.778850
O O3 0.931276 0.000000 0.000000
O O4 0.000000 0.708558 0.717726
O O5 0.053708 0.809946 0.758120
O O6 0.000000 0.793570 0.500000
O O7 0.560335 0.114763 0.791021
O O8 0.500000 0.162692 0.000000
O O9 0.149664 0.086445 0.500000
O O10 0.154846 0.168580 0.725194
O O11 0.216720 0.072455 0.726192
O O12 0.118607 0.282911 0.177832
O O13 0.174834 0.380960 0.264283
O O14 0.133167 0.377816 0.000000
O O15 0.882516 0.812415 0.000000
O O16 0.220963 0.427009 0.500000
O O17 0.196520 0.500000 0.277317
#
# Coordination Sequence:
#
# PCOD9494577 Si02
#       7
#     8   8   8  16  16  16  16
#     4  11  25  43  63  89 121 158 199 246 298 342
#     4  10  18  30  52  82 114 152 194 228 280 349
#     4   8  16  34  55  81 119 152 182 231 288 337
#     4  11  23  41  62  85 117 156 201 244 289 346
#     4   9  19  36  60  87 116 153 193 238 289 349
#     4  10  21  37  56  84 120 153 191 242 296 345
#     4  10  22  41  60  81 114 154 194 242 295 348
#
# _framework density 9.7001760000000008
#
# number of rings (size 3 to 8) (size 9 to 14) (size 15 to 20)
#    0.000    2.091    0.909    3.273    1.273    6.909 
#    0.000    4.091    0.000    2.727    0.000    0.000 
#    0.000    0.000    0.000    0.000    0.000    0.000 
#
# Total GULP energy -245029.336026 kJ/mol
# GULP energy per Si atom -5568.848546 kJ/mol
# Density = 0.967810 g / cm^3
# Si number density = 9.700176 Si / 1000 Ang^3
#
#
#
# Elastic Constant Matrix: (Units=GPa)
#
#
# Indices 1 2 3 4 5 6 
#
# 1 127.5778 40.9294 44.2717 0.0000 0.0000 0.0000
# 2 40.9294 29.3683 21.6394 0.0000 0.0000 0.0000
# 3 44.2717 21.6394 45.1940 0.0000 0.0000 0.0000
# 4 0.0000 0.0000 0.0000 23.7757 0.0000 0.0000
# 5 0.0000 0.0000 0.0000 0.0000 34.1174 0.0000
# 6 0.0000 0.0000 0.0000 0.0000 0.0000 -55.0618
#
#
#
# Elastic Compliance Matrix: (Units=1/GPa)
#
#
# Indices 1 2 3 4 5 6 
#
# 1 0.015692 -0.016290 -0.007572 0.000000 0.000000 0.000000
# 2 -0.016290 0.069523 -0.017331 0.000000 0.000000 0.000000
# 3 -0.007572 -0.017331 0.037842 0.000000 0.000000 0.000000
# 4 0.000000 0.000000 0.000000 0.042060 0.000000 0.000000
# 5 0.000000 0.000000 0.000000 0.000000 0.029311 0.000000
# 6 0.000000 0.000000 0.000000 0.000000 0.000000 -0.018161
#
#
# Mechanical properties :
#
#
# Convention : Reuss Voigt Hill
#
# Bulk Modulus (GPa) = 24.58694 46.20236 35.39465
# Shear Modulus (GPa) = 18.36814 6.91956 12.64385
#
# Velocity S-wave (km/s) = 3.08034 1.89063 2.55568
# Velocity P-wave (km/s) = 5.03511 5.35097 5.19544
#
# Compressibility (1/GPa) = 0.04067199
#
# Stress axis : x y z
#
# Youngs Moduli (GPa) = 63.72573 14.38364 26.42537
#
# Poissons Ratio (x) = 0.23432 0.20009
# Poissons Ratio (y) = 1.03812 0.45797
# Poissons Ratio (z) = 0.48253 0.24928
#
# Static dielectric constant tensor:
#      x y z
#    x 1.559410 0.000000 0.000000 
#    y 0.000000 1.742920 0.000000 
#    z 0.000000 0.000000 1.650940 
# 
# From -- ./inp_files/14082.got.cif
#   From: 2010.05.17/outbox.ucp.g08.bks.cvg/sg65_8_cif.got.tgz:14082.got - 2010.06.11 16:39:57.
