data_PCOD9494460
_publ_section_title
;
Structure prediction by ZEFSAII (Michael W. Deem and Ramdas Pophale) SiO2 
 PCOD9494460
Probable space group: C M M M
;
_chemical_formula_sum "Si O2"
_cell_formula_units_Z 64
_cell_length_a 29.216094
_cell_length_b 7.359928
_cell_length_c 13.808233
_cell_angle_alpha 90.000000
_cell_angle_beta 90.000000
_cell_angle_gamma 90.000000
_cell_volume 2969.161535
_symmetry_space_group_name_H-M "C M M M"
_symmetry_group_IT_number 65
_symmetry_cell_setting 'orthorhombic'
loop_
_space_group_symop_operation_xyz
x,y,z
-x,-y,z
x,-y,-z
-x,y,-z
-x,-y,-z
x,y,-z
-x,y,z
x,-y,z
1/2+x,1/2+y,z
1/2-x,1/2-y,z
1/2+x,1/2-y,-z
1/2-x,1/2+y,-z
1/2-x,1/2-y,-z
1/2+x,1/2+y,-z
1/2-x,1/2+y,z
1/2+x,1/2-y,z
loop_
_atom_site_type_symbol
_atom_site_label
_atom_site_fract_x
_atom_site_fract_y
_atom_site_fract_z
Si Si1 0.444255 0.500000 0.109167
Si Si2 0.446888 0.215374 0.269327
Si Si3 0.304866 0.217101 0.000000
Si Si4 0.137821 0.279315 0.607971
Si Si5 0.804203 0.282808 0.789902
O O1 0.500000 0.500000 0.102653
O O2 0.432362 0.325494 0.174011
O O3 0.426277 0.500000 0.000000
O O4 0.500000 0.256416 0.289784
O O5 0.413524 0.263673 0.357229
O O6 0.442724 0.000000 0.251627
O O7 0.250000 0.250000 0.000000
O O8 0.320691 0.287632 0.104821
O O9 0.312494 0.000000 0.000000
O O10 0.148145 0.213976 0.500000
O O11 0.141349 0.500000 0.605367
O O12 0.170350 0.213627 0.694637
O O13 0.811298 0.500000 0.791824
O O14 0.750000 0.250000 0.782263
#
# Coordination Sequence:
#
# PCOD9494460 Si02
#       5
#     8  16   8  16  16
#     4   9  18  34  55  79 113 147 180 227 273 321
#     4   9  18  34  56  80 108 145 185 223 271 326
#     4   8  14  26  46  68  91 123 162 206 255 310
#     4   9  18  33  52  75 105 139 177 224 273 321
#     4   9  17  31  50  71  99 133 170 215 268 322
#
# _framework density 21.554905999999999
#
# number of rings (size 3 to 8) (size 9 to 14) (size 15 to 20)
#    0.000    3.125    0.000    0.000    0.000    1.500 
#    4.500    5.625    0.000    2.250    0.000    0.000 
#    0.000    0.000    0.000    0.000    0.000    0.000 
#
# Total GULP energy -178514.603403 kJ/mol
# GULP energy per Si atom -5578.581356 kJ/mol
# Density = 2.150585 g / cm^3
# Si number density = 21.554906 Si / 1000 Ang^3
#
#
#
# Elastic Constant Matrix: (Units=GPa)
#
#
# Indices 1 2 3 4 5 6 
#
# 1 81.2906 5.5327 82.9574 0.0000 0.0000 0.0000
# 2 5.5327 74.0575 28.0121 0.0000 0.0000 0.0000
# 3 82.9574 28.0121 261.7473 0.0000 0.0000 0.0000
# 4 0.0000 0.0000 0.0000 -3.6406 0.0000 0.0000
# 5 0.0000 0.0000 0.0000 0.0000 35.6180 0.0000
# 6 0.0000 0.0000 0.0000 0.0000 0.0000 6.5372
#
#
#
# Elastic Compliance Matrix: (Units=1/GPa)
#
#
# Indices 1 2 3 4 5 6 
#
# 1 0.018235 0.000858 -0.005871 0.000000 0.000000 0.000000
# 2 0.000858 0.014113 -0.001782 0.000000 0.000000 0.000000
# 3 -0.005871 -0.001782 0.005872 0.000000 0.000000 0.000000
# 4 0.000000 0.000000 0.000000 -0.274677 0.000000 0.000000
# 5 0.000000 0.000000 0.000000 0.000000 0.028076 0.000000
# 6 0.000000 0.000000 0.000000 0.000000 0.000000 0.152970
#
#
# Mechanical properties :
#
#
# Convention : Reuss Voigt Hill
#
# Bulk Modulus (GPa) = 40.60170 72.23332 56.41751
# Shear Modulus (GPa) = -148.75879 27.74247 -60.50816
#
# Velocity S-wave (km/s) = -8.31647 3.59145 -5.30402
# Velocity P-wave (km/s) = 8.56394 7.12616 3.35849
#
# Compressibility (1/GPa) = 0.02462951
#
# Stress axis : x y z
#
# Youngs Moduli (GPa) = 54.84078 70.85619 170.29964
#
# Poissons Ratio (x) = -0.06083 0.99985
# Poissons Ratio (y) = -0.04708 0.30355
# Poissons Ratio (z) = 0.32198 0.12630
#
# Static dielectric constant tensor:
#      x y z
#    x 1.771610 0.000000 0.000000 
#    y 0.000000 1.801790 0.000000 
#    z 0.000000 0.000000 1.783750 
# 
# From -- ./inp_files/33222.got.cif
#   From: 2010.05.17/outbox.cif.g08.bks.cpg/sg65_17_cif.got.tgz:33222.got - 2010.06.03 17:01:31.
