data_PCOD9494036
_publ_section_title
;
Structure prediction by ZEFSAII (Michael W. Deem and Ramdas Pophale) SiO2 
 PCOD9494036
Probable space group: C M M M
;
_chemical_formula_sum "Si O2"
_cell_formula_units_Z 56
_cell_length_a 9.999289
_cell_length_b 18.832000
_cell_length_c 14.991600
_cell_angle_alpha 90.000000
_cell_angle_beta 90.000000
_cell_angle_gamma 90.000000
_cell_volume 2823.017381
_symmetry_space_group_name_H-M "C M M M"
_symmetry_group_IT_number 65
_symmetry_cell_setting 'orthorhombic'
loop_
_space_group_symop_operation_xyz
x,y,z
-x,-y,z
x,-y,-z
-x,y,-z
-x,-y,-z
x,y,-z
-x,y,z
x,-y,z
1/2+x,1/2+y,z
1/2-x,1/2-y,z
1/2+x,1/2-y,-z
1/2-x,1/2+y,-z
1/2-x,1/2-y,-z
1/2+x,1/2+y,-z
1/2-x,1/2+y,z
1/2+x,1/2-y,z
loop_
_atom_site_type_symbol
_atom_site_label
_atom_site_fract_x
_atom_site_fract_y
_atom_site_fract_z
Si Si1 0.848990 0.682059 0.710124
Si Si2 0.851083 0.084347 0.393547
Si Si3 0.769301 0.334800 0.899940
Si Si4 0.500000 0.580074 0.892884
O O1 0.750000 0.750000 0.708200
O O2 0.770397 0.623953 0.652907
O O3 0.857527 0.655962 0.812688
O O4 0.000000 0.697426 0.678719
O O5 0.846515 0.096440 0.500000
O O6 0.000000 0.107570 0.361499
O O7 0.842245 0.000000 0.378726
O O8 0.750000 0.250000 0.907342
O O9 0.631572 0.374284 0.874148
O O10 0.811245 0.358994 0.000000
O O11 0.500000 0.500000 0.854627
O O12 0.500000 0.573068 0.000000
#
# Coordination Sequence:
#
# PCOD9494036 Si02
#       4
#    16  16  16   8
#     4  11  24  38  58  88 122 160 202 249 302 355
#     4   9  20  41  67  91 116 151 195 244 302 368
#     4   9  20  35  56  84 118 160 207 254 301 358
#     4   9  18  34  56  84 114 152 206 257 304 360
#
# _framework density 19.836929999999999
#
# number of rings (size 3 to 8) (size 9 to 14) (size 15 to 20)
#    0.000    2.429    0.000    1.714   10.000    3.429 
#    0.000    1.429    0.000    0.000    0.000    6.000 
#    0.000    0.000    0.000    0.000    0.000    0.000 
#
# Total GULP energy -156039.169071 kJ/mol
# GULP energy per Si atom -5572.827467 kJ/mol
# Density = 1.979178 g / cm^3
# Si number density = 19.836930 Si / 1000 Ang^3
#
#
#
# Elastic Constant Matrix: (Units=GPa)
#
#
# Indices 1 2 3 4 5 6 
#
# 1 182.2547 69.0658 51.0192 0.0000 0.0000 0.0000
# 2 69.0658 83.5956 32.5807 0.0000 0.0000 0.0000
# 3 51.0192 32.5807 64.0567 0.0000 0.0000 0.0000
# 4 0.0000 0.0000 0.0000 41.0452 0.0000 0.0000
# 5 0.0000 0.0000 0.0000 0.0000 31.4360 0.0000
# 6 0.0000 0.0000 0.0000 0.0000 0.0000 30.5564
#
#
#
# Elastic Compliance Matrix: (Units=1/GPa)
#
#
# Indices 1 2 3 4 5 6 
#
# 1 0.008781 -0.005649 -0.004121 0.000000 0.000000 0.000000
# 2 -0.005649 0.018554 -0.004938 0.000000 0.000000 0.000000
# 3 -0.004121 -0.004938 0.021405 0.000000 0.000000 0.000000
# 4 0.000000 0.000000 0.000000 0.024363 0.000000 0.000000
# 5 0.000000 0.000000 0.000000 0.000000 0.031811 0.000000
# 6 0.000000 0.000000 0.000000 0.000000 0.000000 0.032726
#
#
# Mechanical properties :
#
#
# Convention : Reuss Voigt Hill
#
# Bulk Modulus (GPa) = 51.74675 70.58205 61.16440
# Shear Modulus (GPa) = 28.81915 32.42362 30.62139
#
# Velocity S-wave (km/s) = 3.81570 4.04729 3.93320
# Velocity P-wave (km/s) = 6.74948 7.58282 7.17825
#
# Compressibility (1/GPa) = 0.01932488
#
# Stress axis : x y z
#
# Youngs Moduli (GPa) = 113.88316 53.89757 46.71879
#
# Poissons Ratio (x) = 0.30445 0.19251
# Poissons Ratio (y) = 0.64329 0.23069
# Poissons Ratio (z) = 0.46928 0.26614
#
# Static dielectric constant tensor:
#      x y z
#    x 1.433990 0.000000 0.000000 
#    y 0.000000 1.689800 0.000000 
#    z 0.000000 0.000000 1.741120 
# 
# From -- ./inp_files/35434.got.cif
#   From: 2010.05.17/outbox.cif.g08.bks.cpg/sg65_18_cif.got.tgz:35434.got - 2010.06.03 17:01:31.
