data_PCOD9494815
_publ_section_title
;
Structure prediction by ZEFSAII (Michael W. Deem and Ramdas Pophale) SiO2 
 PCOD9494815
Probable space group: C M M M
;
_chemical_formula_sum "Si O2"
_cell_formula_units_Z 44
_cell_length_a 30.000000
_cell_length_b 9.000000
_cell_length_c 18.000000
_cell_angle_alpha 90.000000
_cell_angle_beta 90.000000
_cell_angle_gamma 90.000000
_cell_volume 4860.000000
_symmetry_space_group_name_H-M "C M M M"
_symmetry_group_IT_number 65
_symmetry_cell_setting 'orthorhombic'
loop_
_space_group_symop_operation_xyz
x,y,z
-x,-y,z
x,-y,-z
-x,y,-z
-x,-y,-z
x,y,-z
-x,y,z
x,-y,z
1/2+x,1/2+y,z
1/2-x,1/2-y,z
1/2+x,1/2-y,-z
1/2-x,1/2+y,-z
1/2-x,1/2-y,-z
1/2+x,1/2+y,-z
1/2-x,1/2+y,z
1/2+x,1/2-y,z
loop_
_atom_site_type_symbol
_atom_site_label
_atom_site_fract_x
_atom_site_fract_y
_atom_site_fract_z
Si Si1 0.292831 0.175166 0.743306
Si Si2 0.609422 0.175205 0.209844
Si Si3 0.588895 0.675986 0.636153
Si Si4 0.500000 0.166571 0.412331
Si Si5 0.948325 0.175587 0.087965
Si Si6 0.822538 0.679636 0.581325
O O1 0.250000 0.250000 0.777151
O O2 0.337586 0.200916 0.789296
O O3 0.299485 0.230887 0.657934
O O4 0.285821 0.000000 0.738269
O O5 0.592860 0.273300 0.278554
O O6 0.584482 0.226213 0.136475
O O7 0.602256 0.000000 0.225214
O O8 0.592538 0.500000 0.628526
O O9 0.542694 0.740240 0.609367
O O10 0.628001 0.756392 0.590548
O O11 0.500000 0.150475 0.500000
O O12 0.500000 0.000000 0.378735
O O13 0.000000 0.207915 0.106937
O O14 0.940851 0.000000 0.102333
O O15 0.942896 0.199801 0.000000
O O16 0.804500 0.724084 0.500000
O O17 0.823958 0.500000 0.583491
#
# Coordination Sequence:
#
# PCOD9494815 Si02
#       6
#    16  16  16   8  16  16
#     4   9  19  34  52  76 104 137 179 225 274 323
#     4  10  21  37  56  79 109 144 180 218 262 316
#     4  11  22  34  50  73 100 133 176 224 268 314
#     4  11  23  37  51  67  94 135 178 221 271 321
#     4   9  19  36  58  86 119 148 174 211 260 310
#     4   9  18  34  52  70  99 136 172 217 275 332
#
# _framework density 9.0534979999999994
#
# number of rings (size 3 to 8) (size 9 to 14) (size 15 to 20)
#    0.000    2.273    0.000    4.636    1.273    8.000 
#    0.000    0.909    0.000    0.545    0.000    0.000 
#    0.000    0.000    0.000    0.000    0.000    0.000 
#
# Total GULP energy -245324.388079 kJ/mol
# GULP energy per Si atom -5575.554275 kJ/mol
# Density = 0.903289 g / cm^3
# Si number density = 9.053498 Si / 1000 Ang^3
#
#
#
# Elastic Constant Matrix: (Units=GPa)
#
#
# Indices 1 2 3 4 5 6 
#
# 1 91.5651 26.7966 26.2495 0.0000 0.0000 0.0000
# 2 26.7966 4.4112 20.0862 0.0000 0.0000 0.0000
# 3 26.2495 20.0862 39.6154 0.0000 0.0000 0.0000
# 4 0.0000 0.0000 0.0000 32.1899 0.0000 0.0000
# 5 0.0000 0.0000 0.0000 0.0000 -79.9254 0.0000
# 6 0.0000 0.0000 0.0000 0.0000 0.0000 24.9913
#
#
#
# Elastic Compliance Matrix: (Units=1/GPa)
#
#
# Indices 1 2 3 4 5 6 
#
# 1 0.009462 0.022106 -0.017478 0.000000 0.000000 0.000000
# 2 0.022106 -0.121571 0.046992 0.000000 0.000000 0.000000
# 3 -0.017478 0.046992 0.012998 0.000000 0.000000 0.000000
# 4 0.000000 0.000000 0.000000 0.031066 0.000000 0.000000
# 5 0.000000 0.000000 0.000000 0.000000 -0.012512 0.000000
# 6 0.000000 0.000000 0.000000 0.000000 0.000000 0.040014
#
#
# Mechanical properties :
#
#
# Convention : Reuss Voigt Hill
#
# Bulk Modulus (GPa) = 242.17925 31.31736 136.74830
# Shear Modulus (GPa) = -35.11046 -0.38489 -17.74767
#
# Velocity S-wave (km/s) = -4.40825 -0.46155 -3.13414
# Velocity P-wave (km/s) = 10.39852 4.12907 7.91133
#
# Compressibility (1/GPa) = 0.00412917
#
# Stress axis : x y z
#
# Youngs Moduli (GPa) = 105.68191 -8.22562 76.93728
#
# Poissons Ratio (x) = 0.18184 1.34474
# Poissons Ratio (y) = -2.33625 -3.61546
# Poissons Ratio (z) = 1.84715 0.38654
#
# Static dielectric constant tensor:
#      x y z
#    x 1.595520 0.000000 0.000000 
#    y 0.000000 1.602360 0.000000 
#    z 0.000000 0.000000 1.622900 
# 
# From -- ./inp_files/50406.got.cif
#   From: 2010.05.17/outbox.ucp.g08.bks.cvg/sg65_26_cif.got.tgz:50406.got - 2010.06.11 16:39:57.
