data_PCOD9494250
_publ_section_title
;
Structure prediction by ZEFSAII (Michael W. Deem and Ramdas Pophale) SiO2 
 PCOD9494250
Probable space group: C M M M
;
_chemical_formula_sum "Si O2"
_cell_formula_units_Z 64
_cell_length_a 7.171650
_cell_length_b 14.621070
_cell_length_c 23.017423
_cell_angle_alpha 90.000000
_cell_angle_beta 90.000000
_cell_angle_gamma 90.000000
_cell_volume 2413.542450
_symmetry_space_group_name_H-M "C M M M"
_symmetry_group_IT_number 65
_symmetry_cell_setting 'orthorhombic'
loop_
_space_group_symop_operation_xyz
x,y,z
-x,-y,z
x,-y,-z
-x,y,-z
-x,-y,-z
x,y,-z
-x,y,z
x,-y,z
1/2+x,1/2+y,z
1/2-x,1/2-y,z
1/2+x,1/2-y,-z
1/2-x,1/2+y,-z
1/2-x,1/2-y,-z
1/2+x,1/2+y,-z
1/2-x,1/2+y,z
1/2+x,1/2-y,z
loop_
_atom_site_type_symbol
_atom_site_label
_atom_site_fract_x
_atom_site_fract_y
_atom_site_fract_z
Si Si1 0.789341 0.891204 0.189641
Si Si2 0.220820 0.141698 0.062342
Si Si3 0.273664 0.608174 0.686855
Si Si4 0.275335 0.390466 0.562299
O O1 0.703140 0.882246 0.125859
O O2 0.707187 0.855795 0.250519
O O3 0.000000 0.852402 0.184853
O O4 0.803450 0.000000 0.198339
O O5 0.250000 0.250000 0.059502
O O6 0.000000 0.118956 0.063518
O O7 0.291095 0.105385 0.000000
O O8 0.500000 0.613984 0.688627
O O9 0.227479 0.500000 0.684472
O O10 0.209445 0.646506 0.624672
O O11 0.207397 0.354231 0.500000
O O12 0.500000 0.381728 0.562438
O O13 0.237494 0.500000 0.562061
#
# Coordination Sequence:
#
# PCOD9494250 Si02
#       4
#    16  16  16  16
#     4   8  13  21  34  52  71  90 115 148 182 212
#     4   9  17  28  41  56  74  96 120 147 179 213
#     4   7   9  13  21  35  57  82 106 135 170 203
#     4   7   8   9  14  26  47  77 108 131 155 195
#
# _framework density 26.517036999999998
#
# number of rings (size 3 to 8) (size 9 to 14) (size 15 to 20)
#    0.000    4.250    0.000    3.750    0.000    0.500 
#    0.000    2.500    0.000    0.750    0.000    3.500 
#    0.000    1.000    0.000    0.750    0.000    3.750 
#
# Total GULP energy -178238.130339 kJ/mol
# GULP energy per Si atom -5569.941573 kJ/mol
# Density = 2.645668 g / cm^3
# Si number density = 26.517037 Si / 1000 Ang^3
#
#
#
# Elastic Constant Matrix: (Units=GPa)
#
#
# Indices 1 2 3 4 5 6 
#
# 1 143.1015 -9.7168 25.8338 0.0000 0.0000 0.0000
# 2 -9.7168 76.2463 14.2103 0.0000 0.0000 0.0000
# 3 25.8338 14.2103 439.6529 0.0000 0.0000 0.0000
# 4 0.0000 0.0000 0.0000 67.0560 0.0000 0.0000
# 5 0.0000 0.0000 0.0000 0.0000 -63.1609 0.0000
# 6 0.0000 0.0000 0.0000 0.0000 0.0000 -6.3684
#
#
#
# Elastic Compliance Matrix: (Units=1/GPa)
#
#
# Indices 1 2 3 4 5 6 
#
# 1 0.007137 0.000994 -0.000451 0.000000 0.000000 0.000000
# 2 0.000994 0.013333 -0.000489 0.000000 0.000000 0.000000
# 3 -0.000451 -0.000489 0.002317 0.000000 0.000000 0.000000
# 4 0.000000 0.000000 0.000000 0.014913 0.000000 0.000000
# 5 0.000000 0.000000 0.000000 0.000000 -0.015833 0.000000
# 6 0.000000 0.000000 0.000000 0.000000 0.000000 -0.157025
#
#
# Mechanical properties :
#
#
# Convention : Reuss Voigt Hill
#
# Bulk Modulus (GPa) = 43.68179 79.96170 61.82175
# Shear Modulus (GPa) = -39.17512 41.41689 1.12088
#
# Velocity S-wave (km/s) = -3.84781 3.95637 0.65086
# Velocity P-wave (km/s) = 1.79777 7.14778 4.89177
#
# Compressibility (1/GPa) = 0.02289283
#
# Stress axis : x y z
#
# Youngs Moduli (GPa) = 140.11440 75.00062 431.61732
#
# Poissons Ratio (x) = -0.07453 0.19487
# Poissons Ratio (y) = -0.13923 0.21121
# Poissons Ratio (z) = 0.06326 0.03670
#
# Static dielectric constant tensor:
#      x y z
#    x 2.053670 0.000000 0.000000 
#    y 0.000000 2.034220 0.000000 
#    z 0.000000 0.000000 2.190240 
# 
# From -- ./inp_files/51227.got.cif
#   From: 2010.05.17/outbox.cif.g08.bks.cpg/sg65_26_cif.got.tgz:51227.got - 2010.06.03 17:01:31.
