data_PCOD9494820
_publ_section_title
;
Structure prediction by ZEFSAII (Michael W. Deem and Ramdas Pophale) SiO2 
 PCOD9494820
Probable space group: C M M M
;
_chemical_formula_sum "Si O2"
_cell_formula_units_Z 36
_cell_length_a 9.000000
_cell_length_b 18.000000
_cell_length_c 24.000000
_cell_angle_alpha 90.000000
_cell_angle_beta 90.000000
_cell_angle_gamma 90.000000
_cell_volume 3888.000000
_symmetry_space_group_name_H-M "C M M M"
_symmetry_group_IT_number 65
_symmetry_cell_setting 'orthorhombic'
loop_
_space_group_symop_operation_xyz
x,y,z
-x,-y,z
x,-y,-z
-x,y,-z
-x,-y,-z
x,y,-z
-x,y,z
x,-y,z
1/2+x,1/2+y,z
1/2-x,1/2-y,z
1/2+x,1/2-y,-z
1/2-x,1/2+y,-z
1/2-x,1/2-y,-z
1/2+x,1/2+y,-z
1/2-x,1/2+y,z
1/2+x,1/2-y,z
loop_
_atom_site_type_symbol
_atom_site_label
_atom_site_fract_x
_atom_site_fract_y
_atom_site_fract_z
Si Si1 0.678171 0.168258 0.436933
Si Si2 0.679670 0.667733 0.892255
Si Si3 0.322916 0.089271 0.000000
Si Si4 0.673109 0.589484 0.331964
Si Si5 0.175842 0.410367 0.785329
O O1 0.708764 0.139193 0.500000
O O2 0.500000 0.172678 0.430622
O O3 0.750000 0.250000 0.434036
O O4 0.748173 0.121317 0.386860
O O5 0.500000 0.670298 0.894059
O O6 0.750000 0.750000 0.894036
O O7 0.744874 0.623144 0.945292
O O8 0.736631 0.628222 0.835728
O O9 0.500000 0.107105 0.000000
O O10 0.308689 0.000000 0.000000
O O11 0.500000 0.612535 0.330054
O O12 0.677881 0.500000 0.334366
O O13 0.756546 0.611653 0.274787
O O14 0.190519 0.500000 0.790480
O O15 0.000000 0.392537 0.788069
#
# Coordination Sequence:
#
# PCOD9494820 Si02
#       5
#    16  16   8  16  16
#     4  10  21  37  57  81 111 148 190 236 287 344
#     4  12  25  41  62  89 122 156 195 241 288 339
#     4  11  24  43  66  91 121 157 196 237 286 343
#     4  10  21  37  58  85 116 150 190 236 285 339
#     4  10  21  39  62  87 117 152 191 236 287 343
#
# _framework density 9.2592590000000001
#
# number of rings (size 3 to 8) (size 9 to 14) (size 15 to 20)
#    0.000    1.444    0.000    5.333    0.000    8.889 
#    0.000    6.667    0.000    0.000    0.000    0.000 
#    0.000    0.000    0.000    0.000    0.000    0.000 
#
# Total GULP energy -201250.721766 kJ/mol
# GULP energy per Si atom -5590.297827 kJ/mol
# Density = 0.923818 g / cm^3
# Si number density = 9.259259 Si / 1000 Ang^3
#
#
#
# Elastic Constant Matrix: (Units=GPa)
#
#
# Indices 1 2 3 4 5 6 
#
# 1 199.3826 61.6927 109.5178 0.0000 0.0000 0.0000
# 2 61.6927 60.1155 66.3098 0.0000 0.0000 0.0000
# 3 109.5178 66.3098 207.5247 0.0000 0.0000 0.0000
# 4 0.0000 0.0000 0.0000 12.0160 0.0000 0.0000
# 5 0.0000 0.0000 0.0000 0.0000 42.2948 0.0000
# 6 0.0000 0.0000 0.0000 0.0000 0.0000 33.3336
#
#
#
# Elastic Compliance Matrix: (Units=1/GPa)
#
#
# Indices 1 2 3 4 5 6 
#
# 1 0.008112 -0.005564 -0.002503 0.000000 0.000000 0.000000
# 2 -0.005564 0.029505 -0.006491 0.000000 0.000000 0.000000
# 3 -0.002503 -0.006491 0.008214 0.000000 0.000000 0.000000
# 4 0.000000 0.000000 0.000000 0.083222 0.000000 0.000000
# 5 0.000000 0.000000 0.000000 0.000000 0.023644 0.000000
# 6 0.000000 0.000000 0.000000 0.000000 0.000000 0.030000
#
#
# Mechanical properties :
#
#
# Convention : Reuss Voigt Hill
#
# Bulk Modulus (GPa) = 59.83040 104.67371 82.25206
# Shear Modulus (GPa) = 23.00081 32.82905 27.91493
#
# Velocity S-wave (km/s) = 3.52809 4.21499 3.88675
# Velocity P-wave (km/s) = 6.99822 8.96297 8.04083
#
# Compressibility (1/GPa) = 0.01671391
#
# Stress axis : x y z
#
# Youngs Moduli (GPa) = 123.27491 33.89313 121.74466
#
# Poissons Ratio (x) = 0.18857 0.30475
# Poissons Ratio (y) = 0.68586 0.79029
# Poissons Ratio (z) = 0.30858 0.22001
#
# Static dielectric constant tensor:
#      x y z
#    x 1.620500 0.000000 0.000000 
#    y 0.000000 1.624450 0.000000 
#    z 0.000000 0.000000 1.615800 
# 
# From -- ./inp_files/67001.got.cif
#   From: 2010.05.17/outbox.ucp.g08.bks.cvg/sg65_34_cif.got.tgz:67001.got - 2010.06.11 16:39:57.
