data_PCOD9494363
_publ_section_title
;
Structure prediction by ZEFSAII (Michael W. Deem and Ramdas Pophale) SiO2 
 PCOD9494363
Probable space group: C M M M
;
_chemical_formula_sum "Si O2"
_cell_formula_units_Z 128
_cell_length_a 28.570593
_cell_length_b 29.727675
_cell_length_c 7.439595
_cell_angle_alpha 90.000000
_cell_angle_beta 90.000000
_cell_angle_gamma 90.000000
_cell_volume 6318.725555
_symmetry_space_group_name_H-M "C M M M"
_symmetry_group_IT_number 65
_symmetry_cell_setting 'orthorhombic'
loop_
_space_group_symop_operation_xyz
x,y,z
-x,-y,z
x,-y,-z
-x,y,-z
-x,-y,-z
x,y,-z
-x,y,z
x,-y,z
1/2+x,1/2+y,z
1/2-x,1/2-y,z
1/2+x,1/2-y,-z
1/2-x,1/2+y,-z
1/2-x,1/2-y,-z
1/2+x,1/2+y,-z
1/2-x,1/2+y,z
1/2+x,1/2-y,z
loop_
_atom_site_type_symbol
_atom_site_label
_atom_site_fract_x
_atom_site_fract_y
_atom_site_fract_z
Si Si1 0.351678 0.860355 0.285454
Si Si2 0.091846 0.050109 0.706472
Si Si3 0.052770 0.316287 0.719213
Si Si4 0.796969 0.448864 0.215226
Si Si5 0.298501 0.772210 0.719366
Si Si6 0.947689 0.141075 0.719920
Si Si7 0.894307 0.773221 0.718501
Si Si8 0.695940 0.445569 0.795001
O O1 0.353296 0.854942 0.500000
O O2 0.403999 0.847876 0.220761
O O3 0.335055 0.910792 0.249136
O O4 0.314064 0.822608 0.221788
O O5 0.076536 0.046131 0.500000
O O6 0.063560 0.091198 0.787423
O O7 0.146545 0.064252 0.705350
O O8 0.088288 0.000000 0.787399
O O9 0.051755 0.317843 0.500000
O O10 0.069358 0.266039 0.769978
O O11 0.000000 0.326441 0.780536
O O12 0.806916 0.500000 0.279594
O O13 0.746063 0.432076 0.284680
O O14 0.791361 0.452059 0.000000
O O15 0.296477 0.773163 0.500000
O O16 0.250000 0.750000 0.780973
O O17 0.342527 0.741386 0.773172
O O18 0.945335 0.139760 0.500000
O O19 0.911160 0.178408 0.780933
O O20 0.000000 0.154852 0.767881
O O21 0.894172 0.773625 0.500000
O O22 0.699112 0.500000 0.797441
O O23 0.692255 0.429337 0.000000
#
# Coordination Sequence:
#
# PCOD9494363 Si02
#       8
#    16  16  16  16  16  16  16  16
#     4   9  17  27  43  69  92 113 146 182 216 256
#     4   9  17  27  39  59  86 111 137 176 223 260
#     4   8  13  23  40  61  86 112 138 176 221 255
#     4   9  18  32  48  65  88 119 148 174 211 257
#     4   8  14  24  37  58  91 121 140 169 219 268
#     4   9  16  24  35  54  81 113 147 179 213 256
#     4   8  13  21  34  54  80 111 145 175 206 250
#     4   8  15  29  46  60  76 104 141 173 202 243
#
# _framework density 20.257249999999999
#
# number of rings (size 3 to 8) (size 9 to 14) (size 15 to 20)
#    0.000    3.500    0.000    2.625    0.000    3.500 
#    0.000    5.000    0.000    1.500    0.000    7.875 
#    0.000    4.000    0.000    0.000    0.000    0.000 
#
# Total GULP energy -356524.786117 kJ/mol
# GULP energy per Si atom -5570.699783 kJ/mol
# Density = 2.021114 g / cm^3
# Si number density = 20.257250 Si / 1000 Ang^3
#
#
#
# Elastic Constant Matrix: (Units=GPa)
#
#
# Indices 1 2 3 4 5 6 
#
# 1 101.8826 54.3404 -2.6467 0.0000 0.0000 0.0000
# 2 54.3404 110.0372 -1.1639 0.0000 0.0000 0.0000
# 3 -2.6467 -1.1639 59.3380 0.0000 0.0000 0.0000
# 4 0.0000 0.0000 0.0000 261.4718 0.0000 0.0000
# 5 0.0000 0.0000 0.0000 0.0000 16.4068 0.0000
# 6 0.0000 0.0000 0.0000 0.0000 0.0000 24.0272
#
#
#
# Elastic Compliance Matrix: (Units=1/GPa)
#
#
# Indices 1 2 3 4 5 6 
#
# 1 0.013338 -0.006582 0.000466 0.000000 0.000000 0.000000
# 2 -0.006582 0.012338 -0.000052 0.000000 0.000000 0.000000
# 3 0.000466 -0.000052 0.016872 0.000000 0.000000 0.000000
# 4 0.000000 0.000000 0.000000 0.003825 0.000000 0.000000
# 5 0.000000 0.000000 0.000000 0.000000 0.060950 0.000000
# 6 0.000000 0.000000 0.000000 0.000000 0.000000 0.041620
#
#
# Mechanical properties :
#
#
# Convention : Reuss Voigt Hill
#
# Bulk Modulus (GPa) = 33.09860 41.36858 37.23359
# Shear Modulus (GPa) = 29.18035 75.09635 52.13835
#
# Velocity S-wave (km/s) = 3.79949 6.09523 5.07878
# Velocity P-wave (km/s) = 5.96849 8.36670 7.26720
#
# Compressibility (1/GPa) = 0.03021276
#
# Stress axis : x y z
#
# Youngs Moduli (GPa) = 74.97503 81.05307 59.26844
#
# Poissons Ratio (x) = 0.53347 -0.02761
# Poissons Ratio (y) = 0.49347 0.00306
# Poissons Ratio (z) = -0.03492 0.00418
#
# Static dielectric constant tensor:
#      x y z
#    x 1.724240 0.000000 0.000000 
#    y 0.000000 1.711120 0.000000 
#    z 0.000000 0.000000 1.787640 
# 
# From -- ./inp_files/32944.got.cif
#   From: 2010.05.17/outbox.cif.g08.bks.cpg/sg65_17_cif.got.tgz:32944.got - 2010.06.03 17:01:31.
