data_PCOD9494371
_publ_section_title
;
Structure prediction by ZEFSAII (Michael W. Deem and Ramdas Pophale) SiO2 
 PCOD9494371
Probable space group: C M M M
;
_chemical_formula_sum "Si O2"
_cell_formula_units_Z 64
_cell_length_a 9.890704
_cell_length_b 43.737640
_cell_length_c 7.447932
_cell_angle_alpha 90.000000
_cell_angle_beta 90.000000
_cell_angle_gamma 90.000000
_cell_volume 3221.945971
_symmetry_space_group_name_H-M "C M M M"
_symmetry_group_IT_number 65
_symmetry_cell_setting 'orthorhombic'
loop_
_space_group_symop_operation_xyz
x,y,z
-x,-y,z
x,-y,-z
-x,y,-z
-x,-y,-z
x,y,-z
-x,y,z
x,-y,z
1/2+x,1/2+y,z
1/2-x,1/2-y,z
1/2+x,1/2-y,-z
1/2-x,1/2+y,-z
1/2-x,1/2-y,-z
1/2+x,1/2+y,-z
1/2-x,1/2+y,z
1/2+x,1/2-y,z
loop_
_atom_site_type_symbol
_atom_site_label
_atom_site_fract_x
_atom_site_fract_y
_atom_site_fract_z
Si Si1 0.153799 0.911630 0.712837
Si Si2 0.655636 0.965624 0.719176
Si Si3 0.842266 0.777912 0.780830
Si Si4 0.656097 0.344765 0.784571
O O1 0.143039 0.916462 0.500000
O O2 0.246659 0.938821 0.784026
O O3 0.215400 0.877650 0.735735
O O4 0.000000 0.911921 0.786468
O O5 0.656459 0.965152 0.500000
O O6 0.500000 0.960815 0.773769
O O7 0.696915 0.000000 0.772764
O O8 0.750000 0.750000 0.718676
O O9 0.790561 0.811679 0.724606
O O10 0.000000 0.774773 0.728626
O O11 0.840781 0.777428 0.000000
O O12 0.500000 0.345735 0.720943
O O13 0.654384 0.343873 0.000000
#
# Coordination Sequence:
#
# PCOD9494371 Si02
#       4
#    16  16  16  16
#     4   9  16  25  40  62  81  97 125 164 195 219
#     4   8  14  25  40  57  78 104 130 155 189 232
#     4   8  13  22  37  55  73  95 125 158 188 219
#     4   8  14  25  40  57  79 106 129 151 189 237
#
# _framework density 19.863772000000001
#
# number of rings (size 3 to 8) (size 9 to 14) (size 15 to 20)
#    0.000    3.750    0.000    2.250    0.000    0.500 
#    0.000    3.750    0.000    3.750    0.000    5.250 
#    0.000    0.000    0.000    0.000    0.000    0.000 
#
# Total GULP energy -178135.493354 kJ/mol
# GULP energy per Si atom -5566.734167 kJ/mol
# Density = 1.981856 g / cm^3
# Si number density = 19.863772 Si / 1000 Ang^3
#
#
#
# Elastic Constant Matrix: (Units=GPa)
#
#
# Indices 1 2 3 4 5 6 
#
# 1 62.3763 99.2104 3.3224 0.0000 0.0000 0.0000
# 2 99.2104 251.8762 4.5317 0.0000 0.0000 0.0000
# 3 3.3224 4.5317 57.5188 0.0000 0.0000 0.0000
# 4 0.0000 0.0000 0.0000 16.4740 0.0000 0.0000
# 5 0.0000 0.0000 0.0000 0.0000 -3.7917 0.0000
# 6 0.0000 0.0000 0.0000 0.0000 0.0000 34.5309
#
#
#
# Elastic Compliance Matrix: (Units=1/GPa)
#
#
# Indices 1 2 3 4 5 6 
#
# 1 0.042997 -0.016915 -0.001151 0.000000 0.000000 0.000000
# 2 -0.016915 0.010630 0.000140 0.000000 0.000000 0.000000
# 3 -0.001151 0.000140 0.017441 0.000000 0.000000 0.000000
# 4 0.000000 0.000000 0.000000 0.060702 0.000000 0.000000
# 5 0.000000 0.000000 0.000000 0.000000 -0.263735 0.000000
# 6 0.000000 0.000000 0.000000 0.000000 0.000000 0.028960
#
#
# Mechanical properties :
#
#
# Convention : Reuss Voigt Hill
#
# Bulk Modulus (GPa) = 28.39677 65.10003 46.74840
# Shear Modulus (GPa) = -90.22958 27.08977 -31.56991
#
# Velocity S-wave (km/s) = -6.74706 3.69694 -3.99095
# Velocity P-wave (km/s) = 6.80957 7.14616 1.53253
#
# Compressibility (1/GPa) = 0.03521527
#
# Stress axis : x y z
#
# Youngs Moduli (GPa) = 23.25757 94.07063 57.33579
#
# Poissons Ratio (x) = 1.59121 0.06599
# Poissons Ratio (y) = 0.39340 -0.00800
# Poissons Ratio (z) = 0.02677 -0.01312
#
# Static dielectric constant tensor:
#      x y z
#    x 1.671350 0.000000 0.000000 
#    y 0.000000 1.734380 0.000000 
#    z 0.000000 0.000000 1.779270 
# 
# From -- ./inp_files/22196.got.cif
#   From: 2010.05.17/outbox.cif.g08.bks.cpg/sg65_12_cif.got.tgz:22196.got - 2010.06.03 17:01:31.
