data_PCOD9494918
_publ_section_title
;
Structure prediction by ZEFSAII (Michael W. Deem and Ramdas Pophale) SiO2 
 PCOD9494918
Probable space group: C C C M
;
_chemical_formula_sum "Si O2"
_cell_formula_units_Z 64
_cell_length_a 9.570077
_cell_length_b 21.675235
_cell_length_c 14.485645
_cell_angle_alpha 90.000000
_cell_angle_beta 90.000000
_cell_angle_gamma 90.000000
_cell_volume 3004.810475
_symmetry_space_group_name_H-M "C C C M"
_symmetry_group_IT_number 66
_symmetry_cell_setting 'orthorhombic'
loop_
_space_group_symop_operation_xyz
x,y,z
-x,-y,z
x,-y,1/2-z
-x,y,1/2-z
-x,-y,-z
x,y,-z
-x,y,1/2+z
x,-y,1/2+z
1/2+x,1/2+y,z
1/2-x,1/2-y,z
1/2+x,1/2-y,1/2-z
1/2-x,1/2+y,1/2-z
1/2-x,1/2-y,-z
1/2+x,1/2+y,-z
1/2-x,1/2+y,1/2+z
1/2+x,1/2-y,1/2+z
loop_
_atom_site_type_symbol
_atom_site_label
_atom_site_fract_x
_atom_site_fract_y
_atom_site_fract_z
Si Si1 0.054144 0.753908 0.108112
Si Si2 0.763408 0.154335 0.803033
Si Si3 0.440080 0.934796 0.892757
Si Si4 0.690199 0.166546 0.603508
O O1 0.100392 0.820460 0.144651
O O2 0.145556 0.705297 0.167338
O O3 0.895778 0.730666 0.114202
O O4 0.091147 0.747803 0.000000
O O5 0.691466 0.091656 0.837147
O O6 0.780500 0.154688 0.693674
O O7 0.566447 0.885194 0.891141
O O8 0.500000 0.000000 0.860520
O O9 0.397864 0.941109 0.000000
O O10 0.751195 0.163067 0.500000
#
# Coordination Sequence:
#
# PCOD9494918 Si02
#       4
#    16  16  16  16
#     4   9  16  27  42  59  78 107 148 183 210 251
#     4  10  16  25  42  59  79 111 146 175 211 252
#     4   9  16  25  38  58  82 108 139 173 209 249
#     4   9  18  29  40  57  84 117 149 179 212 254
#
# _framework density 21.299178999999999
#
# number of rings (size 3 to 8) (size 9 to 14) (size 15 to 20)
#    0.000    2.750    0.000    7.500    0.000    2.000 
#    0.000    2.500    0.000    4.500    0.000    0.000 
#    0.000    0.000    0.000  162.000    0.000 1509.500 
#
# Total GULP energy -178693.385431 kJ/mol
# GULP energy per Si atom -5584.168295 kJ/mol
# Density = 2.125070 g / cm^3
# Si number density = 21.299179 Si / 1000 Ang^3
#
#
#
# Elastic Constant Matrix: (Units=GPa)
#
#
# Indices 1 2 3 4 5 6 
#
# 1 61.6068 27.9493 25.8292 0.0000 0.0000 0.0000
# 2 27.9493 118.5687 35.3784 0.0000 0.0000 0.0000
# 3 25.8292 35.3784 164.8534 0.0000 0.0000 0.0000
# 4 0.0000 0.0000 0.0000 16.1688 0.0000 0.0000
# 5 0.0000 0.0000 0.0000 0.0000 15.7247 0.0000
# 6 0.0000 0.0000 0.0000 0.0000 0.0000 33.0642
#
#
#
# Elastic Compliance Matrix: (Units=1/GPa)
#
#
# Indices 1 2 3 4 5 6 
#
# 1 0.018855 -0.003807 -0.002137 0.000000 0.000000 0.000000
# 2 -0.003807 0.009780 -0.001502 0.000000 0.000000 0.000000
# 3 -0.002137 -0.001502 0.006723 0.000000 0.000000 0.000000
# 4 0.000000 0.000000 0.000000 0.061847 0.000000 0.000000
# 5 0.000000 0.000000 0.000000 0.000000 0.063594 0.000000
# 6 0.000000 0.000000 0.000000 0.000000 0.000000 0.030244
#
#
# Mechanical properties :
#
#
# Convention : Reuss Voigt Hill
#
# Bulk Modulus (GPa) = 48.86362 58.14918 53.50640
# Shear Modulus (GPa) = 23.50087 30.04970 26.77528
#
# Velocity S-wave (km/s) = 3.32530 3.76019 3.54941
# Velocity P-wave (km/s) = 6.14287 6.79797 6.47871
#
# Compressibility (1/GPa) = 0.02046512
#
# Stress axis : x y z
#
# Youngs Moduli (GPa) = 53.03609 102.25433 148.73754
#
# Poissons Ratio (x) = 0.38927 0.31789
# Poissons Ratio (y) = 0.20190 0.22345
# Poissons Ratio (z) = 0.11335 0.15361
#
# Static dielectric constant tensor:
#      x y z
#    x 1.830690 0.000000 0.000000 
#    y 0.000000 1.805150 0.000000 
#    z 0.000000 0.000000 1.783660 
# 
# From -- ./inp_files/25994.got.cif
#   From: 2010.05.17/outbox.cif.g08.bks.cpg/sg66_13_cif.got.tgz:25994.got - 2010.06.03 17:51:23.
