data_PCOD9494412
_publ_section_title
;
Structure prediction by ZEFSAII (Michael W. Deem and Ramdas Pophale) SiO2 
 PCOD9494412
Probable space group: C M M M
;
_chemical_formula_sum "Si O2"
_cell_formula_units_Z 64
_cell_length_a 7.538657
_cell_length_b 35.161143
_cell_length_c 11.110966
_cell_angle_alpha 90.000000
_cell_angle_beta 90.000000
_cell_angle_gamma 90.000000
_cell_volume 2945.159278
_symmetry_space_group_name_H-M "C M M M"
_symmetry_group_IT_number 65
_symmetry_cell_setting 'orthorhombic'
loop_
_space_group_symop_operation_xyz
x,y,z
-x,-y,z
x,-y,-z
-x,y,-z
-x,-y,-z
x,y,-z
-x,y,z
x,-y,z
1/2+x,1/2+y,z
1/2-x,1/2-y,z
1/2+x,1/2-y,-z
1/2-x,1/2+y,-z
1/2-x,1/2-y,-z
1/2+x,1/2+y,-z
1/2-x,1/2+y,z
1/2+x,1/2-y,z
loop_
_atom_site_type_symbol
_atom_site_label
_atom_site_fract_x
_atom_site_fract_y
_atom_site_fract_z
Si Si1 0.717349 0.129492 0.869523
Si Si2 0.699951 0.500000 0.355226
Si Si3 0.288540 0.205023 0.500000
Si Si4 0.287573 0.794327 0.237411
Si Si5 0.705856 0.084997 0.636856
O O1 0.500000 0.127408 0.868506
O O2 0.769348 0.173765 0.855761
O O3 0.781600 0.107966 0.749844
O O4 0.775131 0.114688 0.000000
O O5 0.500000 0.500000 0.307394
O O6 0.693045 0.500000 0.500000
O O7 0.786965 0.540401 0.327691
O O8 0.500000 0.197973 0.500000
O O9 0.250000 0.250000 0.500000
O O10 0.218870 0.192915 0.630002
O O11 0.500000 0.796361 0.243920
O O12 0.250000 0.750000 0.213851
O O13 0.780843 0.089663 0.500000
O O14 0.500000 0.096444 0.627150
#
# Coordination Sequence:
#
# PCOD9494412 Si02
#       5
#    16   8   8  16  16
#     4   9  18  31  47  70  99 127 158 200 245 283
#     4   9  17  31  52  77 104 128 152 189 238 286
#     4   8  14  24  40  62  86 111 144 189 235 276
#     4   9  17  29  46  66  91 123 160 199 240 283
#     4   9  17  30  52  77  97 122 160 199 232 276
#
# _framework density 21.730574000000001
#
# number of rings (size 3 to 8) (size 9 to 14) (size 15 to 20)
#    0.000    3.125    0.000    0.375    1.750    2.000 
#    0.000    1.875    0.000    6.000    0.000    0.000 
#    0.000    0.000    0.000    0.000    0.000    0.000 
#
# Total GULP energy -178179.554712 kJ/mol
# GULP energy per Si atom -5568.111085 kJ/mol
# Density = 2.168111 g / cm^3
# Si number density = 21.730574 Si / 1000 Ang^3
#
#
#
# Elastic Constant Matrix: (Units=GPa)
#
#
# Indices 1 2 3 4 5 6 
#
# 1 52.8433 -4.0904 8.3310 0.0000 0.0000 0.0000
# 2 -4.0904 105.3161 81.0433 0.0000 0.0000 0.0000
# 3 8.3310 81.0433 162.9113 0.0000 0.0000 0.0000
# 4 0.0000 0.0000 0.0000 11.9669 0.0000 0.0000
# 5 0.0000 0.0000 0.0000 0.0000 -1.8762 0.0000
# 6 0.0000 0.0000 0.0000 0.0000 0.0000 7.0597
#
#
#
# Elastic Compliance Matrix: (Units=1/GPa)
#
#
# Indices 1 2 3 4 5 6 
#
# 1 0.019465 0.002466 -0.002222 0.000000 0.000000 0.000000
# 2 0.002466 0.015697 -0.007935 0.000000 0.000000 0.000000
# 3 -0.002222 -0.007935 0.010199 0.000000 0.000000 0.000000
# 4 0.000000 0.000000 0.000000 0.083564 0.000000 0.000000
# 5 0.000000 0.000000 0.000000 0.000000 -0.533004 0.000000
# 6 0.000000 0.000000 0.000000 0.000000 0.000000 0.141649
#
#
# Mechanical properties :
#
#
# Convention : Reuss Voigt Hill
#
# Bulk Modulus (GPa) = 33.35626 54.62650 43.99138
# Shear Modulus (GPa) = -21.09220 19.14921 -0.97150
#
# Velocity S-wave (km/s) = -3.11886 2.97174 -0.66935
# Velocity P-wave (km/s) = 1.55355 6.08010 4.43741
#
# Compressibility (1/GPa) = 0.02997938
#
# Stress axis : x y z
#
# Youngs Moduli (GPa) = 51.37400 63.70586 98.04558
#
# Poissons Ratio (x) = -0.15710 0.21788
# Poissons Ratio (y) = -0.12669 0.77799
# Poissons Ratio (z) = 0.11416 0.50550
#
# Static dielectric constant tensor:
#      x y z
#    x 1.824770 0.000000 0.000000 
#    y 0.000000 1.787290 0.000000 
#    z 0.000000 0.000000 1.825120 
# 
# From -- ./inp_files/21010.got.cif
#   From: 2010.05.17/outbox.cif.g08.bks.cpg/sg65_11_cif.got.tgz:21010.got - 2010.06.03 17:01:31.
