data_PCOD9494454
_publ_section_title
;
Structure prediction by ZEFSAII (Michael W. Deem and Ramdas Pophale) SiO2 
 PCOD9494454
Probable space group: C M M M
;
_chemical_formula_sum "Si O2"
_cell_formula_units_Z 80
_cell_length_a 19.867860
_cell_length_b 27.177139
_cell_length_c 7.574435
_cell_angle_alpha 90.000000
_cell_angle_beta 90.000000
_cell_angle_gamma 90.000000
_cell_volume 4089.828243
_symmetry_space_group_name_H-M "C M M M"
_symmetry_group_IT_number 65
_symmetry_cell_setting 'orthorhombic'
loop_
_space_group_symop_operation_xyz
x,y,z
-x,-y,z
x,-y,-z
-x,y,-z
-x,-y,-z
x,y,-z
-x,y,z
x,-y,z
1/2+x,1/2+y,z
1/2-x,1/2-y,z
1/2+x,1/2-y,-z
1/2-x,1/2+y,-z
1/2-x,1/2-y,-z
1/2+x,1/2+y,-z
1/2-x,1/2+y,z
1/2+x,1/2-y,z
loop_
_atom_site_type_symbol
_atom_site_label
_atom_site_fract_x
_atom_site_fract_y
_atom_site_fract_z
Si Si1 0.922077 0.751492 0.212096
Si Si2 0.421420 0.144028 0.215784
Si Si3 0.170364 0.555136 0.788845
Si Si4 0.076748 0.141047 0.710056
Si Si5 0.673421 0.555380 0.287139
O O1 0.895431 0.698286 0.271583
O O2 0.893038 0.804310 0.263417
O O3 0.000000 0.752780 0.273190
O O4 0.922315 0.750538 0.000000
O O5 0.500000 0.139294 0.265794
O O6 0.376891 0.098633 0.279819
O O7 0.420047 0.143582 0.000000
O O8 0.156059 0.500000 0.719489
O O9 0.248884 0.565714 0.756716
O O10 0.160476 0.553345 0.000000
O O11 0.071793 0.134074 0.500000
O O12 0.123681 0.097580 0.780481
O O13 0.000000 0.139737 0.781704
O O14 0.668434 0.554612 0.500000
O O15 0.657446 0.500000 0.223571
#
# Coordination Sequence:
#
# PCOD9494454 Si02
#       5
#    16  16  16  16  16
#     4   8  14  26  44  64  87 115 142 170 211 259
#     4   8  14  26  45  68  91 114 143 178 213 251
#     4   9  17  29  46  67  89 114 145 180 215 251
#     4   9  17  29  46  67  87 108 141 183 218 251
#     4   9  18  32  47  62  85 117 145 172 215 265
#
# _framework density 19.560724
#
# number of rings (size 3 to 8) (size 9 to 14) (size 15 to 20)
#    0.000    3.400    0.000    1.200    0.000    1.600 
#    0.000    6.000    0.000    7.800    0.000    8.400 
#    0.000    0.000    0.000    0.000    0.000    0.000 
#
# Total GULP energy -222747.647373 kJ/mol
# GULP energy per Si atom -5568.691184 kJ/mol
# Density = 1.951620 g / cm^3
# Si number density = 19.560724 Si / 1000 Ang^3
#
#
#
# Elastic Constant Matrix: (Units=GPa)
#
#
# Indices 1 2 3 4 5 6 
#
# 1 72.2839 111.7738 0.4968 0.0000 0.0000 0.0000
# 2 111.7738 230.8490 6.8128 0.0000 0.0000 0.0000
# 3 0.4968 6.8128 42.1609 0.0000 0.0000 0.0000
# 4 0.0000 0.0000 0.0000 22.8696 0.0000 0.0000
# 5 0.0000 0.0000 0.0000 0.0000 40.6953 0.0000
# 6 0.0000 0.0000 0.0000 0.0000 0.0000 -140.0220
#
#
#
# Elastic Compliance Matrix: (Units=1/GPa)
#
#
# Indices 1 2 3 4 5 6 
#
# 1 0.055625 -0.027042 0.003714 0.000000 0.000000 0.000000
# 2 -0.027042 0.017499 -0.002509 0.000000 0.000000 0.000000
# 3 0.003714 -0.002509 0.024080 0.000000 0.000000 0.000000
# 4 0.000000 0.000000 0.000000 0.043726 0.000000 0.000000
# 5 0.000000 0.000000 0.000000 0.000000 0.024573 0.000000
# 6 0.000000 0.000000 0.000000 0.000000 0.000000 -0.007142
#
#
# Mechanical properties :
#
#
# Convention : Reuss Voigt Hill
#
# Bulk Modulus (GPa) = 21.96337 64.82897 43.39617
# Shear Modulus (GPa) = 22.20119 -0.21074 10.99523
#
# Velocity S-wave (km/s) = 3.37261 -0.32859 2.37345
# Velocity P-wave (km/s) = 5.13991 5.75069 5.45386
#
# Compressibility (1/GPa) = 0.04553036
#
# Stress axis : x y z
#
# Youngs Moduli (GPa) = 17.97755 57.14470 41.52764
#
# Poissons Ratio (x) = 1.54533 -0.15425
# Poissons Ratio (y) = 0.48616 0.10420
# Poissons Ratio (z) = -0.06677 0.14338
#
# Static dielectric constant tensor:
#      x y z
#    x 1.645230 0.000000 0.000000 
#    y 0.000000 1.730700 0.000000 
#    z 0.000000 0.000000 1.749050 
# 
# From -- ./inp_files/9589.got.cif
#   From: 2010.05.17/outbox.cif.g08.bks.cpg/sg65_5_cif.got.tgz:9589.got - 2010.06.03 17:01:31.
