data_PCOD9494554
_publ_section_title
;
Structure prediction by ZEFSAII (Michael W. Deem and Ramdas Pophale) SiO2 
 PCOD9494554
Probable space group: C M M M
;
_chemical_formula_sum "Si O2"
_cell_formula_units_Z 36
_cell_length_a 18.000000
_cell_length_b 21.000000
_cell_length_c 12.000000
_cell_angle_alpha 90.000000
_cell_angle_beta 90.000000
_cell_angle_gamma 90.000000
_cell_volume 4536.000000
_symmetry_space_group_name_H-M "C M M M"
_symmetry_group_IT_number 65
_symmetry_cell_setting 'orthorhombic'
loop_
_space_group_symop_operation_xyz
x,y,z
-x,-y,z
x,-y,-z
-x,y,-z
-x,-y,-z
x,y,-z
-x,y,z
x,-y,z
1/2+x,1/2+y,z
1/2-x,1/2-y,z
1/2+x,1/2-y,-z
1/2-x,1/2+y,-z
1/2-x,1/2-y,-z
1/2+x,1/2+y,-z
1/2-x,1/2+y,z
1/2+x,1/2-y,z
loop_
_atom_site_type_symbol
_atom_site_label
_atom_site_fract_x
_atom_site_fract_y
_atom_site_fract_z
Si Si1 0.831615 0.716805 0.000000
Si Si2 0.586734 0.747879 0.369862
Si Si3 0.797449 0.683755 0.763334
Si Si4 0.411664 0.650960 0.000000
Si Si5 0.089117 0.000000 0.629023
Si Si6 0.354143 0.623183 0.243126
O O1 0.750000 0.750000 0.000000
O O2 0.834020 0.678580 0.885233
O O3 0.890380 0.774101 0.000000
O O4 0.600615 0.734536 0.500000
O O5 0.500000 0.762055 0.354852
O O6 0.639291 0.804643 0.327285
O O7 0.607559 0.685521 0.298007
O O8 0.750000 0.750000 0.763219
O O9 0.734511 0.631545 0.745006
O O10 0.376314 0.623021 0.112941
O O11 0.500000 0.641986 0.000000
O O12 0.117512 0.937970 0.692602
O O13 0.112934 0.000000 0.500000
O O14 0.000000 0.000000 0.631135
#
# Coordination Sequence:
#
# PCOD9494554 Si02
#       6
#     8  16  16   8   8  16
#     4  10  14  30  46  70  98 125 151 190 247 302
#     4  10  19  30  46  71 100 126 159 205 254 301
#     4   9  17  29  49  69  95 125 159 198 249 300
#     4  12  20  29  51  76 102 132 162 201 250 300
#     4  11  24  39  51  65  94 137 181 216 243 278
#     4  11  21  34  49  70  97 133 170 207 243 291
#
# _framework density 7.9365079999999999
#
# number of rings (size 3 to 8) (size 9 to 14) (size 15 to 20)
#    0.000    1.667    6.667    2.667    0.000    7.111 
#    0.000    1.111    0.000    0.000    0.000    0.778 
#    0.000    2.667    0.000    5.222    0.000    0.667 
#
# Total GULP energy -200666.300649 kJ/mol
# GULP energy per Si atom -5574.063907 kJ/mol
# Density = 0.791844 g / cm^3
# Si number density = 7.936508 Si / 1000 Ang^3
#
#
#
# Elastic Constant Matrix: (Units=GPa)
#
#
# Indices 1 2 3 4 5 6 
#
# 1 77.9192 40.9672 63.8811 0.0000 0.0000 0.0000
# 2 40.9672 48.4953 36.2899 0.0000 0.0000 0.0000
# 3 63.8811 36.2899 137.5085 0.0000 0.0000 0.0000
# 4 0.0000 0.0000 0.0000 3.6951 0.0000 0.0000
# 5 0.0000 0.0000 0.0000 0.0000 22.8580 0.0000
# 6 0.0000 0.0000 0.0000 0.0000 0.0000 20.6608
#
#
#
# Elastic Compliance Matrix: (Units=1/GPa)
#
#
# Indices 1 2 3 4 5 6 
#
# 1 0.030023 -0.018598 -0.009039 0.000000 0.000000 0.000000
# 2 -0.018598 0.037216 -0.001182 0.000000 0.000000 0.000000
# 3 -0.009039 -0.001182 0.011783 0.000000 0.000000 0.000000
# 4 0.000000 0.000000 0.000000 0.270632 0.000000 0.000000
# 5 0.000000 0.000000 0.000000 0.000000 0.043748 0.000000
# 6 0.000000 0.000000 0.000000 0.000000 0.000000 0.048401
#
#
# Mechanical properties :
#
#
# Convention : Reuss Voigt Hill
#
# Bulk Modulus (GPa) = 46.76365 60.68883 53.72624
# Shear Modulus (GPa) = 9.87032 17.62842 13.74937
#
# Velocity S-wave (km/s) = 2.49636 3.33617 2.94634
# Velocity P-wave (km/s) = 6.15095 7.29088 6.74504
#
# Compressibility (1/GPa) = 0.02138413
#
# Stress axis : x y z
#
# Youngs Moduli (GPa) = 33.30818 26.87025 84.86520
#
# Poissons Ratio (x) = 0.49973 0.76711
# Poissons Ratio (y) = 0.61947 0.10029
# Poissons Ratio (z) = 0.30108 0.03175
#
# Static dielectric constant tensor:
#      x y z
#    x 1.545880 0.000000 0.000000 
#    y 0.000000 1.516050 0.000000 
#    z 0.000000 0.000000 1.559250 
# 
# From -- ./inp_files/26609.got.cif
#   From: 2010.05.17/outbox.ucp.g08.bks.cvg/sg65_14_cif.got.tgz:26609.got - 2010.06.11 16:39:57.
