data_PCOD9494645
_publ_section_title
;
Structure prediction by ZEFSAII (Michael W. Deem and Ramdas Pophale) SiO2 
 PCOD9494645
Probable space group: C M M M
;
_chemical_formula_sum "Si O2"
_cell_formula_units_Z 36
_cell_length_a 27.000000
_cell_length_b 15.000000
_cell_length_c 9.000000
_cell_angle_alpha 90.000000
_cell_angle_beta 90.000000
_cell_angle_gamma 90.000000
_cell_volume 3645.000000
_symmetry_space_group_name_H-M "C M M M"
_symmetry_group_IT_number 65
_symmetry_cell_setting 'orthorhombic'
loop_
_space_group_symop_operation_xyz
x,y,z
-x,-y,z
x,-y,-z
-x,y,-z
-x,-y,-z
x,y,-z
-x,y,z
x,-y,z
1/2+x,1/2+y,z
1/2-x,1/2-y,z
1/2+x,1/2-y,-z
1/2-x,1/2+y,-z
1/2-x,1/2-y,-z
1/2+x,1/2+y,-z
1/2-x,1/2+y,z
1/2+x,1/2-y,z
loop_
_atom_site_type_symbol
_atom_site_label
_atom_site_fract_x
_atom_site_fract_y
_atom_site_fract_z
Si Si1 0.818933 0.396741 0.181006
Si Si2 0.500000 0.900421 0.819208
Si Si3 0.892086 0.101253 0.676240
Si Si4 0.410146 0.222818 0.178843
Si Si5 0.210256 0.892710 0.832437
O O1 0.827994 0.500000 0.229269
O O2 0.859396 0.325054 0.227650
O O3 0.764044 0.364549 0.222901
O O4 0.819405 0.399689 0.000000
O O5 0.452110 0.846088 0.775851
O O6 0.500000 0.000000 0.761585
O O7 0.500000 0.904605 0.000000
O O8 0.897181 0.104492 0.500000
O O9 0.920950 0.180891 0.753629
O O10 0.835648 0.121280 0.725780
O O11 0.903812 0.000000 0.726195
O O12 0.409245 0.230716 0.000000
O O13 0.214955 0.000000 0.846234
O O14 0.200438 0.857112 0.000000
#
# Coordination Sequence:
#
# PCOD9494645 Si02
#       5
#    16   8  16  16  16
#     4   8  14  26  47  76 106 134 166 204 247 299
#     4   9  18  34  58  87 112 130 155 199 254 305
#     4  10  21  36  51  69  99 138 175 212 254 297
#     4  10  19  32  54  80 103 131 168 208 250 299
#     4   8  14  27  48  72  99 133 171 208 246 292
#
# _framework density 9.8765429999999999
#
# number of rings (size 3 to 8) (size 9 to 14) (size 15 to 20)
#    0.000    3.000    0.000    2.667    0.000    4.889 
#    0.000    6.667    0.000    8.000    0.000    0.000 
#    0.000    0.000    0.000    0.000    0.000    0.000 
#
# Total GULP energy -200592.910778 kJ/mol
# GULP energy per Si atom -5572.025299 kJ/mol
# Density = 0.985406 g / cm^3
# Si number density = 9.876543 Si / 1000 Ang^3
#
#
#
# Elastic Constant Matrix: (Units=GPa)
#
#
# Indices 1 2 3 4 5 6 
#
# 1 40.9040 51.6395 5.7015 0.0000 0.0000 0.0000
# 2 51.6395 161.5799 27.8137 0.0000 0.0000 0.0000
# 3 5.7015 27.8137 12.7222 0.0000 0.0000 0.0000
# 4 0.0000 0.0000 0.0000 13.1241 0.0000 0.0000
# 5 0.0000 0.0000 0.0000 0.0000 -85.4278 0.0000
# 6 0.0000 0.0000 0.0000 0.0000 0.0000 5.4314
#
#
#
# Elastic Compliance Matrix: (Units=1/GPa)
#
#
# Indices 1 2 3 4 5 6 
#
# 1 0.043253 -0.016814 0.017376 0.000000 0.000000 0.000000
# 2 -0.016814 0.016460 -0.028449 0.000000 0.000000 0.000000
# 3 0.017376 -0.028449 0.133012 0.000000 0.000000 0.000000
# 4 0.000000 0.000000 0.000000 0.076196 0.000000 0.000000
# 5 0.000000 0.000000 0.000000 0.000000 -0.011706 0.000000
# 6 0.000000 0.000000 0.000000 0.000000 0.000000 0.184116
#
#
# Mechanical properties :
#
#
# Convention : Reuss Voigt Hill
#
# Bulk Modulus (GPa) = 7.30198 42.83508 25.06853
# Shear Modulus (GPa) = 9.21224 -4.70438 2.25393
#
# Velocity S-wave (km/s) = 2.16190 -1.54491 1.06936
# Velocity P-wave (km/s) = 3.15221 4.30697 3.77402
#
# Compressibility (1/GPa) = 0.13694920
#
# Stress axis : x y z
#
# Youngs Moduli (GPa) = 23.11993 60.75436 7.51809
#
# Poissons Ratio (x) = 1.02154 -0.13063
# Poissons Ratio (y) = 0.38874 0.21389
# Poissons Ratio (z) = -0.40173 1.72842
#
# Static dielectric constant tensor:
#      x y z
#    x 1.751000 0.000000 0.000000 
#    y 0.000000 1.721930 0.000000 
#    z 0.000000 0.000000 1.665310 
# 
# From -- ./inp_files/7213.got.cif
#   From: 2010.05.17/outbox.ucp.g08.bks.cvg/sg65_4_cif.got.tgz:7213.got - 2010.06.11 16:39:57.
