data_PCOD9494569
_publ_section_title
;
Structure prediction by ZEFSAII (Michael W. Deem and Ramdas Pophale) SiO2 
 PCOD9494569
Probable space group: C M M M
;
_chemical_formula_sum "Si O2"
_cell_formula_units_Z 52
_cell_length_a 9.000000
_cell_length_b 30.000000
_cell_length_c 24.000000
_cell_angle_alpha 90.000000
_cell_angle_beta 90.000000
_cell_angle_gamma 90.000000
_cell_volume 6480.000000
_symmetry_space_group_name_H-M "C M M M"
_symmetry_group_IT_number 65
_symmetry_cell_setting 'orthorhombic'
loop_
_space_group_symop_operation_xyz
x,y,z
-x,-y,z
x,-y,-z
-x,y,-z
-x,-y,-z
x,y,-z
-x,y,z
x,-y,z
1/2+x,1/2+y,z
1/2-x,1/2-y,z
1/2+x,1/2-y,-z
1/2-x,1/2+y,-z
1/2-x,1/2-y,-z
1/2+x,1/2+y,-z
1/2-x,1/2+y,z
1/2+x,1/2-y,z
loop_
_atom_site_type_symbol
_atom_site_label
_atom_site_fract_x
_atom_site_fract_y
_atom_site_fract_z
Si Si1 0.319840 0.604060 0.385797
Si Si2 0.679943 0.889034 0.170742
Si Si3 0.677971 0.297664 0.347006
Si Si4 0.178724 0.798138 0.214512
Si Si5 0.679041 0.052500 0.719283
Si Si6 0.180641 0.448324 0.064107
Si Si7 0.680561 0.447491 0.500000
O O1 0.500000 0.602750 0.382743
O O2 0.276537 0.656606 0.378928
O O3 0.254299 0.576762 0.333409
O O4 0.275295 0.579645 0.443831
O O5 0.500000 0.883766 0.169485
O O6 0.753718 0.840737 0.182035
O O7 0.716017 0.921124 0.223563
O O8 0.726130 0.914294 0.113321
O O9 0.500000 0.293302 0.352716
O O10 0.750000 0.250000 0.363645
O O11 0.710780 0.304511 0.280913
O O12 0.250000 0.750000 0.198975
O O13 0.000000 0.796577 0.207735
O O14 0.500000 0.054719 0.712903
O O15 0.720105 0.000000 0.722330
O O16 0.225461 0.500000 0.075523
O O17 0.000000 0.448138 0.064547
O O18 0.226043 0.437299 0.000000
O O19 0.728786 0.500000 0.500000
O O20 0.500000 0.448394 0.500000
#
# Coordination Sequence:
#
# PCOD9494569 Si02
#       7
#    16  16  16  16  16  16   8
#     4  10  19  34  52  72  95 125 165 205 242 286
#     4  10  18  29  48  74 102 130 162 202 246 289
#     4   9  18  31  49  71  96 124 155 195 242 292
#     4  10  19  32  49  72 100 129 162 199 247 300
#     4  10  20  31  45  70 102 131 158 195 244 291
#     4   8  14  26  46  72 101 134 171 206 239 283
#     4   9  18  32  52  73  93 125 167 205 240 283
#
# _framework density 8.0246910000000007
#
# number of rings (size 3 to 8) (size 9 to 14) (size 15 to 20)
#    0.000    2.538    1.538    1.846    0.000    4.000 
#    0.000    0.769    0.000    3.692    0.000    1.077 
#    0.000    0.000    0.000    0.000    0.000    0.000 
#
# Total GULP energy -289797.215524 kJ/mol
# GULP energy per Si atom -5573.023375 kJ/mol
# Density = 0.800643 g / cm^3
# Si number density = 8.024691 Si / 1000 Ang^3
#
#
#
# Elastic Constant Matrix: (Units=GPa)
#
#
# Indices 1 2 3 4 5 6 
#
# 1 23.2160 36.7943 26.2981 0.0000 0.0000 0.0000
# 2 36.7943 191.1086 90.2146 0.0000 0.0000 0.0000
# 3 26.2981 90.2146 132.4365 0.0000 0.0000 0.0000
# 4 0.0000 0.0000 0.0000 36.0547 0.0000 0.0000
# 5 0.0000 0.0000 0.0000 0.0000 15.6156 0.0000
# 6 0.0000 0.0000 0.0000 0.0000 0.0000 29.7672
#
#
#
# Elastic Compliance Matrix: (Units=1/GPa)
#
#
# Indices 1 2 3 4 5 6 
#
# 1 0.065597 -0.009552 -0.006519 0.000000 0.000000 0.000000
# 2 -0.009552 0.009104 -0.004305 0.000000 0.000000 0.000000
# 3 -0.006519 -0.004305 0.011777 0.000000 0.000000 0.000000
# 4 0.000000 0.000000 0.000000 0.027736 0.000000 0.000000
# 5 0.000000 0.000000 0.000000 0.000000 0.064038 0.000000
# 6 0.000000 0.000000 0.000000 0.000000 0.000000 0.033594
#
#
# Mechanical properties :
#
#
# Convention : Reuss Voigt Hill
#
# Bulk Modulus (GPa) = 21.86895 72.59725 47.23310
# Shear Modulus (GPa) = 18.66790 29.18446 23.92618
#
# Velocity S-wave (km/s) = 3.41420 4.26892 3.86526
# Velocity P-wave (km/s) = 5.40352 8.34446 7.02951
#
# Compressibility (1/GPa) = 0.04572694
#
# Stress axis : x y z
#
# Youngs Moduli (GPa) = 15.24464 109.84486 84.90769
#
# Poissons Ratio (x) = 1.04926 0.55349
# Poissons Ratio (y) = 0.14562 0.36549
# Poissons Ratio (z) = 0.09938 0.47284
#
# Static dielectric constant tensor:
#      x y z
#    x 1.537430 0.000000 0.000000 
#    y 0.000000 1.537400 0.000000 
#    z 0.000000 0.000000 1.533990 
# 
# From -- ./inp_files/68464.got.cif
#   From: 2010.05.17/outbox.ucp.g08.bks.cvg/sg65_35_cif.got.tgz:68464.got - 2010.06.11 16:39:57.
