data_PCOD9494534
_publ_section_title
;
Structure prediction by ZEFSAII (Michael W. Deem and Ramdas Pophale) SiO2 
 PCOD9494534
Probable space group: C M M M
;
_chemical_formula_sum "Si O2"
_cell_formula_units_Z 72
_cell_length_a 21.489866
_cell_length_b 17.746413
_cell_length_c 8.303915
_cell_angle_alpha 90.000000
_cell_angle_beta 90.000000
_cell_angle_gamma 90.000000
_cell_volume 3166.847766
_symmetry_space_group_name_H-M "C M M M"
_symmetry_group_IT_number 65
_symmetry_cell_setting 'orthorhombic'
loop_
_space_group_symop_operation_xyz
x,y,z
-x,-y,z
x,-y,-z
-x,y,-z
-x,-y,-z
x,y,-z
-x,y,z
x,-y,z
1/2+x,1/2+y,z
1/2-x,1/2-y,z
1/2+x,1/2-y,-z
1/2-x,1/2+y,-z
1/2-x,1/2-y,-z
1/2+x,1/2+y,-z
1/2-x,1/2+y,z
1/2+x,1/2-y,z
loop_
_atom_site_type_symbol
_atom_site_label
_atom_site_fract_x
_atom_site_fract_y
_atom_site_fract_z
Si Si1 0.753117 0.339956 0.327289
Si Si2 0.071223 0.840840 0.692187
Si Si3 0.397309 0.172066 0.317139
Si Si4 0.752310 0.412982 0.000000
Si Si5 0.072041 0.000000 0.191288
Si Si6 0.095540 0.587726 0.000000
O O1 0.725089 0.364281 0.500000
O O2 0.750000 0.250000 0.321095
O O3 0.826732 0.357287 0.331529
O O4 0.729136 0.374136 0.162465
O O5 0.068662 0.845932 0.500000
O O6 0.103687 0.761076 0.727018
O O7 0.098240 0.919902 0.752484
O O8 0.000000 0.834165 0.754997
O O9 0.424487 0.165601 0.500000
O O10 0.425659 0.128013 0.165411
O O11 0.734976 0.500000 0.000000
O O12 0.828242 0.407524 0.000000
O O13 0.000000 0.000000 0.252804
O O14 0.071305 0.000000 0.000000
O O15 0.078834 0.500000 0.000000
#
# Coordination Sequence:
#
# PCOD9494534 Si02
#       6
#    16  16  16   8   8   8
#     4   9  17  30  49  69  91 122 155 188 229 277
#     4   9  17  30  48  68  92 123 157 192 229 272
#     4   9  18  31  49  72  94 121 157 193 232 278
#     4   9  17  29  47  70  93 116 150 195 233 269
#     4   9  17  27  43  69  95 121 155 193 229 267
#     4   9  18  31  48  72  95 118 152 194 237 278
#
# _framework density 22.735541000000001
#
# number of rings (size 3 to 8) (size 9 to 14) (size 15 to 20)
#    0.000    3.000    0.000    0.667    1.556    2.222 
#    0.000    4.444    2.444    1.333    0.000    3.111 
#    0.000    0.000    0.000    0.000    0.000    0.000 
#
# Total GULP energy -200838.270748 kJ/mol
# GULP energy per Si atom -5578.840854 kJ/mol
# Density = 2.268379 g / cm^3
# Si number density = 22.735541 Si / 1000 Ang^3
#
#
#
# Elastic Constant Matrix: (Units=GPa)
#
#
# Indices 1 2 3 4 5 6 
#
# 1 72.2324 -3.1173 7.4237 0.0000 0.0000 0.0000
# 2 -3.1173 147.4961 120.7703 0.0000 0.0000 0.0000
# 3 7.4237 120.7703 211.7250 0.0000 0.0000 0.0000
# 4 0.0000 0.0000 0.0000 246.7165 0.0000 0.0000
# 5 0.0000 0.0000 0.0000 0.0000 0.3185 0.0000
# 6 0.0000 0.0000 0.0000 0.0000 0.0000 17.9394
#
#
#
# Elastic Compliance Matrix: (Units=1/GPa)
#
#
# Indices 1 2 3 4 5 6 
#
# 1 0.014028 0.001312 -0.001240 0.000000 0.000000 0.000000
# 2 0.001312 0.012844 -0.007372 0.000000 0.000000 0.000000
# 3 -0.001240 -0.007372 0.008972 0.000000 0.000000 0.000000
# 4 0.000000 0.000000 0.000000 0.004053 0.000000 0.000000
# 5 0.000000 0.000000 0.000000 0.000000 3.139438 0.000000
# 6 0.000000 0.000000 0.000000 0.000000 0.000000 0.055743
#
#
# Mechanical properties :
#
#
# Convention : Reuss Voigt Hill
#
# Bulk Modulus (GPa) = 47.07439 75.73412 61.40425
# Shear Modulus (GPa) = 1.53527 73.42001 37.47764
#
# Velocity S-wave (km/s) = 0.82264 5.68886 4.06447
# Velocity P-wave (km/s) = 4.65322 8.74838 7.00666
#
# Compressibility (1/GPa) = 0.02124297
#
# Stress axis : x y z
#
# Youngs Moduli (GPa) = 71.28450 77.85636 111.45877
#
# Poissons Ratio (x) = -0.10215 0.13824
# Poissons Ratio (y) = -0.09353 0.82173
# Poissons Ratio (z) = 0.08841 0.57399
#
# Static dielectric constant tensor:
#      x y z
#    x 1.927060 0.000000 0.000000 
#    y 0.000000 1.794530 0.000000 
#    z 0.000000 0.000000 1.839430 
# 
# From -- ./inp_files/7755.got.cif
#   From: 2010.05.17/outbox.cif.g08.bks.cpg/sg65_4_cif.got.tgz:7755.got - 2010.06.03 17:01:31.
