data_PCOD9494150
_publ_section_title
;
Structure prediction by ZEFSAII (Michael W. Deem and Ramdas Pophale) SiO2 
 PCOD9494150
Probable space group: C M M M
;
_chemical_formula_sum "Si O2"
_cell_formula_units_Z 80
_cell_length_a 28.230339
_cell_length_b 7.823561
_cell_length_c 19.221986
_cell_angle_alpha 90.000000
_cell_angle_beta 90.000000
_cell_angle_gamma 90.000000
_cell_volume 4245.402028
_symmetry_space_group_name_H-M "C M M M"
_symmetry_group_IT_number 65
_symmetry_cell_setting 'orthorhombic'
loop_
_space_group_symop_operation_xyz
x,y,z
-x,-y,z
x,-y,-z
-x,y,-z
-x,-y,-z
x,y,-z
-x,y,z
x,-y,z
1/2+x,1/2+y,z
1/2-x,1/2-y,z
1/2+x,1/2-y,-z
1/2-x,1/2+y,-z
1/2-x,1/2-y,-z
1/2+x,1/2+y,-z
1/2-x,1/2+y,z
1/2+x,1/2-y,z
loop_
_atom_site_type_symbol
_atom_site_label
_atom_site_fract_x
_atom_site_fract_y
_atom_site_fract_z
Si Si1 0.101435 0.708468 0.856404
Si Si2 0.445103 0.790551 0.000000
Si Si3 0.648835 0.204399 0.354319
Si Si4 0.194885 0.799092 0.500000
Si Si5 0.696593 0.205296 0.213784
Si Si6 0.947062 0.708741 0.287759
O O1 0.101461 0.500000 0.858024
O O2 0.154806 0.764651 0.837667
O O3 0.068770 0.756446 0.790541
O O4 0.080992 0.767062 0.929782
O O5 0.500000 0.739027 0.000000
O O6 0.444491 0.000000 0.000000
O O7 0.669284 0.239503 0.429820
O O8 0.682426 0.268414 0.291396
O O9 0.595447 0.266431 0.338297
O O10 0.647146 0.000000 0.346899
O O11 0.250000 0.750000 0.500000
O O12 0.192585 0.000000 0.500000
O O13 0.750000 0.250000 0.195286
O O14 0.693906 0.000000 0.214950
O O15 0.947985 0.500000 0.289658
O O16 0.000000 0.768867 0.303888
#
# Coordination Sequence:
#
# PCOD9494150 Si02
#       6
#    16   8  16   8  16  16
#     4   8  14  23  36  60  92 120 149 186 227 267
#     4   9  14  20  35  60  91 123 147 175 224 277
#     4   9  18  32  49  70  94 119 151 188 225 268
#     4  12  24  36  51  70  93 119 146 183 231 276
#     4   9  17  29  45  64  88 119 152 188 225 262
#     4   8  13  24  44  67  90 118 153 191 225 260
#
# _framework density 18.843916
#
# number of rings (size 3 to 8) (size 9 to 14) (size 15 to 20)
#    0.000    3.100    0.000    4.500    0.000    4.800 
#    0.000    1.000    0.000    3.600    0.000    0.000 
#    0.000    3.200    0.000    0.000    0.000    0.400 
#
# Total GULP energy -222957.118344 kJ/mol
# GULP energy per Si atom -5573.927959 kJ/mol
# Density = 1.880103 g / cm^3
# Si number density = 18.843916 Si / 1000 Ang^3
#
#
#
# Elastic Constant Matrix: (Units=GPa)
#
#
# Indices 1 2 3 4 5 6 
#
# 1 194.9185 7.3872 104.1301 0.0000 0.0000 0.0000
# 2 7.3872 19.4964 1.9966 0.0000 0.0000 0.0000
# 3 104.1301 1.9966 153.9416 0.0000 0.0000 0.0000
# 4 0.0000 0.0000 0.0000 -6.0712 0.0000 0.0000
# 5 0.0000 0.0000 0.0000 0.0000 19.1231 0.0000
# 6 0.0000 0.0000 0.0000 0.0000 0.0000 14.8745
#
#
#
# Elastic Compliance Matrix: (Units=1/GPa)
#
#
# Indices 1 2 3 4 5 6 
#
# 1 0.008156 -0.002529 -0.005484 0.000000 0.000000 0.000000
# 2 -0.002529 0.052144 0.001034 0.000000 0.000000 0.000000
# 3 -0.005484 0.001034 0.010192 0.000000 0.000000 0.000000
# 4 0.000000 0.000000 0.000000 -0.164711 0.000000 0.000000
# 5 0.000000 0.000000 0.000000 0.000000 0.052293 0.000000
# 6 0.000000 0.000000 0.000000 0.000000 0.000000 0.067229
#
#
# Mechanical properties :
#
#
# Convention : Reuss Voigt Hill
#
# Bulk Modulus (GPa) = 17.68828 66.15380 41.92104
# Shear Modulus (GPa) = 86.05194 22.57479 54.31336
#
# Velocity S-wave (km/s) = 6.76497 3.46495 5.37451
# Velocity P-wave (km/s) = 8.39207 7.15474 7.79798
#
# Compressibility (1/GPa) = 0.05653462
#
# Stress axis : x y z
#
# Youngs Moduli (GPa) = 122.61062 19.17775 98.11502
#
# Poissons Ratio (x) = 0.04849 0.53807
# Poissons Ratio (y) = 0.31004 -0.10147
# Poissons Ratio (z) = 0.67240 -0.01983
#
# Static dielectric constant tensor:
#      x y z
#    x 1.651080 0.000000 0.000000 
#    y 0.000000 1.714790 0.000000 
#    z 0.000000 0.000000 1.197340 
# 
# From -- ./inp_files/57261.got.cif
#   From: 2010.05.17/outbox.cif.g08.bks.cpg/sg65_29_cif.got.tgz:57261.got - 2010.06.03 17:01:31.
