data_PCOD9494786
_publ_section_title
;
Structure prediction by ZEFSAII (Michael W. Deem and Ramdas Pophale) SiO2 
 PCOD9494786
Probable space group: C M M M
;
_chemical_formula_sum "Si O2"
_cell_formula_units_Z 36
_cell_length_a 18.000000
_cell_length_b 18.000000
_cell_length_c 12.000000
_cell_angle_alpha 90.000000
_cell_angle_beta 90.000000
_cell_angle_gamma 90.000000
_cell_volume 3888.000000
_symmetry_space_group_name_H-M "C M M M"
_symmetry_group_IT_number 65
_symmetry_cell_setting 'orthorhombic'
loop_
_space_group_symop_operation_xyz
x,y,z
-x,-y,z
x,-y,-z
-x,y,-z
-x,-y,-z
x,y,-z
-x,y,z
x,-y,z
1/2+x,1/2+y,z
1/2-x,1/2-y,z
1/2+x,1/2-y,-z
1/2-x,1/2+y,-z
1/2-x,1/2-y,-z
1/2+x,1/2+y,-z
1/2-x,1/2+y,z
1/2+x,1/2-y,z
loop_
_atom_site_type_symbol
_atom_site_label
_atom_site_fract_x
_atom_site_fract_y
_atom_site_fract_z
Si Si1 0.910145 0.000000 0.367166
Si Si2 0.658510 0.088438 0.000000
Si Si3 0.410223 0.782534 0.622916
Si Si4 0.909955 0.854800 0.215432
Si Si5 0.694905 0.674790 0.000000
Si Si6 0.410378 0.914674 0.229493
O O1 0.890822 0.072274 0.290801
O O2 0.885089 0.000000 0.500000
O O3 0.000000 0.000000 0.374594
O O4 0.619462 0.115883 0.887766
O O5 0.743729 0.110140 0.000000
O O6 0.647714 0.000000 0.000000
O O7 0.380650 0.768845 0.500000
O O8 0.500000 0.787579 0.616149
O O9 0.395769 0.715360 0.705174
O O10 0.384160 0.860256 0.673899
O O11 0.000000 0.858402 0.189614
O O12 0.858860 0.838503 0.107115
O O13 0.750000 0.750000 0.000000
O O14 0.500000 0.914360 0.225177
O O15 0.386520 0.000000 0.245086
#
# Coordination Sequence:
#
# PCOD9494786 Si02
#       6
#     8   8  16  16   8  16
#     4   9  18  35  63  95 119 146 191 246 300 353
#     4  10  21  35  53  75 104 146 181 226 281 336
#     4   9  17  30  51  80 110 139 175 228 288 336
#     4  10  21  37  60  87 117 149 191 243 292 346
#     4  12  25  38  56  83 114 155 193 235 287 350
#     4   9  17  31  53  80 108 142 188 236 279 332
#
# _framework density 9.2592590000000001
#
# number of rings (size 3 to 8) (size 9 to 14) (size 15 to 20)
#    0.000    2.333    0.000    2.667    1.556    4.444 
#    0.000    8.333    0.000   12.000    0.000    0.000 
#    0.000    0.000    0.000    0.000    0.000    0.000 
#
# Total GULP energy -200472.670031 kJ/mol
# GULP energy per Si atom -5568.685279 kJ/mol
# Density = 0.923818 g / cm^3
# Si number density = 9.259259 Si / 1000 Ang^3
#
#
#
# Elastic Constant Matrix: (Units=GPa)
#
#
# Indices 1 2 3 4 5 6 
#
# 1 28.4629 21.1050 33.3296 0.0000 0.0000 0.0000
# 2 21.1050 95.1273 70.3825 0.0000 0.0000 0.0000
# 3 33.3296 70.3825 164.3057 0.0000 0.0000 0.0000
# 4 0.0000 0.0000 0.0000 15.5745 0.0000 0.0000
# 5 0.0000 0.0000 0.0000 0.0000 -1.6127 0.0000
# 6 0.0000 0.0000 0.0000 0.0000 0.0000 21.4236
#
#
#
# Elastic Compliance Matrix: (Units=1/GPa)
#
#
# Indices 1 2 3 4 5 6 
#
# 1 0.047654 -0.005007 -0.007522 0.000000 0.000000 0.000000
# 2 -0.005007 0.015916 -0.005802 0.000000 0.000000 0.000000
# 3 -0.007522 -0.005802 0.010097 0.000000 0.000000 0.000000
# 4 0.000000 0.000000 0.000000 0.064207 0.000000 0.000000
# 5 0.000000 0.000000 0.000000 0.000000 -0.620085 0.000000
# 6 0.000000 0.000000 0.000000 0.000000 0.000000 0.046677
#
#
# Mechanical properties :
#
#
# Convention : Reuss Voigt Hill
#
# Bulk Modulus (GPa) = 27.02323 59.72559 43.37441
# Shear Modulus (GPa) = -12.93545 17.94900 2.50678
#
# Velocity S-wave (km/s) = -2.64581 3.11665 1.16473
# Velocity P-wave (km/s) = 2.30011 6.72853 5.02810
#
# Compressibility (1/GPa) = 0.03700520
#
# Stress axis : x y z
#
# Youngs Moduli (GPa) = 20.98445 62.82980 99.03542
#
# Poissons Ratio (x) = 0.31462 0.74492
# Poissons Ratio (y) = 0.10508 0.57461
# Poissons Ratio (z) = 0.15784 0.36454
#
# Static dielectric constant tensor:
#      x y z
#    x 1.609150 0.000000 0.000000 
#    y 0.000000 1.665210 0.000000 
#    z 0.000000 0.000000 1.677560 
# 
# From -- ./inp_files/26376.got.cif
#   From: 2010.05.17/outbox.ucp.g08.bks.cvg/sg65_14_cif.got.tgz:26376.got - 2010.06.11 16:39:57.
