data_PCOD9494661
_publ_section_title
;
Structure prediction by ZEFSAII (Michael W. Deem and Ramdas Pophale) SiO2 
 PCOD9494661
Probable space group: C M M M
;
_chemical_formula_sum "Si O2"
_cell_formula_units_Z 52
_cell_length_a 30.000000
_cell_length_b 9.000000
_cell_length_c 21.000000
_cell_angle_alpha 90.000000
_cell_angle_beta 90.000000
_cell_angle_gamma 90.000000
_cell_volume 5670.000000
_symmetry_space_group_name_H-M "C M M M"
_symmetry_group_IT_number 65
_symmetry_cell_setting 'orthorhombic'
loop_
_space_group_symop_operation_xyz
x,y,z
-x,-y,z
x,-y,-z
-x,y,-z
-x,-y,-z
x,y,-z
-x,y,z
x,-y,z
1/2+x,1/2+y,z
1/2-x,1/2-y,z
1/2+x,1/2-y,-z
1/2-x,1/2+y,-z
1/2-x,1/2-y,-z
1/2+x,1/2+y,-z
1/2-x,1/2+y,z
1/2+x,1/2-y,z
loop_
_atom_site_type_symbol
_atom_site_label
_atom_site_fract_x
_atom_site_fract_y
_atom_site_fract_z
Si Si1 0.794627 0.330649 0.091279
Si Si2 0.408084 0.321755 0.571546
Si Si3 0.552213 0.179346 0.197036
Si Si4 0.000000 0.665628 0.576619
Si Si5 0.605345 0.181142 0.929934
Si Si6 0.881273 0.177192 0.294183
Si Si7 0.294307 0.169484 0.244299
O O1 0.793618 0.500000 0.069135
O O2 0.750000 0.250000 0.069491
O O3 0.843214 0.266819 0.074412
O O4 0.792621 0.334280 0.167825
O O5 0.396367 0.269311 0.500000
O O6 0.411090 0.500000 0.568837
O O7 0.455873 0.256283 0.590825
O O8 0.377892 0.280964 0.631225
O O9 0.500000 0.216849 0.195657
O O10 0.576811 0.227810 0.131425
O O11 0.577437 0.250075 0.256937
O O12 0.556220 0.000000 0.201109
O O13 0.000000 0.500000 0.604692
O O14 0.000000 0.651858 0.500000
O O15 0.606573 0.000000 0.927193
O O16 0.587381 0.222035 0.000000
O O17 0.837213 0.236968 0.261591
O O18 0.885003 0.000000 0.289643
O O19 0.250000 0.250000 0.268211
O O20 0.297653 0.000000 0.267074
#
# Coordination Sequence:
#
# PCOD9494661 Si02
#       7
#    16  16  16   8  16  16  16
#     4   9  17  30  49  74 105 136 167 208 261 316
#     4   9  19  35  52  72 104 144 182 220 266 323
#     4  10  21  37  55  77 106 141 182 229 278 320
#     4   9  17  29  47  73 103 135 174 217 262 315
#     4   9  17  32  53  76 104 138 178 223 269 319
#     4  11  22  35  56  82 108 141 181 222 270 321
#     4  10  19  34  56  82 112 141 175 218 268 320
#
# _framework density 9.1710759999999993
#
# number of rings (size 3 to 8) (size 9 to 14) (size 15 to 20)
#    0.000    2.385    1.538    1.154    1.077    3.692 
#    0.000    1.538    0.000    1.846    0.000    1.077 
#    0.000    0.000    0.000    0.000    0.000    0.000 
#
# Total GULP energy -289729.769530 kJ/mol
# GULP energy per Si atom -5571.726337 kJ/mol
# Density = 0.915020 g / cm^3
# Si number density = 9.171076 Si / 1000 Ang^3
#
#
#
# Elastic Constant Matrix: (Units=GPa)
#
#
# Indices 1 2 3 4 5 6 
#
# 1 107.2312 29.7721 53.7346 0.0000 0.0000 0.0000
# 2 29.7721 7.4506 35.2467 0.0000 0.0000 0.0000
# 3 53.7346 35.2467 112.7153 0.0000 0.0000 0.0000
# 4 0.0000 0.0000 0.0000 19.5596 0.0000 0.0000
# 5 0.0000 0.0000 0.0000 0.0000 25.8097 0.0000
# 6 0.0000 0.0000 0.0000 0.0000 0.0000 6.5025
#
#
#
# Elastic Compliance Matrix: (Units=1/GPa)
#
#
# Indices 1 2 3 4 5 6 
#
# 1 0.007769 0.028214 -0.012527 0.000000 0.000000 0.000000
# 2 0.028214 -0.177553 0.042071 0.000000 0.000000 0.000000
# 3 -0.012527 0.042071 0.001688 0.000000 0.000000 0.000000
# 4 0.000000 0.000000 0.000000 0.051126 0.000000 0.000000
# 5 0.000000 0.000000 0.000000 0.000000 0.038745 0.000000
# 6 0.000000 0.000000 0.000000 0.000000 0.000000 0.153787
#
#
# Mechanical properties :
#
#
# Convention : Reuss Voigt Hill
#
# Bulk Modulus (GPa) = -19.01928 51.65599 16.31835
# Shear Modulus (GPa) = -86.98308 17.61728 -34.68290
#
# Velocity S-wave (km/s) = -6.89387 3.10252 -4.35315
# Velocity P-wave (km/s) = 8.58830 6.40764 4.04359
#
# Compressibility (1/GPa) = -0.05257822
#
# Stress axis : x y z
#
# Youngs Moduli (GPa) = 128.71203 -5.63211 592.48369
#
# Poissons Ratio (x) = 0.15891 7.42182
# Poissons Ratio (y) = -3.63153 -24.92652
# Poissons Ratio (z) = 1.61233 0.23695
#
# Static dielectric constant tensor:
#      x y z
#    x 1.614620 0.000000 0.000000 
#    y 0.000000 1.629640 0.000000 
#    z 0.000000 0.000000 1.659300 
# 
# From -- ./inp_files/66403.got.cif
#   From: 2010.05.17/outbox.ucp.g08.bks.cvg/sg65_34_cif.got.tgz:66403.got - 2010.06.11 16:39:57.
