data_PCOD9494674
_publ_section_title
;
Structure prediction by ZEFSAII (Michael W. Deem and Ramdas Pophale) SiO2 
 PCOD9494674
Probable space group: C M M M
;
_chemical_formula_sum "Si O2"
_cell_formula_units_Z 40
_cell_length_a 18.000000
_cell_length_b 9.000000
_cell_length_c 27.000000
_cell_angle_alpha 90.000000
_cell_angle_beta 90.000000
_cell_angle_gamma 90.000000
_cell_volume 4374.000000
_symmetry_space_group_name_H-M "C M M M"
_symmetry_group_IT_number 65
_symmetry_cell_setting 'orthorhombic'
loop_
_space_group_symop_operation_xyz
x,y,z
-x,-y,z
x,-y,-z
-x,y,-z
-x,-y,-z
x,y,-z
-x,y,z
x,-y,z
1/2+x,1/2+y,z
1/2-x,1/2-y,z
1/2+x,1/2-y,-z
1/2-x,1/2+y,-z
1/2-x,1/2-y,-z
1/2+x,1/2+y,-z
1/2-x,1/2+y,z
1/2+x,1/2-y,z
loop_
_atom_site_type_symbol
_atom_site_label
_atom_site_fract_x
_atom_site_fract_y
_atom_site_fract_z
Si Si1 0.089502 0.169806 0.707669
Si Si2 0.169239 0.323463 0.797445
Si Si3 0.909219 0.326802 0.607428
Si Si4 0.331417 0.177760 0.091079
Si Si5 0.911484 0.171092 0.000000
Si Si6 0.413483 0.818793 0.500000
O O1 0.118441 0.262976 0.753809
O O2 0.115474 0.235462 0.655064
O O3 0.000000 0.173669 0.707191
O O4 0.114022 0.000000 0.712930
O O5 0.176507 0.500000 0.793677
O O6 0.250000 0.250000 0.792710
O O7 0.141008 0.288979 0.853068
O O8 0.889530 0.500000 0.613607
O O9 0.881896 0.272816 0.553359
O O10 0.000000 0.321069 0.605781
O O11 0.250000 0.250000 0.086568
O O12 0.381563 0.246743 0.048549
O O13 0.326195 0.000000 0.085569
O O14 0.000000 0.172317 0.000000
O O15 0.885209 0.000000 0.000000
O O16 0.500000 0.772367 0.500000
O O17 0.413193 0.000000 0.500000
#
# Coordination Sequence:
#
# PCOD9494674 Si02
#       6
#    16  16  16  16   8   8
#     4  10  20  32  47  71 104 138 170 208 255 304
#     4  10  21  37  57  79 102 132 171 213 256 302
#     4   8  13  23  40  62  90 125 165 207 251 300
#     4  10  21  38  60  82 105 135 172 213 254 300
#     4  11  24  39  56  81 113 145 174 207 250 297
#     4   7  10  18  35  59  86 119 160 205 250 295
#
# _framework density 9.1449470000000002
#
# number of rings (size 3 to 8) (size 9 to 14) (size 15 to 20)
#    0.000    2.600    0.000    3.600    0.000    5.200 
#    0.000    4.500    0.000    3.000    0.000    0.700 
#    0.000    0.000    0.000    0.000    0.000    0.000 
#
# Total GULP energy -222979.652216 kJ/mol
# GULP energy per Si atom -5574.491305 kJ/mol
# Density = 0.912413 g / cm^3
# Si number density = 9.144947 Si / 1000 Ang^3
#
#
#
# Elastic Constant Matrix: (Units=GPa)
#
#
# Indices 1 2 3 4 5 6 
#
# 1 11.9784 20.5084 39.5308 0.0000 0.0000 0.0000
# 2 20.5084 86.4296 81.6655 0.0000 0.0000 0.0000
# 3 39.5308 81.6655 182.8931 0.0000 0.0000 0.0000
# 4 0.0000 0.0000 0.0000 26.6516 0.0000 0.0000
# 5 0.0000 0.0000 0.0000 0.0000 21.0208 0.0000
# 6 0.0000 0.0000 0.0000 0.0000 0.0000 22.2193
#
#
#
# Elastic Compliance Matrix: (Units=1/GPa)
#
#
# Indices 1 2 3 4 5 6 
#
# 1 0.305735 -0.017483 -0.058276 0.000000 0.000000 0.000000
# 2 -0.017483 0.021014 -0.005604 0.000000 0.000000 0.000000
# 3 -0.058276 -0.005604 0.020566 0.000000 0.000000 0.000000
# 4 0.000000 0.000000 0.000000 0.037521 0.000000 0.000000
# 5 0.000000 0.000000 0.000000 0.000000 0.047572 0.000000
# 6 0.000000 0.000000 0.000000 0.000000 0.000000 0.045006
#
#
# Mechanical properties :
#
#
# Convention : Reuss Voigt Hill
#
# Bulk Modulus (GPa) = 5.41744 62.74563 34.08153
# Shear Modulus (GPa) = 7.12587 23.28478 15.20533
#
# Velocity S-wave (km/s) = 1.97599 3.57192 2.88644
# Velocity P-wave (km/s) = 2.85910 7.16883 5.45741
#
# Compressibility (1/GPa) = 0.18458918
#
# Stress axis : x y z
#
# Youngs Moduli (GPa) = 3.27081 47.58733 48.62407
#
# Poissons Ratio (x) = 0.83196 2.83360
# Poissons Ratio (y) = 0.05718 0.27251
# Poissons Ratio (z) = 0.19061 0.26670
#
# Static dielectric constant tensor:
#      x y z
#    x 1.611350 0.000000 0.000000 
#    y 0.000000 1.614690 0.000000 
#    z 0.000000 0.000000 1.649530 
# 
# From -- ./inp_files/75058.got.cif
#   From: 2010.05.17/outbox.ucp.g08.bks.cvg/sg65_38_cif.got.tgz:75058.got - 2010.06.11 16:39:57.
