data_PCOD9494514
_publ_section_title
;
Structure prediction by ZEFSAII (Michael W. Deem and Ramdas Pophale) SiO2 
 PCOD9494514
Probable space group: C M M M
;
_chemical_formula_sum "Si O2"
_cell_formula_units_Z 88
_cell_length_a 24.813662
_cell_length_b 20.972708
_cell_length_c 9.523021
_cell_angle_alpha 90.000000
_cell_angle_beta 90.000000
_cell_angle_gamma 90.000000
_cell_volume 4955.872383
_symmetry_space_group_name_H-M "C M M M"
_symmetry_group_IT_number 65
_symmetry_cell_setting 'orthorhombic'
loop_
_space_group_symop_operation_xyz
x,y,z
-x,-y,z
x,-y,-z
-x,y,-z
-x,-y,-z
x,y,-z
-x,y,z
x,-y,z
1/2+x,1/2+y,z
1/2-x,1/2-y,z
1/2+x,1/2-y,-z
1/2-x,1/2+y,-z
1/2-x,1/2-y,-z
1/2+x,1/2+y,-z
1/2-x,1/2+y,z
1/2+x,1/2-y,z
loop_
_atom_site_type_symbol
_atom_site_label
_atom_site_fract_x
_atom_site_fract_y
_atom_site_fract_z
Si Si1 0.287114 0.692104 0.337763
Si Si2 0.821959 0.071883 0.831213
Si Si3 0.410743 0.263748 0.338199
Si Si4 0.558405 0.385167 0.831727
Si Si5 0.565023 0.121239 0.661129
Si Si6 0.434114 0.000000 0.160895
O O1 0.271432 0.678383 0.500000
O O2 0.250000 0.750000 0.284748
O O3 0.289567 0.627695 0.247040
O O4 0.347880 0.718807 0.338503
O O5 0.885859 0.079521 0.793600
O O6 0.804909 0.000000 0.794916
O O7 0.817797 0.079641 0.000000
O O8 0.430493 0.267180 0.500000
O O9 0.438496 0.316469 0.242204
O O10 0.418725 0.191467 0.289089
O O11 0.500000 0.414915 0.795567
O O12 0.559770 0.378129 0.000000
O O13 0.583748 0.113161 0.500000
O O14 0.500000 0.119374 0.659036
O O15 0.583762 0.063353 0.757670
O O16 0.500000 0.000000 0.162143
O O17 0.416703 0.000000 0.000000
#
# Coordination Sequence:
#
# PCOD9494514 Si02
#       6
#    16  16  16  16  16   8
#     4   9  18  33  53  74  95 120 156 202 248 291
#     4   9  18  32  50  73 100 131 166 199 235 285
#     4   9  17  29  46  67  90 118 153 193 235 280
#     4   9  17  28  43  67  99 131 161 193 229 270
#     4   9  16  26  41  60  83 113 147 180 218 269
#     4   9  17  27  39  57  81 111 145 179 217 261
#
# _framework density 17.756712
#
# number of rings (size 3 to 8) (size 9 to 14) (size 15 to 20)
#    0.000    3.000    0.000    0.818    0.000    4.000 
#    0.000    3.636    2.000    0.000    0.000    5.091 
#    0.000    0.000    0.000    0.000    0.000    0.000 
#
# Total GULP energy -245055.517348 kJ/mol
# GULP energy per Si atom -5569.443576 kJ/mol
# Density = 1.771630 g / cm^3
# Si number density = 17.756712 Si / 1000 Ang^3
#
#
#
# Elastic Constant Matrix: (Units=GPa)
#
#
# Indices 1 2 3 4 5 6 
#
# 1 35.6731 20.8058 10.4737 0.0000 0.0000 0.0000
# 2 20.8058 149.4560 53.6817 0.0000 0.0000 0.0000
# 3 10.4737 53.6817 36.8509 0.0000 0.0000 0.0000
# 4 0.0000 0.0000 0.0000 25.1778 0.0000 0.0000
# 5 0.0000 0.0000 0.0000 0.0000 15.0980 0.0000
# 6 0.0000 0.0000 0.0000 0.0000 0.0000 7.1331
#
#
#
# Elastic Compliance Matrix: (Units=1/GPa)
#
#
# Indices 1 2 3 4 5 6 
#
# 1 0.030994 -0.002413 -0.005293 0.000000 0.000000 0.000000
# 2 -0.002413 0.014222 -0.020031 0.000000 0.000000 0.000000
# 3 -0.005293 -0.020031 0.057821 0.000000 0.000000 0.000000
# 4 0.000000 0.000000 0.000000 0.039718 0.000000 0.000000
# 5 0.000000 0.000000 0.000000 0.000000 0.066234 0.000000
# 6 0.000000 0.000000 0.000000 0.000000 0.000000 0.140191
#
#
# Mechanical properties :
#
#
# Convention : Reuss Voigt Hill
#
# Bulk Modulus (GPa) = 21.02584 43.54472 32.28528
# Shear Modulus (GPa) = 11.89036 18.61636 15.25336
#
# Velocity S-wave (km/s) = 2.59052 3.24143 2.93408
# Velocity P-wave (km/s) = 4.56229 6.21171 5.44977
#
# Compressibility (1/GPa) = 0.04756053
#
# Stress axis : x y z
#
# Youngs Moduli (GPa) = 32.26422 70.31479 17.29477
#
# Poissons Ratio (x) = 0.16970 0.09155
# Poissons Ratio (y) = 0.07787 0.34644
# Poissons Ratio (z) = 0.17079 1.40850
#
# Static dielectric constant tensor:
#      x y z
#    x 1.624420 0.000000 0.000000 
#    y 0.000000 1.592730 0.000000 
#    z 0.000000 0.000000 1.601560 
# 
# From -- ./inp_files/13985.got.cif
#   From: 2010.05.17/outbox.cif.g08.bks.cpg/sg65_7_cif.got.tgz:13985.got - 2010.06.03 17:01:31.
