data_PCOD9494413
_publ_section_title
;
Structure prediction by ZEFSAII (Michael W. Deem and Ramdas Pophale) SiO2 
 PCOD9494413
Probable space group: C M M M
;
_chemical_formula_sum "Si O2"
_cell_formula_units_Z 72
_cell_length_a 29.783393
_cell_length_b 7.552516
_cell_length_c 19.086341
_cell_angle_alpha 90.000000
_cell_angle_beta 90.000000
_cell_angle_gamma 90.000000
_cell_volume 4293.272997
_symmetry_space_group_name_H-M "C M M M"
_symmetry_group_IT_number 65
_symmetry_cell_setting 'orthorhombic'
loop_
_space_group_symop_operation_xyz
x,y,z
-x,-y,z
x,-y,-z
-x,y,-z
-x,-y,-z
x,y,-z
-x,y,z
x,-y,z
1/2+x,1/2+y,z
1/2-x,1/2-y,z
1/2+x,1/2-y,-z
1/2-x,1/2+y,-z
1/2-x,1/2-y,-z
1/2+x,1/2+y,-z
1/2-x,1/2+y,z
1/2+x,1/2-y,z
loop_
_atom_site_type_symbol
_atom_site_label
_atom_site_fract_x
_atom_site_fract_y
_atom_site_fract_z
Si Si1 0.606664 0.783126 0.138018
Si Si2 0.447778 0.712916 0.424653
Si Si3 0.051565 0.284167 0.000000
Si Si4 0.948686 0.289834 0.729072
Si Si5 0.800065 0.711988 0.080309
O O1 0.582548 0.720642 0.208741
O O2 0.657848 0.724169 0.125569
O O3 0.606842 0.000000 0.139523
O O4 0.577793 0.730292 0.069963
O O5 0.428550 0.773206 0.500000
O O6 0.500000 0.772354 0.423567
O O7 0.447834 0.500000 0.425798
O O8 0.429223 0.765063 0.349089
O O9 0.051302 0.500000 0.000000
O O10 0.000000 0.225408 0.000000
O O11 0.952416 0.500000 0.739996
O O12 0.000000 0.217658 0.731680
O O13 0.804244 0.500000 0.076231
O O14 0.750000 0.750000 0.106727
O O15 0.803329 0.780109 0.000000
#
# Coordination Sequence:
#
# PCOD9494413 Si02
#       5
#    16  16   8  16  16
#     4   9  15  24  36  54  79 104 129 160 197 230
#     4   8  14  25  39  53  72 102 136 162 186 222
#     4   9  14  20  33  52  75 105 137 161 182 219
#     4   9  16  24  36  57  82 104 128 160 194 226
#     4   9  16  27  42  57  74  97 128 165 202 235
#
# _framework density 16.770422
#
# number of rings (size 3 to 8) (size 9 to 14) (size 15 to 20)
#    0.000    3.222    1.111    1.333    0.000    3.111 
#    0.000    3.333    0.000    0.000    0.000    0.000 
#    0.000    6.222    0.000    2.000    0.000    3.556 
#
# Total GULP energy -200452.788538 kJ/mol
# GULP energy per Si atom -5568.133015 kJ/mol
# Density = 1.673225 g / cm^3
# Si number density = 16.770422 Si / 1000 Ang^3
#
#
#
# Elastic Constant Matrix: (Units=GPa)
#
#
# Indices 1 2 3 4 5 6 
#
# 1 116.9557 3.8229 80.0982 0.0000 0.0000 0.0000
# 2 3.8229 36.8057 2.9063 0.0000 0.0000 0.0000
# 3 80.0982 2.9063 166.4673 0.0000 0.0000 0.0000
# 4 0.0000 0.0000 0.0000 36.5694 0.0000 0.0000
# 5 0.0000 0.0000 0.0000 0.0000 3.8633 0.0000
# 6 0.0000 0.0000 0.0000 0.0000 0.0000 9.4138
#
#
#
# Elastic Compliance Matrix: (Units=1/GPa)
#
#
# Indices 1 2 3 4 5 6 
#
# 1 0.012779 -0.000843 -0.006134 0.000000 0.000000 0.000000
# 2 -0.000843 0.027263 -0.000070 0.000000 0.000000 0.000000
# 3 -0.006134 -0.000070 0.008960 0.000000 0.000000 0.000000
# 4 0.000000 0.000000 0.000000 0.027345 0.000000 0.000000
# 5 0.000000 0.000000 0.000000 0.000000 0.258844 0.000000
# 6 0.000000 0.000000 0.000000 0.000000 0.000000 0.106227
#
#
# Mechanical properties :
#
#
# Convention : Reuss Voigt Hill
#
# Bulk Modulus (GPa) = 28.64769 54.87594 41.76182
# Shear Modulus (GPa) = 10.70324 25.52939 18.11631
#
# Velocity S-wave (km/s) = 2.52904 3.90588 3.29029
# Velocity P-wave (km/s) = 5.06433 7.28932 6.27621
#
# Compressibility (1/GPa) = 0.03490682
#
# Stress axis : x y z
#
# Youngs Moduli (GPa) = 78.25533 36.68003 111.60899
#
# Poissons Ratio (x) = 0.03092 0.68460
# Poissons Ratio (y) = 0.06596 0.00785
# Poissons Ratio (z) = 0.48001 0.00258
#
# Static dielectric constant tensor:
#      x y z
#    x 1.553670 0.000000 0.000000 
#    y 0.000000 1.650280 0.000000 
#    z 0.000000 0.000000 1.592180 
# 
# From -- ./inp_files/38162.got.cif
#   From: 2010.05.17/outbox.cif.g08.bks.cpg/sg65_20_cif.got.tgz:38162.got - 2010.06.03 17:01:31.
