data_PCOD9494974
_publ_section_title
;
Structure prediction by ZEFSAII (Michael W. Deem and Ramdas Pophale) SiO2 
 PCOD9494974
Probable space group: C C C M
;
_chemical_formula_sum "Si O2"
_cell_formula_units_Z 72
_cell_length_a 10.637077
_cell_length_b 19.361102
_cell_length_c 19.586456
_cell_angle_alpha 90.000000
_cell_angle_beta 90.000000
_cell_angle_gamma 90.000000
_cell_volume 4033.743116
_symmetry_space_group_name_H-M "C C C M"
_symmetry_group_IT_number 66
_symmetry_cell_setting 'orthorhombic'
loop_
_space_group_symop_operation_xyz
x,y,z
-x,-y,z
x,-y,1/2-z
-x,y,1/2-z
-x,-y,-z
x,y,-z
-x,y,1/2+z
x,-y,1/2+z
1/2+x,1/2+y,z
1/2-x,1/2-y,z
1/2+x,1/2-y,1/2-z
1/2-x,1/2+y,1/2-z
1/2-x,1/2-y,-z
1/2+x,1/2+y,-z
1/2-x,1/2+y,1/2+z
1/2+x,1/2-y,1/2+z
loop_
_atom_site_type_symbol
_atom_site_label
_atom_site_fract_x
_atom_site_fract_y
_atom_site_fract_z
Si Si1 0.500000 0.500000 0.875593
Si Si2 0.142568 0.807993 0.219760
Si Si3 0.835641 0.118221 0.922934
Si Si4 0.648367 0.992950 0.075759
Si Si5 0.737657 0.442361 0.701647
O O1 0.450941 0.564069 0.919007
O O2 0.610651 0.523821 0.826696
O O3 0.250000 0.750000 0.229339
O O4 0.141863 0.828925 0.139180
O O5 0.198021 0.874651 0.258827
O O6 0.000000 0.794245 0.250000
O O7 0.715805 0.067034 0.909631
O O8 0.824654 0.146650 0.000000
O O9 0.682123 0.937126 0.133003
O O10 0.500000 0.000000 0.074380
O O11 0.694240 0.973005 0.000000
O O12 0.799970 0.500000 0.750000
#
# Coordination Sequence:
#
# PCOD9494974 Si02
#       5
#     8  16  16  16  16
#     4  10  16  32  64  90 114 132 186 252 294 338
#     4  12  25  42  59  85 123 160 203 252 299 354
#     4  10  20  35  60  89 115 153 194 239 301 358
#     4   9  19  33  54  89 126 150 183 240 303 362
#     4  11  18  35  61  85 113 148 195 248 295 347
#
# _framework density 17.849426000000001
#
# number of rings (size 3 to 8) (size 9 to 14) (size 15 to 20)
#    0.000    1.556    6.667    0.667    0.000    3.556 
#    0.000    0.000    0.000    2.667    0.000    0.000 
#    0.000    0.000    0.000    0.000    0.000    0.000 
#
# Total GULP energy -200423.229970 kJ/mol
# GULP energy per Si atom -5567.311944 kJ/mol
# Density = 1.780880 g / cm^3
# Si number density = 17.849426 Si / 1000 Ang^3
#
#
#
# Elastic Constant Matrix: (Units=GPa)
#
#
# Indices 1 2 3 4 5 6 
#
# 1 67.5844 26.5483 44.8835 0.0000 0.0000 0.0000
# 2 26.5483 66.9105 43.6049 0.0000 0.0000 0.0000
# 3 44.8835 43.6049 138.6933 0.0000 0.0000 0.0000
# 4 0.0000 0.0000 0.0000 8.3909 0.0000 0.0000
# 5 0.0000 0.0000 0.0000 0.0000 31.4198 0.0000
# 6 0.0000 0.0000 0.0000 0.0000 0.0000 16.8453
#
#
#
# Elastic Compliance Matrix: (Units=1/GPa)
#
#
# Indices 1 2 3 4 5 6 
#
# 1 0.019939 -0.004661 -0.004987 0.000000 0.000000 0.000000
# 2 -0.004661 0.019886 -0.004744 0.000000 0.000000 0.000000
# 3 -0.004987 -0.004744 0.010316 0.000000 0.000000 0.000000
# 4 0.000000 0.000000 0.000000 0.119177 0.000000 0.000000
# 5 0.000000 0.000000 0.000000 0.000000 0.031827 0.000000
# 6 0.000000 0.000000 0.000000 0.000000 0.000000 0.059364
#
#
# Mechanical properties :
#
#
# Convention : Reuss Voigt Hill
#
# Bulk Modulus (GPa) = 46.82374 55.91795 51.37084
# Shear Modulus (GPa) = 16.86843 21.87465 19.37154
#
# Velocity S-wave (km/s) = 3.07749 3.50453 3.29793
# Velocity P-wave (km/s) = 6.23839 6.91167 6.58364
#
# Compressibility (1/GPa) = 0.02135669
#
# Stress axis : x y z
#
# Youngs Moduli (GPa) = 50.15191 50.28600 96.94137
#
# Poissons Ratio (x) = 0.23440 0.48347
# Poissons Ratio (y) = 0.23377 0.45986
# Poissons Ratio (z) = 0.25012 0.23854
#
# Static dielectric constant tensor:
#      x y z
#    x 1.634820 0.000000 0.000000 
#    y 0.000000 1.619810 0.000000 
#    z 0.000000 0.000000 1.700410 
# 
# From -- ./inp_files/48361.got.cif
#   From: 2010.05.17/outbox.cif.g08.bks.cpg/sg66_25_cif.got.tgz:48361.got - 2010.06.03 17:51:23.
