data_PCOD9494065
_publ_section_title
;
Structure prediction by ZEFSAII (Michael W. Deem and Ramdas Pophale) SiO2 
 PCOD9494065
Probable space group: C M M M
;
_chemical_formula_sum "Si O2"
_cell_formula_units_Z 66
_cell_length_a 20.270749
_cell_length_b 14.979820
_cell_length_c 11.336907
_cell_angle_alpha 90.000000
_cell_angle_beta 90.000000
_cell_angle_gamma 90.000000
_cell_volume 3442.476426
_symmetry_space_group_name_H-M "C M M M"
_symmetry_group_IT_number 65
_symmetry_cell_setting 'orthorhombic'
loop_
_space_group_symop_operation_xyz
x,y,z
-x,-y,z
x,-y,-z
-x,y,-z
-x,-y,-z
x,y,-z
-x,y,z
x,-y,z
1/2+x,1/2+y,z
1/2-x,1/2-y,z
1/2+x,1/2-y,-z
1/2-x,1/2+y,-z
1/2-x,1/2-y,-z
1/2+x,1/2+y,-z
1/2-x,1/2+y,z
1/2+x,1/2-y,z
loop_
_atom_site_type_symbol
_atom_site_label
_atom_site_fract_x
_atom_site_fract_y
_atom_site_fract_z
Si Si1 0.725574 0.106294 0.500000
Si Si2 0.882609 0.853790 0.500000
Si Si3 0.736272 0.000000 0.139033
Si Si4 0.387519 0.500000 0.142822
Si Si5 0.076316 0.805802 0.243747
Si Si6 0.310112 0.182062 0.245257
Si Si7 0.500000 0.500000 0.500000
O O1 0.805887 0.116278 0.500000
O O2 0.696199 0.153642 0.616314
O O3 0.711352 0.000000 0.500000
O O4 0.897287 0.805701 0.622327
O O5 0.941219 0.925634 0.500000
O O6 0.701383 0.089003 0.180798
O O7 0.811650 0.000000 0.185214
O O8 0.742080 0.000000 0.000000
O O9 0.416692 0.592947 0.193030
O O10 0.393059 0.500000 0.000000
O O11 0.125877 0.732264 0.193028
O O12 0.000000 0.781482 0.236391
O O13 0.250000 0.250000 0.223922
#
# Coordination Sequence:
#
# PCOD9494065 Si02
#       7
#     8   8   8   8  16  16   2
#     4  12  22  37  66  93 131 162 206 260 311 374
#     4  12  21  33  58  96 129 163 198 245 316 385
#     4  11  24  43  67  97 125 160 218 272 308 358
#     4  11  24  42  65  95 130 166 204 261 324 375
#     4  12  25  40  63  94 134 167 207 255 314 384
#     4  12  23  41  66  96 125 168 212 256 314 372
#     4  12  20  28  52  92 138 162 186 228 328 394
#
# _framework density 19.172243999999999
#
# number of rings (size 3 to 8) (size 9 to 14) (size 15 to 20)
#    0.000    0.242    7.879    2.182    0.000    2.424 
#    0.000    0.606    0.000    1.455    0.000    0.000 
#    0.000    0.000    0.000    0.000    0.000    0.000 
#
# Total GULP energy -183945.825861 kJ/mol
# GULP energy per Si atom -5574.115935 kJ/mol
# Density = 1.912861 g / cm^3
# Si number density = 19.172244 Si / 1000 Ang^3
#
#
#
# Elastic Constant Matrix: (Units=GPa)
#
#
# Indices 1 2 3 4 5 6 
#
# 1 130.3124 81.7722 27.3617 0.0000 0.0000 0.0000
# 2 81.7722 152.8427 18.4692 0.0000 0.0000 0.0000
# 3 27.3617 18.4692 36.0543 0.0000 0.0000 0.0000
# 4 0.0000 0.0000 0.0000 106.8819 0.0000 0.0000
# 5 0.0000 0.0000 0.0000 0.0000 7.4776 0.0000
# 6 0.0000 0.0000 0.0000 0.0000 0.0000 34.4295
#
#
#
# Elastic Compliance Matrix: (Units=1/GPa)
#
#
# Indices 1 2 3 4 5 6 
#
# 1 0.012898 -0.006095 -0.006666 0.000000 0.000000 0.000000
# 2 -0.006095 0.009855 -0.000423 0.000000 0.000000 0.000000
# 3 -0.006666 -0.000423 0.033011 0.000000 0.000000 0.000000
# 4 0.000000 0.000000 0.000000 0.009356 0.000000 0.000000
# 5 0.000000 0.000000 0.000000 0.000000 0.133733 0.000000
# 6 0.000000 0.000000 0.000000 0.000000 0.000000 0.029045
#
#
# Mechanical properties :
#
#
# Convention : Reuss Voigt Hill
#
# Bulk Modulus (GPa) = 34.01760 63.82395 48.92078
# Shear Modulus (GPa) = 18.93474 42.53155 30.73314
#
# Velocity S-wave (km/s) = 3.14604 4.71509 4.00809
# Velocity P-wave (km/s) = 5.56583 7.93756 6.85504
#
# Compressibility (1/GPa) = 0.02939655
#
# Stress axis : x y z
#
# Youngs Moduli (GPa) = 77.52907 101.47416 30.29253
#
# Poissons Ratio (x) = 0.61851 0.20194
# Poissons Ratio (y) = 0.47256 0.01280
# Poissons Ratio (z) = 0.51683 0.04287
#
# Static dielectric constant tensor:
#      x y z
#    x 1.651150 0.000000 0.000000 
#    y 0.000000 1.962880 0.000000 
#    z 0.000000 0.000000 -0.126450 
# 
# From -- ./inp_files/26171.got.cif
#   From: 2010.05.17/outbox.cif.g08.bks.cpg/sg65_14_cif.got.tgz:26171.got - 2010.06.03 17:01:31.
