data_PCOD9494586
_publ_section_title
;
Structure prediction by ZEFSAII (Michael W. Deem and Ramdas Pophale) SiO2 
 PCOD9494586
Probable space group: C M M M
;
_chemical_formula_sum "Si O2"
_cell_formula_units_Z 48
_cell_length_a 24.000000
_cell_length_b 9.000000
_cell_length_c 27.000000
_cell_angle_alpha 90.000000
_cell_angle_beta 90.000000
_cell_angle_gamma 90.000000
_cell_volume 5832.000000
_symmetry_space_group_name_H-M "C M M M"
_symmetry_group_IT_number 65
_symmetry_cell_setting 'orthorhombic'
loop_
_space_group_symop_operation_xyz
x,y,z
-x,-y,z
x,-y,-z
-x,y,-z
-x,-y,-z
x,y,-z
-x,y,z
x,-y,z
1/2+x,1/2+y,z
1/2-x,1/2-y,z
1/2+x,1/2-y,-z
1/2-x,1/2+y,-z
1/2-x,1/2-y,-z
1/2+x,1/2+y,-z
1/2-x,1/2+y,z
1/2+x,1/2-y,z
loop_
_atom_site_type_symbol
_atom_site_label
_atom_site_fract_x
_atom_site_fract_y
_atom_site_fract_z
Si Si1 0.434633 0.679244 0.442616
Si Si2 0.311110 0.679050 0.944097
Si Si3 0.500000 0.824010 0.713808
Si Si4 0.624287 0.319352 0.156799
Si Si5 0.887499 0.322649 0.346217
Si Si6 0.811702 0.319572 0.748033
Si Si7 0.000000 0.821990 0.820484
O O1 0.421119 0.720738 0.500000
O O2 0.500000 0.722806 0.434064
O O3 0.432399 0.500000 0.439714
O O4 0.394922 0.746095 0.399921
O O5 0.306453 0.500000 0.942973
O O6 0.250000 0.750000 0.939243
O O7 0.347008 0.721684 0.895651
O O8 0.332245 0.718711 0.000000
O O9 0.554614 0.791092 0.682077
O O10 0.500000 0.734646 0.764364
O O11 0.500000 0.000000 0.725309
O O12 0.628266 0.500000 0.162207
O O13 0.653566 0.244776 0.204879
O O14 0.558986 0.275535 0.156032
O O15 0.882840 0.500000 0.354012
O O16 0.840718 0.280704 0.305118
O O17 0.810271 0.500000 0.751537
O O18 0.750000 0.250000 0.749976
O O19 0.000000 0.000000 0.820958
#
# Coordination Sequence:
#
# PCOD9494586 Si02
#       7
#    16  16   8  16  16  16   8
#     4   9  18  31  48  74 106 136 166 202 246 295
#     4   9  18  33  52  73  98 130 170 215 258 299
#     4  10  18  32  49  72 103 134 168 205 250 303
#     4  10  20  34  52  76 105 135 169 208 253 305
#     4  10  20  33  51  74 102 133 166 205 250 300
#     4  11  23  37  53  75 103 134 170 212 257 303
#     4  10  20  32  49  75 105 136 170 204 246 305
#
# _framework density 8.2304530000000007
#
# number of rings (size 3 to 8) (size 9 to 14) (size 15 to 20)
#    0.000    2.167    2.500    1.500    0.000    4.333 
#    0.000    1.250    0.000    3.000    0.000    0.000 
#    0.000    4.667    0.000    0.000    0.000    0.000 
#
# Total GULP energy -267504.040779 kJ/mol
# GULP energy per Si atom -5573.000850 kJ/mol
# Density = 0.821172 g / cm^3
# Si number density = 8.230453 Si / 1000 Ang^3
#
#
#
# Elastic Constant Matrix: (Units=GPa)
#
#
# Indices 1 2 3 4 5 6 
#
# 1 116.5453 28.9464 74.9826 0.0000 0.0000 0.0000
# 2 28.9464 25.8089 38.3226 0.0000 0.0000 0.0000
# 3 74.9826 38.3226 169.8766 0.0000 0.0000 0.0000
# 4 0.0000 0.0000 0.0000 30.0987 0.0000 0.0000
# 5 0.0000 0.0000 0.0000 0.0000 20.3015 0.0000
# 6 0.0000 0.0000 0.0000 0.0000 0.0000 18.7460
#
#
#
# Elastic Compliance Matrix: (Units=1/GPa)
#
#
# Indices 1 2 3 4 5 6 
#
# 1 0.013331 -0.009344 -0.003776 0.000000 0.000000 0.000000
# 2 -0.009344 0.064813 -0.010497 0.000000 0.000000 0.000000
# 3 -0.003776 -0.010497 0.009921 0.000000 0.000000 0.000000
# 4 0.000000 0.000000 0.000000 0.033224 0.000000 0.000000
# 5 0.000000 0.000000 0.000000 0.000000 0.049258 0.000000
# 6 0.000000 0.000000 0.000000 0.000000 0.000000 0.053345
#
#
# Mechanical properties :
#
#
# Convention : Reuss Voigt Hill
#
# Bulk Modulus (GPa) = 24.49145 66.30380 45.39762
# Shear Modulus (GPa) = 17.56020 25.16119 21.36070
#
# Velocity S-wave (km/s) = 3.26971 3.91390 3.60622
# Velocity P-wave (km/s) = 5.40051 7.79691 6.70661
#
# Compressibility (1/GPa) = 0.04083058
#
# Stress axis : x y z
#
# Youngs Moduli (GPa) = 75.01516 15.42911 100.79304
#
# Poissons Ratio (x) = 0.14417 0.38060
# Poissons Ratio (y) = 0.70096 1.05799
# Poissons Ratio (z) = 0.28326 0.16195
#
# Static dielectric constant tensor:
#      x y z
#    x 1.556090 0.000000 0.000000 
#    y 0.000000 1.554630 0.000000 
#    z 0.000000 0.000000 1.552940 
# 
# From -- ./inp_files/75739.got.cif
#   From: 2010.05.17/outbox.ucp.g08.bks.cvg/sg65_38_cif.got.tgz:75739.got - 2010.06.11 16:39:57.
