data_PCOD9494209
_publ_section_title
;
Structure prediction by ZEFSAII (Michael W. Deem and Ramdas Pophale) SiO2 
 PCOD9494209
Probable space group: C M M M
;
_chemical_formula_sum "Si O2"
_cell_formula_units_Z 96
_cell_length_a 14.558548
_cell_length_b 7.326534
_cell_length_c 34.507310
_cell_angle_alpha 90.000000
_cell_angle_beta 90.000000
_cell_angle_gamma 90.000000
_cell_volume 3680.677255
_symmetry_space_group_name_H-M "C M M M"
_symmetry_group_IT_number 65
_symmetry_cell_setting 'orthorhombic'
loop_
_space_group_symop_operation_xyz
x,y,z
-x,-y,z
x,-y,-z
-x,y,-z
-x,-y,-z
x,y,-z
-x,y,z
x,-y,z
1/2+x,1/2+y,z
1/2-x,1/2-y,z
1/2+x,1/2-y,-z
1/2-x,1/2+y,-z
1/2-x,1/2-y,-z
1/2+x,1/2+y,-z
1/2-x,1/2+y,z
1/2+x,1/2-y,z
loop_
_atom_site_type_symbol
_atom_site_label
_atom_site_fract_x
_atom_site_fract_y
_atom_site_fract_z
Si Si1 0.390842 0.793169 0.209905
Si Si2 0.360274 0.781680 0.041750
Si Si3 0.393219 0.281790 0.458664
Si Si4 0.141773 0.717162 0.875007
Si Si5 0.394902 0.216511 0.374320
Si Si6 0.109993 0.280120 0.292131
O O1 0.500000 0.808248 0.215678
O O2 0.381781 0.707633 0.167426
O O3 0.356402 0.708726 0.250393
O O4 0.351922 0.000000 0.206722
O O5 0.250000 0.750000 0.041437
O O6 0.394830 0.713151 0.083531
O O7 0.375354 0.000000 0.041928
O O8 0.394162 0.712403 0.000000
O O9 0.354397 0.214392 0.500000
O O10 0.500000 0.218464 0.457705
O O11 0.394302 0.500000 0.460440
O O12 0.352044 0.239814 0.416698
O O13 0.119830 0.500000 0.873978
O O14 0.250000 0.750000 0.877527
O O15 0.500000 0.288397 0.377438
O O16 0.353474 0.287208 0.333776
O O17 0.401086 0.000000 0.368883
O O18 0.121694 0.500000 0.289496
O O19 0.000000 0.246135 0.294782
#
# Coordination Sequence:
#
# PCOD9494209 Si02
#       6
#    16  16  16  16  16  16
#     4   8  13  22  37  55  73  95 125 156 183 218
#     4   8  13  21  33  50  72  95 119 148 180 214
#     4   8  13  19  24  31  47  72  99 126 158 196
#     4   9  16  25  39  58  77  98 124 154 187 221
#     4   8  12  17  26  39  52  67  92 129 168 198
#     4   7  10  17  29  45  62  78 102 140 177 203
#
# _framework density 26.082156999999999
#
# number of rings (size 3 to 8) (size 9 to 14) (size 15 to 20)
#    0.000    4.000    0.000    2.500    0.000    0.333 
#    0.000    1.667    0.000    2.000    0.000    5.833 
#    0.000    0.000    0.000   27.000    0.000   13.500 
#
# Total GULP energy -267251.125792 kJ/mol
# GULP energy per Si atom -5567.731787 kJ/mol
# Density = 2.602279 g / cm^3
# Si number density = 26.082157 Si / 1000 Ang^3
#
#
#
# Elastic Constant Matrix: (Units=GPa)
#
#
# Indices 1 2 3 4 5 6 
#
# 1 87.3466 -9.9184 16.6961 0.0000 0.0000 0.0000
# 2 -9.9184 109.5778 17.2579 0.0000 0.0000 0.0000
# 3 16.6961 17.2579 427.0204 0.0000 0.0000 0.0000
# 4 0.0000 0.0000 0.0000 -3.8591 0.0000 0.0000
# 5 0.0000 0.0000 0.0000 0.0000 5.0640 0.0000
# 6 0.0000 0.0000 0.0000 0.0000 0.0000 -11.4108
#
#
#
# Elastic Compliance Matrix: (Units=1/GPa)
#
#
# Indices 1 2 3 4 5 6 
#
# 1 0.011674 0.001136 -0.000502 0.000000 0.000000 0.000000
# 2 0.001136 0.009295 -0.000420 0.000000 0.000000 0.000000
# 3 -0.000502 -0.000420 0.002378 0.000000 0.000000 0.000000
# 4 0.000000 0.000000 0.000000 -0.259130 0.000000 0.000000
# 5 0.000000 0.000000 0.000000 0.000000 0.197472 0.000000
# 6 0.000000 0.000000 0.000000 0.000000 0.000000 -0.087636
#
#
# Mechanical properties :
#
#
# Convention : Reuss Voigt Hill
#
# Bulk Modulus (GPa) = 42.06332 74.66844 58.36588
# Shear Modulus (GPa) = -42.21237 37.95277 -2.12980
#
# Velocity S-wave (km/s) = -4.02735 3.81875 -0.90462
# Velocity P-wave (km/s) = 2.33747 6.93787 4.61900
#
# Compressibility (1/GPa) = 0.02377368
#
# Stress axis : x y z
#
# Youngs Moduli (GPa) = 85.66320 107.58589 420.44625
#
# Poissons Ratio (x) = -0.12219 0.21120
# Poissons Ratio (y) = -0.09729 0.17661
# Poissons Ratio (z) = 0.04303 0.04519
#
# Static dielectric constant tensor:
#      x y z
#    x 2.811960 0.000000 0.000000 
#    y 0.000000 1.923410 0.000000 
#    z 0.000000 0.000000 2.197600 
# 
# From -- ./inp_files/75594.got.cif
#   From: 2010.05.17/outbox.cif.g08.bks.cpg/sg65_38_cif.got.tgz:75594.got - 2010.06.03 17:01:31.
