data_PCOD9494594
_publ_section_title
;
Structure prediction by ZEFSAII (Michael W. Deem and Ramdas Pophale) SiO2 
 PCOD9494594
Probable space group: C M M M
;
_chemical_formula_sum "Si O2"
_cell_formula_units_Z 44
_cell_length_a 15.000000
_cell_length_b 15.000000
_cell_length_c 21.000000
_cell_angle_alpha 90.000000
_cell_angle_beta 90.000000
_cell_angle_gamma 90.000000
_cell_volume 4725.000000
_symmetry_space_group_name_H-M "C M M M"
_symmetry_group_IT_number 65
_symmetry_cell_setting 'orthorhombic'
loop_
_space_group_symop_operation_xyz
x,y,z
-x,-y,z
x,-y,-z
-x,y,-z
-x,-y,-z
x,y,-z
-x,y,z
x,-y,z
1/2+x,1/2+y,z
1/2-x,1/2-y,z
1/2+x,1/2-y,-z
1/2-x,1/2+y,-z
1/2-x,1/2-y,-z
1/2+x,1/2+y,-z
1/2-x,1/2+y,z
1/2+x,1/2-y,z
loop_
_atom_site_type_symbol
_atom_site_label
_atom_site_fract_x
_atom_site_fract_y
_atom_site_fract_z
Si Si1 0.895828 0.500000 0.755871
Si Si2 0.500000 0.606085 0.576230
Si Si3 0.341802 0.500000 0.194396
Si Si4 0.106551 0.644775 0.139851
Si Si5 0.823115 0.818152 0.638018
Si Si6 0.740691 0.000000 0.329290
Si Si7 0.397459 0.695943 0.778453
Si Si8 0.282868 0.000000 0.927699
O O1 0.872209 0.587180 0.796771
O O2 0.862734 0.500000 0.684394
O O3 0.000000 0.500000 0.755675
O O4 0.500000 0.500000 0.598390
O O5 0.500000 0.603836 0.500000
O O6 0.585272 0.660147 0.602142
O O7 0.276847 0.500000 0.256111
O O8 0.393585 0.407653 0.202742
O O9 0.292072 0.500000 0.126954
O O10 0.134165 0.743487 0.162118
O O11 0.157683 0.588714 0.086141
O O12 0.000000 0.642385 0.127033
O O13 0.750000 0.750000 0.611918
O O14 0.774893 0.912798 0.638536
O O15 0.846324 0.792320 0.711635
O O16 0.500000 0.722431 0.766854
O O17 0.250676 0.000000 0.000000
#
# Coordination Sequence:
#
# PCOD9494594 Si02
#       8
#     8   8   8  16  16   8  16   8
#     4   9  15  28  47  74 115 154 177 234 315 377
#     4  11  24  46  68  89 131 183 226 258 294 369
#     4  10  21  32  53  78 114 150 191 241 305 350
#     4   9  18  32  51  76 105 144 189 240 303 354
#     4  11  22  35  62  98 127 160 211 263 314 370
#     4  10  18  33  53  86 126 154 196 260 318 373
#     4  10  20  35  58  85 119 148 188 247 311 370
#     4  11  22  37  53  75 111 153 198 240 298 379
#
# _framework density 9.3121690000000008
#
# number of rings (size 3 to 8) (size 9 to 14) (size 15 to 20)
#    0.000    1.909    3.636    2.182    2.545    1.091 
#    1.636    1.818    0.000    2.182    0.000    0.636 
#    0.000    0.000    0.000    0.000    0.000    0.000 
#
# Total GULP energy -245036.410891 kJ/mol
# GULP energy per Si atom -5569.009338 kJ/mol
# Density = 0.929097 g / cm^3
# Si number density = 9.312169 Si / 1000 Ang^3
#
#
#
# Elastic Constant Matrix: (Units=GPa)
#
#
# Indices 1 2 3 4 5 6 
#
# 1 47.5312 34.1578 23.4095 0.0000 0.0000 0.0000
# 2 34.1578 89.7977 24.6231 0.0000 0.0000 0.0000
# 3 23.4095 24.6231 52.4443 0.0000 0.0000 0.0000
# 4 0.0000 0.0000 0.0000 10.3083 0.0000 0.0000
# 5 0.0000 0.0000 0.0000 0.0000 8.2506 0.0000
# 6 0.0000 0.0000 0.0000 0.0000 0.0000 8.6894
#
#
#
# Elastic Compliance Matrix: (Units=1/GPa)
#
#
# Indices 1 2 3 4 5 6 
#
# 1 0.033089 -0.009798 -0.010170 0.000000 0.000000 0.000000
# 2 -0.009798 0.015683 -0.002990 0.000000 0.000000 0.000000
# 3 -0.010170 -0.002990 0.025011 0.000000 0.000000 0.000000
# 4 0.000000 0.000000 0.000000 0.097009 0.000000 0.000000
# 5 0.000000 0.000000 0.000000 0.000000 0.121204 0.000000
# 6 0.000000 0.000000 0.000000 0.000000 0.000000 0.115083
#
#
# Mechanical properties :
#
#
# Convention : Reuss Voigt Hill
#
# Bulk Modulus (GPa) = 35.88342 39.35044 37.61693
# Shear Modulus (GPa) = 10.81592 12.62185 11.71888
#
# Velocity S-wave (km/s) = 2.41247 2.60610 2.51116
# Velocity P-wave (km/s) = 5.20277 5.49819 5.35252
#
# Compressibility (1/GPa) = 0.02786803
#
# Stress axis : x y z
#
# Youngs Moduli (GPa) = 30.22194 63.76353 39.98250
#
# Poissons Ratio (x) = 0.62475 0.40660
# Poissons Ratio (y) = 0.29611 0.11954
# Poissons Ratio (z) = 0.30734 0.19064
#
# Static dielectric constant tensor:
#      x y z
#    x 1.797500 0.000000 0.000000 
#    y 0.000000 1.741100 0.000000 
#    z 0.000000 0.000000 1.609920 
# 
# From -- ./inp_files/62564.got.cif
#   From: 2010.05.17/outbox.ucp.g08.bks.cvg/sg65_32_cif.got.tgz:62564.got - 2010.06.11 16:39:57.
