data_PCOD9494517
_publ_section_title
;
Structure prediction by ZEFSAII (Michael W. Deem and Ramdas Pophale) SiO2 
 PCOD9494517
Probable space group: C M M M
;
_chemical_formula_sum "Si O2"
_cell_formula_units_Z 72
_cell_length_a 17.494195
_cell_length_b 26.776800
_cell_length_c 7.385180
_cell_angle_alpha 90.000000
_cell_angle_beta 90.000000
_cell_angle_gamma 90.000000
_cell_volume 3459.503090
_symmetry_space_group_name_H-M "C M M M"
_symmetry_group_IT_number 65
_symmetry_cell_setting 'orthorhombic'
loop_
_space_group_symop_operation_xyz
x,y,z
-x,-y,z
x,-y,-z
-x,y,-z
-x,-y,-z
x,y,-z
-x,y,z
x,-y,z
1/2+x,1/2+y,z
1/2-x,1/2-y,z
1/2+x,1/2-y,-z
1/2-x,1/2+y,-z
1/2-x,1/2-y,-z
1/2+x,1/2+y,-z
1/2-x,1/2+y,z
1/2+x,1/2-y,z
loop_
_atom_site_type_symbol
_atom_site_label
_atom_site_fract_x
_atom_site_fract_y
_atom_site_fract_z
Si Si1 0.418499 0.160440 0.720143
Si Si2 0.703816 0.587222 0.218595
Si Si3 0.124021 0.446563 0.286756
Si Si4 0.911050 0.000000 0.220959
Si Si5 0.751499 0.304810 0.206813
O O1 0.412917 0.161520 0.500000
O O2 0.500000 0.183275 0.770792
O O3 0.415642 0.102975 0.782246
O O4 0.341390 0.183223 0.794393
O O5 0.784948 0.562294 0.267548
O O6 0.636064 0.549871 0.277735
O O7 0.709836 0.645236 0.282842
O O8 0.700747 0.589549 0.000000
O O9 0.106524 0.448208 0.500000
O O10 0.103395 0.500000 0.207643
O O11 0.000000 0.000000 0.277074
O O12 0.910260 0.000000 0.000000
O O13 0.750000 0.250000 0.294129
O O14 0.722722 0.299658 0.000000
#
# Coordination Sequence:
#
# PCOD9494517 Si02
#       5
#    16  16  16   8  16
#     4   9  18  31  46  67  94 122 152 186 226 271
#     4   9  16  28  46  65  88 117 149 186 226 272
#     4   9  16  26  43  66  91 120 150 180 218 265
#     4   9  16  26  43  67  90 113 146 188 231 271
#     4   9  18  32  49  69  91 118 155 193 232 277
#
# _framework density 20.812237
#
# number of rings (size 3 to 8) (size 9 to 14) (size 15 to 20)
#    0.000    3.000    1.111    0.000    0.000    1.333 
#    0.000    3.333    0.000    5.333    0.000    6.222 
#    0.000    0.000    0.000    0.000    0.000    0.000 
#
# Total GULP energy -200523.275542 kJ/mol
# GULP energy per Si atom -5570.090987 kJ/mol
# Density = 2.076487 g / cm^3
# Si number density = 20.812237 Si / 1000 Ang^3
#
#
#
# Elastic Constant Matrix: (Units=GPa)
#
#
# Indices 1 2 3 4 5 6 
#
# 1 113.3901 47.6083 -7.2273 0.0000 0.0000 0.0000
# 2 47.6083 171.2478 5.6386 0.0000 0.0000 0.0000
# 3 -7.2273 5.6386 76.2317 0.0000 0.0000 0.0000
# 4 0.0000 0.0000 0.0000 0.0133 0.0000 0.0000
# 5 0.0000 0.0000 0.0000 0.0000 -17.1003 0.0000
# 6 0.0000 0.0000 0.0000 0.0000 0.0000 45.0540
#
#
#
# Elastic Compliance Matrix: (Units=1/GPa)
#
#
# Indices 1 2 3 4 5 6 
#
# 1 0.010087 -0.002843 0.001167 0.000000 0.000000 0.000000
# 2 -0.002843 0.006655 -0.000762 0.000000 0.000000 0.000000
# 3 0.001167 -0.000762 0.013285 0.000000 0.000000 0.000000
# 4 0.000000 0.000000 0.000000 75.460433 0.000000 0.000000
# 5 0.000000 0.000000 0.000000 0.000000 -0.058478 0.000000
# 6 0.000000 0.000000 0.000000 0.000000 0.000000 0.022196
#
#
# Mechanical properties :
#
#
# Convention : Reuss Voigt Hill
#
# Bulk Modulus (GPa) = 39.75980 50.32319 45.04150
# Shear Modulus (GPa) = 0.06625 26.58338 13.32482
#
# Velocity S-wave (km/s) = 0.17861 3.57780 2.53304
# Velocity P-wave (km/s) = 4.38042 6.42648 5.49944
#
# Compressibility (1/GPa) = 0.02515103
#
# Stress axis : x y z
#
# Youngs Moduli (GPa) = 99.13742 150.26608 75.27372
#
# Poissons Ratio (x) = 0.42716 -0.08781
# Poissons Ratio (y) = 0.28182 0.05734
# Poissons Ratio (z) = -0.11565 0.11446
#
# Static dielectric constant tensor:
#      x y z
#    x 1.716740 0.000000 0.000000 
#    y 0.000000 1.843730 0.000000 
#    z 0.000000 0.000000 1.787370 
# 
# From -- ./inp_files/9462.got.cif
#   From: 2010.05.17/outbox.cif.g08.bks.cpg/sg65_5_cif.got.tgz:9462.got - 2010.06.03 17:01:31.
