data_PCOD9494411
_publ_section_title
;
Structure prediction by ZEFSAII (Michael W. Deem and Ramdas Pophale) SiO2 
 PCOD9494411
Probable space group: C M M M
;
_chemical_formula_sum "Si O2"
_cell_formula_units_Z 88
_cell_length_a 16.098087
_cell_length_b 7.305946
_cell_length_c 32.745476
_cell_angle_alpha 90.000000
_cell_angle_beta 90.000000
_cell_angle_gamma 90.000000
_cell_volume 3851.252879
_symmetry_space_group_name_H-M "C M M M"
_symmetry_group_IT_number 65
_symmetry_cell_setting 'orthorhombic'
loop_
_space_group_symop_operation_xyz
x,y,z
-x,-y,z
x,-y,-z
-x,y,-z
-x,-y,-z
x,y,-z
-x,y,z
x,-y,z
1/2+x,1/2+y,z
1/2-x,1/2-y,z
1/2+x,1/2-y,-z
1/2-x,1/2+y,-z
1/2-x,1/2-y,-z
1/2+x,1/2+y,-z
1/2-x,1/2+y,z
1/2+x,1/2-y,z
loop_
_atom_site_type_symbol
_atom_site_label
_atom_site_fract_x
_atom_site_fract_y
_atom_site_fract_z
Si Si1 0.848075 0.717891 0.956292
Si Si2 0.500000 0.776317 0.453008
Si Si3 0.848988 0.718871 0.603728
Si Si4 0.401635 0.219979 0.868335
Si Si5 0.900286 0.286659 0.781009
Si Si6 0.347993 0.217361 0.693692
O O1 0.865722 0.500000 0.955546
O O2 0.750000 0.750000 0.958251
O O3 0.873100 0.792196 0.912091
O O4 0.616885 0.713770 0.000000
O O5 0.500000 0.718348 0.500000
O O6 0.415987 0.717288 0.429458
O O7 0.500000 0.000000 0.452831
O O8 0.856589 0.500000 0.605227
O O9 0.750000 0.750000 0.596206
O O10 0.874297 0.787690 0.649095
O O11 0.500000 0.248577 0.867859
O O12 0.368160 0.289204 0.824500
O O13 0.386752 0.000000 0.868169
O O14 0.873457 0.500000 0.779922
O O15 0.878578 0.206438 0.736946
O O16 0.000000 0.283941 0.783430
O O17 0.250000 0.250000 0.693828
O O18 0.367738 0.000000 0.693960
#
# Coordination Sequence:
#
# PCOD9494411 Si02
#       6
#    16   8  16  16  16  16
#     4   9  17  28  42  60  81 105 134 168 207 251
#     4   9  18  32  51  75  99 127 165 203 240 284
#     4   9  18  32  50  72  99 128 160 200 241 283
#     4   8  14  25  40  60  84 106 134 174 214 248
#     4   8  14  24  40  62  85 109 139 176 213 250
#     4   9  17  28  44  66  90 115 146 181 219 263
#
# _framework density 22.849708
#
# number of rings (size 3 to 8) (size 9 to 14) (size 15 to 20)
#    0.000    3.364    0.000    1.091    1.273    1.455 
#    0.000    2.273    0.000    1.636    0.000    5.091 
#    0.000    0.000    0.000    0.000    0.000    0.000 
#
# Total GULP energy -245019.402489 kJ/mol
# GULP energy per Si atom -5568.622784 kJ/mol
# Density = 2.279770 g / cm^3
# Si number density = 22.849708 Si / 1000 Ang^3
#
#
#
# Elastic Constant Matrix: (Units=GPa)
#
#
# Indices 1 2 3 4 5 6 
#
# 1 43.8639 2.9219 98.3596 0.0000 0.0000 0.0000
# 2 2.9219 93.7373 15.6713 0.0000 0.0000 0.0000
# 3 98.3596 15.6713 320.0290 0.0000 0.0000 0.0000
# 4 0.0000 0.0000 0.0000 -18.3189 0.0000 0.0000
# 5 0.0000 0.0000 0.0000 0.0000 50.3187 0.0000
# 6 0.0000 0.0000 0.0000 0.0000 0.0000 7.0258
#
#
#
# Elastic Compliance Matrix: (Units=1/GPa)
#
#
# Indices 1 2 3 4 5 6 
#
# 1 0.073557 0.001499 -0.022681 0.000000 0.000000 0.000000
# 2 0.001499 0.010787 -0.000989 0.000000 0.000000 0.000000
# 3 -0.022681 -0.000989 0.010144 0.000000 0.000000 0.000000
# 4 0.000000 0.000000 0.000000 -0.054589 0.000000 0.000000
# 5 0.000000 0.000000 0.000000 0.000000 0.019873 0.000000
# 6 0.000000 0.000000 0.000000 0.000000 0.000000 0.142333
#
#
# Mechanical properties :
#
#
# Convention : Reuss Voigt Hill
#
# Bulk Modulus (GPa) = 19.94162 76.83730 48.38946
# Shear Modulus (GPa) = 18.99962 30.51695 24.75829
#
# Velocity S-wave (km/s) = 2.88671 3.65848 3.29527
# Velocity P-wave (km/s) = 4.45612 7.17957 5.97509
#
# Compressibility (1/GPa) = 0.05014638
#
# Stress axis : x y z
#
# Youngs Moduli (GPa) = 13.59484 92.70661 98.58005
#
# Poissons Ratio (x) = -0.13897 2.23589
# Poissons Ratio (y) = -0.02038 0.09749
# Poissons Ratio (z) = 0.30834 0.09168
#
# Static dielectric constant tensor:
#      x y z
#    x 1.792870 0.000000 0.000000 
#    y 0.000000 1.864910 0.000000 
#    z 0.000000 0.000000 1.945560 
# 
# From -- ./inp_files/74249.got.cif
#   From: 2010.05.17/outbox.cif.g08.bks.cpg/sg65_38_cif.got.tgz:74249.got - 2010.06.03 17:01:31.
