data_PCOD9494817
_publ_section_title
;
Structure prediction by ZEFSAII (Michael W. Deem and Ramdas Pophale) SiO2 
 PCOD9494817
Probable space group: C M M M
;
_chemical_formula_sum "Si O2"
_cell_formula_units_Z 48
_cell_length_a 21.000000
_cell_length_b 9.000000
_cell_length_c 27.000000
_cell_angle_alpha 90.000000
_cell_angle_beta 90.000000
_cell_angle_gamma 90.000000
_cell_volume 5103.000000
_symmetry_space_group_name_H-M "C M M M"
_symmetry_group_IT_number 65
_symmetry_cell_setting 'orthorhombic'
loop_
_space_group_symop_operation_xyz
x,y,z
-x,-y,z
x,-y,-z
-x,y,-z
-x,-y,-z
x,y,-z
-x,y,z
x,-y,z
1/2+x,1/2+y,z
1/2-x,1/2-y,z
1/2+x,1/2-y,-z
1/2-x,1/2+y,-z
1/2-x,1/2-y,-z
1/2+x,1/2+y,-z
1/2-x,1/2+y,z
1/2+x,1/2-y,z
loop_
_atom_site_type_symbol
_atom_site_label
_atom_site_fract_x
_atom_site_fract_y
_atom_site_fract_z
Si Si1 0.927613 0.670709 0.940467
Si Si2 0.313158 0.676274 0.110663
Si Si3 0.814264 0.170127 0.559553
Si Si4 0.685323 0.822091 0.219148
Si Si5 0.571858 0.175258 0.612927
Si Si6 0.927041 0.823745 0.279799
O O1 0.912835 0.500000 0.925280
O O2 0.875803 0.781764 0.919460
O O3 0.000000 0.704264 0.924423
O O4 0.926645 0.674339 0.000000
O O5 0.305092 0.500000 0.115909
O O6 0.250000 0.750000 0.087229
O O7 0.319787 0.754179 0.164102
O O8 0.812365 0.167728 0.500000
O O9 0.750000 0.250000 0.577455
O O10 0.875031 0.261599 0.576936
O O11 0.817288 0.000000 0.577225
O O12 0.750000 0.750000 0.240914
O O13 0.624003 0.767463 0.248739
O O14 0.690173 0.000000 0.217787
O O15 0.500000 0.194960 0.593250
O O16 0.576331 0.265350 0.664078
O O17 0.581305 0.000000 0.622334
O O18 0.000000 0.799676 0.262593
O O19 0.913909 0.000000 0.277373
#
# Coordination Sequence:
#
# PCOD9494817 Si02
#       6
#    16  16  16  16  16  16
#     4   9  19  37  59  82 110 144 182 225 273 324
#     4  11  22  37  57  81 111 145 183 226 272 323
#     4  10  21  37  57  81 110 144 183 227 274 324
#     4  11  22  38  59  82 111 144 182 226 272 324
#     4  10  21  37  57  82 112 145 182 224 271 323
#     4  10  21  38  59  83 112 144 181 225 271 321
#
# _framework density 9.4062319999999993
#
# number of rings (size 3 to 8) (size 9 to 14) (size 15 to 20)
#    0.000    1.833    0.000    6.000    0.000    5.667 
#    0.000    5.833    0.000    0.000    0.000    0.000 
#    0.000    0.000    0.000    0.000    0.000    0.000 
#
# Total GULP energy -268008.535348 kJ/mol
# GULP energy per Si atom -5583.511153 kJ/mol
# Density = 0.938482 g / cm^3
# Si number density = 9.406232 Si / 1000 Ang^3
#
#
#
# Elastic Constant Matrix: (Units=GPa)
#
#
# Indices 1 2 3 4 5 6 
#
# 1 123.6334 85.9548 33.1911 0.0000 0.0000 0.0000
# 2 85.9548 167.1428 25.4727 0.0000 0.0000 0.0000
# 3 33.1911 25.4727 13.1272 0.0000 0.0000 0.0000
# 4 0.0000 0.0000 0.0000 27.7234 0.0000 0.0000
# 5 0.0000 0.0000 0.0000 0.0000 32.1735 0.0000
# 6 0.0000 0.0000 0.0000 0.0000 0.0000 35.8123
#
#
#
# Elastic Compliance Matrix: (Units=1/GPa)
#
#
# Indices 1 2 3 4 5 6 
#
# 1 0.027959 -0.005118 -0.060760 0.000000 0.000000 0.000000
# 2 -0.005118 0.009432 -0.005362 0.000000 0.000000 0.000000
# 3 -0.060760 -0.005362 0.240210 0.000000 0.000000 0.000000
# 4 0.000000 0.000000 0.000000 0.036071 0.000000 0.000000
# 5 0.000000 0.000000 0.000000 0.000000 0.031081 0.000000
# 6 0.000000 0.000000 0.000000 0.000000 0.000000 0.027923
#
#
# Mechanical properties :
#
#
# Convention : Reuss Voigt Hill
#
# Bulk Modulus (GPa) = 7.40078 65.90450 36.65264
# Shear Modulus (GPa) = 8.92544 29.76083 19.34314
#
# Velocity S-wave (km/s) = 2.18053 3.98172 3.21005
# Velocity P-wave (km/s) = 3.20658 7.49981 5.76755
#
# Compressibility (1/GPa) = 0.13512083
#
# Stress axis : x y z
#
# Youngs Moduli (GPa) = 35.76707 106.02122 4.16302
#
# Poissons Ratio (x) = 0.54263 0.25295
# Poissons Ratio (y) = 0.18306 0.02232
# Poissons Ratio (z) = 2.17321 0.56845
#
# Static dielectric constant tensor:
#      x y z
#    x 1.664640 0.000000 0.000000 
#    y 0.000000 1.631630 0.000000 
#    z 0.000000 0.000000 1.641750 
# 
# From -- ./inp_files/75334.got.cif
#   From: 2010.05.17/outbox.ucp.g08.bks.cvg/sg65_38_cif.got.tgz:75334.got - 2010.06.11 16:39:57.
