data_PCOD9494122
_publ_section_title
;
Structure prediction by ZEFSAII (Michael W. Deem and Ramdas Pophale) SiO2 
 PCOD9494122
Probable space group: C M M M
;
_chemical_formula_sum "Si O2"
_cell_formula_units_Z 88
_cell_length_a 14.012272
_cell_length_b 21.441917
_cell_length_c 15.036604
_cell_angle_alpha 90.000000
_cell_angle_beta 90.000000
_cell_angle_gamma 90.000000
_cell_volume 4517.747269
_symmetry_space_group_name_H-M "C M M M"
_symmetry_group_IT_number 65
_symmetry_cell_setting 'orthorhombic'
loop_
_space_group_symop_operation_xyz
x,y,z
-x,-y,z
x,-y,-z
-x,y,-z
-x,-y,-z
x,y,-z
-x,y,z
x,-y,z
1/2+x,1/2+y,z
1/2-x,1/2-y,z
1/2+x,1/2-y,-z
1/2-x,1/2+y,-z
1/2-x,1/2-y,-z
1/2+x,1/2+y,-z
1/2-x,1/2+y,z
1/2+x,1/2-y,z
loop_
_atom_site_type_symbol
_atom_site_label
_atom_site_fract_x
_atom_site_fract_y
_atom_site_fract_z
Si Si1 0.116240 0.633976 0.000000
Si Si2 0.888884 0.074372 0.095439
Si Si3 0.116980 0.222265 0.000000
Si Si4 0.388692 0.128683 0.198017
Si Si5 0.612471 0.720977 0.797409
Si Si6 0.702714 0.390919 0.717957
Si Si7 0.888509 0.000000 0.606279
O O1 0.150731 0.705378 0.000000
O O2 0.140007 0.607204 0.097368
O O3 0.000000 0.636483 0.000000
O O4 0.840101 0.087993 0.187702
O O5 0.000000 0.093393 0.098733
O O6 0.888359 0.000000 0.089633
O O7 0.849324 0.097563 0.000000
O O8 0.141307 0.201328 0.898793
O O9 0.000000 0.223329 0.000000
O O10 0.500000 0.113918 0.211249
O O11 0.377809 0.204136 0.202645
O O12 0.316043 0.103016 0.270631
O O13 0.500000 0.708265 0.784995
O O14 0.669531 0.681783 0.723056
O O15 0.659919 0.437392 0.645515
O O16 0.883232 0.000000 0.500000
O O17 0.000000 0.000000 0.633837
#
# Coordination Sequence:
#
# PCOD9494122 Si02
#       7
#     8  16   8  16  16  16   8
#     4   7  12  27  45  65 108 165 205 222 248 290
#     4   9  18  31  46  71 110 144 174 221 277 328
#     4   7  12  23  39  67 111 157 190 222 255 304
#     4   9  19  33  50  78 120 161 195 232 260 303
#     4   9  17  29  48  79 117 153 190 227 270 317
#     4  12  21  33  58  83 106 147 194 228 271 337
#     4  11  26  48  68  86 107 130 168 232 301 357
#
# _framework density 19.478732999999998
#
# number of rings (size 3 to 8) (size 9 to 14) (size 15 to 20)
#    0.000    2.636    0.909    4.909    2.545    0.000 
#    0.000    3.182    0.000    3.273    0.000    5.727 
#    0.000    0.000    0.000    0.000    0.000    0.000 
#
# Total GULP energy -245277.293399 kJ/mol
# GULP energy per Si atom -5574.483941 kJ/mol
# Density = 1.943440 g / cm^3
# Si number density = 19.478733 Si / 1000 Ang^3
#
#
#
# Elastic Constant Matrix: (Units=GPa)
#
#
# Indices 1 2 3 4 5 6 
#
# 1 98.8727 11.9779 35.0387 0.0000 0.0000 0.0000
# 2 11.9779 13.3021 18.0449 0.0000 0.0000 0.0000
# 3 35.0387 18.0449 52.0610 0.0000 0.0000 0.0000
# 4 0.0000 0.0000 0.0000 21.4614 0.0000 0.0000
# 5 0.0000 0.0000 0.0000 0.0000 20.4238 0.0000
# 6 0.0000 0.0000 0.0000 0.0000 0.0000 15.5271
#
#
#
# Elastic Compliance Matrix: (Units=1/GPa)
#
#
# Indices 1 2 3 4 5 6 
#
# 1 0.013283 0.000314 -0.009049 0.000000 0.000000 0.000000
# 2 0.000314 0.141901 -0.049396 0.000000 0.000000 0.000000
# 3 -0.009049 -0.049396 0.042419 0.000000 0.000000 0.000000
# 4 0.000000 0.000000 0.000000 0.046595 0.000000 0.000000
# 5 0.000000 0.000000 0.000000 0.000000 0.048963 0.000000
# 6 0.000000 0.000000 0.000000 0.000000 0.000000 0.064403
#
#
# Mechanical properties :
#
#
# Convention : Reuss Voigt Hill
#
# Bulk Modulus (GPa) = 12.29365 32.70652 22.50008
# Shear Modulus (GPa) = 9.98126 18.09409 14.03767
#
# Velocity S-wave (km/s) = 2.26612 3.05112 2.68744
# Velocity P-wave (km/s) = 3.62934 5.40738 4.60499
#
# Compressibility (1/GPa) = 0.08134284
#
# Stress axis : x y z
#
# Youngs Moduli (GPa) = 75.28665 7.04716 23.57416
#
# Poissons Ratio (x) = -0.00222 0.21331
# Poissons Ratio (y) = -0.02368 1.16447
# Poissons Ratio (z) = 0.68124 0.34810
#
# Static dielectric constant tensor:
#      x y z
#    x 1.754900 0.000000 0.000000 
#    y 0.000000 1.820070 0.000000 
#    z 0.000000 0.000000 1.634080 
# 
# From -- ./inp_files/40621.got.cif
#   From: 2010.05.17/outbox.cif.g08.bks.cpg/sg65_21_cif.got.tgz:40621.got - 2010.06.03 17:01:31.
