data_PCOD9494525
_publ_section_title
;
Structure prediction by ZEFSAII (Michael W. Deem and Ramdas Pophale) SiO2 
 PCOD9494525
Probable space group: C M M M
;
_chemical_formula_sum "Si O2"
_cell_formula_units_Z 88
_cell_length_a 44.054589
_cell_length_b 7.692706
_cell_length_c 14.134185
_cell_angle_alpha 90.000000
_cell_angle_beta 90.000000
_cell_angle_gamma 90.000000
_cell_volume 4790.061178
_symmetry_space_group_name_H-M "C M M M"
_symmetry_group_IT_number 65
_symmetry_cell_setting 'orthorhombic'
loop_
_space_group_symop_operation_xyz
x,y,z
-x,-y,z
x,-y,-z
-x,y,-z
-x,-y,-z
x,y,-z
-x,y,z
x,-y,z
1/2+x,1/2+y,z
1/2-x,1/2-y,z
1/2+x,1/2-y,-z
1/2-x,1/2+y,-z
1/2-x,1/2-y,-z
1/2+x,1/2+y,-z
1/2-x,1/2+y,z
1/2+x,1/2-y,z
loop_
_atom_site_type_symbol
_atom_site_label
_atom_site_fract_x
_atom_site_fract_y
_atom_site_fract_z
Si Si1 0.000000 0.713138 0.110138
Si Si2 0.123770 0.709512 0.893810
Si Si3 0.062133 0.708066 0.205082
Si Si4 0.405972 0.290427 0.606715
Si Si5 0.155737 0.791855 0.706529
Si Si6 0.216430 0.208929 0.608422
O O1 0.969558 0.772879 0.163365
O O2 0.000000 0.500000 0.111556
O O3 0.000000 0.764290 0.000000
O O4 0.122059 0.500000 0.896954
O O5 0.091377 0.774551 0.853356
O O6 0.148763 0.755131 0.815805
O O7 0.129310 0.772769 0.000000
O O8 0.061848 0.500000 0.193500
O O9 0.069004 0.744458 0.314883
O O10 0.411444 0.227934 0.500000
O O11 0.404456 0.500000 0.603670
O O12 0.373412 0.226099 0.646896
O O13 0.187790 0.725101 0.667967
O O14 0.155884 0.000000 0.694627
O O15 0.214607 0.274204 0.500000
O O16 0.250000 0.250000 0.645816
O O17 0.214227 0.000000 0.604773
#
# Coordination Sequence:
#
# PCOD9494525 Si02
#       6
#     8  16  16  16  16  16
#     4   9  16  28  48  69  88 114 147 181 220 267
#     4   9  17  29  45  66  91 115 141 179 225 265
#     4   9  17  29  46  68  90 113 145 183 220 260
#     4   9  17  30  47  65  88 119 150 179 215 259
#     4   9  17  29  46  67  89 115 148 182 214 254
#     4   9  17  29  45  66  92 119 145 175 213 257
#
# _framework density 18.371372999999998
#
# number of rings (size 3 to 8) (size 9 to 14) (size 15 to 20)
#    0.000    3.000    0.000    1.091    0.000    5.818 
#    0.000    0.909    0.000    8.727    0.000    0.000 
#    0.000    0.000    0.000    0.000    0.000    0.000 
#
# Total GULP energy -245289.166685 kJ/mol
# GULP energy per Si atom -5574.753788 kJ/mol
# Density = 1.832956 g / cm^3
# Si number density = 18.371373 Si / 1000 Ang^3
#
#
#
# Elastic Constant Matrix: (Units=GPa)
#
#
# Indices 1 2 3 4 5 6 
#
# 1 159.9551 5.3766 102.5588 0.0000 0.0000 0.0000
# 2 5.3766 28.7078 -1.2058 0.0000 0.0000 0.0000
# 3 102.5588 -1.2058 161.4215 0.0000 0.0000 0.0000
# 4 0.0000 0.0000 0.0000 27.0421 0.0000 0.0000
# 5 0.0000 0.0000 0.0000 0.0000 22.9584 0.0000
# 6 0.0000 0.0000 0.0000 0.0000 0.0000 13.1609
#
#
#
# Elastic Compliance Matrix: (Units=1/GPa)
#
#
# Indices 1 2 3 4 5 6 
#
# 1 0.010697 -0.002290 -0.006814 0.000000 0.000000 0.000000
# 2 -0.002290 0.035335 0.001719 0.000000 0.000000 0.000000
# 3 -0.006814 0.001719 0.010537 0.000000 0.000000 0.000000
# 4 0.000000 0.000000 0.000000 0.036979 0.000000 0.000000
# 5 0.000000 0.000000 0.000000 0.000000 0.043557 0.000000
# 6 0.000000 0.000000 0.000000 0.000000 0.000000 0.075983
#
#
# Mechanical properties :
#
#
# Convention : Reuss Voigt Hill
#
# Bulk Modulus (GPa) = 23.92360 62.61597 43.26978
# Shear Modulus (GPa) = 20.67902 28.85594 24.76748
#
# Velocity S-wave (km/s) = 3.35865 3.96751 3.67571
# Velocity P-wave (km/s) = 5.30011 7.42601 6.45123
#
# Compressibility (1/GPa) = 0.04179973
#
# Stress axis : x y z
#
# Youngs Moduli (GPa) = 93.47985 28.30070 94.90470
#
# Poissons Ratio (x) = 0.06480 0.64666
# Poissons Ratio (y) = 0.21404 -0.16311
# Poissons Ratio (z) = 0.63695 -0.04864
#
# Static dielectric constant tensor:
#      x y z
#    x 1.627460 0.000000 0.000000 
#    y 0.000000 1.690060 0.000000 
#    z 0.000000 0.000000 1.622730 
# 
# From -- ./inp_files/33653.got.cif
#   From: 2010.05.17/outbox.cif.g08.bks.cpg/sg65_17_cif.got.tgz:33653.got - 2010.06.03 17:01:31.
