data_PCOD9494578
_publ_section_title
;
Structure prediction by ZEFSAII (Michael W. Deem and Ramdas Pophale) SiO2 
 PCOD9494578
Probable space group: C M M M
;
_chemical_formula_sum "Si O2"
_cell_formula_units_Z 36
_cell_length_a 27.000000
_cell_length_b 9.000000
_cell_length_c 15.000000
_cell_angle_alpha 90.000000
_cell_angle_beta 90.000000
_cell_angle_gamma 90.000000
_cell_volume 3645.000000
_symmetry_space_group_name_H-M "C M M M"
_symmetry_group_IT_number 65
_symmetry_cell_setting 'orthorhombic'
loop_
_space_group_symop_operation_xyz
x,y,z
-x,-y,z
x,-y,-z
-x,y,-z
-x,-y,-z
x,y,-z
-x,y,z
x,-y,z
1/2+x,1/2+y,z
1/2-x,1/2-y,z
1/2+x,1/2-y,-z
1/2-x,1/2+y,-z
1/2-x,1/2-y,-z
1/2+x,1/2+y,-z
1/2-x,1/2+y,z
1/2+x,1/2-y,z
loop_
_atom_site_type_symbol
_atom_site_label
_atom_site_fract_x
_atom_site_fract_y
_atom_site_fract_z
Si Si1 0.888508 0.675133 0.874019
Si Si2 0.500000 0.820186 0.140054
Si Si3 0.201662 0.166577 0.393952
Si Si4 0.601998 0.825171 0.660208
Si Si5 0.000000 0.176946 0.335502
Si Si6 0.693149 0.679881 0.000000
O O1 0.880614 0.500000 0.893362
O O2 0.945816 0.711508 0.902531
O O3 0.890923 0.693227 0.767148
O O4 0.842947 0.764792 0.918259
O O5 0.500000 0.730025 0.232293
O O6 0.500000 0.000000 0.157796
O O7 0.209118 0.153996 0.500000
O O8 0.250000 0.250000 0.356476
O O9 0.151346 0.256136 0.380383
O O10 0.197386 0.000000 0.356633
O O11 0.551570 0.744768 0.629071
O O12 0.597910 0.000000 0.641580
O O13 0.000000 0.000000 0.343580
O O14 0.750000 0.750000 0.000000
O O15 0.697512 0.500000 0.000000
#
# Coordination Sequence:
#
# PCOD9494578 Si02
#       6
#    16   8  16  16   8   8
#     4   9  19  37  59  82 109 142 179 219 266 321
#     4   8  16  33  57  83 110 141 176 215 265 324
#     4  10  21  37  57  82 112 145 182 227 276 323
#     4  10  20  36  59  84 111 146 185 223 269 327
#     4  10  18  30  52  82 116 147 177 222 272 320
#     4  12  26  41  56  75 105 144 184 228 275 322
#
# _framework density 9.8765429999999999
#
# number of rings (size 3 to 8) (size 9 to 14) (size 15 to 20)
#    0.000    2.222    0.000    4.667    0.000    7.111 
#    0.000    2.778    0.000    3.333    0.000    0.000 
#    0.000    0.000    0.000    0.000    0.000    0.000 
#
# Total GULP energy -200716.505218 kJ/mol
# GULP energy per Si atom -5575.458478 kJ/mol
# Density = 0.985406 g / cm^3
# Si number density = 9.876543 Si / 1000 Ang^3
#
#
#
# Elastic Constant Matrix: (Units=GPa)
#
#
# Indices 1 2 3 4 5 6 
#
# 1 219.6023 102.0503 2.6786 0.0000 0.0000 0.0000
# 2 102.0503 147.7374 10.8816 0.0000 0.0000 0.0000
# 3 2.6786 10.8816 6.9724 0.0000 0.0000 0.0000
# 4 0.0000 0.0000 0.0000 21.8284 0.0000 0.0000
# 5 0.0000 0.0000 0.0000 0.0000 28.9751 0.0000
# 6 0.0000 0.0000 0.0000 0.0000 0.0000 41.3140
#
#
#
# Elastic Compliance Matrix: (Units=1/GPa)
#
#
# Indices 1 2 3 4 5 6 
#
# 1 0.006881 -0.005151 0.005395 0.000000 0.000000 0.000000
# 2 -0.005151 0.011503 -0.015974 0.000000 0.000000 0.000000
# 3 0.005395 -0.015974 0.166281 0.000000 0.000000 0.000000
# 4 0.000000 0.000000 0.000000 0.045812 0.000000 0.000000
# 5 0.000000 0.000000 0.000000 0.000000 0.034512 0.000000
# 6 0.000000 0.000000 0.000000 0.000000 0.000000 0.024205
#
#
# Mechanical properties :
#
#
# Convention : Reuss Voigt Hill
#
# Bulk Modulus (GPa) = 6.52715 67.28146 36.90431
# Shear Modulus (GPa) = 13.45087 35.67027 24.56057
#
# Velocity S-wave (km/s) = 2.61233 4.25409 3.52998
# Velocity P-wave (km/s) = 3.52287 7.63314 5.94456
#
# Compressibility (1/GPa) = 0.15320614
#
# Stress axis : x y z
#
# Youngs Moduli (GPa) = 145.31782 86.93199 6.01391
#
# Poissons Ratio (x) = 0.44777 -0.03244
# Poissons Ratio (y) = 0.74850 0.09607
# Poissons Ratio (z) = -0.78398 1.38865
#
# Static dielectric constant tensor:
#      x y z
#    x 1.689020 0.000000 0.000000 
#    y 0.000000 1.679360 0.000000 
#    z 0.000000 0.000000 1.759010 
# 
# From -- ./inp_files/46562.got.cif
#   From: 2010.05.17/outbox.ucp.g08.bks.cvg/sg65_24_cif.got.tgz:46562.got - 2010.06.11 16:39:57.
