data_PCOD9494922
_publ_section_title
;
Structure prediction by ZEFSAII (Michael W. Deem and Ramdas Pophale) SiO2 
 PCOD9494922
Probable space group: C C C M
;
_chemical_formula_sum "Si O2"
_cell_formula_units_Z 128
_cell_length_a 19.617048
_cell_length_b 22.092962
_cell_length_c 19.451230
_cell_angle_alpha 90.000000
_cell_angle_beta 90.000000
_cell_angle_gamma 90.000000
_cell_volume 8430.137718
_symmetry_space_group_name_H-M "C C C M"
_symmetry_group_IT_number 66
_symmetry_cell_setting 'orthorhombic'
loop_
_space_group_symop_operation_xyz
x,y,z
-x,-y,z
x,-y,1/2-z
-x,y,1/2-z
-x,-y,-z
x,y,-z
-x,y,1/2+z
x,-y,1/2+z
1/2+x,1/2+y,z
1/2-x,1/2-y,z
1/2+x,1/2-y,1/2-z
1/2-x,1/2+y,1/2-z
1/2-x,1/2-y,-z
1/2+x,1/2+y,-z
1/2-x,1/2+y,1/2+z
1/2+x,1/2-y,1/2+z
loop_
_atom_site_type_symbol
_atom_site_label
_atom_site_fract_x
_atom_site_fract_y
_atom_site_fract_z
Si Si1 0.354509 0.642158 0.835314
Si Si2 0.596711 0.217547 0.159575
Si Si3 0.096060 0.141505 0.079057
Si Si4 0.045299 0.718826 0.420042
Si Si5 0.488164 0.571577 0.829122
Si Si6 0.148295 0.698557 0.307170
Si Si7 0.201431 0.162208 0.189284
Si Si8 0.772747 0.679323 0.421263
O O1 0.385785 0.710309 0.840798
O O2 0.413314 0.594175 0.851382
O O3 0.330802 0.632592 0.756920
O O4 0.287539 0.643401 0.883042
O O5 0.525570 0.210580 0.120339
O O6 0.602170 0.195934 0.238626
O O7 0.656540 0.181797 0.119774
O O8 0.066873 0.210213 0.080816
O O9 0.167415 0.138550 0.119699
O O10 0.042594 0.102192 0.121264
O O11 0.102330 0.123358 0.000000
O O12 0.040798 0.700485 0.500000
O O13 0.104007 0.687372 0.374909
O O14 0.500000 0.500000 0.830846
O O15 0.500000 0.592498 0.750000
O O16 0.177082 0.767549 0.307673
O O17 0.217174 0.659573 0.305730
O O18 0.780995 0.659900 0.500000
O O19 0.750000 0.750000 0.421584
#
# Coordination Sequence:
#
# PCOD9494922 Si02
#       8
#    16  16  16  16  16  16  16  16
#     4  10  17  29  47  60  82 113 149 191 232 275
#     4  10  16  26  44  63  86 118 148 185 222 272
#     4  10  20  32  46  62  82 116 153 191 235 269
#     4  10  19  27  39  62  91 120 150 185 223 263
#     4  11  22  34  49  66  85 114 155 202 242 276
#     4   9  17  26  42  62  82 112 150 183 222 266
#     4   9  16  29  44  60  81 108 148 190 223 270
#     4   9  17  26  40  65  88 109 142 183 226 270
#
# _framework density 15.183619999999999
#
# number of rings (size 3 to 8) (size 9 to 14) (size 15 to 20)
#    0.000    2.250    3.750    0.750    0.000    1.750 
#    0.000    2.500    0.000    0.000    0.000    0.000 
#    0.000    0.000    0.000    1.125    6.750    5.250 
#
# Total GULP energy -356459.869415 kJ/mol
# GULP energy per Si atom -5569.685460 kJ/mol
# Density = 1.514906 g / cm^3
# Si number density = 15.183620 Si / 1000 Ang^3
#
#
#
# Elastic Constant Matrix: (Units=GPa)
#
#
# Indices 1 2 3 4 5 6 
#
# 1 95.0973 18.1835 50.1459 0.0000 0.0000 0.0000
# 2 18.1835 21.5037 16.5663 0.0000 0.0000 0.0000
# 3 50.1459 16.5663 129.2164 0.0000 0.0000 0.0000
# 4 0.0000 0.0000 0.0000 10.0672 0.0000 0.0000
# 5 0.0000 0.0000 0.0000 0.0000 25.4218 0.0000
# 6 0.0000 0.0000 0.0000 0.0000 0.0000 10.4450
#
#
#
# Elastic Compliance Matrix: (Units=1/GPa)
#
#
# Indices 1 2 3 4 5 6 
#
# 1 0.014597 -0.008854 -0.004530 0.000000 0.000000 0.000000
# 2 -0.008854 0.056970 -0.003868 0.000000 0.000000 0.000000
# 3 -0.004530 -0.003868 0.009993 0.000000 0.000000 0.000000
# 4 0.000000 0.000000 0.000000 0.099332 0.000000 0.000000
# 5 0.000000 0.000000 0.000000 0.000000 0.039336 0.000000
# 6 0.000000 0.000000 0.000000 0.000000 0.000000 0.095740
#
#
# Mechanical properties :
#
#
# Convention : Reuss Voigt Hill
#
# Bulk Modulus (GPa) = 21.25075 46.17875 33.71475
# Shear Modulus (GPa) = 13.65538 19.91492 16.78515
#
# Velocity S-wave (km/s) = 3.00217 3.62554 3.32848
# Velocity P-wave (km/s) = 5.10329 6.92861 6.08478
#
# Compressibility (1/GPa) = 0.04705717
#
# Stress axis : x y z
#
# Youngs Moduli (GPa) = 68.50731 17.55313 100.07284
#
# Poissons Ratio (x) = 0.15541 0.45330
# Poissons Ratio (y) = 0.60653 0.38708
# Poissons Ratio (z) = 0.31032 0.06790
#
# Static dielectric constant tensor:
#      x y z
#    x 1.507200 0.000000 0.000000 
#    y 0.000000 1.471230 0.000000 
#    z 0.000000 0.000000 1.521120 
# 
# From -- ./inp_files/42135.got.cif
#   From: 2010.05.17/outbox.cif.g08.bks.cpg/sg66_22_cif.got.tgz:42135.got - 2010.06.03 17:51:23.
