data_PCOD9494175
_publ_section_title
;
Structure prediction by ZEFSAII (Michael W. Deem and Ramdas Pophale) SiO2 
 PCOD9494175
Probable space group: C M M M
;
_chemical_formula_sum "Si O2"
_cell_formula_units_Z 80
_cell_length_a 9.328900
_cell_length_b 17.723314
_cell_length_c 26.716145
_cell_angle_alpha 90.000000
_cell_angle_beta 90.000000
_cell_angle_gamma 90.000000
_cell_volume 4417.221339
_symmetry_space_group_name_H-M "C M M M"
_symmetry_group_IT_number 65
_symmetry_cell_setting 'orthorhombic'
loop_
_space_group_symop_operation_xyz
x,y,z
-x,-y,z
x,-y,-z
-x,y,-z
-x,-y,-z
x,y,-z
-x,y,z
x,-y,z
1/2+x,1/2+y,z
1/2-x,1/2-y,z
1/2+x,1/2-y,-z
1/2-x,1/2+y,-z
1/2-x,1/2-y,-z
1/2+x,1/2+y,-z
1/2-x,1/2+y,z
1/2+x,1/2-y,z
loop_
_atom_site_type_symbol
_atom_site_label
_atom_site_fract_x
_atom_site_fract_y
_atom_site_fract_z
Si Si1 0.664669 0.909222 0.058035
Si Si2 0.668494 0.090987 0.235673
Si Si3 0.666675 0.091736 0.652238
Si Si4 0.331955 0.591772 0.554773
Si Si5 0.170984 0.829954 0.854462
O O1 0.500000 0.887655 0.071257
O O2 0.775714 0.872851 0.095839
O O3 0.672287 0.000000 0.061353
O O4 0.689041 0.888329 0.000000
O O5 0.500000 0.111283 0.228051
O O6 0.712257 0.115431 0.291947
O O7 0.768319 0.125337 0.193439
O O8 0.675366 0.000000 0.233440
O O9 0.500000 0.110974 0.646544
O O10 0.752907 0.120016 0.604257
O O11 0.676086 0.000000 0.652237
O O12 0.276639 0.616774 0.500000
O O13 0.500000 0.609789 0.557600
O O14 0.321010 0.500000 0.555074
O O15 0.250000 0.750000 0.854415
O O16 0.000000 0.822933 0.852990
#
# Coordination Sequence:
#
# PCOD9494175 Si02
#       5
#    16  16  16  16  16
#     4   9  19  38  63  87 111 140 171 204 247 298
#     4   9  18  34  54  74 100 133 168 210 259 308
#     4   8  14  24  39  60  85 117 157 198 242 293
#     4   8  13  20  30  48  79 118 155 193 240 290
#     4  12  25  38  54  77 106 139 174 213 256 301
#
# _framework density 18.110931999999998
#
# number of rings (size 3 to 8) (size 9 to 14) (size 15 to 20)
#    0.000    2.800    0.000    4.800    0.000    5.200 
#    0.000    5.000    0.000    0.000    0.000    0.000 
#    0.000    0.800    0.000    2.600    0.000    5.800 
#
# Total GULP energy -222944.423566 kJ/mol
# GULP energy per Si atom -5573.610589 kJ/mol
# Density = 1.806971 g / cm^3
# Si number density = 18.110932 Si / 1000 Ang^3
#
#
#
# Elastic Constant Matrix: (Units=GPa)
#
#
# Indices 1 2 3 4 5 6 
#
# 1 115.2695 30.3158 102.3080 0.0000 0.0000 0.0000
# 2 30.3158 18.5428 36.1970 0.0000 0.0000 0.0000
# 3 102.3080 36.1970 160.2599 0.0000 0.0000 0.0000
# 4 0.0000 0.0000 0.0000 -12.5572 0.0000 0.0000
# 5 0.0000 0.0000 0.0000 0.0000 22.7529 0.0000
# 6 0.0000 0.0000 0.0000 0.0000 0.0000 17.8182
#
#
#
# Elastic Compliance Matrix: (Units=1/GPa)
#
#
# Indices 1 2 3 4 5 6 
#
# 1 0.022249 -0.015469 -0.010710 0.000000 0.000000 0.000000
# 2 -0.015469 0.107214 -0.014340 0.000000 0.000000 0.000000
# 3 -0.010710 -0.014340 0.016316 0.000000 0.000000 0.000000
# 4 0.000000 0.000000 0.000000 -0.079636 0.000000 0.000000
# 5 0.000000 0.000000 0.000000 0.000000 0.043950 0.000000
# 6 0.000000 0.000000 0.000000 0.000000 0.000000 0.056123
#
#
# Mechanical properties :
#
#
# Convention : Reuss Voigt Hill
#
# Bulk Modulus (GPa) = 15.44641 70.19041 42.81841
# Shear Modulus (GPa) = 18.59884 13.95287 16.27586
#
# Velocity S-wave (km/s) = 3.20807 2.77864 3.00104
# Velocity P-wave (km/s) = 4.71906 7.00959 5.97511
#
# Compressibility (1/GPa) = 0.06473996
#
# Stress axis : x y z
#
# Youngs Moduli (GPa) = 44.94573 9.32718 61.29069
#
# Poissons Ratio (x) = 0.14428 0.65640
# Poissons Ratio (y) = 0.69528 0.87893
# Poissons Ratio (z) = 0.48135 0.13375
#
# Static dielectric constant tensor:
#      x y z
#    x 1.599410 0.000000 0.000000 
#    y 0.000000 1.621470 0.000000 
#    z 0.000000 0.000000 1.647610 
# 
# From -- ./inp_files/72755.got.cif
#   From: 2010.05.17/outbox.cif.g08.bks.cpg/sg65_37_cif.got.tgz:72755.got - 2010.06.03 17:01:31.
