data_PCOD9494405
_publ_section_title
;
Structure prediction by ZEFSAII (Michael W. Deem and Ramdas Pophale) SiO2 
 PCOD9494405
Probable space group: C M M M
;
_chemical_formula_sum "Si O2"
_cell_formula_units_Z 80
_cell_length_a 7.318884
_cell_length_b 15.999028
_cell_length_c 29.869472
_cell_angle_alpha 90.000000
_cell_angle_beta 90.000000
_cell_angle_gamma 90.000000
_cell_volume 3497.566721
_symmetry_space_group_name_H-M "C M M M"
_symmetry_group_IT_number 65
_symmetry_cell_setting 'orthorhombic'
loop_
_space_group_symop_operation_xyz
x,y,z
-x,-y,z
x,-y,-z
-x,y,-z
-x,-y,-z
x,y,-z
-x,y,z
x,-y,z
1/2+x,1/2+y,z
1/2-x,1/2-y,z
1/2+x,1/2-y,-z
1/2-x,1/2+y,-z
1/2-x,1/2-y,-z
1/2+x,1/2+y,-z
1/2-x,1/2+y,z
1/2+x,1/2-y,z
loop_
_atom_site_type_symbol
_atom_site_label
_atom_site_fract_x
_atom_site_fract_y
_atom_site_fract_z
Si Si1 0.718498 0.850680 0.500000
Si Si2 0.717779 0.151092 0.403772
Si Si3 0.217035 0.348596 0.787070
Si Si4 0.293044 0.901287 0.308312
Si Si5 0.776654 0.500000 0.948517
Si Si6 0.218522 0.349503 0.114450
O O1 0.500000 0.863251 0.500000
O O2 0.750000 0.750000 0.500000
O O3 0.787017 0.882680 0.548209
O O4 0.500000 0.132793 0.402991
O O5 0.750000 0.250000 0.405346
O O6 0.792425 0.123247 0.355764
O O7 0.250000 0.250000 0.787232
O O8 0.292082 0.379057 0.739535
O O9 0.287175 0.375517 0.835894
O O10 0.000000 0.368668 0.786533
O O11 0.500000 0.863488 0.308033
O O12 0.308074 0.000000 0.309100
O O13 0.717673 0.415860 0.922414
O O14 0.000000 0.500000 0.948454
O O15 0.718391 0.500000 0.000000
O O16 0.250000 0.250000 0.106428
O O17 0.000000 0.357274 0.116179
#
# Coordination Sequence:
#
# PCOD9494405 Si02
#       6
#     8  16  16  16   8  16
#     4   8  14  24  39  59  79 101 135 172 210 252
#     4   9  16  27  43  61  81 107 138 175 213 254
#     4   9  17  29  47  68  89 115 148 185 224 266
#     4   9  17  27  41  63  88 112 141 177 216 259
#     4   9  18  32  51  75 101 131 167 202 238 284
#     4   9  18  32  51  74  99 128 163 202 242 285
#
# _framework density 22.873047
#
# number of rings (size 3 to 8) (size 9 to 14) (size 15 to 20)
#    0.000    3.100    0.000    0.600    1.400    0.400 
#    0.000    1.000    0.000    6.000    0.000    0.000 
#    0.000    8.000    0.000    0.000    0.000    0.000 
#
# Total GULP energy -222837.343489 kJ/mol
# GULP energy per Si atom -5570.933587 kJ/mol
# Density = 2.282099 g / cm^3
# Si number density = 22.873047 Si / 1000 Ang^3
#
#
#
# Elastic Constant Matrix: (Units=GPa)
#
#
# Indices 1 2 3 4 5 6 
#
# 1 97.5338 -5.4402 17.0497 0.0000 0.0000 0.0000
# 2 -5.4402 61.2025 96.4136 0.0000 0.0000 0.0000
# 3 17.0497 96.4136 318.0276 0.0000 0.0000 0.0000
# 4 0.0000 0.0000 0.0000 145.3057 0.0000 0.0000
# 5 0.0000 0.0000 0.0000 0.0000 4.1172 0.0000
# 6 0.0000 0.0000 0.0000 0.0000 0.0000 8.9206
#
#
#
# Elastic Compliance Matrix: (Units=1/GPa)
#
#
# Indices 1 2 3 4 5 6 
#
# 1 0.010741 0.003564 -0.001656 0.000000 0.000000 0.000000
# 2 0.003564 0.032458 -0.010031 0.000000 0.000000 0.000000
# 3 -0.001656 -0.010031 0.006274 0.000000 0.000000 0.000000
# 4 0.000000 0.000000 0.000000 0.006882 0.000000 0.000000
# 5 0.000000 0.000000 0.000000 0.000000 0.242882 0.000000
# 6 0.000000 0.000000 0.000000 0.000000 0.000000 0.112100
#
#
# Mechanical properties :
#
#
# Convention : Reuss Voigt Hill
#
# Bulk Modulus (GPa) = 30.09623 76.97888 53.53755
# Shear Modulus (GPa) = 11.39833 56.25143 33.82488
#
# Velocity S-wave (km/s) = 2.23475 4.96450 3.84970
# Velocity P-wave (km/s) = 4.45481 8.16025 6.57400
#
# Compressibility (1/GPa) = 0.03322676
#
# Stress axis : x y z
#
# Youngs Moduli (GPa) = 93.09963 30.80875 159.38195
#
# Poissons Ratio (x) = -0.10980 0.26398
# Poissons Ratio (y) = -0.33181 1.59879
# Poissons Ratio (z) = 0.15420 0.30905
#
# Static dielectric constant tensor:
#      x y z
#    x 1.735220 0.000000 0.000000 
#    y 0.000000 1.783100 0.000000 
#    z 0.000000 0.000000 1.924340 
# 
# From -- ./inp_files/74206.got.cif
#   From: 2010.05.17/outbox.cif.g08.bks.cpg/sg65_38_cif.got.tgz:74206.got - 2010.06.03 17:01:31.
