data_PCOD9494697
_publ_section_title
;
Structure prediction by ZEFSAII (Michael W. Deem and Ramdas Pophale) SiO2 
 PCOD9494697
Probable space group: C M M M
;
_chemical_formula_sum "Si O2"
_cell_formula_units_Z 52
_cell_length_a 30.000000
_cell_length_b 9.000000
_cell_length_c 21.000000
_cell_angle_alpha 90.000000
_cell_angle_beta 90.000000
_cell_angle_gamma 90.000000
_cell_volume 5670.000000
_symmetry_space_group_name_H-M "C M M M"
_symmetry_group_IT_number 65
_symmetry_cell_setting 'orthorhombic'
loop_
_space_group_symop_operation_xyz
x,y,z
-x,-y,z
x,-y,-z
-x,y,-z
-x,-y,-z
x,y,-z
-x,y,z
x,-y,z
1/2+x,1/2+y,z
1/2-x,1/2-y,z
1/2+x,1/2-y,-z
1/2-x,1/2+y,-z
1/2-x,1/2-y,-z
1/2+x,1/2+y,-z
1/2-x,1/2+y,z
1/2+x,1/2-y,z
loop_
_atom_site_type_symbol
_atom_site_label
_atom_site_fract_x
_atom_site_fract_y
_atom_site_fract_z
Si Si1 0.893670 0.678686 0.117807
Si Si2 0.859408 0.319713 0.569845
Si Si3 0.702049 0.179448 0.686758
Si Si4 0.201802 0.321202 0.833761
Si Si5 0.946960 0.179168 0.000000
Si Si6 0.949686 0.677766 0.631741
Si Si7 0.447524 0.675417 0.769244
O O1 0.896305 0.500000 0.111906
O O2 0.841058 0.719787 0.123383
O O3 0.920958 0.755541 0.060979
O O4 0.917340 0.732271 0.182530
O O5 0.844671 0.266056 0.500000
O O6 0.856136 0.500000 0.568999
O O7 0.831503 0.269968 0.631431
O O8 0.910967 0.282954 0.582695
O O9 0.750000 0.250000 0.673950
O O10 0.690323 0.219112 0.759936
O O11 0.704486 0.000000 0.684615
O O12 0.206505 0.500000 0.836455
O O13 0.250000 0.250000 0.849213
O O14 0.000000 0.218783 0.000000
O O15 0.944494 0.000000 0.000000
O O16 0.946474 0.500000 0.644265
O O17 0.942176 0.763094 0.697893
O O18 0.000000 0.708437 0.609503
O O19 0.500000 0.693775 0.786128
O O20 0.437215 0.500000 0.772602
#
# Coordination Sequence:
#
# PCOD9494697 Si02
#       7
#    16  16  16  16   8  16  16
#     4  11  22  37  59  85 112 144 183 223 263 309
#     4   9  17  29  46  69  98 132 169 212 264 318
#     4   9  17  31  50  72 100 132 166 209 261 312
#     4   9  19  35  56  82 109 137 174 221 269 318
#     4  11  25  43  60  83 118 155 188 219 256 307
#     4   9  17  30  49  72  97 127 168 218 267 317
#     4  10  20  33  51  77 107 138 174 218 270 325
#
# _framework density 9.1710759999999993
#
# number of rings (size 3 to 8) (size 9 to 14) (size 15 to 20)
#    0.000    2.385    0.000    2.538    0.000    7.692 
#    0.000    5.769    0.000    1.385    0.000    2.154 
#    0.000    0.000    0.000    0.000    0.000    0.000 
#
# Total GULP energy -290047.441699 kJ/mol
# GULP energy per Si atom -5577.835417 kJ/mol
# Density = 0.915020 g / cm^3
# Si number density = 9.171076 Si / 1000 Ang^3
#
#
#
# Elastic Constant Matrix: (Units=GPa)
#
#
# Indices 1 2 3 4 5 6 
#
# 1 128.5068 35.7262 66.7708 0.0000 0.0000 0.0000
# 2 35.7262 35.0566 19.5548 0.0000 0.0000 0.0000
# 3 66.7708 19.5548 61.1739 0.0000 0.0000 0.0000
# 4 0.0000 0.0000 0.0000 13.3428 0.0000 0.0000
# 5 0.0000 0.0000 0.0000 0.0000 24.2359 0.0000
# 6 0.0000 0.0000 0.0000 0.0000 0.0000 28.5171
#
#
#
# Elastic Compliance Matrix: (Units=1/GPa)
#
#
# Indices 1 2 3 4 5 6 
#
# 1 0.020642 -0.010306 -0.019236 0.000000 0.000000 0.000000
# 2 -0.010306 0.039861 -0.001493 0.000000 0.000000 0.000000
# 3 -0.019236 -0.001493 0.037820 0.000000 0.000000 0.000000
# 4 0.000000 0.000000 0.000000 0.074947 0.000000 0.000000
# 5 0.000000 0.000000 0.000000 0.000000 0.041261 0.000000
# 6 0.000000 0.000000 0.000000 0.000000 0.000000 0.035067
#
#
# Mechanical properties :
#
#
# Convention : Reuss Voigt Hill
#
# Bulk Modulus (GPa) = 27.58407 52.09346 39.83876
# Shear Modulus (GPa) = 15.44401 20.06486 17.75444
#
# Velocity S-wave (km/s) = 2.90486 3.31104 3.11458
# Velocity P-wave (km/s) = 5.13052 6.56353 5.89076
#
# Compressibility (1/GPa) = 0.03625281
#
# Stress axis : x y z
#
# Youngs Moduli (GPa) = 48.44609 25.08717 26.44132
#
# Poissons Ratio (x) = 0.25855 0.50861
# Poissons Ratio (y) = 0.49929 0.03948
# Poissons Ratio (z) = 0.93189 0.03746
#
# Static dielectric constant tensor:
#      x y z
#    x 1.637940 0.000000 0.000000 
#    y 0.000000 1.606390 0.000000 
#    z 0.000000 0.000000 1.637240 
# 
# From -- ./inp_files/60436.got.cif
#   From: 2010.05.17/outbox.ucp.g08.bks.cvg/sg65_31_cif.got.tgz:60436.got - 2010.06.11 16:39:57.
