data_PCOD9494465
_publ_section_title
;
Structure prediction by ZEFSAII (Michael W. Deem and Ramdas Pophale) SiO2 
 PCOD9494465
Probable space group: C M M M
;
_chemical_formula_sum "Si O2"
_cell_formula_units_Z 104
_cell_length_a 33.587054
_cell_length_b 7.279715
_cell_length_c 18.307031
_cell_angle_alpha 90.000000
_cell_angle_beta 90.000000
_cell_angle_gamma 90.000000
_cell_volume 4476.145618
_symmetry_space_group_name_H-M "C M M M"
_symmetry_group_IT_number 65
_symmetry_cell_setting 'orthorhombic'
loop_
_space_group_symop_operation_xyz
x,y,z
-x,-y,z
x,-y,-z
-x,y,-z
-x,-y,-z
x,y,-z
-x,y,z
x,-y,z
1/2+x,1/2+y,z
1/2-x,1/2-y,z
1/2+x,1/2-y,-z
1/2-x,1/2+y,-z
1/2-x,1/2-y,-z
1/2+x,1/2+y,-z
1/2-x,1/2+y,z
1/2+x,1/2-y,z
loop_
_atom_site_type_symbol
_atom_site_label
_atom_site_fract_x
_atom_site_fract_y
_atom_site_fract_z
Si Si1 0.067418 0.277650 0.806715
Si Si2 0.500000 0.776757 0.918107
Si Si3 0.454839 0.223971 0.643891
Si Si4 0.868862 0.723606 0.416976
Si Si5 0.628012 0.223588 0.920758
Si Si6 0.704104 0.780553 0.314119
Si Si7 0.205517 0.282133 0.852442
O O1 0.067382 0.500000 0.800903
O O2 0.053422 0.216516 0.727570
O O3 0.108430 0.220440 0.843671
O O4 0.037274 0.222847 0.870067
O O5 0.500000 0.000000 0.921103
O O6 0.500000 0.709534 0.000000
O O7 0.500000 0.281378 0.621667
O O8 0.414367 0.280644 0.602254
O O9 0.455599 0.000000 0.641214
O O10 0.859743 0.776070 0.500000
O O11 0.869412 0.500000 0.413160
O O12 0.833115 0.785330 0.363292
O O13 0.673243 0.281483 0.910148
O O14 0.624060 0.000000 0.922526
O O15 0.611927 0.284594 0.000000
O O16 0.750000 0.750000 0.340159
O O17 0.701647 0.709752 0.230706
O O18 0.699642 0.000000 0.311697
O O19 0.199108 0.500000 0.846196
O O20 0.250000 0.250000 0.877249
#
# Coordination Sequence:
#
# PCOD9494465 Si02
#       7
#    16   8  16  16  16  16  16
#     4   9  14  21  31  46  69  99 134 169 203 245
#     4   9  14  18  26  42  65  93 126 164 201 236
#     4   9  15  23  35  51  74 107 144 178 214 256
#     4   9  17  27  39  57  81 109 141 177 216 258
#     4   9  16  24  35  52  75 105 140 175 211 252
#     4   9  17  30  47  66  88 115 146 180 219 262
#     4   9  17  29  44  61  81 108 142 177 212 251
#
# _framework density 23.234276999999999
#
# number of rings (size 3 to 8) (size 9 to 14) (size 15 to 20)
#    0.000    3.000    0.769    1.385    0.000    6.462 
#    0.000    1.538    0.000    0.000    0.000    0.000 
#    0.000    0.615    0.000    2.385    0.000    6.538 
#
# Total GULP energy -289934.330082 kJ/mol
# GULP energy per Si atom -5575.660194 kJ/mol
# Density = 2.318139 g / cm^3
# Si number density = 23.234277 Si / 1000 Ang^3
#
#
#
# Elastic Constant Matrix: (Units=GPa)
#
#
# Indices 1 2 3 4 5 6 
#
# 1 116.9116 -5.5243 13.3119 0.0000 0.0000 0.0000
# 2 -5.5243 97.7945 -1.0046 0.0000 0.0000 0.0000
# 3 13.3119 -1.0046 32.0759 0.0000 0.0000 0.0000
# 4 0.0000 0.0000 0.0000 -16.8044 0.0000 0.0000
# 5 0.0000 0.0000 0.0000 0.0000 31.1723 0.0000
# 6 0.0000 0.0000 0.0000 0.0000 0.0000 -20.1310
#
#
#
# Elastic Compliance Matrix: (Units=1/GPa)
#
#
# Indices 1 2 3 4 5 6 
#
# 1 0.008999 0.000470 -0.003720 0.000000 0.000000 0.000000
# 2 0.000470 0.010253 0.000126 0.000000 0.000000 0.000000
# 3 -0.003720 0.000126 0.032724 0.000000 0.000000 0.000000
# 4 0.000000 0.000000 0.000000 -0.059508 0.000000 0.000000
# 5 0.000000 0.000000 0.000000 0.000000 0.032080 0.000000
# 6 0.000000 0.000000 0.000000 0.000000 0.000000 -0.049675
#
#
# Mechanical properties :
#
#
# Convention : Reuss Voigt Hill
#
# Bulk Modulus (GPa) = 21.86810 28.92755 25.39782
# Shear Modulus (GPa) = -1375.30600 14.84729 -680.22935
#
# Velocity S-wave (km/s) = -24.35600 2.53064 -17.12908
# Velocity P-wave (km/s) = 27.95569 4.58435 19.50006
#
# Compressibility (1/GPa) = 0.04572872
#
# Stress axis : x y z
#
# Youngs Moduli (GPa) = 111.12014 97.52889 30.55868
#
# Poissons Ratio (x) = -0.04585 0.11368
# Poissons Ratio (y) = -0.05224 -0.00385
# Poissons Ratio (z) = 0.41338 -0.01229
#
# Static dielectric constant tensor:
#      x y z
#    x 1.945540 0.000000 0.000000 
#    y 0.000000 1.849090 0.000000 
#    z 0.000000 0.000000 1.812370 
# 
# From -- ./inp_files/58218.got.cif
#   From: 2010.05.17/outbox.cif.g08.bks.cpg/sg65_30_cif.got.tgz:58218.got - 2010.06.03 17:01:31.
