data_PCOD9494710
_publ_section_title
;
Structure prediction by ZEFSAII (Michael W. Deem and Ramdas Pophale) SiO2 
 PCOD9494710
Probable space group: C M M M
;
_chemical_formula_sum "Si O2"
_cell_formula_units_Z 52
_cell_length_a 21.000000
_cell_length_b 27.000000
_cell_length_c 9.000000
_cell_angle_alpha 90.000000
_cell_angle_beta 90.000000
_cell_angle_gamma 90.000000
_cell_volume 5103.000000
_symmetry_space_group_name_H-M "C M M M"
_symmetry_group_IT_number 65
_symmetry_cell_setting 'orthorhombic'
loop_
_space_group_symop_operation_xyz
x,y,z
-x,-y,z
x,-y,-z
-x,y,-z
-x,-y,-z
x,y,-z
-x,y,z
x,-y,z
1/2+x,1/2+y,z
1/2-x,1/2-y,z
1/2+x,1/2-y,-z
1/2-x,1/2+y,-z
1/2-x,1/2-y,-z
1/2+x,1/2+y,-z
1/2-x,1/2+y,z
1/2+x,1/2-y,z
loop_
_atom_site_type_symbol
_atom_site_label
_atom_site_fract_x
_atom_site_fract_y
_atom_site_fract_z
Si Si1 0.252379 0.095321 0.677489
Si Si2 0.500000 0.939212 0.330779
Si Si3 0.424507 0.764861 0.822186
Si Si4 0.424918 0.662219 0.332955
Si Si5 0.375841 0.059172 0.165206
Si Si6 0.205363 0.703431 0.320463
Si Si7 0.617883 0.554703 0.681027
O O1 0.252245 0.093890 0.500000
O O2 0.314768 0.070163 0.739262
O O3 0.257081 0.153027 0.720981
O O4 0.190792 0.064637 0.725589
O O5 0.500000 0.923134 0.500000
O O6 0.561831 0.921203 0.245623
O O7 0.500000 0.000000 0.331045
O O8 0.500000 0.774957 0.779277
O O9 0.407780 0.708591 0.769231
O O10 0.365838 0.795475 0.749680
O O11 0.421752 0.768909 0.000000
O O12 0.394866 0.666599 0.500000
O O13 0.500000 0.666681 0.350753
O O14 0.413926 0.606627 0.274053
O O15 0.383509 0.000000 0.154945
O O16 0.369449 0.079671 0.000000
O O17 0.197955 0.704480 0.500000
O O18 0.250000 0.750000 0.277852
O O19 0.612745 0.553782 0.500000
O O20 0.596158 0.500000 0.732080
#
# Coordination Sequence:
#
# PCOD9494710 Si02
#       7
#    16   8  16  16  16  16  16
#     4  10  20  34  53  77 103 138 181 223 270 323
#     4   9  17  31  53  77  99 129 171 213 253 303
#     4  10  21  37  57  82 112 147 187 230 280 338
#     4   9  17  31  54  82 111 145 183 223 270 324
#     4  10  20  34  52  75 105 139 174 214 261 311
#     4  10  21  38  60  84 109 140 183 233 282 335
#     4   9  17  30  51  80 112 144 181 227 274 320
#
# _framework density 10.190084000000001
#
# number of rings (size 3 to 8) (size 9 to 14) (size 15 to 20)
#    0.000    2.385    0.000    2.538    0.000    7.077 
#    1.385    3.846    0.000    1.385    0.000    2.154 
#    0.000    0.000    0.000    0.000    0.000    0.000 
#
# Total GULP energy -289856.554761 kJ/mol
# GULP energy per Si atom -5574.164515 kJ/mol
# Density = 1.016689 g / cm^3
# Si number density = 10.190084 Si / 1000 Ang^3
#
#
#
# Elastic Constant Matrix: (Units=GPa)
#
#
# Indices 1 2 3 4 5 6 
#
# 1 37.9807 -18.0528 11.2969 0.0000 0.0000 0.0000
# 2 -18.0528 22.1766 22.7524 0.0000 0.0000 0.0000
# 3 11.2969 22.7524 -21.3438 0.0000 0.0000 0.0000
# 4 0.0000 0.0000 0.0000 4.9450 0.0000 0.0000
# 5 0.0000 0.0000 0.0000 0.0000 -20.2372 0.0000
# 6 0.0000 0.0000 0.0000 0.0000 0.0000 90.4022
#
#
#
# Elastic Compliance Matrix: (Units=1/GPa)
#
#
# Indices 1 2 3 4 5 6 
#
# 1 0.023158 0.002998 0.015453 0.000000 0.000000 0.000000
# 2 0.002998 0.021926 0.024959 0.000000 0.000000 0.000000
# 3 0.015453 0.024959 -0.012067 0.000000 0.000000 0.000000
# 4 0.000000 0.000000 0.000000 0.202224 0.000000 0.000000
# 5 0.000000 0.000000 0.000000 0.000000 -0.049414 0.000000
# 6 0.000000 0.000000 0.000000 0.000000 0.000000 0.011062
#
#
# Mechanical properties :
#
#
# Convention : Reuss Voigt Hill
#
# Bulk Modulus (GPa) = 8.34475 7.86739 8.10607
# Shear Modulus (GPa) = 33.33019 16.54315 24.93667
#
# Velocity S-wave (km/s) = 4.04842 2.85217 3.50176
# Velocity P-wave (km/s) = 5.09474 3.83604 4.50953
#
# Compressibility (1/GPa) = 0.11983578
#
# Stress axis : x y z
#
# Youngs Moduli (GPa) = 43.18192 45.60875 -82.87179
#
# Poissons Ratio (x) = -0.13672 1.28059
# Poissons Ratio (y) = -0.12945 2.06842
# Poissons Ratio (z) = -0.66727 -1.13836
#
# Static dielectric constant tensor:
#      x y z
#    x 1.733790 0.000000 0.000000 
#    y 0.000000 1.778400 0.000000 
#    z 0.000000 0.000000 1.709750 
# 
# From -- ./inp_files/12387.got.cif
#   From: 2010.05.17/outbox.ucp.g08.bks.cvg/sg65_7_cif.got.tgz:12387.got - 2010.06.11 16:39:57.
