data_PCOD9494478
_publ_section_title
;
Structure prediction by ZEFSAII (Michael W. Deem and Ramdas Pophale) SiO2 
 PCOD9494478
Probable space group: C M M M
;
_chemical_formula_sum "Si O2"
_cell_formula_units_Z 64
_cell_length_a 7.423273
_cell_length_b 29.628373
_cell_length_c 18.023453
_cell_angle_alpha 90.000000
_cell_angle_beta 90.000000
_cell_angle_gamma 90.000000
_cell_volume 3964.069265
_symmetry_space_group_name_H-M "C M M M"
_symmetry_group_IT_number 65
_symmetry_cell_setting 'orthorhombic'
loop_
_space_group_symop_operation_xyz
x,y,z
-x,-y,z
x,-y,-z
-x,y,-z
-x,-y,-z
x,y,-z
-x,y,z
x,-y,z
1/2+x,1/2+y,z
1/2-x,1/2-y,z
1/2+x,1/2-y,-z
1/2-x,1/2+y,-z
1/2-x,1/2-y,-z
1/2+x,1/2+y,-z
1/2-x,1/2+y,z
1/2+x,1/2-y,z
loop_
_atom_site_type_symbol
_atom_site_label
_atom_site_fract_x
_atom_site_fract_y
_atom_site_fract_z
Si Si1 0.215118 0.300609 0.584954
Si Si2 0.780220 0.448141 0.500000
Si Si3 0.214280 0.446524 0.205988
Si Si4 0.000000 0.945381 0.915975
Si Si5 0.719747 0.105995 0.646679
O O1 0.284997 0.303919 0.500000
O O2 0.250000 0.250000 0.612418
O O3 0.279619 0.342467 0.633964
O O4 0.000000 0.305527 0.580202
O O5 0.722633 0.500000 0.500000
O O6 0.723681 0.422276 0.574297
O O7 0.000000 0.447801 0.500000
O O8 0.245434 0.500000 0.220522
O O9 0.326247 0.433274 0.133280
O O10 0.274599 0.417882 0.277313
O O11 0.000000 0.440682 0.195247
O O12 0.000000 0.000000 0.920617
O O13 0.000000 0.927854 0.000000
O O14 0.500000 0.105192 0.647481
#
# Coordination Sequence:
#
# PCOD9494478 Si02
#       5
#    16   8  16   8  16
#     4   9  16  27  41  57  81 113 151 190 228 264
#     4   9  14  20  35  59  83 113 156 189 212 256
#     4   9  17  29  46  68  93 122 152 185 226 270
#     4   9  18  32  48  67  93 123 151 182 224 274
#     4   9  15  25  40  60  86 118 151 188 227 260
#
# _framework density 16.145026999999999
#
# number of rings (size 3 to 8) (size 9 to 14) (size 15 to 20)
#    0.000    3.000    1.250    0.750    0.000    3.500 
#    2.250    2.500    0.000    0.750    0.000    3.500 
#    0.000    1.000    0.500    0.000    0.000    0.000 
#
# Total GULP energy -178376.786385 kJ/mol
# GULP energy per Si atom -5574.274575 kJ/mol
# Density = 1.610828 g / cm^3
# Si number density = 16.145027 Si / 1000 Ang^3
#
#
#
# Elastic Constant Matrix: (Units=GPa)
#
#
# Indices 1 2 3 4 5 6 
#
# 1 59.3480 22.7792 35.7674 0.0000 0.0000 0.0000
# 2 22.7792 114.7257 73.4362 0.0000 0.0000 0.0000
# 3 35.7674 73.4362 150.1406 0.0000 0.0000 0.0000
# 4 0.0000 0.0000 0.0000 4.6645 0.0000 0.0000
# 5 0.0000 0.0000 0.0000 0.0000 63.5699 0.0000
# 6 0.0000 0.0000 0.0000 0.0000 0.0000 11.4841
#
#
#
# Elastic Compliance Matrix: (Units=1/GPa)
#
#
# Indices 1 2 3 4 5 6 
#
# 1 0.019813 -0.001329 -0.004070 0.000000 0.000000 0.000000
# 2 -0.001329 0.012778 -0.005934 0.000000 0.000000 0.000000
# 3 -0.004070 -0.005934 0.010532 0.000000 0.000000 0.000000
# 4 0.000000 0.000000 0.000000 0.214386 0.000000 0.000000
# 5 0.000000 0.000000 0.000000 0.000000 0.015731 0.000000
# 6 0.000000 0.000000 0.000000 0.000000 0.000000 0.087077
#
#
# Mechanical properties :
#
#
# Convention : Reuss Voigt Hill
#
# Bulk Modulus (GPa) = 48.87891 65.35331 57.11611
# Shear Modulus (GPa) = 12.82707 28.75913 20.79310
#
# Velocity S-wave (km/s) = 2.82173 4.22512 3.59262
# Velocity P-wave (km/s) = 6.39975 8.02303 7.25692
#
# Compressibility (1/GPa) = 0.02045872
#
# Stress axis : x y z
#
# Youngs Moduli (GPa) = 50.47284 78.25740 94.94670
#
# Poissons Ratio (x) = 0.10397 0.38644
# Poissons Ratio (y) = 0.06706 0.56337
# Poissons Ratio (z) = 0.20543 0.46435
#
# Static dielectric constant tensor:
#      x y z
#    x 1.620430 0.000000 0.000000 
#    y 0.000000 1.542120 0.000000 
#    z 0.000000 0.000000 1.512430 
# 
# From -- ./inp_files/36833.got.cif
#   From: 2010.05.17/outbox.cif.g08.bks.cpg/sg65_19_cif.got.tgz:36833.got - 2010.06.03 17:01:31.
