data_PCOD9494168
_publ_section_title
;
Structure prediction by ZEFSAII (Michael W. Deem and Ramdas Pophale) SiO2 
 PCOD9494168
Probable space group: C M M M
;
_chemical_formula_sum "Si O2"
_cell_formula_units_Z 72
_cell_length_a 18.890478
_cell_length_b 8.632132
_cell_length_c 24.524050
_cell_angle_alpha 90.000000
_cell_angle_beta 90.000000
_cell_angle_gamma 90.000000
_cell_volume 3999.016657
_symmetry_space_group_name_H-M "C M M M"
_symmetry_group_IT_number 65
_symmetry_cell_setting 'orthorhombic'
loop_
_space_group_symop_operation_xyz
x,y,z
-x,-y,z
x,-y,-z
-x,y,-z
-x,-y,-z
x,y,-z
-x,y,z
x,-y,z
1/2+x,1/2+y,z
1/2-x,1/2-y,z
1/2+x,1/2-y,-z
1/2-x,1/2+y,-z
1/2-x,1/2-y,-z
1/2+x,1/2+y,-z
1/2-x,1/2+y,z
1/2+x,1/2-y,z
loop_
_atom_site_type_symbol
_atom_site_label
_atom_site_fract_x
_atom_site_fract_y
_atom_site_fract_z
Si Si1 0.582725 0.686626 0.062294
Si Si2 0.084702 0.812039 0.500000
Si Si3 0.585743 0.315806 0.617233
Si Si4 0.083118 0.187723 0.736536
Si Si5 0.671147 0.183840 0.162246
O O1 0.500000 0.725887 0.071295
O O2 0.588494 0.500000 0.066434
O O3 0.631111 0.762852 0.107600
O O4 0.601059 0.730173 0.000000
O O5 0.112007 0.752931 0.558710
O O6 0.000000 0.783755 0.500000
O O7 0.092653 0.000000 0.500000
O O8 0.500000 0.301650 0.617201
O O9 0.600713 0.500000 0.616995
O O10 0.608623 0.256066 0.676504
O O11 0.128251 0.253033 0.785785
O O12 0.000000 0.228524 0.742893
O O13 0.086795 0.000000 0.737053
O O14 0.750000 0.250000 0.162626
O O15 0.673571 0.000000 0.164502
#
# Coordination Sequence:
#
# PCOD9494168 Si02
#       5
#    16   8  16  16  16
#     4   9  19  38  63  87 110 136 164 196 239 292
#     4   7   8  12  26  54  92 125 154 191 235 285
#     4   7  10  17  33  60  93 127 159 194 239 290
#     4   9  17  31  51  74 102 135 169 206 251 302
#     4  12  25  38  53  74 102 136 173 213 255 296
#
# _framework density 18.004427
#
# number of rings (size 3 to 8) (size 9 to 14) (size 15 to 20)
#    0.000    3.000    0.000    6.000    0.000    4.444 
#    0.000    1.111    0.000    0.000    0.000    1.556 
#    0.000    4.444    0.000    0.000    0.000    0.000 
#
# Total GULP energy -200471.875932 kJ/mol
# GULP energy per Si atom -5568.663220 kJ/mol
# Density = 1.796345 g / cm^3
# Si number density = 18.004427 Si / 1000 Ang^3
#
#
#
# Elastic Constant Matrix: (Units=GPa)
#
#
# Indices 1 2 3 4 5 6 
#
# 1 68.4915 33.4964 96.3799 0.0000 0.0000 0.0000
# 2 33.4964 29.9005 52.8929 0.0000 0.0000 0.0000
# 3 96.3799 52.8929 222.2624 0.0000 0.0000 0.0000
# 4 0.0000 0.0000 0.0000 2.0660 0.0000 0.0000
# 5 0.0000 0.0000 0.0000 0.0000 -7.2984 0.0000
# 6 0.0000 0.0000 0.0000 0.0000 0.0000 21.0795
#
#
#
# Elastic Compliance Matrix: (Units=1/GPa)
#
#
# Indices 1 2 3 4 5 6 
#
# 1 0.049366 -0.030112 -0.014241 0.000000 0.000000 0.000000
# 2 -0.030112 0.076126 -0.005059 0.000000 0.000000 0.000000
# 3 -0.014241 -0.005059 0.011878 0.000000 0.000000 0.000000
# 4 0.000000 0.000000 0.000000 0.484021 0.000000 0.000000
# 5 0.000000 0.000000 0.000000 0.000000 -0.137016 0.000000
# 6 0.000000 0.000000 0.000000 0.000000 0.000000 0.047439
#
#
# Mechanical properties :
#
#
# Convention : Reuss Voigt Hill
#
# Bulk Modulus (GPa) = 25.94164 76.24364 51.09264
# Shear Modulus (GPa) = 7.77017 12.36177 10.06597
#
# Velocity S-wave (km/s) = 2.07968 2.62314 2.36706
# Velocity P-wave (km/s) = 4.49517 7.18426 5.99250
#
# Compressibility (1/GPa) = 0.03854807
#
# Stress axis : x y z
#
# Youngs Moduli (GPa) = 20.25671 13.13611 84.18666
#
# Poissons Ratio (x) = 0.39555 1.19890
# Poissons Ratio (y) = 0.60996 0.42588
# Poissons Ratio (z) = 0.28848 0.06645
#
# Static dielectric constant tensor:
#      x y z
#    x 1.575800 0.000000 0.000000 
#    y 0.000000 1.607660 0.000000 
#    z 0.000000 0.000000 1.675500 
# 
# From -- ./inp_files/70359.got.cif
#   From: 2010.05.17/outbox.cif.g08.bks.cpg/sg65_36_cif.got.tgz:70359.got - 2010.06.03 17:01:31.
