data_PCOD9494152
_publ_section_title
;
Structure prediction by ZEFSAII (Michael W. Deem and Ramdas Pophale) SiO2 
 PCOD9494152
Probable space group: C M M M
;
_chemical_formula_sum "Si O2"
_cell_formula_units_Z 72
_cell_length_a 7.987085
_cell_length_b 28.084447
_cell_length_c 16.607279
_cell_angle_alpha 90.000000
_cell_angle_beta 90.000000
_cell_angle_gamma 90.000000
_cell_volume 3725.226338
_symmetry_space_group_name_H-M "C M M M"
_symmetry_group_IT_number 65
_symmetry_cell_setting 'orthorhombic'
loop_
_space_group_symop_operation_xyz
x,y,z
-x,-y,z
x,-y,-z
-x,y,-z
-x,-y,-z
x,y,-z
-x,y,z
x,-y,z
1/2+x,1/2+y,z
1/2-x,1/2-y,z
1/2+x,1/2-y,-z
1/2-x,1/2+y,-z
1/2-x,1/2-y,-z
1/2+x,1/2+y,-z
1/2-x,1/2+y,z
1/2+x,1/2-y,z
loop_
_atom_site_type_symbol
_atom_site_label
_atom_site_fract_x
_atom_site_fract_y
_atom_site_fract_z
Si Si1 0.795612 0.400670 0.411002
Si Si2 0.295325 0.052836 0.244734
Si Si3 0.697229 0.304978 0.000000
Si Si4 0.798877 0.302950 0.667595
Si Si5 0.298990 0.150264 0.168583
O O1 0.738106 0.414490 0.500000
O O2 0.745203 0.433556 0.336078
O O3 0.743702 0.346596 0.388987
O O4 0.000000 0.401381 0.411666
O O5 0.500000 0.052546 0.243265
O O6 0.239974 0.096628 0.188557
O O7 0.238081 0.000000 0.222604
O O8 0.750000 0.250000 0.000000
O O9 0.756674 0.330499 0.081243
O O10 0.500000 0.306482 0.000000
O O11 0.750000 0.250000 0.643430
O O12 0.738306 0.315913 0.758206
O O13 0.000000 0.304602 0.668500
O O14 0.500000 0.149406 0.174728
#
# Coordination Sequence:
#
# PCOD9494152 Si02
#       5
#    16  16   8  16  16
#     4   8  14  24  38  61  94 125 154 194 240 279
#     4   8  14  26  46  70  94 124 162 199 235 277
#     4  12  24  36  53  76  99 123 154 191 233 282
#     4   9  17  28  43  63  89 124 160 192 231 280
#     4   9  18  33  50  70  98 127 157 195 236 280
#
# _framework density 19.327686
#
# number of rings (size 3 to 8) (size 9 to 14) (size 15 to 20)
#    0.000    3.111    0.000    4.333    0.000    3.556 
#    0.000    2.778    0.000    4.000    0.000    0.000 
#    0.000    0.000    0.000    9.778    0.000    9.778 
#
# Total GULP energy -200656.567607 kJ/mol
# GULP energy per Si atom -5573.793545 kJ/mol
# Density = 1.928370 g / cm^3
# Si number density = 19.327686 Si / 1000 Ang^3
#
#
#
# Elastic Constant Matrix: (Units=GPa)
#
#
# Indices 1 2 3 4 5 6 
#
# 1 12.6749 3.6327 0.0091 0.0000 0.0000 0.0000
# 2 3.6327 116.5557 30.8218 0.0000 0.0000 0.0000
# 3 0.0091 30.8218 98.7607 0.0000 0.0000 0.0000
# 4 0.0000 0.0000 0.0000 7.5379 0.0000 0.0000
# 5 0.0000 0.0000 0.0000 0.0000 -2.9965 0.0000
# 6 0.0000 0.0000 0.0000 0.0000 0.0000 13.9547
#
#
#
# Elastic Compliance Matrix: (Units=1/GPa)
#
#
# Indices 1 2 3 4 5 6 
#
# 1 0.079671 -0.002704 0.000837 0.000000 0.000000 0.000000
# 2 -0.002704 0.009443 -0.002947 0.000000 0.000000 0.000000
# 3 0.000837 -0.002947 0.011045 0.000000 0.000000 0.000000
# 4 0.000000 0.000000 0.000000 0.132664 0.000000 0.000000
# 5 0.000000 0.000000 0.000000 0.000000 -0.333725 0.000000
# 6 0.000000 0.000000 0.000000 0.000000 0.000000 0.071661
#
#
# Mechanical properties :
#
#
# Convention : Reuss Voigt Hill
#
# Bulk Modulus (GPa) = 11.04610 32.99096 22.01853
# Shear Modulus (GPa) = 473.32126 16.60106 244.96116
#
# Velocity S-wave (km/s) = 15.66603 2.93392 11.27015
# Velocity P-wave (km/s) = 18.24720 5.34636 13.44514
#
# Compressibility (1/GPa) = 0.09052965
#
# Stress axis : x y z
#
# Youngs Moduli (GPa) = 12.55170 105.89716 90.53815
#
# Poissons Ratio (x) = 0.28638 -0.07575
# Poissons Ratio (y) = 0.03394 0.26680
# Poissons Ratio (z) = -0.01050 0.31206
#
# Static dielectric constant tensor:
#      x y z
#    x 1.712680 0.000000 0.000000 
#    y 0.000000 1.667750 0.000000 
#    z 0.000000 0.000000 1.822320 
# 
# From -- ./inp_files/36945.got.cif
#   From: 2010.05.17/outbox.cif.g08.bks.cpg/sg65_19_cif.got.tgz:36945.got - 2010.06.03 17:01:31.
