data_PCOD9494126
_publ_section_title
;
Structure prediction by ZEFSAII (Michael W. Deem and Ramdas Pophale) SiO2 
 PCOD9494126
Probable space group: C M M M
;
_chemical_formula_sum "Si O2"
_cell_formula_units_Z 88
_cell_length_a 29.289404
_cell_length_b 13.982207
_cell_length_c 14.129351
_cell_angle_alpha 90.000000
_cell_angle_beta 90.000000
_cell_angle_gamma 90.000000
_cell_volume 5786.400316
_symmetry_space_group_name_H-M "C M M M"
_symmetry_group_IT_number 65
_symmetry_cell_setting 'orthorhombic'
loop_
_space_group_symop_operation_xyz
x,y,z
-x,-y,z
x,-y,-z
-x,y,-z
-x,-y,-z
x,y,-z
-x,y,z
x,-y,z
1/2+x,1/2+y,z
1/2-x,1/2-y,z
1/2+x,1/2-y,-z
1/2-x,1/2+y,-z
1/2-x,1/2-y,-z
1/2+x,1/2+y,-z
1/2-x,1/2+y,z
1/2+x,1/2-y,z
loop_
_atom_site_type_symbol
_atom_site_label
_atom_site_fract_x
_atom_site_fract_y
_atom_site_fract_z
Si Si1 0.000000 0.391589 0.885384
Si Si2 0.328038 0.386496 0.388431
Si Si3 0.778914 0.614533 0.607927
Si Si4 0.898449 0.615156 0.887414
Si Si5 0.551671 0.113438 0.613630
Si Si6 0.862010 0.289130 0.286582
O O1 0.950356 0.352503 0.861814
O O2 0.000000 0.500000 0.848694
O O3 0.000000 0.396893 0.000000
O O4 0.337479 0.365580 0.500000
O O5 0.334773 0.500000 0.375184
O O6 0.274182 0.365226 0.371837
O O7 0.356920 0.320749 0.318097
O O8 0.787938 0.645442 0.500000
O O9 0.783981 0.500000 0.611699
O O10 0.816473 0.661504 0.673177
O O11 0.894384 0.500000 0.867756
O O12 0.866528 0.679579 0.822302
O O13 0.891766 0.626305 0.000000
O O14 0.554358 0.126056 0.500000
O O15 0.500000 0.141741 0.643531
O O16 0.593286 0.167408 0.662306
O O17 0.556417 0.000000 0.632351
#
# Coordination Sequence:
#
# PCOD9494126 Si02
#       6
#     8  16  16  16  16  16
#     4   7  12  26  44  60  86 121 148 176 220 271
#     4   9  19  34  49  67  93 122 155 199 240 269
#     4   9  17  29  46  71  98 119 145 186 235 285
#     4   9  18  30  44  67  97 124 152 190 233 276
#     4   9  18  29  39  61  99 128 143 171 222 284
#     4  12  19  26  48  71  89 121 163 190 223 276
#
# _framework density 15.208074
#
# number of rings (size 3 to 8) (size 9 to 14) (size 15 to 20)
#    0.000    2.636    0.000    6.545    1.273    2.909 
#    0.000    0.000    0.000    3.273    0.000    5.091 
#    0.000    2.182    0.000    0.000    0.000    0.000 
#
# Total GULP energy -245178.692272 kJ/mol
# GULP energy per Si atom -5572.243006 kJ/mol
# Density = 1.517346 g / cm^3
# Si number density = 15.208074 Si / 1000 Ang^3
#
#
#
# Elastic Constant Matrix: (Units=GPa)
#
#
# Indices 1 2 3 4 5 6 
#
# 1 49.0518 39.8158 40.7413 0.0000 0.0000 0.0000
# 2 39.8158 65.5671 42.9034 0.0000 0.0000 0.0000
# 3 40.7413 42.9034 76.4681 0.0000 0.0000 0.0000
# 4 0.0000 0.0000 0.0000 19.7012 0.0000 0.0000
# 5 0.0000 0.0000 0.0000 0.0000 21.9577 0.0000
# 6 0.0000 0.0000 0.0000 0.0000 0.0000 20.7507
#
#
#
# Elastic Compliance Matrix: (Units=1/GPa)
#
#
# Indices 1 2 3 4 5 6 
#
# 1 0.048982 -0.020017 -0.014866 0.000000 0.000000 0.000000
# 2 -0.020017 0.032279 -0.007446 0.000000 0.000000 0.000000
# 3 -0.014866 -0.007446 0.025176 0.000000 0.000000 0.000000
# 4 0.000000 0.000000 0.000000 0.050758 0.000000 0.000000
# 5 0.000000 0.000000 0.000000 0.000000 0.045542 0.000000
# 6 0.000000 0.000000 0.000000 0.000000 0.000000 0.048191
#
#
# Mechanical properties :
#
#
# Convention : Reuss Voigt Hill
#
# Bulk Modulus (GPa) = 45.91662 48.66756 47.29209
# Shear Modulus (GPa) = 14.58383 16.99036 15.78709
#
# Velocity S-wave (km/s) = 3.10006 3.34607 3.22541
# Velocity P-wave (km/s) = 6.56290 6.85557 6.71083
#
# Compressibility (1/GPa) = 0.02177861
#
# Stress axis : x y z
#
# Youngs Moduli (GPa) = 20.41562 30.98003 39.72105
#
# Poissons Ratio (x) = 0.62012 0.59051
# Poissons Ratio (y) = 0.40865 0.29575
# Poissons Ratio (z) = 0.30351 0.23067
#
# Static dielectric constant tensor:
#      x y z
#    x 1.518120 0.000000 0.000000 
#    y 0.000000 1.506700 0.000000 
#    z 0.000000 0.000000 1.528500 
# 
# From -- ./inp_files/46912.got.cif
#   From: 2010.05.17/outbox.cif.g08.bks.cpg/sg65_24_cif.got.tgz:46912.got - 2010.06.03 17:01:31.
