data_PCOD9494255
_publ_section_title
;
Structure prediction by ZEFSAII (Michael W. Deem and Ramdas Pophale) SiO2 
 PCOD9494255
Probable space group: C M M M
;
_chemical_formula_sum "Si O2"
_cell_formula_units_Z 120
_cell_length_a 29.567559
_cell_length_b 7.317033
_cell_length_c 29.847763
_cell_angle_alpha 90.000000
_cell_angle_beta 90.000000
_cell_angle_gamma 90.000000
_cell_volume 6457.468159
_symmetry_space_group_name_H-M "C M M M"
_symmetry_group_IT_number 65
_symmetry_cell_setting 'orthorhombic'
loop_
_space_group_symop_operation_xyz
x,y,z
-x,-y,z
x,-y,-z
-x,y,-z
-x,-y,-z
x,y,-z
-x,y,z
x,-y,z
1/2+x,1/2+y,z
1/2-x,1/2-y,z
1/2+x,1/2-y,-z
1/2-x,1/2+y,-z
1/2-x,1/2-y,-z
1/2+x,1/2+y,-z
1/2-x,1/2+y,z
1/2+x,1/2-y,z
loop_
_atom_site_type_symbol
_atom_site_label
_atom_site_fract_x
_atom_site_fract_y
_atom_site_fract_z
Si Si1 0.052360 0.776775 0.500000
Si Si2 0.448083 0.722491 0.321793
Si Si3 0.800858 0.782258 0.623580
Si Si4 0.393266 0.276946 0.766534
Si Si5 0.053921 0.779770 0.951824
Si Si6 0.199113 0.782347 0.726152
Si Si7 0.394998 0.277073 0.588821
Si Si8 0.947266 0.776904 0.853669
O O1 0.078907 0.717565 0.455539
O O2 0.000000 0.719601 0.500000
O O3 0.052040 0.000000 0.500000
O O4 0.500000 0.781470 0.322655
O O5 0.447953 0.500000 0.321865
O O6 0.422827 0.778359 0.276530
O O7 0.421321 0.778862 0.366191
O O8 0.750000 0.750000 0.606913
O O9 0.804072 0.711207 0.674883
O O10 0.842953 0.717041 0.594159
O O11 0.806018 0.000000 0.626567
O O12 0.393688 0.500000 0.767714
O O13 0.341990 0.216494 0.756760
O O14 0.416492 0.216264 0.812456
O O15 0.069712 0.716880 0.902920
O O16 0.000000 0.743293 0.951792
O O17 0.058934 0.000000 0.952170
O O18 0.072001 0.713031 0.000000
O O19 0.250000 0.750000 0.742538
O O20 0.193424 0.000000 0.722956
O O21 0.395512 0.500000 0.587824
O O22 0.000000 0.723451 0.847751
O O23 0.947326 0.000000 0.853816
#
# Coordination Sequence:
#
# PCOD9494255 Si02
#       8
#     8  16  16  16  16  16  16  16
#     4   9  16  24  35  52  75 101 123 143 174 217
#     4   9  14  19  29  45  67  93 116 138 169 212
#     4   9  16  27  42  58  77  99 123 151 184 219
#     4   9  14  20  29  45  68  91 114 142 177 213
#     4   7   9  13  20  30  48  79 117 147 167 196
#     4   9  16  26  39  54  73  96 122 151 183 217
#     4   9  15  24  35  50  72  97 121 146 177 212
#     4   8  12  16  23  38  62  90 115 140 174 213
#
# _framework density 18.583133
#
# number of rings (size 3 to 8) (size 9 to 14) (size 15 to 20)
#    0.000    3.400    1.333    2.000    0.000    3.200 
#    0.000    0.333    0.000    0.000    0.000    0.000 
#    0.000    6.400    0.000    0.400    0.000    0.933 
#
# Total GULP energy -334463.790650 kJ/mol
# GULP energy per Si atom -5574.396511 kJ/mol
# Density = 1.854084 g / cm^3
# Si number density = 18.583133 Si / 1000 Ang^3
#
#
#
# Elastic Constant Matrix: (Units=GPa)
#
#
# Indices 1 2 3 4 5 6 
#
# 1 167.9190 2.4930 105.4153 0.0000 0.0000 0.0000
# 2 2.4930 72.3024 5.4791 0.0000 0.0000 0.0000
# 3 105.4153 5.4791 186.3102 0.0000 0.0000 0.0000
# 4 0.0000 0.0000 0.0000 -7.2769 0.0000 0.0000
# 5 0.0000 0.0000 0.0000 0.0000 7.1783 0.0000
# 6 0.0000 0.0000 0.0000 0.0000 0.0000 1.2605
#
#
#
# Elastic Compliance Matrix: (Units=1/GPa)
#
#
# Indices 1 2 3 4 5 6 
#
# 1 0.009236 0.000078 -0.005228 0.000000 0.000000 0.000000
# 2 0.000078 0.013862 -0.000452 0.000000 0.000000 0.000000
# 3 -0.005228 -0.000452 0.008339 0.000000 0.000000 0.000000
# 4 0.000000 0.000000 0.000000 -0.137421 0.000000 0.000000
# 5 0.000000 0.000000 0.000000 0.000000 0.139308 0.000000
# 6 0.000000 0.000000 0.000000 0.000000 0.000000 0.793311
#
#
# Mechanical properties :
#
#
# Convention : Reuss Voigt Hill
#
# Bulk Modulus (GPa) = 49.42381 72.58959 61.00670
# Shear Modulus (GPa) = 5.92007 21.10867 13.51437
#
# Velocity S-wave (km/s) = 1.78680 3.37398 2.69966
# Velocity P-wave (km/s) = 5.55973 7.37056 6.52824
#
# Compressibility (1/GPa) = 0.02023316
#
# Stress axis : x y z
#
# Youngs Moduli (GPa) = 108.26927 72.13785 119.92108
#
# Poissons Ratio (x) = -0.00561 0.62697
# Poissons Ratio (y) = -0.00842 0.05416
# Poissons Ratio (z) = 0.56605 0.03258
#
# Static dielectric constant tensor:
#      x y z
#    x 1.623490 0.000000 0.000000 
#    y 0.000000 1.767920 0.000000 
#    z 0.000000 0.000000 1.642410 
# 
# From -- ./inp_files/78448.got.cif
#   From: 2010.05.17/outbox.cif.g08.bks.cpg/sg65_40_cif.got.tgz:78448.got - 2010.06.03 17:01:31.
