data_PCOD9494920
_publ_section_title
;
Structure prediction by ZEFSAII (Michael W. Deem and Ramdas Pophale) SiO2 
 PCOD9494920
Probable space group: C C C M
;
_chemical_formula_sum "Si O2"
_cell_formula_units_Z 44
_cell_length_a 12.305724
_cell_length_b 14.208315
_cell_length_c 8.799350
_cell_angle_alpha 90.000000
_cell_angle_beta 90.000000
_cell_angle_gamma 90.000000
_cell_volume 1538.510057
_symmetry_space_group_name_H-M "C C C M"
_symmetry_group_IT_number 66
_symmetry_cell_setting 'orthorhombic'
loop_
_space_group_symop_operation_xyz
x,y,z
-x,-y,z
x,-y,1/2-z
-x,y,1/2-z
-x,-y,-z
x,y,-z
-x,y,1/2+z
x,-y,1/2+z
1/2+x,1/2+y,z
1/2-x,1/2-y,z
1/2+x,1/2-y,1/2-z
1/2-x,1/2+y,1/2-z
1/2-x,1/2-y,-z
1/2+x,1/2+y,-z
1/2-x,1/2+y,1/2+z
1/2+x,1/2-y,1/2+z
loop_
_atom_site_type_symbol
_atom_site_label
_atom_site_fract_x
_atom_site_fract_y
_atom_site_fract_z
Si Si1 0.140171 0.536181 0.000000
Si Si2 0.126449 0.677371 0.500000
Si Si3 0.124621 0.282288 0.669309
Si Si4 0.500000 0.500000 0.250000
Si Si5 0.348235 0.424686 0.000000
O O1 0.122092 0.604569 0.142184
O O2 0.269465 0.515097 0.000000
O O3 0.912108 0.567044 0.000000
O O4 0.084827 0.724450 0.655851
O O5 0.257483 0.656844 0.500000
O O6 0.095738 0.242827 0.500000
O O7 0.250000 0.250000 0.682919
O O8 0.424082 0.435138 0.145885
#
# Coordination Sequence:
#
# PCOD9494920 Si02
#       5
#     8   8  16   4   8
#     4   8  16  27  36  53  68  97 130 149 192 216
#     4  10  16  27  40  51  68 101 126 151 194 214
#     4   9  17  25  36  54  71  87 120 165 187 214
#     4  10  16  26  32  54  76  82 128 174 186 210
#     4   9  18  24  38  52  68 100 124 162 194 207
#
# _framework density 28.5991
#
# number of rings (size 3 to 8) (size 9 to 14) (size 15 to 20)
#    2.182    0.727    0.000    3.818    0.000    0.000 
#    0.000    0.000    0.000    0.000    0.000    0.000 
#    0.000    0.000    0.000    0.000    0.000    0.000 
#
# Total GULP energy -122912.528293 kJ/mol
# GULP energy per Si atom -5586.933104 kJ/mol
# Density = 2.853401 g / cm^3
# Si number density = 28.599100 Si / 1000 Ang^3
#
#
#
# Elastic Constant Matrix: (Units=GPa)
#
#
# Indices 1 2 3 4 5 6 
#
# 1 105.2095 27.5674 93.9895 0.0000 0.0000 0.0000
# 2 27.5674 138.5467 35.9048 0.0000 0.0000 0.0000
# 3 93.9895 35.9048 311.2085 0.0000 0.0000 0.0000
# 4 0.0000 0.0000 0.0000 7.5158 0.0000 0.0000
# 5 0.0000 0.0000 0.0000 0.0000 80.7466 0.0000
# 6 0.0000 0.0000 0.0000 0.0000 0.0000 28.1455
#
#
#
# Elastic Compliance Matrix: (Units=1/GPa)
#
#
# Indices 1 2 3 4 5 6 
#
# 1 0.013379 -0.001665 -0.003849 0.000000 0.000000 0.000000
# 2 -0.001665 0.007647 -0.000380 0.000000 0.000000 0.000000
# 3 -0.003849 -0.000380 0.004419 0.000000 0.000000 0.000000
# 4 0.000000 0.000000 0.000000 0.133053 0.000000 0.000000
# 5 0.000000 0.000000 0.000000 0.000000 0.012384 0.000000
# 6 0.000000 0.000000 0.000000 0.000000 0.000000 0.035530
#
#
# Mechanical properties :
#
#
# Convention : Reuss Voigt Hill
#
# Bulk Modulus (GPa) = 73.20538 96.65424 84.92981
# Shear Modulus (GPa) = 22.44647 49.78179 36.11413
#
# Velocity S-wave (km/s) = 2.80459 4.17667 3.55740
# Velocity P-wave (km/s) = 6.01168 7.55837 6.82896
#
# Compressibility (1/GPa) = 0.01366020
#
# Stress axis : x y z
#
# Youngs Moduli (GPa) = 74.74238 130.76374 226.27403
#
# Poissons Ratio (x) = 0.21769 0.87085
# Poissons Ratio (y) = 0.12443 0.08587
# Poissons Ratio (z) = 0.28766 0.04963
#
# Static dielectric constant tensor:
#      x y z
#    x 2.564310 0.000000 0.000000 
#    y 0.000000 2.163860 0.000000 
#    z 0.000000 0.000000 2.161560 
# 
# From -- ./inp_files/3452.got.cif
#   From: 2010.05.17/outbox.cif.g08.bks.cpg/sg66_2_cif.got.tgz:3452.got - 2010.06.03 17:51:23.
