data_PCOD9494264
_publ_section_title
;
Structure prediction by ZEFSAII (Michael W. Deem and Ramdas Pophale) SiO2 
 PCOD9494264
Probable space group: C M M M
;
_chemical_formula_sum "Si O2"
_cell_formula_units_Z 72
_cell_length_a 7.201729
_cell_length_b 14.609238
_cell_length_c 25.929654
_cell_angle_alpha 90.000000
_cell_angle_beta 90.000000
_cell_angle_gamma 90.000000
_cell_volume 2728.104870
_symmetry_space_group_name_H-M "C M M M"
_symmetry_group_IT_number 65
_symmetry_cell_setting 'orthorhombic'
loop_
_space_group_symop_operation_xyz
x,y,z
-x,-y,z
x,-y,-z
-x,y,-z
-x,-y,-z
x,y,-z
-x,y,z
x,-y,z
1/2+x,1/2+y,z
1/2-x,1/2-y,z
1/2+x,1/2-y,-z
1/2-x,1/2+y,-z
1/2-x,1/2-y,-z
1/2+x,1/2+y,-z
1/2-x,1/2+y,z
1/2+x,1/2-y,z
loop_
_atom_site_type_symbol
_atom_site_label
_atom_site_fract_x
_atom_site_fract_y
_atom_site_fract_z
Si Si1 0.280066 0.141844 0.277955
Si Si2 0.274543 0.891734 0.944721
Si Si3 0.278948 0.860149 0.500000
Si Si4 0.778783 0.639772 0.611206
Si Si5 0.289922 0.108992 0.164916
O O1 0.500000 0.118788 0.276511
O O2 0.250000 0.250000 0.281361
O O3 0.208953 0.105778 0.333158
O O4 0.203856 0.118733 0.221468
O O5 0.500000 0.886170 0.943308
O O6 0.208014 0.855677 0.889162
O O7 0.228293 0.000000 0.946480
O O8 0.212562 0.852747 0.000000
O O9 0.500000 0.876968 0.500000
O O10 0.250000 0.750000 0.500000
O O11 0.208080 0.893370 0.444400
O O12 0.750000 0.750000 0.610721
O O13 0.000000 0.623530 0.611502
O O14 0.500000 0.147573 0.168938
O O15 0.303639 0.000000 0.157557
#
# Coordination Sequence:
#
# PCOD9494264 Si02
#       5
#    16  16   8  16  16
#     4   9  16  25  37  53  73  96 119 143 174 211
#     4   7   9  14  26  45  67  87 108 140 179 207
#     4   8  12  18  28  42  61  83 107 137 169 198
#     4   8  13  20  30  45  64  86 111 138 169 202
#     4   8  13  21  34  52  71  91 118 149 176 204
#
# _framework density 26.391946999999998
#
# number of rings (size 3 to 8) (size 9 to 14) (size 15 to 20)
#    0.000    4.000    0.000    2.000    0.000    0.000 
#    0.000    0.000    0.000    1.333    0.000    0.778 
#    0.000    6.222    0.000    5.556    0.000  215.778 
#
# Total GULP energy -200521.244579 kJ/mol
# GULP energy per Si atom -5570.034572 kJ/mol
# Density = 2.633188 g / cm^3
# Si number density = 26.391947 Si / 1000 Ang^3
#
#
#
# Elastic Constant Matrix: (Units=GPa)
#
#
# Indices 1 2 3 4 5 6 
#
# 1 140.5017 -11.1489 25.4120 0.0000 0.0000 0.0000
# 2 -11.1489 83.3102 17.6796 0.0000 0.0000 0.0000
# 3 25.4120 17.6796 447.4462 0.0000 0.0000 0.0000
# 4 0.0000 0.0000 0.0000 18.0865 0.0000 0.0000
# 5 0.0000 0.0000 0.0000 0.0000 188.2754 0.0000
# 6 0.0000 0.0000 0.0000 0.0000 0.0000 -13.1126
#
#
#
# Elastic Compliance Matrix: (Units=1/GPa)
#
#
# Indices 1 2 3 4 5 6 
#
# 1 0.007285 0.001072 -0.000456 0.000000 0.000000 0.000000
# 2 0.001072 0.012262 -0.000545 0.000000 0.000000 0.000000
# 3 -0.000456 -0.000545 0.002282 0.000000 0.000000 0.000000
# 4 0.000000 0.000000 0.000000 0.055290 0.000000 0.000000
# 5 0.000000 0.000000 0.000000 0.000000 0.005311 0.000000
# 6 0.000000 0.000000 0.000000 0.000000 0.000000 -0.076262
#
#
# Mechanical properties :
#
#
# Convention : Reuss Voigt Hill
#
# Bulk Modulus (GPa) = 45.51627 81.68260 63.59943
# Shear Modulus (GPa) = 374.48363 81.27086 227.87725
#
# Velocity S-wave (km/s) = 11.92481 5.55524 9.30220
# Velocity P-wave (km/s) = 14.38351 8.49497 11.81207
#
# Compressibility (1/GPa) = 0.02197017
#
# Stress axis : x y z
#
# Youngs Moduli (GPa) = 137.27061 81.54951 438.14355
#
# Poissons Ratio (x) = -0.08740 0.19983
# Poissons Ratio (y) = -0.14711 0.23896
# Poissons Ratio (z) = 0.06261 0.04448
#
# Static dielectric constant tensor:
#      x y z
#    x 2.003450 0.000000 0.000000 
#    y 0.000000 2.059580 0.000000 
#    z 0.000000 0.000000 2.177150 
# 
# From -- ./inp_files/61315.got.cif
#   From: 2010.05.17/outbox.cif.g08.bks.cpg/sg65_31_cif.got.tgz:61315.got - 2010.06.03 17:01:31.
