data_PCOD9494046
_publ_section_title
;
Structure prediction by ZEFSAII (Michael W. Deem and Ramdas Pophale) SiO2 
 PCOD9494046
Probable space group: C M M M
;
_chemical_formula_sum "Si O2"
_cell_formula_units_Z 88
_cell_length_a 8.170840
_cell_length_b 21.605178
_cell_length_c 24.872301
_cell_angle_alpha 90.000000
_cell_angle_beta 90.000000
_cell_angle_gamma 90.000000
_cell_volume 4390.768298
_symmetry_space_group_name_H-M "C M M M"
_symmetry_group_IT_number 65
_symmetry_cell_setting 'orthorhombic'
loop_
_space_group_symop_operation_xyz
x,y,z
-x,-y,z
x,-y,-z
-x,y,-z
-x,-y,-z
x,y,-z
-x,y,z
x,-y,z
1/2+x,1/2+y,z
1/2-x,1/2-y,z
1/2+x,1/2-y,-z
1/2-x,1/2+y,-z
1/2-x,1/2-y,-z
1/2+x,1/2+y,-z
1/2-x,1/2+y,z
1/2+x,1/2-y,z
loop_
_atom_site_type_symbol
_atom_site_label
_atom_site_fract_x
_atom_site_fract_y
_atom_site_fract_z
Si Si1 0.699685 0.930811 0.136124
Si Si2 0.304850 0.364809 0.439567
Si Si3 0.197659 0.681769 0.938083
Si Si4 0.302681 0.931321 0.739209
Si Si5 0.684554 0.000000 0.434982
Si Si6 0.194444 0.184653 0.669382
O O1 0.500000 0.930115 0.135128
O O2 0.756931 0.874548 0.098997
O O3 0.748049 0.923288 0.198471
O O4 0.750102 0.000000 0.118343
O O5 0.237163 0.354814 0.500000
O O6 0.500000 0.356275 0.442888
O O7 0.272379 0.435885 0.422197
O O8 0.236679 0.323474 0.391357
O O9 0.250000 0.750000 0.919137
O O10 0.000000 0.680051 0.938276
O O11 0.253859 0.674692 0.000000
O O12 0.500000 0.931518 0.738174
O O13 0.244319 0.874622 0.703724
O O14 0.247473 0.000000 0.720955
O O15 0.500000 0.000000 0.412909
O O16 0.675544 0.000000 0.500000
O O17 0.250000 0.250000 0.692816
O O18 0.000000 0.185344 0.665861
#
# Coordination Sequence:
#
# PCOD9494046 Si02
#       6
#    16  16  16  16   8  16
#     4   8  15  30  52  77 103 132 171 216 261 306
#     4   9  19  36  55  75 103 138 171 207 258 315
#     4   9  17  29  47  73 105 140 176 214 255 302
#     4   9  19  37  59  80 105 139 175 217 268 318
#     4   9  17  29  49  79 107 131 165 207 246 293
#     4  11  24  39  56  79 107 138 175 218 263 316
#
# _framework density 20.042051000000001
#
# number of rings (size 3 to 8) (size 9 to 14) (size 15 to 20)
#    0.000    2.818    0.000    1.909    1.273    4.364 
#    0.000    4.545    0.000    1.636    0.000    2.545 
#    0.000    0.000    0.000    0.000    0.000    0.000 
#
# Total GULP energy -245386.543514 kJ/mol
# GULP energy per Si atom -5576.966898 kJ/mol
# Density = 1.999643 g / cm^3
# Si number density = 20.042051 Si / 1000 Ang^3
#
#
#
# Elastic Constant Matrix: (Units=GPa)
#
#
# Indices 1 2 3 4 5 6 
#
# 1 11.2850 11.7350 13.9958 0.0000 0.0000 0.0000
# 2 11.7350 188.6909 96.8641 0.0000 0.0000 0.0000
# 3 13.9958 96.8641 84.3069 0.0000 0.0000 0.0000
# 4 0.0000 0.0000 0.0000 7.4320 0.0000 0.0000
# 5 0.0000 0.0000 0.0000 0.0000 12.6758 0.0000
# 6 0.0000 0.0000 0.0000 0.0000 0.0000 19.5073
#
#
#
# Elastic Compliance Matrix: (Units=1/GPa)
#
#
# Indices 1 2 3 4 5 6 
#
# 1 0.114710 0.006440 -0.026442 0.000000 0.000000 0.000000
# 2 0.006440 0.013282 -0.016329 0.000000 0.000000 0.000000
# 3 -0.026442 -0.016329 0.035012 0.000000 0.000000 0.000000
# 4 0.000000 0.000000 0.000000 0.134553 0.000000 0.000000
# 5 0.000000 0.000000 0.000000 0.000000 0.078890 0.000000
# 6 0.000000 0.000000 0.000000 0.000000 0.000000 0.051263
#
#
# Mechanical properties :
#
#
# Convention : Reuss Voigt Hill
#
# Bulk Modulus (GPa) = 11.06914 58.83030 34.94972
# Shear Modulus (GPa) = 9.42532 18.70222 14.06377
#
# Velocity S-wave (km/s) = 2.17094 3.05806 2.65186
# Velocity P-wave (km/s) = 3.43787 6.47195 5.18194
#
# Compressibility (1/GPa) = 0.09034128
#
# Stress axis : x y z
#
# Youngs Moduli (GPa) = 8.71766 75.29224 28.56151
#
# Poissons Ratio (x) = -0.48488 0.75523
# Poissons Ratio (y) = -0.05614 0.46638
# Poissons Ratio (z) = 0.23051 1.22944
#
# Static dielectric constant tensor:
#      x y z
#    x 1.712010 0.000000 0.000000 
#    y 0.000000 1.712740 0.000000 
#    z 0.000000 0.000000 1.729290 
# 
# From -- ./inp_files/67597.got.cif
#   From: 2010.05.17/outbox.cif.g08.bks.cpg/sg65_34_cif.got.tgz:67597.got - 2010.06.03 17:01:31.
