data_PCOD9494921
_publ_section_title
;
Structure prediction by ZEFSAII (Michael W. Deem and Ramdas Pophale) SiO2 
 PCOD9494921
Probable space group: C C C M
;
_chemical_formula_sum "Si O2"
_cell_formula_units_Z 108
_cell_length_a 24.912348
_cell_length_b 7.046423
_cell_length_c 22.862875
_cell_angle_alpha 90.000000
_cell_angle_beta 90.000000
_cell_angle_gamma 90.000000
_cell_volume 4013.416339
_symmetry_space_group_name_H-M "C C C M"
_symmetry_group_IT_number 66
_symmetry_cell_setting 'orthorhombic'
loop_
_space_group_symop_operation_xyz
x,y,z
-x,-y,z
x,-y,1/2-z
-x,y,1/2-z
-x,-y,-z
x,y,-z
-x,y,1/2+z
x,-y,1/2+z
1/2+x,1/2+y,z
1/2-x,1/2-y,z
1/2+x,1/2-y,1/2-z
1/2-x,1/2+y,1/2-z
1/2-x,1/2-y,-z
1/2+x,1/2+y,-z
1/2-x,1/2+y,1/2+z
1/2+x,1/2-y,1/2+z
loop_
_atom_site_type_symbol
_atom_site_label
_atom_site_fract_x
_atom_site_fract_y
_atom_site_fract_z
Si Si1 0.750000 0.250000 0.829128
Si Si2 0.250000 0.750000 0.500000
Si Si3 0.941160 0.275321 0.763780
Si Si4 0.055926 0.731859 0.569356
Si Si5 0.561935 0.208121 0.101806
Si Si6 0.674730 0.851653 0.436442
Si Si7 0.826598 0.272822 0.729861
Si Si8 0.329382 0.283508 0.904553
O O1 0.707342 0.177713 0.877146
O O2 0.792019 0.171439 0.780335
O O3 0.284228 0.631344 0.552652
O O4 0.943498 0.500000 0.750000
O O5 0.930279 0.242586 0.831271
O O6 0.888466 0.210493 0.730504
O O7 0.000000 0.200820 0.750000
O O8 0.061816 0.712079 0.500000
O O9 0.057418 0.522558 0.598528
O O10 0.107933 0.845461 0.592649
O O11 0.994316 0.792282 0.580283
O O12 0.616690 0.245753 0.067989
O O13 0.697128 0.807095 0.500000
O O14 0.666558 0.077957 0.435514
O O15 0.823718 0.500000 0.750000
O O16 0.810498 0.239893 0.662431
#
# Coordination Sequence:
#
# PCOD9494921 Si02
#       8
#     8   4  16  16  16  16  16  16
#     4  12  22  36  52  74 104 142 178 210 252 310
#     4  12  22  36  52  74 104 142 178 210 252 310
#     4  10  16  26  43  69 100 134 166 193 245 313
#     4  10  16  26  43  69 100 134 166 193 245 313
#     4  10  16  26  43  69 100 134 166 193 245 313
#     4  11  20  35  52  74 107 140 172 211 254 303
#     4  11  20  35  52  74 107 140 172 211 254 303
#     4  11  20  35  52  74 107 140 172 211 254 303
#
# _framework density 26.909741
#
# number of rings (size 3 to 8) (size 9 to 14) (size 15 to 20)
#    0.000    1.333    4.444    8.667    0.000    0.000 
#    0.000    0.000    0.000    0.000    0.000    0.000 
#    0.000    5.333    0.000    0.000    0.000    0.000 
#
# Total GULP energy -301136.562143 kJ/mol
# GULP energy per Si atom -5576.603003 kJ/mol
# Density = 2.684849 g / cm^3
# Si number density = 26.909741 Si / 1000 Ang^3
#
#
#
# Elastic Constant Matrix: (Units=GPa)
#
#
# Indices 1 2 3 4 5 6 
#
# 1 212.5525 17.4699 56.5664 0.0000 0.0000 0.0000
# 2 17.4699 97.0713 18.2497 0.0000 0.0000 0.0000
# 3 56.5664 18.2497 276.1215 0.0000 0.0000 0.0000
# 4 0.0000 0.0000 0.0000 -8.1663 0.0000 0.0000
# 5 0.0000 0.0000 0.0000 0.0000 62.0190 0.0000
# 6 0.0000 0.0000 0.0000 0.0000 0.0000 0.4840
#
#
#
# Elastic Compliance Matrix: (Units=1/GPa)
#
#
# Indices 1 2 3 4 5 6 
#
# 1 0.005025 -0.000720 -0.000982 0.000000 0.000000 0.000000
# 2 -0.000720 0.010534 -0.000549 0.000000 0.000000 0.000000
# 3 -0.000982 -0.000549 0.003859 0.000000 0.000000 0.000000
# 4 0.000000 0.000000 0.000000 -0.122455 0.000000 0.000000
# 5 0.000000 0.000000 0.000000 0.000000 0.016124 0.000000
# 6 0.000000 0.000000 0.000000 0.000000 0.000000 2.066212
#
#
# Mechanical properties :
#
#
# Convention : Reuss Voigt Hill
#
# Bulk Modulus (GPa) = 67.03453 85.59081 76.31267
# Shear Modulus (GPa) = 2.51411 43.76464 23.13937
#
# Velocity S-wave (km/s) = 0.96763 4.03718 2.93557
# Velocity P-wave (km/s) = 5.11990 7.32171 6.31747
#
# Compressibility (1/GPa) = 0.01491769
#
# Stress axis : x y z
#
# Youngs Moduli (GPa) = 198.99744 94.92692 259.13338
#
# Poissons Ratio (x) = 0.06833 0.25444
# Poissons Ratio (y) = 0.14324 0.14221
# Poissons Ratio (z) = 0.19539 0.05210
#
# Static dielectric constant tensor:
#      x y z
#    x 2.404440 0.000000 0.000000 
#    y 0.000000 2.351130 0.000000 
#    z 0.000000 0.000000 2.012750 
# 
# From -- ./inp_files/59922.got.cif
#   From: 2010.05.17/outbox.cif.g08.bks.cpg/sg66_30_cif.got.tgz:59922.got - 2010.06.03 17:51:23.
