data_PCOD9494497
_publ_section_title
;
Structure prediction by ZEFSAII (Michael W. Deem and Ramdas Pophale) SiO2 
 PCOD9494497
Probable space group: C M M M
;
_chemical_formula_sum "Si O2"
_cell_formula_units_Z 88
_cell_length_a 28.051390
_cell_length_b 26.516846
_cell_length_c 9.327178
_cell_angle_alpha 90.000000
_cell_angle_beta 90.000000
_cell_angle_gamma 90.000000
_cell_volume 6937.875746
_symmetry_space_group_name_H-M "C M M M"
_symmetry_group_IT_number 65
_symmetry_cell_setting 'orthorhombic'
loop_
_space_group_symop_operation_xyz
x,y,z
-x,-y,z
x,-y,-z
-x,y,-z
-x,-y,-z
x,y,-z
-x,y,z
x,-y,z
1/2+x,1/2+y,z
1/2-x,1/2-y,z
1/2+x,1/2-y,-z
1/2-x,1/2+y,-z
1/2-x,1/2-y,-z
1/2+x,1/2+y,-z
1/2-x,1/2+y,z
1/2+x,1/2-y,z
loop_
_atom_site_type_symbol
_atom_site_label
_atom_site_fract_x
_atom_site_fract_y
_atom_site_fract_z
Si Si1 0.055592 0.706957 0.329290
Si Si2 0.805723 0.648561 0.165263
Si Si3 0.139206 0.756574 0.165104
Si Si4 0.108839 0.398308 0.671543
Si Si5 0.445292 0.000000 0.325491
Si Si6 0.722380 0.695880 0.665639
O O1 0.061048 0.715846 0.500000
O O2 0.089452 0.744649 0.242345
O O3 0.074850 0.650140 0.302422
O O4 0.000000 0.710753 0.292415
O O5 0.832573 0.702957 0.165553
O O6 0.842030 0.611496 0.245678
O O7 0.756889 0.657686 0.250728
O O8 0.797650 0.634555 0.000000
O O9 0.172890 0.794424 0.252870
O O10 0.133452 0.771889 0.000000
O O11 0.117613 0.400112 0.500000
O O12 0.082422 0.449368 0.716707
O O13 0.500000 0.000000 0.275408
O O14 0.446715 0.000000 0.500000
O O15 0.715617 0.681730 0.500000
O O16 0.750000 0.750000 0.666202
#
# Coordination Sequence:
#
# PCOD9494497 Si02
#       6
#    16  16  16  16   8  16
#     4   9  16  25  36  49  66  89 117 148 179 210
#     4   9  16  25  36  50  68  87 106 132 169 211
#     4   9  16  24  34  49  68  88 109 134 166 204
#     4   9  16  26  39  53  67  85 113 148 185 222
#     4   9  16  26  41  57  69  85 115 155 192 223
#     4   9  15  23  36  52  68  85 105 130 162 201
#
# _framework density 12.683998000000001
#
# number of rings (size 3 to 8) (size 9 to 14) (size 15 to 20)
#    0.000    3.000    0.000    2.182    0.000    9.091 
#    0.000    0.455    0.000    2.182    0.000    0.000 
#    0.000    0.000    0.000    0.000    0.000    0.000 
#
# Total GULP energy -244977.757581 kJ/mol
# GULP energy per Si atom -5567.676309 kJ/mol
# Density = 1.265513 g / cm^3
# Si number density = 12.683998 Si / 1000 Ang^3
#
#
#
# Elastic Constant Matrix: (Units=GPa)
#
#
# Indices 1 2 3 4 5 6 
#
# 1 117.9344 49.6474 74.3763 0.0000 0.0000 0.0000
# 2 49.6474 36.5452 33.4283 0.0000 0.0000 0.0000
# 3 74.3763 33.4283 87.3263 0.0000 0.0000 0.0000
# 4 0.0000 0.0000 0.0000 7.6733 0.0000 0.0000
# 5 0.0000 0.0000 0.0000 0.0000 10.3094 0.0000
# 6 0.0000 0.0000 0.0000 0.0000 0.0000 19.7552
#
#
#
# Elastic Compliance Matrix: (Units=1/GPa)
#
#
# Indices 1 2 3 4 5 6 
#
# 1 0.028007 -0.024973 -0.014294 0.000000 0.000000 0.000000
# 2 -0.024973 0.064375 -0.003373 0.000000 0.000000 0.000000
# 3 -0.014294 -0.003373 0.024917 0.000000 0.000000 0.000000
# 4 0.000000 0.000000 0.000000 0.130322 0.000000 0.000000
# 5 0.000000 0.000000 0.000000 0.000000 0.096999 0.000000
# 6 0.000000 0.000000 0.000000 0.000000 0.000000 0.050620
#
#
# Mechanical properties :
#
#
# Convention : Reuss Voigt Hill
#
# Bulk Modulus (GPa) = 31.23174 61.85668 46.54421
# Shear Modulus (GPa) = 10.17932 13.17118 11.67525
#
# Velocity S-wave (km/s) = 2.83597 3.22593 3.03722
# Velocity P-wave (km/s) = 5.94979 7.92142 7.00532
#
# Compressibility (1/GPa) = 0.03201871
#
# Stress axis : x y z
#
# Youngs Moduli (GPa) = 35.70528 15.53395 40.13355
#
# Poissons Ratio (x) = 0.38793 0.57367
# Poissons Ratio (y) = 0.89167 0.13537
# Poissons Ratio (z) = 0.51037 0.05239
#
# Static dielectric constant tensor:
#      x y z
#    x 1.404460 0.000000 0.000000 
#    y 0.000000 1.383870 0.000000 
#    z 0.000000 0.000000 1.424640 
# 
# From -- ./inp_files/12642.got.cif
#   From: 2010.05.17/outbox.cif.g08.bks.cpg/sg65_7_cif.got.tgz:12642.got - 2010.06.03 17:01:31.
