data_PCOD9494118
_publ_section_title
;
Structure prediction by ZEFSAII (Michael W. Deem and Ramdas Pophale) SiO2 
 PCOD9494118
Probable space group: C M M M
;
_chemical_formula_sum "Si O2"
_cell_formula_units_Z 88
_cell_length_a 23.767519
_cell_length_b 14.289134
_cell_length_c 14.096631
_cell_angle_alpha 90.000000
_cell_angle_beta 90.000000
_cell_angle_gamma 90.000000
_cell_volume 4787.459250
_symmetry_space_group_name_H-M "C M M M"
_symmetry_group_IT_number 65
_symmetry_cell_setting 'orthorhombic'
loop_
_space_group_symop_operation_xyz
x,y,z
-x,-y,z
x,-y,-z
-x,y,-z
-x,-y,-z
x,y,-z
-x,y,z
x,-y,z
1/2+x,1/2+y,z
1/2-x,1/2-y,z
1/2+x,1/2-y,-z
1/2-x,1/2+y,-z
1/2-x,1/2-y,-z
1/2+x,1/2+y,-z
1/2-x,1/2+y,z
1/2+x,1/2-y,z
loop_
_atom_site_type_symbol
_atom_site_label
_atom_site_fract_x
_atom_site_fract_y
_atom_site_fract_z
Si Si1 0.892921 0.786638 0.200166
Si Si2 0.500000 0.390097 0.886214
Si Si3 0.157038 0.390490 0.114558
Si Si4 0.156803 0.779515 0.612459
Si Si5 0.285938 0.388013 0.888484
Si Si6 0.232374 0.603369 0.385830
O O1 0.945041 0.839042 0.153960
O O2 0.885660 0.680508 0.163673
O O3 0.893298 0.792644 0.314120
O O4 0.835296 0.836451 0.165921
O O5 0.500000 0.500000 0.860714
O O6 0.500000 0.383748 0.000000
O O7 0.147500 0.500000 0.135974
O O8 0.221910 0.366350 0.141833
O O9 0.153948 0.380286 0.000000
O O10 0.143919 0.779574 0.500000
O O11 0.186938 0.681494 0.640009
O O12 0.205187 0.857059 0.630257
O O13 0.292789 0.500000 0.880496
O O14 0.290589 0.363611 0.000000
O O15 0.227695 0.597657 0.500000
O O16 0.224283 0.500000 0.345070
#
# Coordination Sequence:
#
# PCOD9494118 Si02
#       6
#    16   8  16  16  16  16
#     4  12  22  35  58  80 106 152 191 228 279 333
#     4  11  26  46  64  84 108 137 186 242 282 330
#     4   9  19  34  53  83 117 142 175 227 284 348
#     4   9  20  34  49  79 115 147 188 230 269 323
#     4   9  18  32  52  81 113 141 175 224 281 340
#     4   8  15  30  50  74 111 152 182 219 274 326
#
# _framework density 18.381357999999999
#
# number of rings (size 3 to 8) (size 9 to 14) (size 15 to 20)
#    0.000    2.455    0.000    4.909    5.091    5.091 
#    0.000    0.909    0.000    2.182    0.000    0.000 
#    0.000    4.364    0.000    0.000    0.000    0.000 
#
# Total GULP energy -245689.875339 kJ/mol
# GULP energy per Si atom -5583.860803 kJ/mol
# Density = 1.833952 g / cm^3
# Si number density = 18.381358 Si / 1000 Ang^3
#
#
#
# Elastic Constant Matrix: (Units=GPa)
#
#
# Indices 1 2 3 4 5 6 
#
# 1 63.9364 47.9996 41.5357 0.0000 0.0000 0.0000
# 2 47.9996 93.6011 31.6332 0.0000 0.0000 0.0000
# 3 41.5357 31.6332 92.8721 0.0000 0.0000 0.0000
# 4 0.0000 0.0000 0.0000 3.0413 0.0000 0.0000
# 5 0.0000 0.0000 0.0000 0.0000 28.2005 0.0000
# 6 0.0000 0.0000 0.0000 0.0000 0.0000 21.6188
#
#
#
# Elastic Compliance Matrix: (Units=1/GPa)
#
#
# Indices 1 2 3 4 5 6 
#
# 1 0.031721 -0.012965 -0.009771 0.000000 0.000000 0.000000
# 2 -0.012965 0.017372 -0.000119 0.000000 0.000000 0.000000
# 3 -0.009771 -0.000119 0.015178 0.000000 0.000000 0.000000
# 4 0.000000 0.000000 0.000000 0.328805 0.000000 0.000000
# 5 0.000000 0.000000 0.000000 0.000000 0.035460 0.000000
# 6 0.000000 0.000000 0.000000 0.000000 0.000000 0.046256
#
#
# Mechanical properties :
#
#
# Convention : Reuss Voigt Hill
#
# Bulk Modulus (GPa) = 53.87279 54.74963 54.31121
# Shear Modulus (GPa) = 9.49325 19.18819 14.34072
#
# Velocity S-wave (km/s) = 2.27504 3.23444 2.79620
# Velocity P-wave (km/s) = 6.02272 6.61807 6.32740
#
# Compressibility (1/GPa) = 0.01856225
#
# Stress axis : x y z
#
# Youngs Moduli (GPa) = 31.52442 57.56287 65.88519
#
# Poissons Ratio (x) = 0.74630 0.64376
# Poissons Ratio (y) = 0.40871 0.00783
# Poissons Ratio (z) = 0.30802 0.00684
#
# Static dielectric constant tensor:
#      x y z
#    x 1.582380 0.000000 0.000000 
#    y 0.000000 1.664130 0.000000 
#    z 0.000000 0.000000 1.683460 
# 
# From -- ./inp_files/44011.got.cif
#   From: 2010.05.17/outbox.cif.g08.bks.cpg/sg65_23_cif.got.tgz:44011.got - 2010.06.03 17:01:31.
