data_PCOD9494969
_publ_section_title
;
Structure prediction by ZEFSAII (Michael W. Deem and Ramdas Pophale) SiO2 
 PCOD9494969
Probable space group: C C C M
;
_chemical_formula_sum "Si O2"
_cell_formula_units_Z 80
_cell_length_a 9.371309
_cell_length_b 20.054266
_cell_length_c 24.667871
_cell_angle_alpha 90.000000
_cell_angle_beta 90.000000
_cell_angle_gamma 90.000000
_cell_volume 4635.949515
_symmetry_space_group_name_H-M "C C C M"
_symmetry_group_IT_number 66
_symmetry_cell_setting 'orthorhombic'
loop_
_space_group_symop_operation_xyz
x,y,z
-x,-y,z
x,-y,1/2-z
-x,y,1/2-z
-x,-y,-z
x,y,-z
-x,y,1/2+z
x,-y,1/2+z
1/2+x,1/2+y,z
1/2-x,1/2-y,z
1/2+x,1/2-y,1/2-z
1/2-x,1/2+y,1/2-z
1/2-x,1/2-y,-z
1/2+x,1/2+y,-z
1/2-x,1/2+y,1/2+z
1/2+x,1/2-y,1/2+z
loop_
_atom_site_type_symbol
_atom_site_label
_atom_site_fract_x
_atom_site_fract_y
_atom_site_fract_z
Si Si1 0.665274 0.017221 0.500000
Si Si2 0.916131 0.073736 0.000000
Si Si3 0.842893 0.572306 0.227267
Si Si4 0.574556 0.600596 0.619083
Si Si5 0.850334 0.814163 0.279794
Si Si6 0.232149 0.038310 0.881982
O O1 0.715240 0.051102 0.556513
O O2 0.500000 0.000000 0.500000
O O3 0.752660 0.948380 0.500000
O O4 0.942387 0.113166 0.054883
O O5 0.000000 0.000000 0.000000
O O6 0.797253 0.500000 0.250000
O O7 0.733054 0.627704 0.247415
O O8 0.843703 0.562741 0.162531
O O9 0.000000 0.586829 0.250000
O O10 0.618435 0.658069 0.659914
O O11 0.689042 0.539844 0.622860
O O12 0.417051 0.573646 0.633137
O O13 0.750000 0.750000 0.281072
O O14 0.000000 0.800335 0.250000
#
# Coordination Sequence:
#
# PCOD9494969 Si02
#       6
#     8   8  16  16  16  16
#     4  10  20  28  50  88 129 150 180 232 304 358
#     4  10  16  32  57  90 118 146 190 248 287 355
#     4  11  23  35  58  89 122 149 195 254 297 350
#     4  10  18  34  61  86 117 150 199 236 298 362
#     4  12  25  41  58  83 117 162 205 246 303 364
#     4  10  18  34  56  88 118 153 188 242 298 357
#
# _framework density 17.256443999999998
#
# number of rings (size 3 to 8) (size 9 to 14) (size 15 to 20)
#    0.000    1.400    8.000    0.600    2.800    0.400 
#    0.000    0.500    0.000    0.000    0.000    5.600 
#    0.000    0.000    0.000    0.000    0.000    0.000 
#
# Total GULP energy -222900.371043 kJ/mol
# GULP energy per Si atom -5572.509276 kJ/mol
# Density = 1.721717 g / cm^3
# Si number density = 17.256444 Si / 1000 Ang^3
#
#
#
# Elastic Constant Matrix: (Units=GPa)
#
#
# Indices 1 2 3 4 5 6 
#
# 1 114.6856 47.6578 48.7387 0.0000 0.0000 0.0000
# 2 47.6578 79.3139 48.3507 0.0000 0.0000 0.0000
# 3 48.7387 48.3507 168.4178 0.0000 0.0000 0.0000
# 4 0.0000 0.0000 0.0000 4.3249 0.0000 0.0000
# 5 0.0000 0.0000 0.0000 0.0000 30.4399 0.0000
# 6 0.0000 0.0000 0.0000 0.0000 0.0000 22.8308
#
#
#
# Elastic Compliance Matrix: (Units=1/GPa)
#
#
# Indices 1 2 3 4 5 6 
#
# 1 0.012011 -0.006179 -0.001702 0.000000 0.000000 0.000000
# 2 -0.006179 0.018462 -0.003512 0.000000 0.000000 0.000000
# 3 -0.001702 -0.003512 0.007438 0.000000 0.000000 0.000000
# 4 0.000000 0.000000 0.000000 0.231219 0.000000 0.000000
# 5 0.000000 0.000000 0.000000 0.000000 0.032852 0.000000
# 6 0.000000 0.000000 0.000000 0.000000 0.000000 0.043800
#
#
# Mechanical properties :
#
#
# Convention : Reuss Voigt Hill
#
# Bulk Modulus (GPa) = 66.11685 72.43464 69.27574
# Shear Modulus (GPa) = 13.38293 26.03048 19.70670
#
# Velocity S-wave (km/s) = 2.78786 3.88809 3.38300
# Velocity P-wave (km/s) = 6.98286 7.88815 7.44927
#
# Compressibility (1/GPa) = 0.01512474
#
# Stress axis : x y z
#
# Youngs Moduli (GPa) = 83.26004 54.16487 134.43893
#
# Poissons Ratio (x) = 0.33471 0.22878
# Poissons Ratio (y) = 0.51450 0.47215
# Poissons Ratio (z) = 0.14168 0.19023
#
# Static dielectric constant tensor:
#      x y z
#    x 1.636510 0.000000 0.000000 
#    y 0.000000 1.559800 0.000000 
#    z 0.000000 0.000000 1.647620 
# 
# From -- ./inp_files/62451.got.cif
#   From: 2010.05.17/outbox.cif.g08.bks.cpg/sg66_32_cif.got.tgz:62451.got - 2010.06.03 17:51:23.
