data_PCOD9494297
_publ_section_title
;
Structure prediction by ZEFSAII (Michael W. Deem and Ramdas Pophale) SiO2 
 PCOD9494297
Probable space group: C M M M
;
_chemical_formula_sum "Si O2"
_cell_formula_units_Z 80
_cell_length_a 14.513171
_cell_length_b 34.952091
_cell_length_c 7.340828
_cell_angle_alpha 90.000000
_cell_angle_beta 90.000000
_cell_angle_gamma 90.000000
_cell_volume 3723.750059
_symmetry_space_group_name_H-M "C M M M"
_symmetry_group_IT_number 65
_symmetry_cell_setting 'orthorhombic'
loop_
_space_group_symop_operation_xyz
x,y,z
-x,-y,z
x,-y,-z
-x,y,-z
-x,-y,-z
x,y,-z
-x,y,z
x,-y,z
1/2+x,1/2+y,z
1/2-x,1/2-y,z
1/2+x,1/2-y,-z
1/2-x,1/2+y,-z
1/2-x,1/2-y,-z
1/2+x,1/2+y,-z
1/2-x,1/2+y,z
1/2+x,1/2-y,z
loop_
_atom_site_type_symbol
_atom_site_label
_atom_site_fract_x
_atom_site_fract_y
_atom_site_fract_z
Si Si1 0.216759 0.190803 0.278409
Si Si2 0.901364 0.455087 0.219004
Si Si3 0.303016 0.543258 0.288386
Si Si4 0.395991 0.618301 0.722832
Si Si5 0.104747 0.733580 0.278183
O O1 0.217467 0.190490 0.500000
O O2 0.175624 0.150643 0.217336
O O3 0.148453 0.225480 0.225728
O O4 0.319941 0.202075 0.220633
O O5 0.902337 0.500000 0.271814
O O6 0.802111 0.441100 0.281342
O O7 0.000000 0.438389 0.280585
O O8 0.900550 0.453495 0.000000
O O9 0.327480 0.539444 0.500000
O O10 0.305753 0.500000 0.210195
O O11 0.367780 0.576144 0.211693
O O12 0.393327 0.617782 0.500000
O O13 0.500000 0.628196 0.775039
O O14 0.102928 0.733206 0.500000
O O15 0.000000 0.728532 0.215953
#
# Coordination Sequence:
#
# PCOD9494297 Si02
#       5
#    16  16  16  16  16
#     4   8  13  20  30  45  64  90 127 163 194 234
#     4   8  14  26  44  62  78 100 131 164 200 244
#     4   9  17  27  39  58  82 106 135 171 205 233
#     4   9  16  25  36  49  69 100 136 170 202 239
#     4   8  12  18  29  44  63  88 119 157 197 235
#
# _framework density 21.483720000000002
#
# number of rings (size 3 to 8) (size 9 to 14) (size 15 to 20)
#    0.000    3.600    0.000    2.400    0.000    3.200 
#    0.000    5.000    0.000    4.200    0.000    2.800 
#    0.000    0.000    0.000    3.600    0.000   17.600 
#
# Total GULP energy -222906.846417 kJ/mol
# GULP energy per Si atom -5572.671160 kJ/mol
# Density = 2.143482 g / cm^3
# Si number density = 21.483720 Si / 1000 Ang^3
#
#
#
# Elastic Constant Matrix: (Units=GPa)
#
#
# Indices 1 2 3 4 5 6 
#
# 1 160.7275 77.3721 0.8496 0.0000 0.0000 0.0000
# 2 77.3721 112.3581 6.1005 0.0000 0.0000 0.0000
# 3 0.8496 6.1005 79.5674 0.0000 0.0000 0.0000
# 4 0.0000 0.0000 0.0000 -15.7103 0.0000 0.0000
# 5 0.0000 0.0000 0.0000 0.0000 19.8433 0.0000
# 6 0.0000 0.0000 0.0000 0.0000 0.0000 27.8674
#
#
#
# Elastic Compliance Matrix: (Units=1/GPa)
#
#
# Indices 1 2 3 4 5 6 
#
# 1 0.009319 -0.006439 0.000394 0.000000 0.000000 0.000000
# 2 -0.006439 0.013386 -0.000958 0.000000 0.000000 0.000000
# 3 0.000394 -0.000958 0.012637 0.000000 0.000000 0.000000
# 4 0.000000 0.000000 0.000000 -0.063653 0.000000 0.000000
# 5 0.000000 0.000000 0.000000 0.000000 0.050395 0.000000
# 6 0.000000 0.000000 0.000000 0.000000 0.000000 0.035884
#
#
# Mechanical properties :
#
#
# Convention : Reuss Voigt Hill
#
# Bulk Modulus (GPa) = 46.86481 57.92192 52.39337
# Shear Modulus (GPa) = 63.22240 24.28880 43.75560
#
# Velocity S-wave (km/s) = 5.43065 3.36604 4.51786
# Velocity P-wave (km/s) = 7.82202 6.49048 7.18715
#
# Compressibility (1/GPa) = 0.02133797
#
# Stress axis : x y z
#
# Youngs Moduli (GPa) = 107.30569 74.70505 79.13160
#
# Poissons Ratio (x) = 0.48101 -0.03119
# Poissons Ratio (y) = 0.69092 0.07577
# Poissons Ratio (z) = -0.04230 0.07154
#
# Static dielectric constant tensor:
#      x y z
#    x 1.790330 0.000000 0.000000 
#    y 0.000000 1.755540 0.000000 
#    z 0.000000 0.000000 1.807010 
# 
# From -- ./inp_files/25280.got.cif
#   From: 2010.05.17/outbox.cif.g08.bks.cpg/sg65_13_cif.got.tgz:25280.got - 2010.06.03 17:01:31.
