data_PCOD9494186
_publ_section_title
;
Structure prediction by ZEFSAII (Michael W. Deem and Ramdas Pophale) SiO2 
 PCOD9494186
Probable space group: C M M M
;
_chemical_formula_sum "Si O2"
_cell_formula_units_Z 32
_cell_length_a 11.904948
_cell_length_b 14.700534
_cell_length_c 8.031247
_cell_angle_alpha 90.000000
_cell_angle_beta 90.000000
_cell_angle_gamma 90.000000
_cell_volume 1405.541252
_symmetry_space_group_name_H-M "C M M M"
_symmetry_group_IT_number 65
_symmetry_cell_setting 'orthorhombic'
loop_
_space_group_symop_operation_xyz
x,y,z
-x,-y,z
x,-y,-z
-x,y,-z
-x,-y,-z
x,y,-z
-x,y,z
x,-y,z
1/2+x,1/2+y,z
1/2-x,1/2-y,z
1/2+x,1/2-y,-z
1/2-x,1/2+y,-z
1/2-x,1/2-y,-z
1/2+x,1/2+y,-z
1/2-x,1/2+y,z
1/2+x,1/2-y,z
loop_
_atom_site_type_symbol
_atom_site_label
_atom_site_fract_x
_atom_site_fract_y
_atom_site_fract_z
Si Si1 0.869979 0.000000 0.800111
Si Si2 0.170290 0.604295 0.314258
Si Si3 0.380553 0.220434 0.000000
O O1 0.802707 0.913455 0.726381
O O2 0.000000 0.000000 0.759652
O O3 0.854286 0.000000 0.000000
O O4 0.155078 0.640839 0.500000
O O5 0.127667 0.500000 0.309744
O O6 0.117997 0.661355 0.167998
O O7 0.250000 0.250000 0.000000
O O8 0.500000 0.276187 0.000000
#
# Coordination Sequence:
#
# PCOD9494186 Si02
#       3
#     8  16   8
#     4   9  15  29  59  95 131 164 199 251 316 377
#     4   9  19  39  66  96 123 156 209 269 322 371
#     4  12  27  45  62  90 130 175 216 259 317 383
#
# _framework density 22.767028
#
# number of rings (size 3 to 8) (size 9 to 14) (size 15 to 20)
#    1.500    0.750    2.500    0.750    0.000    8.000 
#    0.000    2.500    0.000    0.000    0.000    0.000 
#    0.000    0.000    0.000    0.000    0.000    0.000 
#
# Total GULP energy -89110.366885 kJ/mol
# GULP energy per Si atom -5569.397930 kJ/mol
# Density = 2.271521 g / cm^3
# Si number density = 22.767028 Si / 1000 Ang^3
#
#
#
# Elastic Constant Matrix: (Units=GPa)
#
#
# Indices 1 2 3 4 5 6 
#
# 1 209.4971 24.3983 47.9896 0.0000 0.0000 0.0000
# 2 24.3983 13.5807 27.6799 0.0000 0.0000 0.0000
# 3 47.9896 27.6799 189.4549 0.0000 0.0000 0.0000
# 4 0.0000 0.0000 0.0000 1.4051 0.0000 0.0000
# 5 0.0000 0.0000 0.0000 0.0000 311.9735 0.0000
# 6 0.0000 0.0000 0.0000 0.0000 0.0000 18.9981
#
#
#
# Elastic Compliance Matrix: (Units=1/GPa)
#
#
# Indices 1 2 3 4 5 6 
#
# 1 0.006037 -0.011007 0.000079 0.000000 0.000000 0.000000
# 2 -0.011007 0.124927 -0.015464 0.000000 0.000000 0.000000
# 3 0.000079 -0.015464 0.007518 0.000000 0.000000 0.000000
# 4 0.000000 0.000000 0.000000 0.711708 0.000000 0.000000
# 5 0.000000 0.000000 0.000000 0.000000 0.003205 0.000000
# 6 0.000000 0.000000 0.000000 0.000000 0.000000 0.052637
#
#
# Mechanical properties :
#
#
# Convention : Reuss Voigt Hill
#
# Bulk Modulus (GPa) = 11.66895 68.07423 39.87159
# Shear Modulus (GPa) = 5.06390 87.30632 46.18511
#
# Velocity S-wave (km/s) = 1.49300 6.19927 4.50888
# Velocity P-wave (km/s) = 2.84756 9.01147 6.68263
#
# Compressibility (1/GPa) = 0.08569749
#
# Stress axis : x y z
#
# Youngs Moduli (GPa) = 165.64191 8.00470 133.01999
#
# Poissons Ratio (x) = 0.08811 -0.01049
# Poissons Ratio (y) = 1.82317 2.05703
# Poissons Ratio (z) = -0.01307 0.12379
#
# Static dielectric constant tensor:
#      x y z
#    x 1.959470 0.000000 0.000000 
#    y 0.000000 1.893420 0.000000 
#    z 0.000000 0.000000 1.800290 
# 
# From -- ./inp_files/3388.got.cif
#   From: 2010.05.17/outbox.cif.g08.bks.cpg/sg65_2_cif.got.tgz:3388.got - 2010.06.03 17:01:31.
