data_PCOD9494351
_publ_section_title
;
Structure prediction by ZEFSAII (Michael W. Deem and Ramdas Pophale) SiO2 
 PCOD9494351
Probable space group: C M M M
;
_chemical_formula_sum "Si O2"
_cell_formula_units_Z 80
_cell_length_a 7.361379
_cell_length_b 28.292799
_cell_length_c 19.648355
_cell_angle_alpha 90.000000
_cell_angle_beta 90.000000
_cell_angle_gamma 90.000000
_cell_volume 4092.241812
_symmetry_space_group_name_H-M "C M M M"
_symmetry_group_IT_number 65
_symmetry_cell_setting 'orthorhombic'
loop_
_space_group_symop_operation_xyz
x,y,z
-x,-y,z
x,-y,-z
-x,y,-z
-x,-y,-z
x,y,-z
-x,y,z
x,-y,z
1/2+x,1/2+y,z
1/2-x,1/2-y,z
1/2+x,1/2-y,-z
1/2-x,1/2+y,-z
1/2-x,1/2-y,-z
1/2+x,1/2+y,-z
1/2-x,1/2+y,z
1/2+x,1/2-y,z
loop_
_atom_site_type_symbol
_atom_site_label
_atom_site_fract_x
_atom_site_fract_y
_atom_site_fract_z
Si Si1 0.721940 0.147444 0.713148
Si Si2 0.782956 0.305647 0.424369
Si Si3 0.783963 0.304087 0.149553
Si Si4 0.278818 0.052774 0.786398
Si Si5 0.778396 0.602497 0.924234
O O1 0.500000 0.148308 0.712006
O O2 0.786189 0.164874 0.639849
O O3 0.781119 0.182201 0.774523
O O4 0.776858 0.094804 0.735795
O O5 0.712410 0.317476 0.500000
O O6 0.750000 0.250000 0.412744
O O7 0.000000 0.312293 0.426342
O O8 0.750000 0.250000 0.131509
O O9 0.719692 0.344599 0.097813
O O10 0.000000 0.309742 0.151693
O O11 0.500000 0.052690 0.785911
O O12 0.223655 0.068300 0.862620
O O13 0.217930 0.000000 0.769758
O O14 0.000000 0.601810 0.925230
O O15 0.717110 0.590318 0.000000
#
# Coordination Sequence:
#
# PCOD9494351 Si02
#       5
#    16  16  16  16  16
#     4   8  14  24  36  51  73  98 122 150 184 218
#     4   9  16  25  38  56  78 103 127 150 178 212
#     4   9  16  25  37  52  72  99 125 148 178 215
#     4   8  13  21  34  51  70  95 124 150 181 222
#     4   8  14  23  33  48  71  95 119 150 186 218
#
# _framework density 19.549187
#
# number of rings (size 3 to 8) (size 9 to 14) (size 15 to 20)
#    0.000    3.600    0.000    3.000    0.000    0.800 
#    0.000    2.000    0.000    0.600    0.000    4.200 
#    0.000   20.000    0.000   12.200    0.000   13.200 
#
# Total GULP energy -222973.156332 kJ/mol
# GULP energy per Si atom -5574.328908 kJ/mol
# Density = 1.950469 g / cm^3
# Si number density = 19.549187 Si / 1000 Ang^3
#
#
#
# Elastic Constant Matrix: (Units=GPa)
#
#
# Indices 1 2 3 4 5 6 
#
# 1 69.7484 -5.4178 4.5068 0.0000 0.0000 0.0000
# 2 -5.4178 79.5749 37.9401 0.0000 0.0000 0.0000
# 3 4.5068 37.9401 139.2351 0.0000 0.0000 0.0000
# 4 0.0000 0.0000 0.0000 13.6216 0.0000 0.0000
# 5 0.0000 0.0000 0.0000 0.0000 -13.9511 0.0000
# 6 0.0000 0.0000 0.0000 0.0000 0.0000 7.5924
#
#
#
# Elastic Compliance Matrix: (Units=1/GPa)
#
#
# Indices 1 2 3 4 5 6 
#
# 1 0.014500 0.001392 -0.000849 0.000000 0.000000 0.000000
# 2 0.001392 0.014577 -0.004017 0.000000 0.000000 0.000000
# 3 -0.000849 -0.004017 0.008304 0.000000 0.000000 0.000000
# 4 0.000000 0.000000 0.000000 0.073413 0.000000 0.000000
# 5 0.000000 0.000000 0.000000 0.000000 -0.071679 0.000000
# 6 0.000000 0.000000 0.000000 0.000000 0.000000 0.131711
#
#
# Mechanical properties :
#
#
# Convention : Reuss Voigt Hill
#
# Bulk Modulus (GPa) = 32.85852 40.29072 36.57462
# Shear Modulus (GPa) = 26.60724 18.22118 22.41421
#
# Velocity S-wave (km/s) = 3.69323 3.05629 3.38975
# Velocity P-wave (km/s) = 5.91872 5.75406 5.83697
#
# Compressibility (1/GPa) = 0.03043351
#
# Stress axis : x y z
#
# Youngs Moduli (GPa) = 68.96456 68.60207 120.42128
#
# Poissons Ratio (x) = -0.09548 0.10219
# Poissons Ratio (y) = -0.09599 0.48374
# Poissons Ratio (z) = 0.05852 0.27558
#
# Static dielectric constant tensor:
#      x y z
#    x 1.810020 0.000000 0.000000 
#    y 0.000000 1.664730 0.000000 
#    z 0.000000 0.000000 1.681310 
# 
# From -- ./inp_files/50140.got.cif
#   From: 2010.05.17/outbox.cif.g08.bks.cpg/sg65_26_cif.got.tgz:50140.got - 2010.06.03 17:01:31.
