data_PCOD9494814
_publ_section_title
;
Structure prediction by ZEFSAII (Michael W. Deem and Ramdas Pophale) SiO2 
 PCOD9494814
Probable space group: C M M M
;
_chemical_formula_sum "Si O2"
_cell_formula_units_Z 48
_cell_length_a 24.000000
_cell_length_b 24.000000
_cell_length_c 9.000000
_cell_angle_alpha 90.000000
_cell_angle_beta 90.000000
_cell_angle_gamma 90.000000
_cell_volume 5184.000000
_symmetry_space_group_name_H-M "C M M M"
_symmetry_group_IT_number 65
_symmetry_cell_setting 'orthorhombic'
loop_
_space_group_symop_operation_xyz
x,y,z
-x,-y,z
x,-y,-z
-x,y,-z
-x,-y,-z
x,y,-z
-x,y,z
x,-y,z
1/2+x,1/2+y,z
1/2-x,1/2-y,z
1/2+x,1/2-y,-z
1/2-x,1/2+y,-z
1/2-x,1/2-y,-z
1/2+x,1/2+y,-z
1/2-x,1/2+y,z
1/2+x,1/2-y,z
loop_
_atom_site_type_symbol
_atom_site_label
_atom_site_fract_x
_atom_site_fract_y
_atom_site_fract_z
Si Si1 0.862225 0.144603 0.172255
Si Si2 0.267558 0.562642 0.179330
Si Si3 0.566252 0.564805 0.662908
Si Si4 0.062441 0.767455 0.323155
Si Si5 0.147226 0.564276 0.673590
Si Si6 0.563569 0.852434 0.173133
O O1 0.806803 0.113446 0.227298
O O2 0.907953 0.096936 0.200722
O O3 0.887403 0.196122 0.260074
O O4 0.856084 0.158691 0.000000
O O5 0.288745 0.500000 0.217894
O O6 0.207581 0.568592 0.251971
O O7 0.263832 0.564641 0.000000
O O8 0.585239 0.587131 0.500000
O O9 0.500000 0.569480 0.664777
O O10 0.580409 0.500000 0.668379
O O11 0.064333 0.766542 0.500000
O O12 0.067053 0.705834 0.258377
O O13 0.000000 0.789073 0.279968
O O14 0.150685 0.578370 0.500000
O O15 0.129277 0.500000 0.686679
O O16 0.105042 0.603937 0.756687
O O17 0.500000 0.872671 0.186027
O O18 0.575781 0.843126 0.000000
#
# Coordination Sequence:
#
# PCOD9494814 Si02
#       6
#    16  16  16  16  16  16
#     4  11  21  32  50  76 104 138 183 230 274 323
#     4   9  19  36  55  76 107 146 185 227 275 323
#     4   9  18  31  45  64  94 132 174 223 278 330
#     4  10  21  37  56  78 108 146 185 227 275 324
#     4  10  21  37  59  87 116 145 177 215 262 317
#     4  10  21  38  61  87 114 144 177 215 263 319
#
# _framework density 9.2592590000000001
#
# number of rings (size 3 to 8) (size 9 to 14) (size 15 to 20)
#    0.000    2.167    0.000    3.500    0.000    8.000 
#    0.000    5.000    0.000    5.000    0.000    0.000 
#    0.000    0.000    0.000    0.000    0.000    0.000 
#
# Total GULP energy -267638.038460 kJ/mol
# GULP energy per Si atom -5575.792468 kJ/mol
# Density = 0.923818 g / cm^3
# Si number density = 9.259259 Si / 1000 Ang^3
#
#
#
# Elastic Constant Matrix: (Units=GPa)
#
#
# Indices 1 2 3 4 5 6 
#
# 1 -199.3206 -222.4874 23.3998 0.0000 0.0000 0.0000
# 2 -222.4874 -263.0345 23.7539 0.0000 0.0000 0.0000
# 3 23.3998 23.7539 30.8674 0.0000 0.0000 0.0000
# 4 0.0000 0.0000 0.0000 28.7219 0.0000 0.0000
# 5 0.0000 0.0000 0.0000 0.0000 -0.5003 0.0000
# 6 0.0000 0.0000 0.0000 0.0000 0.0000 30.1133
#
#
#
# Elastic Compliance Matrix: (Units=1/GPa)
#
#
# Indices 1 2 3 4 5 6 
#
# 1 -0.087250 0.074590 0.008742 0.000000 0.000000 0.000000
# 2 0.074590 -0.067321 -0.004738 0.000000 0.000000 0.000000
# 3 0.008742 -0.004738 0.029416 0.000000 0.000000 0.000000
# 4 0.000000 0.000000 0.000000 0.034817 0.000000 0.000000
# 5 0.000000 0.000000 0.000000 0.000000 -1.998855 0.000000
# 6 0.000000 0.000000 0.000000 0.000000 0.000000 0.033208
#
#
# Mechanical properties :
#
#
# Convention : Reuss Voigt Hill
#
# Bulk Modulus (GPa) = 31.21894 -86.90612 -27.84359
# Shear Modulus (GPa) = -2.27015 -5.40995 -3.84005
#
# Velocity S-wave (km/s) = -1.10840 -1.71106 -1.44157
# Velocity P-wave (km/s) = 3.90599 7.13686 4.22363
#
# Compressibility (1/GPa) = 0.03203184
#
# Stress axis : x y z
#
# Youngs Moduli (GPa) = -11.46133 -14.85416 33.99555
#
# Poissons Ratio (x) = 1.10797 -0.29718
# Poissons Ratio (y) = 0.85490 0.16107
# Poissons Ratio (z) = 0.10019 -0.07038
#
# Static dielectric constant tensor:
#      x y z
#    x 1.622830 0.000000 0.000000 
#    y 0.000000 1.454150 0.000000 
#    z 0.000000 0.000000 1.638710 
# 
# From -- ./inp_files/14290.got.cif
#   From: 2010.05.17/outbox.ucp.g08.bks.cvg/sg65_8_cif.got.tgz:14290.got - 2010.06.11 16:39:57.
