data_PCOD9494212
_publ_section_title
;
Structure prediction by ZEFSAII (Michael W. Deem and Ramdas Pophale) SiO2 
 PCOD9494212
Probable space group: C M M M
;
_chemical_formula_sum "Si O2"
_cell_formula_units_Z 64
_cell_length_a 21.360469
_cell_length_b 18.619797
_cell_length_c 7.417144
_cell_angle_alpha 90.000000
_cell_angle_beta 90.000000
_cell_angle_gamma 90.000000
_cell_volume 2950.002857
_symmetry_space_group_name_H-M "C M M M"
_symmetry_group_IT_number 65
_symmetry_cell_setting 'orthorhombic'
loop_
_space_group_symop_operation_xyz
x,y,z
-x,-y,z
x,-y,-z
-x,y,-z
-x,-y,-z
x,y,-z
-x,y,z
x,-y,z
1/2+x,1/2+y,z
1/2-x,1/2-y,z
1/2+x,1/2-y,-z
1/2-x,1/2+y,-z
1/2-x,1/2-y,-z
1/2+x,1/2+y,-z
1/2-x,1/2+y,z
1/2+x,1/2-y,z
loop_
_atom_site_type_symbol
_atom_site_label
_atom_site_fract_x
_atom_site_fract_y
_atom_site_fract_z
Si Si1 0.680185 0.728312 0.279082
Si Si2 0.862359 0.080019 0.293848
Si Si3 0.075833 0.500000 0.293810
Si Si4 0.500000 0.586545 0.797519
Si Si5 0.427350 0.840295 0.279347
O O1 0.677063 0.727189 0.500000
O O2 0.750000 0.750000 0.229198
O O3 0.671201 0.647452 0.209872
O O4 0.624086 0.781715 0.222864
O O5 0.841028 0.073943 0.500000
O O6 0.935185 0.103624 0.295706
O O7 0.857560 0.000000 0.213152
O O8 0.099576 0.500000 0.500000
O O9 0.091440 0.578753 0.217633
O O10 0.000000 0.500000 0.299201
O O11 0.500000 0.500000 0.806055
O O12 0.500000 0.615481 0.000000
O O13 0.427770 0.842048 0.500000
O O14 0.500000 0.825449 0.225985
#
# Coordination Sequence:
#
# PCOD9494212 Si02
#       5
#    16  16   8   8  16
#     4   9  17  27  37  56  86 118 152 183 214 262
#     4   9  17  29  45  65  92 124 153 182 224 276
#     4   7  10  18  30  46  66  90 127 171 212 253
#     4   9  17  29  47  71  93 114 149 194 230 263
#     4   8  13  21  34  50  70 101 139 177 217 257
#
# _framework density 21.694894000000001
#
# number of rings (size 3 to 8) (size 9 to 14) (size 15 to 20)
#    0.000    3.500    0.000    1.875    1.750    1.500 
#    2.250    0.000    0.000    0.750    0.000    0.000 
#    0.000    0.000    0.000    1.125    0.000    1.375 
#
# Total GULP energy -178195.953663 kJ/mol
# GULP energy per Si atom -5568.623552 kJ/mol
# Density = 2.164552 g / cm^3
# Si number density = 21.694894 Si / 1000 Ang^3
#
#
#
# Elastic Constant Matrix: (Units=GPa)
#
#
# Indices 1 2 3 4 5 6 
#
# 1 126.1293 112.7632 1.6746 0.0000 0.0000 0.0000
# 2 112.7632 200.7542 10.9472 0.0000 0.0000 0.0000
# 3 1.6746 10.9472 72.2522 0.0000 0.0000 0.0000
# 4 0.0000 0.0000 0.0000 -16.7503 0.0000 0.0000
# 5 0.0000 0.0000 0.0000 0.0000 9.5847 0.0000
# 6 0.0000 0.0000 0.0000 0.0000 0.0000 32.8821
#
#
#
# Elastic Compliance Matrix: (Units=1/GPa)
#
#
# Indices 1 2 3 4 5 6 
#
# 1 0.015997 -0.009040 0.000999 0.000000 0.000000 0.000000
# 2 -0.009040 0.010131 -0.001326 0.000000 0.000000 0.000000
# 3 0.000999 -0.001326 0.014018 0.000000 0.000000 0.000000
# 4 0.000000 0.000000 0.000000 -0.059700 0.000000 0.000000
# 5 0.000000 0.000000 0.000000 0.000000 0.104332 0.000000
# 6 0.000000 0.000000 0.000000 0.000000 0.000000 0.030412
#
#
# Mechanical properties :
#
#
# Convention : Reuss Voigt Hill
#
# Bulk Modulus (GPa) = 46.69999 72.21172 59.45586
# Shear Modulus (GPa) = 35.44561 23.39336 29.41948
#
# Velocity S-wave (km/s) = 4.04644 3.28729 3.68646
# Velocity P-wave (km/s) = 6.58818 6.91128 6.75166
#
# Compressibility (1/GPa) = 0.02141328
#
# Stress axis : x y z
#
# Youngs Moduli (GPa) = 62.51106 98.70436 71.33642
#
# Poissons Ratio (x) = 0.89229 -0.07126
# Poissons Ratio (y) = 0.56510 0.09456
# Poissons Ratio (z) = -0.06244 0.13083
#
# Static dielectric constant tensor:
#      x y z
#    x 1.735260 0.000000 0.000000 
#    y 0.000000 1.828310 0.000000 
#    z 0.000000 0.000000 1.824130 
# 
# From -- ./inp_files/8818.got.cif
#   From: 2010.05.17/outbox.cif.g08.bks.cpg/sg65_5_cif.got.tgz:8818.got - 2010.06.03 17:01:31.
