data_PCOD9494253
_publ_section_title
;
Structure prediction by ZEFSAII (Michael W. Deem and Ramdas Pophale) SiO2 
 PCOD9494253
Probable space group: C M M M
;
_chemical_formula_sum "Si O2"
_cell_formula_units_Z 112
_cell_length_a 14.228100
_cell_length_b 10.880489
_cell_length_c 34.632732
_cell_angle_alpha 90.000000
_cell_angle_beta 90.000000
_cell_angle_gamma 90.000000
_cell_volume 5361.447718
_symmetry_space_group_name_H-M "C M M M"
_symmetry_group_IT_number 65
_symmetry_cell_setting 'orthorhombic'
loop_
_space_group_symop_operation_xyz
x,y,z
-x,-y,z
x,-y,-z
-x,y,-z
-x,-y,-z
x,y,-z
-x,y,z
x,-y,z
1/2+x,1/2+y,z
1/2-x,1/2-y,z
1/2+x,1/2-y,-z
1/2-x,1/2+y,-z
1/2-x,1/2-y,-z
1/2+x,1/2+y,-z
1/2-x,1/2+y,z
1/2+x,1/2-y,z
loop_
_atom_site_type_symbol
_atom_site_label
_atom_site_fract_x
_atom_site_fract_y
_atom_site_fract_z
Si Si1 0.385585 0.637278 0.727490
Si Si2 0.615017 0.857381 0.873272
Si Si3 0.389904 0.148765 0.041544
Si Si4 0.645236 0.633195 0.545916
Si Si5 0.386350 0.861603 0.326877
Si Si6 0.885524 0.138302 0.816559
Si Si7 0.648954 0.866900 0.415249
O O1 0.500000 0.637762 0.727690
O O2 0.356932 0.500000 0.714139
O O3 0.357110 0.751074 0.700944
O O4 0.355598 0.652888 0.771987
O O5 0.500000 0.858959 0.874097
O O6 0.647795 0.817975 0.916290
O O7 0.643312 0.753847 0.842590
O O8 0.642592 0.000000 0.865387
O O9 0.500000 0.184520 0.041438
O O10 0.387347 0.000000 0.041384
O O11 0.350308 0.190581 0.000000
O O12 0.650759 0.650615 0.500000
O O13 0.602230 0.500000 0.553345
O O14 0.600429 0.750209 0.565924
O O15 0.749614 0.627075 0.564171
O O16 0.500000 0.854406 0.331621
O O17 0.343106 0.849097 0.369417
O O18 0.366012 0.000000 0.312147
O O19 0.000000 0.138639 0.816702
O O20 0.857354 0.000000 0.829621
O O21 0.604225 0.000000 0.421295
#
# Coordination Sequence:
#
# PCOD9494253 Si02
#       7
#    16  16  16  16  16  16  16
#     4   8  14  24  35  45  59  83 113 138 161 194
#     4   8  12  16  23  35  46  57  79 111 145 182
#     4   7   9  13  20  29  41  56  74  99 134 178
#     4   9  17  29  46  65  80  96 121 151 178 202
#     4   9  17  27  38  54  76  99 120 142 170 206
#     4   8  13  20  28  37  50  68  90 119 154 187
#     4   9  16  26  41  60  80  99 119 145 176 207
#
# _framework density 20.889880999999999
#
# number of rings (size 3 to 8) (size 9 to 14) (size 15 to 20)
#    0.000    3.714    0.000    3.000    0.000    2.000 
#    0.000    2.857    0.000    2.143    0.000   13.000 
#    0.000    0.000    0.000    0.000    0.000    0.000 
#
# Total GULP energy -311859.161295 kJ/mol
# GULP energy per Si atom -5568.913595 kJ/mol
# Density = 2.084233 g / cm^3
# Si number density = 20.889881 Si / 1000 Ang^3
#
#
#
# Elastic Constant Matrix: (Units=GPa)
#
#
# Indices 1 2 3 4 5 6 
#
# 1 69.0069 15.3525 9.5262 0.0000 0.0000 0.0000
# 2 15.3525 218.7709 123.2341 0.0000 0.0000 0.0000
# 3 9.5262 123.2341 124.9040 0.0000 0.0000 0.0000
# 4 0.0000 0.0000 0.0000 127.1594 0.0000 0.0000
# 5 0.0000 0.0000 0.0000 0.0000 -6.8439 0.0000
# 6 0.0000 0.0000 0.0000 0.0000 0.0000 -27.9639
#
#
#
# Elastic Compliance Matrix: (Units=1/GPa)
#
#
# Indices 1 2 3 4 5 6 
#
# 1 0.014724 -0.000902 -0.000233 0.000000 0.000000 0.000000
# 2 -0.000902 0.010345 -0.010138 0.000000 0.000000 0.000000
# 3 -0.000233 -0.010138 0.018026 0.000000 0.000000 0.000000
# 4 0.000000 0.000000 0.000000 0.007864 0.000000 0.000000
# 5 0.000000 0.000000 0.000000 0.000000 -0.146115 0.000000
# 6 0.000000 0.000000 0.000000 0.000000 0.000000 -0.035760
#
#
# Mechanical properties :
#
#
# Convention : Reuss Voigt Hill
#
# Bulk Modulus (GPa) = 48.66285 78.76749 63.71517
# Shear Modulus (GPa) = -49.25153 36.10824 -6.57165
#
# Velocity S-wave (km/s) = -4.86086 4.16204 -1.77558
# Velocity P-wave (km/s) = 2.85629 7.80286 5.13450
#
# Compressibility (1/GPa) = 0.02054956
#
# Stress axis : x y z
#
# Youngs Moduli (GPa) = 67.91559 96.66520 55.47459
#
# Poissons Ratio (x) = 0.08719 0.01293
# Poissons Ratio (y) = 0.06126 0.56240
# Poissons Ratio (z) = 0.01583 0.97998
#
# Static dielectric constant tensor:
#      x y z
#    x 1.752000 0.000000 0.000000 
#    y 0.000000 1.770340 0.000000 
#    z 0.000000 0.000000 1.737050 
# 
# From -- ./inp_files/77667.got.cif
#   From: 2010.05.17/outbox.cif.g08.bks.cpg/sg65_39_cif.got.tgz:77667.got - 2010.06.03 17:01:31.
