data_PCOD9494207
_publ_section_title
;
Structure prediction by ZEFSAII (Michael W. Deem and Ramdas Pophale) SiO2 
 PCOD9494207
Probable space group: C M M M
;
_chemical_formula_sum "Si O2"
_cell_formula_units_Z 88
_cell_length_a 27.811262
_cell_length_b 21.251062
_cell_length_c 7.586754
_cell_angle_alpha 90.000000
_cell_angle_beta 90.000000
_cell_angle_gamma 90.000000
_cell_volume 4483.914648
_symmetry_space_group_name_H-M "C M M M"
_symmetry_group_IT_number 65
_symmetry_cell_setting 'orthorhombic'
loop_
_space_group_symop_operation_xyz
x,y,z
-x,-y,z
x,-y,-z
-x,y,-z
-x,-y,-z
x,y,-z
-x,y,z
x,-y,z
1/2+x,1/2+y,z
1/2-x,1/2-y,z
1/2+x,1/2-y,-z
1/2-x,1/2+y,-z
1/2-x,1/2-y,-z
1/2+x,1/2+y,-z
1/2-x,1/2+y,z
1/2+x,1/2-y,z
loop_
_atom_site_type_symbol
_atom_site_label
_atom_site_fract_x
_atom_site_fract_y
_atom_site_fract_z
Si Si1 0.058696 0.500000 0.296701
Si Si2 0.781474 0.362774 0.708522
Si Si3 0.944640 0.362951 0.283869
Si Si4 0.717058 0.000000 0.210394
Si Si5 0.637116 0.231315 0.716153
Si Si6 0.173227 0.000000 0.208022
Si Si7 0.328060 0.636387 0.289629
O O1 0.075272 0.500000 0.500000
O O2 0.072220 0.567795 0.220226
O O3 0.000000 0.500000 0.298765
O O4 0.777405 0.352016 0.500000
O O5 0.803250 0.432731 0.732535
O O6 0.816539 0.308824 0.775927
O O7 0.727031 0.361848 0.781625
O O8 0.944073 0.365555 0.500000
O O9 0.909718 0.307238 0.227731
O O10 0.000000 0.353460 0.231669
O O11 0.772157 0.000000 0.283537
O O12 0.717685 0.000000 0.000000
O O13 0.636713 0.230799 0.500000
O O14 0.642713 0.303243 0.774823
O O15 0.151019 0.066984 0.256905
O O16 0.177954 0.000000 0.000000
O O17 0.324650 0.642688 0.500000
#
# Coordination Sequence:
#
# PCOD9494207 Si02
#       7
#     8  16  16   8  16   8  16
#     4   7  10  17  28  42  66 102 135 158 185 223
#     4   9  16  26  40  58  82 111 140 168 198 237
#     4   8  13  21  33  52  80 110 137 167 202 236
#     4   9  17  28  40  56  81 112 143 173 203 233
#     4   9  16  24  37  58  82 109 138 166 202 247
#     4   9  17  29  44  60  79 106 139 170 199 239
#     4   9  16  27  42  60  83 109 135 165 202 242
#
# _framework density 19.625706999999998
#
# number of rings (size 3 to 8) (size 9 to 14) (size 15 to 20)
#    0.000    3.364    0.000    2.182    0.000    5.091 
#    0.000    3.636    0.000    4.364    0.000    0.636 
#    0.000    8.727    0.000    0.000    0.000    0.000 
#
# Total GULP energy -245171.395280 kJ/mol
# GULP energy per Si atom -5572.077165 kJ/mol
# Density = 1.958104 g / cm^3
# Si number density = 19.625707 Si / 1000 Ang^3
#
#
#
# Elastic Constant Matrix: (Units=GPa)
#
#
# Indices 1 2 3 4 5 6 
#
# 1 62.7492 72.0829 3.7889 0.0000 0.0000 0.0000
# 2 72.0829 225.2811 2.3828 0.0000 0.0000 0.0000
# 3 3.7889 2.3828 42.8249 0.0000 0.0000 0.0000
# 4 0.0000 0.0000 0.0000 -78.9163 0.0000 0.0000
# 5 0.0000 0.0000 0.0000 0.0000 -3.2268 0.0000
# 6 0.0000 0.0000 0.0000 0.0000 0.0000 22.7813
#
#
#
# Elastic Compliance Matrix: (Units=1/GPa)
#
#
# Indices 1 2 3 4 5 6 
#
# 1 0.025335 -0.008087 -0.001791 0.000000 0.000000 0.000000
# 2 -0.008087 0.007023 0.000325 0.000000 0.000000 0.000000
# 3 -0.001791 0.000325 0.023491 0.000000 0.000000 0.000000
# 4 0.000000 0.000000 0.000000 -0.012672 0.000000 0.000000
# 5 0.000000 0.000000 0.000000 0.000000 -0.309907 0.000000
# 6 0.000000 0.000000 0.000000 0.000000 0.000000 0.043896
#
#
# Mechanical properties :
#
#
# Convention : Reuss Voigt Hill
#
# Bulk Modulus (GPa) = 27.21743 54.15160 40.68452
# Shear Modulus (GPa) = -26.11266 4.96769 -10.57248
#
# Velocity S-wave (km/s) = -3.65160 1.59271 -2.32352
# Velocity P-wave (km/s) = 1.96992 5.57085 3.68468
#
# Compressibility (1/GPa) = 0.03674116
#
# Stress axis : x y z
#
# Youngs Moduli (GPa) = 39.47092 142.38501 42.56893
#
# Poissons Ratio (x) = 1.15154 0.07626
# Poissons Ratio (y) = 0.31922 -0.01382
# Poissons Ratio (z) = 0.07071 -0.04624
#
# Static dielectric constant tensor:
#      x y z
#    x 1.677520 0.000000 0.000000 
#    y 0.000000 1.741460 0.000000 
#    z 0.000000 0.000000 1.713810 
# 
# From -- ./inp_files/18557.got.cif
#   From: 2010.05.17/outbox.cif.g08.bks.cpg/sg65_10_cif.got.tgz:18557.got - 2010.06.03 17:01:31.
