data_PCOD9494766
_publ_section_title
;
Structure prediction by ZEFSAII (Michael W. Deem and Ramdas Pophale) SiO2 
 PCOD9494766
Probable space group: C M M M
;
_chemical_formula_sum "Si O2"
_cell_formula_units_Z 32
_cell_length_a 30.000000
_cell_length_b 9.000000
_cell_length_c 12.000000
_cell_angle_alpha 90.000000
_cell_angle_beta 90.000000
_cell_angle_gamma 90.000000
_cell_volume 3240.000000
_symmetry_space_group_name_H-M "C M M M"
_symmetry_group_IT_number 65
_symmetry_cell_setting 'orthorhombic'
loop_
_space_group_symop_operation_xyz
x,y,z
-x,-y,z
x,-y,-z
-x,y,-z
-x,-y,-z
x,y,-z
-x,y,z
x,-y,z
1/2+x,1/2+y,z
1/2-x,1/2-y,z
1/2+x,1/2-y,-z
1/2-x,1/2+y,-z
1/2-x,1/2-y,-z
1/2+x,1/2+y,-z
1/2-x,1/2+y,z
1/2+x,1/2-y,z
loop_
_atom_site_type_symbol
_atom_site_label
_atom_site_fract_x
_atom_site_fract_y
_atom_site_fract_z
Si Si1 0.624750 0.667267 0.868368
Si Si2 0.298710 0.822621 0.742163
Si Si3 0.053101 0.325837 0.271821
Si Si4 0.201187 0.677786 0.500000
Si Si5 0.054244 0.168826 0.500000
O O1 0.628888 0.500000 0.823533
O O2 0.667353 0.760667 0.831294
O O3 0.580557 0.742385 0.821474
O O4 0.622624 0.661857 0.000000
O O5 0.250000 0.750000 0.752399
O O6 0.318611 0.782096 0.619549
O O7 0.294547 0.000000 0.749431
O O8 0.063162 0.500000 0.270360
O O9 0.066979 0.256851 0.389842
O O10 0.000000 0.306671 0.258931
O O11 0.205895 0.500000 0.500000
O O12 0.250000 0.750000 0.500000
O O13 0.000000 0.163786 0.500000
O O14 0.070660 0.000000 0.500000
#
# Coordination Sequence:
#
# PCOD9494766 Si02
#       5
#    16  16  16   8   8
#     4  11  25  42  58  80 112 152 200 246 288 342
#     4  10  20  37  61  87 117 150 186 232 287 346
#     4  10  21  38  61  88 118 151 188 235 291 347
#     4   8  16  31  54  85 115 143 176 219 274 336
#     4   9  17  32  57  88 120 152 187 228 279 342
#
# _framework density 9.8765429999999999
#
# number of rings (size 3 to 8) (size 9 to 14) (size 15 to 20)
#    0.000    2.125    0.000    2.625    0.000    8.000 
#    0.000    6.250    0.000    0.000    0.000    0.000 
#    0.000    0.000    0.000    0.000    0.000    0.000 
#
# Total GULP energy -178580.794913 kJ/mol
# GULP energy per Si atom -5580.649841 kJ/mol
# Density = 0.985406 g / cm^3
# Si number density = 9.876543 Si / 1000 Ang^3
#
#
#
# Elastic Constant Matrix: (Units=GPa)
#
#
# Indices 1 2 3 4 5 6 
#
# 1 22.2682 53.9933 33.5974 0.0000 0.0000 0.0000
# 2 53.9933 109.5040 55.5542 0.0000 0.0000 0.0000
# 3 33.5974 55.5542 93.7495 0.0000 0.0000 0.0000
# 4 0.0000 0.0000 0.0000 21.7641 0.0000 0.0000
# 5 0.0000 0.0000 0.0000 0.0000 32.5373 0.0000
# 6 0.0000 0.0000 0.0000 0.0000 0.0000 23.0151
#
#
#
# Elastic Compliance Matrix: (Units=1/GPa)
#
#
# Indices 1 2 3 4 5 6 
#
# 1 -0.202362 0.090063 0.019152 0.000000 0.000000 0.000000
# 2 0.090063 -0.027026 -0.016261 0.000000 0.000000 0.000000
# 3 0.019152 -0.016261 0.013439 0.000000 0.000000 0.000000
# 4 0.000000 0.000000 0.000000 0.045947 0.000000 0.000000
# 5 0.000000 0.000000 0.000000 0.000000 0.030734 0.000000
# 6 0.000000 0.000000 0.000000 0.000000 0.000000 0.043450
#
#
# Mechanical properties :
#
#
# Convention : Reuss Voigt Hill
#
# Bulk Modulus (GPa) = -33.28693 56.86792 11.79049
# Shear Modulus (GPa) = -17.13868 20.95509 1.90821
#
# Velocity S-wave (km/s) = -2.94878 3.26061 0.98393
# Velocity P-wave (km/s) = 5.33684 6.55952 2.69680
#
# Compressibility (1/GPa) = -0.03004182
#
# Stress axis : x y z
#
# Youngs Moduli (GPa) = -4.94164 -37.00209 74.40809
#
# Poissons Ratio (x) = 3.33251 -1.42505
# Poissons Ratio (y) = 0.44506 1.20997
# Poissons Ratio (z) = 0.09464 -0.60170
#
# Static dielectric constant tensor:
#      x y z
#    x 1.672580 0.000000 0.000000 
#    y 0.000000 1.668460 0.000000 
#    z 0.000000 0.000000 1.674620 
# 
# From -- ./inp_files/33230.got.cif
#   From: 2010.05.17/outbox.ucp.g08.bks.cvg/sg65_17_cif.got.tgz:33230.got - 2010.06.11 16:39:57.
