data_PCOD9494777
_publ_section_title
;
Structure prediction by ZEFSAII (Michael W. Deem and Ramdas Pophale) SiO2 
 PCOD9494777
Probable space group: C M M M
;
_chemical_formula_sum "Si O2"
_cell_formula_units_Z 36
_cell_length_a 18.000000
_cell_length_b 24.000000
_cell_length_c 9.000000
_cell_angle_alpha 90.000000
_cell_angle_beta 90.000000
_cell_angle_gamma 90.000000
_cell_volume 3888.000000
_symmetry_space_group_name_H-M "C M M M"
_symmetry_group_IT_number 65
_symmetry_cell_setting 'orthorhombic'
loop_
_space_group_symop_operation_xyz
x,y,z
-x,-y,z
x,-y,-z
-x,y,-z
-x,-y,-z
x,y,-z
-x,y,z
x,-y,z
1/2+x,1/2+y,z
1/2-x,1/2-y,z
1/2+x,1/2-y,-z
1/2-x,1/2+y,-z
1/2-x,1/2-y,-z
1/2+x,1/2+y,-z
1/2-x,1/2+y,z
1/2+x,1/2-y,z
loop_
_atom_site_type_symbol
_atom_site_label
_atom_site_fract_x
_atom_site_fract_y
_atom_site_fract_z
Si Si1 0.086316 0.641397 0.677865
Si Si2 0.662215 0.248060 0.177568
Si Si3 0.292284 0.934832 0.821370
Si Si4 0.500000 0.434760 0.676281
Si Si5 0.138843 0.874872 0.178413
O O1 0.090821 0.640270 0.500000
O O2 0.120534 0.699096 0.738081
O O3 0.136430 0.592378 0.745395
O O4 0.000000 0.636721 0.721672
O O5 0.750000 0.250000 0.211140
O O6 0.632810 0.309526 0.213351
O O7 0.655118 0.238417 0.000000
O O8 0.218833 0.900031 0.777649
O O9 0.283249 0.000000 0.785081
O O10 0.299742 0.929867 0.000000
O O11 0.500000 0.500000 0.709920
O O12 0.500000 0.426960 0.500000
O O13 0.427074 0.407633 0.745458
O O14 0.133637 0.880688 0.000000
#
# Coordination Sequence:
#
# PCOD9494777 Si02
#       5
#    16  16  16   8  16
#     4  11  25  41  58  87 126 164 199 241 298 359
#     4  10  20  39  65  90 116 148 194 248 298 350
#     4  10  21  40  66  91 115 151 202 254 301 353
#     4  11  25  41  57  85 127 167 200 241 294 355
#     4  10  21  39  64  91 117 153 200 250 301 352
#
# _framework density 9.2592590000000001
#
# number of rings (size 3 to 8) (size 9 to 14) (size 15 to 20)
#    0.000    1.667    2.222    1.667    1.556    6.667 
#    0.000    2.222    0.000    0.000    0.000    0.000 
#    0.000    0.000    0.000    0.000    0.000    0.000 
#
# Total GULP energy -201169.269026 kJ/mol
# GULP energy per Si atom -5588.035251 kJ/mol
# Density = 0.923818 g / cm^3
# Si number density = 9.259259 Si / 1000 Ang^3
#
#
#
# Elastic Constant Matrix: (Units=GPa)
#
#
# Indices 1 2 3 4 5 6 
#
# 1 95.6148 27.7718 26.7653 0.0000 0.0000 0.0000
# 2 27.7718 79.9035 33.7832 0.0000 0.0000 0.0000
# 3 26.7653 33.7832 16.9520 0.0000 0.0000 0.0000
# 4 0.0000 0.0000 0.0000 22.0499 0.0000 0.0000
# 5 0.0000 0.0000 0.0000 0.0000 34.2685 0.0000
# 6 0.0000 0.0000 0.0000 0.0000 0.0000 -17.8432
#
#
#
# Elastic Compliance Matrix: (Units=1/GPa)
#
#
# Indices 1 2 3 4 5 6 
#
# 1 0.723601 1.470905 -4.073809 0.000000 0.000000 0.000000
# 2 1.470905 3.069496 -8.439505 0.000000 0.000000 0.000000
# 3 -4.073809 -8.439505 23.309926 0.000000 0.000000 0.000000
# 4 0.000000 0.000000 0.000000 0.045352 0.000000 0.000000
# 5 0.000000 0.000000 0.000000 0.000000 0.029181 0.000000
# 6 0.000000 0.000000 0.000000 0.000000 0.000000 -0.056044
#
#
# Mechanical properties :
#
#
# Convention : Reuss Voigt Hill
#
# Bulk Modulus (GPa) = 0.19927 41.01231 20.60579
# Shear Modulus (GPa) = 0.09827 14.63838 7.36832
#
# Velocity S-wave (km/s) = 0.23061 2.81458 1.99688
# Velocity P-wave (km/s) = 0.42279 5.72339 4.05808
#
# Compressibility (1/GPa) = 5.01820463
#
# Stress axis : x y z
#
# Youngs Moduli (GPa) = 1.38198 0.32579 0.04290
#
# Poissons Ratio (x) = -0.47920 0.17477
# Poissons Ratio (y) = -2.03276 0.36206
# Poissons Ratio (z) = 5.62991 2.74948
#
# Static dielectric constant tensor:
#      x y z
#    x 1.608310 0.000000 0.000000 
#    y 0.000000 1.628710 0.000000 
#    z 0.000000 0.000000 1.617900 
# 
# From -- ./inp_files/9204.got.cif
#   From: 2010.05.17/outbox.ucp.g08.bks.cvg/sg65_5_cif.got.tgz:9204.got - 2010.06.11 16:39:57.
