data_PCOD9494750
_publ_section_title
;
Structure prediction by ZEFSAII (Michael W. Deem and Ramdas Pophale) SiO2 
 PCOD9494750
Probable space group: C M M M
;
_chemical_formula_sum "Si O2"
_cell_formula_units_Z 32
_cell_length_a 9.000000
_cell_length_b 18.000000
_cell_length_c 21.000000
_cell_angle_alpha 90.000000
_cell_angle_beta 90.000000
_cell_angle_gamma 90.000000
_cell_volume 3402.000000
_symmetry_space_group_name_H-M "C M M M"
_symmetry_group_IT_number 65
_symmetry_cell_setting 'orthorhombic'
loop_
_space_group_symop_operation_xyz
x,y,z
-x,-y,z
x,-y,-z
-x,y,-z
-x,-y,-z
x,y,-z
-x,y,z
x,-y,z
1/2+x,1/2+y,z
1/2-x,1/2-y,z
1/2+x,1/2-y,-z
1/2-x,1/2+y,-z
1/2-x,1/2-y,-z
1/2+x,1/2+y,-z
1/2-x,1/2+y,z
1/2+x,1/2-y,z
loop_
_atom_site_type_symbol
_atom_site_label
_atom_site_fract_x
_atom_site_fract_y
_atom_site_fract_z
Si Si1 0.830319 0.911694 0.500000
Si Si2 0.321932 0.667481 0.881491
Si Si3 0.823025 0.668181 0.756043
Si Si4 0.324022 0.831237 0.384916
Si Si5 0.327046 0.911298 0.000000
O O1 0.747274 0.881461 0.561628
O O2 0.000000 0.884253 0.500000
O O3 0.830539 0.000000 0.500000
O O4 0.500000 0.672604 0.881801
O O5 0.250000 0.750000 0.886717
O O6 0.260818 0.632957 0.815537
O O7 0.258123 0.620339 0.939175
O O8 0.750000 0.750000 0.751874
O O9 0.800630 0.635772 0.685887
O O10 0.000000 0.673754 0.768231
O O11 0.500000 0.822922 0.394261
O O12 0.250000 0.750000 0.388447
O O13 0.500000 0.886600 0.000000
O O14 0.324808 0.000000 0.000000
#
# Coordination Sequence:
#
# PCOD9494750 Si02
#       5
#     8  16  16  16   8
#     4  11  24  39  54  75 107 145 184 227 272 319
#     4  11  21  35  58  85 113 143 179 222 267 319
#     4   9  17  31  53  82 111 139 175 219 268 317
#     4  10  20  35  58  84 110 141 178 222 268 320
#     4  11  24  41  58  77 107 145 184 227 272 319
#
# _framework density 9.4062319999999993
#
# number of rings (size 3 to 8) (size 9 to 14) (size 15 to 20)
#    0.000    1.750    0.000    6.750    0.000    5.000 
#    0.000    1.250    0.000    1.500    0.000    0.000 
#    0.000    0.000    0.000    0.000    0.000    0.000 
#
# Total GULP energy -178575.745678 kJ/mol
# GULP energy per Si atom -5580.492052 kJ/mol
# Density = 0.938482 g / cm^3
# Si number density = 9.406232 Si / 1000 Ang^3
#
#
#
# Elastic Constant Matrix: (Units=GPa)
#
#
# Indices 1 2 3 4 5 6 
#
# 1 185.0109 37.1617 112.4604 0.0000 0.0000 0.0000
# 2 37.1617 34.6980 48.4318 0.0000 0.0000 0.0000
# 3 112.4604 48.4318 191.4539 0.0000 0.0000 0.0000
# 4 0.0000 0.0000 0.0000 -85.6549 0.0000 0.0000
# 5 0.0000 0.0000 0.0000 0.0000 36.3055 0.0000
# 6 0.0000 0.0000 0.0000 0.0000 0.0000 21.7207
#
#
#
# Elastic Compliance Matrix: (Units=1/GPa)
#
#
# Indices 1 2 3 4 5 6 
#
# 1 0.008653 -0.003359 -0.004233 0.000000 0.000000 0.000000
# 2 -0.003359 0.045855 -0.009627 0.000000 0.000000 0.000000
# 3 -0.004233 -0.009627 0.010145 0.000000 0.000000 0.000000
# 4 0.000000 0.000000 0.000000 -0.011675 0.000000 0.000000
# 5 0.000000 0.000000 0.000000 0.000000 0.027544 0.000000
# 6 0.000000 0.000000 0.000000 0.000000 0.000000 0.046039
#
#
# Mechanical properties :
#
#
# Convention : Reuss Voigt Hill
#
# Bulk Modulus (GPa) = 33.09594 89.69673 61.39633
# Shear Modulus (GPa) = 29.22787 8.68152 18.95469
#
# Velocity S-wave (km/s) = 3.94591 2.15053 3.17765
# Velocity P-wave (km/s) = 6.19605 7.34502 6.79486
#
# Compressibility (1/GPa) = 0.03021519
#
# Stress axis : x y z
#
# Youngs Moduli (GPa) = 115.56952 21.80807 98.57102
#
# Poissons Ratio (x) = 0.07325 0.41725
# Poissons Ratio (y) = 0.38816 0.94893
# Poissons Ratio (z) = 0.48921 0.20994
#
# Static dielectric constant tensor:
#      x y z
#    x 1.625610 0.000000 0.000000 
#    y 0.000000 1.614470 0.000000 
#    z 0.000000 0.000000 1.717480 
# 
# From -- ./inp_files/58825.got.cif
#   From: 2010.05.17/outbox.ucp.g08.bks.cvg/sg65_30_cif.got.tgz:58825.got - 2010.06.11 16:39:57.
