data_PCOD9494387
_publ_section_title
;
Structure prediction by ZEFSAII (Michael W. Deem and Ramdas Pophale) SiO2 
 PCOD9494387
Probable space group: C M M M
;
_chemical_formula_sum "Si O2"
_cell_formula_units_Z 80
_cell_length_a 31.073970
_cell_length_b 9.441135
_cell_length_c 14.699535
_cell_angle_alpha 90.000000
_cell_angle_beta 90.000000
_cell_angle_gamma 90.000000
_cell_volume 4312.454704
_symmetry_space_group_name_H-M "C M M M"
_symmetry_group_IT_number 65
_symmetry_cell_setting 'orthorhombic'
loop_
_space_group_symop_operation_xyz
x,y,z
-x,-y,z
x,-y,-z
-x,y,-z
-x,-y,-z
x,y,-z
-x,y,z
x,-y,z
1/2+x,1/2+y,z
1/2-x,1/2-y,z
1/2+x,1/2-y,-z
1/2-x,1/2+y,-z
1/2-x,1/2-y,-z
1/2+x,1/2+y,-z
1/2-x,1/2+y,z
1/2+x,1/2-y,z
loop_
_atom_site_type_symbol
_atom_site_label
_atom_site_fract_x
_atom_site_fract_y
_atom_site_fract_z
Si Si1 0.291752 0.161972 0.111171
Si Si2 0.048863 0.172276 0.240759
Si Si3 0.376038 0.334863 0.891200
Si Si4 0.613588 0.327159 0.395765
Si Si5 0.291398 0.662150 0.388741
O O1 0.250000 0.250000 0.140020
O O2 0.335511 0.241100 0.137588
O O3 0.290221 0.000000 0.142294
O O4 0.291242 0.160277 0.000000
O O5 0.079794 0.209527 0.156820
O O6 0.075185 0.217474 0.330214
O O7 0.000000 0.224586 0.235802
O O8 0.046786 0.000000 0.242697
O O9 0.367670 0.500000 0.867224
O O10 0.380160 0.326658 0.000000
O O11 0.607100 0.282665 0.500000
O O12 0.614972 0.500000 0.395368
O O13 0.661214 0.281792 0.363257
O O14 0.291790 0.660974 0.500000
O O15 0.287367 0.500000 0.358115
O O16 0.250000 0.750000 0.359582
#
# Coordination Sequence:
#
# PCOD9494387 Si02
#       5
#    16  16  16  16  16
#     4   9  16  27  46  71  97 125 157 191 228 273
#     4   9  17  28  43  64  88 116 154 198 239 278
#     4   9  17  29  45  66  94 126 157 190 229 273
#     4   8  14  25  41  62  89 118 146 182 231 280
#     4   8  13  22  38  60  85 112 139 168 207 256
#
# _framework density 18.550919
#
# number of rings (size 3 to 8) (size 9 to 14) (size 15 to 20)
#    0.000    3.400    0.000    1.800    0.000    3.200 
#    0.000    5.000    0.000    4.200    0.000    2.800 
#    0.000    0.000    0.000    9.600    0.000   10.000 
#
# Total GULP energy -222943.412092 kJ/mol
# GULP energy per Si atom -5573.585302 kJ/mol
# Density = 1.850870 g / cm^3
# Si number density = 18.550919 Si / 1000 Ang^3
#
#
#
# Elastic Constant Matrix: (Units=GPa)
#
#
# Indices 1 2 3 4 5 6 
#
# 1 222.0080 69.8217 51.5006 0.0000 0.0000 0.0000
# 2 69.8217 54.0176 27.0760 0.0000 0.0000 0.0000
# 3 51.5006 27.0760 52.4610 0.0000 0.0000 0.0000
# 4 0.0000 0.0000 0.0000 4.4438 0.0000 0.0000
# 5 0.0000 0.0000 0.0000 0.0000 35.9943 0.0000
# 6 0.0000 0.0000 0.0000 0.0000 0.0000 22.5499
#
#
#
# Elastic Compliance Matrix: (Units=1/GPa)
#
#
# Indices 1 2 3 4 5 6 
#
# 1 0.008016 -0.008656 -0.003402 0.000000 0.000000 0.000000
# 2 -0.008656 0.034320 -0.009216 0.000000 0.000000 0.000000
# 3 -0.003402 -0.009216 0.027157 0.000000 0.000000 0.000000
# 4 0.000000 0.000000 0.000000 0.225034 0.000000 0.000000
# 5 0.000000 0.000000 0.000000 0.000000 0.027782 0.000000
# 6 0.000000 0.000000 0.000000 0.000000 0.000000 0.044346
#
#
# Mechanical properties :
#
#
# Convention : Reuss Voigt Hill
#
# Bulk Modulus (GPa) = 37.10999 69.47593 53.29296
# Shear Modulus (GPa) = 11.95644 24.60348 18.27996
#
# Velocity S-wave (km/s) = 2.54149 3.64575 3.14250
# Velocity P-wave (km/s) = 5.35351 7.43335 6.47745
#
# Compressibility (1/GPa) = 0.02694692
#
# Stress axis : x y z
#
# Youngs Moduli (GPa) = 124.75538 29.13735 36.82230
#
# Poissons Ratio (x) = 0.25221 0.12525
# Poissons Ratio (y) = 1.07987 0.33935
# Poissons Ratio (z) = 0.42436 0.26853
#
# Static dielectric constant tensor:
#      x y z
#    x 1.629570 0.000000 0.000000 
#    y 0.000000 1.625290 0.000000 
#    z 0.000000 0.000000 1.686540 
# 
# From -- ./inp_files/46680.got.cif
#   From: 2010.05.17/outbox.cif.g08.bks.cpg/sg65_24_cif.got.tgz:46680.got - 2010.06.03 17:01:31.
