data_PCOD9494899
_publ_section_title
;
Structure prediction by ZEFSAII (Michael W. Deem and Ramdas Pophale) SiO2 
 PCOD9494899
Probable space group: C C C M
;
_chemical_formula_sum "Si O2"
_cell_formula_units_Z 88
_cell_length_a 25.835427
_cell_length_b 20.849804
_cell_length_c 8.837740
_cell_angle_alpha 90.000000
_cell_angle_beta 90.000000
_cell_angle_gamma 90.000000
_cell_volume 4760.568749
_symmetry_space_group_name_H-M "C C C M"
_symmetry_group_IT_number 66
_symmetry_cell_setting 'orthorhombic'
loop_
_space_group_symop_operation_xyz
x,y,z
-x,-y,z
x,-y,1/2-z
-x,y,1/2-z
-x,-y,-z
x,y,-z
-x,y,1/2+z
x,-y,1/2+z
1/2+x,1/2+y,z
1/2-x,1/2-y,z
1/2+x,1/2-y,1/2-z
1/2-x,1/2+y,1/2-z
1/2-x,1/2-y,-z
1/2+x,1/2+y,-z
1/2-x,1/2+y,1/2+z
1/2+x,1/2-y,1/2+z
loop_
_atom_site_type_symbol
_atom_site_label
_atom_site_fract_x
_atom_site_fract_y
_atom_site_fract_z
Si Si1 0.160453 0.565135 0.819553
Si Si2 0.618013 0.569117 0.179388
Si Si3 0.725109 0.396126 0.829319
Si Si4 0.943949 0.187029 0.180221
Si Si5 0.250000 0.750000 0.771876
Si Si6 0.357007 0.207440 0.683693
O O1 0.139322 0.500000 0.750000
O O2 0.220709 0.574781 0.773308
O O3 0.133139 0.632695 0.783901
O O4 0.160639 0.558929 0.000000
O O5 0.606078 0.500000 0.250000
O O6 0.676846 0.587142 0.225671
O O7 0.581508 0.623734 0.248702
O O8 0.612753 0.567242 0.000000
O O9 0.734218 0.319454 0.839791
O O10 0.714188 0.419641 0.000000
O O11 0.904868 0.246069 0.209157
O O12 0.000000 0.198748 0.250000
O O13 0.947789 0.178911 0.000000
O O14 0.307535 0.770204 0.716645
O O15 0.343143 0.212003 0.500000
#
# Coordination Sequence:
#
# PCOD9494899 Si02
#       6
#    16  16  16  16   8  16
#     4   9  18  31  51  81 115 153 191 228 276 339
#     4  12  25  40  58  83 115 152 196 241 289 339
#     4  10  18  31  54  82 116 155 195 233 281 341
#     4  11  23  42  65  87 113 146 190 241 290 342
#     4  10  15  28  57  88 113 148 191 230 281 348
#     4   9  17  31  57  85 111 147 190 229 276 341
#
# _framework density 18.485188000000001
#
# number of rings (size 3 to 8) (size 9 to 14) (size 15 to 20)
#    0.000    1.818    1.818    5.455    0.000    2.545 
#    0.000    4.091    0.000    0.545    0.000    3.818 
#    0.000    0.000    0.000    0.000    0.000    0.000 
#
# Total GULP energy -245144.413073 kJ/mol
# GULP energy per Si atom -5571.463933 kJ/mol
# Density = 1.844311 g / cm^3
# Si number density = 18.485188 Si / 1000 Ang^3
#
#
#
# Elastic Constant Matrix: (Units=GPa)
#
#
# Indices 1 2 3 4 5 6 
#
# 1 105.5564 72.1989 55.4814 0.0000 0.0000 0.0000
# 2 72.1989 175.7181 48.5923 0.0000 0.0000 0.0000
# 3 55.4814 48.5923 71.8928 0.0000 0.0000 0.0000
# 4 0.0000 0.0000 0.0000 -29.9543 0.0000 0.0000
# 5 0.0000 0.0000 0.0000 0.0000 44.7789 0.0000
# 6 0.0000 0.0000 0.0000 0.0000 0.0000 14.3876
#
#
#
# Elastic Compliance Matrix: (Units=1/GPa)
#
#
# Indices 1 2 3 4 5 6 
#
# 1 0.018412 -0.004472 -0.011187 0.000000 0.000000 0.000000
# 2 -0.004472 0.008085 -0.002014 0.000000 0.000000 0.000000
# 3 -0.011187 -0.002014 0.023904 0.000000 0.000000 0.000000
# 4 0.000000 0.000000 0.000000 -0.033384 0.000000 0.000000
# 5 0.000000 0.000000 0.000000 0.000000 0.022332 0.000000
# 6 0.000000 0.000000 0.000000 0.000000 0.000000 0.069505
#
#
# Mechanical properties :
#
#
# Convention : Reuss Voigt Hill
#
# Bulk Modulus (GPa) = 66.41579 78.41250 72.41415
# Shear Modulus (GPa) = 33.50849 17.63541 25.57195
#
# Velocity S-wave (km/s) = 4.26223 3.09209 3.72341
# Velocity P-wave (km/s) = 7.76075 7.43365 7.59896
#
# Compressibility (1/GPa) = 0.01505666
#
# Stress axis : x y z
#
# Youngs Moduli (GPa) = 54.31289 123.68390 41.83449
#
# Poissons Ratio (x) = 0.55306 0.46798
# Poissons Ratio (y) = 0.24286 0.08425
# Poissons Ratio (z) = 0.60757 0.24909
#
# Static dielectric constant tensor:
#      x y z
#    x 1.622920 0.000000 0.000000 
#    y 0.000000 1.651090 0.000000 
#    z 0.000000 0.000000 1.646070 
# 
# From -- ./inp_files/8985.got.cif
#   From: 2010.05.17/outbox.cif.g08.bks.cpg/sg66_5_cif.got.tgz:8985.got - 2010.06.03 17:51:23.
