data_PCOD9494966
_publ_section_title
;
Structure prediction by ZEFSAII (Michael W. Deem and Ramdas Pophale) SiO2 
 PCOD9494966
Probable space group: C C C M
;
_chemical_formula_sum "Si O2"
_cell_formula_units_Z 88
_cell_length_a 8.702138
_cell_length_b 20.539961
_cell_length_c 25.449104
_cell_angle_alpha 90.000000
_cell_angle_beta 90.000000
_cell_angle_gamma 90.000000
_cell_volume 4548.812935
_symmetry_space_group_name_H-M "C C C M"
_symmetry_group_IT_number 66
_symmetry_cell_setting 'orthorhombic'
loop_
_space_group_symop_operation_xyz
x,y,z
-x,-y,z
x,-y,1/2-z
-x,y,1/2-z
-x,-y,-z
x,y,-z
-x,y,1/2+z
x,-y,1/2+z
1/2+x,1/2+y,z
1/2-x,1/2-y,z
1/2+x,1/2-y,1/2-z
1/2-x,1/2+y,1/2-z
1/2-x,1/2-y,-z
1/2+x,1/2+y,-z
1/2-x,1/2+y,1/2+z
1/2+x,1/2-y,1/2+z
loop_
_atom_site_type_symbol
_atom_site_label
_atom_site_fract_x
_atom_site_fract_y
_atom_site_fract_z
Si Si1 0.421418 0.112552 0.500000
Si Si2 0.360895 0.689400 0.394681
Si Si3 0.755583 0.500942 0.190123
Si Si4 0.150928 0.436207 0.086564
Si Si5 0.061869 0.244268 0.000000
Si Si6 0.323646 0.481854 0.500000
Si Si7 0.018056 0.892159 0.808844
O O1 0.501486 0.080201 0.448354
O O2 0.472369 0.187555 0.500000
O O3 0.243620 0.091312 0.500000
O O4 0.250000 0.750000 0.380154
O O5 0.244596 0.630962 0.408551
O O6 0.461793 0.707364 0.445568
O O7 0.472025 0.662685 0.349855
O O8 0.817121 0.500000 0.250000
O O9 0.858674 0.530785 0.143752
O O10 0.612382 0.551550 0.189823
O O11 0.678148 0.430017 0.180376
O O12 0.253433 0.483410 0.050955
O O13 0.250000 0.250000 0.000000
O O14 0.500000 0.500000 0.500000
O O15 0.000000 0.865621 0.750000
#
# Coordination Sequence:
#
# PCOD9494966 Si02
#       7
#     8  16  16  16   8   8  16
#     4  11  20  39  57  84 123 152 187 251 298 358
#     4  10  17  28  53  86 106 149 203 232 275 357
#     4   8  15  28  50  85 116 144 185 236 297 354
#     4  10  18  33  59  86 115 144 190 237 299 347
#     4  10  16  32  53  84 109 148 202 238 286 358
#     4  11  26  37  56  88 113 149 189 241 303 356
#     4   8  15  27  45  76 116 155 190 234 282 339
#
# _framework density 19.345707000000001
#
# number of rings (size 3 to 8) (size 9 to 14) (size 15 to 20)
#    0.000    2.545    3.636    2.727    5.091    0.000 
#    0.000    0.000    0.000   10.909    0.000    0.000 
#    0.000    0.000    0.000    0.000    0.000    0.000 
#
# Total GULP energy -245171.599975 kJ/mol
# GULP energy per Si atom -5572.081818 kJ/mol
# Density = 1.930168 g / cm^3
# Si number density = 19.345707 Si / 1000 Ang^3
#
#
#
# Elastic Constant Matrix: (Units=GPa)
#
#
# Indices 1 2 3 4 5 6 
#
# 1 67.9256 49.5823 29.1803 0.0000 0.0000 0.0000
# 2 49.5823 122.9494 80.4191 0.0000 0.0000 0.0000
# 3 29.1803 80.4191 163.4928 0.0000 0.0000 0.0000
# 4 0.0000 0.0000 0.0000 57.9391 0.0000 0.0000
# 5 0.0000 0.0000 0.0000 0.0000 -20.5114 0.0000
# 6 0.0000 0.0000 0.0000 0.0000 0.0000 22.6585
#
#
#
# Elastic Compliance Matrix: (Units=1/GPa)
#
#
# Indices 1 2 3 4 5 6 
#
# 1 0.020905 -0.008831 0.000613 0.000000 0.000000 0.000000
# 2 -0.008831 0.015722 -0.006157 0.000000 0.000000 0.000000
# 3 0.000613 -0.006157 0.009036 0.000000 0.000000 0.000000
# 4 0.000000 0.000000 0.000000 0.017259 0.000000 0.000000
# 5 0.000000 0.000000 0.000000 0.000000 -0.048753 0.000000
# 6 0.000000 0.000000 0.000000 0.000000 0.000000 0.044134
#
#
# Mechanical properties :
#
#
# Convention : Reuss Voigt Hill
#
# Bulk Modulus (GPa) = 59.13112 74.74792 66.93952
# Shear Modulus (GPa) = 53.94233 25.02965 39.48599
#
# Velocity S-wave (km/s) = 5.28620 3.60086 4.52272
# Velocity P-wave (km/s) = 8.23956 7.48399 7.87085
#
# Compressibility (1/GPa) = 0.01691157
#
# Stress axis : x y z
#
# Youngs Moduli (GPa) = 47.83503 63.60423 110.67161
#
# Poissons Ratio (x) = 0.56171 -0.06782
# Poissons Ratio (y) = 0.42245 0.68143
# Poissons Ratio (z) = -0.02931 0.39163
#
# Static dielectric constant tensor:
#      x y z
#    x 1.717420 0.000000 0.000000 
#    y 0.000000 1.680870 0.000000 
#    z 0.000000 0.000000 1.759160 
# 
# From -- ./inp_files/55521.got.cif
#   From: 2010.05.17/outbox.cif.g08.bks.cpg/sg66_28_cif.got.tgz:55521.got - 2010.06.03 17:51:23.
