data_PCOD9494322
_publ_section_title
;
Structure prediction by ZEFSAII (Michael W. Deem and Ramdas Pophale) SiO2 
 PCOD9494322
Probable space group: C M M M
;
_chemical_formula_sum "Si O2"
_cell_formula_units_Z 88
_cell_length_a 14.026537
_cell_length_b 11.734684
_cell_length_c 24.101545
_cell_angle_alpha 90.000000
_cell_angle_beta 90.000000
_cell_angle_gamma 90.000000
_cell_volume 3967.041504
_symmetry_space_group_name_H-M "C M M M"
_symmetry_group_IT_number 65
_symmetry_cell_setting 'orthorhombic'
loop_
_space_group_symop_operation_xyz
x,y,z
-x,-y,z
x,-y,-z
-x,y,-z
-x,-y,-z
x,y,-z
-x,y,z
x,-y,z
1/2+x,1/2+y,z
1/2-x,1/2-y,z
1/2+x,1/2-y,-z
1/2-x,1/2+y,-z
1/2-x,1/2-y,-z
1/2+x,1/2+y,-z
1/2-x,1/2+y,z
1/2+x,1/2-y,z
loop_
_atom_site_type_symbol
_atom_site_label
_atom_site_fract_x
_atom_site_fract_y
_atom_site_fract_z
Si Si1 0.884216 0.000000 0.436246
Si Si2 0.116111 0.630658 0.440780
Si Si3 0.150852 0.869666 0.890189
Si Si4 0.110121 0.865822 0.233946
Si Si5 0.383691 0.298513 0.647318
Si Si6 0.135413 0.627360 0.934353
O O1 0.857606 0.893184 0.398220
O O2 0.850300 0.000000 0.500000
O O3 0.000000 0.000000 0.439727
O O4 0.145200 0.684736 0.500000
O O5 0.143811 0.500000 0.441830
O O6 0.147052 0.684973 0.383587
O O7 0.000000 0.636565 0.440565
O O8 0.163829 0.853481 0.824053
O O9 0.103275 0.750753 0.910330
O O10 0.251644 0.873841 0.921339
O O11 0.109052 0.000000 0.896890
O O12 0.149114 0.810059 0.289766
O O13 0.000000 0.829140 0.223662
O O14 0.107104 0.000000 0.247216
O O15 0.500000 0.304357 0.651555
O O16 0.102677 0.500000 0.914436
O O17 0.118435 0.630539 0.000000
#
# Coordination Sequence:
#
# PCOD9494322 Si02
#       6
#     8  16  16  16  16  16
#     4   9  14  18  28  46  64  88 127 169 201 229
#     4   8  13  20  29  41  58  84 123 170 211 239
#     4   9  16  26  44  67  87 111 142 168 203 246
#     4   9  16  26  38  55  83 117 147 169 193 237
#     4   9  14  21  31  44  66  97 132 164 194 233
#     4   9  17  30  49  71  90 105 128 170 221 259
#
# _framework density 22.182777999999999
#
# number of rings (size 3 to 8) (size 9 to 14) (size 15 to 20)
#    0.000    3.182    0.909    2.182    0.000    3.273 
#    0.000    0.909    0.000    3.818    0.000   12.727 
#    0.000    0.000    0.000   13.091   14.545    5.818 
#
# Total GULP energy -245055.614300 kJ/mol
# GULP energy per Si atom -5569.445780 kJ/mol
# Density = 2.213229 g / cm^3
# Si number density = 22.182778 Si / 1000 Ang^3
#
#
#
# Elastic Constant Matrix: (Units=GPa)
#
#
# Indices 1 2 3 4 5 6 
#
# 1 79.1489 15.4949 6.2239 0.0000 0.0000 0.0000
# 2 15.4949 158.3017 63.7924 0.0000 0.0000 0.0000
# 3 6.2239 63.7924 135.2906 0.0000 0.0000 0.0000
# 4 0.0000 0.0000 0.0000 -44.3987 0.0000 0.0000
# 5 0.0000 0.0000 0.0000 0.0000 15.0534 0.0000
# 6 0.0000 0.0000 0.0000 0.0000 0.0000 -2.9605
#
#
#
# Elastic Compliance Matrix: (Units=1/GPa)
#
#
# Indices 1 2 3 4 5 6 
#
# 1 0.012881 -0.001262 0.000002 0.000000 0.000000 0.000000
# 2 -0.001262 0.007923 -0.003678 0.000000 0.000000 0.000000
# 3 0.000002 -0.003678 0.009125 0.000000 0.000000 0.000000
# 4 0.000000 0.000000 0.000000 -0.022523 0.000000 0.000000
# 5 0.000000 0.000000 0.000000 0.000000 0.066430 0.000000
# 6 0.000000 0.000000 0.000000 0.000000 0.000000 -0.337786
#
#
# Mechanical properties :
#
#
# Convention : Reuss Voigt Hill
#
# Bulk Modulus (GPa) = 49.86238 60.41817 55.14028
# Shear Modulus (GPa) = -20.21096 12.68751 -3.76172
#
# Velocity S-wave (km/s) = -3.02174 2.39415 -1.30364
# Velocity P-wave (km/s) = 3.21749 5.91086 4.75870
#
# Compressibility (1/GPa) = 0.02005520
#
# Stress axis : x y z
#
# Youngs Moduli (GPa) = 77.63221 126.22177 109.58352
#
# Poissons Ratio (x) = 0.15927 -0.00026
# Poissons Ratio (y) = 0.09796 0.40301
# Poissons Ratio (z) = -0.00018 0.46419
#
# Static dielectric constant tensor:
#      x y z
#    x 1.899140 0.000000 0.000000 
#    y 0.000000 1.898340 0.000000 
#    z 0.000000 0.000000 1.758590 
# 
# From -- ./inp_files/69793.got.cif
#   From: 2010.05.17/outbox.cif.g08.bks.cpg/sg65_35_cif.got.tgz:69793.got - 2010.06.03 17:01:31.
