data_PCOD9494113
_publ_section_title
;
Structure prediction by ZEFSAII (Michael W. Deem and Ramdas Pophale) SiO2 
 PCOD9494113
Probable space group: C M M M
;
_chemical_formula_sum "Si O2"
_cell_formula_units_Z 72
_cell_length_a 16.135220
_cell_length_b 8.311944
_cell_length_c 26.200535
_cell_angle_alpha 90.000000
_cell_angle_beta 90.000000
_cell_angle_gamma 90.000000
_cell_volume 3513.885932
_symmetry_space_group_name_H-M "C M M M"
_symmetry_group_IT_number 65
_symmetry_cell_setting 'orthorhombic'
loop_
_space_group_symop_operation_xyz
x,y,z
-x,-y,z
x,-y,-z
-x,y,-z
-x,-y,-z
x,y,-z
-x,y,z
x,-y,z
1/2+x,1/2+y,z
1/2-x,1/2-y,z
1/2+x,1/2-y,-z
1/2-x,1/2+y,-z
1/2-x,1/2-y,-z
1/2+x,1/2+y,-z
1/2-x,1/2+y,z
1/2+x,1/2-y,z
loop_
_atom_site_type_symbol
_atom_site_label
_atom_site_fract_x
_atom_site_fract_y
_atom_site_fract_z
Si Si1 0.000000 0.807542 0.058239
Si Si2 0.660668 0.190369 0.119564
Si Si3 0.400696 0.314667 0.663765
Si Si4 0.096888 0.804986 0.773733
Si Si5 0.154977 0.195264 0.554976
O O1 0.917300 0.753513 0.087447
O O2 0.000000 0.000000 0.057722
O O3 0.000000 0.747303 0.000000
O O4 0.750000 0.250000 0.100718
O O5 0.647468 0.246990 0.177867
O O6 0.659557 0.000000 0.118160
O O7 0.500000 0.320351 0.667571
O O8 0.370059 0.500000 0.662413
O O9 0.372665 0.243900 0.718135
O O10 0.380037 0.241848 0.608719
O O11 0.000000 0.757557 0.780706
O O12 0.098479 0.000000 0.772271
O O13 0.117891 0.247524 0.500000
O O14 0.250000 0.250000 0.554357
O O15 0.148591 0.000000 0.555551
#
# Coordination Sequence:
#
# PCOD9494113 Si02
#       5
#     8  16  16  16  16
#     4  11  25  47  73  99 131 169 206 251 306 357
#     4  12  25  41  65  96 130 168 212 257 303 361
#     4   8  15  28  48  75 102 134 177 226 283 341
#     4   9  17  33  57  81 114 154 192 241 302 364
#     4   9  17  29  45  65  93 130 174 224 278 338
#
# _framework density 20.490136
#
# number of rings (size 3 to 8) (size 9 to 14) (size 15 to 20)
#    0.000    2.333    1.111    3.667    0.000    2.667 
#    0.000    5.556    0.000    2.000    0.000    3.111 
#    0.000    0.000    0.000    0.000    0.000    0.000 
#
# Total GULP energy -200705.231042 kJ/mol
# GULP energy per Si atom -5575.145307 kJ/mol
# Density = 2.044350 g / cm^3
# Si number density = 20.490136 Si / 1000 Ang^3
#
#
#
# Elastic Constant Matrix: (Units=GPa)
#
#
# Indices 1 2 3 4 5 6 
#
# 1 90.9492 14.7419 66.8557 0.0000 0.0000 0.0000
# 2 14.7419 34.1741 26.7771 0.0000 0.0000 0.0000
# 3 66.8557 26.7771 189.1479 0.0000 0.0000 0.0000
# 4 0.0000 0.0000 0.0000 0.5398 0.0000 0.0000
# 5 0.0000 0.0000 0.0000 0.0000 -19.3346 0.0000
# 6 0.0000 0.0000 0.0000 0.0000 0.0000 23.7648
#
#
#
# Elastic Compliance Matrix: (Units=1/GPa)
#
#
# Indices 1 2 3 4 5 6 
#
# 1 0.015060 -0.002616 -0.004953 0.000000 0.000000 0.000000
# 2 -0.002616 0.033367 -0.003799 0.000000 0.000000 0.000000
# 3 -0.004953 -0.003799 0.007575 0.000000 0.000000 0.000000
# 4 0.000000 0.000000 0.000000 1.852444 0.000000 0.000000
# 5 0.000000 0.000000 0.000000 0.000000 -0.051721 0.000000
# 6 0.000000 0.000000 0.000000 0.000000 0.000000 0.042079
#
#
# Mechanical properties :
#
#
# Convention : Reuss Voigt Hill
#
# Bulk Modulus (GPa) = 30.05979 59.00229 44.53104
# Shear Modulus (GPa) = 2.58715 14.72044 8.65380
#
# Velocity S-wave (km/s) = 1.12489 2.68324 2.05732
# Velocity P-wave (km/s) = 4.04838 6.20142 5.23675
#
# Compressibility (1/GPa) = 0.03326703
#
# Stress axis : x y z
#
# Youngs Moduli (GPa) = 66.40199 29.96962 132.00864
#
# Poissons Ratio (x) = 0.07839 0.65380
# Poissons Ratio (y) = 0.17369 0.50152
# Poissons Ratio (z) = 0.32887 0.11386
#
# Static dielectric constant tensor:
#      x y z
#    x 1.703020 0.000000 0.000000 
#    y 0.000000 1.711280 0.000000 
#    z 0.000000 0.000000 1.801940 
# 
# From -- ./inp_files/74620.got.cif
#   From: 2010.05.17/outbox.cif.g08.bks.cpg/sg65_38_cif.got.tgz:74620.got - 2010.06.03 17:01:31.
