data_PCOD9494437
_publ_section_title
;
Structure prediction by ZEFSAII (Michael W. Deem and Ramdas Pophale) SiO2 
 PCOD9494437
Probable space group: C M M M
;
_chemical_formula_sum "Si O2"
_cell_formula_units_Z 88
_cell_length_a 32.231510
_cell_length_b 18.158909
_cell_length_c 7.407077
_cell_angle_alpha 90.000000
_cell_angle_beta 90.000000
_cell_angle_gamma 90.000000
_cell_volume 4335.281113
_symmetry_space_group_name_H-M "C M M M"
_symmetry_group_IT_number 65
_symmetry_cell_setting 'orthorhombic'
loop_
_space_group_symop_operation_xyz
x,y,z
-x,-y,z
x,-y,-z
-x,y,-z
-x,-y,-z
x,y,-z
-x,y,z
x,-y,z
1/2+x,1/2+y,z
1/2-x,1/2-y,z
1/2+x,1/2-y,-z
1/2-x,1/2+y,-z
1/2-x,1/2-y,-z
1/2+x,1/2+y,-z
1/2-x,1/2+y,z
1/2+x,1/2-y,z
loop_
_atom_site_type_symbol
_atom_site_label
_atom_site_fract_x
_atom_site_fract_y
_atom_site_fract_z
Si Si1 0.169952 0.919622 0.717585
Si Si2 0.379832 0.810219 0.207296
Si Si3 0.000000 0.915637 0.720629
Si Si4 0.704135 0.259117 0.788302
Si Si5 0.546608 0.913777 0.219889
Si Si6 0.914133 0.848576 0.281452
O O1 0.172362 0.919966 0.500000
O O2 0.192712 0.845456 0.777487
O O3 0.121978 0.905860 0.767632
O O4 0.184297 0.000000 0.781691
O O5 0.334212 0.790104 0.286704
O O6 0.413776 0.866887 0.285501
O O7 0.402058 0.730972 0.208953
O O8 0.372916 0.833911 0.000000
O O9 0.041373 0.875138 0.779698
O O10 0.000000 0.915509 0.500000
O O11 0.000000 0.000000 0.777595
O O12 0.750000 0.250000 0.709417
O O13 0.706327 0.239514 0.000000
O O14 0.500000 0.889074 0.277498
O O15 0.550769 0.000000 0.266904
O O16 0.546597 0.909084 0.000000
O O17 0.914102 0.843277 0.500000
#
# Coordination Sequence:
#
# PCOD9494437 Si02
#       6
#    16  16   8  16  16  16
#     4   9  17  30  48  68  89 116 153 190 222 262
#     4   9  17  29  46  66  87 114 146 182 221 263
#     4   9  16  26  41  61  86 117 150 180 211 249
#     4   9  18  32  47  66  93 120 147 183 229 277
#     4   8  14  25  42  64  87 111 142 181 222 263
#     4   9  17  28  43  64  89 118 149 182 217 256
#
# _framework density 20.298568
#
# number of rings (size 3 to 8) (size 9 to 14) (size 15 to 20)
#    0.000    3.182    0.000    1.091    1.273    2.909 
#    0.000    0.909    0.000    6.000    0.000    1.273 
#    0.000    0.000    0.000    0.000    0.000    0.000 
#
# Total GULP energy -245161.997835 kJ/mol
# GULP energy per Si atom -5571.863587 kJ/mol
# Density = 2.025237 g / cm^3
# Si number density = 20.298568 Si / 1000 Ang^3
#
#
#
# Elastic Constant Matrix: (Units=GPa)
#
#
# Indices 1 2 3 4 5 6 
#
# 1 203.5742 74.9081 9.4594 0.0000 0.0000 0.0000
# 2 74.9081 79.4810 -1.1257 0.0000 0.0000 0.0000
# 3 9.4594 -1.1257 65.0958 0.0000 0.0000 0.0000
# 4 0.0000 0.0000 0.0000 11.3883 0.0000 0.0000
# 5 0.0000 0.0000 0.0000 0.0000 37.9991 0.0000
# 6 0.0000 0.0000 0.0000 0.0000 0.0000 18.5312
#
#
#
# Elastic Compliance Matrix: (Units=1/GPa)
#
#
# Indices 1 2 3 4 5 6 
#
# 1 0.007618 -0.007197 -0.001231 0.000000 0.000000 0.000000
# 2 -0.007197 0.019384 0.001381 0.000000 0.000000 0.000000
# 3 -0.001231 0.001381 0.015565 0.000000 0.000000 0.000000
# 4 0.000000 0.000000 0.000000 0.087809 0.000000 0.000000
# 5 0.000000 0.000000 0.000000 0.000000 0.026316 0.000000
# 6 0.000000 0.000000 0.000000 0.000000 0.000000 0.053963
#
#
# Mechanical properties :
#
#
# Convention : Reuss Voigt Hill
#
# Bulk Modulus (GPa) = 35.12226 57.18162 46.15194
# Shear Modulus (GPa) = 21.34562 31.24432 26.29497
#
# Velocity S-wave (km/s) = 3.24633 3.92757 3.60309
# Velocity P-wave (km/s) = 5.60285 6.98564 6.33210
#
# Compressibility (1/GPa) = 0.02847197
#
# Stress axis : x y z
#
# Youngs Moduli (GPa) = 131.27525 51.58925 64.24754
#
# Poissons Ratio (x) = 0.37128 0.07912
# Poissons Ratio (y) = 0.94476 -0.08873
# Poissons Ratio (z) = 0.16165 -0.07125
#
# Static dielectric constant tensor:
#      x y z
#    x 1.742160 0.000000 0.000000 
#    y 0.000000 1.677370 0.000000 
#    z 0.000000 0.000000 1.786130 
# 
# From -- ./inp_files/25139.got.cif
#   From: 2010.05.17/outbox.cif.g08.bks.cpg/sg65_13_cif.got.tgz:25139.got - 2010.06.03 17:01:31.
