data_PCOD9494244
_publ_section_title
;
Structure prediction by ZEFSAII (Michael W. Deem and Ramdas Pophale) SiO2 
 PCOD9494244
Probable space group: C M M M
;
_chemical_formula_sum "Si O2"
_cell_formula_units_Z 80
_cell_length_a 19.117941
_cell_length_b 7.327367
_cell_length_c 27.706133
_cell_angle_alpha 90.000000
_cell_angle_beta 90.000000
_cell_angle_gamma 90.000000
_cell_volume 3881.190645
_symmetry_space_group_name_H-M "C M M M"
_symmetry_group_IT_number 65
_symmetry_cell_setting 'orthorhombic'
loop_
_space_group_symop_operation_xyz
x,y,z
-x,-y,z
x,-y,-z
-x,y,-z
-x,-y,-z
x,y,-z
-x,y,z
x,-y,z
1/2+x,1/2+y,z
1/2-x,1/2-y,z
1/2+x,1/2-y,-z
1/2-x,1/2+y,-z
1/2-x,1/2-y,-z
1/2+x,1/2+y,-z
1/2-x,1/2+y,z
1/2+x,1/2-y,z
loop_
_atom_site_type_symbol
_atom_site_label
_atom_site_fract_x
_atom_site_fract_y
_atom_site_fract_z
Si Si1 0.583480 0.279893 0.896131
Si Si2 0.416663 0.721184 0.000000
Si Si3 0.667785 0.717704 0.699471
Si Si4 0.332360 0.717810 0.407854
Si Si5 0.918449 0.777251 0.791134
Si Si6 0.080755 0.776663 0.500000
O O1 0.500000 0.241879 0.895869
O O2 0.590314 0.500000 0.896559
O O3 0.609670 0.216909 0.843795
O O4 0.611635 0.214347 0.948044
O O5 0.411405 0.500000 0.000000
O O6 0.500000 0.762058 0.000000
O O7 0.656558 0.500000 0.698131
O O8 0.750000 0.750000 0.706816
O O9 0.649907 0.788405 0.645822
O O10 0.624238 0.787664 0.744870
O O11 0.342027 0.500000 0.406293
O O12 0.250000 0.750000 0.416550
O O13 0.378775 0.785674 0.452032
O O14 0.000000 0.726572 0.787110
O O15 0.916374 0.000000 0.791471
O O16 0.000000 0.722500 0.500000
O O17 0.082553 0.000000 0.500000
#
# Coordination Sequence:
#
# PCOD9494244 Si02
#       6
#    16   8  16  16  16   8
#     4   7   9  13  22  39  64  91 117 147 185 226
#     4   7   8  10  18  34  59  90 117 141 178 227
#     4   9  17  28  42  60  80 103 132 162 191 226
#     4   9  17  29  45  62  80 105 134 162 191 225
#     4   8  13  21  34  53  75  97 124 160 197 229
#     4   9  17  28  43  65  88 105 126 160 198 231
#
# _framework density 20.612233
#
# number of rings (size 3 to 8) (size 9 to 14) (size 15 to 20)
#    0.000    3.800    0.000    2.700    0.000    0.800 
#    0.000    4.000    0.000    1.800    0.000    6.300 
#    0.000    0.000    0.000    0.000    0.000   11.600 
#
# Total GULP energy -222756.848461 kJ/mol
# GULP energy per Si atom -5568.921212 kJ/mol
# Density = 2.056532 g / cm^3
# Si number density = 20.612233 Si / 1000 Ang^3
#
#
#
# Elastic Constant Matrix: (Units=GPa)
#
#
# Indices 1 2 3 4 5 6 
#
# 1 53.7996 -0.6788 108.7749 0.0000 0.0000 0.0000
# 2 -0.6788 80.6566 12.8990 0.0000 0.0000 0.0000
# 3 108.7749 12.8990 299.1145 0.0000 0.0000 0.0000
# 4 0.0000 0.0000 0.0000 -5.9208 0.0000 0.0000
# 5 0.0000 0.0000 0.0000 0.0000 1.9639 0.0000
# 6 0.0000 0.0000 0.0000 0.0000 0.0000 -161.1940
#
#
#
# Elastic Compliance Matrix: (Units=1/GPa)
#
#
# Indices 1 2 3 4 5 6 
#
# 1 0.072031 0.004829 -0.026403 0.000000 0.000000 0.000000
# 2 0.004829 0.012808 -0.002308 0.000000 0.000000 0.000000
# 3 -0.026403 -0.002308 0.013044 0.000000 0.000000 0.000000
# 4 0.000000 0.000000 0.000000 -0.168896 0.000000 0.000000
# 5 0.000000 0.000000 0.000000 0.000000 0.509188 0.000000
# 6 0.000000 0.000000 0.000000 0.000000 0.000000 -0.006204
#
#
# Mechanical properties :
#
#
# Convention : Reuss Voigt Hill
#
# Bulk Modulus (GPa) = 19.95268 75.06232 47.50750
# Shear Modulus (GPa) = 10.07165 -12.19181 -1.06008
#
# Velocity S-wave (km/s) = 2.21288 -2.43468 -0.71792
# Velocity P-wave (km/s) = 4.02867 5.34714 4.73403
#
# Compressibility (1/GPa) = 0.05011858
#
# Stress axis : x y z
#
# Youngs Moduli (GPa) = 13.88289 78.07594 76.66183
#
# Poissons Ratio (x) = -0.37701 2.02409
# Poissons Ratio (y) = -0.06704 0.17696
# Poissons Ratio (z) = 0.36655 0.18022
#
# Static dielectric constant tensor:
#      x y z
#    x 1.659670 0.000000 0.000000 
#    y 0.000000 1.797790 0.000000 
#    z 0.000000 0.000000 1.802040 
# 
# From -- ./inp_files/74737.got.cif
#   From: 2010.05.17/outbox.cif.g08.bks.cpg/sg65_38_cif.got.tgz:74737.got - 2010.06.03 17:01:31.
