data_PCOD9494109
_publ_section_title
;
Structure prediction by ZEFSAII (Michael W. Deem and Ramdas Pophale) SiO2 
 PCOD9494109
Probable space group: C M M M
;
_chemical_formula_sum "Si O2"
_cell_formula_units_Z 72
_cell_length_a 29.877009
_cell_length_b 14.088974
_cell_length_c 8.703323
_cell_angle_alpha 90.000000
_cell_angle_beta 90.000000
_cell_angle_gamma 90.000000
_cell_volume 3663.545478
_symmetry_space_group_name_H-M "C M M M"
_symmetry_group_IT_number 65
_symmetry_cell_setting 'orthorhombic'
loop_
_space_group_symop_operation_xyz
x,y,z
-x,-y,z
x,-y,-z
-x,y,-z
-x,-y,-z
x,y,-z
-x,y,z
x,-y,z
1/2+x,1/2+y,z
1/2-x,1/2-y,z
1/2+x,1/2-y,-z
1/2-x,1/2+y,-z
1/2-x,1/2-y,-z
1/2+x,1/2+y,-z
1/2-x,1/2+y,z
1/2+x,1/2-y,z
loop_
_atom_site_type_symbol
_atom_site_label
_atom_site_fract_x
_atom_site_fract_y
_atom_site_fract_z
Si Si1 0.870475 0.610418 0.685999
Si Si2 0.826091 0.885607 0.682448
Si Si3 0.000000 0.109990 0.684189
Si Si4 0.413219 0.712749 0.181910
Si Si5 0.728311 0.115299 0.680326
O O1 0.870536 0.616837 0.500000
O O2 0.877000 0.500000 0.725836
O O3 0.906527 0.680891 0.755214
O O4 0.820558 0.641820 0.741719
O O5 0.829131 0.862479 0.500000
O O6 0.868167 0.841888 0.767351
O O7 0.776794 0.853417 0.741056
O O8 0.827731 0.000000 0.694549
O O9 0.955821 0.161753 0.744729
O O10 0.000000 0.112069 0.500000
O O11 0.000000 0.000000 0.734217
O O12 0.417494 0.712710 0.000000
O O13 0.728440 0.141070 0.500000
O O14 0.728586 0.000000 0.686146
#
# Coordination Sequence:
#
# PCOD9494109 Si02
#       5
#    16  16   8  16  16
#     4   9  18  36  61  85 112 151 199 244 279 318
#     4   9  17  32  55  82 113 151 197 243 281 326
#     4  11  25  47  72  91 108 137 183 236 282 329
#     4  12  25  38  56  85 120 152 182 225 287 353
#     4   7  12  26  51  81 110 145 193 244 283 313
#
# _framework density 19.653092999999998
#
# number of rings (size 3 to 8) (size 9 to 14) (size 15 to 20)
#    0.000    2.556    0.000    5.667    0.000    5.333 
#    0.000    6.111    0.000    7.333    0.000    0.000 
#    0.000    0.000    0.000    0.000    0.000    0.000 
#
# Total GULP energy -200955.251192 kJ/mol
# GULP energy per Si atom -5582.090311 kJ/mol
# Density = 1.960836 g / cm^3
# Si number density = 19.653093 Si / 1000 Ang^3
#
#
#
# Elastic Constant Matrix: (Units=GPa)
#
#
# Indices 1 2 3 4 5 6 
#
# 1 156.9148 90.9495 45.4947 0.0000 0.0000 0.0000
# 2 90.9495 112.4473 44.1724 0.0000 0.0000 0.0000
# 3 45.4947 44.1724 50.6532 0.0000 0.0000 0.0000
# 4 0.0000 0.0000 0.0000 40.1327 0.0000 0.0000
# 5 0.0000 0.0000 0.0000 0.0000 -61.4399 0.0000
# 6 0.0000 0.0000 0.0000 0.0000 0.0000 38.9608
#
#
#
# Elastic Compliance Matrix: (Units=1/GPa)
#
#
# Indices 1 2 3 4 5 6 
#
# 1 0.012424 -0.008617 -0.003644 0.000000 0.000000 0.000000
# 2 -0.008617 0.019504 -0.009269 0.000000 0.000000 0.000000
# 3 -0.003644 -0.009269 0.031098 0.000000 0.000000 0.000000
# 4 0.000000 0.000000 0.000000 0.024917 0.000000 0.000000
# 5 0.000000 0.000000 0.000000 0.000000 -0.016276 0.000000
# 6 0.000000 0.000000 0.000000 0.000000 0.000000 0.025667
#
#
# Mechanical properties :
#
#
# Convention : Reuss Voigt Hill
#
# Bulk Modulus (GPa) = 50.08604 75.69428 62.89016
# Shear Modulus (GPa) = 34.00212 12.82396 23.41304
#
# Velocity S-wave (km/s) = 4.16398 2.55721 3.45529
# Velocity P-wave (km/s) = 6.97558 6.87880 6.92736
#
# Compressibility (1/GPa) = 0.01996564
#
# Stress axis : x y z
#
# Youngs Moduli (GPa) = 80.48830 51.27152 32.15661
#
# Poissons Ratio (x) = 0.44183 0.11718
# Poissons Ratio (y) = 0.69360 0.29805
# Poissons Ratio (z) = 0.29330 0.47522
#
# Static dielectric constant tensor:
#      x y z
#    x 1.688350 0.000000 0.000000 
#    y 0.000000 1.735470 0.000000 
#    z 0.000000 0.000000 1.647750 
# 
# From -- ./inp_files/15776.got.cif
#   From: 2010.05.17/outbox.cif.g08.bks.cpg/sg65_8_cif.got.tgz:15776.got - 2010.06.03 17:01:31.
