data_PCOD9494529
_publ_section_title
;
Structure prediction by ZEFSAII (Michael W. Deem and Ramdas Pophale) SiO2 
 PCOD9494529
Probable space group: C M M M
;
_chemical_formula_sum "Si O2"
_cell_formula_units_Z 72
_cell_length_a 7.375647
_cell_length_b 15.753028
_cell_length_c 28.347644
_cell_angle_alpha 90.000000
_cell_angle_beta 90.000000
_cell_angle_gamma 90.000000
_cell_volume 3293.677994
_symmetry_space_group_name_H-M "C M M M"
_symmetry_group_IT_number 65
_symmetry_cell_setting 'orthorhombic'
loop_
_space_group_symop_operation_xyz
x,y,z
-x,-y,z
x,-y,-z
-x,y,-z
-x,-y,-z
x,y,-z
-x,y,z
x,-y,z
1/2+x,1/2+y,z
1/2-x,1/2-y,z
1/2+x,1/2-y,-z
1/2-x,1/2+y,-z
1/2-x,1/2-y,-z
1/2+x,1/2+y,-z
1/2-x,1/2+y,z
1/2+x,1/2-y,z
loop_
_atom_site_type_symbol
_atom_site_label
_atom_site_fract_x
_atom_site_fract_y
_atom_site_fract_z
Si Si1 0.783643 0.652676 0.553498
Si Si2 0.778180 0.500000 0.727583
Si Si3 0.717076 0.850853 0.795896
Si Si4 0.777948 0.500000 0.619278
Si Si5 0.795412 0.399919 0.000000
Si Si6 0.215729 0.349913 0.100945
O O1 0.712919 0.640656 0.500000
O O2 0.750000 0.750000 0.567538
O O3 0.717770 0.583032 0.590355
O O4 0.000000 0.641797 0.550925
O O5 0.719491 0.584538 0.755754
O O6 0.719238 0.500000 0.673414
O O7 0.000000 0.500000 0.727366
O O8 0.500000 0.858768 0.797820
O O9 0.750000 0.750000 0.788228
O O10 0.784818 0.879519 0.847939
O O11 0.000000 0.500000 0.619853
O O12 0.709361 0.377639 0.050277
O O13 0.813072 0.500000 0.000000
O O14 0.000000 0.360264 0.000000
O O15 0.250000 0.250000 0.102796
O O16 0.000000 0.369979 0.099699
#
# Coordination Sequence:
#
# PCOD9494529 Si02
#       6
#    16   8  16   8   8  16
#     4   9  17  30  49  72  97 126 159 194 232 275
#     4   9  18  31  49  71  94 123 159 196 232 274
#     4   9  18  32  50  70  92 120 155 193 233 276
#     4   9  17  30  48  70  95 126 161 194 230 276
#     4   9  17  26  41  67  90 109 140 180 218 259
#     4   9  17  29  46  65  86 113 143 179 221 267
#
# _framework density 21.860061000000002
#
# number of rings (size 3 to 8) (size 9 to 14) (size 15 to 20)
#    0.000    3.000    0.000    0.667    1.556    2.222 
#    0.000    1.111    0.000    5.333    0.000    0.000 
#    0.000    0.000    0.000    0.000    0.000    0.000 
#
# Total GULP energy -200725.206855 kJ/mol
# GULP energy per Si atom -5575.700190 kJ/mol
# Density = 2.181031 g / cm^3
# Si number density = 21.860061 Si / 1000 Ang^3
#
#
#
# Elastic Constant Matrix: (Units=GPa)
#
#
# Indices 1 2 3 4 5 6 
#
# 1 80.7068 -2.7503 11.6107 0.0000 0.0000 0.0000
# 2 -2.7503 130.9117 141.7877 0.0000 0.0000 0.0000
# 3 11.6107 141.7877 246.1108 0.0000 0.0000 0.0000
# 4 0.0000 0.0000 0.0000 38.1052 0.0000 0.0000
# 5 0.0000 0.0000 0.0000 0.0000 6.3459 0.0000
# 6 0.0000 0.0000 0.0000 0.0000 0.0000 13.9759
#
#
#
# Elastic Compliance Matrix: (Units=1/GPa)
#
#
# Indices 1 2 3 4 5 6 
#
# 1 0.012763 0.002447 -0.002012 0.000000 0.000000 0.000000
# 2 0.002447 0.020784 -0.012089 0.000000 0.000000 0.000000
# 3 -0.002012 -0.012089 0.011123 0.000000 0.000000 0.000000
# 4 0.000000 0.000000 0.000000 0.026243 0.000000 0.000000
# 5 0.000000 0.000000 0.000000 0.000000 0.157583 0.000000
# 6 0.000000 0.000000 0.000000 0.000000 0.000000 0.071552
#
#
# Mechanical properties :
#
#
# Convention : Reuss Voigt Hill
#
# Bulk Modulus (GPa) = 46.81168 84.33618 65.57393
# Shear Modulus (GPa) = 15.12965 32.15746 23.64356
#
# Velocity S-wave (km/s) = 2.63366 3.83960 3.29232
# Velocity P-wave (km/s) = 5.54157 7.63679 6.67194
#
# Compressibility (1/GPa) = 0.02136219
#
# Stress axis : x y z
#
# Youngs Moduli (GPa) = 78.34897 48.11439 89.90437
#
# Poissons Ratio (x) = -0.11776 0.18090
# Poissons Ratio (y) = -0.19176 1.08688
# Poissons Ratio (z) = 0.15765 0.58167
#
# Static dielectric constant tensor:
#      x y z
#    x 1.892180 0.000000 0.000000 
#    y 0.000000 1.747450 0.000000 
#    z 0.000000 0.000000 1.821500 
# 
# From -- ./inp_files/67146.got.cif
#   From: 2010.05.17/outbox.cif.g08.bks.cpg/sg65_34_cif.got.tgz:67146.got - 2010.06.03 17:01:31.
