data_PCOD9494622
_publ_section_title
;
Structure prediction by ZEFSAII (Michael W. Deem and Ramdas Pophale) SiO2 
 PCOD9494622
Probable space group: C M M M
;
_chemical_formula_sum "Si O2"
_cell_formula_units_Z 52
_cell_length_a 9.000000
_cell_length_b 27.000000
_cell_length_c 27.000000
_cell_angle_alpha 90.000000
_cell_angle_beta 90.000000
_cell_angle_gamma 90.000000
_cell_volume 6561.000000
_symmetry_space_group_name_H-M "C M M M"
_symmetry_group_IT_number 65
_symmetry_cell_setting 'orthorhombic'
loop_
_space_group_symop_operation_xyz
x,y,z
-x,-y,z
x,-y,-z
-x,y,-z
-x,-y,-z
x,y,-z
-x,y,z
x,-y,z
1/2+x,1/2+y,z
1/2-x,1/2-y,z
1/2+x,1/2-y,-z
1/2-x,1/2+y,-z
1/2-x,1/2-y,-z
1/2+x,1/2+y,-z
1/2-x,1/2+y,z
1/2+x,1/2-y,z
loop_
_atom_site_type_symbol
_atom_site_label
_atom_site_fract_x
_atom_site_fract_y
_atom_site_fract_z
Si Si1 0.175613 0.701517 0.193523
Si Si2 0.678556 0.344350 0.901849
Si Si3 0.177967 0.053676 0.851856
Si Si4 0.322632 0.803925 0.000000
Si Si5 0.324339 0.559815 0.553426
Si Si6 0.175980 0.403326 0.756826
Si Si7 0.822050 0.441934 0.652721
O O1 0.250000 0.750000 0.215880
O O2 0.260575 0.689893 0.142346
O O3 0.196419 0.653404 0.227448
O O4 0.000000 0.708153 0.184652
O O5 0.500000 0.339492 0.906267
O O6 0.718597 0.400251 0.886079
O O7 0.760948 0.330772 0.951682
O O8 0.244243 0.063743 0.797906
O O9 0.000000 0.054295 0.848019
O O10 0.226094 0.000000 0.870536
O O11 0.250000 0.750000 0.000000
O O12 0.500000 0.800834 0.000000
O O13 0.269243 0.578115 0.500000
O O14 0.500000 0.568887 0.556472
O O15 0.304637 0.500000 0.553261
O O16 0.244477 0.578644 0.602107
O O17 0.229977 0.414537 0.701914
O O18 0.000000 0.414375 0.758860
O O19 0.781808 0.500000 0.657657
O O20 0.000000 0.439191 0.649930
#
# Coordination Sequence:
#
# PCOD9494622 Si02
#       7
#    16  16  16   8  16  16  16
#     4  10  19  32  49  68  91 118 147 179 219 264
#     4  10  20  35  53  73  96 120 148 180 216 259
#     4   9  18  32  50  71  94 121 152 183 214 252
#     4  12  24  38  55  74  95 117 146 183 225 268
#     4   8  14  24  36  51  75 109 146 180 214 252
#     4   9  18  30  44  64  90 119 149 182 219 261
#     4   9  16  25  38  58  84 113 145 179 213 250
#
# _framework density 7.9256209999999996
#
# number of rings (size 3 to 8) (size 9 to 14) (size 15 to 20)
#    0.000    2.615    0.000    3.000    0.000    3.077 
#    0.000    3.462    0.000    2.308    0.000    0.000 
#    0.000    0.615    0.000    1.385    0.000    2.462 
#
# Total GULP energy -289676.558554 kJ/mol
# GULP energy per Si atom -5570.703049 kJ/mol
# Density = 0.790758 g / cm^3
# Si number density = 7.925621 Si / 1000 Ang^3
#
#
#
# Elastic Constant Matrix: (Units=GPa)
#
#
# Indices 1 2 3 4 5 6 
#
# 1 35.3416 31.6740 44.9037 0.0000 0.0000 0.0000
# 2 31.6740 65.7631 38.3700 0.0000 0.0000 0.0000
# 3 44.9037 38.3700 136.0629 0.0000 0.0000 0.0000
# 4 0.0000 0.0000 0.0000 -0.4517 0.0000 0.0000
# 5 0.0000 0.0000 0.0000 0.0000 26.4364 0.0000
# 6 0.0000 0.0000 0.0000 0.0000 0.0000 14.8548
#
#
#
# Elastic Compliance Matrix: (Units=1/GPa)
#
#
# Indices 1 2 3 4 5 6 
#
# 1 0.071714 -0.024814 -0.016670 0.000000 0.000000 0.000000
# 2 -0.024814 0.026787 0.000635 0.000000 0.000000 0.000000
# 3 -0.016670 0.000635 0.012672 0.000000 0.000000 0.000000
# 4 0.000000 0.000000 0.000000 -2.214091 0.000000 0.000000
# 5 0.000000 0.000000 0.000000 0.000000 0.037827 0.000000
# 6 0.000000 0.000000 0.000000 0.000000 0.000000 0.067318
#
#
# Mechanical properties :
#
#
# Convention : Reuss Voigt Hill
#
# Bulk Modulus (GPa) = 33.92628 51.89591 42.91109
# Shear Modulus (GPa) = -2.62295 16.31589 6.84647
#
# Velocity S-wave (km/s) = -1.28776 3.21177 2.08052
# Velocity P-wave (km/s) = 4.38615 6.82381 5.73597
#
# Compressibility (1/GPa) = 0.02947568
#
# Stress axis : x y z
#
# Youngs Moduli (GPa) = 13.94425 37.33158 78.91597
#
# Poissons Ratio (x) = 0.92636 1.31549
# Poissons Ratio (y) = 0.34602 -0.05013
# Poissons Ratio (z) = 0.23244 -0.02372
#
# Static dielectric constant tensor:
#      x y z
#    x 1.528410 0.000000 0.000000 
#    y 0.000000 1.565420 0.000000 
#    z 0.000000 0.000000 1.536430 
# 
# From -- ./inp_files/73779.got.cif
#   From: 2010.05.17/outbox.ucp.g08.bks.cvg/sg65_37_cif.got.tgz:73779.got - 2010.06.11 16:39:57.
