data_PCOD9494098
_publ_section_title
;
Structure prediction by ZEFSAII (Michael W. Deem and Ramdas Pophale) SiO2 
 PCOD9494098
Probable space group: C M M M
;
_chemical_formula_sum "Si O2"
_cell_formula_units_Z 56
_cell_length_a 14.816596
_cell_length_b 23.597717
_cell_length_c 7.513457
_cell_angle_alpha 90.000000
_cell_angle_beta 90.000000
_cell_angle_gamma 90.000000
_cell_volume 2626.988871
_symmetry_space_group_name_H-M "C M M M"
_symmetry_group_IT_number 65
_symmetry_cell_setting 'orthorhombic'
loop_
_space_group_symop_operation_xyz
x,y,z
-x,-y,z
x,-y,-z
-x,y,-z
-x,-y,-z
x,y,-z
-x,y,z
x,-y,z
1/2+x,1/2+y,z
1/2-x,1/2-y,z
1/2+x,1/2-y,-z
1/2-x,1/2+y,-z
1/2-x,1/2-y,-z
1/2+x,1/2+y,-z
1/2-x,1/2+y,z
1/2+x,1/2-y,z
loop_
_atom_site_type_symbol
_atom_site_label
_atom_site_fract_x
_atom_site_fract_y
_atom_site_fract_z
Si Si1 0.295094 0.115509 0.787900
Si Si2 0.601900 0.000000 0.711514
Si Si3 0.144637 0.267904 0.797879
Si Si4 0.597005 0.646066 0.218243
O O1 0.351892 0.169488 0.715452
O O2 0.191026 0.117549 0.723321
O O3 0.343909 0.056385 0.761387
O O4 0.289980 0.125752 0.000000
O O5 0.500000 0.000000 0.785576
O O6 0.595387 0.000000 0.500000
O O7 0.250000 0.250000 0.807180
O O8 0.100229 0.211725 0.719873
O O9 0.109161 0.272941 0.000000
O O10 0.500000 0.620971 0.270828
O O11 0.598833 0.646648 0.000000
#
# Coordination Sequence:
#
# PCOD9494098 Si02
#       4
#    16   8  16  16
#     4   9  17  31  52  76  99 125 162 202 233 272
#     4  11  25  41  52  63  86 124 165 205 252 295
#     4   7  11  21  40  70 104 129 149 181 227 273
#     4   8  13  23  44  77 111 133 149 181 235 290
#
# _framework density 21.317184000000001
#
# number of rings (size 3 to 8) (size 9 to 14) (size 15 to 20)
#    0.000    3.571    0.000    3.857    0.000    2.286 
#    0.000    3.571    0.000   12.857    0.000    0.000 
#    0.000    0.000    0.000    0.000    0.000    0.000 
#
# Total GULP energy -155870.343909 kJ/mol
# GULP energy per Si atom -5566.797997 kJ/mol
# Density = 2.126867 g / cm^3
# Si number density = 21.317184 Si / 1000 Ang^3
#
#
#
# Elastic Constant Matrix: (Units=GPa)
#
#
# Indices 1 2 3 4 5 6 
#
# 1 163.1923 72.8590 1.7740 0.0000 0.0000 0.0000
# 2 72.8590 144.5188 -5.4509 0.0000 0.0000 0.0000
# 3 1.7740 -5.4509 53.0512 0.0000 0.0000 0.0000
# 4 0.0000 0.0000 0.0000 1033.4581 0.0000 0.0000
# 5 0.0000 0.0000 0.0000 0.0000 4.2446 0.0000
# 6 0.0000 0.0000 0.0000 0.0000 0.0000 29.6341
#
#
#
# Elastic Compliance Matrix: (Units=1/GPa)
#
#
# Indices 1 2 3 4 5 6 
#
# 1 0.007932 -0.004024 -0.000679 0.000000 0.000000 0.000000
# 2 -0.004024 0.008988 0.001058 0.000000 0.000000 0.000000
# 3 -0.000679 0.001058 0.018981 0.000000 0.000000 0.000000
# 4 0.000000 0.000000 0.000000 0.000968 0.000000 0.000000
# 5 0.000000 0.000000 0.000000 0.000000 0.235595 0.000000
# 6 0.000000 0.000000 0.000000 0.000000 0.000000 0.033745
#
#
# Mechanical properties :
#
#
# Convention : Reuss Voigt Hill
#
# Bulk Modulus (GPa) = 34.95137 55.45850 45.20494
# Shear Modulus (GPa) = 15.47813 232.90604 124.19209
#
# Velocity S-wave (km/s) = 2.69752 10.46397 7.64105
# Velocity P-wave (km/s) = 5.11211 13.11736 9.95487
#
# Compressibility (1/GPa) = 0.02861118
#
# Stress axis : x y z
#
# Youngs Moduli (GPa) = 126.07358 111.25522 52.68394
#
# Poissons Ratio (x) = 0.44774 0.03576
# Poissons Ratio (y) = 0.50738 -0.05575
# Poissons Ratio (z) = 0.08557 -0.11772
#
# Static dielectric constant tensor:
#      x y z
#    x 1.794760 0.000000 0.000000 
#    y 0.000000 1.798910 0.000000 
#    z 0.000000 0.000000 1.831570 
# 
# From -- ./inp_files/6549.got.cif
#   From: 2010.05.17/outbox.cif.g08.bks.cpg/sg65_4_cif.got.tgz:6549.got - 2010.06.03 17:01:31.
