data_PCOD9494091
_publ_section_title
;
Structure prediction by ZEFSAII (Michael W. Deem and Ramdas Pophale) SiO2 
 PCOD9494091
Probable space group: C M M M
;
_chemical_formula_sum "Si O2"
_cell_formula_units_Z 64
_cell_length_a 16.098433
_cell_length_b 25.759949
_cell_length_c 7.644479
_cell_angle_alpha 90.000000
_cell_angle_beta 90.000000
_cell_angle_gamma 90.000000
_cell_volume 3170.125790
_symmetry_space_group_name_H-M "C M M M"
_symmetry_group_IT_number 65
_symmetry_cell_setting 'orthorhombic'
loop_
_space_group_symop_operation_xyz
x,y,z
-x,-y,z
x,-y,-z
-x,y,-z
-x,-y,-z
x,y,-z
-x,y,z
x,-y,z
1/2+x,1/2+y,z
1/2-x,1/2-y,z
1/2+x,1/2-y,-z
1/2-x,1/2+y,-z
1/2-x,1/2-y,-z
1/2+x,1/2+y,-z
1/2-x,1/2+y,z
1/2+x,1/2-y,z
loop_
_atom_site_type_symbol
_atom_site_label
_atom_site_fract_x
_atom_site_fract_y
_atom_site_fract_z
Si Si1 0.851076 0.753568 0.295261
Si Si2 0.000000 0.558805 0.793532
Si Si3 0.665976 0.632594 0.287640
Si Si4 0.359930 0.858360 0.290842
Si Si5 0.098528 0.057826 0.000000
O O1 0.874576 0.755039 0.500000
O O2 0.750000 0.750000 0.288269
O O3 0.870116 0.811135 0.229119
O O4 0.884052 0.699145 0.219799
O O5 0.079527 0.594358 0.749604
O O6 0.000000 0.500000 0.717637
O O7 0.000000 0.553176 0.000000
O O8 0.657719 0.627911 0.500000
O O9 0.764309 0.631744 0.243391
O O10 0.625251 0.588146 0.174042
O O11 0.360540 0.852680 0.500000
O O12 0.000000 0.054883 0.000000
O O13 0.134751 0.000000 0.000000
#
# Coordination Sequence:
#
# PCOD9494091 Si02
#       5
#    16   8  16  16   8
#     4   7  12  29  57  86 115 143 179 236 298 348
#     4  11  25  39  49  75 125 171 203 242 285 332
#     4   9  19  39  66  91 116 151 195 243 297 356
#     4   9  18  36  61  86 114 153 198 242 290 344
#     4  11  26  44  59  83 119 153 190 244 301 355
#
# _framework density 20.188472000000001
#
# number of rings (size 3 to 8) (size 9 to 14) (size 15 to 20)
#    0.000    3.000    0.000    3.375    1.750    3.000 
#    4.500    5.625    0.000    0.000    0.000    0.000 
#    0.000    0.000    0.000    0.000    0.000    0.000 
#
# Total GULP energy -178253.439455 kJ/mol
# GULP energy per Si atom -5570.419983 kJ/mol
# Density = 2.014252 g / cm^3
# Si number density = 20.188472 Si / 1000 Ang^3
#
#
#
# Elastic Constant Matrix: (Units=GPa)
#
#
# Indices 1 2 3 4 5 6 
#
# 1 53.3725 65.2418 20.1923 0.0000 0.0000 0.0000
# 2 65.2418 221.0463 39.6523 0.0000 0.0000 0.0000
# 3 20.1923 39.6523 51.5205 0.0000 0.0000 0.0000
# 4 0.0000 0.0000 0.0000 21.8522 0.0000 0.0000
# 5 0.0000 0.0000 0.0000 0.0000 19.0771 0.0000
# 6 0.0000 0.0000 0.0000 0.0000 0.0000 34.1803
#
#
#
# Elastic Compliance Matrix: (Units=1/GPa)
#
#
# Indices 1 2 3 4 5 6 
#
# 1 0.030775 -0.008028 -0.005883 0.000000 0.000000 0.000000
# 2 -0.008028 0.007343 -0.002505 0.000000 0.000000 0.000000
# 3 -0.005883 -0.002505 0.023643 0.000000 0.000000 0.000000
# 4 0.000000 0.000000 0.000000 0.045762 0.000000 0.000000
# 5 0.000000 0.000000 0.000000 0.000000 0.052419 0.000000
# 6 0.000000 0.000000 0.000000 0.000000 0.000000 0.029257
#
#
# Mechanical properties :
#
#
# Convention : Reuss Voigt Hill
#
# Bulk Modulus (GPa) = 34.56673 64.01245 49.28959
# Shear Modulus (GPa) = 21.58207 28.41212 24.99709
#
# Velocity S-wave (km/s) = 3.27315 3.75553 3.52260
# Velocity P-wave (km/s) = 5.60748 7.11207 6.40412
#
# Compressibility (1/GPa) = 0.02892955
#
# Stress axis : x y z
#
# Youngs Moduli (GPa) = 32.49363 136.18905 42.29525
#
# Poissons Ratio (x) = 1.09332 0.24882
# Poissons Ratio (y) = 0.26086 0.10594
# Poissons Ratio (z) = 0.19116 0.34114
#
# Static dielectric constant tensor:
#      x y z
#    x 4.810840 0.000000 0.000000 
#    y 0.000000 1.781620 0.000000 
#    z 0.000000 0.000000 1.721220 
# 
# From -- ./inp_files/9137.got.cif
#   From: 2010.05.17/outbox.cif.g08.bks.cpg/sg65_5_cif.got.tgz:9137.got - 2010.06.03 17:01:31.
