data_PCOD9494284
_publ_section_title
;
Structure prediction by ZEFSAII (Michael W. Deem and Ramdas Pophale) SiO2 
 PCOD9494284
Probable space group: C M M M
;
_chemical_formula_sum "Si O2"
_cell_formula_units_Z 72
_cell_length_a 14.577526
_cell_length_b 7.401959
_cell_length_c 27.405035
_cell_angle_alpha 90.000000
_cell_angle_beta 90.000000
_cell_angle_gamma 90.000000
_cell_volume 2957.064932
_symmetry_space_group_name_H-M "C M M M"
_symmetry_group_IT_number 65
_symmetry_cell_setting 'orthorhombic'
loop_
_space_group_symop_operation_xyz
x,y,z
-x,-y,z
x,-y,-z
-x,y,-z
-x,-y,-z
x,y,-z
-x,y,z
x,-y,z
1/2+x,1/2+y,z
1/2-x,1/2-y,z
1/2+x,1/2-y,-z
1/2-x,1/2+y,-z
1/2-x,1/2-y,-z
1/2+x,1/2+y,-z
1/2-x,1/2+y,z
1/2+x,1/2-y,z
loop_
_atom_site_type_symbol
_atom_site_label
_atom_site_fract_x
_atom_site_fract_y
_atom_site_fract_z
Si Si1 0.140076 0.283472 0.342304
Si Si2 0.387084 0.500000 0.944121
Si Si3 0.640129 0.783595 0.552570
Si Si4 0.392180 0.798741 0.129627
Si Si5 0.641712 0.784818 0.237404
O O1 0.125624 0.500000 0.342142
O O2 0.250000 0.250000 0.342551
O O3 0.106123 0.214881 0.394871
O O4 0.105836 0.215267 0.289708
O O5 0.500000 0.500000 0.944382
O O6 0.355813 0.328249 0.912678
O O7 0.356950 0.500000 0.000000
O O8 0.606235 0.714823 0.500000
O O9 0.750000 0.750000 0.552541
O O10 0.625291 0.000000 0.552595
O O11 0.500000 0.816839 0.119915
O O12 0.386727 0.717518 0.184240
O O13 0.350583 0.000000 0.130279
O O14 0.750000 0.750000 0.239062
O O15 0.621899 0.000000 0.236685
#
# Coordination Sequence:
#
# PCOD9494284 Si02
#       5
#    16   8  16  16  16
#     4   8  13  21  31  47  73  99 134 173 207 254
#     4   9  18  32  52  76  96 118 148 182 222 262
#     4   8  12  17  26  40  61  93 128 164 206 249
#     4   9  18  32  49  71  96 120 149 185 221 261
#     4   9  17  27  42  64  86 117 149 180 222 265
#
# _framework density 24.348469000000001
#
# number of rings (size 3 to 8) (size 9 to 14) (size 15 to 20)
#    0.000    3.444    0.000    0.000    1.556    0.444 
#    0.000    2.222    0.000    0.667    0.000    0.000 
#    0.000    0.889    0.000   12.444    0.000   10.444 
#
# Total GULP energy -200657.706070 kJ/mol
# GULP energy per Si atom -5573.825169 kJ/mol
# Density = 2.429305 g / cm^3
# Si number density = 24.348469 Si / 1000 Ang^3
#
#
#
# Elastic Constant Matrix: (Units=GPa)
#
#
# Indices 1 2 3 4 5 6 
#
# 1 74.2025 -2.2721 7.6128 0.0000 0.0000 0.0000
# 2 -2.2721 98.9868 75.1109 0.0000 0.0000 0.0000
# 3 7.6128 75.1109 334.4482 0.0000 0.0000 0.0000
# 4 0.0000 0.0000 0.0000 -321.0654 0.0000 0.0000
# 5 0.0000 0.0000 0.0000 0.0000 27.2880 0.0000
# 6 0.0000 0.0000 0.0000 0.0000 0.0000 -8.7082
#
#
#
# Elastic Compliance Matrix: (Units=1/GPa)
#
#
# Indices 1 2 3 4 5 6 
#
# 1 0.013544 0.000657 -0.000456 0.000000 0.000000 0.000000
# 2 0.000657 0.012209 -0.002757 0.000000 0.000000 0.000000
# 3 -0.000456 -0.002757 0.003620 0.000000 0.000000 0.000000
# 4 0.000000 0.000000 0.000000 -0.003115 0.000000 0.000000
# 5 0.000000 0.000000 0.000000 0.000000 0.036646 0.000000
# 6 0.000000 0.000000 0.000000 0.000000 0.000000 -0.114835
#
#
# Mechanical properties :
#
#
# Convention : Reuss Voigt Hill
#
# Bulk Modulus (GPa) = 41.21940 74.28230 57.75085
# Shear Modulus (GPa) = -129.09224 -32.01806 -80.55515
#
# Velocity S-wave (km/s) = -7.28929 -3.63022 -5.75813
# Velocity P-wave (km/s) = 7.34025 3.60596 4.52086
#
# Compressibility (1/GPa) = 0.02426042
#
# Stress axis : x y z
#
# Youngs Moduli (GPa) = 73.83610 81.90406 276.27850
#
# Poissons Ratio (x) = -0.05379 0.12592
# Poissons Ratio (y) = -0.04849 0.76169
# Poissons Ratio (z) = 0.03365 0.22581
#
# Static dielectric constant tensor:
#      x y z
#    x 1.959130 0.000000 0.000000 
#    y 0.000000 -0.634060 0.000000 
#    z 0.000000 0.000000 1.965880 
# 
# From -- ./inp_files/67052.got.cif
#   From: 2010.05.17/outbox.cif.g08.bks.cpg/sg65_34_cif.got.tgz:67052.got - 2010.06.03 17:01:31.
