data_PCOD9494334
_publ_section_title
;
Structure prediction by ZEFSAII (Michael W. Deem and Ramdas Pophale) SiO2 
 PCOD9494334
Probable space group: C M M M
;
_chemical_formula_sum "Si O2"
_cell_formula_units_Z 96
_cell_length_a 7.341253
_cell_length_b 30.024353
_cell_length_c 21.384040
_cell_angle_alpha 90.000000
_cell_angle_beta 90.000000
_cell_angle_gamma 90.000000
_cell_volume 4713.392506
_symmetry_space_group_name_H-M "C M M M"
_symmetry_group_IT_number 65
_symmetry_cell_setting 'orthorhombic'
loop_
_space_group_symop_operation_xyz
x,y,z
-x,-y,z
x,-y,-z
-x,y,-z
-x,-y,-z
x,y,-z
-x,y,z
x,-y,z
1/2+x,1/2+y,z
1/2-x,1/2-y,z
1/2+x,1/2-y,-z
1/2-x,1/2+y,-z
1/2-x,1/2-y,-z
1/2+x,1/2+y,-z
1/2-x,1/2+y,z
1/2+x,1/2-y,z
loop_
_atom_site_type_symbol
_atom_site_label
_atom_site_fract_x
_atom_site_fract_y
_atom_site_fract_z
Si Si1 0.777944 0.448789 0.309853
Si Si2 0.722474 0.892173 0.188370
Si Si3 0.217133 0.700597 0.617533
Si Si4 0.277607 0.106263 0.431188
Si Si5 0.778180 0.448886 0.070806
Si Si6 0.717013 0.200565 0.760720
O O1 0.719763 0.500000 0.307388
O O2 0.722796 0.421228 0.248639
O O3 0.719293 0.423987 0.373106
O O4 0.000000 0.448610 0.310014
O O5 0.500000 0.892452 0.187093
O O6 0.783398 0.915491 0.124617
O O7 0.783072 0.841490 0.199876
O O8 0.250000 0.750000 0.591416
O O9 0.281606 0.657303 0.580686
O O10 0.288055 0.699207 0.689144
O O11 0.000000 0.695992 0.620983
O O12 0.220033 0.091155 0.500000
O O13 0.500000 0.105713 0.430730
O O14 0.724443 0.500000 0.084435
O O15 0.000000 0.448491 0.071061
O O16 0.721181 0.437858 0.000000
O O17 0.500000 0.195352 0.756043
O O18 0.750000 0.250000 0.786209
#
# Coordination Sequence:
#
# PCOD9494334 Si02
#       6
#    16  16  16  16  16  16
#     4   9  15  22  33  50  72  99 130 159 190 234
#     4   9  14  22  36  53  75 103 131 160 195 233
#     4   9  16  27  41  57  78 103 131 164 201 239
#     4   9  16  25  35  49  73 102 128 158 198 237
#     4   8  13  20  31  51  79 107 132 158 192 235
#     4   9  16  26  41  59  80 105 134 166 199 236
#
# _framework density 20.367495000000002
#
# number of rings (size 3 to 8) (size 9 to 14) (size 15 to 20)
#    0.000    3.167    1.667    1.000    0.000    2.667 
#    0.000    1.667    0.000    0.500    0.000    0.000 
#    0.000    4.667    0.000    3.333    0.000    3.333 
#
# Total GULP energy -267842.157182 kJ/mol
# GULP energy per Si atom -5580.044941 kJ/mol
# Density = 2.032114 g / cm^3
# Si number density = 20.367495 Si / 1000 Ang^3
#
#
#
# Elastic Constant Matrix: (Units=GPa)
#
#
# Indices 1 2 3 4 5 6 
#
# 1 76.3461 -0.0023 2.7804 0.0000 0.0000 0.0000
# 2 -0.0023 170.1615 99.4871 0.0000 0.0000 0.0000
# 3 2.7804 99.4871 146.3242 0.0000 0.0000 0.0000
# 4 0.0000 0.0000 0.0000 24.5425 0.0000 0.0000
# 5 0.0000 0.0000 0.0000 0.0000 -6.1996 0.0000
# 6 0.0000 0.0000 0.0000 0.0000 0.0000 7.6438
#
#
#
# Elastic Compliance Matrix: (Units=1/GPa)
#
#
# Indices 1 2 3 4 5 6 
#
# 1 0.013113 0.000242 -0.000414 0.000000 0.000000 0.000000
# 2 0.000242 0.009759 -0.006640 0.000000 0.000000 0.000000
# 3 -0.000414 -0.006640 0.011356 0.000000 0.000000 0.000000
# 4 0.000000 0.000000 0.000000 0.040746 0.000000 0.000000
# 5 0.000000 0.000000 0.000000 0.000000 -0.161301 0.000000
# 6 0.000000 0.000000 0.000000 0.000000 0.000000 0.130825
#
#
# Mechanical properties :
#
#
# Convention : Reuss Voigt Hill
#
# Bulk Modulus (GPa) = 48.53010 66.37356 57.45183
# Shear Modulus (GPa) = 76.93596 24.56846 50.75221
#
# Velocity S-wave (km/s) = 6.15271 3.47689 4.99723
# Velocity P-wave (km/s) = 8.62285 6.98406 7.84636
#
# Compressibility (1/GPa) = 0.02060577
#
# Stress axis : x y z
#
# Youngs Moduli (GPa) = 76.25828 102.47240 88.05642
#
# Poissons Ratio (x) = -0.02481 0.03644
# Poissons Ratio (y) = -0.01846 0.58466
# Poissons Ratio (z) = 0.03155 0.68038
#
# Static dielectric constant tensor:
#      x y z
#    x 1.841700 0.000000 0.000000 
#    y 0.000000 1.710160 0.000000 
#    z 0.000000 0.000000 1.690550 
# 
# From -- ./inp_files/60174.got.cif
#   From: 2010.05.17/outbox.cif.g08.bks.cpg/sg65_31_cif.got.tgz:60174.got - 2010.06.03 17:01:31.
