data_PCOD9494769
_publ_section_title
;
Structure prediction by ZEFSAII (Michael W. Deem and Ramdas Pophale) SiO2 
 PCOD9494769
Probable space group: C M M M
;
_chemical_formula_sum "Si O2"
_cell_formula_units_Z 40
_cell_length_a 15.000000
_cell_length_b 24.000000
_cell_length_c 12.000000
_cell_angle_alpha 90.000000
_cell_angle_beta 90.000000
_cell_angle_gamma 90.000000
_cell_volume 4320.000000
_symmetry_space_group_name_H-M "C M M M"
_symmetry_group_IT_number 65
_symmetry_cell_setting 'orthorhombic'
loop_
_space_group_symop_operation_xyz
x,y,z
-x,-y,z
x,-y,-z
-x,y,-z
-x,-y,-z
x,y,-z
-x,y,z
x,-y,z
1/2+x,1/2+y,z
1/2-x,1/2-y,z
1/2+x,1/2-y,-z
1/2-x,1/2+y,-z
1/2-x,1/2-y,-z
1/2+x,1/2+y,-z
1/2-x,1/2+y,z
1/2+x,1/2-y,z
loop_
_atom_site_type_symbol
_atom_site_label
_atom_site_fract_x
_atom_site_fract_y
_atom_site_fract_z
Si Si1 0.288081 0.812860 0.500000
Si Si2 0.101193 0.877852 0.500000
Si Si3 0.607321 0.275613 0.870962
Si Si4 0.103516 0.105071 0.758996
Si Si5 0.284542 0.065219 0.133963
Si Si6 0.390159 0.836620 0.265073
O O1 0.250000 0.750000 0.500000
O O2 0.194468 0.845590 0.500000
O O3 0.346016 0.827154 0.388164
O O4 0.104563 0.905036 0.375380
O O5 0.000000 0.850633 0.500000
O O6 0.500000 0.272830 0.878666
O O7 0.624633 0.330206 0.794210
O O8 0.634233 0.218334 0.809202
O O9 0.640692 0.280822 0.000000
O O10 0.182859 0.072281 0.820509
O O11 0.000000 0.094236 0.794932
O O12 0.346247 0.109360 0.203059
O O13 0.310956 0.000000 0.150017
O O14 0.287866 0.076877 0.000000
O O15 0.500000 0.840577 0.271385
#
# Coordination Sequence:
#
# PCOD9494769 Si02
#       6
#     8   8  16  16  16  16
#     4  12  23  39  66  99 135 170 207 255 329 396
#     4  10  20  37  62  89 123 163 199 245 313 387
#     4   9  18  33  57  89 124 163 205 254 320 394
#     4  10  20  38  63  94 129 165 209 266 335 404
#     4  11  25  43  65  94 128 174 228 277 328 384
#     4  11  24  42  64  95 132 171 219 270 321 384
#
# _framework density 9.2592590000000001
#
# number of rings (size 3 to 8) (size 9 to 14) (size 15 to 20)
#    0.000    1.600    2.000    2.700    0.000    5.600 
#    0.000    6.000    0.000    3.000    0.000    0.000 
#    0.000    0.000    0.000    0.000    0.000    0.000 
#
# Total GULP energy -223031.738698 kJ/mol
# GULP energy per Si atom -5575.793467 kJ/mol
# Density = 0.923818 g / cm^3
# Si number density = 9.259259 Si / 1000 Ang^3
#
#
#
# Elastic Constant Matrix: (Units=GPa)
#
#
# Indices 1 2 3 4 5 6 
#
# 1 106.1620 20.4375 32.6175 0.0000 0.0000 0.0000
# 2 20.4375 91.5277 44.3724 0.0000 0.0000 0.0000
# 3 32.6175 44.3724 164.4772 0.0000 0.0000 0.0000
# 4 0.0000 0.0000 0.0000 25.4310 0.0000 0.0000
# 5 0.0000 0.0000 0.0000 0.0000 37.1834 0.0000
# 6 0.0000 0.0000 0.0000 0.0000 0.0000 31.6867
#
#
#
# Elastic Compliance Matrix: (Units=1/GPa)
#
#
# Indices 1 2 3 4 5 6 
#
# 1 0.010205 -0.001493 -0.001621 0.000000 0.000000 0.000000
# 2 -0.001493 0.012788 -0.003154 0.000000 0.000000 0.000000
# 3 -0.001621 -0.003154 0.007252 0.000000 0.000000 0.000000
# 4 0.000000 0.000000 0.000000 0.039322 0.000000 0.000000
# 5 0.000000 0.000000 0.000000 0.000000 0.026894 0.000000
# 6 0.000000 0.000000 0.000000 0.000000 0.000000 0.031559
#
#
# Mechanical properties :
#
#
# Convention : Reuss Voigt Hill
#
# Bulk Modulus (GPa) = 56.46625 61.89131 59.17878
# Shear Modulus (GPa) = 34.13934 36.50953 35.32443
#
# Velocity S-wave (km/s) = 4.29829 4.44499 4.37225
# Velocity P-wave (km/s) = 7.42911 7.73549 7.58385
#
# Compressibility (1/GPa) = 0.01770969
#
# Stress axis : x y z
#
# Youngs Moduli (GPa) = 97.99112 78.19839 137.88954
#
# Poissons Ratio (x) = 0.11674 0.22352
# Poissons Ratio (y) = 0.14629 0.43489
# Poissons Ratio (z) = 0.15885 0.24663
#
# Static dielectric constant tensor:
#      x y z
#    x 1.658170 0.000000 0.000000 
#    y 0.000000 1.657490 0.000000 
#    z 0.000000 0.000000 1.649580 
# 
# From -- ./inp_files/24706.got.cif
#   From: 2010.05.17/outbox.ucp.g08.bks.cvg/sg65_13_cif.got.tgz:24706.got - 2010.06.11 16:39:57.
