data_PCOD9494373
_publ_section_title
;
Structure prediction by ZEFSAII (Michael W. Deem and Ramdas Pophale) SiO2 
 PCOD9494373
Probable space group: C M M M
;
_chemical_formula_sum "Si O2"
_cell_formula_units_Z 88
_cell_length_a 14.433800
_cell_length_b 8.149832
_cell_length_c 31.894043
_cell_angle_alpha 90.000000
_cell_angle_beta 90.000000
_cell_angle_gamma 90.000000
_cell_volume 3751.793399
_symmetry_space_group_name_H-M "C M M M"
_symmetry_group_IT_number 65
_symmetry_cell_setting 'orthorhombic'
loop_
_space_group_symop_operation_xyz
x,y,z
-x,-y,z
x,-y,-z
-x,y,-z
-x,-y,-z
x,y,-z
-x,y,z
x,-y,z
1/2+x,1/2+y,z
1/2-x,1/2-y,z
1/2+x,1/2-y,-z
1/2-x,1/2+y,-z
1/2-x,1/2-y,-z
1/2+x,1/2+y,-z
1/2-x,1/2+y,z
1/2+x,1/2-y,z
loop_
_atom_site_type_symbol
_atom_site_label
_atom_site_fract_x
_atom_site_fract_y
_atom_site_fract_z
Si Si1 0.386300 0.000000 0.951658
Si Si2 0.386795 0.677228 0.098091
Si Si3 0.390626 0.316260 0.272305
Si Si4 0.141835 0.198813 0.545216
Si Si5 0.112976 0.316939 0.815669
Si Si6 0.356260 0.301654 0.364630
O O1 0.356201 0.835194 0.927855
O O2 0.500000 0.000000 0.950625
O O3 0.358018 0.000000 0.000000
O O4 0.500000 0.679307 0.097252
O O5 0.356852 0.500000 0.081734
O O6 0.359237 0.698004 0.146798
O O7 0.500000 0.332931 0.265449
O O8 0.349223 0.500000 0.273713
O O9 0.355309 0.224959 0.231233
O O10 0.383893 0.239147 0.318630
O O11 0.103976 0.255255 0.500000
O O12 0.250000 0.250000 0.544857
O O13 0.103422 0.254902 0.590431
O O14 0.135981 0.000000 0.545461
O O15 0.141865 0.500000 0.826949
O O16 0.000000 0.315687 0.815174
O O17 0.369524 0.500000 0.363379
O O18 0.250000 0.250000 0.367323
#
# Coordination Sequence:
#
# PCOD9494373 Si02
#       6
#     8  16  16  16  16  16
#     4   9  16  24  32  46  70  98 134 178 217 259
#     4   9  15  23  35  49  68  97 132 173 218 259
#     4   9  17  28  41  58  80 107 139 174 212 256
#     4   8  13  22  37  56  76  99 130 167 205 245
#     4   9  15  24  38  55  74  96 129 174 214 248
#     4   9  17  28  42  60  83 109 136 171 212 259
#
# _framework density 23.455449999999999
#
# number of rings (size 3 to 8) (size 9 to 14) (size 15 to 20)
#    0.000    3.182    0.909    0.545    0.000    3.273 
#    0.000    1.818    0.000    0.545    0.000    3.818 
#    0.000    0.000    0.000   34.000    0.000   19.455 
#
# Total GULP energy -245247.765175 kJ/mol
# GULP energy per Si atom -5573.812845 kJ/mol
# Density = 2.340206 g / cm^3
# Si number density = 23.455450 Si / 1000 Ang^3
#
#
#
# Elastic Constant Matrix: (Units=GPa)
#
#
# Indices 1 2 3 4 5 6 
#
# 1 66.5870 5.2908 -0.0687 0.0000 0.0000 0.0000
# 2 5.2908 99.2450 77.5922 0.0000 0.0000 0.0000
# 3 -0.0687 77.5922 204.5590 0.0000 0.0000 0.0000
# 4 0.0000 0.0000 0.0000 14.2193 0.0000 0.0000
# 5 0.0000 0.0000 0.0000 0.0000 8.1577 0.0000
# 6 0.0000 0.0000 0.0000 0.0000 0.0000 2.1508
#
#
#
# Elastic Compliance Matrix: (Units=1/GPa)
#
#
# Indices 1 2 3 4 5 6 
#
# 1 0.015110 -0.001151 0.000442 0.000000 0.000000 0.000000
# 2 -0.001151 0.014412 -0.005467 0.000000 0.000000 0.000000
# 3 0.000442 -0.005467 0.006962 0.000000 0.000000 0.000000
# 4 0.000000 0.000000 0.000000 0.070327 0.000000 0.000000
# 5 0.000000 0.000000 0.000000 0.000000 0.122584 0.000000
# 6 0.000000 0.000000 0.000000 0.000000 0.000000 0.464943
#
#
# Mechanical properties :
#
#
# Convention : Reuss Voigt Hill
#
# Bulk Modulus (GPa) = 41.43936 59.55773 50.49855
# Shear Modulus (GPa) = 6.99561 24.07733 15.53647
#
# Velocity S-wave (km/s) = 1.72887 3.20740 2.57647
# Velocity P-wave (km/s) = 4.65735 6.25808 5.51609
#
# Compressibility (1/GPa) = 0.02413165
#
# Stress axis : x y z
#
# Youngs Moduli (GPa) = 66.18204 69.38862 143.62881
#
# Poissons Ratio (x) = 0.07985 -0.06342
# Poissons Ratio (y) = 0.07616 0.78521
# Poissons Ratio (z) = -0.02922 0.37934
#
# Static dielectric constant tensor:
#      x y z
#    x 3.814100 0.000000 0.000000 
#    y 0.000000 1.863190 0.000000 
#    z 0.000000 0.000000 1.918310 
# 
# From -- ./inp_files/78344.got.cif
#   From: 2010.05.17/outbox.cif.g08.bks.cpg/sg65_40_cif.got.tgz:78344.got - 2010.06.03 17:01:31.
