data_PCOD9494894
_publ_section_title
;
Structure prediction by ZEFSAII (Michael W. Deem and Ramdas Pophale) SiO2 
 PCOD9494894
Probable space group: C C C M
;
_chemical_formula_sum "Si O2"
_cell_formula_units_Z 120
_cell_length_a 21.447349
_cell_length_b 15.884122
_cell_length_c 16.567893
_cell_angle_alpha 90.000000
_cell_angle_beta 90.000000
_cell_angle_gamma 90.000000
_cell_volume 5644.222349
_symmetry_space_group_name_H-M "C C C M"
_symmetry_group_IT_number 66
_symmetry_cell_setting 'orthorhombic'
loop_
_space_group_symop_operation_xyz
x,y,z
-x,-y,z
x,-y,1/2-z
-x,y,1/2-z
-x,-y,-z
x,y,-z
-x,y,1/2+z
x,-y,1/2+z
1/2+x,1/2+y,z
1/2-x,1/2-y,z
1/2+x,1/2-y,1/2-z
1/2-x,1/2+y,1/2-z
1/2-x,1/2-y,-z
1/2+x,1/2+y,-z
1/2-x,1/2+y,1/2+z
1/2+x,1/2-y,1/2+z
loop_
_atom_site_type_symbol
_atom_site_label
_atom_site_fract_x
_atom_site_fract_y
_atom_site_fract_z
Si Si1 0.906740 0.864219 0.118499
Si Si2 0.003426 0.734774 0.845681
Si Si3 0.500000 0.500000 0.374283
Si Si4 0.238362 0.151140 0.680576
Si Si5 0.947245 0.568642 0.090646
Si Si6 0.734168 0.653552 0.876387
Si Si7 0.596772 0.361856 0.814139
Si Si8 0.818359 0.492582 0.906806
O O1 0.951772 0.785822 0.103982
O O2 0.835985 0.860688 0.093273
O O3 0.900503 0.862504 0.216755
O O4 0.945988 0.943258 0.087883
O O5 0.982141 0.640864 0.860405
O O6 0.000000 0.750237 0.750000
O O7 0.071142 0.777018 0.858422
O O8 0.456470 0.431167 0.330333
O O9 0.250000 0.250000 0.658271
O O10 0.240643 0.148475 0.778385
O O11 0.167545 0.123614 0.657726
O O12 0.286237 0.083479 0.642735
O O13 0.885181 0.525430 0.125741
O O14 0.000000 0.500000 0.082212
O O15 0.930223 0.599675 0.000000
O O16 0.750000 0.750000 0.898400
O O17 0.776195 0.576743 0.906354
O O18 0.827162 0.464705 0.000000
#
# Coordination Sequence:
#
# PCOD9494894 Si02
#       8
#    16  16   8  16  16  16  16  16
#     4   9  16  28  50  81 116 144 178 227 285 340
#     4   9  18  34  57  88 114 141 192 243 282 339
#     4  10  15  24  46  76 111 148 179 216 273 346
#     4  10  22  38  59  87 120 155 194 245 302 353
#     4  10  23  42  58  75 109 152 189 233 293 346
#     4  10  20  37  60  86 118 153 190 243 302 355
#     4   9  17  29  52  83 114 147 183 232 290 339
#     4  11  24  41  60  85 118 158 204 245 291 359
#
# _framework density 21.260679
#
# number of rings (size 3 to 8) (size 9 to 14) (size 15 to 20)
#    0.000    2.267    0.000    4.000    1.867    4.000 
#    2.400    1.333    0.000    0.000    0.000    4.667 
#    0.000    0.000    0.000    0.000    0.000    0.000 
#
# Total GULP energy -334064.204056 kJ/mol
# GULP energy per Si atom -5567.736734 kJ/mol
# Density = 2.121229 g / cm^3
# Si number density = 21.260679 Si / 1000 Ang^3
#
#
#
# Elastic Constant Matrix: (Units=GPa)
#
#
# Indices 1 2 3 4 5 6 
#
# 1 144.9357 60.7507 25.3150 0.0000 0.0000 0.0000
# 2 60.7507 122.3156 27.0800 0.0000 0.0000 0.0000
# 3 25.3150 27.0800 50.0094 0.0000 0.0000 0.0000
# 4 0.0000 0.0000 0.0000 52.4207 0.0000 0.0000
# 5 0.0000 0.0000 0.0000 0.0000 17.2391 0.0000
# 6 0.0000 0.0000 0.0000 0.0000 0.0000 29.3740
#
#
#
# Elastic Compliance Matrix: (Units=1/GPa)
#
#
# Indices 1 2 3 4 5 6 
#
# 1 0.008963 -0.003917 -0.002416 0.000000 0.000000 0.000000
# 2 -0.003917 0.011001 -0.003974 0.000000 0.000000 0.000000
# 3 -0.002416 -0.003974 0.023371 0.000000 0.000000 0.000000
# 4 0.000000 0.000000 0.000000 0.019076 0.000000 0.000000
# 5 0.000000 0.000000 0.000000 0.000000 0.058008 0.000000
# 6 0.000000 0.000000 0.000000 0.000000 0.000000 0.034044
#
#
# Mechanical properties :
#
#
# Convention : Reuss Voigt Hill
#
# Bulk Modulus (GPa) = 44.01242 60.39466 52.20354
# Shear Modulus (GPa) = 27.37445 33.41443 30.39444
#
# Velocity S-wave (km/s) = 3.59215 3.96871 3.78512
# Velocity P-wave (km/s) = 6.16044 7.03344 6.61137
#
# Compressibility (1/GPa) = 0.02272086
#
# Stress axis : x y z
#
# Youngs Moduli (GPa) = 111.56399 90.90196 42.78733
#
# Poissons Ratio (x) = 0.35606 0.10339
# Poissons Ratio (y) = 0.43699 0.17004
# Poissons Ratio (z) = 0.26958 0.36126
#
# Static dielectric constant tensor:
#      x y z
#    x 1.768350 0.000000 0.000000 
#    y 0.000000 2.262980 0.000000 
#    z 0.000000 0.000000 1.792320 
# 
# From -- ./inp_files/51996.got.cif
#   From: 2010.05.17/outbox.cif.g08.bks.cpg/sg66_26_cif.got.tgz:51996.got - 2010.06.03 17:51:23.
