data_PCOD9494644
_publ_section_title
;
Structure prediction by ZEFSAII (Michael W. Deem and Ramdas Pophale) SiO2 
 PCOD9494644
Probable space group: C M M M
;
_chemical_formula_sum "Si O2"
_cell_formula_units_Z 36
_cell_length_a 15.000000
_cell_length_b 27.000000
_cell_length_c 9.000000
_cell_angle_alpha 90.000000
_cell_angle_beta 90.000000
_cell_angle_gamma 90.000000
_cell_volume 3645.000000
_symmetry_space_group_name_H-M "C M M M"
_symmetry_group_IT_number 65
_symmetry_cell_setting 'orthorhombic'
loop_
_space_group_symop_operation_xyz
x,y,z
-x,-y,z
x,-y,-z
-x,y,-z
-x,-y,-z
x,y,-z
-x,y,z
x,-y,z
1/2+x,1/2+y,z
1/2-x,1/2-y,z
1/2+x,1/2-y,-z
1/2-x,1/2+y,-z
1/2-x,1/2-y,-z
1/2+x,1/2+y,-z
1/2-x,1/2+y,z
1/2+x,1/2-y,z
loop_
_atom_site_type_symbol
_atom_site_label
_atom_site_fract_x
_atom_site_fract_y
_atom_site_fract_z
Si Si1 0.774664 0.909130 0.677239
Si Si2 0.903927 0.163913 0.176695
Si Si3 0.100592 0.379507 0.820420
Si Si4 0.844117 0.730022 0.178444
Si Si5 0.398619 0.500000 0.319149
O O1 0.767326 0.909195 0.500000
O O2 0.823121 0.859923 0.735638
O O3 0.677887 0.912364 0.750001
O O4 0.841568 0.952469 0.725517
O O5 0.905911 0.222676 0.200679
O O6 0.000000 0.142360 0.220672
O O7 0.890455 0.156022 0.000000
O O8 0.120269 0.322733 0.769386
O O9 0.000000 0.393083 0.778749
O O10 0.106702 0.381017 0.000000
O O11 0.750000 0.750000 0.238176
O O12 0.833426 0.723655 0.000000
O O13 0.500000 0.500000 0.264091
O O14 0.402319 0.500000 0.500000
#
# Coordination Sequence:
#
# PCOD9494644 Si02
#       5
#    16  16  16  16   8
#     4  11  22  37  58  81 108 140 180 229 279 330
#     4  10  19  32  53  81 111 143 182 225 267 317
#     4  10  20  36  58  82 111 149 188 224 266 318
#     4   9  15  28  52  78 108 146 187 223 256 308
#     4   9  20  40  62  81 104 140 181 219 270 337
#
# _framework density 9.8765429999999999
#
# number of rings (size 3 to 8) (size 9 to 14) (size 15 to 20)
#    0.000    2.111    2.222    2.000    0.000    4.444 
#    0.000    5.000    0.000   10.000    0.000    0.000 
#    0.000    0.000    0.000    0.000    0.000    0.000 
#
# Total GULP energy -200662.918813 kJ/mol
# GULP energy per Si atom -5573.969967 kJ/mol
# Density = 0.985406 g / cm^3
# Si number density = 9.876543 Si / 1000 Ang^3
#
#
#
# Elastic Constant Matrix: (Units=GPa)
#
#
# Indices 1 2 3 4 5 6 
#
# 1 204.8337 45.8590 43.2948 0.0000 0.0000 0.0000
# 2 45.8590 53.7068 11.5354 0.0000 0.0000 0.0000
# 3 43.2948 11.5354 19.0642 0.0000 0.0000 0.0000
# 4 0.0000 0.0000 0.0000 17.6789 0.0000 0.0000
# 5 0.0000 0.0000 0.0000 0.0000 23.3769 0.0000
# 6 0.0000 0.0000 0.0000 0.0000 0.0000 33.7279
#
#
#
# Elastic Compliance Matrix: (Units=1/GPa)
#
#
# Indices 1 2 3 4 5 6 
#
# 1 0.010179 -0.004283 -0.020526 0.000000 0.000000 0.000000
# 2 -0.004283 0.023203 -0.004312 0.000000 0.000000 0.000000
# 3 -0.020526 -0.004312 0.101677 0.000000 0.000000 0.000000
# 4 0.000000 0.000000 0.000000 0.056565 0.000000 0.000000
# 5 0.000000 0.000000 0.000000 0.000000 0.042777 0.000000
# 6 0.000000 0.000000 0.000000 0.000000 0.000000 0.029649
#
#
# Mechanical properties :
#
#
# Convention : Reuss Voigt Hill
#
# Bulk Modulus (GPa) = 13.01787 53.22032 33.11909
# Shear Modulus (GPa) = 14.37196 26.75110 20.56153
#
# Velocity S-wave (km/s) = 2.70030 3.68404 3.22984
# Velocity P-wave (km/s) = 4.04064 6.71547 5.54185
#
# Compressibility (1/GPa) = 0.07681749
#
# Stress axis : x y z
#
# Youngs Moduli (GPa) = 98.23753 43.09731 9.83502
#
# Poissons Ratio (x) = 0.18460 0.20187
# Poissons Ratio (y) = 0.42079 0.04241
# Poissons Ratio (z) = 2.01639 0.18585
#
# Static dielectric constant tensor:
#      x y z
#    x 1.739000 0.000000 0.000000 
#    y 0.000000 1.735560 0.000000 
#    z 0.000000 0.000000 1.664730 
# 
# From -- ./inp_files/7216.got.cif
#   From: 2010.05.17/outbox.ucp.g08.bks.cvg/sg65_4_cif.got.tgz:7216.got - 2010.06.11 16:39:57.
