data_PCOD9494482
_publ_section_title
;
Structure prediction by ZEFSAII (Michael W. Deem and Ramdas Pophale) SiO2 
 PCOD9494482
Probable space group: C M M M
;
_chemical_formula_sum "Si O2"
_cell_formula_units_Z 56
_cell_length_a 10.669828
_cell_length_b 35.145279
_cell_length_c 7.518837
_cell_angle_alpha 90.000000
_cell_angle_beta 90.000000
_cell_angle_gamma 90.000000
_cell_volume 2819.519378
_symmetry_space_group_name_H-M "C M M M"
_symmetry_group_IT_number 65
_symmetry_cell_setting 'orthorhombic'
loop_
_space_group_symop_operation_xyz
x,y,z
-x,-y,z
x,-y,-z
-x,y,-z
-x,-y,-z
x,y,-z
-x,y,z
x,-y,z
1/2+x,1/2+y,z
1/2-x,1/2-y,z
1/2+x,1/2-y,-z
1/2-x,1/2+y,-z
1/2-x,1/2-y,-z
1/2+x,1/2+y,-z
1/2-x,1/2+y,z
1/2+x,1/2-y,z
loop_
_atom_site_type_symbol
_atom_site_label
_atom_site_fract_x
_atom_site_fract_y
_atom_site_fract_z
Si Si1 0.255626 0.337671 0.282457
Si Si2 0.642276 0.500000 0.789442
Si Si3 0.000000 0.209893 0.283122
Si Si4 0.000000 0.297654 0.717694
Si Si5 0.856514 0.917200 0.288601
O O1 0.253560 0.337391 0.500000
O O2 0.375202 0.312479 0.227849
O O3 0.125621 0.319160 0.224236
O O4 0.279352 0.380997 0.222557
O O5 0.500000 0.500000 0.711850
O O6 0.698880 0.459263 0.740010
O O7 0.633022 0.500000 0.000000
O O8 0.000000 0.209753 0.500000
O O9 0.000000 0.253661 0.225991
O O10 0.000000 0.297459 0.500000
O O11 0.866582 0.912237 0.500000
O O12 0.000000 0.916551 0.216873
#
# Coordination Sequence:
#
# PCOD9494482 Si02
#       5
#    16   8   8   8  16
#     4   9  15  23  35  54  81 113 144 172 205 250
#     4   9  17  27  41  64  89 106 132 178 221 252
#     4   9  14  22  34  51  79 114 146 173 207 249
#     4   9  16  22  32  53  83 114 142 175 211 243
#     4   9  15  25  41  60  84 113 142 170 208 256
#
# _framework density 19.861542
#
# number of rings (size 3 to 8) (size 9 to 14) (size 15 to 20)
#    0.000    3.000    1.429    1.286    0.000    5.143 
#    0.000    0.000    0.000    0.857    0.000    7.000 
#    0.000    6.857    0.000    0.000    0.000    0.000 
#
# Total GULP energy -156127.720641 kJ/mol
# GULP energy per Si atom -5575.990023 kJ/mol
# Density = 1.981634 g / cm^3
# Si number density = 19.861542 Si / 1000 Ang^3
#
#
#
# Elastic Constant Matrix: (Units=GPa)
#
#
# Indices 1 2 3 4 5 6 
#
# 1 139.2299 107.5220 3.1438 0.0000 0.0000 0.0000
# 2 107.5220 251.1436 2.9712 0.0000 0.0000 0.0000
# 3 3.1438 2.9712 49.9655 0.0000 0.0000 0.0000
# 4 0.0000 0.0000 0.0000 -42.6101 0.0000 0.0000
# 5 0.0000 0.0000 0.0000 0.0000 -4.9382 0.0000
# 6 0.0000 0.0000 0.0000 0.0000 0.0000 4.0414
#
#
#
# Elastic Compliance Matrix: (Units=1/GPa)
#
#
# Indices 1 2 3 4 5 6 
#
# 1 0.010738 -0.004593 -0.000403 0.000000 0.000000 0.000000
# 2 -0.004593 0.005949 -0.000065 0.000000 0.000000 0.000000
# 3 -0.000403 -0.000065 0.020043 0.000000 0.000000 0.000000
# 4 0.000000 0.000000 0.000000 -0.023469 0.000000 0.000000
# 5 0.000000 0.000000 0.000000 0.000000 -0.202502 0.000000
# 6 0.000000 0.000000 0.000000 0.000000 0.000000 0.247440
#
#
# Mechanical properties :
#
#
# Convention : Reuss Voigt Hill
#
# Bulk Modulus (GPa) = 37.57969 74.17922 55.87946
# Shear Modulus (GPa) = 64.77624 13.07875 38.92749
#
# Velocity S-wave (km/s) = 5.71705 2.56890 4.43193
# Velocity P-wave (km/s) = 7.90832 6.79914 7.37461
#
# Compressibility (1/GPa) = 0.02661012
#
# Stress axis : x y z
#
# Youngs Moduli (GPa) = 93.12641 168.10251 49.89276
#
# Poissons Ratio (x) = 0.77202 0.02008
# Poissons Ratio (y) = 0.42769 0.00323
# Poissons Ratio (z) = 0.03749 0.01089
#
# Static dielectric constant tensor:
#      x y z
#    x 1.652800 0.000000 0.000000 
#    y 0.000000 1.723150 0.000000 
#    z 0.000000 0.000000 1.733350 
# 
# From -- ./inp_files/4776.got.cif
#   From: 2010.05.17/outbox.cif.g08.bks.cpg/sg65_3_cif.got.tgz:4776.got - 2010.06.03 17:01:31.
