data_PCOD9494108
_publ_section_title
;
Structure prediction by ZEFSAII (Michael W. Deem and Ramdas Pophale) SiO2 
 PCOD9494108
Probable space group: C M M M
;
_chemical_formula_sum "Si O2"
_cell_formula_units_Z 56
_cell_length_a 22.925740
_cell_length_b 13.528530
_cell_length_c 9.127953
_cell_angle_alpha 90.000000
_cell_angle_beta 90.000000
_cell_angle_gamma 90.000000
_cell_volume 2831.048875
_symmetry_space_group_name_H-M "C M M M"
_symmetry_group_IT_number 65
_symmetry_cell_setting 'orthorhombic'
loop_
_space_group_symop_operation_xyz
x,y,z
-x,-y,z
x,-y,-z
-x,y,-z
-x,-y,-z
x,y,-z
-x,y,z
x,-y,z
1/2+x,1/2+y,z
1/2-x,1/2-y,z
1/2+x,1/2-y,-z
1/2-x,1/2+y,-z
1/2-x,1/2-y,-z
1/2+x,1/2+y,-z
1/2-x,1/2+y,z
1/2+x,1/2-y,z
loop_
_atom_site_type_symbol
_atom_site_label
_atom_site_fract_x
_atom_site_fract_y
_atom_site_fract_z
Si Si1 0.569682 0.500000 0.330238
Si Si2 0.871107 0.611703 0.327557
Si Si3 0.624257 0.309802 0.173155
Si Si4 0.269081 0.615310 0.333935
O O1 0.500000 0.500000 0.327491
O O2 0.589058 0.500000 0.500000
O O3 0.591948 0.401132 0.250637
O O4 0.885040 0.622520 0.500000
O O5 0.888077 0.500000 0.281910
O O6 0.895083 0.703797 0.236793
O O7 0.800425 0.617572 0.315631
O O8 0.691954 0.326197 0.219451
O O9 0.617268 0.313983 0.000000
O O10 0.283040 0.649348 0.500000
O O11 0.285488 0.500000 0.323071
#
# Coordination Sequence:
#
# PCOD9494108 Si02
#       4
#     8  16  16  16
#     4  11  25  45  67  85 103 139 193 245 288 339
#     4   9  19  35  55  80 112 157 202 232 263 318
#     4  12  23  34  54  84 117 149 179 230 297 345
#     4   9  17  31  52  77 110 155 199 233 266 321
#
# _framework density 19.780653999999998
#
# number of rings (size 3 to 8) (size 9 to 14) (size 15 to 20)
#    0.000    1.857    1.429    5.571    0.000    6.286 
#    0.000    2.857    0.000    0.857    0.000    6.000 
#    0.000    0.000    0.000    0.000    0.000    0.000 
#
# Total GULP energy -156391.602181 kJ/mol
# GULP energy per Si atom -5585.414364 kJ/mol
# Density = 1.973563 g / cm^3
# Si number density = 19.780654 Si / 1000 Ang^3
#
#
#
# Elastic Constant Matrix: (Units=GPa)
#
#
# Indices 1 2 3 4 5 6 
#
# 1 20.9963 23.4371 19.7743 0.0000 0.0000 0.0000
# 2 23.4371 209.7005 109.3650 0.0000 0.0000 0.0000
# 3 19.7743 109.3650 144.5606 0.0000 0.0000 0.0000
# 4 0.0000 0.0000 0.0000 13.3644 0.0000 0.0000
# 5 0.0000 0.0000 0.0000 0.0000 -23.2787 0.0000
# 6 0.0000 0.0000 0.0000 0.0000 0.0000 9.5790
#
#
#
# Elastic Compliance Matrix: (Units=1/GPa)
#
#
# Indices 1 2 3 4 5 6 
#
# 1 0.056416 -0.003767 -0.004867 0.000000 0.000000 0.000000
# 2 -0.003767 0.008128 -0.005634 0.000000 0.000000 0.000000
# 3 -0.004867 -0.005634 0.011845 0.000000 0.000000 0.000000
# 4 0.000000 0.000000 0.000000 0.074825 0.000000 0.000000
# 5 0.000000 0.000000 0.000000 0.000000 -0.042958 0.000000
# 6 0.000000 0.000000 0.000000 0.000000 0.000000 0.104396
#
#
# Mechanical properties :
#
#
# Convention : Reuss Voigt Hill
#
# Bulk Modulus (GPa) = 20.89704 75.60114 48.24909
# Shear Modulus (GPa) = 19.44465 14.77834 17.11149
#
# Velocity S-wave (km/s) = 3.13871 2.73630 2.94438
# Velocity P-wave (km/s) = 4.87059 6.94880 6.00035
#
# Compressibility (1/GPa) = 0.04785366
#
# Stress axis : x y z
#
# Youngs Moduli (GPa) = 17.72536 123.03340 84.42062
#
# Poissons Ratio (x) = 0.46345 0.41091
# Poissons Ratio (y) = 0.06677 0.47560
# Poissons Ratio (z) = 0.08628 0.69314
#
# Static dielectric constant tensor:
#      x y z
#    x 1.702450 0.000000 0.000000 
#    y 0.000000 1.747440 0.000000 
#    z 0.000000 0.000000 1.654290 
# 
# From -- ./inp_files/13252.got.cif
#   From: 2010.05.17/outbox.cif.g08.bks.cpg/sg65_7_cif.got.tgz:13252.got - 2010.06.03 17:01:31.
