data_PCOD9494785
_publ_section_title
;
Structure prediction by ZEFSAII (Michael W. Deem and Ramdas Pophale) SiO2 
 PCOD9494785
Probable space group: C M M M
;
_chemical_formula_sum "Si O2"
_cell_formula_units_Z 48
_cell_length_a 24.000000
_cell_length_b 24.000000
_cell_length_c 9.000000
_cell_angle_alpha 90.000000
_cell_angle_beta 90.000000
_cell_angle_gamma 90.000000
_cell_volume 5184.000000
_symmetry_space_group_name_H-M "C M M M"
_symmetry_group_IT_number 65
_symmetry_cell_setting 'orthorhombic'
loop_
_space_group_symop_operation_xyz
x,y,z
-x,-y,z
x,-y,-z
-x,y,-z
-x,-y,-z
x,y,-z
-x,y,z
x,-y,z
1/2+x,1/2+y,z
1/2-x,1/2-y,z
1/2+x,1/2-y,-z
1/2-x,1/2+y,-z
1/2-x,1/2-y,-z
1/2+x,1/2+y,-z
1/2-x,1/2+y,z
1/2+x,1/2-y,z
loop_
_atom_site_type_symbol
_atom_site_label
_atom_site_fract_x
_atom_site_fract_y
_atom_site_fract_z
Si Si1 0.638095 0.114811 0.674218
Si Si2 0.937388 0.824443 0.180557
Si Si3 0.433102 0.203069 0.829396
Si Si4 0.337037 0.000000 0.176253
Si Si5 0.783348 0.000000 0.674492
Si Si6 0.747765 0.683750 0.674746
Si Si7 0.336264 0.604770 0.824456
O O1 0.635864 0.102750 0.500000
O O2 0.588744 0.154274 0.727736
O O3 0.694304 0.150971 0.701374
O O4 0.637352 0.057001 0.761822
O O5 0.914705 0.763978 0.227883
O O6 0.897603 0.874864 0.217192
O O7 0.000000 0.831767 0.235190
O O8 0.939098 0.820877 0.000000
O O9 0.500000 0.205016 0.832705
O O10 0.413572 0.195040 0.000000
O O11 0.274171 0.000000 0.236670
O O12 0.338165 0.000000 0.000000
O O13 0.816621 0.053930 0.725559
O O14 0.771743 0.000000 0.500000
O O15 0.733085 0.674297 0.500000
O O16 0.750000 0.750000 0.697154
O O17 0.703710 0.656098 0.784446
O O18 0.333258 0.591644 0.000000
#
# Coordination Sequence:
#
# PCOD9494785 Si02
#       7
#    16  16  16   8   8  16  16
#     4  11  22  36  56  82 115 151 185 226 279 336
#     4   8  16  33  57  85 116 148 185 233 284 328
#     4   9  18  35  59  85 115 151 188 230 279 328
#     4  12  24  40  61  82 107 144 192 237 276 333
#     4  12  24  40  57  76 111 153 186 229 288 344
#     4  10  21  35  52  78 115 152 180 220 282 342
#     4  11  21  34  57  85 109 143 192 238 278 330
#
# _framework density 9.2592590000000001
#
# number of rings (size 3 to 8) (size 9 to 14) (size 15 to 20)
#    0.000    1.833    1.667    4.500    0.000    1.333 
#    0.000    1.667    0.000    9.000    0.000    0.000 
#    0.000    0.000    0.000    0.000    0.000    0.000 
#
# Total GULP energy -267846.671484 kJ/mol
# GULP energy per Si atom -5580.138989 kJ/mol
# Density = 0.923818 g / cm^3
# Si number density = 9.259259 Si / 1000 Ang^3
#
#
#
# Elastic Constant Matrix: (Units=GPa)
#
#
# Indices 1 2 3 4 5 6 
#
# 1 18.0706 -17.7478 -7.1309 0.0000 0.0000 0.0000
# 2 -17.7478 -27.3313 -34.0230 0.0000 0.0000 0.0000
# 3 -7.1309 -34.0230 24.0251 0.0000 0.0000 0.0000
# 4 0.0000 0.0000 0.0000 36.0031 0.0000 0.0000
# 5 0.0000 0.0000 0.0000 0.0000 3.6613 0.0000
# 6 0.0000 0.0000 0.0000 0.0000 0.0000 24.4119
#
#
#
# Elastic Compliance Matrix: (Units=1/GPa)
#
#
# Indices 1 2 3 4 5 6 
#
# 1 0.038135 -0.014063 -0.008596 0.000000 0.000000 0.000000
# 2 -0.014063 -0.008057 -0.015584 0.000000 0.000000 0.000000
# 3 -0.008596 -0.015584 0.017003 0.000000 0.000000 0.000000
# 4 0.000000 0.000000 0.000000 0.027775 0.000000 0.000000
# 5 0.000000 0.000000 0.000000 0.000000 0.273129 0.000000
# 6 0.000000 0.000000 0.000000 0.000000 0.000000 0.040964
#
#
# Mechanical properties :
#
#
# Convention : Reuss Voigt Hill
#
# Bulk Modulus (GPa) = -34.00864 -11.44877 -22.72871
# Shear Modulus (GPa) = 10.97375 17.72632 14.35004
#
# Velocity S-wave (km/s) = 2.43694 3.09726 2.78673
# Velocity P-wave (km/s) = 3.23825 2.56805 1.39488
#
# Compressibility (1/GPa) = -0.02940429
#
# Stress axis : x y z
#
# Youngs Moduli (GPa) = 26.22268 -124.11535 58.81378
#
# Poissons Ratio (x) = -1.74540 0.50556
# Poissons Ratio (y) = 0.36876 0.91655
# Poissons Ratio (z) = 0.22541 -1.93420
#
# Static dielectric constant tensor:
#      x y z
#    x 1.662400 0.000000 0.000000 
#    y 0.000000 1.643710 0.000000 
#    z 0.000000 0.000000 1.617220 
# 
# From -- ./inp_files/14353.got.cif
#   From: 2010.05.17/outbox.ucp.g08.bks.cvg/sg65_8_cif.got.tgz:14353.got - 2010.06.11 16:39:57.
