data_PCOD9494939
_publ_section_title
;
Structure prediction by ZEFSAII (Michael W. Deem and Ramdas Pophale) SiO2 
 PCOD9494939
Probable space group: C C C M
;
_chemical_formula_sum "Si O2"
_cell_formula_units_Z 80
_cell_length_a 27.721682
_cell_length_b 7.719542
_cell_length_c 15.526827
_cell_angle_alpha 90.000000
_cell_angle_beta 90.000000
_cell_angle_gamma 90.000000
_cell_volume 3322.720615
_symmetry_space_group_name_H-M "C C C M"
_symmetry_group_IT_number 66
_symmetry_cell_setting 'orthorhombic'
loop_
_space_group_symop_operation_xyz
x,y,z
-x,-y,z
x,-y,1/2-z
-x,y,1/2-z
-x,-y,-z
x,y,-z
-x,y,1/2+z
x,-y,1/2+z
1/2+x,1/2+y,z
1/2-x,1/2-y,z
1/2+x,1/2-y,1/2-z
1/2-x,1/2+y,1/2-z
1/2-x,1/2-y,-z
1/2+x,1/2+y,-z
1/2-x,1/2+y,1/2+z
1/2+x,1/2-y,1/2+z
loop_
_atom_site_type_symbol
_atom_site_label
_atom_site_fract_x
_atom_site_fract_y
_atom_site_fract_z
Si Si1 0.102264 0.328157 0.304481
Si Si2 0.046743 0.755427 0.500000
Si Si3 0.623891 0.320228 0.634775
Si Si4 0.439499 0.164287 0.500000
Si Si5 0.275208 0.439846 0.152240
Si Si6 0.178903 0.452641 0.406030
O O1 0.084716 0.500000 0.250000
O O2 0.103862 0.185525 0.231379
O O3 0.080267 0.304555 0.400295
O O4 0.159010 0.348644 0.325827
O O5 0.076537 0.835765 0.578325
O O6 0.054336 0.545636 0.500000
O O7 0.989696 0.770023 0.500000
O O8 0.669643 0.443976 0.620972
O O9 0.650344 0.136115 0.608600
O O10 0.274485 0.500000 0.250000
O O11 0.250000 0.250000 0.148960
O O12 0.236019 0.542741 0.097927
O O13 0.163588 0.389633 0.500000
#
# Coordination Sequence:
#
# PCOD9494939 Si02
#       6
#    16   8  16   8  16  16
#     4  10  17  32  49  76 110 158 182 237 293 348
#     4  11  20  32  48  88 107 146 192 251 287 370
#     4  10  19  32  51  73 114 147 196 229 293 341
#     4  11  20  32  51  77 122 144 194 242 310 345
#     4  10  21  34  56  84 117 156 200 238 281 345
#     4  10  16  28  49  78 109 149 198 226 278 336
#
# _framework density 24.076654999999999
#
# number of rings (size 3 to 8) (size 9 to 14) (size 15 to 20)
#    0.000    1.800    6.000    3.000    1.400    2.000 
#    0.000    0.000    2.200    1.800    0.000    4.200 
#    0.000    0.000    0.000    0.000    0.000    0.000 
#
# Total GULP energy -222860.383314 kJ/mol
# GULP energy per Si atom -5571.509583 kJ/mol
# Density = 2.402186 g / cm^3
# Si number density = 24.076655 Si / 1000 Ang^3
#
#
#
# Elastic Constant Matrix: (Units=GPa)
#
#
# Indices 1 2 3 4 5 6 
#
# 1 154.8894 9.0142 90.5385 0.0000 0.0000 0.0000
# 2 9.0142 50.0823 14.5261 0.0000 0.0000 0.0000
# 3 90.5385 14.5261 212.1237 0.0000 0.0000 0.0000
# 4 0.0000 0.0000 0.0000 -26.0691 0.0000 0.0000
# 5 0.0000 0.0000 0.0000 0.0000 33.1199 0.0000
# 6 0.0000 0.0000 0.0000 0.0000 0.0000 12.9777
#
#
#
# Elastic Compliance Matrix: (Units=1/GPa)
#
#
# Indices 1 2 3 4 5 6 
#
# 1 0.008614 -0.000494 -0.003643 0.000000 0.000000 0.000000
# 2 -0.000494 0.020400 -0.001186 0.000000 0.000000 0.000000
# 3 -0.003643 -0.001186 0.006350 0.000000 0.000000 0.000000
# 4 0.000000 0.000000 0.000000 -0.038360 0.000000 0.000000
# 5 0.000000 0.000000 0.000000 0.000000 0.030193 0.000000
# 6 0.000000 0.000000 0.000000 0.000000 0.000000 0.077055
#
#
# Mechanical properties :
#
#
# Convention : Reuss Voigt Hill
#
# Bulk Modulus (GPa) = 40.45512 71.69478 56.07495
# Shear Modulus (GPa) = 40.60439 24.20681 32.40560
#
# Velocity S-wave (km/s) = 4.11111 3.17425 3.67268
# Velocity P-wave (km/s) = 6.27488 6.57852 6.42849
#
# Compressibility (1/GPa) = 0.02471875
#
# Stress axis : x y z
#
# Youngs Moduli (GPa) = 116.08452 49.01948 157.47154
#
# Poissons Ratio (x) = 0.02421 0.57367
# Poissons Ratio (y) = 0.05733 0.18679
# Poissons Ratio (z) = 0.42289 0.05815
#
# Static dielectric constant tensor:
#      x y z
#    x 1.919360 0.000000 0.000000 
#    y 0.000000 2.090360 0.000000 
#    z 0.000000 0.000000 1.845710 
# 
# From -- ./inp_files/26725.got.cif
#   From: 2010.05.17/outbox.cif.g08.bks.cpg/sg66_14_cif.got.tgz:26725.got - 2010.06.03 17:51:23.
