data_PCOD9494618
_publ_section_title
;
Structure prediction by ZEFSAII (Michael W. Deem and Ramdas Pophale) SiO2 
 PCOD9494618
Probable space group: C M M M
;
_chemical_formula_sum "Si O2"
_cell_formula_units_Z 64
_cell_length_a 21.000000
_cell_length_b 18.000000
_cell_length_c 21.000000
_cell_angle_alpha 90.000000
_cell_angle_beta 90.000000
_cell_angle_gamma 90.000000
_cell_volume 7938.000000
_symmetry_space_group_name_H-M "C M M M"
_symmetry_group_IT_number 65
_symmetry_cell_setting 'orthorhombic'
loop_
_space_group_symop_operation_xyz
x,y,z
-x,-y,z
x,-y,-z
-x,y,-z
-x,-y,-z
x,y,-z
-x,y,z
x,-y,z
1/2+x,1/2+y,z
1/2-x,1/2-y,z
1/2+x,1/2-y,-z
1/2-x,1/2+y,-z
1/2-x,1/2-y,-z
1/2+x,1/2+y,-z
1/2-x,1/2+y,z
1/2+x,1/2-y,z
loop_
_atom_site_type_symbol
_atom_site_label
_atom_site_fract_x
_atom_site_fract_y
_atom_site_fract_z
Si Si1 0.428052 0.800709 0.319324
Si Si2 0.191623 0.808400 0.314414
Si Si3 0.737031 0.587438 0.200980
Si Si4 0.887883 0.588371 0.931326
Si Si5 0.267929 0.586192 0.425731
Si Si6 0.608016 0.913407 0.209072
Si Si7 0.249351 0.161816 0.070977
Si Si8 0.885347 0.414753 0.424889
O O1 0.500000 0.771207 0.319893
O O2 0.373872 0.737739 0.314097
O O3 0.418952 0.857178 0.260350
O O4 0.416460 0.852285 0.381384
O O5 0.250000 0.750000 0.313724
O O6 0.203044 0.862926 0.254429
O O7 0.198441 0.858113 0.377739
O O8 0.722536 0.500000 0.206850
O O9 0.814391 0.594503 0.208479
O O10 0.720131 0.618487 0.130796
O O11 0.872998 0.500000 0.929247
O O12 0.917400 0.603639 0.862313
O O13 0.821879 0.632847 0.932178
O O14 0.920452 0.602057 0.000000
O O15 0.281072 0.602282 0.500000
O O16 0.284848 0.500000 0.413182
O O17 0.191330 0.591648 0.416760
O O18 0.594217 0.000000 0.223802
O O19 0.250000 0.250000 0.083095
O O20 0.221360 0.148929 0.000000
O O21 0.899249 0.405730 0.500000
O O22 0.902919 0.500000 0.407033
#
# Coordination Sequence:
#
# PCOD9494618 Si02
#       8
#    16  16  16  16  16  16  16  16
#     4  12  25  36  48  73 107 140 172 212 257 304
#     4  12  21  34  55  77 102 136 171 214 260 300
#     4  10  19  31  51  75 100 133 176 217 253 302
#     4   8  14  25  42  65  95 132 169 204 243 291
#     4   9  18  34  58  85 107 129 165 210 253 302
#     4   9  17  30  49  73 101 135 171 205 247 306
#     4   9  16  24  39  69 108 138 159 196 256 313
#     4   9  18  34  55  79 108 140 171 201 242 304
#
# _framework density 8.0624839999999995
#
# number of rings (size 3 to 8) (size 9 to 14) (size 15 to 20)
#    0.000    2.250    2.500    3.000    1.750    4.750 
#    0.000    0.625    0.000    1.875    0.000    2.625 
#    0.000    0.000    0.000    1.125    0.000    0.125 
#
# Total GULP energy -356811.105306 kJ/mol
# GULP energy per Si atom -5575.173520 kJ/mol
# Density = 0.804413 g / cm^3
# Si number density = 8.062484 Si / 1000 Ang^3
#
#
#
# Elastic Constant Matrix: (Units=GPa)
#
#
# Indices 1 2 3 4 5 6 
#
# 1 68.6940 43.6545 40.0054 0.0000 0.0000 0.0000
# 2 43.6545 93.9375 72.7277 0.0000 0.0000 0.0000
# 3 40.0054 72.7277 111.2336 0.0000 0.0000 0.0000
# 4 0.0000 0.0000 0.0000 31.6367 0.0000 0.0000
# 5 0.0000 0.0000 0.0000 0.0000 0.9845 0.0000
# 6 0.0000 0.0000 0.0000 0.0000 0.0000 12.3561
#
#
#
# Elastic Compliance Matrix: (Units=1/GPa)
#
#
# Indices 1 2 3 4 5 6 
#
# 1 0.020962 -0.007907 -0.002369 0.000000 0.000000 0.000000
# 2 -0.007907 0.024541 -0.013202 0.000000 0.000000 0.000000
# 3 -0.002369 -0.013202 0.018474 0.000000 0.000000 0.000000
# 4 0.000000 0.000000 0.000000 0.031609 0.000000 0.000000
# 5 0.000000 0.000000 0.000000 0.000000 1.015724 0.000000
# 6 0.000000 0.000000 0.000000 0.000000 0.000000 0.080932
#
#
# Mechanical properties :
#
#
# Convention : Reuss Voigt Hill
#
# Bulk Modulus (GPa) = 58.75204 65.18227 61.96715
# Shear Modulus (GPa) = 4.01648 16.82728 10.42188
#
# Velocity S-wave (km/s) = 1.57995 3.23391 2.54504
# Velocity P-wave (km/s) = 6.31212 7.37938 6.86652
#
# Compressibility (1/GPa) = 0.01702068
#
# Stress axis : x y z
#
# Youngs Moduli (GPa) = 47.70539 40.74810 54.13079
#
# Poissons Ratio (x) = 0.32221 0.12823
# Poissons Ratio (y) = 0.37722 0.71462
# Poissons Ratio (z) = 0.11301 0.53795
#
# Static dielectric constant tensor:
#      x y z
#    x 1.528010 0.000000 0.000000 
#    y 0.000000 1.518650 0.000000 
#    z 0.000000 0.000000 1.592260 
# 
# From -- ./inp_files/64874.got.cif
#   From: 2010.05.17/outbox.ucp.g08.bks.cvg/sg65_33_cif.got.tgz:64874.got - 2010.06.11 16:39:57.
