data_PCOD9494521
_publ_section_title
;
Structure prediction by ZEFSAII (Michael W. Deem and Ramdas Pophale) SiO2 
 PCOD9494521
Probable space group: C M M M
;
_chemical_formula_sum "Si O2"
_cell_formula_units_Z 88
_cell_length_a 15.211958
_cell_length_b 14.499912
_cell_length_c 18.458260
_cell_angle_alpha 90.000000
_cell_angle_beta 90.000000
_cell_angle_gamma 90.000000
_cell_volume 4071.376291
_symmetry_space_group_name_H-M "C M M M"
_symmetry_group_IT_number 65
_symmetry_cell_setting 'orthorhombic'
loop_
_space_group_symop_operation_xyz
x,y,z
-x,-y,z
x,-y,-z
-x,y,-z
-x,-y,-z
x,y,-z
-x,y,z
x,-y,z
1/2+x,1/2+y,z
1/2-x,1/2-y,z
1/2+x,1/2-y,-z
1/2-x,1/2+y,-z
1/2-x,1/2-y,-z
1/2+x,1/2+y,-z
1/2-x,1/2+y,z
1/2+x,1/2-y,z
loop_
_atom_site_type_symbol
_atom_site_label
_atom_site_fract_x
_atom_site_fract_y
_atom_site_fract_z
Si Si1 0.795434 0.388754 0.141435
Si Si2 0.402749 0.394213 0.847231
Si Si3 0.500000 0.863176 0.413825
Si Si4 0.148560 0.134411 0.685354
Si Si5 0.500000 0.638357 0.419364
Si Si6 0.154868 0.644089 0.304530
Si Si7 0.600054 0.887286 0.000000
O O1 0.787075 0.500000 0.138956
O O2 0.694244 0.352264 0.135856
O O3 0.846762 0.370348 0.217091
O O4 0.850406 0.357611 0.072464
O O5 0.500000 0.353941 0.865772
O O6 0.403318 0.500000 0.874992
O O7 0.394591 0.396924 0.760209
O O8 0.500000 0.892190 0.500000
O O9 0.500000 0.751044 0.417309
O O10 0.417159 0.890355 0.362331
O O11 0.086339 0.106573 0.621240
O O12 0.151644 0.245553 0.688028
O O13 0.248946 0.105710 0.677215
O O14 0.500000 0.607513 0.500000
O O15 0.500000 0.855796 0.000000
O O16 0.599853 0.000000 0.000000
#
# Coordination Sequence:
#
# PCOD9494521 Si02
#       7
#    16  16   8  16   8  16   8
#     4   9  18  32  50  74  98 123 157 195 234 281
#     4   9  16  28  49  72  95 123 155 191 232 280
#     4   9  18  30  43  66  95 121 157 203 243 280
#     4   9  16  29  45  68  94 122 161 198 235 278
#     4   9  16  26  43  67  94 121 154 198 244 286
#     4   9  18  29  48  69  91 127 163 196 238 280
#     4   9  18  32  49  70  99 127 157 199 236 267
#
# _framework density 21.614312000000002
#
# number of rings (size 3 to 8) (size 9 to 14) (size 15 to 20)
#    0.000    3.000    0.909    0.000    1.273    0.727 
#    0.000    4.091    0.000   13.636    0.000    5.091 
#    0.000    0.000    0.000    0.000    0.000    0.000 
#
# Total GULP energy -245111.892563 kJ/mol
# GULP energy per Si atom -5570.724831 kJ/mol
# Density = 2.156512 g / cm^3
# Si number density = 21.614312 Si / 1000 Ang^3
#
#
#
# Elastic Constant Matrix: (Units=GPa)
#
#
# Indices 1 2 3 4 5 6 
#
# 1 185.7259 5.8420 125.4423 0.0000 0.0000 0.0000
# 2 5.8420 69.8226 4.2669 0.0000 0.0000 0.0000
# 3 125.4423 4.2669 182.0397 0.0000 0.0000 0.0000
# 4 0.0000 0.0000 0.0000 19.1058 0.0000 0.0000
# 5 0.0000 0.0000 0.0000 0.0000 36.3673 0.0000
# 6 0.0000 0.0000 0.0000 0.0000 0.0000 12.0143
#
#
#
# Elastic Compliance Matrix: (Units=1/GPa)
#
#
# Indices 1 2 3 4 5 6 
#
# 1 0.010084 -0.000420 -0.006939 0.000000 0.000000 0.000000
# 2 -0.000420 0.014360 -0.000047 0.000000 0.000000 0.000000
# 3 -0.006939 -0.000047 0.010276 0.000000 0.000000 0.000000
# 4 0.000000 0.000000 0.000000 0.052340 0.000000 0.000000
# 5 0.000000 0.000000 0.000000 0.000000 0.027497 0.000000
# 6 0.000000 0.000000 0.000000 0.000000 0.000000 0.083234
#
#
# Mechanical properties :
#
#
# Convention : Reuss Voigt Hill
#
# Bulk Modulus (GPa) = 50.23114 78.74340 64.48727
# Shear Modulus (GPa) = 22.80599 33.63328 28.21963
#
# Velocity S-wave (km/s) = 3.25181 3.94898 3.61723
# Velocity P-wave (km/s) = 6.11467 7.56986 6.88084
#
# Compressibility (1/GPa) = 0.01990797
#
# Stress axis : x y z
#
# Youngs Moduli (GPa) = 99.16373 69.63778 97.31240
#
# Poissons Ratio (x) = 0.02923 0.67527
# Poissons Ratio (y) = 0.04162 0.00461
# Poissons Ratio (z) = 0.68812 0.00330
#
# Static dielectric constant tensor:
#      x y z
#    x 1.772340 0.000000 0.000000 
#    y 0.000000 1.851380 0.000000 
#    z 0.000000 0.000000 1.737650 
# 
# From -- ./inp_files/53070.got.cif
#   From: 2010.05.17/outbox.cif.g08.bks.cpg/sg65_27_cif.got.tgz:53070.got - 2010.06.03 17:01:31.
