data_PCOD9494358
_publ_section_title
;
Structure prediction by ZEFSAII (Michael W. Deem and Ramdas Pophale) SiO2 
 PCOD9494358
Probable space group: C M M M
;
_chemical_formula_sum "Si O2"
_cell_formula_units_Z 104
_cell_length_a 7.494201
_cell_length_b 30.560255
_cell_length_c 23.972259
_cell_angle_alpha 90.000000
_cell_angle_beta 90.000000
_cell_angle_gamma 90.000000
_cell_volume 5490.239272
_symmetry_space_group_name_H-M "C M M M"
_symmetry_group_IT_number 65
_symmetry_cell_setting 'orthorhombic'
loop_
_space_group_symop_operation_xyz
x,y,z
-x,-y,z
x,-y,-z
-x,y,-z
-x,-y,-z
x,y,-z
-x,y,z
x,-y,z
1/2+x,1/2+y,z
1/2-x,1/2-y,z
1/2+x,1/2-y,-z
1/2-x,1/2+y,-z
1/2-x,1/2-y,-z
1/2+x,1/2+y,-z
1/2-x,1/2+y,z
1/2+x,1/2-y,z
loop_
_atom_site_type_symbol
_atom_site_label
_atom_site_fract_x
_atom_site_fract_y
_atom_site_fract_z
Si Si1 0.282589 0.050701 0.336301
Si Si2 0.217802 0.449278 0.211437
Si Si3 0.718139 0.892081 0.107193
Si Si4 0.792479 0.608255 0.436523
Si Si5 0.282446 0.949367 0.000000
Si Si6 0.788746 0.796517 0.563525
Si Si7 0.213625 0.299042 0.935930
O O1 0.500000 0.053913 0.336261
O O2 0.225294 0.063792 0.273957
O O3 0.213264 0.077835 0.388791
O O4 0.237201 0.000000 0.343326
O O5 0.271089 0.500000 0.201085
O O6 0.277223 0.416091 0.163599
O O7 0.000000 0.449491 0.210885
O O8 0.500000 0.891784 0.107954
O O9 0.771549 0.922184 0.054660
O O10 0.777083 0.841915 0.097366
O O11 0.716943 0.606691 0.500000
O O12 0.784022 0.658036 0.414522
O O13 0.000000 0.596234 0.441910
O O14 0.500000 0.950216 0.000000
O O15 0.223621 0.000000 0.000000
O O16 0.714887 0.793755 0.500000
O O17 0.750000 0.750000 0.591376
O O18 0.000000 0.801131 0.560769
O O19 0.250000 0.250000 0.914063
O O20 0.000000 0.302974 0.938746
O O21 0.281709 0.301059 0.000000
#
# Coordination Sequence:
#
# PCOD9494358 Si02
#       7
#    16  16  16  16   8  16  16
#     4   8  14  24  37  55  79 106 138 173 204 241
#     4   8  13  21  34  53  78 107 135 162 198 246
#     4   9  14  21  33  52  78 107 133 160 199 240
#     4   9  16  25  39  60  84 109 138 173 212 249
#     4   9  14  18  27  48  79 107 127 153 194 241
#     4   9  16  26  41  61  85 110 135 165 203 249
#     4   9  16  26  39  56  80 106 133 164 195 231
#
# _framework density 18.942706999999999
#
# number of rings (size 3 to 8) (size 9 to 14) (size 15 to 20)
#    0.000    3.308    0.769    1.846    0.000    4.000 
#    0.000    1.538    0.000    1.385    0.000    5.385 
#    0.000    4.308    0.000    0.000    0.000    0.000 
#
# Total GULP energy -289600.141347 kJ/mol
# GULP energy per Si atom -5569.233487 kJ/mol
# Density = 1.889959 g / cm^3
# Si number density = 18.942707 Si / 1000 Ang^3
#
#
#
# Elastic Constant Matrix: (Units=GPa)
#
#
# Indices 1 2 3 4 5 6 
#
# 1 51.9344 0.8404 6.7418 0.0000 0.0000 0.0000
# 2 0.8404 162.8507 109.2516 0.0000 0.0000 0.0000
# 3 6.7418 109.2516 136.0699 0.0000 0.0000 0.0000
# 4 0.0000 0.0000 0.0000 43.8761 0.0000 0.0000
# 5 0.0000 0.0000 0.0000 0.0000 -5.4656 0.0000
# 6 0.0000 0.0000 0.0000 0.0000 0.0000 7.4921
#
#
#
# Elastic Compliance Matrix: (Units=1/GPa)
#
#
# Indices 1 2 3 4 5 6 
#
# 1 0.019485 0.001186 -0.001918 0.000000 0.000000 0.000000
# 2 0.001186 0.013382 -0.010803 0.000000 0.000000 0.000000
# 3 -0.001918 -0.010803 0.016118 0.000000 0.000000 0.000000
# 4 0.000000 0.000000 0.000000 0.022791 0.000000 0.000000
# 5 0.000000 0.000000 0.000000 0.000000 -0.182961 0.000000
# 6 0.000000 0.000000 0.000000 0.000000 0.000000 0.133475
#
#
# Mechanical properties :
#
#
# Convention : Reuss Voigt Hill
#
# Bulk Modulus (GPa) = 38.58753 64.94696 51.76725
# Shear Modulus (GPa) = 92.59539 24.78192 58.68865
#
# Velocity S-wave (km/s) = 6.99914 3.62091 5.57220
# Velocity P-wave (km/s) = 9.25916 7.20012 8.29379
#
# Compressibility (1/GPa) = 0.02591511
#
# Stress axis : x y z
#
# Youngs Moduli (GPa) = 51.32205 74.72649 62.04130
#
# Poissons Ratio (x) = -0.08862 0.11897
# Poissons Ratio (y) = -0.06086 0.67026
# Poissons Ratio (z) = 0.09841 0.80730
#
# Static dielectric constant tensor:
#      x y z
#    x 1.747090 0.000000 0.000000 
#    y 0.000000 1.671070 0.000000 
#    z 0.000000 0.000000 1.647660 
# 
# From -- ./inp_files/68565.got.cif
#   From: 2010.05.17/outbox.cif.g08.bks.cpg/sg65_35_cif.got.tgz:68565.got - 2010.06.03 17:01:31.
