data_PCOD9494906
_publ_section_title
;
Structure prediction by ZEFSAII (Michael W. Deem and Ramdas Pophale) SiO2 
 PCOD9494906
Probable space group: C C C M
;
_chemical_formula_sum "Si O2"
_cell_formula_units_Z 80
_cell_length_a 6.749035
_cell_length_b 27.168151
_cell_length_c 15.975382
_cell_angle_alpha 90.000000
_cell_angle_beta 90.000000
_cell_angle_gamma 90.000000
_cell_volume 2929.226905
_symmetry_space_group_name_H-M "C C C M"
_symmetry_group_IT_number 66
_symmetry_cell_setting 'orthorhombic'
loop_
_space_group_symop_operation_xyz
x,y,z
-x,-y,z
x,-y,1/2-z
-x,y,1/2-z
-x,-y,-z
x,y,-z
-x,y,1/2+z
x,-y,1/2+z
1/2+x,1/2+y,z
1/2-x,1/2-y,z
1/2+x,1/2-y,1/2-z
1/2-x,1/2+y,1/2-z
1/2-x,1/2-y,-z
1/2+x,1/2+y,-z
1/2-x,1/2+y,1/2+z
1/2+x,1/2-y,1/2+z
loop_
_atom_site_type_symbol
_atom_site_label
_atom_site_fract_x
_atom_site_fract_y
_atom_site_fract_z
Si Si1 0.519224 0.763544 0.899985
Si Si2 0.773645 0.530114 0.164911
Si Si3 0.455318 0.658684 0.848062
Si Si4 0.394422 0.130710 0.901443
Si Si5 0.864165 0.061353 0.094206
O O1 0.750000 0.750000 0.884347
O O2 0.405381 0.715353 0.867315
O O3 0.504525 0.819296 0.866913
O O4 0.488700 0.766221 0.000000
O O5 0.800329 0.500000 0.250000
O O6 0.898918 0.579291 0.148969
O O7 0.548585 0.549234 0.154361
O O8 0.781905 0.484888 0.099637
O O9 0.500000 0.654091 0.750000
O O10 0.659406 0.646091 0.897397
O O11 0.304797 0.616045 0.878494
O O12 0.443755 0.122244 0.000000
O O13 0.939270 0.063299 0.000000
#
# Coordination Sequence:
#
# PCOD9494906 Si02
#       5
#    16  16  16  16  16
#     4   8  14  25  39  51  68  99 136 168 191 221
#     4  10  16  22  31  48  73  99 124 152 190 226
#     4  10  16  22  33  53  77  98 123 159 200 233
#     4   9  16  27  39  50  72 106 141 167 187 224
#     4  10  16  22  31  45  73 105 129 150 177 226
#
# _framework density 27.310960999999999
#
# number of rings (size 3 to 8) (size 9 to 14) (size 15 to 20)
#    0.000    2.600    0.000   10.200    0.000    0.000 
#    0.000    0.000    0.000    0.000    0.000    0.000 
#    0.000  110.400    0.000    4.400    0.000    1.600 
#
# Total GULP energy -223686.816435 kJ/mol
# GULP energy per Si atom -5592.170411 kJ/mol
# Density = 2.724880 g / cm^3
# Si number density = 27.310961 Si / 1000 Ang^3
#
#
#
# Elastic Constant Matrix: (Units=GPa)
#
#
# Indices 1 2 3 4 5 6 
#
# 1 87.7397 69.4514 -3.1070 0.0000 0.0000 0.0000
# 2 69.4514 361.0567 80.3953 0.0000 0.0000 0.0000
# 3 -3.1070 80.3953 153.4836 0.0000 0.0000 0.0000
# 4 0.0000 0.0000 0.0000 42.5422 0.0000 0.0000
# 5 0.0000 0.0000 0.0000 0.0000 -10.9356 0.0000
# 6 0.0000 0.0000 0.0000 0.0000 0.0000 81.6153
#
#
#
# Elastic Compliance Matrix: (Units=1/GPa)
#
#
# Indices 1 2 3 4 5 6 
#
# 1 0.013921 -0.003102 0.001907 0.000000 0.000000 0.000000
# 2 -0.003102 0.003827 -0.002067 0.000000 0.000000 0.000000
# 3 0.001907 -0.002067 0.007637 0.000000 0.000000 0.000000
# 4 0.000000 0.000000 0.000000 0.023506 0.000000 0.000000
# 5 0.000000 0.000000 0.000000 0.000000 -0.091445 0.000000
# 6 0.000000 0.000000 0.000000 0.000000 0.000000 0.012253
#
#
# Mechanical properties :
#
#
# Convention : Reuss Voigt Hill
#
# Bulk Modulus (GPa) = 53.02641 99.52881 76.27761
# Shear Modulus (GPa) = -285.86983 53.01373 -116.42805
#
# Velocity S-wave (km/s) = -10.24204 4.41059 -6.53629
# Velocity P-wave (km/s) = 10.97306 7.90314 5.38276
#
# Compressibility (1/GPa) = 0.01885853
#
# Stress axis : x y z
#
# Youngs Moduli (GPa) = 71.83641 261.32231 130.94524
#
# Poissons Ratio (x) = 0.81069 -0.24968
# Poissons Ratio (y) = 0.22286 0.27069
# Poissons Ratio (z) = -0.13698 0.54021
#
# Static dielectric constant tensor:
#      x y z
#    x 2.309810 0.000000 0.000000 
#    y 0.000000 2.280070 0.000000 
#    z 0.000000 0.000000 2.049940 
# 
# From -- ./inp_files/26652.got.cif
#   From: 2010.05.17/outbox.cif.g08.bks.cpg/sg66_14_cif.got.tgz:26652.got - 2010.06.03 17:51:23.
