data_PCOD9494296
_publ_section_title
;
Structure prediction by ZEFSAII (Michael W. Deem and Ramdas Pophale) SiO2 
 PCOD9494296
Probable space group: C M M M
;
_chemical_formula_sum "Si O2"
_cell_formula_units_Z 72
_cell_length_a 7.384372
_cell_length_b 18.740488
_cell_length_c 24.993340
_cell_angle_alpha 90.000000
_cell_angle_beta 90.000000
_cell_angle_gamma 90.000000
_cell_volume 3458.746716
_symmetry_space_group_name_H-M "C M M M"
_symmetry_group_IT_number 65
_symmetry_cell_setting 'orthorhombic'
loop_
_space_group_symop_operation_xyz
x,y,z
-x,-y,z
x,-y,-z
-x,y,-z
-x,-y,-z
x,y,-z
-x,y,z
x,-y,z
1/2+x,1/2+y,z
1/2-x,1/2-y,z
1/2+x,1/2-y,-z
1/2-x,1/2+y,-z
1/2-x,1/2-y,-z
1/2+x,1/2+y,-z
1/2-x,1/2+y,z
1/2+x,1/2-y,z
loop_
_atom_site_type_symbol
_atom_site_label
_atom_site_fract_x
_atom_site_fract_y
_atom_site_fract_z
Si Si1 0.783627 0.833916 0.059410
Si Si2 0.716665 0.665378 0.268391
Si Si3 0.783172 0.164442 0.500000
Si Si4 0.278354 0.582335 0.163613
Si Si5 0.216475 0.164654 0.384803
O O1 0.750000 0.750000 0.068205
O O2 0.715616 0.879082 0.109446
O O3 0.000000 0.844028 0.057806
O O4 0.713423 0.852464 0.000000
O O5 0.500000 0.655970 0.269689
O O6 0.750000 0.750000 0.262794
O O7 0.784172 0.623525 0.216702
O O8 0.785960 0.640229 0.326798
O O9 0.750000 0.250000 0.500000
O O10 0.713943 0.137338 0.557633
O O11 0.000000 0.154088 0.500000
O O12 0.500000 0.584947 0.163566
O O13 0.225688 0.500000 0.164678
O O14 0.250000 0.250000 0.384797
O O15 0.000000 0.153463 0.385060
#
# Coordination Sequence:
#
# PCOD9494296 Si02
#       5
#    16  16   8  16  16
#     4   9  17  29  46  66  85 106 132 162 196 233
#     4   9  16  26  41  59  78 102 132 164 197 233
#     4   8  12  18  28  44  69  95 117 147 187 228
#     4   9  17  28  42  61  83 106 134 166 196 228
#     4   8  13  20  31  49  71  95 122 152 189 229
#
# _framework density 20.816789
#
# number of rings (size 3 to 8) (size 9 to 14) (size 15 to 20)
#    0.000    3.333    0.000    0.667    0.000    0.444 
#    0.000    2.222    0.000    2.667    0.000    3.889 
#    0.000    6.222    0.000    0.000    0.000  211.333 
#
# Total GULP energy -200548.154376 kJ/mol
# GULP energy per Si atom -5570.782066 kJ/mol
# Density = 2.076941 g / cm^3
# Si number density = 20.816789 Si / 1000 Ang^3
#
#
#
# Elastic Constant Matrix: (Units=GPa)
#
#
# Indices 1 2 3 4 5 6 
#
# 1 77.9850 -1.8175 13.9501 0.0000 0.0000 0.0000
# 2 -1.8175 63.8129 108.6224 0.0000 0.0000 0.0000
# 3 13.9501 108.6224 304.2318 0.0000 0.0000 0.0000
# 4 0.0000 0.0000 0.0000 -3.3660 0.0000 0.0000
# 5 0.0000 0.0000 0.0000 0.0000 12.2024 0.0000
# 6 0.0000 0.0000 0.0000 0.0000 0.0000 8.5275
#
#
#
# Elastic Compliance Matrix: (Units=1/GPa)
#
#
# Indices 1 2 3 4 5 6 
#
# 1 0.013245 0.003597 -0.001892 0.000000 0.000000 0.000000
# 2 0.003597 0.040928 -0.014778 0.000000 0.000000 0.000000
# 3 -0.001892 -0.014778 0.008650 0.000000 0.000000 0.000000
# 4 0.000000 0.000000 0.000000 -0.297087 0.000000 0.000000
# 5 0.000000 0.000000 0.000000 0.000000 0.081951 0.000000
# 6 0.000000 0.000000 0.000000 0.000000 0.000000 0.117268
#
#
# Mechanical properties :
#
#
# Convention : Reuss Voigt Hill
#
# Bulk Modulus (GPa) = 27.26368 76.39331 51.82849
# Shear Modulus (GPa) = 1503.22591 25.15775 764.19183
#
# Velocity S-wave (km/s) = 26.90148 3.48017 19.18073
# Velocity P-wave (km/s) = 31.27371 7.27505 22.70431
#
# Compressibility (1/GPa) = 0.03667884
#
# Stress axis : x y z
#
# Youngs Moduli (GPa) = 75.49898 24.43304 115.60716
#
# Poissons Ratio (x) = -0.08789 0.21870
# Poissons Ratio (y) = -0.27160 1.70843
# Poissons Ratio (z) = 0.14282 0.36107
#
# Static dielectric constant tensor:
#      x y z
#    x 1.773450 0.000000 0.000000 
#    y 0.000000 1.673880 0.000000 
#    z 0.000000 0.000000 1.818360 
# 
# From -- ./inp_files/67225.got.cif
#   From: 2010.05.17/outbox.cif.g08.bks.cpg/sg65_34_cif.got.tgz:67225.got - 2010.06.03 17:01:31.
