data_PCOD9494850
_publ_section_title
;
Structure prediction by ZEFSAII (Michael W. Deem and Ramdas Pophale) SiO2 
 PCOD9494850
Probable space group: C M M M
;
_chemical_formula_sum "Si O2"
_cell_formula_units_Z 60
_cell_length_a 15.000000
_cell_length_b 21.000000
_cell_length_c 21.000000
_cell_angle_alpha 90.000000
_cell_angle_beta 90.000000
_cell_angle_gamma 90.000000
_cell_volume 6615.000000
_symmetry_space_group_name_H-M "C M M M"
_symmetry_group_IT_number 65
_symmetry_cell_setting 'orthorhombic'
loop_
_space_group_symop_operation_xyz
x,y,z
-x,-y,z
x,-y,-z
-x,y,-z
-x,-y,-z
x,y,-z
-x,y,z
x,-y,z
1/2+x,1/2+y,z
1/2-x,1/2-y,z
1/2+x,1/2-y,-z
1/2-x,1/2+y,-z
1/2-x,1/2-y,-z
1/2+x,1/2+y,-z
1/2-x,1/2+y,z
1/2+x,1/2-y,z
loop_
_atom_site_type_symbol
_atom_site_label
_atom_site_fract_x
_atom_site_fract_y
_atom_site_fract_z
Si Si1 0.599708 0.500000 0.075118
Si Si2 0.105668 0.425229 0.298400
Si Si3 0.793585 0.422481 0.429499
Si Si4 0.896998 0.075626 0.242626
Si Si5 0.098617 0.076556 0.606186
Si Si6 0.397351 0.261275 0.925185
Si Si7 0.601962 0.866351 0.159088
Si Si8 0.795192 0.119412 0.127597
O O1 0.500000 0.500000 0.102145
O O2 0.651071 0.437455 0.095841
O O3 0.593698 0.500000 0.000000
O O4 0.131263 0.500000 0.283884
O O5 0.156737 0.404584 0.363261
O O6 0.116412 0.381328 0.234892
O O7 0.000000 0.425467 0.312425
O O8 0.829388 0.403399 0.500000
O O9 0.795068 0.500000 0.428621
O O10 0.690093 0.401100 0.425404
O O11 0.890695 0.087029 0.318011
O O12 0.830710 0.117260 0.200473
O O13 0.000000 0.088067 0.224546
O O14 0.878558 0.000000 0.232732
O O15 0.000000 0.100706 0.586587
O O16 0.096007 0.000000 0.596595
O O17 0.500000 0.286658 0.922763
O O18 0.394531 0.204639 0.872463
O O19 0.326468 0.315250 0.905569
O O20 0.383149 0.241292 0.000000
O O21 0.500000 0.889446 0.145869
O O22 0.690149 0.895252 0.126610
#
# Coordination Sequence:
#
# PCOD9494850 Si02
#       8
#     8  16  16  16  16  16  16  16
#     4  11  24  38  53  81 115 141 171 214 268 334
#     4   9  18  33  53  73  99 136 178 225 273 316
#     4   9  16  25  40  66 100 135 172 212 258 316
#     4   9  16  27  45  72 104 135 175 223 270 319
#     4   8  14  23  35  55  90 135 174 208 249 301
#     4  10  22  41  62  82 107 139 177 226 279 329
#     4  10  23  39  56  78 105 142 189 230 268 319
#     4  12  21  33  58  81 107 143 178 221 274 330
#
# _framework density 9.0702949999999998
#
# number of rings (size 3 to 8) (size 9 to 14) (size 15 to 20)
#    0.000    2.333    0.667    3.600    0.933    4.267 
#    0.000    2.667    0.000    0.400    0.000    0.000 
#    0.000    8.533    0.000   20.800    0.000    7.200 
#
# Total GULP energy -334108.009212 kJ/mol
# GULP energy per Si atom -5568.466820 kJ/mol
# Density = 0.904965 g / cm^3
# Si number density = 9.070295 Si / 1000 Ang^3
#
#
#
# Elastic Constant Matrix: (Units=GPa)
#
#
# Indices 1 2 3 4 5 6 
#
# 1 122.2225 25.7480 46.3209 0.0000 0.0000 0.0000
# 2 25.7480 38.8634 33.9143 0.0000 0.0000 0.0000
# 3 46.3209 33.9143 108.9576 0.0000 0.0000 0.0000
# 4 0.0000 0.0000 0.0000 18.2814 0.0000 0.0000
# 5 0.0000 0.0000 0.0000 0.0000 24.4819 0.0000
# 6 0.0000 0.0000 0.0000 0.0000 0.0000 -19.8590
#
#
#
# Elastic Compliance Matrix: (Units=1/GPa)
#
#
# Indices 1 2 3 4 5 6 
#
# 1 0.010205 -0.004084 -0.003067 0.000000 0.000000 0.000000
# 2 -0.004084 0.036961 -0.009768 0.000000 0.000000 0.000000
# 3 -0.003067 -0.009768 0.013522 0.000000 0.000000 0.000000
# 4 0.000000 0.000000 0.000000 0.054700 0.000000 0.000000
# 5 0.000000 0.000000 0.000000 0.000000 0.040846 0.000000
# 6 0.000000 0.000000 0.000000 0.000000 0.000000 -0.050355
#
#
# Mechanical properties :
#
#
# Convention : Reuss Voigt Hill
#
# Bulk Modulus (GPa) = 37.24534 53.55665 45.40100
# Shear Modulus (GPa) = 33.63174 15.51822 24.57498
#
# Velocity S-wave (km/s) = 4.31042 2.92797 3.68461
# Velocity P-wave (km/s) = 6.73417 6.40452 6.57141
#
# Compressibility (1/GPa) = 0.02684900
#
# Stress axis : x y z
#
# Youngs Moduli (GPa) = 97.99532 27.05520 73.95248
#
# Poissons Ratio (x) = 0.11051 0.22681
# Poissons Ratio (y) = 0.40025 0.72239
# Poissons Ratio (z) = 0.30054 0.26428
#
# Static dielectric constant tensor:
#      x y z
#    x 1.675020 0.000000 0.000000 
#    y 0.000000 1.596580 0.000000 
#    z 0.000000 0.000000 1.662820 
# 
# From -- ./inp_files/63028.got.cif
#   From: 2010.05.17/outbox.ucp.g08.bks.cvg/sg65_32_cif.got.tgz:63028.got - 2010.06.11 16:39:57.
