data_PCOD9494103
_publ_section_title
;
Structure prediction by ZEFSAII (Michael W. Deem and Ramdas Pophale) SiO2 
 PCOD9494103
Probable space group: C M M M
;
_chemical_formula_sum "Si O2"
_cell_formula_units_Z 88
_cell_length_a 24.415439
_cell_length_b 19.775380
_cell_length_c 8.931930
_cell_angle_alpha 90.000000
_cell_angle_beta 90.000000
_cell_angle_gamma 90.000000
_cell_volume 4312.555387
_symmetry_space_group_name_H-M "C M M M"
_symmetry_group_IT_number 65
_symmetry_cell_setting 'orthorhombic'
loop_
_space_group_symop_operation_xyz
x,y,z
-x,-y,z
x,-y,-z
-x,y,-z
-x,-y,-z
x,y,-z
-x,y,z
x,-y,z
1/2+x,1/2+y,z
1/2-x,1/2-y,z
1/2+x,1/2-y,-z
1/2-x,1/2+y,-z
1/2-x,1/2-y,-z
1/2+x,1/2+y,-z
1/2-x,1/2+y,z
1/2+x,1/2-y,z
loop_
_atom_site_type_symbol
_atom_site_label
_atom_site_fract_x
_atom_site_fract_y
_atom_site_fract_z
Si Si1 0.827694 0.575748 0.674982
Si Si2 0.435212 0.500000 0.180055
Si Si3 0.936339 0.767448 0.830847
Si Si4 0.368714 0.624081 0.324233
Si Si5 0.937782 0.394983 0.174333
Si Si6 0.242906 0.171473 0.178267
O O1 0.821017 0.591708 0.500000
O O2 0.805767 0.500000 0.701730
O O3 0.891156 0.576556 0.720536
O O4 0.796450 0.630122 0.774692
O O5 0.500000 0.500000 0.222082
O O6 0.403474 0.565251 0.243943
O O7 0.432476 0.500000 0.000000
O O8 0.900680 0.806440 0.711159
O O9 0.934278 0.686720 0.817072
O O10 0.000000 0.787742 0.818929
O O11 0.917239 0.785118 0.000000
O O12 0.365549 0.610272 0.500000
O O13 0.308527 0.635524 0.256789
O O14 0.000000 0.414415 0.212347
O O15 0.928091 0.413470 0.000000
O O16 0.250000 0.250000 0.223728
O O17 0.235211 0.169935 0.000000
#
# Coordination Sequence:
#
# PCOD9494103 Si02
#       6
#    16   8  16  16  16  16
#     4  11  25  42  61  89 127 164 202 254 315 374
#     4  11  25  45  67  91 125 173 224 269 318 385
#     4   9  18  35  59  87 121 160 204 254 305 363
#     4  12  25  39  61  92 128 164 204 261 325 384
#     4   9  19  37  62  91 122 160 208 256 302 362
#     4  11  25  45  69  94 122 163 216 267 317 382
#
# _framework density 20.405536000000001
#
# number of rings (size 3 to 8) (size 9 to 14) (size 15 to 20)
#    0.000    1.545    0.000    5.727    1.273   12.000 
#    0.000    3.636    0.000    0.000    0.000    0.000 
#    0.000    0.000    0.000    0.000    0.000    0.000 
#
# Total GULP energy -246060.983783 kJ/mol
# GULP energy per Si atom -5592.295086 kJ/mol
# Density = 2.035909 g / cm^3
# Si number density = 20.405536 Si / 1000 Ang^3
#
#
#
# Elastic Constant Matrix: (Units=GPa)
#
#
# Indices 1 2 3 4 5 6 
#
# 1 97.2098 37.5348 38.7673 0.0000 0.0000 0.0000
# 2 37.5348 74.0448 34.8684 0.0000 0.0000 0.0000
# 3 38.7673 34.8684 75.1729 0.0000 0.0000 0.0000
# 4 0.0000 0.0000 0.0000 15.9977 0.0000 0.0000
# 5 0.0000 0.0000 0.0000 0.0000 98.7445 0.0000
# 6 0.0000 0.0000 0.0000 0.0000 0.0000 28.1660
#
#
#
# Elastic Compliance Matrix: (Units=1/GPa)
#
#
# Indices 1 2 3 4 5 6 
#
# 1 0.014162 -0.004785 -0.005084 0.000000 0.000000 0.000000
# 2 -0.004785 0.018896 -0.006297 0.000000 0.000000 0.000000
# 3 -0.005084 -0.006297 0.018846 0.000000 0.000000 0.000000
# 4 0.000000 0.000000 0.000000 0.062509 0.000000 0.000000
# 5 0.000000 0.000000 0.000000 0.000000 0.010127 0.000000
# 6 0.000000 0.000000 0.000000 0.000000 0.000000 0.035504
#
#
# Mechanical properties :
#
#
# Convention : Reuss Voigt Hill
#
# Bulk Modulus (GPa) = 51.09497 52.08538 51.59017
# Shear Modulus (GPa) = 25.13821 37.59876 31.36849
#
# Velocity S-wave (km/s) = 3.51370 4.29718 3.92504
# Velocity P-wave (km/s) = 6.44636 7.08531 6.77337
#
# Compressibility (1/GPa) = 0.01957140
#
# Stress axis : x y z
#
# Youngs Moduli (GPa) = 70.61083 52.92027 53.06294
#
# Poissons Ratio (x) = 0.25322 0.26978
# Poissons Ratio (y) = 0.33787 0.33415
# Poissons Ratio (z) = 0.35899 0.33325
#
# Static dielectric constant tensor:
#      x y z
#    x 1.734450 0.000000 0.000000 
#    y 0.000000 1.735340 0.000000 
#    z 0.000000 0.000000 1.687420 
# 
# From -- ./inp_files/13967.got.cif
#   From: 2010.05.17/outbox.cif.g08.bks.cpg/sg65_7_cif.got.tgz:13967.got - 2010.06.03 17:01:31.
