data_PCOD9494541
_publ_section_title
;
Structure prediction by ZEFSAII (Michael W. Deem and Ramdas Pophale) SiO2 
 PCOD9494541
Probable space group: C M M M
;
_chemical_formula_sum "Si O2"
_cell_formula_units_Z 64
_cell_length_a 19.243186
_cell_length_b 7.494726
_cell_length_c 23.470785
_cell_angle_alpha 90.000000
_cell_angle_beta 90.000000
_cell_angle_gamma 90.000000
_cell_volume 3385.013094
_symmetry_space_group_name_H-M "C M M M"
_symmetry_group_IT_number 65
_symmetry_cell_setting 'orthorhombic'
loop_
_space_group_symop_operation_xyz
x,y,z
-x,-y,z
x,-y,-z
-x,y,-z
-x,-y,-z
x,y,-z
-x,y,z
x,-y,z
1/2+x,1/2+y,z
1/2-x,1/2-y,z
1/2+x,1/2-y,-z
1/2-x,1/2+y,-z
1/2-x,1/2-y,-z
1/2+x,1/2+y,-z
1/2-x,1/2+y,z
1/2+x,1/2-y,z
loop_
_atom_site_type_symbol
_atom_site_label
_atom_site_fract_x
_atom_site_fract_y
_atom_site_fract_z
Si Si1 0.083000 0.710563 0.843683
Si Si2 0.084405 0.000000 0.064751
Si Si3 0.668826 0.213354 0.265346
Si Si4 0.419864 0.218714 0.500000
Si Si5 0.168822 0.286161 0.392510
O O1 0.097404 0.500000 0.852101
O O2 0.122140 0.776229 0.786976
O O3 0.000000 0.730169 0.835807
O O4 0.104272 0.827382 0.898090
O O5 0.000000 0.000000 0.062072
O O6 0.110320 0.000000 0.000000
O O7 0.750000 0.250000 0.254730
O O8 0.652371 0.283005 0.328890
O O9 0.659315 0.000000 0.267385
O O10 0.500000 0.272601 0.500000
O O11 0.379347 0.279696 0.443505
O O12 0.418337 0.000000 0.500000
O O13 0.160706 0.500000 0.390721
O O14 0.250000 0.250000 0.404131
#
# Coordination Sequence:
#
# PCOD9494541 Si02
#       5
#    16   8  16   8  16
#     4   9  18  32  50  75 103 131 167 209 253 297
#     4   9  18  32  52  78 104 133 168 204 247 299
#     4   9  18  30  47  72  96 127 164 203 251 297
#     4   9  17  28  45  69  94 125 162 202 250 295
#     4   9  17  30  47  68  93 122 164 203 241 293
#
# _framework density 18.906870000000001
#
# number of rings (size 3 to 8) (size 9 to 14) (size 15 to 20)
#    0.000    3.000    0.000    0.375    1.750    1.500 
#    0.000    7.500    0.000    2.250    0.000    0.000 
#    0.000    0.000    0.000    0.000    0.000    0.000 
#
# Total GULP energy -178423.843187 kJ/mol
# GULP energy per Si atom -5575.745100 kJ/mol
# Density = 1.886384 g / cm^3
# Si number density = 18.906870 Si / 1000 Ang^3
#
#
#
# Elastic Constant Matrix: (Units=GPa)
#
#
# Indices 1 2 3 4 5 6 
#
# 1 63.8677 23.3762 100.4679 0.0000 0.0000 0.0000
# 2 23.3762 69.1467 52.8169 0.0000 0.0000 0.0000
# 3 100.4679 52.8169 222.0500 0.0000 0.0000 0.0000
# 4 0.0000 0.0000 0.0000 1.2183 0.0000 0.0000
# 5 0.0000 0.0000 0.0000 0.0000 11.5048 0.0000
# 6 0.0000 0.0000 0.0000 0.0000 0.0000 18.2186
#
#
#
# Elastic Compliance Matrix: (Units=1/GPa)
#
#
# Indices 1 2 3 4 5 6 
#
# 1 0.054331 0.000500 -0.024702 0.000000 0.000000 0.000000
# 2 0.000500 0.017678 -0.004431 0.000000 0.000000 0.000000
# 3 -0.024702 -0.004431 0.016734 0.000000 0.000000 0.000000
# 4 0.000000 0.000000 0.000000 0.820848 0.000000 0.000000
# 5 0.000000 0.000000 0.000000 0.000000 0.086920 0.000000
# 6 0.000000 0.000000 0.000000 0.000000 0.000000 0.054889
#
#
# Mechanical properties :
#
#
# Convention : Reuss Voigt Hill
#
# Bulk Modulus (GPa) = 31.76819 78.70960 55.23890
# Shear Modulus (GPa) = 4.46765 18.08189 11.27477
#
# Velocity S-wave (km/s) = 1.53887 3.09587 2.44464
# Velocity P-wave (km/s) = 4.47173 7.38240 6.10312
#
# Compressibility (1/GPa) = 0.03147803
#
# Stress axis : x y z
#
# Youngs Moduli (GPa) = 18.40558 56.56892 59.75900
#
# Poissons Ratio (x) = -0.02831 1.47614
# Poissons Ratio (y) = -0.00921 0.26480
# Poissons Ratio (z) = 0.45465 0.25067
#
# Static dielectric constant tensor:
#      x y z
#    x 1.605110 0.000000 0.000000 
#    y 0.000000 1.702780 0.000000 
#    z 0.000000 0.000000 1.661430 
# 
# From -- ./inp_files/55339.got.cif
#   From: 2010.05.17/outbox.cif.g08.bks.cpg/sg65_28_cif.got.tgz:55339.got - 2010.06.03 17:01:31.
