data_PCOD9494270
_publ_section_title
;
Structure prediction by ZEFSAII (Michael W. Deem and Ramdas Pophale) SiO2 
 PCOD9494270
Probable space group: C M M M
;
_chemical_formula_sum "Si O2"
_cell_formula_units_Z 72
_cell_length_a 7.269058
_cell_length_b 26.228695
_cell_length_c 17.594186
_cell_angle_alpha 90.000000
_cell_angle_beta 90.000000
_cell_angle_gamma 90.000000
_cell_volume 3354.470647
_symmetry_space_group_name_H-M "C M M M"
_symmetry_group_IT_number 65
_symmetry_cell_setting 'orthorhombic'
loop_
_space_group_symop_operation_xyz
x,y,z
-x,-y,z
x,-y,-z
-x,y,-z
-x,-y,-z
x,y,-z
-x,y,z
x,-y,z
1/2+x,1/2+y,z
1/2-x,1/2-y,z
1/2+x,1/2-y,-z
1/2-x,1/2+y,-z
1/2-x,1/2-y,-z
1/2+x,1/2+y,-z
1/2-x,1/2+y,z
1/2+x,1/2-y,z
loop_
_atom_site_type_symbol
_atom_site_label
_atom_site_fract_x
_atom_site_fract_y
_atom_site_fract_z
Si Si1 0.281512 0.194090 0.247664
Si Si2 0.722983 0.055231 0.126358
Si Si3 0.276064 0.167261 0.918742
Si Si4 0.775258 0.500000 0.587132
Si Si5 0.223346 0.414378 0.297001
O O1 0.500000 0.187418 0.242301
O O2 0.250000 0.250000 0.280373
O O3 0.211486 0.191754 0.160315
O O4 0.214584 0.144482 0.293176
O O5 0.500000 0.054937 0.122270
O O6 0.778182 0.107565 0.086497
O O7 0.772295 0.061623 0.215229
O O8 0.785832 0.000000 0.098156
O O9 0.500000 0.169368 0.918354
O O10 0.213927 0.188436 0.000000
O O11 0.716156 0.500000 0.500000
O O12 0.715762 0.450185 0.634487
O O13 0.000000 0.500000 0.587130
O O14 0.000000 0.414584 0.299694
#
# Coordination Sequence:
#
# PCOD9494270 Si02
#       5
#    16  16  16   8  16
#     4   9  17  28  42  58  78 108 140 169 200 233
#     4   8  11  16  28  44  68 102 128 151 194 245
#     4   8  14  22  31  48  74 101 131 167 203 236
#     4   9  14  20  36  62  88 110 128 153 197 247
#     4   8  13  22  35  54  81 106 129 160 199 239
#
# _framework density 21.463894
#
# number of rings (size 3 to 8) (size 9 to 14) (size 15 to 20)
#    0.000    3.667    1.111    2.667    0.000    0.889 
#    0.000    2.222    0.000    0.667    0.000    0.778 
#    0.000    0.889    0.000    5.778    0.000    6.667 
#
# Total GULP energy -200757.369659 kJ/mol
# GULP energy per Si atom -5576.593602 kJ/mol
# Density = 2.141504 g / cm^3
# Si number density = 21.463894 Si / 1000 Ang^3
#
#
#
# Elastic Constant Matrix: (Units=GPa)
#
#
# Indices 1 2 3 4 5 6 
#
# 1 93.4361 -2.5498 3.9759 0.0000 0.0000 0.0000
# 2 -2.5498 172.9442 54.9196 0.0000 0.0000 0.0000
# 3 3.9759 54.9196 123.8787 0.0000 0.0000 0.0000
# 4 0.0000 0.0000 0.0000 -64.3791 0.0000 0.0000
# 5 0.0000 0.0000 0.0000 0.0000 -56.9709 0.0000
# 6 0.0000 0.0000 0.0000 0.0000 0.0000 1.8574
#
#
#
# Elastic Compliance Matrix: (Units=1/GPa)
#
#
# Indices 1 2 3 4 5 6 
#
# 1 0.010732 0.000311 -0.000483 0.000000 0.000000 0.000000
# 2 0.000311 0.006739 -0.002997 0.000000 0.000000 0.000000
# 3 -0.000483 -0.002997 0.009417 0.000000 0.000000 0.000000
# 4 0.000000 0.000000 0.000000 -0.015533 0.000000 0.000000
# 5 0.000000 0.000000 0.000000 0.000000 -0.017553 0.000000
# 6 0.000000 0.000000 0.000000 0.000000 0.000000 0.538375
#
#
# Mechanical properties :
#
#
# Convention : Reuss Voigt Hill
#
# Bulk Modulus (GPa) = 48.66201 55.88337 52.27269
# Shear Modulus (GPa) = 9.16821 -1.63763 3.76529
#
# Velocity S-wave (km/s) = 2.06899 -0.87443 1.32592
# Velocity P-wave (km/s) = 5.33183 5.00730 5.17211
#
# Compressibility (1/GPa) = 0.02054991
#
# Stress axis : x y z
#
# Youngs Moduli (GPa) = 93.18338 148.39715 106.19342
#
# Poissons Ratio (x) = -0.04622 0.05124
# Poissons Ratio (y) = -0.02902 0.31831
# Poissons Ratio (z) = 0.04496 0.44482
#
# Static dielectric constant tensor:
#      x y z
#    x 1.881230 0.000000 0.000000 
#    y 0.000000 1.803620 0.000000 
#    z 0.000000 0.000000 1.729240 
# 
# From -- ./inp_files/49742.got.cif
#   From: 2010.05.17/outbox.cif.g08.bks.cpg/sg65_25_cif.got.tgz:49742.got - 2010.06.03 17:01:31.
