data_PCOD9494028
_publ_section_title
;
Structure prediction by ZEFSAII (Michael W. Deem and Ramdas Pophale) SiO2 
 PCOD9494028
Probable space group: C M M M
;
_chemical_formula_sum "Si O2"
_cell_formula_units_Z 88
_cell_length_a 14.082839
_cell_length_b 23.126278
_cell_length_c 17.317459
_cell_angle_alpha 90.000000
_cell_angle_beta 90.000000
_cell_angle_gamma 90.000000
_cell_volume 5640.013251
_symmetry_space_group_name_H-M "C M M M"
_symmetry_group_IT_number 65
_symmetry_cell_setting 'orthorhombic'
loop_
_space_group_symop_operation_xyz
x,y,z
-x,-y,z
x,-y,-z
-x,y,-z
-x,-y,-z
x,y,-z
-x,y,z
x,-y,z
1/2+x,1/2+y,z
1/2-x,1/2-y,z
1/2+x,1/2-y,-z
1/2-x,1/2+y,-z
1/2-x,1/2-y,-z
1/2+x,1/2+y,-z
1/2-x,1/2+y,z
1/2+x,1/2-y,z
loop_
_atom_site_type_symbol
_atom_site_label
_atom_site_fract_x
_atom_site_fract_y
_atom_site_fract_z
Si Si1 0.385662 0.568775 0.500000
Si Si2 0.606769 0.780151 0.384956
Si Si3 0.795435 0.158796 0.801865
Si Si4 0.605797 0.779346 0.198018
Si Si5 0.701795 0.342116 0.616001
Si Si6 0.887004 0.931620 0.087876
O O1 0.365874 0.500000 0.500000
O O2 0.500000 0.576077 0.500000
O O3 0.340028 0.602645 0.572678
O O4 0.500000 0.792163 0.411992
O O5 0.604903 0.781126 0.291509
O O6 0.640065 0.715051 0.404814
O O7 0.690425 0.824451 0.407040
O O8 0.688410 0.176510 0.824602
O O9 0.860127 0.214651 0.821611
O O10 0.800732 0.150896 0.708996
O O11 0.831986 0.104535 0.848704
O O12 0.500000 0.791351 0.169489
O O13 0.000000 0.922393 0.096966
O O14 0.869831 0.000000 0.095454
O O15 0.861652 0.914424 0.000000
#
# Coordination Sequence:
#
# PCOD9494028 Si02
#       6
#     8  16  16  16  16  16
#     4  11  24  37  45  59  91 125 147 182 230 263
#     4   8  14  27  49  73  93 113 142 186 229 259
#     4   9  16  28  49  70  89 120 152 176 214 269
#     4   8  14  25  43  71 101 119 138 177 223 263
#     4   9  18  31  47  69  93 118 150 181 215 267
#     4   9  18  31  46  66  90 114 146 191 231 256
#
# _framework density 15.6028
#
# number of rings (size 3 to 8) (size 9 to 14) (size 15 to 20)
#    0.000    3.182    0.000    3.818    0.000    4.364 
#    0.000    5.000    0.000    3.273    0.000    6.364 
#    0.000    0.000    0.000    0.000    0.000    0.000 
#
# Total GULP energy -245057.755296 kJ/mol
# GULP energy per Si atom -5569.494439 kJ/mol
# Density = 1.556729 g / cm^3
# Si number density = 15.602800 Si / 1000 Ang^3
#
#
#
# Elastic Constant Matrix: (Units=GPa)
#
#
# Indices 1 2 3 4 5 6 
#
# 1 124.2807 63.0270 42.2461 0.0000 0.0000 0.0000
# 2 63.0270 90.1040 44.5911 0.0000 0.0000 0.0000
# 3 42.2461 44.5911 64.7128 0.0000 0.0000 0.0000
# 4 0.0000 0.0000 0.0000 33.9282 0.0000 0.0000
# 5 0.0000 0.0000 0.0000 0.0000 11.8857 0.0000
# 6 0.0000 0.0000 0.0000 0.0000 0.0000 19.2198
#
#
#
# Elastic Compliance Matrix: (Units=1/GPa)
#
#
# Indices 1 2 3 4 5 6 
#
# 1 0.012932 -0.007387 -0.003352 0.000000 0.000000 0.000000
# 2 -0.007387 0.021061 -0.009690 0.000000 0.000000 0.000000
# 3 -0.003352 -0.009690 0.024318 0.000000 0.000000 0.000000
# 4 0.000000 0.000000 0.000000 0.029474 0.000000 0.000000
# 5 0.000000 0.000000 0.000000 0.000000 0.084134 0.000000
# 6 0.000000 0.000000 0.000000 0.000000 0.000000 0.052030
#
#
# Mechanical properties :
#
#
# Convention : Reuss Voigt Hill
#
# Bulk Modulus (GPa) = 57.29681 64.31399 60.80540
# Shear Modulus (GPa) = 18.47582 21.62233 20.04907
#
# Velocity S-wave (km/s) = 3.44486 3.72667 3.58853
# Velocity P-wave (km/s) = 7.25428 7.73475 7.49837
#
# Compressibility (1/GPa) = 0.01745298
#
# Stress axis : x y z
#
# Youngs Moduli (GPa) = 77.32809 47.48211 41.12144
#
# Poissons Ratio (x) = 0.35074 0.13785
# Poissons Ratio (y) = 0.57120 0.39846
# Poissons Ratio (z) = 0.25923 0.46009
#
# Static dielectric constant tensor:
#      x y z
#    x 1.539760 0.000000 0.000000 
#    y 0.000000 1.484450 0.000000 
#    z 0.000000 0.000000 1.532570 
# 
# From -- ./inp_files/53210.got.cif
#   From: 2010.05.17/outbox.cif.g08.bks.cpg/sg65_27_cif.got.tgz:53210.got - 2010.06.03 17:01:31.
