data_PCOD9494765
_publ_section_title
;
Structure prediction by ZEFSAII (Michael W. Deem and Ramdas Pophale) SiO2 
 PCOD9494765
Probable space group: C M M M
;
_chemical_formula_sum "Si O2"
_cell_formula_units_Z 54
_cell_length_a 15.000000
_cell_length_b 24.000000
_cell_length_c 15.000000
_cell_angle_alpha 90.000000
_cell_angle_beta 90.000000
_cell_angle_gamma 90.000000
_cell_volume 5400.000000
_symmetry_space_group_name_H-M "C M M M"
_symmetry_group_IT_number 65
_symmetry_cell_setting 'orthorhombic'
loop_
_space_group_symop_operation_xyz
x,y,z
-x,-y,z
x,-y,-z
-x,y,-z
-x,-y,-z
x,y,-z
-x,y,z
x,-y,z
1/2+x,1/2+y,z
1/2-x,1/2-y,z
1/2+x,1/2-y,-z
1/2-x,1/2+y,-z
1/2-x,1/2-y,-z
1/2+x,1/2+y,-z
1/2-x,1/2+y,z
1/2+x,1/2-y,z
loop_
_atom_site_type_symbol
_atom_site_label
_atom_site_fract_x
_atom_site_fract_y
_atom_site_fract_z
Si Si1 0.853700 0.265064 0.344560
Si Si2 0.103163 0.612788 0.325131
Si Si3 0.395381 0.352614 0.262146
Si Si4 0.399659 0.934883 0.867570
Si Si5 0.785172 0.933487 0.396097
Si Si6 0.000000 0.277400 0.500000
Si Si7 0.291857 0.389071 0.100860
Si Si8 0.398924 0.500000 0.107331
O O1 0.750000 0.250000 0.365564
O O2 0.864224 0.325099 0.295837
O O3 0.891176 0.209754 0.299246
O O4 0.920514 0.275559 0.425176
O O5 0.101029 0.573587 0.238701
O O6 0.182989 0.588612 0.385691
O O7 0.000000 0.614244 0.360623
O O8 0.500000 0.367801 0.246590
O O9 0.347723 0.396032 0.331255
O O10 0.333840 0.349332 0.174066
O O11 0.500000 0.918470 0.897232
O O12 0.313848 0.900247 0.898593
O O13 0.386886 0.000000 0.890474
O O14 0.811654 0.926382 0.500000
O O15 0.789356 0.000000 0.374788
O O16 0.340976 0.446407 0.129664
O O17 0.318638 0.375117 0.000000
O O18 0.500000 0.500000 0.143315
O O19 0.405922 0.500000 0.000000
#
# Coordination Sequence:
#
# PCOD9494765 Si02
#       8
#    16  16  16  16  16   4  16   8
#     4  12  24  42  67 100 131 172 216 280 333 387
#     4  11  22  40  66  95 132 171 218 273 328 391
#     4  12  26  44  67  93 132 175 219 275 331 394
#     4  10  20  36  62  95 133 176 215 263 333 404
#     4  11  26  43  63  93 130 176 223 264 321 392
#     4  12  26  40  68 102 132 168 228 274 340 388
#     4  11  22  39  63  93 127 164 215 273 330 391
#     4   9  18  32  53  85 120 154 202 263 317 377
#
# _framework density 10.0
#
# number of rings (size 3 to 8) (size 9 to 14) (size 15 to 20)
#    0.000    0.963    5.185    1.111    3.111    2.963 
#    0.000    2.222    0.000    4.000    0.000    4.148 
#    0.000    0.000    0.000    0.000    0.000    0.000 
#
# Total GULP energy -300689.816996 kJ/mol
# GULP energy per Si atom -5568.329944 kJ/mol
# Density = 0.997724 g / cm^3
# Si number density = 10.000000 Si / 1000 Ang^3
#
#
#
# Elastic Constant Matrix: (Units=GPa)
#
#
# Indices 1 2 3 4 5 6 
#
# 1 166.5262 7.4705 27.8428 0.0000 0.0000 0.0000
# 2 7.4705 80.0315 21.8074 0.0000 0.0000 0.0000
# 3 27.8428 21.8074 93.7551 0.0000 0.0000 0.0000
# 4 0.0000 0.0000 0.0000 3.4989 0.0000 0.0000
# 5 0.0000 0.0000 0.0000 0.0000 31.5030 0.0000
# 6 0.0000 0.0000 0.0000 0.0000 0.0000 23.7614
#
#
#
# Elastic Compliance Matrix: (Units=1/GPa)
#
#
# Indices 1 2 3 4 5 6 
#
# 1 0.006319 -0.000084 -0.001857 0.000000 0.000000 0.000000
# 2 -0.000084 0.013342 -0.003078 0.000000 0.000000 0.000000
# 3 -0.001857 -0.003078 0.011934 0.000000 0.000000 0.000000
# 4 0.000000 0.000000 0.000000 0.285803 0.000000 0.000000
# 5 0.000000 0.000000 0.000000 0.000000 0.031743 0.000000
# 6 0.000000 0.000000 0.000000 0.000000 0.000000 0.042085
#
#
# Mechanical properties :
#
#
# Convention : Reuss Voigt Hill
#
# Bulk Modulus (GPa) = 46.39093 50.50601 48.44847
# Shear Modulus (GPa) = 12.24142 30.63216 21.43679
#
# Velocity S-wave (km/s) = 2.47669 3.91782 3.27745
# Velocity P-wave (km/s) = 5.60575 6.76562 6.21281
#
# Compressibility (1/GPa) = 0.02155594
#
# Stress axis : x y z
#
# Youngs Moduli (GPa) = 158.24444 74.95291 83.79663
#
# Poissons Ratio (x) = 0.00628 0.15563
# Poissons Ratio (y) = 0.01326 0.25796
# Poissons Ratio (z) = 0.29389 0.23073
#
# Static dielectric constant tensor:
#      x y z
#    x 1.710070 0.000000 0.000000 
#    y 0.000000 1.739300 0.000000 
#    z 0.000000 0.000000 1.851660 
# 
# From -- ./inp_files/40897.got.cif
#   From: 2010.05.17/outbox.ucp.g08.bks.cvg/sg65_21_cif.got.tgz:40897.got - 2010.06.11 16:39:57.
