data_PCOD9494789
_publ_section_title
;
Structure prediction by ZEFSAII (Michael W. Deem and Ramdas Pophale) SiO2 
 PCOD9494789
Probable space group: C M M M
;
_chemical_formula_sum "Si O2"
_cell_formula_units_Z 32
_cell_length_a 18.000000
_cell_length_b 9.000000
_cell_length_c 21.000000
_cell_angle_alpha 90.000000
_cell_angle_beta 90.000000
_cell_angle_gamma 90.000000
_cell_volume 3402.000000
_symmetry_space_group_name_H-M "C M M M"
_symmetry_group_IT_number 65
_symmetry_cell_setting 'orthorhombic'
loop_
_space_group_symop_operation_xyz
x,y,z
-x,-y,z
x,-y,-z
-x,y,-z
-x,-y,-z
x,y,-z
-x,y,z
x,-y,z
1/2+x,1/2+y,z
1/2-x,1/2-y,z
1/2+x,1/2-y,-z
1/2-x,1/2+y,-z
1/2-x,1/2-y,-z
1/2+x,1/2+y,-z
1/2-x,1/2+y,z
1/2+x,1/2-y,z
loop_
_atom_site_type_symbol
_atom_site_label
_atom_site_fract_x
_atom_site_fract_y
_atom_site_fract_z
Si Si1 0.587728 0.179390 0.120031
Si Si2 0.910530 0.329514 0.379118
Si Si3 0.827852 0.328173 0.246716
Si Si4 0.585172 0.500000 0.575745
Si Si5 0.331598 0.677771 0.000000
O O1 0.500000 0.209161 0.124805
O O2 0.630281 0.227675 0.183981
O O3 0.596109 0.000000 0.112304
O O4 0.624122 0.263130 0.061170
O O5 0.887146 0.500000 0.402282
O O6 0.882979 0.322086 0.306540
O O7 0.000000 0.329800 0.385301
O O8 0.884165 0.166694 0.406369
O O9 0.810161 0.500000 0.234985
O O10 0.750000 0.250000 0.259977
O O11 0.500000 0.500000 0.601045
O O12 0.583389 0.500000 0.500000
O O13 0.250000 0.750000 0.000000
O O14 0.326088 0.500000 0.000000
#
# Coordination Sequence:
#
# PCOD9494789 Si02
#       5
#    16  16  16   8   8
#     4  10  21  39  61  83 112 148 187 232 288 343
#     4   9  18  34  55  81 113 148 187 233 284 338
#     4  10  21  35  55  83 110 145 185 231 280 338
#     4   9  18  32  54  86 116 145 186 232 281 337
#     4  12  25  40  57  81 113 149 191 238 281 340
#
# _framework density 9.4062319999999993
#
# number of rings (size 3 to 8) (size 9 to 14) (size 15 to 20)
#    0.000    2.125    0.000    3.000    1.750    8.500 
#    0.000    2.500    0.000    0.750    0.000    0.000 
#    0.000    0.000    0.000    0.000    0.000    0.000 
#
# Total GULP energy -178193.076733 kJ/mol
# GULP energy per Si atom -5568.533648 kJ/mol
# Density = 0.938482 g / cm^3
# Si number density = 9.406232 Si / 1000 Ang^3
#
#
#
# Elastic Constant Matrix: (Units=GPa)
#
#
# Indices 1 2 3 4 5 6 
#
# 1 25.4192 11.7039 -4.8079 0.0000 0.0000 0.0000
# 2 11.7039 117.1626 35.4659 0.0000 0.0000 0.0000
# 3 -4.8079 35.4659 53.9151 0.0000 0.0000 0.0000
# 4 0.0000 0.0000 0.0000 30.5599 0.0000 0.0000
# 5 0.0000 0.0000 0.0000 0.0000 -59.1640 0.0000
# 6 0.0000 0.0000 0.0000 0.0000 0.0000 26.8403
#
#
#
# Elastic Compliance Matrix: (Units=1/GPa)
#
#
# Indices 1 2 3 4 5 6 
#
# 1 0.044179 -0.007000 0.008544 0.000000 0.000000 0.000000
# 2 -0.007000 0.011766 -0.008364 0.000000 0.000000 0.000000
# 3 0.008544 -0.008364 0.024812 0.000000 0.000000 0.000000
# 4 0.000000 0.000000 0.000000 0.032723 0.000000 0.000000
# 5 0.000000 0.000000 0.000000 0.000000 -0.016902 0.000000
# 6 0.000000 0.000000 0.000000 0.000000 0.000000 0.037257
#
#
# Mechanical properties :
#
#
# Convention : Reuss Voigt Hill
#
# Bulk Modulus (GPa) = 14.89915 31.24673 23.07294
# Shear Modulus (GPa) = 29.43828 9.92292 19.68060
#
# Velocity S-wave (km/s) = 3.96008 2.29915 3.23793
# Velocity P-wave (km/s) = 5.37091 4.86763 5.12545
#
# Compressibility (1/GPa) = 0.06711790
#
# Stress axis : x y z
#
# Youngs Moduli (GPa) = 22.63503 84.98876 40.30370
#
# Poissons Ratio (x) = 0.59489 -0.34436
# Poissons Ratio (y) = 0.15844 0.33711
# Poissons Ratio (z) = -0.19340 0.71086
#
# Static dielectric constant tensor:
#      x y z
#    x 1.627490 0.000000 0.000000 
#    y 0.000000 1.691890 0.000000 
#    z 0.000000 0.000000 1.636120 
# 
# From -- ./inp_files/63255.got.cif
#   From: 2010.05.17/outbox.ucp.g08.bks.cvg/sg65_32_cif.got.tgz:63255.got - 2010.06.11 16:39:57.
