data_PCOD9494110
_publ_section_title
;
Structure prediction by ZEFSAII (Michael W. Deem and Ramdas Pophale) SiO2 
 PCOD9494110
Probable space group: C M M M
;
_chemical_formula_sum "Si O2"
_cell_formula_units_Z 48
_cell_length_a 8.863313
_cell_length_b 15.594774
_cell_length_c 17.528686
_cell_angle_alpha 90.000000
_cell_angle_beta 90.000000
_cell_angle_gamma 90.000000
_cell_volume 2422.838873
_symmetry_space_group_name_H-M "C M M M"
_symmetry_group_IT_number 65
_symmetry_cell_setting 'orthorhombic'
loop_
_space_group_symop_operation_xyz
x,y,z
-x,-y,z
x,-y,-z
-x,y,-z
-x,-y,-z
x,y,-z
-x,y,z
x,-y,z
1/2+x,1/2+y,z
1/2-x,1/2-y,z
1/2+x,1/2-y,-z
1/2-x,1/2+y,-z
1/2-x,1/2-y,-z
1/2+x,1/2+y,-z
1/2-x,1/2+y,z
1/2+x,1/2-y,z
loop_
_atom_site_type_symbol
_atom_site_label
_atom_site_fract_x
_atom_site_fract_y
_atom_site_fract_z
Si Si1 0.321675 0.395753 0.666635
Si Si2 0.179033 0.660136 0.176843
Si Si3 0.816713 0.100349 0.500000
Si Si4 0.823065 0.000000 0.091091
O O1 0.500000 0.375834 0.676221
O O2 0.309561 0.500000 0.668565
O O3 0.228752 0.357392 0.735902
O O4 0.269671 0.364909 0.582514
O O5 0.250000 0.750000 0.152152
O O6 0.245950 0.583171 0.127104
O O7 0.000000 0.662406 0.171044
O O8 0.000000 0.102164 0.500000
O O9 0.772958 0.000000 0.500000
O O10 0.000000 0.000000 0.112025
O O11 0.809582 0.000000 0.000000
#
# Coordination Sequence:
#
# PCOD9494110 Si02
#       4
#    16  16   8   8
#     4   9  16  31  57  86 122 163 208 257 308 363
#     4  12  25  41  64  94 129 167 209 253 305 365
#     4   7  12  24  48  83 116 158 207 253 305 359
#     4  11  25  47  73  98 125 158 197 247 310 375
#
# _framework density 19.81147
#
# number of rings (size 3 to 8) (size 9 to 14) (size 15 to 20)
#    0.000    2.000    1.667    5.500    0.000    2.000 
#    0.000    1.667    0.000    3.000    0.000    0.000 
#    0.000    0.000    0.000    0.000    0.000    0.000 
#
# Total GULP energy -134066.353679 kJ/mol
# GULP energy per Si atom -5586.098070 kJ/mol
# Density = 1.976638 g / cm^3
# Si number density = 19.811470 Si / 1000 Ang^3
#
#
#
# Elastic Constant Matrix: (Units=GPa)
#
#
# Indices 1 2 3 4 5 6 
#
# 1 145.2911 76.6853 71.2952 0.0000 0.0000 0.0000
# 2 76.6853 130.3099 59.4219 0.0000 0.0000 0.0000
# 3 71.2952 59.4219 91.8200 0.0000 0.0000 0.0000
# 4 0.0000 0.0000 0.0000 -18.3379 0.0000 0.0000
# 5 0.0000 0.0000 0.0000 0.0000 9.3882 0.0000
# 6 0.0000 0.0000 0.0000 0.0000 0.0000 27.1005
#
#
#
# Elastic Compliance Matrix: (Units=1/GPa)
#
#
# Indices 1 2 3 4 5 6 
#
# 1 0.012535 -0.004169 -0.007036 0.000000 0.000000 0.000000
# 2 -0.004169 0.012273 -0.004706 0.000000 0.000000 0.000000
# 3 -0.007036 -0.004706 0.019399 0.000000 0.000000 0.000000
# 4 0.000000 0.000000 0.000000 -0.054532 0.000000 0.000000
# 5 0.000000 0.000000 0.000000 0.000000 0.106516 0.000000
# 6 0.000000 0.000000 0.000000 0.000000 0.000000 0.036900
#
#
# Mechanical properties :
#
#
# Convention : Reuss Voigt Hill
#
# Bulk Modulus (GPa) = 80.72574 86.91399 83.81987
# Shear Modulus (GPa) = 29.57868 14.29807 21.93837
#
# Velocity S-wave (km/s) = 3.86814 2.68937 3.33131
# Velocity P-wave (km/s) = 7.79650 7.32185 7.56290
#
# Compressibility (1/GPa) = 0.01238762
#
# Stress axis : x y z
#
# Youngs Moduli (GPa) = 79.77470 81.47948 51.54882
#
# Poissons Ratio (x) = 0.33966 0.36267
# Poissons Ratio (y) = 0.33255 0.24258
# Poissons Ratio (z) = 0.56126 0.38343
#
# Static dielectric constant tensor:
#      x y z
#    x 1.653230 0.000000 0.000000 
#    y 0.000000 1.700660 0.000000 
#    z 0.000000 0.000000 1.716060 
# 
# From -- ./inp_files/48476.got.cif
#   From: 2010.05.17/outbox.cif.g08.bks.cpg/sg65_25_cif.got.tgz:48476.got - 2010.06.03 17:01:31.
