data_PCOD9494662
_publ_section_title
;
Structure prediction by ZEFSAII (Michael W. Deem and Ramdas Pophale) SiO2 
 PCOD9494662
Probable space group: C M M M
;
_chemical_formula_sum "Si O2"
_cell_formula_units_Z 40
_cell_length_a 27.000000
_cell_length_b 18.000000
_cell_length_c 9.000000
_cell_angle_alpha 90.000000
_cell_angle_beta 90.000000
_cell_angle_gamma 90.000000
_cell_volume 4374.000000
_symmetry_space_group_name_H-M "C M M M"
_symmetry_group_IT_number 65
_symmetry_cell_setting 'orthorhombic'
loop_
_space_group_symop_operation_xyz
x,y,z
-x,-y,z
x,-y,-z
-x,y,-z
-x,-y,-z
x,y,-z
-x,y,z
x,-y,z
1/2+x,1/2+y,z
1/2-x,1/2-y,z
1/2+x,1/2-y,-z
1/2-x,1/2+y,-z
1/2-x,1/2-y,-z
1/2+x,1/2+y,-z
1/2-x,1/2+y,z
1/2+x,1/2-y,z
loop_
_atom_site_type_symbol
_atom_site_label
_atom_site_fract_x
_atom_site_fract_y
_atom_site_fract_z
Si Si1 0.145876 0.253777 0.823172
Si Si2 0.218857 0.858692 0.677936
Si Si3 0.170856 0.000000 0.169871
Si Si4 0.945534 0.170952 0.326562
Si Si5 0.321102 0.912850 0.178141
Si Si6 0.078606 0.000000 0.669023
O O1 0.193619 0.215539 0.744312
O O2 0.098464 0.208282 0.765372
O O3 0.141958 0.342914 0.794064
O O4 0.151738 0.243819 0.000000
O O5 0.218316 0.854735 0.500000
O O6 0.186739 0.927079 0.741003
O O7 0.272423 0.883239 0.738029
O O8 0.112542 0.000000 0.185742
O O9 0.188830 0.000000 0.000000
O O10 0.937755 0.190671 0.500000
O O11 0.000000 0.197149 0.278962
O O12 0.946073 0.080895 0.323033
O O13 0.332170 0.000000 0.218906
O O14 0.312076 0.913615 0.000000
O O15 0.102000 0.000000 0.500000
#
# Coordination Sequence:
#
# PCOD9494662 Si02
#       6
#    16  16   8  16  16   8
#     4  11  23  38  58  84 113 148 188 233 283 333
#     4  12  23  36  56  84 116 153 190 228 276 330
#     4  12  22  33  53  81 117 157 191 229 272 318
#     4  10  21  37  58  83 113 149 187 230 282 335
#     4  10  22  40  60  81 110 149 190 234 283 334
#     4  10  19  34  56  82 113 151 188 225 269 325
#
# _framework density 9.1449470000000002
#
# number of rings (size 3 to 8) (size 9 to 14) (size 15 to 20)
#    0.000    1.200    3.000    4.200    0.000    5.600 
#    0.000    0.000    0.000    2.400    0.000    4.200 
#    0.000    0.000    0.000    0.000    0.000    0.000 
#
# Total GULP energy -222907.650406 kJ/mol
# GULP energy per Si atom -5572.691260 kJ/mol
# Density = 0.912413 g / cm^3
# Si number density = 9.144947 Si / 1000 Ang^3
#
#
#
# Elastic Constant Matrix: (Units=GPa)
#
#
# Indices 1 2 3 4 5 6 
#
# 1 66.9641 38.7858 32.1607 0.0000 0.0000 0.0000
# 2 38.7858 156.7132 44.7209 0.0000 0.0000 0.0000
# 3 32.1607 44.7209 67.5437 0.0000 0.0000 0.0000
# 4 0.0000 0.0000 0.0000 14.2603 0.0000 0.0000
# 5 0.0000 0.0000 0.0000 0.0000 25.8281 0.0000
# 6 0.0000 0.0000 0.0000 0.0000 0.0000 11.7651
#
#
#
# Elastic Compliance Matrix: (Units=1/GPa)
#
#
# Indices 1 2 3 4 5 6 
#
# 1 0.020307 -0.002795 -0.007819 0.000000 0.000000 0.000000
# 2 -0.002795 0.008252 -0.004133 0.000000 0.000000 0.000000
# 3 -0.007819 -0.004133 0.021265 0.000000 0.000000 0.000000
# 4 0.000000 0.000000 0.000000 0.070125 0.000000 0.000000
# 5 0.000000 0.000000 0.000000 0.000000 0.038717 0.000000
# 6 0.000000 0.000000 0.000000 0.000000 0.000000 0.084997
#
#
# Mechanical properties :
#
#
# Convention : Reuss Voigt Hill
#
# Bulk Modulus (GPa) = 49.18645 58.06175 53.62410
# Shear Modulus (GPa) = 17.86140 22.07430 19.96785
#
# Velocity S-wave (km/s) = 3.12841 3.47783 3.30774
# Velocity P-wave (km/s) = 6.32458 6.92396 6.63105
#
# Compressibility (1/GPa) = 0.02033080
#
# Stress axis : x y z
#
# Youngs Moduli (GPa) = 49.24363 121.17953 47.02632
#
# Poissons Ratio (x) = 0.33866 0.36769
# Poissons Ratio (y) = 0.13762 0.19437
# Poissons Ratio (z) = 0.38503 0.50085
#
# Static dielectric constant tensor:
#      x y z
#    x 1.677660 0.000000 0.000000 
#    y 0.000000 1.666270 0.000000 
#    z 0.000000 0.000000 1.618590 
# 
# From -- ./inp_files/9742.got.cif
#   From: 2010.05.17/outbox.ucp.g08.bks.cvg/sg65_5_cif.got.tgz:9742.got - 2010.06.11 16:39:57.
