data_PCOD9494722
_publ_section_title
;
Structure prediction by ZEFSAII (Michael W. Deem and Ramdas Pophale) SiO2 
 PCOD9494722
Probable space group: C M M M
;
_chemical_formula_sum "Si O2"
_cell_formula_units_Z 48
_cell_length_a 21.000000
_cell_length_b 9.000000
_cell_length_c 27.000000
_cell_angle_alpha 90.000000
_cell_angle_beta 90.000000
_cell_angle_gamma 90.000000
_cell_volume 5103.000000
_symmetry_space_group_name_H-M "C M M M"
_symmetry_group_IT_number 65
_symmetry_cell_setting 'orthorhombic'
loop_
_space_group_symop_operation_xyz
x,y,z
-x,-y,z
x,-y,-z
-x,y,-z
-x,-y,-z
x,y,-z
-x,y,z
x,-y,z
1/2+x,1/2+y,z
1/2-x,1/2-y,z
1/2+x,1/2-y,-z
1/2-x,1/2+y,-z
1/2-x,1/2-y,-z
1/2+x,1/2+y,-z
1/2-x,1/2+y,z
1/2+x,1/2-y,z
loop_
_atom_site_type_symbol
_atom_site_label
_atom_site_fract_x
_atom_site_fract_y
_atom_site_fract_z
Si Si1 0.423851 0.320710 0.202278
Si Si2 0.312733 0.324768 0.608466
Si Si3 0.072510 0.826137 0.940719
Si Si4 0.184746 0.822415 0.723001
Si Si5 0.322931 0.820081 0.123342
Si Si6 0.928731 0.671026 0.559467
O O1 0.500000 0.277778 0.201518
O O2 0.422980 0.500000 0.194286
O O3 0.383879 0.289878 0.252552
O O4 0.374001 0.242481 0.164235
O O5 0.304682 0.500000 0.607780
O O6 0.250000 0.250000 0.586313
O O7 0.318161 0.275862 0.665757
O O8 0.375570 0.276175 0.580734
O O9 0.134179 0.732476 0.923770
O O10 0.000000 0.780690 0.923042
O O11 0.080508 0.000000 0.925697
O O12 0.070006 0.822055 0.000000
O O13 0.250000 0.750000 0.744824
O O14 0.193646 0.000000 0.726486
O O15 0.250000 0.750000 0.125136
O O16 0.317390 0.000000 0.126236
O O17 0.927818 0.675622 0.500000
O O18 0.916186 0.500000 0.574232
O O19 0.000000 0.711101 0.575923
#
# Coordination Sequence:
#
# PCOD9494722 Si02
#       6
#    16  16  16  16  16  16
#     4  10  21  38  59  82 111 145 179 219 270 325
#     4  10  20  34  54  80 109 140 177 220 265 317
#     4   9  19  38  63  88 115 148 184 223 271 326
#     4   9  19  35  55  79 107 141 178 218 266 318
#     4  12  25  39  57  82 113 148 187 230 274 321
#     4   9  19  36  55  75 103 139 177 219 269 322
#
# _framework density 9.4062319999999993
#
# number of rings (size 3 to 8) (size 9 to 14) (size 15 to 20)
#    0.000    2.167    0.000    4.000    0.000    7.667 
#    0.000    3.333    0.000    0.000    0.000    0.000 
#    0.000    0.000    0.000    0.000    0.000    0.000 
#
# Total GULP energy -267281.682790 kJ/mol
# GULP energy per Si atom -5568.368391 kJ/mol
# Density = 0.938482 g / cm^3
# Si number density = 9.406232 Si / 1000 Ang^3
#
#
#
# Elastic Constant Matrix: (Units=GPa)
#
#
# Indices 1 2 3 4 5 6 
#
# 1 178.5250 63.6806 28.8890 0.0000 0.0000 0.0000
# 2 63.6806 64.9135 18.1354 0.0000 0.0000 0.0000
# 3 28.8890 18.1354 25.6534 0.0000 0.0000 0.0000
# 4 0.0000 0.0000 0.0000 21.3921 0.0000 0.0000
# 5 0.0000 0.0000 0.0000 0.0000 34.5812 0.0000
# 6 0.0000 0.0000 0.0000 0.0000 0.0000 42.0874
#
#
#
# Elastic Compliance Matrix: (Units=1/GPa)
#
#
# Indices 1 2 3 4 5 6 
#
# 1 0.009085 -0.007544 -0.004898 0.000000 0.000000 0.000000
# 2 -0.007544 0.025461 -0.009504 0.000000 0.000000 0.000000
# 3 -0.004898 -0.009504 0.051215 0.000000 0.000000 0.000000
# 4 0.000000 0.000000 0.000000 0.046746 0.000000 0.000000
# 5 0.000000 0.000000 0.000000 0.000000 0.028917 0.000000
# 6 0.000000 0.000000 0.000000 0.000000 0.000000 0.023760
#
#
# Mechanical properties :
#
#
# Convention : Reuss Voigt Hill
#
# Bulk Modulus (GPa) = 23.88335 54.50021 39.19178
# Shear Modulus (GPa) = 20.57332 30.17127 25.37229
#
# Velocity S-wave (km/s) = 3.31055 4.00908 3.67644
# Velocity P-wave (km/s) = 5.22839 7.10376 6.23697
#
# Compressibility (1/GPa) = 0.04187017
#
# Stress axis : x y z
#
# Youngs Moduli (GPa) = 110.07109 39.27543 19.52545
#
# Poissons Ratio (x) = 0.29630 0.09563
# Poissons Ratio (y) = 0.83040 0.18557
# Poissons Ratio (z) = 0.53908 0.37327
#
# Static dielectric constant tensor:
#      x y z
#    x 1.650290 0.000000 0.000000 
#    y 0.000000 1.638850 0.000000 
#    z 0.000000 0.000000 1.744830 
# 
# From -- ./inp_files/73083.got.cif
#   From: 2010.05.17/outbox.ucp.g08.bks.cvg/sg65_37_cif.got.tgz:73083.got - 2010.06.11 16:39:57.
