data_PCOD9494200
_publ_section_title
;
Structure prediction by ZEFSAII (Michael W. Deem and Ramdas Pophale) SiO2 
 PCOD9494200
Probable space group: C M M M
;
_chemical_formula_sum "Si O2"
_cell_formula_units_Z 72
_cell_length_a 9.864015
_cell_length_b 14.537936
_cell_length_c 24.227622
_cell_angle_alpha 90.000000
_cell_angle_beta 90.000000
_cell_angle_gamma 90.000000
_cell_volume 3474.299596
_symmetry_space_group_name_H-M "C M M M"
_symmetry_group_IT_number 65
_symmetry_cell_setting 'orthorhombic'
loop_
_space_group_symop_operation_xyz
x,y,z
-x,-y,z
x,-y,-z
-x,y,-z
-x,-y,-z
x,y,-z
-x,y,z
x,-y,z
1/2+x,1/2+y,z
1/2-x,1/2-y,z
1/2+x,1/2-y,-z
1/2-x,1/2+y,-z
1/2-x,1/2-y,-z
1/2+x,1/2+y,-z
1/2-x,1/2+y,z
1/2+x,1/2-y,z
loop_
_atom_site_type_symbol
_atom_site_label
_atom_site_fract_x
_atom_site_fract_y
_atom_site_fract_z
Si Si1 0.839531 0.658884 0.559609
Si Si2 0.151156 0.392739 0.317417
Si Si3 0.843713 0.612659 0.120766
Si Si4 0.664692 0.894337 0.000000
Si Si5 0.654060 0.387384 0.222152
O O1 0.813795 0.611584 0.500000
O O2 0.750000 0.750000 0.559879
O O3 0.812186 0.611106 0.617896
O O4 0.000000 0.680219 0.560327
O O5 0.139104 0.500000 0.302777
O O6 0.266664 0.356396 0.277078
O O7 0.000000 0.351547 0.309811
O O8 0.845405 0.500000 0.119175
O O9 0.742754 0.639736 0.169214
O O10 0.000000 0.640716 0.131016
O O11 0.797910 0.644697 0.059762
O O12 0.500000 0.896478 0.000000
O O13 0.713482 0.000000 0.000000
O O14 0.500000 0.354164 0.219983
O O15 0.648635 0.500000 0.222257
#
# Coordination Sequence:
#
# PCOD9494200 Si02
#       5
#    16  16  16   8  16
#     4   9  18  32  49  68  89 113 140 171 210 255
#     4   9  17  29  45  64  85 111 144 178 210 247
#     4   8  12  19  31  45  64  94 132 170 206 246
#     4   7  10  16  27  43  61  87 128 171 204 239
#     4   9  16  24  34  51  76 104 134 170 212 253
#
# _framework density 20.723602
#
# number of rings (size 3 to 8) (size 9 to 14) (size 15 to 20)
#    0.000    3.444    0.000    2.000    0.000    4.000 
#    0.000    2.778    0.000    3.333    0.000    6.222 
#    0.000    0.000    0.000    1.000    0.000   12.889 
#
# Total GULP energy -200501.718089 kJ/mol
# GULP energy per Si atom -5569.492169 kJ/mol
# Density = 2.067643 g / cm^3
# Si number density = 20.723602 Si / 1000 Ang^3
#
#
#
# Elastic Constant Matrix: (Units=GPa)
#
#
# Indices 1 2 3 4 5 6 
#
# 1 114.7640 15.4900 121.3556 0.0000 0.0000 0.0000
# 2 15.4900 43.4700 2.8129 0.0000 0.0000 0.0000
# 3 121.3556 2.8129 207.9093 0.0000 0.0000 0.0000
# 4 0.0000 0.0000 0.0000 377.7809 0.0000 0.0000
# 5 0.0000 0.0000 0.0000 0.0000 -26.3757 0.0000
# 6 0.0000 0.0000 0.0000 0.0000 0.0000 3.6045
#
#
#
# Elastic Compliance Matrix: (Units=1/GPa)
#
#
# Indices 1 2 3 4 5 6 
#
# 1 0.025307 -0.008069 -0.014663 0.000000 0.000000 0.000000
# 2 -0.008069 0.025597 0.004364 0.000000 0.000000 0.000000
# 3 -0.014663 0.004364 0.013309 0.000000 0.000000 0.000000
# 4 0.000000 0.000000 0.000000 0.002647 0.000000 0.000000
# 5 0.000000 0.000000 0.000000 0.000000 -0.037914 0.000000
# 6 0.000000 0.000000 0.000000 0.000000 0.000000 0.277431
#
#
# Mechanical properties :
#
#
# Convention : Reuss Voigt Hill
#
# Bulk Modulus (GPa) = 36.39323 71.71780 54.05551
# Shear Modulus (GPa) = 14.19347 86.10093 50.14720
#
# Velocity S-wave (km/s) = 2.61989 6.45271 4.92449
# Velocity P-wave (km/s) = 5.17215 9.49729 7.64688
#
# Compressibility (1/GPa) = 0.02747764
#
# Stress axis : x y z
#
# Youngs Moduli (GPa) = 39.51402 39.06655 75.13558
#
# Poissons Ratio (x) = 0.31523 1.10169
# Poissons Ratio (y) = 0.31885 -0.32786
# Poissons Ratio (z) = 0.57938 -0.17047
#
# Static dielectric constant tensor:
#      x y z
#    x 1.704010 0.000000 0.000000 
#    y 0.000000 1.835030 0.000000 
#    z 0.000000 0.000000 1.780860 
# 
# From -- ./inp_files/59498.got.cif
#   From: 2010.05.17/outbox.cif.g08.bks.cpg/sg65_30_cif.got.tgz:59498.got - 2010.06.03 17:01:31.
