data_PCOD9494526
_publ_section_title
;
Structure prediction by ZEFSAII (Michael W. Deem and Ramdas Pophale) SiO2 
 PCOD9494526
Probable space group: C M M M
;
_chemical_formula_sum "Si O2"
_cell_formula_units_Z 72
_cell_length_a 16.800464
_cell_length_b 28.187440
_cell_length_c 7.587684
_cell_angle_alpha 90.000000
_cell_angle_beta 90.000000
_cell_angle_gamma 90.000000
_cell_volume 3593.239349
_symmetry_space_group_name_H-M "C M M M"
_symmetry_group_IT_number 65
_symmetry_cell_setting 'orthorhombic'
loop_
_space_group_symop_operation_xyz
x,y,z
-x,-y,z
x,-y,-z
-x,y,-z
-x,-y,-z
x,y,-z
-x,y,z
x,-y,z
1/2+x,1/2+y,z
1/2-x,1/2-y,z
1/2+x,1/2-y,-z
1/2-x,1/2+y,-z
1/2-x,1/2-y,-z
1/2+x,1/2+y,-z
1/2-x,1/2+y,z
1/2+x,1/2-y,z
loop_
_atom_site_type_symbol
_atom_site_label
_atom_site_fract_x
_atom_site_fract_y
_atom_site_fract_z
Si Si1 0.323571 0.446418 0.213308
Si Si2 0.244965 0.196050 0.287435
Si Si3 0.162666 0.604752 0.789587
Si Si4 0.000000 0.555576 0.783985
Si Si5 0.913242 0.144807 0.708546
O O1 0.334138 0.500000 0.274145
O O2 0.239259 0.424764 0.276909
O O3 0.392139 0.410366 0.268812
O O4 0.321488 0.446590 0.000000
O O5 0.241356 0.197261 0.500000
O O6 0.250000 0.250000 0.224310
O O7 0.316590 0.159852 0.244368
O O8 0.163016 0.172731 0.218640
O O9 0.079582 0.583183 0.724307
O O10 0.161220 0.598693 0.000000
O O11 0.000000 0.500000 0.731973
O O12 0.000000 0.555858 0.000000
O O13 0.915673 0.154918 0.500000
O O14 0.000000 0.156180 0.783044
#
# Coordination Sequence:
#
# PCOD9494526 Si02
#       5
#    16  16  16   8  16
#     4   9  17  29  46  68  94 124 155 187 226 271
#     4   9  18  34  52  69  91 122 158 196 241 287
#     4   9  17  30  49  72  97 125 160 197 233 279
#     4   9  16  28  49  75 103 133 163 197 238 289
#     4   9  18  32  48  66  90 119 153 190 227 274
#
# _framework density 20.037631000000001
#
# number of rings (size 3 to 8) (size 9 to 14) (size 15 to 20)
#    0.000    3.000    0.000    0.667    0.000    4.444 
#    2.000    2.778    0.000    2.667    0.000    0.000 
#    0.000    0.000    0.000    0.000    0.000    0.000 
#
# Total GULP energy -200716.905004 kJ/mol
# GULP energy per Si atom -5575.469583 kJ/mol
# Density = 1.999202 g / cm^3
# Si number density = 20.037631 Si / 1000 Ang^3
#
#
#
# Elastic Constant Matrix: (Units=GPa)
#
#
# Indices 1 2 3 4 5 6 
#
# 1 138.9019 68.5870 3.9623 0.0000 0.0000 0.0000
# 2 68.5870 151.7539 -6.9941 0.0000 0.0000 0.0000
# 3 3.9623 -6.9941 43.1063 0.0000 0.0000 0.0000
# 4 0.0000 0.0000 0.0000 20.0044 0.0000 0.0000
# 5 0.0000 0.0000 0.0000 0.0000 11.8103 0.0000
# 6 0.0000 0.0000 0.0000 0.0000 0.0000 14.9621
#
#
#
# Elastic Compliance Matrix: (Units=1/GPa)
#
#
# Indices 1 2 3 4 5 6 
#
# 1 0.009371 -0.004307 -0.001560 0.000000 0.000000 0.000000
# 2 -0.004307 0.008619 0.001794 0.000000 0.000000 0.000000
# 3 -0.001560 0.001794 0.023633 0.000000 0.000000 0.000000
# 4 0.000000 0.000000 0.000000 0.049989 0.000000 0.000000
# 5 0.000000 0.000000 0.000000 0.000000 0.084672 0.000000
# 6 0.000000 0.000000 0.000000 0.000000 0.000000 0.066835
#
#
# Mechanical properties :
#
#
# Convention : Reuss Voigt Hill
#
# Bulk Modulus (GPa) = 29.87147 51.65250 40.76199
# Shear Modulus (GPa) = 19.05318 27.23583 23.14451
#
# Velocity S-wave (km/s) = 3.08696 3.69078 3.40229
# Velocity P-wave (km/s) = 5.25793 6.63296 5.98507
#
# Compressibility (1/GPa) = 0.03347676
#
# Stress axis : x y z
#
# Youngs Moduli (GPa) = 106.71714 116.02360 42.31373
#
# Poissons Ratio (x) = 0.49972 0.06602
# Poissons Ratio (y) = 0.45964 -0.07593
# Poissons Ratio (z) = 0.16650 -0.20819
#
# Static dielectric constant tensor:
#      x y z
#    x 1.708840 0.000000 0.000000 
#    y 0.000000 1.691060 0.000000 
#    z 0.000000 0.000000 1.769320 
# 
# From -- ./inp_files/7257.got.cif
#   From: 2010.05.17/outbox.cif.g08.bks.cpg/sg65_4_cif.got.tgz:7257.got - 2010.06.03 17:01:31.
