data_PCOD9494997
_publ_section_title
;
Structure prediction by ZEFSAII (Michael W. Deem and Ramdas Pophale) SiO2 
 PCOD9494997
Probable space group: C C C M
;
_chemical_formula_sum "Si O2"
_cell_formula_units_Z 96
_cell_length_a 30.606697
_cell_length_b 34.517494
_cell_length_c 8.081072
_cell_angle_alpha 90.000000
_cell_angle_beta 90.000000
_cell_angle_gamma 90.000000
_cell_volume 8537.381691
_symmetry_space_group_name_H-M "C C C M"
_symmetry_group_IT_number 66
_symmetry_cell_setting 'orthorhombic'
loop_
_space_group_symop_operation_xyz
x,y,z
-x,-y,z
x,-y,1/2-z
-x,y,1/2-z
-x,-y,-z
x,y,-z
-x,y,1/2+z
x,-y,1/2+z
1/2+x,1/2+y,z
1/2-x,1/2-y,z
1/2+x,1/2-y,1/2-z
1/2-x,1/2+y,1/2-z
1/2-x,1/2-y,-z
1/2+x,1/2+y,-z
1/2-x,1/2+y,1/2+z
1/2+x,1/2-y,1/2+z
loop_
_atom_site_type_symbol
_atom_site_label
_atom_site_fract_x
_atom_site_fract_y
_atom_site_fract_z
Si Si1 0.449874 0.543305 0.197183
Si Si2 0.765583 0.813630 0.500000
Si Si3 0.397927 0.382010 0.299334
Si Si4 0.368895 0.258757 0.184272
Si Si5 0.179179 0.267245 0.500000
Si Si6 0.685834 0.339478 0.685039
Si Si7 0.949981 0.195744 0.197860
O O1 0.437209 0.500000 0.250000
O O2 0.500000 0.549958 0.250000
O O3 0.418716 0.577660 0.258503
O O4 0.449028 0.544723 0.000000
O O5 0.793906 0.773571 0.500000
O O6 0.715447 0.800596 0.500000
O O7 0.779954 0.836229 0.665473
O O8 0.393615 0.382238 0.500000
O O9 0.351108 0.371361 0.224006
O O10 0.430798 0.346683 0.257156
O O11 0.350087 0.233560 0.334683
O O12 0.340549 0.298590 0.186606
O O13 0.418119 0.272797 0.219843
O O14 0.364836 0.241900 0.000000
O O15 0.703984 0.344549 0.500000
O O16 0.000000 0.199137 0.250000
O O17 0.945884 0.199556 0.000000
#
# Coordination Sequence:
#
# PCOD9494997 Si02
#       7
#    16   8  16  16   8  16  16
#     4  10  19  29  39  50  66  86 109 138 168 203
#     4   9  16  26  38  52  72  81 108 128 152 193
#     4   9  17  28  39  49  66  87 105 134 173 205
#     4   9  16  26  36  49  67  86 109 130 156 192
#     4   9  16  26  38  50  66  94 100 128 160 185
#     4   9  16  25  39  53  67  85 103 129 159 193
#     4  10  17  25  36  50  66  84 109 139 169 199
#
# _framework density 11.244666
#
# number of rings (size 3 to 8) (size 9 to 14) (size 15 to 20)
#    0.000    2.667    1.667    2.000    0.000    2.667 
#    0.000    3.333    0.000    0.000    0.000    0.000 
#    0.000    0.000    0.000    0.000    0.000    0.000 
#
# Total GULP energy -267335.659096 kJ/mol
# GULP energy per Si atom -5569.492898 kJ/mol
# Density = 1.121907 g / cm^3
# Si number density = 11.244666 Si / 1000 Ang^3
#
#
#
# Elastic Constant Matrix: (Units=GPa)
#
#
# Indices 1 2 3 4 5 6 
#
# 1 57.2656 34.7198 40.7370 0.0000 0.0000 0.0000
# 2 34.7198 33.5859 28.2542 0.0000 0.0000 0.0000
# 3 40.7370 28.2542 82.3194 0.0000 0.0000 0.0000
# 4 0.0000 0.0000 0.0000 -2.4022 0.0000 0.0000
# 5 0.0000 0.0000 0.0000 0.0000 10.9970 0.0000
# 6 0.0000 0.0000 0.0000 0.0000 0.0000 18.4892
#
#
#
# Elastic Compliance Matrix: (Units=1/GPa)
#
#
# Indices 1 2 3 4 5 6 
#
# 1 0.052347 -0.045443 -0.010307 0.000000 0.000000 0.000000
# 2 -0.045443 0.081311 -0.005420 0.000000 0.000000 0.000000
# 3 -0.010307 -0.005420 0.019109 0.000000 0.000000 0.000000
# 4 0.000000 0.000000 0.000000 -0.416283 0.000000 0.000000
# 5 0.000000 0.000000 0.000000 0.000000 0.090934 0.000000
# 6 0.000000 0.000000 0.000000 0.000000 0.000000 0.054086
#
#
# Mechanical properties :
#
#
# Convention : Reuss Voigt Hill
#
# Bulk Modulus (GPa) = 32.86646 42.28809 37.57727
# Shear Modulus (GPa) = 357.49950 10.04745 183.77347
#
# Velocity S-wave (km/s) = 17.84988 2.99244 12.79791
# Velocity P-wave (km/s) = 21.31000 7.04475 15.87049
#
# Compressibility (1/GPa) = 0.03042615
#
# Stress axis : x y z
#
# Youngs Moduli (GPa) = 19.10346 12.29845 52.33179
#
# Poissons Ratio (x) = 0.55888 0.53940
# Poissons Ratio (y) = 0.86811 0.28364
# Poissons Ratio (z) = 0.19691 0.06666
#
# Static dielectric constant tensor:
#      x y z
#    x 1.348450 0.000000 0.000000 
#    y 0.000000 1.340720 0.000000 
#    z 0.000000 0.000000 1.398950 
# 
# From -- ./inp_files/11845.got.cif
#   From: 2010.05.17/outbox.cif.g08.bks.cpg/sg66_6_cif.got.tgz:11845.got - 2010.06.03 17:51:23.
