data_PCOD9494087
_publ_section_title
;
Structure prediction by ZEFSAII (Michael W. Deem and Ramdas Pophale) SiO2 
 PCOD9494087
Probable space group: C M M M
;
_chemical_formula_sum "Si O2"
_cell_formula_units_Z 48
_cell_length_a 10.039354
_cell_length_b 9.873812
_cell_length_c 25.776887
_cell_angle_alpha 90.000000
_cell_angle_beta 90.000000
_cell_angle_gamma 90.000000
_cell_volume 2555.177590
_symmetry_space_group_name_H-M "C M M M"
_symmetry_group_IT_number 65
_symmetry_cell_setting 'orthorhombic'
loop_
_space_group_symop_operation_xyz
x,y,z
-x,-y,z
x,-y,-z
-x,y,-z
-x,-y,-z
x,y,-z
-x,y,z
x,-y,z
1/2+x,1/2+y,z
1/2-x,1/2-y,z
1/2+x,1/2-y,-z
1/2-x,1/2+y,-z
1/2-x,1/2-y,-z
1/2+x,1/2+y,-z
1/2-x,1/2+y,z
1/2+x,1/2-y,z
loop_
_atom_site_type_symbol
_atom_site_label
_atom_site_fract_x
_atom_site_fract_y
_atom_site_fract_z
Si Si1 0.000000 0.833234 0.696870
Si Si2 0.750000 0.750000 0.372702
Si Si3 0.341032 0.500000 0.058983
Si Si4 0.838761 0.000000 0.438071
Si Si5 0.250000 0.750000 0.871509
Si Si6 0.000000 0.660829 0.198124
O O1 0.126090 0.776011 0.665323
O O2 0.000000 0.761688 0.752783
O O3 0.000000 0.000000 0.699530
O O4 0.764142 0.875025 0.411710
O O5 0.500000 0.500000 0.056280
O O6 0.296834 0.370218 0.091355
O O7 0.287848 0.500000 0.000000
O O8 0.827646 0.000000 0.500000
O O9 0.000000 0.000000 0.426096
O O10 0.369841 0.804293 0.835765
O O11 0.000000 0.500000 0.212029
#
# Coordination Sequence:
#
# PCOD9494087 Si02
#       6
#     8   8   8   8   8   8
#     4  12  28  46  69  98 136 178 225 278 333 400
#     4  12  22  48  68 100 136 174 220 280 332 388
#     4  11  24  43  70 101 135 181 221 269 340 403
#     4  11  24  45  70 101 139 179 221 273 334 399
#     4  12  24  46  68 100 138 170 226 282 328 398
#     4  12  28  44  69 100 132 178 225 278 335 396
#
# _framework density 18.785388999999999
#
# number of rings (size 3 to 8) (size 9 to 14) (size 15 to 20)
#    0.000    0.333    6.667    2.000    4.667    2.667 
#    0.000    1.667    0.000    0.000    0.000    0.000 
#    0.000    0.000    0.000    0.000    0.000    0.000 
#
# Total GULP energy -134001.623947 kJ/mol
# GULP energy per Si atom -5583.400998 kJ/mol
# Density = 1.874263 g / cm^3
# Si number density = 18.785389 Si / 1000 Ang^3
#
#
#
# Elastic Constant Matrix: (Units=GPa)
#
#
# Indices 1 2 3 4 5 6 
#
# 1 130.1291 78.4291 71.3872 0.0000 0.0000 0.0000
# 2 78.4291 204.9459 97.8168 0.0000 0.0000 0.0000
# 3 71.3872 97.8168 177.6982 0.0000 0.0000 0.0000
# 4 0.0000 0.0000 0.0000 54.7073 0.0000 0.0000
# 5 0.0000 0.0000 0.0000 0.0000 222.1565 0.0000
# 6 0.0000 0.0000 0.0000 0.0000 0.0000 69.7402
#
#
#
# Elastic Compliance Matrix: (Units=1/GPa)
#
#
# Indices 1 2 3 4 5 6 
#
# 1 0.010951 -0.002836 -0.002838 0.000000 0.000000 0.000000
# 2 -0.002836 0.007353 -0.002908 0.000000 0.000000 0.000000
# 3 -0.002838 -0.002908 0.008368 0.000000 0.000000 0.000000
# 4 0.000000 0.000000 0.000000 0.018279 0.000000 0.000000
# 5 0.000000 0.000000 0.000000 0.000000 0.004501 0.000000
# 6 0.000000 0.000000 0.000000 0.000000 0.000000 0.014339
#
#
# Mechanical properties :
#
#
# Convention : Reuss Voigt Hill
#
# Bulk Modulus (GPa) = 105.18063 112.00436 108.59250
# Shear Modulus (GPa) = 59.43524 86.99683 73.21604
#
# Velocity S-wave (km/s) = 5.63096 6.81259 6.24977
# Velocity P-wave (km/s) = 9.91913 11.02880 10.48865
#
# Compressibility (1/GPa) = 0.00950745
#
# Stress axis : x y z
#
# Youngs Moduli (GPa) = 91.31576 136.00625 119.49643
#
# Poissons Ratio (x) = 0.38573 0.33915
# Poissons Ratio (y) = 0.25898 0.34749
# Poissons Ratio (z) = 0.25917 0.39550
#
# Static dielectric constant tensor:
#      x y z
#    x 1.633410 0.000000 0.000000 
#    y 0.000000 1.589980 0.000000 
#    z 0.000000 0.000000 1.643220 
# 
# From -- ./inp_files/76350.got.cif
#   From: 2010.05.17/outbox.cif.g08.bks.cpg/sg65_39_cif.got.tgz:76350.got - 2010.06.03 17:01:31.
