data_PCOD9494919
_publ_section_title
;
Structure prediction by ZEFSAII (Michael W. Deem and Ramdas Pophale) SiO2 
 PCOD9494919
Probable space group: C C C M
;
_chemical_formula_sum "Si O2"
_cell_formula_units_Z 56
_cell_length_a 21.011598
_cell_length_b 21.132069
_cell_length_c 5.502080
_cell_angle_alpha 90.000000
_cell_angle_beta 90.000000
_cell_angle_gamma 90.000000
_cell_volume 2443.025522
_symmetry_space_group_name_H-M "C C C M"
_symmetry_group_IT_number 66
_symmetry_cell_setting 'orthorhombic'
loop_
_space_group_symop_operation_xyz
x,y,z
-x,-y,z
x,-y,1/2-z
-x,y,1/2-z
-x,-y,-z
x,y,-z
-x,y,1/2+z
x,-y,1/2+z
1/2+x,1/2+y,z
1/2-x,1/2-y,z
1/2+x,1/2-y,1/2-z
1/2-x,1/2+y,1/2-z
1/2-x,1/2-y,-z
1/2+x,1/2+y,-z
1/2-x,1/2+y,1/2+z
1/2+x,1/2-y,1/2+z
loop_
_atom_site_type_symbol
_atom_site_label
_atom_site_fract_x
_atom_site_fract_y
_atom_site_fract_z
Si Si1 0.603557 0.012937 0.000000
Si Si2 0.744123 0.963218 0.000000
Si Si3 0.645488 0.842874 0.500000
Si Si4 0.722779 0.821618 0.000000
Si Si5 0.426588 0.674810 0.500000
Si Si6 0.072358 0.224561 0.500000
Si Si7 0.572457 0.525039 0.000000
O O1 0.628204 0.084210 0.000000
O O2 0.569202 0.000000 0.750000
O O3 0.666627 0.967928 0.000000
O O4 0.763206 0.888689 0.000000
O O5 0.761837 0.000000 0.250000
O O6 0.683755 0.827614 0.252999
O O7 0.582861 0.799022 0.500000
O O8 0.750000 0.750000 0.000000
O O9 0.498814 0.702833 0.500000
O O10 0.397191 0.697591 0.752987
O O11 0.430415 0.599930 0.500000
O O12 0.500000 0.500000 0.000000
O O13 0.601439 0.500000 0.750000
#
# Coordination Sequence:
#
# PCOD9494919 Si02
#       7
#     8   8   8   8   8   8   8
#     4  10  16  30  53  76 106 120 171 234 259 298
#     4  10  16  32  54  76 101 136 170 224 272 309
#     4  12  21  35  54  83 109 139 182 212 284 304
#     4  12  23  35  53  84 117 135 172 229 280 320
#     4  10  19  35  49  78 110 139 178 208 286 312
#     4  10  20  32  52  73 107 147 170 218 254 337
#     4  10  16  25  46  74  99 116 171 232 262 297
#
# _framework density 22.922398000000001
#
# number of rings (size 3 to 8) (size 9 to 14) (size 15 to 20)
#    0.000    1.429    5.714    5.571    0.000    0.000 
#    0.000    0.000    0.000    0.000    0.000   50.000 
#    0.000    0.000    0.000    0.000    0.000    0.000 
#
# Total GULP energy -156307.728280 kJ/mol
# GULP energy per Si atom -5582.418867 kJ/mol
# Density = 2.287023 g / cm^3
# Si number density = 22.922398 Si / 1000 Ang^3
#
#
#
# Elastic Constant Matrix: (Units=GPa)
#
#
# Indices 1 2 3 4 5 6 
#
# 1 63.4953 26.1071 27.0236 0.0000 0.0000 0.0000
# 2 26.1071 206.5729 75.5883 0.0000 0.0000 0.0000
# 3 27.0236 75.5883 286.7106 0.0000 0.0000 0.0000
# 4 0.0000 0.0000 0.0000 48.4666 0.0000 0.0000
# 5 0.0000 0.0000 0.0000 0.0000 6.4470 0.0000
# 6 0.0000 0.0000 0.0000 0.0000 0.0000 -2.2420
#
#
#
# Elastic Compliance Matrix: (Units=1/GPa)
#
#
# Indices 1 2 3 4 5 6 
#
# 1 0.016944 -0.001723 -0.001143 0.000000 0.000000 0.000000
# 2 -0.001723 0.005533 -0.001296 0.000000 0.000000 0.000000
# 3 -0.001143 -0.001296 0.003937 0.000000 0.000000 0.000000
# 4 0.000000 0.000000 0.000000 0.020633 0.000000 0.000000
# 5 0.000000 0.000000 0.000000 0.000000 0.155112 0.000000
# 6 0.000000 0.000000 0.000000 0.000000 0.000000 -0.446030
#
#
# Mechanical properties :
#
#
# Convention : Reuss Voigt Hill
#
# Bulk Modulus (GPa) = 55.27976 90.46856 72.87416
# Shear Modulus (GPa) = -21.78498 39.07163 8.64333
#
# Velocity S-wave (km/s) = -3.08617 4.13306 1.94393
# Velocity P-wave (km/s) = 3.38662 7.89489 6.07447
#
# Compressibility (1/GPa) = 0.01808980
#
# Stress axis : x y z
#
# Youngs Moduli (GPa) = 59.01760 180.73261 253.98109
#
# Poissons Ratio (x) = 0.31145 0.29023
# Poissons Ratio (y) = 0.10170 0.32924
# Poissons Ratio (z) = 0.06744 0.23428
#
# Static dielectric constant tensor:
#      x y z
#    x 1.856680 0.000000 0.000000 
#    y 0.000000 1.836130 0.000000 
#    z 0.000000 0.000000 1.928600 
# 
# From -- ./inp_files/1578.got.cif
#   From: 2010.05.17/outbox.cif.g08.bks.cpg/sg66_1_cif.got.tgz:1578.got - 2010.06.03 17:51:23.
