data_PCOD9494615
_publ_section_title
;
Structure prediction by ZEFSAII (Michael W. Deem and Ramdas Pophale) SiO2 
 PCOD9494615
Probable space group: C M M M
;
_chemical_formula_sum "Si O2"
_cell_formula_units_Z 44
_cell_length_a 18.000000
_cell_length_b 9.000000
_cell_length_c 30.000000
_cell_angle_alpha 90.000000
_cell_angle_beta 90.000000
_cell_angle_gamma 90.000000
_cell_volume 4860.000000
_symmetry_space_group_name_H-M "C M M M"
_symmetry_group_IT_number 65
_symmetry_cell_setting 'orthorhombic'
loop_
_space_group_symop_operation_xyz
x,y,z
-x,-y,z
x,-y,-z
-x,y,-z
-x,-y,-z
x,y,-z
-x,y,z
x,-y,z
1/2+x,1/2+y,z
1/2-x,1/2-y,z
1/2+x,1/2-y,-z
1/2-x,1/2+y,-z
1/2-x,1/2-y,-z
1/2+x,1/2+y,-z
1/2-x,1/2+y,z
1/2+x,1/2-y,z
loop_
_atom_site_type_symbol
_atom_site_label
_atom_site_fract_x
_atom_site_fract_y
_atom_site_fract_z
Si Si1 0.332109 0.179216 0.139314
Si Si2 0.331261 0.677311 0.315299
Si Si3 0.331853 0.321592 0.583882
Si Si4 0.832640 0.178545 0.950561
Si Si5 0.087691 0.323813 0.767800
Si Si6 0.411191 0.173555 0.500000
O O1 0.250000 0.250000 0.143325
O O2 0.366752 0.247966 0.093863
O O3 0.375207 0.216411 0.184833
O O4 0.327712 0.000000 0.135083
O O5 0.324705 0.500000 0.311790
O O6 0.250000 0.750000 0.311852
O O7 0.359946 0.710992 0.365605
O O8 0.379351 0.738694 0.274586
O O9 0.327308 0.500000 0.579035
O O10 0.250000 0.250000 0.580652
O O11 0.379991 0.252631 0.544254
O O12 0.750000 0.250000 0.952121
O O13 0.827600 0.000000 0.945163
O O14 0.866109 0.207462 0.000000
O O15 0.101274 0.500000 0.761203
O O16 0.000000 0.298955 0.770675
O O17 0.500000 0.181173 0.500000
O O18 0.388415 0.000000 0.500000
#
# Coordination Sequence:
#
# PCOD9494615 Si02
#       6
#    16  16  16  16  16   8
#     4  10  19  31  50  74 100 132 170 211 256 308
#     4  10  21  37  59  85 109 138 177 219 265 316
#     4  10  21  38  60  84 111 142 178 221 266 314
#     4   9  16  26  43  69  99 128 161 205 256 306
#     4  10  22  38  54  75 106 142 177 217 265 314
#     4  11  24  39  56  81 113 149 186 221 262 313
#
# _framework density 9.0534979999999994
#
# number of rings (size 3 to 8) (size 9 to 14) (size 15 to 20)
#    0.000    2.091    0.000    4.364    0.000    8.000 
#    0.000    3.636    0.000    0.545    0.000    3.818 
#    0.000    0.000    0.000    0.000    0.000    0.000 
#
# Total GULP energy -245463.569769 kJ/mol
# GULP energy per Si atom -5578.717495 kJ/mol
# Density = 0.903289 g / cm^3
# Si number density = 9.053498 Si / 1000 Ang^3
#
#
#
# Elastic Constant Matrix: (Units=GPa)
#
#
# Indices 1 2 3 4 5 6 
#
# 1 38.3794 38.8929 65.7342 0.0000 0.0000 0.0000
# 2 38.8929 100.9894 93.3701 0.0000 0.0000 0.0000
# 3 65.7342 93.3701 220.1485 0.0000 0.0000 0.0000
# 4 0.0000 0.0000 0.0000 -199.6132 0.0000 0.0000
# 5 0.0000 0.0000 0.0000 0.0000 -3.2674 0.0000
# 6 0.0000 0.0000 0.0000 0.0000 0.0000 21.1310
#
#
#
# Elastic Compliance Matrix: (Units=1/GPa)
#
#
# Indices 1 2 3 4 5 6 
#
# 1 0.059609 -0.010694 -0.013263 0.000000 0.000000 0.000000
# 2 -0.010694 0.018208 -0.004529 0.000000 0.000000 0.000000
# 3 -0.013263 -0.004529 0.010424 0.000000 0.000000 0.000000
# 4 0.000000 0.000000 0.000000 -0.005010 0.000000 0.000000
# 5 0.000000 0.000000 0.000000 0.000000 -0.306050 0.000000
# 6 0.000000 0.000000 0.000000 0.000000 0.000000 0.047324
#
#
# Mechanical properties :
#
#
# Convention : Reuss Voigt Hill
#
# Bulk Modulus (GPa) = 31.98185 83.94576 57.96380
# Shear Modulus (GPa) = -46.25366 -25.58191 -35.91778
#
# Velocity S-wave (km/s) = -5.05965 -3.76283 -4.45864
# Velocity P-wave (km/s) = 4.05369 5.25196 2.36122
#
# Compressibility (1/GPa) = 0.03126774
#
# Stress axis : x y z
#
# Youngs Moduli (GPa) = 16.77596 54.92038 95.93619
#
# Poissons Ratio (x) = 0.58733 1.27240
# Poissons Ratio (y) = 0.17941 0.43453
# Poissons Ratio (z) = 0.22250 0.24875
#
# Static dielectric constant tensor:
#      x y z
#    x 1.589270 0.000000 0.000000 
#    y 0.000000 1.607200 0.000000 
#    z 0.000000 0.000000 1.651760 
# 
# From -- ./inp_files/77974.got.cif
#   From: 2010.05.17/outbox.ucp.g08.bks.cvg/sg65_39_cif.got.tgz:77974.got - 2010.06.11 16:39:57.
