data_PCOD9494846
_publ_section_title
;
Structure prediction by ZEFSAII (Michael W. Deem and Ramdas Pophale) SiO2 
 PCOD9494846
Probable space group: C M M M
;
_chemical_formula_sum "Si O2"
_cell_formula_units_Z 36
_cell_length_a 9.000000
_cell_length_b 15.000000
_cell_length_c 27.000000
_cell_angle_alpha 90.000000
_cell_angle_beta 90.000000
_cell_angle_gamma 90.000000
_cell_volume 3645.000000
_symmetry_space_group_name_H-M "C M M M"
_symmetry_group_IT_number 65
_symmetry_cell_setting 'orthorhombic'
loop_
_space_group_symop_operation_xyz
x,y,z
-x,-y,z
x,-y,-z
-x,y,-z
-x,-y,-z
x,y,-z
-x,y,z
x,-y,z
1/2+x,1/2+y,z
1/2-x,1/2-y,z
1/2+x,1/2-y,-z
1/2-x,1/2+y,-z
1/2-x,1/2-y,-z
1/2+x,1/2+y,-z
1/2-x,1/2+y,z
1/2+x,1/2-y,z
loop_
_atom_site_type_symbol
_atom_site_label
_atom_site_fract_x
_atom_site_fract_y
_atom_site_fract_z
Si Si1 0.169606 0.831117 0.652598
Si Si2 0.676914 0.000000 0.177799
Si Si3 0.679402 0.847104 0.107441
Si Si4 0.323956 0.893065 0.554108
Si Si5 0.166243 0.000000 0.277764
Si Si6 0.178004 0.347753 0.000000
O O1 0.250000 0.750000 0.678539
O O2 0.244421 0.849897 0.600136
O O3 0.181226 0.916222 0.686756
O O4 0.000000 0.808473 0.643986
O O5 0.733644 0.087640 0.150065
O O6 0.500000 0.000000 0.171371
O O7 0.717211 0.000000 0.234515
O O8 0.500000 0.838754 0.109989
O O9 0.750000 0.750000 0.111421
O O10 0.717397 0.887634 0.053211
O O11 0.268651 0.863960 0.500000
O O12 0.500000 0.876398 0.556545
O O13 0.303490 0.000000 0.557112
O O14 0.000000 0.000000 0.255920
O O15 0.250000 0.250000 0.000000
O O16 0.000000 0.339235 0.000000
#
# Coordination Sequence:
#
# PCOD9494846 Si02
#       6
#    16   8  16  16   8   8
#     4  11  23  40  61  86 112 145 188 232 279 333
#     4  10  22  37  56  81 107 140 184 228 276 329
#     4   9  18  33  53  80 111 144 181 221 267 323
#     4   9  18  34  58  88 120 152 184 221 270 327
#     4  10  24  44  60  78 109 143 184 235 284 331
#     4   8  14  27  49  75 108 144 176 215 263 315
#
# _framework density 9.8765429999999999
#
# number of rings (size 3 to 8) (size 9 to 14) (size 15 to 20)
#    0.000    2.444    1.111    1.333    0.000    4.889 
#    0.000    7.778    0.000    0.000    0.000    8.556 
#    0.000    0.000    0.000    0.000    0.000    0.000 
#
# Total GULP energy -200627.806138 kJ/mol
# GULP energy per Si atom -5572.994615 kJ/mol
# Density = 0.985406 g / cm^3
# Si number density = 9.876543 Si / 1000 Ang^3
#
#
#
# Elastic Constant Matrix: (Units=GPa)
#
#
# Indices 1 2 3 4 5 6 
#
# 1 22.1110 43.7569 26.6272 0.0000 0.0000 0.0000
# 2 43.7569 75.8970 9.2140 0.0000 0.0000 0.0000
# 3 26.6272 9.2140 33.1810 0.0000 0.0000 0.0000
# 4 0.0000 0.0000 0.0000 152.8503 0.0000 0.0000
# 5 0.0000 0.0000 0.0000 0.0000 20.9413 0.0000
# 6 0.0000 0.0000 0.0000 0.0000 0.0000 18.5423
#
#
#
# Elastic Compliance Matrix: (Units=1/GPa)
#
#
# Indices 1 2 3 4 5 6 
#
# 1 -0.057849 0.028683 0.038458 0.000000 0.000000 0.000000
# 2 0.028683 -0.000586 -0.022855 0.000000 0.000000 0.000000
# 3 0.038458 -0.022855 0.005622 0.000000 0.000000 0.000000
# 4 0.000000 0.000000 0.000000 0.006542 0.000000 0.000000
# 5 0.000000 0.000000 0.000000 0.000000 0.047752 0.000000
# 6 0.000000 0.000000 0.000000 0.000000 0.000000 0.053931
#
#
# Mechanical properties :
#
#
# Convention : Reuss Voigt Hill
#
# Bulk Modulus (GPa) = 27.96476 32.26503 30.11490
# Shear Modulus (GPa) = -235.39827 41.90620 -96.74604
#
# Velocity S-wave (km/s) = -10.92836 4.61097 -7.00600
# Velocity P-wave (km/s) = 12.04371 6.68713 7.08284
#
# Compressibility (1/GPa) = 0.03575929
#
# Stress axis : x y z
#
# Youngs Moduli (GPa) = -17.28630 -1705.95093 177.86592
#
# Poissons Ratio (x) = 48.93165 -6.84039
# Poissons Ratio (y) = 0.49582 4.06509
# Poissons Ratio (z) = 0.66480 -38.98915
#
# Static dielectric constant tensor:
#      x y z
#    x 1.679870 0.000000 0.000000 
#    y 0.000000 1.764240 0.000000 
#    z 0.000000 0.000000 1.710450 
# 
# From -- ./inp_files/72572.got.cif
#   From: 2010.05.17/outbox.ucp.g08.bks.cvg/sg65_37_cif.got.tgz:72572.got - 2010.06.11 16:39:57.
