data_PCOD9494532
_publ_section_title
;
Structure prediction by ZEFSAII (Michael W. Deem and Ramdas Pophale) SiO2 
 PCOD9494532
Probable space group: C M M M
;
_chemical_formula_sum "Si O2"
_cell_formula_units_Z 88
_cell_length_a 23.754723
_cell_length_b 22.307742
_cell_length_c 8.022425
_cell_angle_alpha 90.000000
_cell_angle_beta 90.000000
_cell_angle_gamma 90.000000
_cell_volume 4251.197182
_symmetry_space_group_name_H-M "C M M M"
_symmetry_group_IT_number 65
_symmetry_cell_setting 'orthorhombic'
loop_
_space_group_symop_operation_xyz
x,y,z
-x,-y,z
x,-y,-z
-x,y,-z
-x,-y,-z
x,y,-z
-x,y,z
x,-y,z
1/2+x,1/2+y,z
1/2-x,1/2-y,z
1/2+x,1/2-y,-z
1/2-x,1/2+y,-z
1/2-x,1/2-y,-z
1/2+x,1/2+y,-z
1/2-x,1/2+y,z
1/2+x,1/2-y,z
loop_
_atom_site_type_symbol
_atom_site_label
_atom_site_fract_x
_atom_site_fract_y
_atom_site_fract_z
Si Si1 0.280887 0.692886 0.308751
Si Si2 0.814223 0.065248 0.799650
Si Si3 0.413421 0.281686 0.307750
Si Si4 0.560323 0.408796 0.806190
Si Si5 0.566537 0.145495 0.688871
Si Si6 0.431005 0.930584 0.000000
O O1 0.260828 0.689466 0.500000
O O2 0.250000 0.750000 0.226963
O O3 0.279424 0.624877 0.243375
O O4 0.346433 0.710308 0.304700
O O5 0.879131 0.071475 0.734385
O O6 0.792300 0.000000 0.745010
O O7 0.818002 0.064969 0.000000
O O8 0.432350 0.288315 0.500000
O O9 0.437806 0.336599 0.204928
O O10 0.427711 0.214542 0.255619
O O11 0.500000 0.428359 0.732641
O O12 0.560230 0.426931 0.000000
O O13 0.590289 0.139841 0.500000
O O14 0.500000 0.132745 0.676144
O O15 0.589526 0.102595 0.832713
O O16 0.500000 0.927125 0.000000
O O17 0.415521 0.000000 0.000000
#
# Coordination Sequence:
#
# PCOD9494532 Si02
#       6
#    16  16  16  16  16   8
#     4   9  18  33  53  75  96 121 161 210 255 298
#     4   9  18  32  49  71 101 135 169 204 245 295
#     4   9  17  29  45  67  94 121 153 197 247 293
#     4   9  17  27  42  67  98 133 168 199 233 277
#     4   9  17  28  44  67  93 123 157 194 241 296
#     4   9  18  30  44  64  89 120 157 195 236 287
#
# _framework density 20.700051999999999
#
# number of rings (size 3 to 8) (size 9 to 14) (size 15 to 20)
#    0.000    3.000    0.000    0.545    1.273    2.545 
#    0.000    3.636    0.000    1.091    0.000   10.182 
#    0.000    0.000    0.000    0.000    0.000    0.000 
#
# Total GULP energy -245049.307374 kJ/mol
# GULP energy per Si atom -5569.302440 kJ/mol
# Density = 2.065294 g / cm^3
# Si number density = 20.700052 Si / 1000 Ang^3
#
#
#
# Elastic Constant Matrix: (Units=GPa)
#
#
# Indices 1 2 3 4 5 6 
#
# 1 23.2041 29.7661 -0.7088 0.0000 0.0000 0.0000
# 2 29.7661 187.1448 59.0634 0.0000 0.0000 0.0000
# 3 -0.7088 59.0634 48.5350 0.0000 0.0000 0.0000
# 4 0.0000 0.0000 0.0000 30.9705 0.0000 0.0000
# 5 0.0000 0.0000 0.0000 0.0000 7.0974 0.0000
# 6 0.0000 0.0000 0.0000 0.0000 0.0000 19.7587
#
#
#
# Elastic Compliance Matrix: (Units=1/GPa)
#
#
# Indices 1 2 3 4 5 6 
#
# 1 0.066422 -0.017649 0.022448 0.000000 0.000000 0.000000
# 2 -0.017649 0.013365 -0.016522 0.000000 0.000000 0.000000
# 3 0.022448 -0.016522 0.041037 0.000000 0.000000 0.000000
# 4 0.000000 0.000000 0.000000 0.032289 0.000000 0.000000
# 5 0.000000 0.000000 0.000000 0.000000 0.140898 0.000000
# 6 0.000000 0.000000 0.000000 0.000000 0.000000 0.050611
#
#
# Mechanical properties :
#
#
# Convention : Reuss Voigt Hill
#
# Bulk Modulus (GPa) = 10.26933 48.34725 29.30829
# Shear Modulus (GPa) = 12.48355 22.94953 17.71654
#
# Velocity S-wave (km/s) = 2.45841 3.33328 2.92870
# Velocity P-wave (km/s) = 3.60973 6.18233 5.06218
#
# Compressibility (1/GPa) = 0.09737737
#
# Stress axis : x y z
#
# Youngs Moduli (GPa) = 15.05528 74.82250 24.36808
#
# Poissons Ratio (x) = 1.32056 -0.54701
# Poissons Ratio (y) = 0.26571 0.40261
# Poissons Ratio (z) = -0.33796 1.23621
#
# Static dielectric constant tensor:
#      x y z
#    x 1.760300 0.000000 0.000000 
#    y 0.000000 1.755120 0.000000 
#    z 0.000000 0.000000 1.770530 
# 
# From -- ./inp_files/13987.got.cif
#   From: 2010.05.17/outbox.cif.g08.bks.cpg/sg65_7_cif.got.tgz:13987.got - 2010.06.03 17:01:31.
