data_PCOD9494527
_publ_section_title
;
Structure prediction by ZEFSAII (Michael W. Deem and Ramdas Pophale) SiO2 
 PCOD9494527
Probable space group: C M M M
;
_chemical_formula_sum "Si O2"
_cell_formula_units_Z 72
_cell_length_a 14.074828
_cell_length_b 13.505730
_cell_length_c 16.665966
_cell_angle_alpha 90.000000
_cell_angle_beta 90.000000
_cell_angle_gamma 90.000000
_cell_volume 3168.047256
_symmetry_space_group_name_H-M "C M M M"
_symmetry_group_IT_number 65
_symmetry_cell_setting 'orthorhombic'
loop_
_space_group_symop_operation_xyz
x,y,z
-x,-y,z
x,-y,-z
-x,y,-z
-x,-y,-z
x,y,-z
-x,y,z
x,-y,z
1/2+x,1/2+y,z
1/2-x,1/2-y,z
1/2+x,1/2-y,-z
1/2-x,1/2+y,-z
1/2-x,1/2-y,-z
1/2+x,1/2+y,-z
1/2-x,1/2+y,z
1/2+x,1/2-y,z
loop_
_atom_site_type_symbol
_atom_site_label
_atom_site_fract_x
_atom_site_fract_y
_atom_site_fract_z
Si Si1 0.795881 0.620772 0.834855
Si Si2 0.606586 0.382471 0.239624
Si Si3 0.891185 0.379131 0.000000
Si Si4 0.384107 0.310640 0.586921
Si Si5 0.885557 0.611302 0.663644
O O1 0.794032 0.500000 0.838371
O O2 0.688246 0.655285 0.819068
O O3 0.840359 0.653197 0.918418
O O4 0.854537 0.641221 0.753494
O O5 0.500000 0.340566 0.230185
O O6 0.599830 0.500000 0.227476
O O7 0.641161 0.366397 0.331222
O O8 0.891635 0.500000 0.000000
O O9 0.000000 0.346075 0.000000
O O10 0.351422 0.346760 0.500000
O O11 0.500000 0.314537 0.585386
O O12 0.355236 0.196676 0.602478
O O13 0.851065 0.500000 0.646504
O O14 0.000000 0.608903 0.661747
#
# Coordination Sequence:
#
# PCOD9494527 Si02
#       5
#    16  16   8  16  16
#     4   9  17  30  49  75 103 132 169 208 253 310
#     4   9  18  33  51  70  98 138 180 221 260 296
#     4   9  16  28  51  82 111 135 165 210 256 305
#     4   9  18  32  51  75 100 132 177 221 262 309
#     4   9  17  30  49  73 103 135 163 201 260 324
#
# _framework density 22.726934
#
# number of rings (size 3 to 8) (size 9 to 14) (size 15 to 20)
#    0.000    3.000    0.000    0.667    0.000    4.444 
#    0.000    7.222    0.000   10.000    0.000    4.667 
#    0.000    0.000    0.000    0.000    0.000    0.222 
#
# Total GULP energy -201133.031106 kJ/mol
# GULP energy per Si atom -5587.028642 kJ/mol
# Density = 2.267521 g / cm^3
# Si number density = 22.726934 Si / 1000 Ang^3
#
#
#
# Elastic Constant Matrix: (Units=GPa)
#
#
# Indices 1 2 3 4 5 6 
#
# 1 115.3190 9.9386 71.1498 0.0000 0.0000 0.0000
# 2 9.9386 41.4041 -5.7985 0.0000 0.0000 0.0000
# 3 71.1498 -5.7985 139.6363 0.0000 0.0000 0.0000
# 4 0.0000 0.0000 0.0000 27.3194 0.0000 0.0000
# 5 0.0000 0.0000 0.0000 0.0000 36.4593 0.0000
# 6 0.0000 0.0000 0.0000 0.0000 0.0000 21.2406
#
#
#
# Elastic Compliance Matrix: (Units=1/GPa)
#
#
# Indices 1 2 3 4 5 6 
#
# 1 0.013329 -0.004175 -0.006965 0.000000 0.000000 0.000000
# 2 -0.004175 0.025601 0.003190 0.000000 0.000000 0.000000
# 3 -0.006965 0.003190 0.010843 0.000000 0.000000 0.000000
# 4 0.000000 0.000000 0.000000 0.036604 0.000000 0.000000
# 5 0.000000 0.000000 0.000000 0.000000 0.027428 0.000000
# 6 0.000000 0.000000 0.000000 0.000000 0.000000 0.047080
#
#
# Mechanical properties :
#
#
# Convention : Reuss Voigt Hill
#
# Bulk Modulus (GPa) = 29.52117 49.65990 39.59054
# Shear Modulus (GPa) = 26.58536 31.74184 29.16360
#
# Velocity S-wave (km/s) = 3.42391 3.74125 3.58609
# Velocity P-wave (km/s) = 5.35243 6.36873 5.88257
#
# Compressibility (1/GPa) = 0.03387399
#
# Stress axis : x y z
#
# Youngs Moduli (GPa) = 75.02710 39.06080 92.22766
#
# Poissons Ratio (x) = 0.16307 0.64234
# Poissons Ratio (y) = 0.31322 -0.29423
# Poissons Ratio (z) = 0.52254 -0.12462
#
# Static dielectric constant tensor:
#      x y z
#    x 1.888850 0.000000 0.000000 
#    y 0.000000 1.884360 0.000000 
#    z 0.000000 0.000000 1.769430 
# 
# From -- ./inp_files/39769.got.cif
#   From: 2010.05.17/outbox.cif.g08.bks.cpg/sg65_20_cif.got.tgz:39769.got - 2010.06.03 17:01:31.
