data_PCOD9494812
_publ_section_title
;
Structure prediction by ZEFSAII (Michael W. Deem and Ramdas Pophale) SiO2 
 PCOD9494812
Probable space group: C M M M
;
_chemical_formula_sum "Si O2"
_cell_formula_units_Z 60
_cell_length_a 9.000000
_cell_length_b 27.000000
_cell_length_c 27.000000
_cell_angle_alpha 90.000000
_cell_angle_beta 90.000000
_cell_angle_gamma 90.000000
_cell_volume 6561.000000
_symmetry_space_group_name_H-M "C M M M"
_symmetry_group_IT_number 65
_symmetry_cell_setting 'orthorhombic'
loop_
_space_group_symop_operation_xyz
x,y,z
-x,-y,z
x,-y,-z
-x,y,-z
-x,-y,-z
x,y,-z
-x,y,z
x,-y,z
1/2+x,1/2+y,z
1/2-x,1/2-y,z
1/2+x,1/2-y,-z
1/2-x,1/2+y,-z
1/2-x,1/2-y,-z
1/2+x,1/2+y,-z
1/2-x,1/2+y,z
1/2+x,1/2-y,z
loop_
_atom_site_type_symbol
_atom_site_label
_atom_site_fract_x
_atom_site_fract_y
_atom_site_fract_z
Si Si1 0.176133 0.903364 0.097493
Si Si2 0.662288 0.443603 0.441144
Si Si3 0.167555 0.441408 0.000000
Si Si4 0.175289 0.943947 0.292490
Si Si5 0.329540 0.880405 0.626717
Si Si6 0.676486 0.300325 0.056503
Si Si7 0.320756 0.196658 0.446802
Si Si8 0.165623 0.440773 0.806157
O O1 0.240252 0.926333 0.047715
O O2 0.207649 0.845314 0.092289
O O3 0.262529 0.924898 0.143162
O O4 0.000000 0.911628 0.101024
O O5 0.665169 0.444250 0.500000
O O6 0.500000 0.421841 0.426068
O O7 0.662428 0.500000 0.423105
O O8 0.804258 0.416886 0.419574
O O9 0.153533 0.500000 0.000000
O O10 0.000000 0.419921 0.000000
O O11 0.236506 0.905128 0.330909
O O12 0.229309 0.927366 0.238931
O O13 0.000000 0.946304 0.294683
O O14 0.234273 0.000000 0.301824
O O15 0.500000 0.876230 0.641090
O O16 0.270880 0.830252 0.602834
O O17 0.500000 0.294349 0.054107
O O18 0.750000 0.250000 0.072658
O O19 0.727859 0.311652 0.000000
O O20 0.278615 0.172494 0.500000
O O21 0.500000 0.198410 0.445527
O O22 0.250000 0.250000 0.447559
O O23 0.156752 0.500000 0.806440
O O24 0.000000 0.420675 0.799500
#
# Coordination Sequence:
#
# PCOD9494812 Si02
#       8
#    16  16   8  16  16  16  16  16
#     4  11  21  35  54  78 108 141 178 218 265 320
#     4   9  18  31  45  65  97 135 171 204 241 293
#     4  11  23  35  48  73 108 143 180 219 260 311
#     4  10  21  37  56  78 104 137 178 218 258 309
#     4  11  21  32  50  76 104 132 166 212 263 309
#     4   9  18  33  51  75 105 137 175 215 255 304
#     4   9  19  35  53  75 104 137 174 215 260 314
#     4  10  21  37  56  79 107 139 177 219 263 313
#
# _framework density 9.1449470000000002
#
# number of rings (size 3 to 8) (size 9 to 14) (size 15 to 20)
#    0.000    2.067    0.667    3.400    0.000    8.533 
#    0.000    2.000    0.000    0.800    0.000    5.600 
#    0.000    0.000    0.000    0.000    0.000    0.000 
#
# Total GULP energy -334127.654679 kJ/mol
# GULP energy per Si atom -5568.794245 kJ/mol
# Density = 0.912413 g / cm^3
# Si number density = 9.144947 Si / 1000 Ang^3
#
#
#
# Elastic Constant Matrix: (Units=GPa)
#
#
# Indices 1 2 3 4 5 6 
#
# 1 -9.6564 26.4794 -0.3433 0.0000 0.0000 0.0000
# 2 26.4794 39.1281 39.3292 0.0000 0.0000 0.0000
# 3 -0.3433 39.3292 71.3888 0.0000 0.0000 0.0000
# 4 0.0000 0.0000 0.0000 15.4138 0.0000 0.0000
# 5 0.0000 0.0000 0.0000 0.0000 22.6869 0.0000
# 6 0.0000 0.0000 0.0000 0.0000 0.0000 20.8837
#
#
#
# Elastic Compliance Matrix: (Units=1/GPa)
#
#
# Indices 1 2 3 4 5 6 
#
# 1 -0.019845 0.030310 -0.016794 0.000000 0.000000 0.000000
# 2 0.030310 0.010977 -0.005902 0.000000 0.000000 0.000000
# 3 -0.016794 -0.005902 0.017178 0.000000 0.000000 0.000000
# 4 0.000000 0.000000 0.000000 0.064877 0.000000 0.000000
# 5 0.000000 0.000000 0.000000 0.000000 0.044078 0.000000
# 6 0.000000 0.000000 0.000000 0.000000 0.000000 0.047884
#
#
# Mechanical properties :
#
#
# Convention : Reuss Voigt Hill
#
# Bulk Modulus (GPa) = 42.48173 25.75457 34.11815
# Shear Modulus (GPa) = 31.69250 14.15657 22.92454
#
# Velocity S-wave (km/s) = 4.16719 2.78512 3.54418
# Velocity P-wave (km/s) = 6.81405 4.94514 5.95339
#
# Compressibility (1/GPa) = 0.02353953
#
# Stress axis : x y z
#
# Youngs Moduli (GPa) = -50.38958 91.10006 58.21295
#
# Poissons Ratio (x) = -2.76127 0.97762
# Poissons Ratio (y) = 1.52732 0.34355
# Poissons Ratio (z) = -0.84624 0.53764
#
# Static dielectric constant tensor:
#      x y z
#    x 1.643270 0.000000 0.000000 
#    y 0.000000 1.686690 0.000000 
#    z 0.000000 0.000000 1.601880 
# 
# From -- ./inp_files/73885.got.cif
#   From: 2010.05.17/outbox.ucp.g08.bks.cvg/sg65_37_cif.got.tgz:73885.got - 2010.06.11 16:39:57.
