data_PCOD9494511
_publ_section_title
;
Structure prediction by ZEFSAII (Michael W. Deem and Ramdas Pophale) SiO2 
 PCOD9494511
Probable space group: C M M M
;
_chemical_formula_sum "Si O2"
_cell_formula_units_Z 80
_cell_length_a 25.642815
_cell_length_b 14.217393
_cell_length_c 9.894513
_cell_angle_alpha 90.000000
_cell_angle_beta 90.000000
_cell_angle_gamma 90.000000
_cell_volume 3607.281970
_symmetry_space_group_name_H-M "C M M M"
_symmetry_group_IT_number 65
_symmetry_cell_setting 'orthorhombic'
loop_
_space_group_symop_operation_xyz
x,y,z
-x,-y,z
x,-y,-z
-x,y,-z
-x,-y,-z
x,y,-z
-x,y,z
x,-y,z
1/2+x,1/2+y,z
1/2-x,1/2-y,z
1/2+x,1/2-y,-z
1/2-x,1/2+y,-z
1/2-x,1/2-y,-z
1/2+x,1/2+y,-z
1/2-x,1/2+y,z
1/2+x,1/2-y,z
loop_
_atom_site_type_symbol
_atom_site_label
_atom_site_fract_x
_atom_site_fract_y
_atom_site_fract_z
Si Si1 0.061112 0.183923 0.651511
Si Si2 0.558603 0.102507 0.263293
Si Si3 0.165786 0.366366 0.144370
Si Si4 0.253253 0.635562 0.654887
Si Si5 0.652276 0.642038 0.154469
O O1 0.076863 0.154905 0.500000
O O2 0.065865 0.298672 0.658381
O O3 0.097819 0.138012 0.764382
O O4 0.000000 0.162523 0.671422
O O5 0.500000 0.108391 0.204662
O O6 0.606308 0.102646 0.160120
O O7 0.560993 0.000000 0.334934
O O8 0.200622 0.395823 0.270383
O O9 0.164098 0.253492 0.144306
O O10 0.188339 0.395711 0.000000
O O11 0.257928 0.605654 0.500000
O O12 0.250000 0.750000 0.652430
O O13 0.301577 0.606394 0.749084
O O14 0.650773 0.606813 0.000000
#
# Coordination Sequence:
#
# PCOD9494511 Si02
#       5
#    16  16  16  16  16
#     4   9  17  28  41  58  81 108 138 171 205 242
#     4   9  18  30  42  57  77 103 138 180 220 250
#     4   9  17  27  39  56  76  96 123 163 206 246
#     4   9  16  26  41  58  75  95 120 153 196 246
#     4   9  16  26  41  59  78  99 124 157 198 243
#
# _framework density 22.177364000000001
#
# number of rings (size 3 to 8) (size 9 to 14) (size 15 to 20)
#    0.000    3.000    0.000    1.200    0.000    8.800 
#    0.000    7.000    0.000    0.000    0.000    0.000 
#    0.000    0.000    0.000    0.000    0.000    1.000 
#
# Total GULP energy -222977.521851 kJ/mol
# GULP energy per Si atom -5574.438046 kJ/mol
# Density = 2.212689 g / cm^3
# Si number density = 22.177364 Si / 1000 Ang^3
#
#
#
# Elastic Constant Matrix: (Units=GPa)
#
#
# Indices 1 2 3 4 5 6 
#
# 1 129.3018 13.5632 108.6239 0.0000 0.0000 0.0000
# 2 13.5632 74.7431 7.7286 0.0000 0.0000 0.0000
# 3 108.6239 7.7286 216.8745 0.0000 0.0000 0.0000
# 4 0.0000 0.0000 0.0000 -19.5995 0.0000 0.0000
# 5 0.0000 0.0000 0.0000 0.0000 23.7885 0.0000
# 6 0.0000 0.0000 0.0000 0.0000 0.0000 -25.0847
#
#
#
# Elastic Compliance Matrix: (Units=1/GPa)
#
#
# Indices 1 2 3 4 5 6 
#
# 1 0.013581 -0.001768 -0.006739 0.000000 0.000000 0.000000
# 2 -0.001768 0.013659 0.000399 0.000000 0.000000 0.000000
# 3 -0.006739 0.000399 0.007972 0.000000 0.000000 0.000000
# 4 0.000000 0.000000 0.000000 -0.051022 0.000000 0.000000
# 5 0.000000 0.000000 0.000000 0.000000 0.042037 0.000000
# 6 0.000000 0.000000 0.000000 0.000000 0.000000 -0.039865
#
#
# Mechanical properties :
#
#
# Convention : Reuss Voigt Hill
#
# Bulk Modulus (GPa) = 52.64451 75.63897 64.14174
# Shear Modulus (GPa) = 561.20967 15.22111 288.21539
#
# Velocity S-wave (km/s) = 15.92497 2.62264 11.41234
# Velocity P-wave (km/s) = 19.02443 6.58418 14.23517
#
# Compressibility (1/GPa) = 0.01899533
#
# Stress axis : x y z
#
# Youngs Moduli (GPa) = 73.63488 73.21344 125.43846
#
# Poissons Ratio (x) = 0.12941 0.84532
# Poissons Ratio (y) = 0.13015 -0.04999
# Poissons Ratio (z) = 0.49622 -0.02918
#
# Static dielectric constant tensor:
#      x y z
#    x 1.781540 0.000000 0.000000 
#    y 0.000000 1.842880 0.000000 
#    z 0.000000 0.000000 1.790840 
# 
# From -- ./inp_files/18431.got.cif
#   From: 2010.05.17/outbox.cif.g08.bks.cpg/sg65_10_cif.got.tgz:18431.got - 2010.06.03 17:01:31.
