data_PCOD9494038
_publ_section_title
;
Structure prediction by ZEFSAII (Michael W. Deem and Ramdas Pophale) SiO2 
 PCOD9494038
Probable space group: C M M M
;
_chemical_formula_sum "Si O2"
_cell_formula_units_Z 72
_cell_length_a 21.177404
_cell_length_b 7.988828
_cell_length_c 21.180767
_cell_angle_alpha 90.000000
_cell_angle_beta 90.000000
_cell_angle_gamma 90.000000
_cell_volume 3583.418037
_symmetry_space_group_name_H-M "C M M M"
_symmetry_group_IT_number 65
_symmetry_cell_setting 'orthorhombic'
loop_
_space_group_symop_operation_xyz
x,y,z
-x,-y,z
x,-y,-z
-x,y,-z
-x,-y,-z
x,y,-z
-x,y,z
x,-y,z
1/2+x,1/2+y,z
1/2-x,1/2-y,z
1/2+x,1/2-y,-z
1/2-x,1/2+y,-z
1/2-x,1/2-y,-z
1/2+x,1/2+y,-z
1/2-x,1/2+y,z
1/2+x,1/2-y,z
loop_
_atom_site_type_symbol
_atom_site_label
_atom_site_fract_x
_atom_site_fract_y
_atom_site_fract_z
Si Si1 0.076510 0.697392 0.067791
Si Si2 0.138846 0.802151 0.429192
Si Si3 0.500000 0.188120 0.576033
Si Si4 0.317376 0.699317 0.299116
Si Si5 0.427881 0.201910 0.794226
O O1 0.093553 0.500000 0.067088
O O2 0.094145 0.766674 0.136488
O O3 0.000000 0.704248 0.068023
O O4 0.097732 0.770084 0.000000
O O5 0.148677 0.730499 0.500000
O O6 0.177151 0.728950 0.370546
O O7 0.065394 0.778743 0.409813
O O8 0.151322 0.000000 0.433681
O O9 0.500000 0.175862 0.500000
O O10 0.500000 0.000000 0.602979
O O11 0.319555 0.500000 0.303383
O O12 0.250000 0.750000 0.271245
O O13 0.377041 0.754203 0.258193
O O14 0.500000 0.259967 0.781130
O O15 0.430925 0.000000 0.798575
#
# Coordination Sequence:
#
# PCOD9494038 Si02
#       5
#    16  16   8  16  16
#     4   7  10  20  43  76 109 137 168 207 251 300
#     4   9  19  36  55  74  99 133 172 214 264 319
#     4   9  17  29  49  79 107 129 158 203 256 305
#     4  11  24  39  55  75 103 140 179 221 270 319
#     4   9  18  33  55  83 112 142 175 214 259 309
#
# _framework density 20.092548000000001
#
# number of rings (size 3 to 8) (size 9 to 14) (size 15 to 20)
#    0.000    3.000    0.000    3.000    1.556    4.000 
#    0.000    0.000    0.000    1.333    0.000    3.111 
#    0.000    0.000    0.000    0.000    0.000    0.000 
#
# Total GULP energy -200458.206267 kJ/mol
# GULP energy per Si atom -5568.283507 kJ/mol
# Density = 2.004682 g / cm^3
# Si number density = 20.092548 Si / 1000 Ang^3
#
#
#
# Elastic Constant Matrix: (Units=GPa)
#
#
# Indices 1 2 3 4 5 6 
#
# 1 86.5833 0.7073 65.0369 0.0000 0.0000 0.0000
# 2 0.7073 21.9522 14.9957 0.0000 0.0000 0.0000
# 3 65.0369 14.9957 151.3725 0.0000 0.0000 0.0000
# 4 0.0000 0.0000 0.0000 21.1699 0.0000 0.0000
# 5 0.0000 0.0000 0.0000 0.0000 -0.0254 0.0000
# 6 0.0000 0.0000 0.0000 0.0000 0.0000 9.9168
#
#
#
# Elastic Compliance Matrix: (Units=1/GPa)
#
#
# Indices 1 2 3 4 5 6 
#
# 1 0.017534 0.004914 -0.008020 0.000000 0.000000 0.000000
# 2 0.004914 0.050237 -0.007088 0.000000 0.000000 0.000000
# 3 -0.008020 -0.007088 0.010754 0.000000 0.000000 0.000000
# 4 0.000000 0.000000 0.000000 0.047237 0.000000 0.000000
# 5 0.000000 0.000000 0.000000 0.000000-39.363208 0.000000
# 6 0.000000 0.000000 0.000000 0.000000 0.000000 0.100839
#
#
# Mechanical properties :
#
#
# Convention : Reuss Voigt Hill
#
# Bulk Modulus (GPa) = 17.20099 46.82085 32.01092
# Shear Modulus (GPa) = -0.12789 18.15682 9.01446
#
# Velocity S-wave (km/s) = -0.25256 3.00935 2.12043
# Velocity P-wave (km/s) = 2.91452 5.95215 4.68629
#
# Compressibility (1/GPa) = 0.05813620
#
# Stress axis : x y z
#
# Youngs Moduli (GPa) = 57.03298 19.90570 92.98699
#
# Poissons Ratio (x) = -0.09781 0.74576
# Poissons Ratio (y) = -0.28024 0.65908
# Poissons Ratio (z) = 0.45741 0.14109
#
# Static dielectric constant tensor:
#      x y z
#    x 1.678260 0.000000 0.000000 
#    y 0.000000 1.735060 0.000000 
#    z 0.000000 0.000000 1.807590 
# 
# From -- ./inp_files/59294.got.cif
#   From: 2010.05.17/outbox.cif.g08.bks.cpg/sg65_30_cif.got.tgz:59294.got - 2010.06.03 17:01:31.
