data_PCOD9494757
_publ_section_title
;
Structure prediction by ZEFSAII (Michael W. Deem and Ramdas Pophale) SiO2 
 PCOD9494757
Probable space group: C M M M
;
_chemical_formula_sum "Si O2"
_cell_formula_units_Z 40
_cell_length_a 18.000000
_cell_length_b 9.000000
_cell_length_c 27.000000
_cell_angle_alpha 90.000000
_cell_angle_beta 90.000000
_cell_angle_gamma 90.000000
_cell_volume 4374.000000
_symmetry_space_group_name_H-M "C M M M"
_symmetry_group_IT_number 65
_symmetry_cell_setting 'orthorhombic'
loop_
_space_group_symop_operation_xyz
x,y,z
-x,-y,z
x,-y,-z
-x,y,-z
-x,-y,-z
x,y,-z
-x,y,z
x,-y,z
1/2+x,1/2+y,z
1/2-x,1/2-y,z
1/2+x,1/2-y,-z
1/2-x,1/2+y,-z
1/2-x,1/2-y,-z
1/2+x,1/2+y,-z
1/2-x,1/2+y,z
1/2+x,1/2-y,z
loop_
_atom_site_type_symbol
_atom_site_label
_atom_site_fract_x
_atom_site_fract_y
_atom_site_fract_z
Si Si1 0.668124 0.177973 0.351802
Si Si2 0.331304 0.177458 0.055546
Si Si3 0.168150 0.820621 0.749370
Si Si4 0.087796 0.824445 0.147566
Si Si5 0.589396 0.674068 0.443736
O O1 0.750000 0.250000 0.356237
O O2 0.635750 0.248942 0.301006
O O3 0.623760 0.227429 0.400500
O O4 0.672532 0.000000 0.347577
O O5 0.250000 0.250000 0.059403
O O6 0.379251 0.237242 0.100996
O O7 0.324779 0.000000 0.058788
O O8 0.360612 0.214033 0.000000
O O9 0.250000 0.750000 0.754551
O O10 0.124082 0.784671 0.799593
O O11 0.172125 0.000000 0.744081
O O12 0.000000 0.801850 0.150485
O O13 0.102593 0.000000 0.139781
O O14 0.612500 0.715343 0.500000
O O15 0.500000 0.683430 0.441951
O O16 0.609467 0.500000 0.436057
#
# Coordination Sequence:
#
# PCOD9494757 Si02
#       5
#    16  16  16  16  16
#     4  11  22  36  56  82 111 143 181 225 272 320
#     4  10  21  37  58  83 110 143 183 225 270 321
#     4  10  20  36  57  79 106 141 182 226 271 322
#     4  10  22  38  56  81 112 146 182 221 269 322
#     4   9  19  37  59  81 108 144 182 220 268 325
#
# _framework density 9.1449470000000002
#
# number of rings (size 3 to 8) (size 9 to 14) (size 15 to 20)
#    0.000    2.000    0.000    5.400    0.000    7.200 
#    0.000    5.000    0.000    0.000    0.000    0.000 
#    0.000    0.000    0.000    0.000    0.000    0.000 
#
# Total GULP energy -223295.802774 kJ/mol
# GULP energy per Si atom -5582.395069 kJ/mol
# Density = 0.912413 g / cm^3
# Si number density = 9.144947 Si / 1000 Ang^3
#
#
#
# Elastic Constant Matrix: (Units=GPa)
#
#
# Indices 1 2 3 4 5 6 
#
# 1 31.9720 41.2220 58.3217 0.0000 0.0000 0.0000
# 2 41.2220 109.3300 95.0793 0.0000 0.0000 0.0000
# 3 58.3217 95.0793 196.0430 0.0000 0.0000 0.0000
# 4 0.0000 0.0000 0.0000 28.7655 0.0000 0.0000
# 5 0.0000 0.0000 0.0000 0.0000 -276.9730 0.0000
# 6 0.0000 0.0000 0.0000 0.0000 0.0000 26.5696
#
#
#
# Elastic Compliance Matrix: (Units=1/GPa)
#
#
# Indices 1 2 3 4 5 6 
#
# 1 0.083512 -0.017089 -0.016556 0.000000 0.000000 0.000000
# 2 -0.017089 0.019316 -0.004284 0.000000 0.000000 0.000000
# 3 -0.016556 -0.004284 0.012104 0.000000 0.000000 0.000000
# 4 0.000000 0.000000 0.000000 0.034764 0.000000 0.000000
# 5 0.000000 0.000000 0.000000 0.000000 -0.003610 0.000000
# 6 0.000000 0.000000 0.000000 0.000000 0.000000 0.037637
#
#
# Mechanical properties :
#
#
# Convention : Reuss Voigt Hill
#
# Bulk Modulus (GPa) = 25.59340 80.73232 53.16286
# Shear Modulus (GPa) = 18.34157 -34.81279 -8.23561
#
# Velocity S-wave (km/s) = 3.17018 -4.36752 -2.12429
# Velocity P-wave (km/s) = 5.23675 4.33620 4.80761
#
# Compressibility (1/GPa) = 0.03907257
#
# Stress axis : x y z
#
# Youngs Moduli (GPa) = 11.97434 51.77176 82.61799
#
# Poissons Ratio (x) = 0.88475 1.36783
# Poissons Ratio (y) = 0.20463 0.35392
# Poissons Ratio (z) = 0.19825 0.22178
#
# Static dielectric constant tensor:
#      x y z
#    x 1.611720 0.000000 0.000000 
#    y 0.000000 1.613290 0.000000 
#    z 0.000000 0.000000 1.638820 
# 
# From -- ./inp_files/72833.got.cif
#   From: 2010.05.17/outbox.ucp.g08.bks.cvg/sg65_37_cif.got.tgz:72833.got - 2010.06.11 16:39:57.
