data_PCOD9494172
_publ_section_title
;
Structure prediction by ZEFSAII (Michael W. Deem and Ramdas Pophale) SiO2 
 PCOD9494172
Probable space group: C M M M
;
_chemical_formula_sum "Si O2"
_cell_formula_units_Z 88
_cell_length_a 7.774559
_cell_length_b 20.105105
_cell_length_c 29.128204
_cell_angle_alpha 90.000000
_cell_angle_beta 90.000000
_cell_angle_gamma 90.000000
_cell_volume 4552.980778
_symmetry_space_group_name_H-M "C M M M"
_symmetry_group_IT_number 65
_symmetry_cell_setting 'orthorhombic'
loop_
_space_group_symop_operation_xyz
x,y,z
-x,-y,z
x,-y,-z
-x,y,-z
-x,-y,-z
x,y,-z
-x,y,z
x,-y,z
1/2+x,1/2+y,z
1/2-x,1/2-y,z
1/2+x,1/2-y,-z
1/2-x,1/2+y,-z
1/2-x,1/2-y,-z
1/2+x,1/2+y,-z
1/2-x,1/2+y,z
1/2+x,1/2-y,z
loop_
_atom_site_type_symbol
_atom_site_label
_atom_site_fract_x
_atom_site_fract_y
_atom_site_fract_z
Si Si1 0.792825 0.673172 0.131756
Si Si2 0.798252 0.827635 0.500000
Si Si3 0.789910 0.576691 0.948359
Si Si4 0.289990 0.076417 0.314501
Si Si5 0.207166 0.673228 0.234799
Si Si6 0.294101 0.074978 0.582055
O O1 0.750000 0.750000 0.122488
O O2 0.728020 0.625073 0.091721
O O3 0.729437 0.656846 0.183288
O O4 0.000000 0.667262 0.132623
O O5 0.750000 0.750000 0.500000
O O6 0.740984 0.869133 0.544605
O O7 0.000000 0.829715 0.500000
O O8 0.739473 0.500000 0.940599
O O9 0.000000 0.578028 0.948058
O O10 0.736106 0.596155 0.000000
O O11 0.500000 0.079450 0.314574
O O12 0.227340 0.125846 0.275152
O O13 0.231945 0.092009 0.366495
O O14 0.243161 0.000000 0.304766
O O15 0.250000 0.750000 0.243937
O O16 0.000000 0.667088 0.233865
O O17 0.500000 0.069953 0.584931
O O18 0.230912 0.000000 0.569720
#
# Coordination Sequence:
#
# PCOD9494172 Si02
#       6
#    16   8  16  16  16  16
#     4   9  17  28  43  64  89 118 151 187 227 271
#     4  12  25  38  53  75 103 131 163 202 239 278
#     4   8  14  25  41  62  87 113 145 188 233 272
#     4   8  15  29  50  74  96 120 153 191 228 269
#     4   9  17  29  45  66  93 122 152 187 227 271
#     4   9  18  35  57  77 100 130 160 192 236 287
#
# _framework density 19.327997
#
# number of rings (size 3 to 8) (size 9 to 14) (size 15 to 20)
#    0.000    3.091    0.000    2.727    0.000    3.273 
#    0.000    6.364    0.000    2.182    0.000    6.364 
#    0.000    0.000    0.000    0.000    0.000    0.000 
#
# Total GULP energy -245274.596779 kJ/mol
# GULP energy per Si atom -5574.422654 kJ/mol
# Density = 1.928401 g / cm^3
# Si number density = 19.327997 Si / 1000 Ang^3
#
#
#
# Elastic Constant Matrix: (Units=GPa)
#
#
# Indices 1 2 3 4 5 6 
#
# 1 26.2881 4.2182 10.8658 0.0000 0.0000 0.0000
# 2 4.2182 145.5135 156.4413 0.0000 0.0000 0.0000
# 3 10.8658 156.4413 213.1114 0.0000 0.0000 0.0000
# 4 0.0000 0.0000 0.0000 50.9938 0.0000 0.0000
# 5 0.0000 0.0000 0.0000 0.0000 0.8604 0.0000
# 6 0.0000 0.0000 0.0000 0.0000 0.0000 21.6823
#
#
#
# Elastic Compliance Matrix: (Units=1/GPa)
#
#
# Indices 1 2 3 4 5 6 
#
# 1 0.039567 0.004848 -0.005576 0.000000 0.000000 0.000000
# 2 0.004848 0.033196 -0.024616 0.000000 0.000000 0.000000
# 3 -0.005576 -0.024616 0.023047 0.000000 0.000000 0.000000
# 4 0.000000 0.000000 0.000000 0.019610 0.000000 0.000000
# 5 0.000000 0.000000 0.000000 0.000000 1.162284 0.000000
# 6 0.000000 0.000000 0.000000 0.000000 0.000000 0.046120
#
#
# Mechanical properties :
#
#
# Convention : Reuss Voigt Hill
#
# Bulk Modulus (GPa) = 22.16232 80.88485 51.52359
# Shear Modulus (GPa) = 3.59828 28.93314 16.26571
#
# Velocity S-wave (km/s) = 1.36592 3.87325 2.90412
# Velocity P-wave (km/s) = 3.73885 7.87033 6.16121
#
# Compressibility (1/GPa) = 0.04512163
#
# Stress axis : x y z
#
# Youngs Moduli (GPa) = 25.27365 30.12383 43.38983
#
# Poissons Ratio (x) = -0.14604 0.24195
# Poissons Ratio (y) = -0.12253 1.06808
# Poissons Ratio (z) = 0.14093 0.74153
#
# Static dielectric constant tensor:
#      x y z
#    x 1.720570 0.000000 0.000000 
#    y 0.000000 1.610950 0.000000 
#    z 0.000000 0.000000 1.793080 
# 
# From -- ./inp_files/76703.got.cif
#   From: 2010.05.17/outbox.cif.g08.bks.cpg/sg65_39_cif.got.tgz:76703.got - 2010.06.03 17:01:31.
