data_PCOD9494544
_publ_section_title
;
Structure prediction by ZEFSAII (Michael W. Deem and Ramdas Pophale) SiO2 
 PCOD9494544
Probable space group: C M M M
;
_chemical_formula_sum "Si O2"
_cell_formula_units_Z 80
_cell_length_a 39.065800
_cell_length_b 7.702923
_cell_length_c 14.143387
_cell_angle_alpha 90.000000
_cell_angle_beta 90.000000
_cell_angle_gamma 90.000000
_cell_volume 4256.040028
_symmetry_space_group_name_H-M "C M M M"
_symmetry_group_IT_number 65
_symmetry_cell_setting 'orthorhombic'
loop_
_space_group_symop_operation_xyz
x,y,z
-x,-y,z
x,-y,-z
-x,y,-z
-x,-y,-z
x,y,-z
-x,y,z
x,-y,z
1/2+x,1/2+y,z
1/2-x,1/2-y,z
1/2+x,1/2-y,-z
1/2-x,1/2+y,-z
1/2-x,1/2-y,-z
1/2+x,1/2+y,-z
1/2-x,1/2+y,z
1/2+x,1/2-y,z
loop_
_atom_site_type_symbol
_atom_site_label
_atom_site_fract_x
_atom_site_fract_y
_atom_site_fract_z
Si Si1 0.643707 0.792106 0.293507
Si Si2 0.037632 0.793413 0.795796
Si Si3 0.074146 0.710282 0.606786
Si Si4 0.893338 0.209382 0.893999
Si Si5 0.287971 0.791300 0.608410
O O1 0.611456 0.728787 0.356101
O O2 0.634519 0.754448 0.185124
O O3 0.680062 0.725442 0.330632
O O4 0.644091 0.000000 0.304420
O O5 0.047130 0.766078 0.685969
O O6 0.069848 0.724403 0.855609
O O7 0.000000 0.721850 0.817548
O O8 0.036528 0.000000 0.812881
O O9 0.067507 0.769387 0.500000
O O10 0.074504 0.500000 0.606244
O O11 0.895225 0.000000 0.896494
O O12 0.886408 0.271573 0.000000
O O13 0.290422 0.726399 0.500000
O O14 0.250000 0.750000 0.644732
O O15 0.290438 0.000000 0.604777
#
# Coordination Sequence:
#
# PCOD9494544 Si02
#       5
#    16  16  16  16  16
#     4   9  17  30  48  68  91 119 150 184 220 261
#     4   9  18  31  45  63  88 116 146 182 225 271
#     4   9  17  29  45  64  87 118 153 184 216 258
#     4   9  18  32  49  68  88 112 146 188 231 271
#     4   9  17  29  46  70  99 127 152 178 212 256
#
# _framework density 18.796817000000001
#
# number of rings (size 3 to 8) (size 9 to 14) (size 15 to 20)
#    0.000    3.000    0.000    0.600    0.000    5.200 
#    0.000    4.000    0.000    4.200    0.000    5.600 
#    0.000    0.000    0.000    0.000    0.000    0.000 
#
# Total GULP energy -222995.722275 kJ/mol
# GULP energy per Si atom -5574.893057 kJ/mol
# Density = 1.875403 g / cm^3
# Si number density = 18.796817 Si / 1000 Ang^3
#
#
#
# Elastic Constant Matrix: (Units=GPa)
#
#
# Indices 1 2 3 4 5 6 
#
# 1 128.8595 2.6220 35.1124 0.0000 0.0000 0.0000
# 2 2.6220 29.0954 -6.1341 0.0000 0.0000 0.0000
# 3 35.1124 -6.1341 69.2580 0.0000 0.0000 0.0000
# 4 0.0000 0.0000 0.0000 19.1792 0.0000 0.0000
# 5 0.0000 0.0000 0.0000 0.0000 10.1526 0.0000
# 6 0.0000 0.0000 0.0000 0.0000 0.0000 17.4582
#
#
#
# Elastic Compliance Matrix: (Units=1/GPa)
#
#
# Indices 1 2 3 4 5 6 
#
# 1 0.009099 -0.001827 -0.004775 0.000000 0.000000 0.000000
# 2 -0.001827 0.035390 0.004061 0.000000 0.000000 0.000000
# 3 -0.004775 0.004061 0.017219 0.000000 0.000000 0.000000
# 4 0.000000 0.000000 0.000000 0.052140 0.000000 0.000000
# 5 0.000000 0.000000 0.000000 0.000000 0.098497 0.000000
# 6 0.000000 0.000000 0.000000 0.000000 0.000000 0.057280
#
#
# Mechanical properties :
#
#
# Convention : Reuss Voigt Hill
#
# Bulk Modulus (GPa) = 17.65948 32.26814 24.96381
# Shear Modulus (GPa) = 17.03105 22.39883 19.71494
#
# Velocity S-wave (km/s) = 3.01335 3.45574 3.24210
# Velocity P-wave (km/s) = 4.63922 5.75560 5.22730
#
# Compressibility (1/GPa) = 0.05662682
#
# Stress axis : x y z
#
# Youngs Moduli (GPa) = 109.90755 28.25624 58.07536
#
# Poissons Ratio (x) = 0.05161 0.27728
# Poissons Ratio (y) = 0.20075 -0.23582
# Poissons Ratio (z) = 0.52476 -0.11473
#
# Static dielectric constant tensor:
#      x y z
#    x 1.656220 0.000000 0.000000 
#    y 0.000000 1.703530 0.000000 
#    z 0.000000 0.000000 1.637480 
# 
# From -- ./inp_files/22843.got.cif
#   From: 2010.05.17/outbox.cif.g08.bks.cpg/sg65_12_cif.got.tgz:22843.got - 2010.06.03 17:01:31.
