data_PCOD9494831
_publ_section_title
;
Structure prediction by ZEFSAII (Michael W. Deem and Ramdas Pophale) SiO2 
 PCOD9494831
Probable space group: C M M M
;
_chemical_formula_sum "Si O2"
_cell_formula_units_Z 36
_cell_length_a 9.000000
_cell_length_b 24.000000
_cell_length_c 18.000000
_cell_angle_alpha 90.000000
_cell_angle_beta 90.000000
_cell_angle_gamma 90.000000
_cell_volume 3888.000000
_symmetry_space_group_name_H-M "C M M M"
_symmetry_group_IT_number 65
_symmetry_cell_setting 'orthorhombic'
loop_
_space_group_symop_operation_xyz
x,y,z
-x,-y,z
x,-y,-z
-x,y,-z
-x,-y,-z
x,y,-z
-x,y,z
x,-y,z
1/2+x,1/2+y,z
1/2-x,1/2-y,z
1/2+x,1/2-y,-z
1/2-x,1/2+y,-z
1/2-x,1/2-y,-z
1/2+x,1/2+y,-z
1/2-x,1/2+y,z
1/2+x,1/2-y,z
loop_
_atom_site_type_symbol
_atom_site_label
_atom_site_fract_x
_atom_site_fract_y
_atom_site_fract_z
Si Si1 0.321891 0.689034 0.584603
Si Si2 0.177091 0.189250 0.088773
Si Si3 0.671992 0.500000 0.411805
Si Si4 0.678241 0.904250 0.679339
Si Si5 0.320224 0.433799 0.162163
O O1 0.295623 0.666502 0.500000
O O2 0.500000 0.690867 0.594915
O O3 0.250000 0.750000 0.585916
O O4 0.245528 0.653501 0.649343
O O5 0.250000 0.250000 0.113765
O O6 0.219457 0.125939 0.119349
O O7 0.000000 0.194484 0.102723
O O8 0.203127 0.186737 0.000000
O O9 0.500000 0.500000 0.384899
O O10 0.668698 0.500000 0.500000
O O11 0.759872 0.447539 0.380741
O O12 0.500000 0.902881 0.682353
O O13 0.745106 0.924175 0.757825
O O14 0.500000 0.433444 0.166443
O O15 0.283081 0.500000 0.138139
#
# Coordination Sequence:
#
# PCOD9494831 Si02
#       5
#    16  16   8  16  16
#     4  10  21  38  59  82 110 146 190 242 298 356
#     4   9  19  37  62  92 122 155 198 245 297 359
#     4  11  23  39  59  81 108 147 194 243 295 348
#     4  12  24  37  56  83 115 151 192 240 292 353
#     4  10  21  38  60  84 118 161 201 248 302 357
#
# _framework density 9.2592590000000001
#
# number of rings (size 3 to 8) (size 9 to 14) (size 15 to 20)
#    0.000    1.667    1.111    3.667    0.000    7.111 
#    0.000    4.444    0.000    0.000    0.000    4.667 
#    0.000    0.000    0.000    0.000    0.000    0.000 
#
# Total GULP energy -200441.839558 kJ/mol
# GULP energy per Si atom -5567.828877 kJ/mol
# Density = 0.923818 g / cm^3
# Si number density = 9.259259 Si / 1000 Ang^3
#
#
#
# Elastic Constant Matrix: (Units=GPa)
#
#
# Indices 1 2 3 4 5 6 
#
# 1 73.6839 37.2723 25.4014 0.0000 0.0000 0.0000
# 2 37.2723 161.0475 46.9164 0.0000 0.0000 0.0000
# 3 25.4014 46.9164 55.1668 0.0000 0.0000 0.0000
# 4 0.0000 0.0000 0.0000 -3.3006 0.0000 0.0000
# 5 0.0000 0.0000 0.0000 0.0000 19.3515 0.0000
# 6 0.0000 0.0000 0.0000 0.0000 0.0000 35.6684
#
#
#
# Elastic Compliance Matrix: (Units=1/GPa)
#
#
# Indices 1 2 3 4 5 6 
#
# 1 0.016677 -0.002157 -0.005845 0.000000 0.000000 0.000000
# 2 -0.002157 0.008533 -0.006264 0.000000 0.000000 0.000000
# 3 -0.005845 -0.006264 0.026145 0.000000 0.000000 0.000000
# 4 0.000000 0.000000 0.000000 -0.302971 0.000000 0.000000
# 5 0.000000 0.000000 0.000000 0.000000 0.051676 0.000000
# 6 0.000000 0.000000 0.000000 0.000000 0.000000 0.028036
#
#
# Mechanical properties :
#
#
# Convention : Reuss Voigt Hill
#
# Bulk Modulus (GPa) = 43.81224 56.56428 50.18826
# Shear Modulus (GPa) = -36.82872 22.36439 -7.23216
#
# Velocity S-wave (km/s) = -4.46438 3.47894 -1.97834
# Velocity P-wave (km/s) = 1.69242 6.83728 4.68423
#
# Compressibility (1/GPa) = 0.02282467
#
# Stress axis : x y z
#
# Youngs Moduli (GPa) = 59.96109 117.18644 38.24809
#
# Poissons Ratio (x) = 0.25279 0.22354
# Poissons Ratio (y) = 0.12934 0.23958
# Poissons Ratio (z) = 0.35045 0.73405
#
# Static dielectric constant tensor:
#      x y z
#    x 1.614980 0.000000 0.000000 
#    y 0.000000 1.599130 0.000000 
#    z 0.000000 0.000000 1.644320 
# 
# From -- ./inp_files/49526.got.cif
#   From: 2010.05.17/outbox.ucp.g08.bks.cvg/sg65_25_cif.got.tgz:49526.got - 2010.06.11 16:39:57.
