data_PCOD9494215
_publ_section_title
;
Structure prediction by ZEFSAII (Michael W. Deem and Ramdas Pophale) SiO2 
 PCOD9494215
Probable space group: C M M M
;
_chemical_formula_sum "Si O2"
_cell_formula_units_Z 72
_cell_length_a 27.844884
_cell_length_b 7.254338
_cell_length_c 14.279758
_cell_angle_alpha 90.000000
_cell_angle_beta 90.000000
_cell_angle_gamma 90.000000
_cell_volume 2884.456854
_symmetry_space_group_name_H-M "C M M M"
_symmetry_group_IT_number 65
_symmetry_cell_setting 'orthorhombic'
loop_
_space_group_symop_operation_xyz
x,y,z
-x,-y,z
x,-y,-z
-x,y,-z
-x,-y,-z
x,y,-z
-x,y,z
x,-y,z
1/2+x,1/2+y,z
1/2-x,1/2-y,z
1/2+x,1/2-y,-z
1/2-x,1/2+y,-z
1/2-x,1/2-y,-z
1/2+x,1/2+y,-z
1/2-x,1/2+y,z
1/2+x,1/2-y,z
loop_
_atom_site_type_symbol
_atom_site_label
_atom_site_fract_x
_atom_site_fract_y
_atom_site_fract_z
Si Si1 0.443309 0.277610 0.203360
Si Si2 0.942152 0.222427 0.000000
Si Si3 0.807787 0.780280 0.100834
Si Si4 0.806062 0.780937 0.306498
Si Si5 0.398931 0.724575 0.398775
O O1 0.500000 0.240975 0.202712
O O2 0.436616 0.500000 0.202998
O O3 0.423488 0.212420 0.302706
O O4 0.423779 0.213425 0.101822
O O5 0.000000 0.257044 0.000000
O O6 0.936484 0.000000 0.000000
O O7 0.750000 0.750000 0.100074
O O8 0.821497 0.708854 0.203474
O O9 0.817046 0.000000 0.100452
O O10 0.825505 0.709618 0.000000
O O11 0.750000 0.750000 0.323712
O O12 0.843245 0.721295 0.384948
O O13 0.811515 0.000000 0.299838
O O14 0.417398 0.786336 0.500000
O O15 0.402540 0.500000 0.399476
#
# Coordination Sequence:
#
# PCOD9494215 Si02
#       5
#    16   8  16  16  16
#     4   8  13  22  36  54  77 105 134 165 206 253
#     4   7  10  18  32  50  73 100 131 165 199 243
#     4   8  13  22  36  53  73  97 127 163 202 243
#     4   9  17  29  43  59  81 110 143 178 215 251
#     4   9  17  27  37  53  78 106 139 176 209 247
#
# _framework density 24.961369999999999
#
# number of rings (size 3 to 8) (size 9 to 14) (size 15 to 20)
#    0.000    3.667    0.000    1.333    0.000    0.889 
#    2.000    2.222    0.000    0.000    0.000    0.000 
#    0.000    0.889    0.000    2.000    0.000    8.444 
#
# Total GULP energy -200822.056206 kJ/mol
# GULP energy per Si atom -5578.390450 kJ/mol
# Density = 2.490456 g / cm^3
# Si number density = 24.961370 Si / 1000 Ang^3
#
#
#
# Elastic Constant Matrix: (Units=GPa)
#
#
# Indices 1 2 3 4 5 6 
#
# 1 56.8338 -3.2663 70.6695 0.0000 0.0000 0.0000
# 2 -3.2663 109.4959 7.7317 0.0000 0.0000 0.0000
# 3 70.6695 7.7317 273.0903 0.0000 0.0000 0.0000
# 4 0.0000 0.0000 0.0000 -8.5789 0.0000 0.0000
# 5 0.0000 0.0000 0.0000 0.0000 31.9112 0.0000
# 6 0.0000 0.0000 0.0000 0.0000 0.0000 -2.6959
#
#
#
# Elastic Compliance Matrix: (Units=1/GPa)
#
#
# Indices 1 2 3 4 5 6 
#
# 1 0.026115 0.001259 -0.006794 0.000000 0.000000 0.000000
# 2 0.001259 0.009212 -0.000587 0.000000 0.000000 0.000000
# 3 -0.006794 -0.000587 0.005436 0.000000 0.000000 0.000000
# 4 0.000000 0.000000 0.000000 -0.116565 0.000000 0.000000
# 5 0.000000 0.000000 0.000000 0.000000 0.031337 0.000000
# 6 0.000000 0.000000 0.000000 0.000000 0.000000 -0.370935
#
#
# Mechanical properties :
#
#
# Convention : Reuss Voigt Hill
#
# Bulk Modulus (GPa) = 35.06274 65.52110 50.29192
# Shear Modulus (GPa) = -12.70162 28.41296 7.85567
#
# Velocity S-wave (km/s) = -2.25822 3.37750 1.77594
# Velocity P-wave (km/s) = 2.69776 6.44329 4.93932
#
# Compressibility (1/GPa) = 0.02852030
#
# Stress axis : x y z
#
# Youngs Moduli (GPa) = 38.29229 108.55732 183.94447
#
# Poissons Ratio (x) = -0.13664 1.24964
# Poissons Ratio (y) = -0.04820 0.10789
# Poissons Ratio (z) = 0.26014 0.06367
#
# Static dielectric constant tensor:
#      x y z
#    x 1.996000 0.000000 0.000000 
#    y 0.000000 1.980180 0.000000 
#    z 0.000000 0.000000 1.980960 
# 
# From -- ./inp_files/36595.got.cif
#   From: 2010.05.17/outbox.cif.g08.bks.cpg/sg65_19_cif.got.tgz:36595.got - 2010.06.03 17:01:31.
