data_PCOD9494230
_publ_section_title
;
Structure prediction by ZEFSAII (Michael W. Deem and Ramdas Pophale) SiO2 
 PCOD9494230
Probable space group: C M M M
;
_chemical_formula_sum "Si O2"
_cell_formula_units_Z 72
_cell_length_a 22.591921
_cell_length_b 16.564023
_cell_length_c 9.369468
_cell_angle_alpha 90.000000
_cell_angle_beta 90.000000
_cell_angle_gamma 90.000000
_cell_volume 3506.177657
_symmetry_space_group_name_H-M "C M M M"
_symmetry_group_IT_number 65
_symmetry_cell_setting 'orthorhombic'
loop_
_space_group_symop_operation_xyz
x,y,z
-x,-y,z
x,-y,-z
-x,y,-z
-x,-y,-z
x,y,-z
-x,y,z
x,-y,z
1/2+x,1/2+y,z
1/2-x,1/2-y,z
1/2+x,1/2-y,-z
1/2-x,1/2+y,-z
1/2-x,1/2-y,-z
1/2+x,1/2+y,-z
1/2-x,1/2+y,z
1/2+x,1/2-y,z
loop_
_atom_site_type_symbol
_atom_site_label
_atom_site_fract_x
_atom_site_fract_y
_atom_site_fract_z
Si Si1 0.742269 0.500000 0.335573
Si Si2 0.259577 0.658165 0.837608
Si Si3 0.599049 0.345405 0.837344
Si Si4 0.071152 0.328309 0.834503
Si Si5 0.070458 0.500000 0.826143
Si Si6 0.597055 0.500000 0.663282
O O1 0.761152 0.500000 0.500000
O O2 0.761580 0.582057 0.254915
O O3 0.669677 0.500000 0.335285
O O4 0.250000 0.750000 0.783641
O O5 0.330196 0.647513 0.846923
O O6 0.235365 0.654430 0.000000
O O7 0.587324 0.257627 0.770049
O O8 0.576984 0.420032 0.745577
O O9 0.575239 0.348033 0.000000
O O10 0.093759 0.413542 0.773771
O O11 0.000000 0.332583 0.836628
O O12 0.091388 0.324304 0.000000
O O13 0.000000 0.500000 0.796020
O O14 0.075715 0.500000 0.000000
O O15 0.578230 0.500000 0.500000
#
# Coordination Sequence:
#
# PCOD9494230 Si02
#       6
#     8  16  16  16   8   8
#     4   9  17  29  46  65  83 110 148 181 208 247
#     4   9  17  29  44  63  88 115 141 172 212 256
#     4   9  16  27  44  64  84 109 141 174 208 247
#     4   8  13  22  38  61  86 109 136 172 210 245
#     4   7  10  18  33  54  81 107 126 153 199 247
#     4   9  17  29  44  61  82 111 144 175 209 250
#
# _framework density 20.535184000000001
#
# number of rings (size 3 to 8) (size 9 to 14) (size 15 to 20)
#    0.000    3.444    0.000    2.000    0.000    3.111 
#    0.000    1.667    0.000    9.333    0.000    0.778 
#    0.000    2.667    0.000    0.000    0.000    0.000 
#
# Total GULP energy -200457.283840 kJ/mol
# GULP energy per Si atom -5568.257884 kJ/mol
# Density = 2.048845 g / cm^3
# Si number density = 20.535184 Si / 1000 Ang^3
#
#
#
# Elastic Constant Matrix: (Units=GPa)
#
#
# Indices 1 2 3 4 5 6 
#
# 1 44.6452 5.6898 4.4095 0.0000 0.0000 0.0000
# 2 5.6898 274.7344 89.9609 0.0000 0.0000 0.0000
# 3 4.4095 89.9609 67.1325 0.0000 0.0000 0.0000
# 4 0.0000 0.0000 0.0000 -1.6649 0.0000 0.0000
# 5 0.0000 0.0000 0.0000 0.0000 0.8143 0.0000
# 6 0.0000 0.0000 0.0000 0.0000 0.0000 22.7637
#
#
#
# Elastic Compliance Matrix: (Units=1/GPa)
#
#
# Indices 1 2 3 4 5 6 
#
# 1 0.022545 0.000032 -0.001524 0.000000 0.000000 0.000000
# 2 0.000032 0.006486 -0.008693 0.000000 0.000000 0.000000
# 3 -0.001524 -0.008693 0.026646 0.000000 0.000000 0.000000
# 4 0.000000 0.000000 0.000000 -0.600627 0.000000 0.000000
# 5 0.000000 0.000000 0.000000 0.000000 1.228067 0.000000
# 6 0.000000 0.000000 0.000000 0.000000 0.000000 0.043930
#
#
# Mechanical properties :
#
#
# Convention : Reuss Voigt Hill
#
# Bulk Modulus (GPa) = 28.32355 65.18138 46.75247
# Shear Modulus (GPa) = 6.58600 23.47940 15.03270
#
# Velocity S-wave (km/s) = 1.79280 3.38505 2.70857
# Velocity P-wave (km/s) = 4.25537 6.86209 5.70949
#
# Compressibility (1/GPa) = 0.03530631
#
# Stress axis : x y z
#
# Youngs Moduli (GPa) = 44.35530 154.18136 37.52953
#
# Poissons Ratio (x) = -0.00494 0.05719
# Poissons Ratio (y) = -0.00142 0.32626
# Poissons Ratio (z) = 0.06759 1.34037
#
# Static dielectric constant tensor:
#      x y z
#    x 1.773160 0.000000 0.000000 
#    y 0.000000 1.789160 0.000000 
#    z 0.000000 0.000000 1.688440 
# 
# From -- ./inp_files/18072.got.cif
#   From: 2010.05.17/outbox.cif.g08.bks.cpg/sg65_10_cif.got.tgz:18072.got - 2010.06.03 17:01:31.
