data_PCOD9494502
_publ_section_title
;
Structure prediction by ZEFSAII (Michael W. Deem and Ramdas Pophale) SiO2 
 PCOD9494502
Probable space group: C M M M
;
_chemical_formula_sum "Si O2"
_cell_formula_units_Z 80
_cell_length_a 9.238647
_cell_length_b 19.659137
_cell_length_c 26.431805
_cell_angle_alpha 90.000000
_cell_angle_beta 90.000000
_cell_angle_gamma 90.000000
_cell_volume 4800.645580
_symmetry_space_group_name_H-M "C M M M"
_symmetry_group_IT_number 65
_symmetry_cell_setting 'orthorhombic'
loop_
_space_group_symop_operation_xyz
x,y,z
-x,-y,z
x,-y,-z
-x,y,-z
-x,-y,-z
x,y,-z
-x,y,z
x,-y,z
1/2+x,1/2+y,z
1/2-x,1/2-y,z
1/2+x,1/2-y,-z
1/2-x,1/2+y,-z
1/2-x,1/2-y,-z
1/2+x,1/2+y,-z
1/2-x,1/2+y,z
1/2+x,1/2-y,z
loop_
_atom_site_type_symbol
_atom_site_label
_atom_site_fract_x
_atom_site_fract_y
_atom_site_fract_z
Si Si1 0.325831 0.322009 0.410609
Si Si2 0.832993 0.083028 0.000000
Si Si3 0.323805 0.422270 0.500000
Si Si4 0.326463 0.321502 0.705526
Si Si5 0.826784 0.079941 0.796474
Si Si6 0.833178 0.417120 0.101133
O O1 0.500000 0.313512 0.414435
O O2 0.250000 0.250000 0.421621
O O3 0.280835 0.379370 0.450524
O O4 0.291418 0.341155 0.352475
O O5 0.751291 0.105194 0.050868
O O6 0.000000 0.104222 0.000000
O O7 0.831425 0.000000 0.000000
O O8 0.272119 0.500000 0.500000
O O9 0.500000 0.424514 0.500000
O O10 0.500000 0.312866 0.708023
O O11 0.250000 0.250000 0.715977
O O12 0.285146 0.376860 0.747342
O O13 0.745530 0.103483 0.847116
O O14 0.000000 0.086109 0.804082
O O15 0.795286 0.000000 0.788648
O O16 0.831061 0.500000 0.100636
O O17 0.000000 0.395566 0.100038
#
# Coordination Sequence:
#
# PCOD9494502 Si02
#       6
#    16   8   8  16  16  16
#     4   9  17  30  48  68  90 119 154 190 228 271
#     4   9  15  23  37  57  84 119 154 187 224 267
#     4   9  17  28  45  71  98 121 150 190 232 273
#     4   9  18  31  47  67  90 118 153 191 229 271
#     4   9  17  29  44  63  88 117 149 186 229 275
#     4   9  16  25  38  59  87 117 149 186 228 272
#
# _framework density 16.664425999999999
#
# number of rings (size 3 to 8) (size 9 to 14) (size 15 to 20)
#    0.000    3.000    0.000    1.200    0.000    5.200 
#    0.000    4.000    0.000    1.200    0.000    6.300 
#    0.000    0.000    0.000    0.000    0.000    0.000 
#
# Total GULP energy -222841.007958 kJ/mol
# GULP energy per Si atom -5571.025199 kJ/mol
# Density = 1.662650 g / cm^3
# Si number density = 16.664426 Si / 1000 Ang^3
#
#
#
# Elastic Constant Matrix: (Units=GPa)
#
#
# Indices 1 2 3 4 5 6 
#
# 1 48.7520 38.6857 65.0130 0.0000 0.0000 0.0000
# 2 38.6857 71.6558 94.0187 0.0000 0.0000 0.0000
# 3 65.0130 94.0187 176.0716 0.0000 0.0000 0.0000
# 4 0.0000 0.0000 0.0000 -7.4296 0.0000 0.0000
# 5 0.0000 0.0000 0.0000 0.0000 18.2049 0.0000
# 6 0.0000 0.0000 0.0000 0.0000 0.0000 18.1410
#
#
#
# Elastic Compliance Matrix: (Units=1/GPa)
#
#
# Indices 1 2 3 4 5 6 
#
# 1 0.041646 -0.007707 -0.011262 0.000000 0.000000 0.000000
# 2 -0.007707 0.048043 -0.022808 0.000000 0.000000 0.000000
# 3 -0.011262 -0.022808 0.022017 0.000000 0.000000 0.000000
# 4 0.000000 0.000000 0.000000 -0.134598 0.000000 0.000000
# 5 0.000000 0.000000 0.000000 0.000000 0.054930 0.000000
# 6 0.000000 0.000000 0.000000 0.000000 0.000000 0.055124
#
#
# Mechanical properties :
#
#
# Convention : Reuss Voigt Hill
#
# Bulk Modulus (GPa) = 35.52229 76.87935 56.20082
# Shear Modulus (GPa) = 27.76218 12.36741 20.06479
#
# Velocity S-wave (km/s) = 4.08604 2.72719 3.47371
# Velocity P-wave (km/s) = 6.60481 7.49338 7.06308
#
# Compressibility (1/GPa) = 0.02815134
#
# Stress axis : x y z
#
# Youngs Moduli (GPa) = 24.01172 20.81474 45.41948
#
# Poissons Ratio (x) = 0.16043 0.51151
# Poissons Ratio (y) = 0.18507 1.03593
# Poissons Ratio (z) = 0.27042 0.47474
#
# Static dielectric constant tensor:
#      x y z
#    x 1.557240 0.000000 0.000000 
#    y 0.000000 1.532940 0.000000 
#    z 0.000000 0.000000 1.563300 
# 
# From -- ./inp_files/72941.got.cif
#   From: 2010.05.17/outbox.cif.g08.bks.cpg/sg65_37_cif.got.tgz:72941.got - 2010.06.03 17:01:31.
