data_PCOD9494227
_publ_section_title
;
Structure prediction by ZEFSAII (Michael W. Deem and Ramdas Pophale) SiO2 
 PCOD9494227
Probable space group: C M M M
;
_chemical_formula_sum "Si O2"
_cell_formula_units_Z 72
_cell_length_a 7.374641
_cell_length_b 20.206401
_cell_length_c 24.185189
_cell_angle_alpha 90.000000
_cell_angle_beta 90.000000
_cell_angle_gamma 90.000000
_cell_volume 3603.954809
_symmetry_space_group_name_H-M "C M M M"
_symmetry_group_IT_number 65
_symmetry_cell_setting 'orthorhombic'
loop_
_space_group_symop_operation_xyz
x,y,z
-x,-y,z
x,-y,-z
-x,y,-z
-x,-y,-z
x,y,-z
-x,y,z
x,-y,z
1/2+x,1/2+y,z
1/2-x,1/2-y,z
1/2+x,1/2-y,-z
1/2-x,1/2+y,-z
1/2-x,1/2-y,-z
1/2+x,1/2+y,-z
1/2-x,1/2+y,z
1/2+x,1/2-y,z
loop_
_atom_site_type_symbol
_atom_site_label
_atom_site_fract_x
_atom_site_fract_y
_atom_site_fract_z
Si Si1 0.283373 0.673015 0.217603
Si Si2 0.716714 0.326904 0.657981
Si Si3 0.721080 0.576234 0.562275
Si Si4 0.722224 0.423276 0.120960
Si Si5 0.789572 0.080410 0.000000
O O1 0.500000 0.664028 0.219665
O O2 0.250000 0.750000 0.204502
O O3 0.213193 0.660277 0.279817
O O4 0.215906 0.623941 0.170246
O O5 0.500000 0.336020 0.660151
O O6 0.750000 0.250000 0.644988
O O7 0.785729 0.375110 0.610229
O O8 0.777460 0.595128 0.500000
O O9 0.500000 0.577545 0.562462
O O10 0.773999 0.500000 0.572039
O O11 0.500000 0.422459 0.119565
O O12 0.774009 0.500000 0.129463
O O13 0.785562 0.400419 0.059917
O O14 0.000000 0.101188 0.000000
O O15 0.786201 0.000000 0.000000
#
# Coordination Sequence:
#
# PCOD9494227 Si02
#       5
#    16  16  16  16   8
#     4   9  17  28  41  58  82 108 131 160 197 234
#     4   9  17  28  42  60  81 106 134 162 194 232
#     4   8  14  25  41  61  83 104 128 162 201 235
#     4   8  13  22  38  59  79 100 130 166 199 230
#     4   7  10  18  33  54  79 101 122 157 202 236
#
# _framework density 19.978052999999999
#
# number of rings (size 3 to 8) (size 9 to 14) (size 15 to 20)
#    0.000    3.667    0.000    2.000    0.000    1.333 
#    0.000    5.000    0.000    1.333    0.000    7.778 
#    0.000    2.667    0.000    0.000    0.000    0.000 
#
# Total GULP energy -200615.258656 kJ/mol
# GULP energy per Si atom -5572.646074 kJ/mol
# Density = 1.993258 g / cm^3
# Si number density = 19.978053 Si / 1000 Ang^3
#
#
#
# Elastic Constant Matrix: (Units=GPa)
#
#
# Indices 1 2 3 4 5 6 
#
# 1 71.8271 1.8487 10.6522 0.0000 0.0000 0.0000
# 2 1.8487 113.8444 149.4006 0.0000 0.0000 0.0000
# 3 10.6522 149.4006 237.1040 0.0000 0.0000 0.0000
# 4 0.0000 0.0000 0.0000 33.9411 0.0000 0.0000
# 5 0.0000 0.0000 0.0000 0.0000 -5.5111 0.0000
# 6 0.0000 0.0000 0.0000 0.0000 0.0000 13.6093
#
#
#
# Elastic Compliance Matrix: (Units=1/GPa)
#
#
# Indices 1 2 3 4 5 6 
#
# 1 0.014256 0.003518 -0.002857 0.000000 0.000000 0.000000
# 2 0.003518 0.051614 -0.032680 0.000000 0.000000 0.000000
# 3 -0.002857 -0.032680 0.024938 0.000000 0.000000 0.000000
# 4 0.000000 0.000000 0.000000 0.029463 0.000000 0.000000
# 5 0.000000 0.000000 0.000000 0.000000 -0.181451 0.000000
# 6 0.000000 0.000000 0.000000 0.000000 0.000000 0.073479
#
#
# Mechanical properties :
#
#
# Convention : Reuss Voigt Hill
#
# Bulk Modulus (GPa) = 37.35718 82.95315 60.15517
# Shear Modulus (GPa) = 58.64395 25.79945 42.22170
#
# Velocity S-wave (km/s) = 5.42383 3.59749 4.60216
# Velocity P-wave (km/s) = 7.61338 7.67256 7.64303
#
# Compressibility (1/GPa) = 0.02676861
#
# Stress axis : x y z
#
# Youngs Moduli (GPa) = 70.14826 19.37464 40.09952
#
# Poissons Ratio (x) = -0.06816 0.11457
# Poissons Ratio (y) = -0.24679 1.31046
# Poissons Ratio (z) = 0.20043 0.63317
#
# Static dielectric constant tensor:
#      x y z
#    x 1.796500 0.000000 0.000000 
#    y 0.000000 1.644670 0.000000 
#    z 0.000000 0.000000 1.727010 
# 
# From -- ./inp_files/51281.got.cif
#   From: 2010.05.17/outbox.cif.g08.bks.cpg/sg65_26_cif.got.tgz:51281.got - 2010.06.03 17:01:31.
