data_PCOD9494783
_publ_section_title
;
Structure prediction by ZEFSAII (Michael W. Deem and Ramdas Pophale) SiO2 
 PCOD9494783
Probable space group: C M M M
;
_chemical_formula_sum "Si O2"
_cell_formula_units_Z 44
_cell_length_a 9.000000
_cell_length_b 30.000000
_cell_length_c 18.000000
_cell_angle_alpha 90.000000
_cell_angle_beta 90.000000
_cell_angle_gamma 90.000000
_cell_volume 4860.000000
_symmetry_space_group_name_H-M "C M M M"
_symmetry_group_IT_number 65
_symmetry_cell_setting 'orthorhombic'
loop_
_space_group_symop_operation_xyz
x,y,z
-x,-y,z
x,-y,-z
-x,y,-z
-x,-y,-z
x,y,-z
-x,y,z
x,-y,z
1/2+x,1/2+y,z
1/2-x,1/2-y,z
1/2+x,1/2-y,-z
1/2-x,1/2+y,-z
1/2-x,1/2-y,-z
1/2+x,1/2+y,-z
1/2-x,1/2+y,z
1/2+x,1/2-y,z
loop_
_atom_site_type_symbol
_atom_site_label
_atom_site_fract_x
_atom_site_fract_y
_atom_site_fract_z
Si Si1 0.176147 0.637557 0.204503
Si Si2 0.177180 0.202280 0.912791
Si Si3 0.836205 0.336268 0.629379
Si Si4 0.175322 0.049030 0.738641
Si Si5 0.831988 0.795041 0.500000
Si Si6 0.169382 0.561271 0.584525
O O1 0.256459 0.664171 0.139485
O O2 0.198317 0.662507 0.283629
O O3 0.238955 0.588204 0.219385
O O4 0.000000 0.635533 0.191409
O O5 0.250000 0.250000 0.893993
O O6 0.000000 0.205063 0.903516
O O7 0.208861 0.193533 0.000000
O O8 0.713322 0.317158 0.576788
O O9 0.844571 0.386347 0.598792
O O10 0.000000 0.315548 0.618360
O O11 0.228350 0.047092 0.652769
O O12 0.000000 0.058128 0.740491
O O13 0.203864 0.000000 0.771093
O O14 0.750000 0.750000 0.500000
O O15 0.000000 0.787203 0.500000
O O16 0.220366 0.552408 0.500000
O O17 0.000000 0.544847 0.591951
#
# Coordination Sequence:
#
# PCOD9494783 Si02
#       6
#    16  16  16  16   8  16
#     4  10  21  37  60  85 111 149 189 230 280 334
#     4  10  21  38  62  92 124 153 181 220 272 331
#     4   9  18  35  52  69  98 133 175 224 271 321
#     4  10  21  35  51  76 111 148 188 236 286 337
#     4  12  24  34  48  68  93 132 177 224 276 325
#     4   9  17  31  51  71  96 134 178 228 282 334
#
# _framework density 9.0534979999999994
#
# number of rings (size 3 to 8) (size 9 to 14) (size 15 to 20)
#    0.000    2.182    0.909    3.545    0.000    7.636 
#    0.000    1.818    0.000    0.545    0.000    3.818 
#    0.000    0.000    0.000    0.000    0.000    0.000 
#
# Total GULP energy -245055.236704 kJ/mol
# GULP energy per Si atom -5569.437198 kJ/mol
# Density = 0.903289 g / cm^3
# Si number density = 9.053498 Si / 1000 Ang^3
#
#
#
# Elastic Constant Matrix: (Units=GPa)
#
#
# Indices 1 2 3 4 5 6 
#
# 1 104.4468 69.3436 62.1062 0.0000 0.0000 0.0000
# 2 69.3436 95.6046 66.1079 0.0000 0.0000 0.0000
# 3 62.1062 66.1079 90.4474 0.0000 0.0000 0.0000
# 4 0.0000 0.0000 0.0000 34.4613 0.0000 0.0000
# 5 0.0000 0.0000 0.0000 0.0000 94.1601 0.0000
# 6 0.0000 0.0000 0.0000 0.0000 0.0000 6.5633
#
#
#
# Elastic Compliance Matrix: (Units=1/GPa)
#
#
# Indices 1 2 3 4 5 6 
#
# 1 0.020133 -0.010197 -0.006371 0.000000 0.000000 0.000000
# 2 -0.010197 0.026312 -0.012230 0.000000 0.000000 0.000000
# 3 -0.006371 -0.012230 0.024370 0.000000 0.000000 0.000000
# 4 0.000000 0.000000 0.000000 0.029018 0.000000 0.000000
# 5 0.000000 0.000000 0.000000 0.000000 0.010620 0.000000
# 6 0.000000 0.000000 0.000000 0.000000 0.000000 0.152363
#
#
# Mechanical properties :
#
#
# Convention : Reuss Voigt Hill
#
# Bulk Modulus (GPa) = 75.65077 76.17938 75.91507
# Shear Modulus (GPa) = 15.39323 33.23301 24.31312
#
# Velocity S-wave (km/s) = 2.91885 4.28877 3.66833
# Velocity P-wave (km/s) = 7.29590 8.16626 7.74332
#
# Compressibility (1/GPa) = 0.01321864
#
# Stress axis : x y z
#
# Youngs Moduli (GPa) = 49.67058 38.00478 41.03443
#
# Poissons Ratio (x) = 0.38754 0.26144
# Poissons Ratio (y) = 0.50649 0.50185
# Poissons Ratio (z) = 0.31646 0.46479
#
# Static dielectric constant tensor:
#      x y z
#    x 1.610370 0.000000 0.000000 
#    y 0.000000 1.694740 0.000000 
#    z 0.000000 0.000000 1.522040 
# 
# From -- ./inp_files/50318.got.cif
#   From: 2010.05.17/outbox.ucp.g08.bks.cvg/sg65_26_cif.got.tgz:50318.got - 2010.06.11 16:39:57.
