data_PCOD9494648
_publ_section_title
;
Structure prediction by ZEFSAII (Michael W. Deem and Ramdas Pophale) SiO2 
 PCOD9494648
Probable space group: C M M M
;
_chemical_formula_sum "Si O2"
_cell_formula_units_Z 56
_cell_length_a 15.000000
_cell_length_b 15.000000
_cell_length_c 24.000000
_cell_angle_alpha 90.000000
_cell_angle_beta 90.000000
_cell_angle_gamma 90.000000
_cell_volume 5400.000000
_symmetry_space_group_name_H-M "C M M M"
_symmetry_group_IT_number 65
_symmetry_cell_setting 'orthorhombic'
loop_
_space_group_symop_operation_xyz
x,y,z
-x,-y,z
x,-y,-z
-x,y,-z
-x,-y,-z
x,y,-z
-x,y,z
x,-y,z
1/2+x,1/2+y,z
1/2-x,1/2-y,z
1/2+x,1/2-y,-z
1/2-x,1/2+y,-z
1/2-x,1/2-y,-z
1/2+x,1/2+y,-z
1/2-x,1/2+y,z
1/2+x,1/2-y,z
loop_
_atom_site_type_symbol
_atom_site_label
_atom_site_fract_x
_atom_site_fract_y
_atom_site_fract_z
Si Si1 0.891340 0.097266 0.883102
Si Si2 0.599974 0.608584 0.564784
Si Si3 0.897475 0.868251 0.755271
Si Si4 0.763031 0.898615 0.656044
Si Si5 0.898019 0.662578 0.277557
Si Si6 0.890596 0.275592 0.938344
Si Si7 0.891894 0.598015 0.159654
O O1 0.867088 0.113187 0.818358
O O2 0.863282 0.175176 0.924070
O O3 0.000000 0.098678 0.882908
O O4 0.860906 0.000000 0.900508
O O5 0.612378 0.632710 0.500000
O O6 0.500000 0.637462 0.582605
O O7 0.599938 0.500000 0.567589
O O8 0.678021 0.639587 0.605471
O O9 0.830512 0.902213 0.708516
O O10 0.900414 0.762691 0.745210
O O11 0.000000 0.900489 0.748707
O O12 0.674251 0.847356 0.674173
O O13 0.736453 0.000000 0.642176
O O14 0.863839 0.608586 0.223571
O O15 0.000000 0.636347 0.292277
O O16 0.858755 0.332759 0.885764
O O17 0.000000 0.279718 0.938005
O O18 0.861942 0.303506 0.000000
O O19 0.870478 0.500000 0.139394
O O20 0.000000 0.607851 0.162463
#
# Coordination Sequence:
#
# PCOD9494648 Si02
#       7
#    16  16  16  16  16  16  16
#     4   9  16  27  44  67  98 136 174 217 279 348
#     4   8  15  30  52  79 115 154 186 225 279 331
#     4  10  19  33  52  74 106 142 177 224 282 339
#     4  11  21  31  51  85 112 135 181 232 275 332
#     4  10  20  35  52  71 105 150 188 227 281 340
#     4   9  16  26  41  65  98 134 175 225 281 340
#     4   9  16  28  46  66  92 132 182 232 283 335
#
# _framework density 10.370369999999999
#
# number of rings (size 3 to 8) (size 9 to 14) (size 15 to 20)
#    0.000    2.571    1.429    2.143    0.000    2.857 
#    0.000    2.857    0.000    2.143    0.000    6.000 
#    0.000    3.429    0.000    0.286    0.000    0.143 
#
# Total GULP energy -312560.410667 kJ/mol
# GULP energy per Si atom -5581.435905 kJ/mol
# Density = 1.034677 g / cm^3
# Si number density = 10.370370 Si / 1000 Ang^3
#
#
#
# Elastic Constant Matrix: (Units=GPa)
#
#
# Indices 1 2 3 4 5 6 
#
# 1 66.5134 10.9856 41.4320 0.0000 0.0000 0.0000
# 2 10.9856 69.2880 18.2860 0.0000 0.0000 0.0000
# 3 41.4320 18.2860 86.7663 0.0000 0.0000 0.0000
# 4 0.0000 0.0000 0.0000 16.0968 0.0000 0.0000
# 5 0.0000 0.0000 0.0000 0.0000 15.9046 0.0000
# 6 0.0000 0.0000 0.0000 0.0000 0.0000 -29.1271
#
#
#
# Elastic Compliance Matrix: (Units=1/GPa)
#
#
# Indices 1 2 3 4 5 6 
#
# 1 0.021436 -0.000738 -0.010080 0.000000 0.000000 0.000000
# 2 -0.000738 0.015308 -0.002874 0.000000 0.000000 0.000000
# 3 -0.010080 -0.002874 0.016944 0.000000 0.000000 0.000000
# 4 0.000000 0.000000 0.000000 0.062124 0.000000 0.000000
# 5 0.000000 0.000000 0.000000 0.000000 0.062875 0.000000
# 6 0.000000 0.000000 0.000000 0.000000 0.000000 -0.034332
#
#
# Mechanical properties :
#
#
# Convention : Reuss Voigt Hill
#
# Bulk Modulus (GPa) = 38.01760 40.44165 39.22962
# Shear Modulus (GPa) = 27.69985 10.69915 19.19950
#
# Velocity S-wave (km/s) = 3.65845 2.27370 3.04582
# Velocity P-wave (km/s) = 6.01792 5.14139 5.59685
#
# Compressibility (1/GPa) = 0.02630360
#
# Stress axis : x y z
#
# Youngs Moduli (GPa) = 46.65148 65.32558 59.01727
#
# Poissons Ratio (x) = 0.04823 0.59490
# Poissons Ratio (y) = 0.03444 0.16959
# Poissons Ratio (z) = 0.47025 0.18772
#
# Static dielectric constant tensor:
#      x y z
#    x 1.761960 0.000000 0.000000 
#    y 0.000000 1.814350 0.000000 
#    z 0.000000 0.000000 1.714660 
# 
# From -- ./inp_files/69984.got.cif
#   From: 2010.05.17/outbox.ucp.g08.bks.cvg/sg65_35_cif.got.tgz:69984.got - 2010.06.11 16:39:57.
