data_PCOD9494302
_publ_section_title
;
Structure prediction by ZEFSAII (Michael W. Deem and Ramdas Pophale) SiO2 
 PCOD9494302
Probable space group: C M M M
;
_chemical_formula_sum "Si O2"
_cell_formula_units_Z 96
_cell_length_a 7.465723
_cell_length_b 28.292226
_cell_length_c 25.309409
_cell_angle_alpha 90.000000
_cell_angle_beta 90.000000
_cell_angle_gamma 90.000000
_cell_volume 5345.902023
_symmetry_space_group_name_H-M "C M M M"
_symmetry_group_IT_number 65
_symmetry_cell_setting 'orthorhombic'
loop_
_space_group_symop_operation_xyz
x,y,z
-x,-y,z
x,-y,-z
-x,y,-z
-x,-y,-z
x,y,-z
-x,y,z
x,-y,z
1/2+x,1/2+y,z
1/2-x,1/2-y,z
1/2+x,1/2-y,-z
1/2-x,1/2+y,-z
1/2-x,1/2-y,-z
1/2+x,1/2+y,-z
1/2-x,1/2+y,z
1/2+x,1/2-y,z
loop_
_atom_site_type_symbol
_atom_site_label
_atom_site_fract_x
_atom_site_fract_y
_atom_site_fract_z
Si Si1 0.287367 0.553907 0.672463
Si Si2 0.218706 0.103383 0.222345
Si Si3 0.213764 0.196190 0.165114
Si Si4 0.782113 0.947166 0.885409
Si Si5 0.284966 0.945179 0.556807
Si Si6 0.718697 0.351555 0.058816
O O1 0.500000 0.550068 0.680267
O O2 0.214507 0.500000 0.673145
O O3 0.217260 0.584296 0.721405
O O4 0.262993 0.575183 0.613868
O O5 0.279125 0.155740 0.205224
O O6 0.268401 0.068750 0.173946
O O7 0.000000 0.103977 0.223663
O O8 0.250000 0.250000 0.179254
O O9 0.279198 0.182653 0.106173
O O10 0.000000 0.190768 0.163305
O O11 0.727737 0.904767 0.924222
O O12 0.000000 0.947873 0.886633
O O13 0.719861 0.000000 0.897842
O O14 0.223680 0.924981 0.500000
O O15 0.500000 0.945911 0.555390
O O16 0.222497 0.000000 0.558085
O O17 0.500000 0.350762 0.058305
O O18 0.779772 0.339509 0.000000
#
# Coordination Sequence:
#
# PCOD9494302 Si02
#       6
#    16  16  16  16  16  16
#     4   9  15  22  36  57  77  99 129 160 184 213
#     4   8  14  24  36  52  75  99 122 152 192 230
#     4   9  17  29  43  56  73  98 124 153 192 233
#     4   8  12  18  30  48  72 102 128 148 178 224
#     4   8  14  24  35  48  73 109 139 158 180 210
#     4   8  14  23  34  51  74  97 122 153 188 224
#
# _framework density 17.957681000000001
#
# number of rings (size 3 to 8) (size 9 to 14) (size 15 to 20)
#    0.000    3.667    0.000    3.000    0.000    3.000 
#    0.000    4.167    0.000    0.000    0.000    0.000 
#    0.000    6.667    0.000    7.500    0.000    9.333 
#
# Total GULP energy -267249.793656 kJ/mol
# GULP energy per Si atom -5567.704035 kJ/mol
# Density = 1.791681 g / cm^3
# Si number density = 17.957681 Si / 1000 Ang^3
#
#
#
# Elastic Constant Matrix: (Units=GPa)
#
#
# Indices 1 2 3 4 5 6 
#
# 1 49.2747 1.5418 5.8633 0.0000 0.0000 0.0000
# 2 1.5418 67.6347 28.6867 0.0000 0.0000 0.0000
# 3 5.8633 28.6867 139.3411 0.0000 0.0000 0.0000
# 4 0.0000 0.0000 0.0000 13.3065 0.0000 0.0000
# 5 0.0000 0.0000 0.0000 0.0000 82.8356 0.0000
# 6 0.0000 0.0000 0.0000 0.0000 0.0000 6.1942
#
#
#
# Elastic Compliance Matrix: (Units=1/GPa)
#
#
# Indices 1 2 3 4 5 6 
#
# 1 0.020397 -0.000111 -0.000836 0.000000 0.000000 0.000000
# 2 -0.000111 0.016200 -0.003331 0.000000 0.000000 0.000000
# 3 -0.000836 -0.003331 0.007897 0.000000 0.000000 0.000000
# 4 0.000000 0.000000 0.000000 0.075151 0.000000 0.000000
# 5 0.000000 0.000000 0.000000 0.000000 0.012072 0.000000
# 6 0.000000 0.000000 0.000000 0.000000 0.000000 0.161442
#
#
# Mechanical properties :
#
#
# Convention : Reuss Voigt Hill
#
# Bulk Modulus (GPa) = 27.82278 36.49269 32.15774
# Shear Modulus (GPa) = 15.93909 35.14451 25.54180
#
# Velocity S-wave (km/s) = 2.98248 4.42868 3.77547
# Velocity P-wave (km/s) = 5.23330 6.82031 6.07881
#
# Compressibility (1/GPa) = 0.03594177
#
# Stress axis : x y z
#
# Youngs Moduli (GPa) = 49.02615 61.72653 126.62272
#
# Poissons Ratio (x) = 0.00683 0.10580
# Poissons Ratio (y) = 0.00542 0.42173
# Poissons Ratio (z) = 0.04096 0.20559
#
# Static dielectric constant tensor:
#      x y z
#    x 1.711550 0.000000 0.000000 
#    y 0.000000 1.598580 0.000000 
#    z 0.000000 0.000000 1.645530 
# 
# From -- ./inp_files/61729.got.cif
#   From: 2010.05.17/outbox.cif.g08.bks.cpg/sg65_31_cif.got.tgz:61729.got - 2010.06.03 17:01:31.
