data_PCOD9494973
_publ_section_title
;
Structure prediction by ZEFSAII (Michael W. Deem and Ramdas Pophale) SiO2 
 PCOD9494973
Probable space group: C C C M
;
_chemical_formula_sum "Si O2"
_cell_formula_units_Z 120
_cell_length_a 26.301877
_cell_length_b 8.985309
_cell_length_c 27.325685
_cell_angle_alpha 90.000000
_cell_angle_beta 90.000000
_cell_angle_gamma 90.000000
_cell_volume 6457.892584
_symmetry_space_group_name_H-M "C C C M"
_symmetry_group_IT_number 66
_symmetry_cell_setting 'orthorhombic'
loop_
_space_group_symop_operation_xyz
x,y,z
-x,-y,z
x,-y,1/2-z
-x,y,1/2-z
-x,-y,-z
x,y,-z
-x,y,1/2+z
x,-y,1/2+z
1/2+x,1/2+y,z
1/2-x,1/2-y,z
1/2+x,1/2-y,1/2-z
1/2-x,1/2+y,1/2-z
1/2-x,1/2-y,-z
1/2+x,1/2+y,-z
1/2-x,1/2+y,1/2+z
1/2+x,1/2-y,1/2+z
loop_
_atom_site_type_symbol
_atom_site_label
_atom_site_fract_x
_atom_site_fract_y
_atom_site_fract_z
Si Si1 0.140841 0.802697 0.632569
Si Si2 0.860840 0.783722 0.443643
Si Si3 0.750000 0.750000 0.689752
Si Si4 0.654833 0.681712 0.245903
Si Si5 0.228042 0.966587 0.896196
Si Si6 0.333434 0.945311 0.556478
Si Si7 0.946079 0.042105 0.884465
Si Si8 0.953072 0.160223 0.222452
O O1 0.151400 0.771257 0.689475
O O2 0.141518 0.665341 0.595510
O O3 0.188194 0.904234 0.615762
O O4 0.088981 0.899093 0.628808
O O5 0.863463 0.829983 0.500000
O O6 0.807262 0.843086 0.422364
O O7 0.859928 0.606171 0.440644
O O8 0.907996 0.855127 0.415187
O O9 0.701100 0.748830 0.724147
O O10 0.752069 0.892264 0.653852
O O11 0.659671 0.500000 0.250000
O O12 0.601979 0.729674 0.270652
O O13 0.274791 0.025864 0.927996
O O14 0.335929 0.892123 0.500000
O O15 0.961072 0.126027 0.834236
O O16 0.000000 0.000000 0.908531
O O17 0.000000 0.237122 0.250000
O O18 0.948744 0.000000 0.250000
#
# Coordination Sequence:
#
# PCOD9494973 Si02
#       8
#    16  16   8  16  16  16  16  16
#     4  11  23  37  58  89 123 156 204 250 304 366
#     4  10  22  40  62  87 119 160 207 257 309 360
#     4  12  22  32  57  88 127 166 198 244 304 368
#     4  11  20  34  53  86 130 160 192 244 304 372
#     4  11  21  38  61  85 114 160 212 247 288 365
#     4  11  24  41  60  84 119 162 203 254 309 358
#     4  11  20  37  66  94 117 154 207 258 299 363
#     4  10  16  32  61  91 114 148 197 246 300 345
#
# _framework density 18.581913
#
# number of rings (size 3 to 8) (size 9 to 14) (size 15 to 20)
#    0.000    1.200    6.667    1.600    1.867    4.533 
#    0.000    0.667    0.000    1.600    0.000    0.933 
#    0.000    0.000    0.000    0.000    0.000    0.000 
#
# Total GULP energy -334932.471159 kJ/mol
# GULP energy per Si atom -5582.207853 kJ/mol
# Density = 1.853962 g / cm^3
# Si number density = 18.581913 Si / 1000 Ang^3
#
#
#
# Elastic Constant Matrix: (Units=GPa)
#
#
# Indices 1 2 3 4 5 6 
#
# 1 142.5284 23.1447 56.9182 0.0000 0.0000 0.0000
# 2 23.1447 36.0437 37.2150 0.0000 0.0000 0.0000
# 3 56.9182 37.2150 117.2525 0.0000 0.0000 0.0000
# 4 0.0000 0.0000 0.0000 32.2550 0.0000 0.0000
# 5 0.0000 0.0000 0.0000 0.0000 12.9049 0.0000
# 6 0.0000 0.0000 0.0000 0.0000 0.0000 13.2445
#
#
#
# Elastic Compliance Matrix: (Units=1/GPa)
#
#
# Indices 1 2 3 4 5 6 
#
# 1 0.008785 -0.001841 -0.003680 0.000000 0.000000 0.000000
# 2 -0.001841 0.041654 -0.012327 0.000000 0.000000 0.000000
# 3 -0.003680 -0.012327 0.014227 0.000000 0.000000 0.000000
# 4 0.000000 0.000000 0.000000 0.031003 0.000000 0.000000
# 5 0.000000 0.000000 0.000000 0.000000 0.077490 0.000000
# 6 0.000000 0.000000 0.000000 0.000000 0.000000 0.075503
#
#
# Mechanical properties :
#
#
# Convention : Reuss Voigt Hill
#
# Bulk Modulus (GPa) = 34.51866 58.93114 46.72490
# Shear Modulus (GPa) = 17.00595 23.58399 20.29497
#
# Velocity S-wave (km/s) = 3.02849 3.56644 3.30841
# Velocity P-wave (km/s) = 5.55390 6.98157 6.30826
#
# Compressibility (1/GPa) = 0.02896984
#
# Stress axis : x y z
#
# Youngs Moduli (GPa) = 113.83385 24.00738 70.28708
#
# Poissons Ratio (x) = 0.04421 0.25865
# Poissons Ratio (y) = 0.20961 0.86641
# Poissons Ratio (z) = 0.41890 0.29593
#
# Static dielectric constant tensor:
#      x y z
#    x 1.641330 0.000000 0.000000 
#    y 0.000000 1.670010 0.000000 
#    z 0.000000 0.000000 1.644360 
# 
# From -- ./inp_files/66323.got.cif
#   From: 2010.05.17/outbox.cif.g08.bks.cpg/sg66_34_cif.got.tgz:66323.got - 2010.06.03 17:51:23.
