data_PCOD9494744
_publ_section_title
;
Structure prediction by ZEFSAII (Michael W. Deem and Ramdas Pophale) SiO2 
 PCOD9494744
Probable space group: C M M M
;
_chemical_formula_sum "Si O2"
_cell_formula_units_Z 52
_cell_length_a 30.000000
_cell_length_b 9.000000
_cell_length_c 24.000000
_cell_angle_alpha 90.000000
_cell_angle_beta 90.000000
_cell_angle_gamma 90.000000
_cell_volume 6480.000000
_symmetry_space_group_name_H-M "C M M M"
_symmetry_group_IT_number 65
_symmetry_cell_setting 'orthorhombic'
loop_
_space_group_symop_operation_xyz
x,y,z
-x,-y,z
x,-y,-z
-x,y,-z
-x,-y,-z
x,y,-z
-x,y,z
x,-y,z
1/2+x,1/2+y,z
1/2-x,1/2-y,z
1/2+x,1/2-y,-z
1/2-x,1/2+y,-z
1/2-x,1/2-y,-z
1/2+x,1/2+y,-z
1/2-x,1/2+y,z
1/2+x,1/2-y,z
loop_
_atom_site_type_symbol
_atom_site_label
_atom_site_fract_x
_atom_site_fract_y
_atom_site_fract_z
Si Si1 0.392000 0.819945 0.103596
Si Si2 0.298413 0.677684 0.067131
Si Si3 0.205811 0.331432 0.432657
Si Si4 0.053697 0.179394 0.000000
Si Si5 0.553345 0.320646 0.794986
Si Si6 0.388017 0.320588 0.564130
Si Si7 0.448918 0.680649 0.667318
O O1 0.341623 0.755345 0.095340
O O2 0.415841 0.762932 0.160332
O O3 0.391235 0.000000 0.100999
O O4 0.422331 0.751966 0.053638
O O5 0.298112 0.500000 0.078672
O O6 0.250000 0.750000 0.081749
O O7 0.303735 0.696269 0.000000
O O8 0.209855 0.338757 0.500000
O O9 0.202549 0.500000 0.411961
O O10 0.250000 0.250000 0.411375
O O11 0.161062 0.239951 0.422476
O O12 0.000000 0.204913 0.000000
O O13 0.060690 0.000000 0.000000
O O14 0.500000 0.290779 0.803230
O O15 0.558826 0.500000 0.801099
O O16 0.564783 0.278972 0.730639
O O17 0.399626 0.274408 0.500000
O O18 0.387542 0.500000 0.563991
O O19 0.420164 0.269783 0.614180
O O20 0.500000 0.728510 0.659990
O O21 0.448406 0.500000 0.666623
#
# Coordination Sequence:
#
# PCOD9494744 Si02
#       7
#    16  16  16   8  16  16  16
#     4  12  23  34  52  78 107 135 168 210 257 301
#     4  10  20  35  56  79 107 139 173 209 249 299
#     4   9  16  26  41  62  90 123 157 192 234 288
#     4  11  23  37  52  73 104 139 171 205 251 303
#     4   9  18  34  54  72  95 133 177 214 251 302
#     4   9  16  26  44  72 102 128 158 201 252 301
#     4   8  15  29  49  72  97 129 170 210 247 293
#
# _framework density 8.0246910000000007
#
# number of rings (size 3 to 8) (size 9 to 14) (size 15 to 20)
#    0.000    2.385    0.769    3.923    0.000    5.538 
#    0.000    2.308    0.000    2.308    0.000    6.462 
#    0.000    0.000    0.000    0.000    0.000    0.000 
#
# Total GULP energy -289781.093171 kJ/mol
# GULP energy per Si atom -5572.713330 kJ/mol
# Density = 0.800643 g / cm^3
# Si number density = 8.024691 Si / 1000 Ang^3
#
#
#
# Elastic Constant Matrix: (Units=GPa)
#
#
# Indices 1 2 3 4 5 6 
#
# 1 137.5896 55.1806 83.7949 0.0000 0.0000 0.0000
# 2 55.1806 79.9328 43.2783 0.0000 0.0000 0.0000
# 3 83.7949 43.2783 121.5620 0.0000 0.0000 0.0000
# 4 0.0000 0.0000 0.0000 14.4329 0.0000 0.0000
# 5 0.0000 0.0000 0.0000 0.0000 21.7433 0.0000
# 6 0.0000 0.0000 0.0000 0.0000 0.0000 26.5137
#
#
#
# Elastic Compliance Matrix: (Units=1/GPa)
#
#
# Indices 1 2 3 4 5 6 
#
# 1 0.014312 -0.005622 -0.007864 0.000000 0.000000 0.000000
# 2 -0.005622 0.017707 -0.002428 0.000000 0.000000 0.000000
# 3 -0.007864 -0.002428 0.014512 0.000000 0.000000 0.000000
# 4 0.000000 0.000000 0.000000 0.069286 0.000000 0.000000
# 5 0.000000 0.000000 0.000000 0.000000 0.045991 0.000000
# 6 0.000000 0.000000 0.000000 0.000000 0.000000 0.037716
#
#
# Mechanical properties :
#
#
# Convention : Reuss Voigt Hill
#
# Bulk Modulus (GPa) = 68.02229 78.17690 73.09960
# Shear Modulus (GPa) = 21.16371 22.99336 22.07854
#
# Velocity S-wave (km/s) = 3.63528 3.78916 3.71302
# Velocity P-wave (km/s) = 7.75213 8.24376 8.00172
#
# Compressibility (1/GPa) = 0.01470106
#
# Stress axis : x y z
#
# Youngs Moduli (GPa) = 69.87047 56.47612 68.91068
#
# Poissons Ratio (x) = 0.31753 0.54191
# Poissons Ratio (y) = 0.39284 0.16733
# Poissons Ratio (z) = 0.54946 0.13714
#
# Static dielectric constant tensor:
#      x y z
#    x 1.530780 0.000000 0.000000 
#    y 0.000000 1.541760 0.000000 
#    z 0.000000 0.000000 1.535400 
# 
# From -- ./inp_files/72152.got.cif
#   From: 2010.05.17/outbox.ucp.g08.bks.cvg/sg65_37_cif.got.tgz:72152.got - 2010.06.11 16:39:57.
