data_PCOD9494760
_publ_section_title
;
Structure prediction by ZEFSAII (Michael W. Deem and Ramdas Pophale) SiO2 
 PCOD9494760
Probable space group: C M M M
;
_chemical_formula_sum "Si O2"
_cell_formula_units_Z 40
_cell_length_a 27.000000
_cell_length_b 9.000000
_cell_length_c 18.000000
_cell_angle_alpha 90.000000
_cell_angle_beta 90.000000
_cell_angle_gamma 90.000000
_cell_volume 4374.000000
_symmetry_space_group_name_H-M "C M M M"
_symmetry_group_IT_number 65
_symmetry_cell_setting 'orthorhombic'
loop_
_space_group_symop_operation_xyz
x,y,z
-x,-y,z
x,-y,-z
-x,y,-z
-x,-y,-z
x,y,-z
-x,y,z
x,-y,z
1/2+x,1/2+y,z
1/2-x,1/2-y,z
1/2+x,1/2-y,-z
1/2-x,1/2+y,-z
1/2-x,1/2-y,-z
1/2+x,1/2+y,-z
1/2-x,1/2+y,z
1/2+x,1/2-y,z
loop_
_atom_site_type_symbol
_atom_site_label
_atom_site_fract_x
_atom_site_fract_y
_atom_site_fract_z
Si Si1 0.399393 0.674836 0.643718
Si Si2 0.801851 0.674990 0.298749
Si Si3 0.055318 0.670230 0.219128
Si Si4 0.558970 0.831788 0.500000
Si Si5 0.654358 0.830536 0.135751
Si Si6 0.197903 0.829254 0.000000
O O1 0.395174 0.500000 0.637061
O O2 0.346063 0.747272 0.657749
O O3 0.432517 0.719577 0.714425
O O4 0.423162 0.746295 0.571963
O O5 0.801070 0.500000 0.313959
O O6 0.750000 0.750000 0.315359
O O7 0.815034 0.693626 0.211433
O O8 0.060412 0.500000 0.248596
O O9 0.097191 0.685739 0.157722
O O10 0.000000 0.689071 0.191108
O O11 0.500000 0.837277 0.500000
O O12 0.578368 0.000000 0.500000
O O13 0.669042 0.718956 0.072805
O O14 0.663470 0.000000 0.110959
O O15 0.250000 0.750000 0.000000
O O16 0.207396 0.000000 0.000000
#
# Coordination Sequence:
#
# PCOD9494760 Si02
#       6
#    16  16  16   8  16   8
#     4  11  22  35  54  82 113 143 178 220 266 317
#     4  10  20  36  58  82 108 141 180 221 266 316
#     4   9  18  35  58  81 106 140 180 220 264 314
#     4  11  23  39  58  79 108 145 181 221 269 317
#     4   9  19  35  55  79 107 138 176 219 261 313
#     4  12  24  36  53  76 105 139 174 217 269 320
#
# _framework density 9.1449470000000002
#
# number of rings (size 3 to 8) (size 9 to 14) (size 15 to 20)
#    0.000    1.900    0.000    6.000    0.000    9.200 
#    0.000    1.000    0.000    3.000    0.000    0.000 
#    0.000    0.000    0.000    0.000    0.000    0.000 
#
# Total GULP energy -223269.026255 kJ/mol
# GULP energy per Si atom -5581.725656 kJ/mol
# Density = 0.912413 g / cm^3
# Si number density = 9.144947 Si / 1000 Ang^3
#
#
#
# Elastic Constant Matrix: (Units=GPa)
#
#
# Indices 1 2 3 4 5 6 
#
# 1 80.4780 56.0947 36.8638 0.0000 0.0000 0.0000
# 2 56.0947 143.5306 80.4329 0.0000 0.0000 0.0000
# 3 36.8638 80.4329 45.0863 0.0000 0.0000 0.0000
# 4 0.0000 0.0000 0.0000 41.5690 0.0000 0.0000
# 5 0.0000 0.0000 0.0000 0.0000 -36.9294 0.0000
# 6 0.0000 0.0000 0.0000 0.0000 0.0000 24.7298
#
#
#
# Elastic Compliance Matrix: (Units=1/GPa)
#
#
# Indices 1 2 3 4 5 6 
#
# 1 -0.000442 -0.105718 0.188959 0.000000 0.000000 0.000000
# 2 -0.105718 -0.550348 1.068245 0.000000 0.000000 0.000000
# 3 0.188959 1.068245 -2.038041 0.000000 0.000000 0.000000
# 4 0.000000 0.000000 0.000000 0.024056 0.000000 0.000000
# 5 0.000000 0.000000 0.000000 0.000000 -0.027079 0.000000
# 6 0.000000 0.000000 0.000000 0.000000 0.000000 0.040437
#
#
# Mechanical properties :
#
#
# Convention : Reuss Voigt Hill
#
# Bulk Modulus (GPa) = -3.49824 68.43085 32.46630
# Shear Modulus (GPa) = -1.01017 12.25412 5.62198
#
# Velocity S-wave (km/s) = -0.74398 2.59123 1.75513
# Velocity P-wave (km/s) = 1.62936 6.81531 4.67940
#
# Compressibility (1/GPa) = -0.28585811
#
# Stress axis : x y z
#
# Youngs Moduli (GPa) = -2264.93027 -1.81703 -0.49067
#
# Poissons Ratio (x) = -0.19209 0.09272
# Poissons Ratio (y) = -239.44323 0.52415
# Poissons Ratio (z) = 427.97835 1.94103
#
# Static dielectric constant tensor:
#      x y z
#    x 1.614460 0.000000 0.000000 
#    y 0.000000 1.618490 0.000000 
#    z 0.000000 0.000000 1.555740 
# 
# From -- ./inp_files/57249.got.cif
#   From: 2010.05.17/outbox.ucp.g08.bks.cvg/sg65_29_cif.got.tgz:57249.got - 2010.06.11 16:39:57.
