data_PCOD9494638
_publ_section_title
;
Structure prediction by ZEFSAII (Michael W. Deem and Ramdas Pophale) SiO2 
 PCOD9494638
Probable space group: C M M M
;
_chemical_formula_sum "Si O2"
_cell_formula_units_Z 56
_cell_length_a 27.000000
_cell_length_b 15.000000
_cell_length_c 15.000000
_cell_angle_alpha 90.000000
_cell_angle_beta 90.000000
_cell_angle_gamma 90.000000
_cell_volume 6075.000000
_symmetry_space_group_name_H-M "C M M M"
_symmetry_group_IT_number 65
_symmetry_cell_setting 'orthorhombic'
loop_
_space_group_symop_operation_xyz
x,y,z
-x,-y,z
x,-y,-z
-x,y,-z
-x,-y,-z
x,y,-z
-x,y,z
x,-y,z
1/2+x,1/2+y,z
1/2-x,1/2-y,z
1/2+x,1/2-y,-z
1/2-x,1/2+y,-z
1/2-x,1/2-y,-z
1/2+x,1/2+y,-z
1/2-x,1/2+y,z
1/2+x,1/2-y,z
loop_
_atom_site_type_symbol
_atom_site_label
_atom_site_fract_x
_atom_site_fract_y
_atom_site_fract_z
Si Si1 0.624957 0.105621 0.598657
Si Si2 0.710748 0.102655 0.104395
Si Si3 0.199118 0.900252 0.758437
Si Si4 0.558040 0.895934 0.757042
Si Si5 0.732214 0.851354 0.602149
Si Si6 0.867333 0.750440 0.168667
Si Si7 0.444269 0.601446 0.106058
O O1 0.619583 0.143700 0.500000
O O2 0.575671 0.116243 0.655220
O O3 0.676077 0.142558 0.639060
O O4 0.633598 0.000000 0.593676
O O5 0.759766 0.113160 0.164127
O O6 0.673592 0.185245 0.123099
O O7 0.691496 0.000000 0.123777
O O8 0.723234 0.104496 0.000000
O O9 0.229960 0.899448 0.666972
O O10 0.162482 0.815788 0.763520
O O11 0.177238 0.000000 0.770203
O O12 0.500000 0.881324 0.770101
O O13 0.592183 0.823308 0.803595
O O14 0.568765 0.000000 0.781211
O O15 0.731029 0.885487 0.500000
O O16 0.750000 0.750000 0.599433
O O17 0.901390 0.826317 0.122204
O O18 0.500000 0.627131 0.139374
O O19 0.433808 0.500000 0.139010
O O20 0.447924 0.595250 0.000000
#
# Coordination Sequence:
#
# PCOD9494638 Si02
#       7
#    16  16  16  16  16  16  16
#     4   9  17  30  49  71  96 129 168 209 254 303
#     4  10  22  38  55  78 109 143 177 215 262 316
#     4  11  23  36  52  77 109 145 183 219 259 312
#     4  10  21  35  52  76 104 134 169 212 265 320
#     4  10  19  32  52  78 107 139 176 218 263 311
#     4  12  21  34  54  77 105 139 176 214 258 313
#     4   9  19  36  56  77 100 128 169 223 275 315
#
# _framework density 9.2181069999999998
#
# number of rings (size 3 to 8) (size 9 to 14) (size 15 to 20)
#    0.000    1.857    0.000    5.571    0.000    5.143 
#    0.000    2.857    0.000    0.000    0.000    6.000 
#    0.000    0.000    0.000   13.714    0.000    0.286 
#
# Total GULP energy -311748.912669 kJ/mol
# GULP energy per Si atom -5566.944869 kJ/mol
# Density = 0.919713 g / cm^3
# Si number density = 9.218107 Si / 1000 Ang^3
#
#
#
# Elastic Constant Matrix: (Units=GPa)
#
#
# Indices 1 2 3 4 5 6 
#
# 1 69.4343 37.4550 26.2426 0.0000 0.0000 0.0000
# 2 37.4550 102.1290 27.7848 0.0000 0.0000 0.0000
# 3 26.2426 27.7848 44.2392 0.0000 0.0000 0.0000
# 4 0.0000 0.0000 0.0000 21.7298 0.0000 0.0000
# 5 0.0000 0.0000 0.0000 0.0000 22.9736 0.0000
# 6 0.0000 0.0000 0.0000 0.0000 0.0000 40.1951
#
#
#
# Elastic Compliance Matrix: (Units=1/GPa)
#
#
# Indices 1 2 3 4 5 6 
#
# 1 0.020545 -0.005089 -0.008992 0.000000 0.000000 0.000000
# 2 -0.005089 0.013070 -0.005190 0.000000 0.000000 0.000000
# 3 -0.008992 -0.005190 0.031198 0.000000 0.000000 0.000000
# 4 0.000000 0.000000 0.000000 0.046020 0.000000 0.000000
# 5 0.000000 0.000000 0.000000 0.000000 0.043528 0.000000
# 6 0.000000 0.000000 0.000000 0.000000 0.000000 0.024879
#
#
# Mechanical properties :
#
#
# Convention : Reuss Voigt Hill
#
# Bulk Modulus (GPa) = 38.06251 44.30750 41.18501
# Shear Modulus (GPa) = 22.07142 25.26772 23.66957
#
# Velocity S-wave (km/s) = 3.46378 3.70611 3.58699
# Velocity P-wave (km/s) = 6.05701 6.51143 6.28832
#
# Compressibility (1/GPa) = 0.02627257
#
# Stress axis : x y z
#
# Youngs Moduli (GPa) = 48.67267 76.51269 32.05362
#
# Poissons Ratio (x) = 0.38935 0.28821
# Poissons Ratio (y) = 0.24768 0.16636
# Poissons Ratio (z) = 0.43764 0.39710
#
# Static dielectric constant tensor:
#      x y z
#    x 1.643550 0.000000 0.000000 
#    y 0.000000 1.654590 0.000000 
#    z 0.000000 0.000000 1.685060 
# 
# From -- ./inp_files/40870.got.cif
#   From: 2010.05.17/outbox.ucp.g08.bks.cvg/sg65_21_cif.got.tgz:40870.got - 2010.06.11 16:39:57.
