data_PCOD9494543
_publ_section_title
;
Structure prediction by ZEFSAII (Michael W. Deem and Ramdas Pophale) SiO2 
 PCOD9494543
Probable space group: C M M M
;
_chemical_formula_sum "Si O2"
_cell_formula_units_Z 88
_cell_length_a 23.714423
_cell_length_b 17.303758
_cell_length_c 14.016613
_cell_angle_alpha 90.000000
_cell_angle_beta 90.000000
_cell_angle_gamma 90.000000
_cell_volume 5751.698036
_symmetry_space_group_name_H-M "C M M M"
_symmetry_group_IT_number 65
_symmetry_cell_setting 'orthorhombic'
loop_
_space_group_symop_operation_xyz
x,y,z
-x,-y,z
x,-y,-z
-x,y,-z
-x,-y,-z
x,y,-z
-x,y,z
x,-y,z
1/2+x,1/2+y,z
1/2-x,1/2-y,z
1/2+x,1/2-y,-z
1/2-x,1/2+y,-z
1/2-x,1/2-y,-z
1/2+x,1/2+y,-z
1/2-x,1/2+y,z
1/2+x,1/2-y,z
loop_
_atom_site_type_symbol
_atom_site_label
_atom_site_fract_x
_atom_site_fract_y
_atom_site_fract_z
Si Si1 0.935870 0.092293 0.275122
Si Si2 0.174625 0.092892 0.608029
Si Si3 0.646254 0.137867 0.886288
Si Si4 0.064035 0.500000 0.884259
Si Si5 0.238972 0.841250 0.214784
Si Si6 0.375695 0.681089 0.888554
O O1 0.887954 0.112564 0.352628
O O2 0.919859 0.138967 0.179943
O O3 0.000000 0.108263 0.305264
O O4 0.931238 0.000000 0.257245
O O5 0.182914 0.120714 0.500000
O O6 0.218874 0.124837 0.684701
O O7 0.178563 0.000000 0.607841
O O8 0.704104 0.124443 0.829309
O O9 0.626168 0.226317 0.871775
O O10 0.599065 0.076192 0.857402
O O11 0.657248 0.129620 0.000000
O O12 0.000000 0.500000 0.848574
O O13 0.061583 0.500000 0.000000
O O14 0.250000 0.750000 0.225116
O O15 0.186146 0.849631 0.142680
O O16 0.385937 0.667392 0.000000
#
# Coordination Sequence:
#
# PCOD9494543 Si02
#       6
#    16  16  16   8  16  16
#     4   9  18  31  45  63  88 119 155 189 219 259
#     4   9  18  31  46  65  89 114 143 184 229 271
#     4   9  17  29  46  66  90 122 151 180 223 268
#     4   9  18  30  42  62  91 119 154 191 215 251
#     4   9  17  29  46  67  90 115 145 183 223 273
#     4   9  17  29  44  64  92 122 151 184 222 264
#
# _framework density 15.29983
#
# number of rings (size 3 to 8) (size 9 to 14) (size 15 to 20)
#    0.000    3.000    0.000    0.545    1.273    4.364 
#    0.000    4.545    0.000    0.000    0.000    0.000 
#    0.000    1.455    0.000    0.000    0.000    0.909 
#
# Total GULP energy -245055.417495 kJ/mol
# GULP energy per Si atom -5569.441307 kJ/mol
# Density = 1.526501 g / cm^3
# Si number density = 15.299830 Si / 1000 Ang^3
#
#
#
# Elastic Constant Matrix: (Units=GPa)
#
#
# Indices 1 2 3 4 5 6 
#
# 1 107.5287 35.9348 34.1887 0.0000 0.0000 0.0000
# 2 35.9348 25.9916 24.2508 0.0000 0.0000 0.0000
# 3 34.1887 24.2508 73.9044 0.0000 0.0000 0.0000
# 4 0.0000 0.0000 0.0000 20.3727 0.0000 0.0000
# 5 0.0000 0.0000 0.0000 0.0000 11.5783 0.0000
# 6 0.0000 0.0000 0.0000 0.0000 0.0000 22.6329
#
#
#
# Elastic Compliance Matrix: (Units=1/GPa)
#
#
# Indices 1 2 3 4 5 6 
#
# 1 0.017290 -0.023696 -0.000223 0.000000 0.000000 0.000000
# 2 -0.023696 0.087927 -0.017890 0.000000 0.000000 0.000000
# 3 -0.000223 -0.017890 0.019504 0.000000 0.000000 0.000000
# 4 0.000000 0.000000 0.000000 0.049085 0.000000 0.000000
# 5 0.000000 0.000000 0.000000 0.000000 0.086369 0.000000
# 6 0.000000 0.000000 0.000000 0.000000 0.000000 0.044183
#
#
# Mechanical properties :
#
#
# Convention : Reuss Voigt Hill
#
# Bulk Modulus (GPa) = 24.32907 44.01927 34.17417
# Shear Modulus (GPa) = 12.44780 18.45347 15.45064
#
# Velocity S-wave (km/s) = 2.85545 3.47670 3.18127
# Velocity P-wave (km/s) = 5.17759 6.70448 5.98989
#
# Compressibility (1/GPa) = 0.04110310
#
# Stress axis : x y z
#
# Youngs Moduli (GPa) = 57.83835 11.37309 51.27027
#
# Poissons Ratio (x) = 0.26950 0.01142
# Poissons Ratio (y) = 1.37053 0.91724
# Poissons Ratio (z) = 0.01288 0.20347
#
# Static dielectric constant tensor:
#      x y z
#    x 1.509590 0.000000 0.000000 
#    y 0.000000 1.505490 0.000000 
#    z 0.000000 0.000000 1.487450 
# 
# From -- ./inp_files/26800.got.cif
#   From: 2010.05.17/outbox.cif.g08.bks.cpg/sg65_14_cif.got.tgz:26800.got - 2010.06.03 17:01:31.
