data_PCOD9494834
_publ_section_title
;
Structure prediction by ZEFSAII (Michael W. Deem and Ramdas Pophale) SiO2 
 PCOD9494834
Probable space group: C M M M
;
_chemical_formula_sum "Si O2"
_cell_formula_units_Z 36
_cell_length_a 30.000000
_cell_length_b 9.000000
_cell_length_c 15.000000
_cell_angle_alpha 90.000000
_cell_angle_beta 90.000000
_cell_angle_gamma 90.000000
_cell_volume 4050.000000
_symmetry_space_group_name_H-M "C M M M"
_symmetry_group_IT_number 65
_symmetry_cell_setting 'orthorhombic'
loop_
_space_group_symop_operation_xyz
x,y,z
-x,-y,z
x,-y,-z
-x,y,-z
-x,-y,-z
x,y,-z
-x,y,z
x,-y,z
1/2+x,1/2+y,z
1/2-x,1/2-y,z
1/2+x,1/2-y,-z
1/2-x,1/2+y,-z
1/2-x,1/2-y,-z
1/2+x,1/2+y,-z
1/2-x,1/2+y,z
1/2+x,1/2-y,z
loop_
_atom_site_type_symbol
_atom_site_label
_atom_site_fract_x
_atom_site_fract_y
_atom_site_fract_z
Si Si1 0.446005 0.668523 0.000000
Si Si2 0.298313 0.178804 0.898085
Si Si3 0.863431 0.322192 0.736566
Si Si4 0.948308 0.819688 0.195042
Si Si5 0.296352 0.672899 0.606979
O O1 0.435426 0.737242 0.095263
O O2 0.428099 0.500000 0.000000
O O3 0.500000 0.657190 0.000000
O O4 0.250000 0.250000 0.879603
O O5 0.334617 0.222524 0.824408
O O6 0.293889 0.000000 0.894644
O O7 0.311130 0.219952 0.000000
O O8 0.866246 0.500000 0.734511
O O9 0.912111 0.250181 0.740818
O O10 0.836077 0.259681 0.653560
O O11 0.000000 0.781534 0.212604
O O12 0.945748 0.000000 0.194345
O O13 0.299732 0.680592 0.500000
O O14 0.296204 0.500000 0.633460
O O15 0.250000 0.750000 0.633650
#
# Coordination Sequence:
#
# PCOD9494834 Si02
#       5
#     8  16  16  16  16
#     4   7  12  26  47  69  94 129 176 225 267 305
#     4   9  19  34  48  67 100 139 176 211 250 301
#     4  11  22  33  52  79 108 142 178 220 265 318
#     4   9  18  33  52  74 103 140 183 229 271 314
#     4  10  21  38  60  84 110 138 171 216 268 321
#
# _framework density 8.8888890000000007
#
# number of rings (size 3 to 8) (size 9 to 14) (size 15 to 20)
#    0.000    2.556    0.000    3.333    1.556    5.333 
#    0.000    0.000    0.000    2.667    0.000    4.667 
#    0.000    0.000    0.000    0.000    0.000    0.000 
#
# Total GULP energy -200763.880921 kJ/mol
# GULP energy per Si atom -5576.774470 kJ/mol
# Density = 0.886866 g / cm^3
# Si number density = 8.888889 Si / 1000 Ang^3
#
#
#
# Elastic Constant Matrix: (Units=GPa)
#
#
# Indices 1 2 3 4 5 6 
#
# 1 110.9149 41.6893 34.8553 0.0000 0.0000 0.0000
# 2 41.6893 42.0194 23.5249 0.0000 0.0000 0.0000
# 3 34.8553 23.5249 26.4375 0.0000 0.0000 0.0000
# 4 0.0000 0.0000 0.0000 8.1604 0.0000 0.0000
# 5 0.0000 0.0000 0.0000 0.0000 16.9234 0.0000
# 6 0.0000 0.0000 0.0000 0.0000 0.0000 29.0740
#
#
#
# Elastic Compliance Matrix: (Units=1/GPa)
#
#
# Indices 1 2 3 4 5 6 
#
# 1 0.016790 -0.008499 -0.014573 0.000000 0.000000 0.000000
# 2 -0.008499 0.051727 -0.034822 0.000000 0.000000 0.000000
# 3 -0.014573 -0.034822 0.088024 0.000000 0.000000 0.000000
# 4 0.000000 0.000000 0.000000 0.122543 0.000000 0.000000
# 5 0.000000 0.000000 0.000000 0.000000 0.059090 0.000000
# 6 0.000000 0.000000 0.000000 0.000000 0.000000 0.034395
#
#
# Mechanical properties :
#
#
# Convention : Reuss Voigt Hill
#
# Bulk Modulus (GPa) = 24.53908 42.16788 33.35348
# Shear Modulus (GPa) = 9.96129 16.11838 13.03984
#
# Velocity S-wave (km/s) = 2.36968 3.01434 2.71124
# Velocity P-wave (km/s) = 4.61740 5.99049 5.34819
#
# Compressibility (1/GPa) = 0.04075132
#
# Stress axis : x y z
#
# Youngs Moduli (GPa) = 59.55832 19.33238 11.36050
#
# Poissons Ratio (x) = 0.16431 0.16556
# Poissons Ratio (y) = 0.50621 0.39560
# Poissons Ratio (z) = 0.86796 0.67320
#
# Static dielectric constant tensor:
#      x y z
#    x 1.590010 0.000000 0.000000 
#    y 0.000000 1.597630 0.000000 
#    z 0.000000 0.000000 1.637960 
# 
# From -- ./inp_files/36587.got.cif
#   From: 2010.05.17/outbox.ucp.g08.bks.cvg/sg65_19_cif.got.tgz:36587.got - 2010.06.11 16:39:57.
