data_PCOD9494035
_publ_section_title
;
Structure prediction by ZEFSAII (Michael W. Deem and Ramdas Pophale) SiO2 
 PCOD9494035
Probable space group: C M M M
;
_chemical_formula_sum "Si O2"
_cell_formula_units_Z 88
_cell_length_a 7.386521
_cell_length_b 28.103156
_cell_length_c 23.893648
_cell_angle_alpha 90.000000
_cell_angle_beta 90.000000
_cell_angle_gamma 90.000000
_cell_volume 4959.952215
_symmetry_space_group_name_H-M "C M M M"
_symmetry_group_IT_number 65
_symmetry_cell_setting 'orthorhombic'
loop_
_space_group_symop_operation_xyz
x,y,z
-x,-y,z
x,-y,-z
-x,y,-z
-x,-y,-z
x,y,-z
-x,y,z
x,-y,z
1/2+x,1/2+y,z
1/2-x,1/2-y,z
1/2+x,1/2-y,-z
1/2-x,1/2+y,-z
1/2-x,1/2-y,-z
1/2+x,1/2+y,-z
1/2-x,1/2+y,z
1/2+x,1/2-y,z
loop_
_atom_site_type_symbol
_atom_site_label
_atom_site_fract_x
_atom_site_fract_y
_atom_site_fract_z
Si Si1 0.783603 0.306165 0.438200
Si Si2 0.500000 0.556771 0.933605
Si Si3 0.784791 0.304672 0.790441
Si Si4 0.782372 0.601618 0.147682
Si Si5 0.778411 0.648169 0.676104
Si Si6 0.219271 0.553075 0.265670
O O1 0.713620 0.319688 0.500000
O O2 0.750000 0.250000 0.430752
O O3 0.714420 0.333807 0.383947
O O4 0.000000 0.312964 0.439441
O O5 0.500000 0.500000 0.923164
O O6 0.326894 0.580729 0.903988
O O7 0.500000 0.564384 0.000000
O O8 0.750000 0.250000 0.804318
O O9 0.724265 0.344835 0.834460
O O10 0.718785 0.318452 0.728032
O O11 0.000000 0.311015 0.788113
O O12 0.738520 0.570015 0.202695
O O13 0.000000 0.600291 0.139177
O O14 0.722138 0.594835 0.692609
O O15 0.000000 0.649264 0.675307
O O16 0.285428 0.500000 0.276914
O O17 0.000000 0.552199 0.268512
#
# Coordination Sequence:
#
# PCOD9494035 Si02
#       6
#    16   8  16  16  16  16
#     4   9  16  25  38  55  79 115 150 184 228 277
#     4  11  24  38  56  82 106 134 169 205 248 290
#     4   9  17  28  47  74  98 128 161 198 251 297
#     4   9  19  35  53  77 105 134 166 204 247 298
#     4   8  14  24  37  60  92 116 151 196 235 285
#     4   8  13  24  45  67  88 119 153 186 234 288
#
# _framework density 17.742106
#
# number of rings (size 3 to 8) (size 9 to 14) (size 15 to 20)
#    0.000    3.182    0.000    3.273    1.273    1.455 
#    0.000    0.909    2.000    1.091    0.000    3.818 
#    0.000    0.000    0.000    4.545    0.000    4.727 
#
# Total GULP energy -245271.183900 kJ/mol
# GULP energy per Si atom -5574.345089 kJ/mol
# Density = 1.770172 g / cm^3
# Si number density = 17.742106 Si / 1000 Ang^3
#
#
#
# Elastic Constant Matrix: (Units=GPa)
#
#
# Indices 1 2 3 4 5 6 
#
# 1 72.1675 19.6282 35.3586 0.0000 0.0000 0.0000
# 2 19.6282 145.5451 91.9000 0.0000 0.0000 0.0000
# 3 35.3586 91.9000 151.1884 0.0000 0.0000 0.0000
# 4 0.0000 0.0000 0.0000 22.9566 0.0000 0.0000
# 5 0.0000 0.0000 0.0000 0.0000 -207.2109 0.0000
# 6 0.0000 0.0000 0.0000 0.0000 0.0000 14.2842
#
#
#
# Elastic Compliance Matrix: (Units=1/GPa)
#
#
# Indices 1 2 3 4 5 6 
#
# 1 0.015659 0.000326 -0.003860 0.000000 0.000000 0.000000
# 2 0.000326 0.011157 -0.006858 0.000000 0.000000 0.000000
# 3 -0.003860 -0.006858 0.011686 0.000000 0.000000 0.000000
# 4 0.000000 0.000000 0.000000 0.043561 0.000000 0.000000
# 5 0.000000 0.000000 0.000000 0.000000 -0.004826 0.000000
# 6 0.000000 0.000000 0.000000 0.000000 0.000000 0.070008
#
#
# Mechanical properties :
#
#
# Convention : Reuss Voigt Hill
#
# Bulk Modulus (GPa) = 56.44303 73.63052 65.03677
# Shear Modulus (GPa) = 28.74636 -19.19308 4.77664
#
# Velocity S-wave (km/s) = 4.02958 -3.29261 1.64259
# Velocity P-wave (km/s) = 7.31656 5.20917 6.35089
#
# Compressibility (1/GPa) = 0.01771698
#
# Stress axis : x y z
#
# Youngs Moduli (GPa) = 63.85932 89.62926 85.57488
#
# Poissons Ratio (x) = -0.02918 0.33033
# Poissons Ratio (y) = -0.02079 0.58687
# Poissons Ratio (z) = 0.24651 0.61467
#
# Static dielectric constant tensor:
#      x y z
#    x 1.689800 0.000000 0.000000 
#    y 0.000000 1.616660 0.000000 
#    z 0.000000 0.000000 1.583640 
# 
# From -- ./inp_files/60697.got.cif
#   From: 2010.05.17/outbox.cif.g08.bks.cpg/sg65_31_cif.got.tgz:60697.got - 2010.06.03 17:01:31.
