data_PCOD9494913
_publ_section_title
;
Structure prediction by ZEFSAII (Michael W. Deem and Ramdas Pophale) SiO2 
 PCOD9494913
Probable space group: C C C M
;
_chemical_formula_sum "Si O2"
_cell_formula_units_Z 112
_cell_length_a 24.125438
_cell_length_b 12.039640
_cell_length_c 23.305245
_cell_angle_alpha 90.000000
_cell_angle_beta 90.000000
_cell_angle_gamma 90.000000
_cell_volume 6769.278480
_symmetry_space_group_name_H-M "C C C M"
_symmetry_group_IT_number 66
_symmetry_cell_setting 'orthorhombic'
loop_
_space_group_symop_operation_xyz
x,y,z
-x,-y,z
x,-y,1/2-z
-x,y,1/2-z
-x,-y,-z
x,y,-z
-x,y,1/2+z
x,-y,1/2+z
1/2+x,1/2+y,z
1/2-x,1/2-y,z
1/2+x,1/2-y,1/2-z
1/2-x,1/2+y,1/2-z
1/2-x,1/2-y,-z
1/2+x,1/2+y,-z
1/2-x,1/2+y,1/2+z
1/2+x,1/2-y,1/2+z
loop_
_atom_site_type_symbol
_atom_site_label
_atom_site_fract_x
_atom_site_fract_y
_atom_site_fract_z
Si Si1 0.767660 0.922269 0.319239
Si Si2 0.289458 0.146276 0.164998
Si Si3 0.664783 0.773936 0.278961
Si Si4 0.600045 0.814523 0.614388
Si Si5 0.697679 0.334727 0.064085
Si Si6 0.631552 0.939572 0.931080
Si Si7 0.487588 0.131993 0.933339
O O1 0.713221 0.845672 0.310527
O O2 0.815314 0.853877 0.285410
O O3 0.787765 0.918887 0.385227
O O4 0.747179 0.046448 0.308277
O O5 0.250000 0.250000 0.154651
O O6 0.333313 0.183828 0.213989
O O7 0.318643 0.104702 0.107532
O O8 0.612108 0.798966 0.318124
O O9 0.641582 0.730041 0.581905
O O10 0.534982 0.804109 0.601061
O O11 0.617958 0.936266 0.591354
O O12 0.750000 0.250000 0.063742
O O13 0.692688 0.380950 0.000000
O O14 0.577436 0.862573 0.919621
O O15 0.640618 0.943305 0.000000
O O16 0.500000 0.000000 0.928000
O O17 0.495240 0.160954 0.000000
#
# Coordination Sequence:
#
# PCOD9494913 Si02
#       7
#    16  16  16  16  16  16  16
#     4  10  18  33  44  69  97 121 161 195 232 288
#     4  12  23  33  52  66  96 139 164 192 238 290
#     4  10  19  31  49  72  94 123 159 201 237 287
#     4  10  16  28  50  74  97 127 156 194 248 299
#     4  10  16  24  42  71  99 119 145 194 247 279
#     4  10  20  32  46  68  98 131 168 201 228 283
#     4   8  15  28  45  67  96 128 160 193 238 291
#
# _framework density 16.545337
#
# number of rings (size 3 to 8) (size 9 to 14) (size 15 to 20)
#    0.000    2.000    5.714    2.571    0.000    2.000 
#    0.000    0.714    0.000    2.571    0.000    4.000 
#    0.000   14.857    0.000    0.000    0.000    0.000 
#
# Total GULP energy -311787.774954 kJ/mol
# GULP energy per Si atom -5567.638838 kJ/mol
# Density = 1.650768 g / cm^3
# Si number density = 16.545337 Si / 1000 Ang^3
#
#
#
# Elastic Constant Matrix: (Units=GPa)
#
#
# Indices 1 2 3 4 5 6 
#
# 1 62.1656 24.8351 27.7421 0.0000 0.0000 0.0000
# 2 24.8351 55.1660 16.8430 0.0000 0.0000 0.0000
# 3 27.7421 16.8430 89.6096 0.0000 0.0000 0.0000
# 4 0.0000 0.0000 0.0000 14.3956 0.0000 0.0000
# 5 0.0000 0.0000 0.0000 0.0000 18.1951 0.0000
# 6 0.0000 0.0000 0.0000 0.0000 0.0000 18.9459
#
#
#
# Elastic Compliance Matrix: (Units=1/GPa)
#
#
# Indices 1 2 3 4 5 6 
#
# 1 0.021657 -0.008172 -0.005169 0.000000 0.000000 0.000000
# 2 -0.008172 0.022314 -0.001664 0.000000 0.000000 0.000000
# 3 -0.005169 -0.001664 0.013073 0.000000 0.000000 0.000000
# 4 0.000000 0.000000 0.000000 0.069466 0.000000 0.000000
# 5 0.000000 0.000000 0.000000 0.000000 0.054960 0.000000
# 6 0.000000 0.000000 0.000000 0.000000 0.000000 0.052782
#
#
# Mechanical properties :
#
#
# Convention : Reuss Voigt Hill
#
# Bulk Modulus (GPa) = 36.99024 38.42015 37.70520
# Shear Modulus (GPa) = 18.29675 19.47539 18.88607
#
# Velocity S-wave (km/s) = 3.32905 3.43460 3.38224
# Velocity P-wave (km/s) = 6.09772 6.24501 6.17181
#
# Compressibility (1/GPa) = 0.02703416
#
# Stress axis : x y z
#
# Youngs Moduli (GPa) = 46.17373 44.81478 76.49607
#
# Poissons Ratio (x) = 0.36621 0.39540
# Poissons Ratio (y) = 0.37732 0.12731
# Poissons Ratio (z) = 0.23867 0.07458
#
# Static dielectric constant tensor:
#      x y z
#    x 1.568000 0.000000 0.000000 
#    y 0.000000 1.554210 0.000000 
#    z 0.000000 0.000000 1.605120 
# 
# From -- ./inp_files/59902.got.cif
#   From: 2010.05.17/outbox.cif.g08.bks.cpg/sg66_30_cif.got.tgz:59902.got - 2010.06.03 17:51:23.
