data_PCOD9494409
_publ_section_title
;
Structure prediction by ZEFSAII (Michael W. Deem and Ramdas Pophale) SiO2 
 PCOD9494409
Probable space group: C M M M
;
_chemical_formula_sum "Si O2"
_cell_formula_units_Z 80
_cell_length_a 7.356573
_cell_length_b 15.613229
_cell_length_c 31.392233
_cell_angle_alpha 90.000000
_cell_angle_beta 90.000000
_cell_angle_gamma 90.000000
_cell_volume 3605.707453
_symmetry_space_group_name_H-M "C M M M"
_symmetry_group_IT_number 65
_symmetry_cell_setting 'orthorhombic'
loop_
_space_group_symop_operation_xyz
x,y,z
-x,-y,z
x,-y,-z
-x,y,-z
-x,-y,-z
x,y,-z
-x,y,z
x,-y,z
1/2+x,1/2+y,z
1/2-x,1/2-y,z
1/2+x,1/2-y,-z
1/2-x,1/2+y,-z
1/2-x,1/2-y,-z
1/2+x,1/2+y,-z
1/2-x,1/2+y,z
1/2+x,1/2-y,z
loop_
_atom_site_type_symbol
_atom_site_label
_atom_site_fract_x
_atom_site_fract_y
_atom_site_fract_z
Si Si1 0.222359 0.500000 0.706759
Si Si2 0.783203 0.348748 0.451847
Si Si3 0.722572 0.000000 0.609038
Si Si4 0.782487 0.648228 0.230503
Si Si5 0.712079 0.897347 0.045566
Si Si6 0.716078 0.850704 0.862302
O O1 0.281880 0.500000 0.657888
O O2 0.281183 0.584778 0.732563
O O3 0.000000 0.500000 0.706410
O O4 0.712269 0.362999 0.500000
O O5 0.750000 0.250000 0.440321
O O6 0.717157 0.416663 0.417413
O O7 0.000000 0.360248 0.454100
O O8 0.500000 0.000000 0.609749
O O9 0.750000 0.750000 0.237085
O O10 0.714591 0.618177 0.183653
O O11 0.000000 0.639761 0.228658
O O12 0.500000 0.869319 0.046227
O O13 0.792363 0.875745 0.091581
O O14 0.713873 0.000000 0.043825
O O15 0.788904 0.865996 0.000000
O O16 0.500000 0.871086 0.863687
O O17 0.750000 0.750000 0.859586
#
# Coordination Sequence:
#
# PCOD9494409 Si02
#       6
#     8  16   8  16  16  16
#     4   9  18  31  49  72  93 122 161 195 232 276
#     4   9  17  30  49  72  97 127 161 195 233 276
#     4   9  17  30  48  70  96 125 160 197 232 276
#     4   9  18  32  49  69  93 119 152 193 233 275
#     4   8  14  24  39  61  85 107 136 174 211 249
#     4   9  17  28  44  64  85 109 139 175 217 261
#
# _framework density 22.187045999999999
#
# number of rings (size 3 to 8) (size 9 to 14) (size 15 to 20)
#    0.000    3.200    0.000    0.900    1.400    2.400 
#    0.000    1.000    0.000    4.200    0.000    1.400 
#    0.000    0.000    0.000    0.000    0.000    0.000 
#
# Total GULP energy -222951.487405 kJ/mol
# GULP energy per Si atom -5573.787185 kJ/mol
# Density = 2.213655 g / cm^3
# Si number density = 22.187046 Si / 1000 Ang^3
#
#
#
# Elastic Constant Matrix: (Units=GPa)
#
#
# Indices 1 2 3 4 5 6 
#
# 1 85.1244 -2.3139 13.9972 0.0000 0.0000 0.0000
# 2 -2.3139 104.5432 131.5490 0.0000 0.0000 0.0000
# 3 13.9972 131.5490 272.4139 0.0000 0.0000 0.0000
# 4 0.0000 0.0000 0.0000 41.5291 0.0000 0.0000
# 5 0.0000 0.0000 0.0000 0.0000 -21.4760 0.0000
# 6 0.0000 0.0000 0.0000 0.0000 0.0000 8.9054
#
#
#
# Elastic Compliance Matrix: (Units=1/GPa)
#
#
# Indices 1 2 3 4 5 6 
#
# 1 0.012136 0.002685 -0.001920 0.000000 0.000000 0.000000
# 2 0.002685 0.024973 -0.012198 0.000000 0.000000 0.000000
# 3 -0.001920 -0.012198 0.009660 0.000000 0.000000 0.000000
# 4 0.000000 0.000000 0.000000 0.024080 0.000000 0.000000
# 5 0.000000 0.000000 0.000000 0.000000 -0.046564 0.000000
# 6 0.000000 0.000000 0.000000 0.000000 0.000000 0.112291
#
#
# Mechanical properties :
#
#
# Convention : Reuss Voigt Hill
#
# Bulk Modulus (GPa) = 41.83526 83.17179 62.50352
# Shear Modulus (GPa) = 29.86678 27.04832 28.45755
#
# Velocity S-wave (km/s) = 3.67295 3.49535 3.58525
# Velocity P-wave (km/s) = 6.07323 7.33880 6.73580
#
# Compressibility (1/GPa) = 0.02390328
#
# Stress axis : x y z
#
# Youngs Moduli (GPa) = 82.39822 40.04267 103.52210
#
# Poissons Ratio (x) = -0.10750 0.19876
# Poissons Ratio (y) = -0.22120 1.26272
# Poissons Ratio (z) = 0.15820 0.48842
#
# Static dielectric constant tensor:
#      x y z
#    x 1.881440 0.000000 0.000000 
#    y 0.000000 1.770030 0.000000 
#    z 0.000000 0.000000 1.855420 
# 
# From -- ./inp_files/77211.got.cif
#   From: 2010.05.17/outbox.cif.g08.bks.cpg/sg65_39_cif.got.tgz:77211.got - 2010.06.03 17:01:31.
