data_PCOD9494041
_publ_section_title
;
Structure prediction by ZEFSAII (Michael W. Deem and Ramdas Pophale) SiO2 
 PCOD9494041
Probable space group: C M M M
;
_chemical_formula_sum "Si O2"
_cell_formula_units_Z 104
_cell_length_a 15.679299
_cell_length_b 15.336883
_cell_length_c 23.198170
_cell_angle_alpha 90.000000
_cell_angle_beta 90.000000
_cell_angle_gamma 90.000000
_cell_volume 5578.500460
_symmetry_space_group_name_H-M "C M M M"
_symmetry_group_IT_number 65
_symmetry_cell_setting 'orthorhombic'
loop_
_space_group_symop_operation_xyz
x,y,z
-x,-y,z
x,-y,-z
-x,y,-z
-x,-y,-z
x,y,-z
-x,y,z
x,-y,z
1/2+x,1/2+y,z
1/2-x,1/2-y,z
1/2+x,1/2-y,-z
1/2-x,1/2+y,-z
1/2-x,1/2-y,-z
1/2+x,1/2+y,-z
1/2-x,1/2+y,z
1/2+x,1/2-y,z
loop_
_atom_site_type_symbol
_atom_site_label
_atom_site_fract_x
_atom_site_fract_y
_atom_site_fract_z
Si Si1 0.845993 0.223891 0.231052
Si Si2 0.896268 0.102976 0.127033
Si Si3 0.401522 0.605769 0.000000
Si Si4 0.094790 0.602546 0.385035
Si Si5 0.598617 0.600989 0.664102
Si Si6 0.267650 0.647663 0.435853
Si Si7 0.899034 0.402429 0.258259
O O1 0.750000 0.250000 0.245370
O O2 0.855176 0.161744 0.176042
O O3 0.885519 0.169081 0.284104
O O4 0.885523 0.319220 0.218298
O O5 0.866127 0.130089 0.062641
O O6 0.000000 0.111542 0.129681
O O7 0.877971 0.000000 0.135434
O O8 0.402976 0.500000 0.000000
O O9 0.500000 0.634962 0.000000
O O10 0.083272 0.500000 0.377908
O O11 0.171723 0.612273 0.428718
O O12 0.128569 0.630473 0.321987
O O13 0.000000 0.640290 0.398114
O O14 0.500000 0.611121 0.644712
O O15 0.608976 0.500000 0.684020
O O16 0.666394 0.617194 0.612957
O O17 0.300421 0.627592 0.500000
O O18 0.250000 0.750000 0.430054
O O19 0.863476 0.500000 0.245234
O O20 0.000000 0.412571 0.263679
#
# Coordination Sequence:
#
# PCOD9494041 Si02
#       7
#    16  16   8  16  16  16  16
#     4  12  23  33  51  81 113 143 174 219 278 337
#     4   9  17  32  55  82 112 145 184 229 274 323
#     4   7  12  26  51  80 107 141 185 229 270 313
#     4   9  18  34  56  78  99 128 168 216 271 326
#     4  11  24  41  61  82 106 142 187 237 293 345
#     4  11  24  39  55  78 108 142 180 222 271 331
#     4   9  18  33  52  72  97 133 175 217 262 316
#
# _framework density 18.643001999999999
#
# number of rings (size 3 to 8) (size 9 to 14) (size 15 to 20)
#    0.000    2.077    0.000    6.462    0.000    7.385 
#    0.000    3.462    0.000    0.000    0.000    0.538 
#    0.000    3.077    0.000    0.000    0.000    0.462 
#
# Total GULP energy -289563.963149 kJ/mol
# GULP energy per Si atom -5568.537753 kJ/mol
# Density = 1.860057 g / cm^3
# Si number density = 18.643002 Si / 1000 Ang^3
#
#
#
# Elastic Constant Matrix: (Units=GPa)
#
#
# Indices 1 2 3 4 5 6 
#
# 1 73.2685 26.4801 31.4570 0.0000 0.0000 0.0000
# 2 26.4801 96.5878 44.0587 0.0000 0.0000 0.0000
# 3 31.4570 44.0587 83.9071 0.0000 0.0000 0.0000
# 4 0.0000 0.0000 0.0000 24.6962 0.0000 0.0000
# 5 0.0000 0.0000 0.0000 0.0000 -13.5516 0.0000
# 6 0.0000 0.0000 0.0000 0.0000 0.0000 -115.6359
#
#
#
# Elastic Compliance Matrix: (Units=1/GPa)
#
#
# Indices 1 2 3 4 5 6 
#
# 1 0.016632 -0.002256 -0.005051 0.000000 0.000000 0.000000
# 2 -0.002256 0.013920 -0.006464 0.000000 0.000000 0.000000
# 3 -0.005051 -0.006464 0.017206 0.000000 0.000000 0.000000
# 4 0.000000 0.000000 0.000000 0.040492 0.000000 0.000000
# 5 0.000000 0.000000 0.000000 0.000000 -0.073792 0.000000
# 6 0.000000 0.000000 0.000000 0.000000 0.000000 -0.008648
#
#
# Mechanical properties :
#
#
# Convention : Reuss Voigt Hill
#
# Bulk Modulus (GPa) = 49.46296 50.86166 50.16231
# Shear Modulus (GPa) = 124.71946 -10.78042 56.96952
#
# Velocity S-wave (km/s) = 8.18804 -2.40730 5.53394
# Velocity P-wave (km/s) = 10.76946 4.42881 8.23394
#
# Compressibility (1/GPa) = 0.02021715
#
# Stress axis : x y z
#
# Youngs Moduli (GPa) = 60.12395 71.83860 58.12083
#
# Poissons Ratio (x) = 0.16205 0.29357
# Poissons Ratio (y) = 0.13563 0.37567
# Poissons Ratio (z) = 0.30369 0.46433
#
# Static dielectric constant tensor:
#      x y z
#    x 1.885220 0.000000 0.000000 
#    y 0.000000 1.600180 0.000000 
#    z 0.000000 0.000000 1.682680 
# 
# From -- ./inp_files/70062.got.cif
#   From: 2010.05.17/outbox.cif.g08.bks.cpg/sg65_36_cif.got.tgz:70062.got - 2010.06.03 17:01:31.
