data_PCOD9494833
_publ_section_title
;
Structure prediction by ZEFSAII (Michael W. Deem and Ramdas Pophale) SiO2 
 PCOD9494833
Probable space group: C M M M
;
_chemical_formula_sum "Si O2"
_cell_formula_units_Z 36
_cell_length_a 9.000000
_cell_length_b 30.000000
_cell_length_c 15.000000
_cell_angle_alpha 90.000000
_cell_angle_beta 90.000000
_cell_angle_gamma 90.000000
_cell_volume 4050.000000
_symmetry_space_group_name_H-M "C M M M"
_symmetry_group_IT_number 65
_symmetry_cell_setting 'orthorhombic'
loop_
_space_group_symop_operation_xyz
x,y,z
-x,-y,z
x,-y,-z
-x,y,-z
-x,-y,-z
x,y,-z
-x,y,z
x,-y,z
1/2+x,1/2+y,z
1/2-x,1/2-y,z
1/2+x,1/2-y,-z
1/2-x,1/2+y,-z
1/2-x,1/2-y,-z
1/2+x,1/2+y,-z
1/2-x,1/2+y,z
1/2+x,1/2-y,z
loop_
_atom_site_type_symbol
_atom_site_label
_atom_site_fract_x
_atom_site_fract_y
_atom_site_fract_z
Si Si1 0.333720 0.500000 0.892027
Si Si2 0.821817 0.591584 0.899180
Si Si3 0.324213 0.701927 0.599570
Si Si4 0.176496 0.052055 0.394826
Si Si5 0.176906 0.371093 0.281683
O O1 0.500000 0.500000 0.854814
O O2 0.247128 0.455374 0.869726
O O3 0.342586 0.500000 0.000000
O O4 0.782317 0.626027 0.822432
O O5 0.000000 0.586999 0.900781
O O6 0.772122 0.601970 0.000000
O O7 0.295203 0.683409 0.500000
O O8 0.500000 0.705982 0.610161
O O9 0.250000 0.750000 0.604487
O O10 0.255404 0.669704 0.671320
O O11 0.208884 0.059278 0.500000
O O12 0.268430 0.084728 0.332725
O O13 0.000000 0.060378 0.382621
O O14 0.204458 0.000000 0.375116
O O15 0.000000 0.367519 0.289359
#
# Coordination Sequence:
#
# PCOD9494833 Si02
#       5
#     8  16  16  16  16
#     4   9  17  29  47  71  96 127 174 227 269 304
#     4   9  19  35  51  69 101 143 180 217 263 313
#     4  10  21  38  60  84 110 138 168 208 261 317
#     4   9  19  35  51  69 100 142 180 213 257 313
#     4  11  22  33  52  80 106 136 177 220 262 311
#
# _framework density 8.8888890000000007
#
# number of rings (size 3 to 8) (size 9 to 14) (size 15 to 20)
#    0.000    2.333    0.000    3.000    1.556    8.000 
#    0.000    1.111    0.000    0.667    0.000    0.000 
#    0.000    0.000    0.000    0.000    0.000    0.000 
#
# Total GULP energy -200863.186518 kJ/mol
# GULP energy per Si atom -5579.532959 kJ/mol
# Density = 0.886866 g / cm^3
# Si number density = 8.888889 Si / 1000 Ang^3
#
#
#
# Elastic Constant Matrix: (Units=GPa)
#
#
# Indices 1 2 3 4 5 6 
#
# 1 29.9268 40.2924 63.0270 0.0000 0.0000 0.0000
# 2 40.2924 63.3244 71.3511 0.0000 0.0000 0.0000
# 3 63.0270 71.3511 118.8792 0.0000 0.0000 0.0000
# 4 0.0000 0.0000 0.0000 -132.2658 0.0000 0.0000
# 5 0.0000 0.0000 0.0000 0.0000 15.7621 0.0000
# 6 0.0000 0.0000 0.0000 0.0000 0.0000 29.3439
#
#
#
# Elastic Compliance Matrix: (Units=1/GPa)
#
#
# Indices 1 2 3 4 5 6 
#
# 1 -0.264220 0.031755 0.121025 0.000000 0.000000 0.000000
# 2 0.031755 0.044965 -0.043823 0.000000 0.000000 0.000000
# 3 0.121025 -0.043823 -0.029450 0.000000 0.000000 0.000000
# 4 0.000000 0.000000 0.000000 -0.007561 0.000000 0.000000
# 5 0.000000 0.000000 0.000000 0.000000 0.063443 0.000000
# 6 0.000000 0.000000 0.000000 0.000000 0.000000 0.034079
#
#
# Mechanical properties :
#
#
# Convention : Reuss Voigt Hill
#
# Bulk Modulus (GPa) = -32.47398 62.38570 14.95586
# Shear Modulus (GPa) = -12.92257 -14.93461 -13.92859
#
# Velocity S-wave (km/s) = -2.69902 -2.90154 -2.80211
# Velocity P-wave (km/s) = 5.29332 4.89314 1.42765
#
# Compressibility (1/GPa) = -0.03079389
#
# Stress axis : x y z
#
# Youngs Moduli (GPa) = -3.78472 22.23949 -33.95610
#
# Poissons Ratio (x) = -0.70620 4.10952
# Poissons Ratio (y) = 0.12018 -1.48807
# Poissons Ratio (z) = 0.45804 0.97461
#
# Static dielectric constant tensor:
#      x y z
#    x 1.592550 0.000000 0.000000 
#    y 0.000000 1.569800 0.000000 
#    z 0.000000 0.000000 1.635150 
# 
# From -- ./inp_files/36943.got.cif
#   From: 2010.05.17/outbox.ucp.g08.bks.cvg/sg65_19_cif.got.tgz:36943.got - 2010.06.11 16:39:57.
