data_PCOD9494725
_publ_section_title
;
Structure prediction by ZEFSAII (Michael W. Deem and Ramdas Pophale) SiO2 
 PCOD9494725
Probable space group: C M M M
;
_chemical_formula_sum "Si O2"
_cell_formula_units_Z 52
_cell_length_a 9.000000
_cell_length_b 27.000000
_cell_length_c 21.000000
_cell_angle_alpha 90.000000
_cell_angle_beta 90.000000
_cell_angle_gamma 90.000000
_cell_volume 5103.000000
_symmetry_space_group_name_H-M "C M M M"
_symmetry_group_IT_number 65
_symmetry_cell_setting 'orthorhombic'
loop_
_space_group_symop_operation_xyz
x,y,z
-x,-y,z
x,-y,-z
-x,y,-z
-x,-y,-z
x,y,-z
-x,y,z
x,-y,z
1/2+x,1/2+y,z
1/2-x,1/2-y,z
1/2+x,1/2-y,-z
1/2-x,1/2+y,-z
1/2-x,1/2-y,-z
1/2+x,1/2+y,-z
1/2-x,1/2+y,z
1/2+x,1/2-y,z
loop_
_atom_site_type_symbol
_atom_site_label
_atom_site_fract_x
_atom_site_fract_y
_atom_site_fract_z
Si Si1 0.825660 0.859166 0.874279
Si Si2 0.676836 0.803233 0.387124
Si Si3 0.678604 0.399067 0.567109
Si Si4 0.167681 0.058861 0.700558
Si Si5 0.176333 0.303331 0.759147
Si Si6 0.666066 0.058679 0.827526
Si Si7 0.179133 0.803196 0.000000
O O1 0.744440 0.836440 0.813754
O O2 0.781151 0.916259 0.874791
O O3 0.000000 0.852515 0.867123
O O4 0.774131 0.832075 0.937289
O O5 0.500000 0.800282 0.395415
O O6 0.750000 0.750000 0.398135
O O7 0.749747 0.845195 0.429395
O O8 0.709279 0.818419 0.313606
O O9 0.719030 0.423549 0.500000
O O10 0.500000 0.394995 0.569267
O O11 0.722861 0.426847 0.630976
O O12 0.280929 0.071291 0.756182
O O13 0.000000 0.079722 0.712074
O O14 0.153321 0.000000 0.702235
O O15 0.250000 0.250000 0.767073
O O16 0.000000 0.299930 0.765661
O O17 0.500000 0.077346 0.838713
O O18 0.666887 0.000000 0.833434
O O19 0.250000 0.750000 0.000000
O O20 0.000000 0.799818 0.000000
#
# Coordination Sequence:
#
# PCOD9494725 Si02
#       7
#    16  16  16  16  16  16   8
#     4  11  22  37  58  83 113 149 187 225 269 320
#     4  10  21  36  54  75 101 134 174 222 273 325
#     4  10  21  35  51  74 105 140 178 220 266 320
#     4   9  18  34  57  83 110 142 179 220 269 323
#     4  10  20  34  54  82 111 139 177 225 276 327
#     4  10  21  37  58  85 114 143 180 227 277 326
#     4  10  24  42  59  84 117 153 190 225 263 314
#
# _framework density 10.190084000000001
#
# number of rings (size 3 to 8) (size 9 to 14) (size 15 to 20)
#    0.000    2.000    0.000    3.231    0.000    9.231 
#    0.000    1.923    0.000    2.308    0.000    3.231 
#    0.000    0.000    0.000    0.000    0.000    0.000 
#
# Total GULP energy -290080.823209 kJ/mol
# GULP energy per Si atom -5578.477369 kJ/mol
# Density = 1.016689 g / cm^3
# Si number density = 10.190084 Si / 1000 Ang^3
#
#
#
# Elastic Constant Matrix: (Units=GPa)
#
#
# Indices 1 2 3 4 5 6 
#
# 1 5.7854 16.1558 31.9785 0.0000 0.0000 0.0000
# 2 16.1558 37.5481 63.1142 0.0000 0.0000 0.0000
# 3 31.9785 63.1142 74.0023 0.0000 0.0000 0.0000
# 4 0.0000 0.0000 0.0000 26.3024 0.0000 0.0000
# 5 0.0000 0.0000 0.0000 0.0000 11.0772 0.0000
# 6 0.0000 0.0000 0.0000 0.0000 0.0000 26.7313
#
#
#
# Elastic Compliance Matrix: (Units=1/GPa)
#
#
# Indices 1 2 3 4 5 6 
#
# 1 -2.266640 1.547883 -0.340661 0.000000 0.000000 0.000000
# 2 1.547883 -1.118470 0.285024 0.000000 0.000000 0.000000
# 3 -0.340661 0.285024 -0.082365 0.000000 0.000000 0.000000
# 4 0.000000 0.000000 0.000000 0.038019 0.000000 0.000000
# 5 0.000000 0.000000 0.000000 0.000000 0.090276 0.000000
# 6 0.000000 0.000000 0.000000 0.000000 0.000000 0.037409
#
#
# Mechanical properties :
#
#
# Convention : Reuss Voigt Hill
#
# Bulk Modulus (GPa) = -2.07046 37.75922 17.84438
# Shear Modulus (GPa) = -0.77552 13.22798 6.22623
#
# Velocity S-wave (km/s) = -0.61754 2.55043 1.74976
# Velocity P-wave (km/s) = 1.23556 5.21925 3.58567
#
# Compressibility (1/GPa) = -0.48298376
#
# Stress axis : x y z
#
# Youngs Moduli (GPa) = -0.44118 -0.89408 -12.14102
#
# Poissons Ratio (x) = 1.38393 -4.13597
# Poissons Ratio (y) = 0.68290 3.46048
# Poissons Ratio (z) = -0.15029 0.25483
#
# Static dielectric constant tensor:
#      x y z
#    x 1.111410 0.000000 0.000000 
#    y 0.000000 1.838720 0.000000 
#    z 0.000000 0.000000 1.737430 
# 
# From -- ./inp_files/60428.got.cif
#   From: 2010.05.17/outbox.ucp.g08.bks.cvg/sg65_31_cif.got.tgz:60428.got - 2010.06.11 16:39:57.
