data_PCOD9494457
_publ_section_title
;
Structure prediction by ZEFSAII (Michael W. Deem and Ramdas Pophale) SiO2 
 PCOD9494457
Probable space group: C M M M
;
_chemical_formula_sum "Si O2"
_cell_formula_units_Z 72
_cell_length_a 14.790462
_cell_length_b 30.617701
_cell_length_c 7.434884
_cell_angle_alpha 90.000000
_cell_angle_beta 90.000000
_cell_angle_gamma 90.000000
_cell_volume 3366.886797
_symmetry_space_group_name_H-M "C M M M"
_symmetry_group_IT_number 65
_symmetry_cell_setting 'orthorhombic'
loop_
_space_group_symop_operation_xyz
x,y,z
-x,-y,z
x,-y,-z
-x,y,-z
-x,-y,-z
x,y,-z
-x,y,z
x,-y,z
1/2+x,1/2+y,z
1/2-x,1/2-y,z
1/2+x,1/2-y,-z
1/2-x,1/2+y,-z
1/2-x,1/2-y,-z
1/2+x,1/2+y,-z
1/2-x,1/2+y,z
1/2+x,1/2-y,z
loop_
_atom_site_type_symbol
_atom_site_label
_atom_site_fract_x
_atom_site_fract_y
_atom_site_fract_z
Si Si1 0.393272 0.953777 0.216085
Si Si2 0.258392 0.700008 0.280077
Si Si3 0.609862 0.550417 0.000000
Si Si4 0.899085 0.359342 0.289738
Si Si5 0.108086 0.877054 0.287506
O O1 0.500000 0.953632 0.268352
O O2 0.356893 0.907648 0.278155
O O3 0.354227 0.000000 0.279273
O O4 0.389943 0.953520 0.000000
O O5 0.260113 0.700898 0.500000
O O6 0.250000 0.750000 0.221045
O O7 0.168853 0.675518 0.213798
O O8 0.340554 0.667470 0.230702
O O9 0.635791 0.580540 0.829154
O O10 0.643771 0.500000 0.000000
O O11 0.500000 0.547659 0.000000
O O12 0.907798 0.349409 0.500000
O O13 0.000000 0.359750 0.210857
O O14 0.125603 0.884149 0.500000
O O15 0.000000 0.871457 0.263728
#
# Coordination Sequence:
#
# PCOD9494457 Si02
#       5
#    16  16   8  16  16
#     4   8  14  26  44  64  89 124 160 192 231 282
#     4   9  18  33  52  75 103 135 174 219 264 314
#     4   9  18  34  57  84 113 143 178 225 276 328
#     4   9  17  29  47  71  98 128 162 204 251 297
#     4   9  18  34  57  82 109 144 182 222 273 329
#
# _framework density 21.384741000000002
#
# number of rings (size 3 to 8) (size 9 to 14) (size 15 to 20)
#    0.000    3.222    0.000    0.667    0.000    1.778 
#    2.000   10.556    0.000    4.000    0.000    0.000 
#    0.000    0.000    0.000    0.000    0.000    0.000 
#
# Total GULP energy -200651.811700 kJ/mol
# GULP energy per Si atom -5573.661436 kJ/mol
# Density = 2.133607 g / cm^3
# Si number density = 21.384741 Si / 1000 Ang^3
#
#
#
# Elastic Constant Matrix: (Units=GPa)
#
#
# Indices 1 2 3 4 5 6 
#
# 1 72.1281 77.6345 23.1328 0.0000 0.0000 0.0000
# 2 77.6345 252.1403 40.2395 0.0000 0.0000 0.0000
# 3 23.1328 40.2395 83.3007 0.0000 0.0000 0.0000
# 4 0.0000 0.0000 0.0000 21.6319 0.0000 0.0000
# 5 0.0000 0.0000 0.0000 0.0000 1.2392 0.0000
# 6 0.0000 0.0000 0.0000 0.0000 0.0000 39.3054
#
#
#
# Elastic Compliance Matrix: (Units=1/GPa)
#
#
# Indices 1 2 3 4 5 6 
#
# 1 0.021403 -0.006113 -0.002991 0.000000 0.000000 0.000000
# 2 -0.006113 0.006043 -0.001222 0.000000 0.000000 0.000000
# 3 -0.002991 -0.001222 0.013425 0.000000 0.000000 0.000000
# 4 0.000000 0.000000 0.000000 0.046228 0.000000 0.000000
# 5 0.000000 0.000000 0.000000 0.000000 0.806992 0.000000
# 6 0.000000 0.000000 0.000000 0.000000 0.000000 0.025442
#
#
# Mechanical properties :
#
#
# Convention : Reuss Voigt Hill
#
# Bulk Modulus (GPa) = 49.45365 76.62030 63.03698
# Shear Modulus (GPa) = 5.28026 30.20610 17.74318
#
# Velocity S-wave (km/s) = 1.57306 3.76241 2.88360
# Velocity P-wave (km/s) = 5.14541 7.40145 6.37404
#
# Compressibility (1/GPa) = 0.02022095
#
# Stress axis : x y z
#
# Youngs Moduli (GPa) = 46.72307 165.47773 74.48553
#
# Poissons Ratio (x) = 1.01150 0.22277
# Poissons Ratio (y) = 0.28560 0.09100
# Poissons Ratio (z) = 0.13974 0.20217
#
# Static dielectric constant tensor:
#      x y z
#    x 1.821070 0.000000 0.000000 
#    y 0.000000 1.749280 0.000000 
#    z 0.000000 0.000000 1.804080 
# 
# From -- ./inp_files/7287.got.cif
#   From: 2010.05.17/outbox.cif.g08.bks.cpg/sg65_4_cif.got.tgz:7287.got - 2010.06.03 17:01:31.
