data_PCOD9494274
_publ_section_title
;
Structure prediction by ZEFSAII (Michael W. Deem and Ramdas Pophale) SiO2 
 PCOD9494274
Probable space group: C M M M
;
_chemical_formula_sum "Si O2"
_cell_formula_units_Z 80
_cell_length_a 7.301074
_cell_length_b 38.897143
_cell_length_c 14.317637
_cell_angle_alpha 90.000000
_cell_angle_beta 90.000000
_cell_angle_gamma 90.000000
_cell_volume 4066.078896
_symmetry_space_group_name_H-M "C M M M"
_symmetry_group_IT_number 65
_symmetry_cell_setting 'orthorhombic'
loop_
_space_group_symop_operation_xyz
x,y,z
-x,-y,z
x,-y,-z
-x,y,-z
-x,-y,-z
x,y,-z
-x,y,z
x,-y,z
1/2+x,1/2+y,z
1/2-x,1/2-y,z
1/2+x,1/2-y,-z
1/2-x,1/2+y,-z
1/2-x,1/2-y,-z
1/2+x,1/2+y,-z
1/2-x,1/2+y,z
1/2+x,1/2-y,z
loop_
_atom_site_type_symbol
_atom_site_label
_atom_site_fract_x
_atom_site_fract_y
_atom_site_fract_z
Si Si1 0.277074 0.538425 0.891811
Si Si2 0.776584 0.143186 0.395342
Si Si3 0.777288 0.893168 0.208537
Si Si4 0.717560 0.710922 0.708310
Si Si5 0.777051 0.823551 0.104870
O O1 0.500000 0.538630 0.890297
O O2 0.219558 0.500000 0.863195
O O3 0.214759 0.570119 0.828988
O O4 0.224174 0.543684 0.000000
O O5 0.715364 0.135440 0.500000
O O6 0.720130 0.117366 0.312884
O O7 0.717143 0.181235 0.361665
O O8 0.000000 0.142887 0.396524
O O9 0.725354 0.861771 0.139973
O O10 0.000000 0.893595 0.208380
O O11 0.500000 0.706391 0.712060
O O12 0.750000 0.750000 0.680748
O O13 0.784731 0.702197 0.813144
O O14 0.000000 0.822710 0.102736
O O15 0.713822 0.816335 0.000000
#
# Coordination Sequence:
#
# PCOD9494274 Si02
#       5
#    16  16  16  16  16
#     4   8  12  16  23  38  60  84 109 138 172 206
#     4   8  14  24  36  48  61  80 109 143 175 206
#     4   8  12  18  29  43  59  81 110 143 174 203
#     4   9  17  27  38  53  71  90 114 145 180 215
#     4   8  13  21  33  48  65  86 113 143 172 204
#
# _framework density 19.674973999999999
#
# number of rings (size 3 to 8) (size 9 to 14) (size 15 to 20)
#    0.000    3.800    0.000    3.600    0.000    3.200 
#    0.000    0.000    0.000    0.600    0.000    4.200 
#    0.000    0.000    0.000    0.000    0.000   16.000 
#
# Total GULP energy -222991.147178 kJ/mol
# GULP energy per Si atom -5574.778679 kJ/mol
# Density = 1.963019 g / cm^3
# Si number density = 19.674974 Si / 1000 Ang^3
#
#
#
# Elastic Constant Matrix: (Units=GPa)
#
#
# Indices 1 2 3 4 5 6 
#
# 1 78.8514 -2.5975 1.8220 0.0000 0.0000 0.0000
# 2 -2.5975 129.9779 42.0839 0.0000 0.0000 0.0000
# 3 1.8220 42.0839 97.5296 0.0000 0.0000 0.0000
# 4 0.0000 0.0000 0.0000 14.4633 0.0000 0.0000
# 5 0.0000 0.0000 0.0000 0.0000 -20.5152 0.0000
# 6 0.0000 0.0000 0.0000 0.0000 0.0000 -2.8812
#
#
#
# Elastic Compliance Matrix: (Units=1/GPa)
#
#
# Indices 1 2 3 4 5 6 
#
# 1 0.012704 0.000384 -0.000403 0.000000 0.000000 0.000000
# 2 0.000384 0.008955 -0.003871 0.000000 0.000000 0.000000
# 3 -0.000403 -0.003871 0.011931 0.000000 0.000000 0.000000
# 4 0.000000 0.000000 0.000000 0.069141 0.000000 0.000000
# 5 0.000000 0.000000 0.000000 0.000000 -0.048744 0.000000
# 6 0.000000 0.000000 0.000000 0.000000 0.000000 -0.347076
#
#
# Mechanical properties :
#
#
# Convention : Reuss Voigt Hill
#
# Bulk Modulus (GPa) = 38.74443 43.21952 40.98198
# Shear Modulus (GPa) = -18.06968 15.88341 -1.09313
#
# Velocity S-wave (km/s) = -3.03381 2.84437 -0.74619
# Velocity P-wave (km/s) = 2.73184 5.72727 4.48690
#
# Compressibility (1/GPa) = 0.02581016
#
# Stress axis : x y z
#
# Youngs Moduli (GPa) = 78.71501 111.67356 83.81385
#
# Poissons Ratio (x) = -0.04293 0.03379
# Poissons Ratio (y) = -0.03026 0.32445
# Poissons Ratio (z) = 0.03174 0.43230
#
# Static dielectric constant tensor:
#      x y z
#    x 1.226060 0.000000 0.000000 
#    y 0.000000 1.675390 0.000000 
#    z 0.000000 0.000000 1.670330 
# 
# From -- ./inp_files/38753.got.cif
#   From: 2010.05.17/outbox.cif.g08.bks.cpg/sg65_20_cif.got.tgz:38753.got - 2010.06.03 17:01:31.
