data_PCOD9494887
_publ_section_title
;
Structure prediction by ZEFSAII (Michael W. Deem and Ramdas Pophale) SiO2 
 PCOD9494887
Probable space group: C C C M
;
_chemical_formula_sum "Si O2"
_cell_formula_units_Z 96
_cell_length_a 18.635189
_cell_length_b 26.426836
_cell_length_c 14.063179
_cell_angle_alpha 90.000000
_cell_angle_beta 90.000000
_cell_angle_gamma 90.000000
_cell_volume 6925.680874
_symmetry_space_group_name_H-M "C C C M"
_symmetry_group_IT_number 66
_symmetry_cell_setting 'orthorhombic'
loop_
_space_group_symop_operation_xyz
x,y,z
-x,-y,z
x,-y,1/2-z
-x,y,1/2-z
-x,-y,-z
x,y,-z
-x,y,1/2+z
x,-y,1/2+z
1/2+x,1/2+y,z
1/2-x,1/2-y,z
1/2+x,1/2-y,1/2-z
1/2-x,1/2+y,1/2-z
1/2-x,1/2-y,-z
1/2+x,1/2+y,-z
1/2-x,1/2+y,1/2+z
1/2+x,1/2-y,1/2+z
loop_
_atom_site_type_symbol
_atom_site_label
_atom_site_fract_x
_atom_site_fract_y
_atom_site_fract_z
Si Si1 0.573572 0.720132 0.500000
Si Si2 0.463128 0.554381 0.000000
Si Si3 0.922054 0.258916 0.208860
Si Si4 0.582162 0.554644 0.712296
Si Si5 0.856920 0.843509 0.200255
Si Si6 0.221292 0.692064 0.206142
Si Si7 0.566485 0.649689 0.000000
Si Si8 0.732489 0.689658 0.500000
O O1 0.576461 0.752847 0.404710
O O2 0.500347 0.688513 0.500000
O O3 0.645871 0.685847 0.500000
O O4 0.500000 0.500000 0.000000
O O5 0.419699 0.558241 0.098156
O O6 0.526368 0.595805 0.000000
O O7 0.896908 0.203750 0.248108
O O8 0.861605 0.300563 0.231904
O O9 0.000000 0.270126 0.250000
O O10 0.608898 0.500000 0.750000
O O11 0.500000 0.558181 0.750000
O O12 0.621734 0.603224 0.753696
O O13 0.772639 0.834883 0.218393
O O14 0.885239 0.843579 0.093035
O O15 0.250000 0.750000 0.201733
O O16 0.235651 0.670327 0.099941
O O17 0.750000 0.750000 0.500000
#
# Coordination Sequence:
#
# PCOD9494887 Si02
#       8
#     8   8  16  16  16  16   8   8
#     4  12  18  26  43  66  80 110 148 182 219 252
#     4  12  20  30  44  62  87 118 152 182 216 245
#     4  11  19  31  45  63  86 111 148 185 218 263
#     4  11  20  31  45  64  89 116 148 187 216 254
#     4  11  20  32  43  63  86 116 149 180 219 258
#     4   9  18  29  45  61  83 112 140 186 221 259
#     4  12  22  28  44  63  84 120 156 183 207 263
#     4  10  14  26  44  60  82 103 138 179 222 254
#
# _framework density 13.861452
#
# number of rings (size 3 to 8) (size 9 to 14) (size 15 to 20)
#    0.000    1.167   10.000    1.500    0.000    0.000 
#    0.000    4.583    0.000    0.000    0.000    0.000 
#    0.000    0.667    0.000    0.000    0.000   12.000 
#
# Total GULP energy -267569.896395 kJ/mol
# GULP energy per Si atom -5574.372842 kJ/mol
# Density = 1.382990 g / cm^3
# Si number density = 13.861452 Si / 1000 Ang^3
#
#
#
# Elastic Constant Matrix: (Units=GPa)
#
#
# Indices 1 2 3 4 5 6 
#
# 1 112.9051 39.6898 44.4889 0.0000 0.0000 0.0000
# 2 39.6898 50.7830 34.3355 0.0000 0.0000 0.0000
# 3 44.4889 34.3355 117.9388 0.0000 0.0000 0.0000
# 4 0.0000 0.0000 0.0000 8.6411 0.0000 0.0000
# 5 0.0000 0.0000 0.0000 0.0000 11.7580 0.0000
# 6 0.0000 0.0000 0.0000 0.0000 0.0000 14.9243
#
#
#
# Elastic Compliance Matrix: (Units=1/GPa)
#
#
# Indices 1 2 3 4 5 6 
#
# 1 0.012723 -0.008341 -0.002371 0.000000 0.000000 0.000000
# 2 -0.008341 0.029985 -0.005583 0.000000 0.000000 0.000000
# 3 -0.002371 -0.005583 0.010999 0.000000 0.000000 0.000000
# 4 0.000000 0.000000 0.000000 0.115727 0.000000 0.000000
# 5 0.000000 0.000000 0.000000 0.000000 0.085048 0.000000
# 6 0.000000 0.000000 0.000000 0.000000 0.000000 0.067005
#
#
# Mechanical properties :
#
#
# Convention : Reuss Voigt Hill
#
# Bulk Modulus (GPa) = 47.35523 57.62834 52.49178
# Shear Modulus (GPa) = 13.84592 17.93887 15.89239
#
# Velocity S-wave (km/s) = 3.16393 3.60134 3.38970
# Velocity P-wave (km/s) = 6.89817 7.67839 7.29871
#
# Compressibility (1/GPa) = 0.02111699
#
# Stress axis : x y z
#
# Youngs Moduli (GPa) = 78.59516 33.34952 90.91787
#
# Poissons Ratio (x) = 0.27816 0.21559
# Poissons Ratio (y) = 0.65555 0.50762
# Poissons Ratio (z) = 0.18637 0.18620
#
# Static dielectric constant tensor:
#      x y z
#    x 1.469200 0.000000 0.000000 
#    y 0.000000 1.442480 0.000000 
#    z 0.000000 0.000000 1.610760 
# 
# From -- ./inp_files/17999.got.cif
#   From: 2010.05.17/outbox.cif.g08.bks.cpg/sg66_9_cif.got.tgz:17999.got - 2010.06.03 17:51:23.
