data_PCOD9494012
_publ_section_title
;
Structure prediction by ZEFSAII (Michael W. Deem and Ramdas Pophale) SiO2 
 PCOD9494012
Probable space group: C M M M
;
_chemical_formula_sum "Si O2"
_cell_formula_units_Z 88
_cell_length_a 17.091946
_cell_length_b 12.242077
_cell_length_c 20.987743
_cell_angle_alpha 90.000000
_cell_angle_beta 90.000000
_cell_angle_gamma 90.000000
_cell_volume 4391.494633
_symmetry_space_group_name_H-M "C M M M"
_symmetry_group_IT_number 65
_symmetry_cell_setting 'orthorhombic'
loop_
_space_group_symop_operation_xyz
x,y,z
-x,-y,z
x,-y,-z
-x,y,-z
-x,-y,-z
x,y,-z
-x,y,z
x,-y,z
1/2+x,1/2+y,z
1/2-x,1/2-y,z
1/2+x,1/2-y,-z
1/2-x,1/2+y,-z
1/2-x,1/2-y,-z
1/2+x,1/2+y,-z
1/2-x,1/2+y,z
1/2+x,1/2-y,z
loop_
_atom_site_type_symbol
_atom_site_label
_atom_site_fract_x
_atom_site_fract_y
_atom_site_fract_z
Si Si1 0.406507 0.874195 0.307905
Si Si2 0.904885 0.261351 0.072720
Si Si3 0.409352 0.500000 0.258671
Si Si4 0.843455 0.240398 0.429719
Si Si5 0.840119 0.216649 0.797546
Si Si6 0.587524 0.000000 0.076710
Si Si7 0.410443 0.500000 0.409907
O O1 0.500000 0.875501 0.309827
O O2 0.377681 0.806266 0.369583
O O3 0.381773 0.812643 0.243044
O O4 0.377842 0.000000 0.309147
O O5 0.872333 0.194706 0.131276
O O6 0.875170 0.384018 0.089847
O O7 0.000000 0.263392 0.073506
O O8 0.882014 0.233519 0.000000
O O9 0.500000 0.500000 0.233805
O O10 0.361526 0.393548 0.238924
O O11 0.414471 0.500000 0.334057
O O12 0.868026 0.283419 0.500000
O O13 0.750000 0.250000 0.425487
O O14 0.868463 0.113145 0.427794
O O15 0.750000 0.250000 0.799759
O O16 0.500000 0.000000 0.105412
O O17 0.578737 0.000000 0.000000
O O18 0.500000 0.500000 0.432846
#
# Coordination Sequence:
#
# PCOD9494012 Si02
#       7
#    16  16   8  16  16   8   8
#     4  11  25  43  66  95 127 166 213 265 320 385
#     4   9  18  35  59  88 124 166 213 264 318 381
#     4  11  24  44  68  94 128 172 220 268 321 385
#     4  11  25  42  66  98 134 171 210 263 324 381
#     4  12  26  40  65  94 130 170 214 267 328 383
#     4   7  12  25  50  82 111 145 190 244 303 354
#     4  11  23  42  70  96 124 170 229 277 306 370
#
# _framework density 20.038737000000001
#
# number of rings (size 3 to 8) (size 9 to 14) (size 15 to 20)
#    0.000    1.545    1.818    4.091    3.818    2.545 
#    0.000    1.364    0.000    1.636    0.000    0.000 
#    0.000    0.000    0.000    0.000    0.000    0.000 
#
# Total GULP energy -245465.808676 kJ/mol
# GULP energy per Si atom -5578.768379 kJ/mol
# Density = 1.999313 g / cm^3
# Si number density = 20.038737 Si / 1000 Ang^3
#
#
#
# Elastic Constant Matrix: (Units=GPa)
#
#
# Indices 1 2 3 4 5 6 
#
# 1 88.7898 38.9202 40.5093 0.0000 0.0000 0.0000
# 2 38.9202 106.9172 40.7517 0.0000 0.0000 0.0000
# 3 40.5093 40.7517 152.7185 0.0000 0.0000 0.0000
# 4 0.0000 0.0000 0.0000 45.0285 0.0000 0.0000
# 5 0.0000 0.0000 0.0000 0.0000 42.6150 0.0000
# 6 0.0000 0.0000 0.0000 0.0000 0.0000 -1.6359
#
#
#
# Elastic Compliance Matrix: (Units=1/GPa)
#
#
# Indices 1 2 3 4 5 6 
#
# 1 0.014323 -0.004192 -0.002681 0.000000 0.000000 0.000000
# 2 -0.004192 0.011639 -0.001994 0.000000 0.000000 0.000000
# 3 -0.002681 -0.001994 0.007791 0.000000 0.000000 0.000000
# 4 0.000000 0.000000 0.000000 0.022208 0.000000 0.000000
# 5 0.000000 0.000000 0.000000 0.000000 0.023466 0.000000
# 6 0.000000 0.000000 0.000000 0.000000 0.000000 -0.611280
#
#
# Mechanical properties :
#
#
# Convention : Reuss Voigt Hill
#
# Bulk Modulus (GPa) = 62.42191 65.42090 63.92140
# Shear Modulus (GPa) = -9.82744 32.41780 11.29518
#
# Velocity S-wave (km/s) = -2.21695 4.02650 2.37674
# Velocity P-wave (km/s) = 4.96640 7.37123 6.28491
#
# Compressibility (1/GPa) = 0.01602002
#
# Stress axis : x y z
#
# Youngs Moduli (GPa) = 69.81683 85.91783 128.35203
#
# Poissons Ratio (x) = 0.36019 0.34407
# Poissons Ratio (y) = 0.29269 0.25591
# Poissons Ratio (z) = 0.18715 0.17130
#
# Static dielectric constant tensor:
#      x y z
#    x 1.698000 0.000000 0.000000 
#    y 0.000000 1.785950 0.000000 
#    z 0.000000 0.000000 1.703030 
# 
# From -- ./inp_files/63677.got.cif
#   From: 2010.05.17/outbox.cif.g08.bks.cpg/sg65_32_cif.got.tgz:63677.got - 2010.06.03 17:01:31.
