data_PCOD9494231
_publ_section_title
;
Structure prediction by ZEFSAII (Michael W. Deem and Ramdas Pophale) SiO2 
 PCOD9494231
Probable space group: C M M M
;
_chemical_formula_sum "Si O2"
_cell_formula_units_Z 88
_cell_length_a 14.191831
_cell_length_b 18.593824
_cell_length_c 13.740630
_cell_angle_alpha 90.000000
_cell_angle_beta 90.000000
_cell_angle_gamma 90.000000
_cell_volume 3625.883049
_symmetry_space_group_name_H-M "C M M M"
_symmetry_group_IT_number 65
_symmetry_cell_setting 'orthorhombic'
loop_
_space_group_symop_operation_xyz
x,y,z
-x,-y,z
x,-y,-z
-x,y,-z
-x,-y,-z
x,y,-z
-x,y,z
x,-y,z
1/2+x,1/2+y,z
1/2-x,1/2-y,z
1/2+x,1/2-y,-z
1/2-x,1/2+y,-z
1/2-x,1/2-y,-z
1/2+x,1/2+y,-z
1/2-x,1/2+y,z
1/2+x,1/2-y,z
loop_
_atom_site_type_symbol
_atom_site_label
_atom_site_fract_x
_atom_site_fract_y
_atom_site_fract_z
Si Si1 0.500000 0.087973 0.385853
Si Si2 0.704540 0.082121 0.381533
Si Si3 0.843775 0.798283 0.607530
Si Si4 0.361577 0.268291 0.810931
Si Si5 0.399360 0.114951 0.115051
Si Si6 0.311920 0.579252 0.117453
O O1 0.500000 0.110468 0.500000
O O2 0.602440 0.110499 0.346262
O O3 0.500000 0.000000 0.385631
O O4 0.698562 0.084734 0.500000
O O5 0.797626 0.126390 0.359036
O O6 0.713893 0.000000 0.353097
O O7 0.887341 0.802120 0.500000
O O8 0.750000 0.750000 0.596952
O O9 0.897946 0.769730 0.700357
O O10 0.250000 0.250000 0.806369
O O11 0.399766 0.201264 0.871065
O O12 0.367852 0.348779 0.852889
O O13 0.500000 0.086749 0.154780
O O14 0.297887 0.087288 0.151897
O O15 0.399107 0.098564 0.000000
O O16 0.347074 0.500000 0.147904
O O17 0.309607 0.580097 0.000000
#
# Coordination Sequence:
#
# PCOD9494231 Si02
#       6
#     8  16  16  16  16  16
#     4   7  10  18  34  56  82 110 138 172 222 281
#     4   8  13  22  38  60  84 112 148 189 233 281
#     4   9  17  28  43  61  85 122 167 211 245 274
#     4   9  17  30  48  67  93 129 168 207 243 287
#     4   9  17  30  51  77 101 129 165 201 243 300
#     4   9  17  29  48  76 106 132 159 195 243 298
#
# _framework density 24.269947999999999
#
# number of rings (size 3 to 8) (size 9 to 14) (size 15 to 20)
#    0.000    3.364    0.000    1.636    0.000    3.273 
#    0.000    1.818   18.000    1.091    0.000    2.545 
#    0.000    0.000    0.000    6.364    4.364    0.364 
#
# Total GULP energy -245553.365633 kJ/mol
# GULP energy per Si atom -5580.758310 kJ/mol
# Density = 2.421471 g / cm^3
# Si number density = 24.269948 Si / 1000 Ang^3
#
#
#
# Elastic Constant Matrix: (Units=GPa)
#
#
# Indices 1 2 3 4 5 6 
#
# 1 54.1607 0.3910 0.9818 0.0000 0.0000 0.0000
# 2 0.3910 156.0172 10.0518 0.0000 0.0000 0.0000
# 3 0.9818 10.0518 71.5874 0.0000 0.0000 0.0000
# 4 0.0000 0.0000 0.0000 23.4497 0.0000 0.0000
# 5 0.0000 0.0000 0.0000 0.0000 -3.7576 0.0000
# 6 0.0000 0.0000 0.0000 0.0000 0.0000 -10.5246
#
#
#
# Elastic Compliance Matrix: (Units=1/GPa)
#
#
# Indices 1 2 3 4 5 6 
#
# 1 0.018468 -0.000030 -0.000249 0.000000 0.000000 0.000000
# 2 -0.000030 0.006468 -0.000908 0.000000 0.000000 0.000000
# 3 -0.000249 -0.000908 0.014100 0.000000 0.000000 0.000000
# 4 0.000000 0.000000 0.000000 0.042645 0.000000 0.000000
# 5 0.000000 0.000000 0.000000 0.000000 -0.266125 0.000000
# 6 0.000000 0.000000 0.000000 0.000000 0.000000 -0.095016
#
#
# Mechanical properties :
#
#
# Convention : Reuss Voigt Hill
#
# Bulk Modulus (GPa) = 27.27612 33.84605 30.56108
# Shear Modulus (GPa) = -18.87750 19.85621 0.48935
#
# Velocity S-wave (km/s) = -2.79196 2.86342 0.44952
# Velocity P-wave (km/s) = 0.93256 4.99081 3.59011
#
# Compressibility (1/GPa) = 0.03666211
#
# Stress axis : x y z
#
# Youngs Moduli (GPa) = 54.14681 154.60466 70.92287
#
# Poissons Ratio (x) = 0.00467 0.01766
# Poissons Ratio (y) = 0.00164 0.06438
# Poissons Ratio (z) = 0.01348 0.14035
#
# Static dielectric constant tensor:
#      x y z
#    x 2.008610 0.000000 0.000000 
#    y 0.000000 1.981340 0.000000 
#    z 0.000000 0.000000 1.991080 
# 
# From -- ./inp_files/42500.got.cif
#   From: 2010.05.17/outbox.cif.g08.bks.cpg/sg65_22_cif.got.tgz:42500.got - 2010.06.03 17:01:31.
