data_PCOD9494564
_publ_section_title
;
Structure prediction by ZEFSAII (Michael W. Deem and Ramdas Pophale) SiO2 
 PCOD9494564
Probable space group: C M M M
;
_chemical_formula_sum "Si O2"
_cell_formula_units_Z 40
_cell_length_a 24.000000
_cell_length_b 9.000000
_cell_length_c 21.000000
_cell_angle_alpha 90.000000
_cell_angle_beta 90.000000
_cell_angle_gamma 90.000000
_cell_volume 4536.000000
_symmetry_space_group_name_H-M "C M M M"
_symmetry_group_IT_number 65
_symmetry_cell_setting 'orthorhombic'
loop_
_space_group_symop_operation_xyz
x,y,z
-x,-y,z
x,-y,-z
-x,y,-z
-x,-y,-z
x,y,-z
-x,y,z
x,-y,z
1/2+x,1/2+y,z
1/2-x,1/2-y,z
1/2+x,1/2-y,-z
1/2-x,1/2+y,-z
1/2-x,1/2-y,-z
1/2+x,1/2+y,-z
1/2-x,1/2+y,z
1/2+x,1/2-y,z
loop_
_atom_site_type_symbol
_atom_site_label
_atom_site_fract_x
_atom_site_fract_y
_atom_site_fract_z
Si Si1 0.612005 0.824157 0.743946
Si Si2 0.000000 0.670644 0.877990
Si Si3 0.190892 0.825884 0.000000
Si Si4 0.810333 0.322816 0.374110
Si Si5 0.500000 0.326843 0.255224
Si Si6 0.812584 0.821431 0.500000
Si Si7 0.376967 0.825901 0.891175
O O1 0.658893 0.796875 0.692202
O O2 0.556354 0.745314 0.720349
O O3 0.625993 0.780168 0.816754
O O4 0.601433 0.000000 0.747189
O O5 0.000000 0.783904 0.819645
O O6 0.941582 0.686700 0.912487
O O7 0.000000 0.500000 0.851914
O O8 0.250000 0.750000 0.000000
O O9 0.159152 0.771522 0.062657
O O10 0.196386 0.000000 0.000000
O O11 0.806608 0.500000 0.385699
O O12 0.750000 0.250000 0.368020
O O13 0.838299 0.242970 0.435019
O O14 0.500000 0.500000 0.264747
O O15 0.750000 0.750000 0.500000
O O16 0.809945 0.000000 0.500000
O O17 0.361139 0.000000 0.895726
#
# Coordination Sequence:
#
# PCOD9494564 Si02
#       7
#    16   8   8  16   8   8  16
#     4   9  19  35  55  77 104 137 171 206 252 307
#     4   8  16  33  57  80 104 131 161 200 253 309
#     4  12  26  41  54  71  99 138 176 212 255 306
#     4  10  19  32  51  76 104 135 170 210 254 302
#     4  10  18  28  49  78 107 136 168 208 252 294
#     4  10  18  30  48  71 102 137 170 208 252 300
#     4   9  18  36  58  79 102 132 169 208 251 303
#
# _framework density 8.8183419999999995
#
# number of rings (size 3 to 8) (size 9 to 14) (size 15 to 20)
#    0.000    2.400    0.000    5.700    0.000    6.000 
#    0.000    4.000    0.000    0.600    0.000    4.200 
#    0.000    0.000    0.000    0.000    0.000    0.000 
#
# Total GULP energy -222803.636715 kJ/mol
# GULP energy per Si atom -5570.090918 kJ/mol
# Density = 0.879827 g / cm^3
# Si number density = 8.818342 Si / 1000 Ang^3
#
#
#
# Elastic Constant Matrix: (Units=GPa)
#
#
# Indices 1 2 3 4 5 6 
#
# 1 90.8491 63.5499 70.3262 0.0000 0.0000 0.0000
# 2 63.5499 79.4318 77.1212 0.0000 0.0000 0.0000
# 3 70.3262 77.1212 102.8570 0.0000 0.0000 0.0000
# 4 0.0000 0.0000 0.0000 25.4337 0.0000 0.0000
# 5 0.0000 0.0000 0.0000 0.0000 43.9952 0.0000
# 6 0.0000 0.0000 0.0000 0.0000 0.0000 21.9945
#
#
#
# Elastic Compliance Matrix: (Units=1/GPa)
#
#
# Indices 1 2 3 4 5 6 
#
# 1 0.026776 -0.013408 -0.008254 0.000000 0.000000 0.000000
# 2 -0.013408 0.052996 -0.030568 0.000000 0.000000 0.000000
# 3 -0.008254 -0.030568 0.038285 0.000000 0.000000 0.000000
# 4 0.000000 0.000000 0.000000 0.039318 0.000000 0.000000
# 5 0.000000 0.000000 0.000000 0.000000 0.022730 0.000000
# 6 0.000000 0.000000 0.000000 0.000000 0.000000 0.045466
#
#
# Mechanical properties :
#
#
# Convention : Reuss Voigt Hill
#
# Bulk Modulus (GPa) = 73.54976 77.23694 75.39335
# Shear Modulus (GPa) = 14.94486 22.42738 18.68612
#
# Velocity S-wave (km/s) = 2.91413 3.56986 3.25853
# Velocity P-wave (km/s) = 7.28808 7.80258 7.54972
#
# Compressibility (1/GPa) = 0.01359624
#
# Stress axis : x y z
#
# Youngs Moduli (GPa) = 37.34681 18.86948 26.11972
#
# Poissons Ratio (x) = 0.25301 0.21559
# Poissons Ratio (y) = 0.50076 0.79842
# Poissons Ratio (z) = 0.30826 0.57680
#
# Static dielectric constant tensor:
#      x y z
#    x 1.608680 0.000000 0.000000 
#    y 0.000000 1.551180 0.000000 
#    z 0.000000 0.000000 1.627710 
# 
# From -- ./inp_files/65102.got.cif
#   From: 2010.05.17/outbox.ucp.g08.bks.cvg/sg65_33_cif.got.tgz:65102.got - 2010.06.11 16:39:57.
