data_PCOD9494434
_publ_section_title
;
Structure prediction by ZEFSAII (Michael W. Deem and Ramdas Pophale) SiO2 
 PCOD9494434
Probable space group: C M M M
;
_chemical_formula_sum "Si O2"
_cell_formula_units_Z 88
_cell_length_a 15.613727
_cell_length_b 31.399039
_cell_length_c 8.171360
_cell_angle_alpha 90.000000
_cell_angle_beta 90.000000
_cell_angle_gamma 90.000000
_cell_volume 4006.058456
_symmetry_space_group_name_H-M "C M M M"
_symmetry_group_IT_number 65
_symmetry_cell_setting 'orthorhombic'
loop_
_space_group_symop_operation_xyz
x,y,z
-x,-y,z
x,-y,-z
-x,y,-z
-x,-y,-z
x,y,-z
-x,y,z
x,-y,z
1/2+x,1/2+y,z
1/2-x,1/2-y,z
1/2+x,1/2-y,-z
1/2-x,1/2+y,-z
1/2-x,1/2-y,-z
1/2+x,1/2+y,-z
1/2-x,1/2+y,z
1/2+x,1/2-y,z
loop_
_atom_site_type_symbol
_atom_site_label
_atom_site_fract_x
_atom_site_fract_y
_atom_site_fract_z
Si Si1 0.601206 0.453910 0.803388
Si Si2 0.104965 0.401329 0.176904
Si Si3 0.895368 0.451190 0.500000
Si Si4 0.900078 0.862909 0.302955
Si Si5 0.661600 0.727742 0.698383
Si Si6 0.598659 0.814801 0.316523
O O1 0.500000 0.453370 0.754832
O O2 0.636339 0.500000 0.746197
O O3 0.637789 0.408672 0.746406
O O4 0.603970 0.453944 0.000000
O O5 0.132789 0.427488 0.335323
O O6 0.133633 0.352366 0.204523
O O7 0.000000 0.403434 0.172829
O O8 0.135118 0.417097 0.000000
O O9 0.868831 0.500000 0.500000
O O10 0.000000 0.449958 0.500000
O O11 0.899713 0.861750 0.500000
O O12 0.855650 0.819629 0.240201
O O13 0.000000 0.860985 0.249308
O O14 0.657864 0.724508 0.500000
O O15 0.750000 0.750000 0.745235
O O16 0.599161 0.766404 0.744088
O O17 0.639043 0.816439 0.500000
O O18 0.500000 0.826499 0.336620
#
# Coordination Sequence:
#
# PCOD9494434 Si02
#       6
#    16  16   8  16  16  16
#     4   8  14  25  41  62  89 120 151 183 224 274
#     4   9  16  26  41  63  90 119 153 190 229 278
#     4   9  16  26  40  62  93 122 148 184 237 296
#     4   9  16  26  42  66  94 122 155 194 234 276
#     4   9  17  28  43  65  92 122 156 192 233 282
#     4   9  15  26  45  64  85 117 155 192 232 280
#
# _framework density 21.966729000000001
#
# number of rings (size 3 to 8) (size 9 to 14) (size 15 to 20)
#    0.000    3.182    0.909    1.091    0.000    2.909 
#    0.000    4.545    0.000    6.545    0.000    1.273 
#    0.000    0.000    0.000    0.000    0.000    0.182 
#
# Total GULP energy -244970.079117 kJ/mol
# GULP energy per Si atom -5567.501798 kJ/mol
# Density = 2.191673 g / cm^3
# Si number density = 21.966729 Si / 1000 Ang^3
#
#
#
# Elastic Constant Matrix: (Units=GPa)
#
#
# Indices 1 2 3 4 5 6 
#
# 1 11.7065 31.3101 10.7937 0.0000 0.0000 0.0000
# 2 31.3101 232.2000 62.0108 0.0000 0.0000 0.0000
# 3 10.7937 62.0108 78.1778 0.0000 0.0000 0.0000
# 4 0.0000 0.0000 0.0000 -184.2112 0.0000 0.0000
# 5 0.0000 0.0000 0.0000 0.0000 1.4509 0.0000
# 6 0.0000 0.0000 0.0000 0.0000 0.0000 -5.7561
#
#
#
# Elastic Compliance Matrix: (Units=1/GPa)
#
#
# Indices 1 2 3 4 5 6 
#
# 1 0.135344 -0.016823 -0.005342 0.000000 0.000000 0.000000
# 2 -0.016823 0.007555 -0.003670 0.000000 0.000000 0.000000
# 3 -0.005342 -0.003670 0.016440 0.000000 0.000000 0.000000
# 4 0.000000 0.000000 0.000000 -0.005429 0.000000 0.000000
# 5 0.000000 0.000000 0.000000 0.000000 0.689237 0.000000
# 6 0.000000 0.000000 0.000000 0.000000 0.000000 -0.173730
#
#
# Mechanical properties :
#
#
# Convention : Reuss Voigt Hill
#
# Bulk Modulus (GPa) = 9.28780 58.92371 34.10575
# Shear Modulus (GPa) = 6.60521 -23.17197 -8.28338
#
# Velocity S-wave (km/s) = 1.73593 -3.25139 -1.94398
# Velocity P-wave (km/s) = 2.87319 3.57587 3.24362
#
# Compressibility (1/GPa) = 0.10766814
#
# Stress axis : x y z
#
# Youngs Moduli (GPa) = 7.38859 132.35866 60.82702
#
# Poissons Ratio (x) = 2.22670 0.32494
# Poissons Ratio (y) = 0.12430 0.22324
# Poissons Ratio (z) = 0.03947 0.48577
#
# Static dielectric constant tensor:
#      x y z
#    x 1.847680 0.000000 0.000000 
#    y 0.000000 1.843260 0.000000 
#    z 0.000000 0.000000 1.814390 
# 
# From -- ./inp_files/10100.got.cif
#   From: 2010.05.17/outbox.cif.g08.bks.cpg/sg65_6_cif.got.tgz:10100.got - 2010.06.03 17:01:31.
