data_PCOD9494588
_publ_section_title
;
Structure prediction by ZEFSAII (Michael W. Deem and Ramdas Pophale) SiO2 
 PCOD9494588
Probable space group: C M M M
;
_chemical_formula_sum "Si O2"
_cell_formula_units_Z 36
_cell_length_a 27.000000
_cell_length_b 15.000000
_cell_length_c 9.000000
_cell_angle_alpha 90.000000
_cell_angle_beta 90.000000
_cell_angle_gamma 90.000000
_cell_volume 3645.000000
_symmetry_space_group_name_H-M "C M M M"
_symmetry_group_IT_number 65
_symmetry_cell_setting 'orthorhombic'
loop_
_space_group_symop_operation_xyz
x,y,z
-x,-y,z
x,-y,-z
-x,y,-z
-x,-y,-z
x,y,-z
-x,y,z
x,-y,z
1/2+x,1/2+y,z
1/2-x,1/2-y,z
1/2+x,1/2-y,-z
1/2-x,1/2+y,-z
1/2-x,1/2-y,-z
1/2+x,1/2+y,-z
1/2-x,1/2+y,z
1/2+x,1/2-y,z
loop_
_atom_site_type_symbol
_atom_site_label
_atom_site_fract_x
_atom_site_fract_y
_atom_site_fract_z
Si Si1 0.000000 0.101321 0.818025
Si Si2 0.263337 0.854561 0.171108
Si Si3 0.668420 0.402240 0.674039
Si Si4 0.408546 0.281581 0.178831
Si Si5 0.123075 0.597950 0.819947
O O1 0.952393 0.155863 0.767880
O O2 0.000000 0.000000 0.767221
O O3 0.000000 0.100284 0.000000
O O4 0.250000 0.750000 0.176465
O O5 0.225636 0.900616 0.282044
O O6 0.319864 0.876199 0.209352
O O7 0.255125 0.884143 0.000000
O O8 0.661925 0.386191 0.500000
O O9 0.647632 0.500000 0.711500
O O10 0.641613 0.327341 0.768728
O O11 0.410227 0.180013 0.232187
O O12 0.409385 0.280683 0.000000
O O13 0.111587 0.500000 0.761547
O O14 0.118897 0.594848 0.000000
#
# Coordination Sequence:
#
# PCOD9494588 Si02
#       5
#     8  16  16  16  16
#     4   9  18  32  54  82 104 127 167 221 272 315
#     4  10  18  32  53  76 101 138 182 216 252 301
#     4  11  23  35  49  75 109 142 175 214 262 312
#     4  10  19  35  56  77 102 134 175 218 263 316
#     4   9  17  30  50  76 105 136 172 214 257 304
#
# _framework density 9.8765429999999999
#
# number of rings (size 3 to 8) (size 9 to 14) (size 15 to 20)
#    0.000    2.111    2.222    2.000    0.000    4.000 
#    0.000    1.111    0.000    6.000    0.000    0.000 
#    0.000    1.778    0.000    0.000    0.000    0.000 
#
# Total GULP energy -200690.405231 kJ/mol
# GULP energy per Si atom -5574.733479 kJ/mol
# Density = 0.985406 g / cm^3
# Si number density = 9.876543 Si / 1000 Ang^3
#
#
#
# Elastic Constant Matrix: (Units=GPa)
#
#
# Indices 1 2 3 4 5 6 
#
# 1 57.0062 62.3892 7.0228 0.0000 0.0000 0.0000
# 2 62.3892 184.6020 18.0828 0.0000 0.0000 0.0000
# 3 7.0228 18.0828 -13.0538 0.0000 0.0000 0.0000
# 4 0.0000 0.0000 0.0000 3.8894 0.0000 0.0000
# 5 0.0000 0.0000 0.0000 0.0000 -18.9847 0.0000
# 6 0.0000 0.0000 0.0000 0.0000 0.0000 23.6869
#
#
#
# Elastic Compliance Matrix: (Units=1/GPa)
#
#
# Indices 1 2 3 4 5 6 
#
# 1 0.027796 -0.009561 0.001709 0.000000 0.000000 0.000000
# 2 -0.009561 0.008059 0.006020 0.000000 0.000000 0.000000
# 3 0.001709 0.006020 -0.067348 0.000000 0.000000 0.000000
# 4 0.000000 0.000000 0.000000 0.257107 0.000000 0.000000
# 5 0.000000 0.000000 0.000000 0.000000 -0.052674 0.000000
# 6 0.000000 0.000000 0.000000 0.000000 0.000000 0.042217
#
#
# Mechanical properties :
#
#
# Convention : Reuss Voigt Hill
#
# Bulk Modulus (GPa) = -28.44185 44.83819 8.19817
# Shear Modulus (GPa) = 24.14257 11.12230 17.63243
#
# Velocity S-wave (km/s) = 3.49982 2.37548 2.99095
# Velocity P-wave (km/s) = 1.37901 5.50204 4.01087
#
# Compressibility (1/GPa) = -0.03515945
#
# Stress axis : x y z
#
# Youngs Moduli (GPa) = 35.97681 124.08751 -14.84825
#
# Poissons Ratio (x) = 1.18645 0.02537
# Poissons Ratio (y) = 0.34399 0.08938
# Poissons Ratio (z) = -0.06148 -0.74695
#
# Static dielectric constant tensor:
#      x y z
#    x 1.730830 0.000000 0.000000 
#    y 0.000000 1.757550 0.000000 
#    z 0.000000 0.000000 1.633520 
# 
# From -- ./inp_files/7285.got.cif
#   From: 2010.05.17/outbox.ucp.g08.bks.cvg/sg65_4_cif.got.tgz:7285.got - 2010.06.11 16:39:57.
