data_PCOD9494804
_publ_section_title
;
Structure prediction by ZEFSAII (Michael W. Deem and Ramdas Pophale) SiO2 
 PCOD9494804
Probable space group: C M M M
;
_chemical_formula_sum "Si O2"
_cell_formula_units_Z 36
_cell_length_a 15.000000
_cell_length_b 9.000000
_cell_length_c 27.000000
_cell_angle_alpha 90.000000
_cell_angle_beta 90.000000
_cell_angle_gamma 90.000000
_cell_volume 3645.000000
_symmetry_space_group_name_H-M "C M M M"
_symmetry_group_IT_number 65
_symmetry_cell_setting 'orthorhombic'
loop_
_space_group_symop_operation_xyz
x,y,z
-x,-y,z
x,-y,-z
-x,y,-z
-x,-y,-z
x,y,-z
-x,y,z
x,-y,z
1/2+x,1/2+y,z
1/2-x,1/2-y,z
1/2+x,1/2-y,-z
1/2-x,1/2+y,-z
1/2-x,1/2-y,-z
1/2+x,1/2+y,-z
1/2-x,1/2+y,z
1/2+x,1/2-y,z
loop_
_atom_site_type_symbol
_atom_site_label
_atom_site_fract_x
_atom_site_fract_y
_atom_site_fract_z
Si Si1 0.398247 0.500000 0.058560
Si Si2 0.500000 0.819328 0.263651
Si Si3 0.845672 0.821757 0.444548
Si Si4 0.156833 0.330938 0.804395
Si Si5 0.000000 0.179551 0.370341
Si Si6 0.603998 0.167704 0.917349
O O1 0.500000 0.500000 0.080429
O O2 0.357913 0.334399 0.070217
O O3 0.404991 0.500000 0.000000
O O4 0.412629 0.765580 0.234483
O O5 0.500000 0.760337 0.318540
O O6 0.500000 0.000000 0.261502
O O7 0.877433 0.781623 0.500000
O O8 0.750000 0.750000 0.436986
O O9 0.914588 0.777428 0.402727
O O10 0.837678 0.000000 0.443233
O O11 0.175465 0.500000 0.789628
O O12 0.250000 0.250000 0.807988
O O13 0.110972 0.334380 0.858077
O O14 0.000000 0.000000 0.364313
O O15 0.500000 0.171441 0.933495
O O16 0.638427 0.000000 0.933528
#
# Coordination Sequence:
#
# PCOD9494804 Si02
#       6
#     8   8  16  16   8  16
#     4   9  18  30  50  86 118 145 189 235 283 348
#     4  10  22  41  57  77 116 149 182 231 293 341
#     4   9  18  34  56  80 109 145 188 234 275 327
#     4  10  21  37  58  83 107 142 190 235 280 340
#     4  10  21  36  54  80 110 146 185 225 283 344
#     4   9  17  33  55  78 111 150 186 233 288 340
#
# _framework density 9.8765429999999999
#
# number of rings (size 3 to 8) (size 9 to 14) (size 15 to 20)
#    0.000    2.556    1.111    0.333    1.556    4.444 
#    0.000    6.667    0.000    4.000    0.000    0.000 
#    0.000    0.000    0.000    0.000    0.000    0.000 
#
# Total GULP energy -200490.839871 kJ/mol
# GULP energy per Si atom -5569.189996 kJ/mol
# Density = 0.985406 g / cm^3
# Si number density = 9.876543 Si / 1000 Ang^3
#
#
#
# Elastic Constant Matrix: (Units=GPa)
#
#
# Indices 1 2 3 4 5 6 
#
# 1 51.8553 19.0789 32.6143 0.0000 0.0000 0.0000
# 2 19.0789 96.6877 25.1515 0.0000 0.0000 0.0000
# 3 32.6143 25.1515 93.5551 0.0000 0.0000 0.0000
# 4 0.0000 0.0000 0.0000 5.2287 0.0000 0.0000
# 5 0.0000 0.0000 0.0000 0.0000 -26.5144 0.0000
# 6 0.0000 0.0000 0.0000 0.0000 0.0000 6.0685
#
#
#
# Elastic Compliance Matrix: (Units=1/GPa)
#
#
# Indices 1 2 3 4 5 6 
#
# 1 0.025443 -0.002917 -0.008085 0.000000 0.000000 0.000000
# 2 -0.002917 0.011455 -0.002063 0.000000 0.000000 0.000000
# 3 -0.008085 -0.002063 0.014062 0.000000 0.000000 0.000000
# 4 0.000000 0.000000 0.000000 0.191252 0.000000 0.000000
# 5 0.000000 0.000000 0.000000 0.000000 -0.037715 0.000000
# 6 0.000000 0.000000 0.000000 0.000000 0.000000 0.164784
#
#
# Mechanical properties :
#
#
# Convention : Reuss Voigt Hill
#
# Bulk Modulus (GPa) = 40.27482 43.97640 42.12561
# Shear Modulus (GPa) = 12.38579 7.97345 10.17962
#
# Velocity S-wave (km/s) = 2.50677 2.01130 2.27258
# Velocity P-wave (km/s) = 5.36768 5.26357 5.31588
#
# Compressibility (1/GPa) = 0.02482941
#
# Stress axis : x y z
#
# Youngs Moduli (GPa) = 39.30333 87.29997 71.11336
#
# Poissons Ratio (x) = 0.25468 0.57498
# Poissons Ratio (y) = 0.11466 0.14667
# Poissons Ratio (z) = 0.31779 0.18006
#
# Static dielectric constant tensor:
#      x y z
#    x 1.704970 0.000000 0.000000 
#    y 0.000000 1.746610 0.000000 
#    z 0.000000 0.000000 1.657870 
# 
# From -- ./inp_files/74699.got.cif
#   From: 2010.05.17/outbox.ucp.g08.bks.cvg/sg65_38_cif.got.tgz:74699.got - 2010.06.11 16:39:57.
