data_PCOD9494455
_publ_section_title
;
Structure prediction by ZEFSAII (Michael W. Deem and Ramdas Pophale) SiO2 
 PCOD9494455
Probable space group: C M M M
;
_chemical_formula_sum "Si O2"
_cell_formula_units_Z 80
_cell_length_a 7.580156
_cell_length_b 19.875317
_cell_length_c 27.174131
_cell_angle_alpha 90.000000
_cell_angle_beta 90.000000
_cell_angle_gamma 90.000000
_cell_volume 4094.000321
_symmetry_space_group_name_H-M "C M M M"
_symmetry_group_IT_number 65
_symmetry_cell_setting 'orthorhombic'
loop_
_space_group_symop_operation_xyz
x,y,z
-x,-y,z
x,-y,-z
-x,y,-z
-x,-y,-z
x,y,-z
-x,y,z
x,-y,z
1/2+x,1/2+y,z
1/2-x,1/2-y,z
1/2+x,1/2-y,-z
1/2-x,1/2+y,-z
1/2-x,1/2-y,-z
1/2+x,1/2+y,-z
1/2-x,1/2+y,z
1/2+x,1/2-y,z
loop_
_atom_site_type_symbol
_atom_site_label
_atom_site_fract_x
_atom_site_fract_y
_atom_site_fract_z
Si Si1 0.788134 0.922155 0.249015
Si Si2 0.289900 0.923279 0.858352
Si Si3 0.715596 0.578504 0.643470
Si Si4 0.288147 0.671838 0.555212
Si Si5 0.287968 0.172014 0.055318
O O1 0.737268 0.892915 0.196234
O O2 0.728670 0.895570 0.302255
O O3 0.000000 0.922612 0.250116
O O4 0.726582 0.000000 0.247703
O O5 0.500000 0.928106 0.864973
O O6 0.219330 0.877004 0.902167
O O7 0.218521 0.000000 0.859538
O O8 0.500000 0.579610 0.642881
O O9 0.766154 0.500000 0.638554
O O10 0.778959 0.623638 0.598327
O O11 0.221291 0.656520 0.500000
O O12 0.500000 0.664186 0.553864
O O13 0.250000 0.750000 0.565506
O O14 0.500000 0.164922 0.053970
O O15 0.250000 0.250000 0.066158
O O16 0.221546 0.157205 0.000000
#
# Coordination Sequence:
#
# PCOD9494455 Si02
#       5
#    16  16  16  16  16
#     4   8  14  26  44  64  87 115 143 173 213 257
#     4   9  17  29  46  68  91 113 141 178 215 253
#     4   8  14  26  45  67  87 109 143 183 216 249
#     4   9  17  29  45  64  87 115 144 176 216 259
#     4   9  18  32  48  65  87 116 146 176 214 257
#
# _framework density 19.540790000000001
#
# number of rings (size 3 to 8) (size 9 to 14) (size 15 to 20)
#    0.000    3.400    0.000    1.200    0.000    1.600 
#    0.000    6.000    0.000    6.600    0.000    8.400 
#    0.000    0.000    0.000    0.000    0.000    0.000 
#
# Total GULP energy -222747.252263 kJ/mol
# GULP energy per Si atom -5568.681307 kJ/mol
# Density = 1.949631 g / cm^3
# Si number density = 19.540790 Si / 1000 Ang^3
#
#
#
# Elastic Constant Matrix: (Units=GPa)
#
#
# Indices 1 2 3 4 5 6 
#
# 1 42.1997 1.4537 7.9442 0.0000 0.0000 0.0000
# 2 1.4537 73.9988 113.2948 0.0000 0.0000 0.0000
# 3 7.9442 113.2948 231.6248 0.0000 0.0000 0.0000
# 4 0.0000 0.0000 0.0000 -187.7866 0.0000 0.0000
# 5 0.0000 0.0000 0.0000 0.0000 66.0051 0.0000
# 6 0.0000 0.0000 0.0000 0.0000 0.0000 15.2379
#
#
#
# Elastic Compliance Matrix: (Units=1/GPa)
#
#
# Indices 1 2 3 4 5 6 
#
# 1 0.024033 0.003145 -0.002363 0.000000 0.000000 0.000000
# 2 0.003145 0.054225 -0.026631 0.000000 0.000000 0.000000
# 3 -0.002363 -0.026631 0.017424 0.000000 0.000000 0.000000
# 4 0.000000 0.000000 0.000000 -0.005325 0.000000 0.000000
# 5 0.000000 0.000000 0.000000 0.000000 0.015150 0.000000
# 6 0.000000 0.000000 0.000000 0.000000 0.000000 0.065626
#
#
# Mechanical properties :
#
#
# Convention : Reuss Voigt Hill
#
# Bulk Modulus (GPa) = 22.73463 65.91209 44.32336
# Shear Modulus (GPa) = 21.05337 -6.30002 7.37667
#
# Velocity S-wave (km/s) = 3.28595 -1.79751 1.94505
# Velocity P-wave (km/s) = 5.10454 5.43099 5.27029
#
# Compressibility (1/GPa) = 0.04398575
#
# Stress axis : x y z
#
# Youngs Moduli (GPa) = 41.60890 18.44181 57.39110
#
# Poissons Ratio (x) = -0.05801 0.13560
# Poissons Ratio (y) = -0.13087 1.52837
# Poissons Ratio (z) = 0.09831 0.49112
#
# Static dielectric constant tensor:
#      x y z
#    x 1.748460 0.000000 0.000000 
#    y 0.000000 1.644610 0.000000 
#    z 0.000000 0.000000 1.729660 
# 
# From -- ./inp_files/68801.got.cif
#   From: 2010.05.17/outbox.cif.g08.bks.cpg/sg65_35_cif.got.tgz:68801.got - 2010.06.03 17:01:31.
