data_PCOD9494843
_publ_section_title
;
Structure prediction by ZEFSAII (Michael W. Deem and Ramdas Pophale) SiO2 
 PCOD9494843
Probable space group: C M M M
;
_chemical_formula_sum "Si O2"
_cell_formula_units_Z 36
_cell_length_a 18.000000
_cell_length_b 24.000000
_cell_length_c 9.000000
_cell_angle_alpha 90.000000
_cell_angle_beta 90.000000
_cell_angle_gamma 90.000000
_cell_volume 3888.000000
_symmetry_space_group_name_H-M "C M M M"
_symmetry_group_IT_number 65
_symmetry_cell_setting 'orthorhombic'
loop_
_space_group_symop_operation_xyz
x,y,z
-x,-y,z
x,-y,-z
-x,y,-z
-x,-y,-z
x,y,-z
-x,y,z
x,-y,z
1/2+x,1/2+y,z
1/2-x,1/2-y,z
1/2+x,1/2-y,-z
1/2-x,1/2+y,-z
1/2-x,1/2-y,-z
1/2+x,1/2+y,-z
1/2-x,1/2+y,z
1/2+x,1/2-y,z
loop_
_atom_site_type_symbol
_atom_site_label
_atom_site_fract_x
_atom_site_fract_y
_atom_site_fract_z
Si Si1 0.584374 0.066852 0.825553
Si Si2 0.631319 0.358637 0.179271
Si Si3 0.085611 0.742287 0.322093
Si Si4 0.203308 0.355898 0.677824
Si Si5 0.000000 0.067096 0.679066
O O1 0.500000 0.082990 0.779873
O O2 0.648756 0.094635 0.729828
O O3 0.588589 0.000000 0.816286
O O4 0.593257 0.082169 0.000000
O O5 0.599875 0.298689 0.231663
O O6 0.716413 0.360564 0.242088
O O7 0.573806 0.403956 0.249678
O O8 0.631789 0.363536 0.000000
O O9 0.090194 0.753464 0.500000
O O10 0.151927 0.698612 0.287056
O O11 0.000000 0.722763 0.293468
O O12 0.215304 0.356435 0.500000
O O13 0.000000 0.076842 0.500000
O O14 0.000000 0.000000 0.703797
#
# Coordination Sequence:
#
# PCOD9494843 Si02
#       5
#    16  16  16  16   8
#     4   9  19  37  59  84 119 161 201 249 309 365
#     4  12  25  41  63  92 124 160 201 253 312 368
#     4  10  21  39  63  89 124 166 205 250 306 366
#     4  11  23  38  60  91 124 164 209 253 305 364
#     4  11  25  47  73  95 119 159 208 259 316 377
#
# _framework density 9.2592590000000001
#
# number of rings (size 3 to 8) (size 9 to 14) (size 15 to 20)
#    0.000    1.444    1.111    5.000    0.000    8.000 
#    0.000    1.111    0.000    0.000    0.000    0.000 
#    0.000    0.000    0.000    0.000    0.000    0.000 
#
# Total GULP energy -201071.144176 kJ/mol
# GULP energy per Si atom -5585.309560 kJ/mol
# Density = 0.923818 g / cm^3
# Si number density = 9.259259 Si / 1000 Ang^3
#
#
#
# Elastic Constant Matrix: (Units=GPa)
#
#
# Indices 1 2 3 4 5 6 
#
# 1 193.4350 68.7436 78.5328 0.0000 0.0000 0.0000
# 2 68.7436 103.6035 58.7969 0.0000 0.0000 0.0000
# 3 78.5328 58.7969 111.7897 0.0000 0.0000 0.0000
# 4 0.0000 0.0000 0.0000 24.5558 0.0000 0.0000
# 5 0.0000 0.0000 0.0000 0.0000 42.3702 0.0000
# 6 0.0000 0.0000 0.0000 0.0000 0.0000 30.7337
#
#
#
# Elastic Compliance Matrix: (Units=1/GPa)
#
#
# Indices 1 2 3 4 5 6 
#
# 1 0.007818 -0.002952 -0.003940 0.000000 0.000000 0.000000
# 2 -0.002952 0.014874 -0.005749 0.000000 0.000000 0.000000
# 3 -0.003940 -0.005749 0.014737 0.000000 0.000000 0.000000
# 4 0.000000 0.000000 0.000000 0.040724 0.000000 0.000000
# 5 0.000000 0.000000 0.000000 0.000000 0.023601 0.000000
# 6 0.000000 0.000000 0.000000 0.000000 0.000000 0.032538
#
#
# Mechanical properties :
#
#
# Convention : Reuss Voigt Hill
#
# Bulk Modulus (GPa) = 82.32422 91.21942 86.77182
# Shear Modulus (GPa) = 30.55820 33.04894 31.80357
#
# Velocity S-wave (km/s) = 4.06660 4.22909 4.14864
# Velocity P-wave (km/s) = 8.16096 8.55642 8.36103
#
# Compressibility (1/GPa) = 0.01214709
#
# Stress axis : x y z
#
# Youngs Moduli (GPa) = 127.90639 67.23355 67.85601
#
# Poissons Ratio (x) = 0.19845 0.26735
# Poissons Ratio (y) = 0.37753 0.39013
# Poissons Ratio (z) = 0.50394 0.38655
#
# Static dielectric constant tensor:
#      x y z
#    x 1.629130 0.000000 0.000000 
#    y 0.000000 1.649960 0.000000 
#    z 0.000000 0.000000 1.627390 
# 
# From -- ./inp_files/9266.got.cif
#   From: 2010.05.17/outbox.ucp.g08.bks.cvg/sg65_5_cif.got.tgz:9266.got - 2010.06.11 16:39:57.
