data_PCOD9494686
_publ_section_title
;
Structure prediction by ZEFSAII (Michael W. Deem and Ramdas Pophale) SiO2 
 PCOD9494686
Probable space group: C M M M
;
_chemical_formula_sum "Si O2"
_cell_formula_units_Z 52
_cell_length_a 24.000000
_cell_length_b 27.000000
_cell_length_c 9.000000
_cell_angle_alpha 90.000000
_cell_angle_beta 90.000000
_cell_angle_gamma 90.000000
_cell_volume 5832.000000
_symmetry_space_group_name_H-M "C M M M"
_symmetry_group_IT_number 65
_symmetry_cell_setting 'orthorhombic'
loop_
_space_group_symop_operation_xyz
x,y,z
-x,-y,z
x,-y,-z
-x,y,-z
-x,-y,-z
x,y,-z
-x,y,z
x,-y,z
1/2+x,1/2+y,z
1/2-x,1/2-y,z
1/2+x,1/2-y,-z
1/2-x,1/2+y,-z
1/2-x,1/2-y,-z
1/2+x,1/2+y,-z
1/2-x,1/2+y,z
1/2+x,1/2-y,z
loop_
_atom_site_type_symbol
_atom_site_label
_atom_site_fract_x
_atom_site_fract_y
_atom_site_fract_z
Si Si1 0.567060 0.898364 0.171174
Si Si2 0.257415 0.636914 0.325042
Si Si3 0.862172 0.683248 0.323091
Si Si4 0.932017 0.500000 0.328709
Si Si5 0.180350 0.059241 0.172816
Si Si6 0.811994 0.774534 0.170379
Si Si7 0.059338 0.941142 0.820039
O O1 0.500000 0.898322 0.174742
O O2 0.589786 0.850222 0.254209
O O3 0.586048 0.949470 0.248575
O O4 0.585251 0.897680 0.000000
O O5 0.263318 0.641188 0.500000
O O6 0.195373 0.654395 0.286720
O O7 0.270936 0.582789 0.267206
O O8 0.301719 0.673328 0.248008
O O9 0.867603 0.686730 0.500000
O O10 0.853451 0.737414 0.253627
O O11 0.914494 0.500000 0.500000
O O12 0.000000 0.500000 0.325662
O O13 0.119568 0.076986 0.231020
O O14 0.180574 0.000000 0.178091
O O15 0.186284 0.073859 0.000000
O O16 0.750000 0.750000 0.174551
O O17 0.828614 0.780334 0.000000
O O18 0.000000 0.919899 0.767155
O O19 0.058179 0.000000 0.788207
O O20 0.060291 0.936997 0.000000
#
# Coordination Sequence:
#
# PCOD9494686 Si02
#       7
#    16  16  16   8  16  16  16
#     4  10  20  34  53  77 104 134 171 215 260 307
#     4  10  20  33  49  71 100 134 167 203 248 301
#     4  10  20  34  52  75 100 129 166 207 252 305
#     4   9  17  31  51  73  99 133 171 209 252 303
#     4   9  17  29  46  69  97 129 164 201 243 293
#     4   9  17  31  53  76  96 120 154 201 247 291
#     4   7  10  19  38  63  87 112 148 193 233 268
#
# _framework density 8.9163239999999995
#
# number of rings (size 3 to 8) (size 9 to 14) (size 15 to 20)
#    0.000    2.846    0.000    3.462    0.000    5.846 
#    1.385    0.000    0.000    1.385    0.000    4.308 
#    0.000    0.000    0.000    0.000    0.000    0.000 
#
# Total GULP energy -289502.570166 kJ/mol
# GULP energy per Si atom -5567.357119 kJ/mol
# Density = 0.889603 g / cm^3
# Si number density = 8.916324 Si / 1000 Ang^3
#
#
#
# Elastic Constant Matrix: (Units=GPa)
#
#
# Indices 1 2 3 4 5 6 
#
# 1 14.4269 9.7761 24.1274 0.0000 0.0000 0.0000
# 2 9.7761 27.2852 13.9520 0.0000 0.0000 0.0000
# 3 24.1274 13.9520 30.9208 0.0000 0.0000 0.0000
# 4 0.0000 0.0000 0.0000 28.8925 0.0000 0.0000
# 5 0.0000 0.0000 0.0000 0.0000 18.3164 0.0000
# 6 0.0000 0.0000 0.0000 0.0000 0.0000 25.0519
#
#
#
# Elastic Compliance Matrix: (Units=1/GPa)
#
#
# Indices 1 2 3 4 5 6 
#
# 1 -0.224297 -0.011867 0.180372 0.000000 0.000000 0.000000
# 2 -0.011867 0.047014 -0.011954 0.000000 0.000000 0.000000
# 3 0.180372 -0.011954 -0.103009 0.000000 0.000000 0.000000
# 4 0.000000 0.000000 0.000000 0.034611 0.000000 0.000000
# 5 0.000000 0.000000 0.000000 0.000000 0.054596 0.000000
# 6 0.000000 0.000000 0.000000 0.000000 0.000000 0.039917
#
#
# Mechanical properties :
#
#
# Convention : Reuss Voigt Hill
#
# Bulk Modulus (GPa) = 30.47738 18.70486 24.59112
# Shear Modulus (GPa) = -11.02941 16.10398 2.53728
#
# Velocity S-wave (km/s) = -2.48965 3.00836 1.19412
# Velocity P-wave (km/s) = 2.97714 4.75172 3.96499
#
# Compressibility (1/GPa) = 0.03281122
#
# Stress axis : x y z
#
# Youngs Moduli (GPa) = -4.45838 21.27012 -9.70785
#
# Poissons Ratio (x) = 0.25242 1.75103
# Poissons Ratio (y) = -0.05291 -0.11604
# Poissons Ratio (z) = 0.80417 0.25426
#
# Static dielectric constant tensor:
#      x y z
#    x 1.645290 0.000000 0.000000 
#    y 0.000000 1.631900 0.000000 
#    z 0.000000 0.000000 1.602620 
# 
# From -- ./inp_files/14797.got.cif
#   From: 2010.05.17/outbox.ucp.g08.bks.cvg/sg65_8_cif.got.tgz:14797.got - 2010.06.11 16:39:57.
