data_PCOD9494714
_publ_section_title
;
Structure prediction by ZEFSAII (Michael W. Deem and Ramdas Pophale) SiO2 
 PCOD9494714
Probable space group: C M M M
;
_chemical_formula_sum "Si O2"
_cell_formula_units_Z 44
_cell_length_a 9.000000
_cell_length_b 18.000000
_cell_length_c 30.000000
_cell_angle_alpha 90.000000
_cell_angle_beta 90.000000
_cell_angle_gamma 90.000000
_cell_volume 4860.000000
_symmetry_space_group_name_H-M "C M M M"
_symmetry_group_IT_number 65
_symmetry_cell_setting 'orthorhombic'
loop_
_space_group_symop_operation_xyz
x,y,z
-x,-y,z
x,-y,-z
-x,y,-z
-x,-y,-z
x,y,-z
-x,y,z
x,-y,z
1/2+x,1/2+y,z
1/2-x,1/2-y,z
1/2+x,1/2-y,-z
1/2-x,1/2+y,-z
1/2-x,1/2-y,-z
1/2+x,1/2+y,-z
1/2-x,1/2+y,z
1/2+x,1/2-y,z
loop_
_atom_site_type_symbol
_atom_site_label
_atom_site_fract_x
_atom_site_fract_y
_atom_site_fract_z
Si Si1 0.674575 0.909703 0.950665
Si Si2 0.826597 0.410368 0.767602
Si Si3 0.321863 0.587286 0.591916
Si Si4 0.672965 0.909676 0.500000
Si Si5 0.328524 0.590603 0.859622
Si Si6 0.178687 0.831046 0.316277
O O1 0.500000 0.891500 0.946702
O O2 0.760547 0.883498 0.906750
O O3 0.684353 0.000000 0.950752
O O4 0.727390 0.884963 0.000000
O O5 0.815198 0.500000 0.765667
O O6 0.761064 0.386205 0.815531
O O7 0.738053 0.376390 0.726224
O O8 0.000000 0.390178 0.764587
O O9 0.500000 0.592125 0.587125
O O10 0.283371 0.500000 0.597203
O O11 0.248491 0.615497 0.546094
O O12 0.278535 0.629826 0.636932
O O13 0.500000 0.890410 0.500000
O O14 0.686454 0.000000 0.500000
O O15 0.500000 0.612598 0.855772
O O16 0.322962 0.500000 0.860374
O O17 0.250000 0.750000 0.314927
O O18 0.000000 0.827351 0.314585
#
# Coordination Sequence:
#
# PCOD9494714 Si02
#       6
#    16  16  16   8  16  16
#     4   8  13  21  33  51  80 119 158 195 240 295
#     4  10  20  34  53  75  99 130 169 212 257 305
#     4   9  18  34  56  79 104 136 171 206 247 297
#     4   9  17  29  50  81 110 133 163 207 250 289
#     4   9  16  25  39  61  89 121 159 203 248 296
#     4  11  23  38  55  76 104 136 171 211 257 307
#
# _framework density 9.0534979999999994
#
# number of rings (size 3 to 8) (size 9 to 14) (size 15 to 20)
#    0.000    2.636    0.000    3.000    0.000    6.909 
#    0.000    4.091    0.000    0.000    0.000    0.000 
#    0.000    0.727    0.000    2.727    0.000    6.364 
#
# Total GULP energy -245352.549280 kJ/mol
# GULP energy per Si atom -5576.194302 kJ/mol
# Density = 0.903289 g / cm^3
# Si number density = 9.053498 Si / 1000 Ang^3
#
#
#
# Elastic Constant Matrix: (Units=GPa)
#
#
# Indices 1 2 3 4 5 6 
#
# 1 87.0139 24.7138 85.2189 0.0000 0.0000 0.0000
# 2 24.7138 16.8993 32.8016 0.0000 0.0000 0.0000
# 3 85.2189 32.8016 203.0031 0.0000 0.0000 0.0000
# 4 0.0000 0.0000 0.0000 -1.5559 0.0000 0.0000
# 5 0.0000 0.0000 0.0000 0.0000 37.8257 0.0000
# 6 0.0000 0.0000 0.0000 0.0000 0.0000 15.2329
#
#
#
# Elastic Compliance Matrix: (Units=1/GPa)
#
#
# Indices 1 2 3 4 5 6 
#
# 1 0.024441 -0.023061 -0.006534 0.000000 0.000000 0.000000
# 2 -0.023061 0.107971 -0.007765 0.000000 0.000000 0.000000
# 3 -0.006534 -0.007765 0.008924 0.000000 0.000000 0.000000
# 4 0.000000 0.000000 0.000000 -0.642734 0.000000 0.000000
# 5 0.000000 0.000000 0.000000 0.000000 0.026437 0.000000
# 6 0.000000 0.000000 0.000000 0.000000 0.000000 0.065647
#
#
# Mechanical properties :
#
#
# Convention : Reuss Voigt Hill
#
# Bulk Modulus (GPa) = 15.01152 65.82055 40.41603
# Shear Modulus (GPa) = -16.00575 21.24603 2.62014
#
# Velocity S-wave (km/s) = -2.97636 3.42915 1.20423
# Velocity P-wave (km/s) = 1.87168 7.21863 4.92978
#
# Compressibility (1/GPa) = 0.06661550
#
# Stress axis : x y z
#
# Youngs Moduli (GPa) = 40.91405 9.26176 112.06052
#
# Poissons Ratio (x) = 0.21358 0.73222
# Poissons Ratio (y) = 0.94351 0.87020
# Poissons Ratio (z) = 0.26734 0.07192
#
# Static dielectric constant tensor:
#      x y z
#    x 1.609560 0.000000 0.000000 
#    y 0.000000 1.605610 0.000000 
#    z 0.000000 0.000000 1.616160 
# 
# From -- ./inp_files/76454.got.cif
#   From: 2010.05.17/outbox.ucp.g08.bks.cvg/sg65_39_cif.got.tgz:76454.got - 2010.06.11 16:39:57.
