data_PCOD9494060
_publ_section_title
;
Structure prediction by ZEFSAII (Michael W. Deem and Ramdas Pophale) SiO2 
 PCOD9494060
Probable space group: C M M M
;
_chemical_formula_sum "Si O2"
_cell_formula_units_Z 64
_cell_length_a 17.874089
_cell_length_b 7.795735
_cell_length_c 24.754296
_cell_angle_alpha 90.000000
_cell_angle_beta 90.000000
_cell_angle_gamma 90.000000
_cell_volume 3449.304727
_symmetry_space_group_name_H-M "C M M M"
_symmetry_group_IT_number 65
_symmetry_cell_setting 'orthorhombic'
loop_
_space_group_symop_operation_xyz
x,y,z
-x,-y,z
x,-y,-z
-x,y,-z
-x,-y,-z
x,y,-z
-x,y,z
x,-y,z
1/2+x,1/2+y,z
1/2-x,1/2-y,z
1/2+x,1/2-y,-z
1/2-x,1/2+y,-z
1/2-x,1/2-y,-z
1/2+x,1/2+y,-z
1/2-x,1/2+y,z
1/2+x,1/2-y,z
loop_
_atom_site_type_symbol
_atom_site_label
_atom_site_fract_x
_atom_site_fract_y
_atom_site_fract_z
Si Si1 0.910513 0.500000 0.763267
Si Si2 0.836251 0.195694 0.829724
Si Si3 0.588132 0.792802 0.060824
Si Si4 0.591122 0.695736 0.438546
Si Si5 0.408568 0.000000 0.638872
O O1 0.881372 0.332030 0.794071
O O2 0.884890 0.500000 0.700989
O O3 0.000000 0.500000 0.764700
O O4 0.750000 0.250000 0.827983
O O5 0.865382 0.211496 0.891124
O O6 0.845422 0.000000 0.811182
O O7 0.500000 0.752300 0.067283
O O8 0.594984 0.000000 0.064628
O O9 0.610641 0.741984 0.000000
O O10 0.613384 0.741819 0.500000
O O11 0.500000 0.697034 0.438135
O O12 0.614528 0.500000 0.427568
O O13 0.616196 0.832782 0.394520
O O14 0.500000 0.000000 0.638828
#
# Coordination Sequence:
#
# PCOD9494060 Si02
#       5
#     8  16  16  16   8
#     4  11  24  41  59  87 120 152 201 253 291 347
#     4  12  24  41  63  84 114 158 198 243 297 351
#     4   9  18  35  60  89 121 151 183 233 293 353
#     4   8  13  22  39  66 103 145 184 223 276 341
#     4   9  17  28  45  69 106 148 185 231 284 336
#
# _framework density 18.554465
#
# number of rings (size 3 to 8) (size 9 to 14) (size 15 to 20)
#    0.000    2.250    2.500    2.625    0.000    5.500 
#    0.000    3.750    0.000    0.000    0.000    0.000 
#    0.000    4.000    0.000    0.000    0.000    0.000 
#
# Total GULP energy -178592.502111 kJ/mol
# GULP energy per Si atom -5581.015691 kJ/mol
# Density = 1.851223 g / cm^3
# Si number density = 18.554465 Si / 1000 Ang^3
#
#
#
# Elastic Constant Matrix: (Units=GPa)
#
#
# Indices 1 2 3 4 5 6 
#
# 1 43.0104 35.9775 39.8405 0.0000 0.0000 0.0000
# 2 35.9775 143.0815 91.5374 0.0000 0.0000 0.0000
# 3 39.8405 91.5374 149.1700 0.0000 0.0000 0.0000
# 4 0.0000 0.0000 0.0000 -17.7902 0.0000 0.0000
# 5 0.0000 0.0000 0.0000 0.0000 -9.9564 0.0000
# 6 0.0000 0.0000 0.0000 0.0000 0.0000 17.0357
#
#
#
# Elastic Compliance Matrix: (Units=1/GPa)
#
#
# Indices 1 2 3 4 5 6 
#
# 1 0.032425 -0.004302 -0.006021 0.000000 0.000000 0.000000
# 2 -0.004302 0.012077 -0.006262 0.000000 0.000000 0.000000
# 3 -0.006021 -0.006262 0.012154 0.000000 0.000000 0.000000
# 4 0.000000 0.000000 0.000000 -0.056211 0.000000 0.000000
# 5 0.000000 0.000000 0.000000 0.000000 -0.100438 0.000000
# 6 0.000000 0.000000 0.000000 0.000000 0.000000 0.058700
#
#
# Mechanical properties :
#
#
# Convention : Reuss Voigt Hill
#
# Bulk Modulus (GPa) = 42.57457 74.44139 58.50798
# Shear Modulus (GPa) = -16947.93907 9.05160 -8469.44374
#
# Velocity S-wave (km/s) = -95.67647 2.21111 -67.63541
# Velocity P-wave (km/s) = 110.37355 6.83566 77.89606
#
# Compressibility (1/GPa) = 0.02348820
#
# Stress axis : x y z
#
# Youngs Moduli (GPa) = 30.84019 82.80335 82.27496
#
# Poissons Ratio (x) = 0.35619 0.49534
# Poissons Ratio (y) = 0.13266 0.51521
# Poissons Ratio (z) = 0.18567 0.51851
#
# Static dielectric constant tensor:
#      x y z
#    x 1.614370 0.000000 0.000000 
#    y 0.000000 1.648530 0.000000 
#    z 0.000000 0.000000 1.627480 
# 
# From -- ./inp_files/69530.got.cif
#   From: 2010.05.17/outbox.cif.g08.bks.cpg/sg65_35_cif.got.tgz:69530.got - 2010.06.03 17:01:31.
