data_PCOD9494319
_publ_section_title
;
Structure prediction by ZEFSAII (Michael W. Deem and Ramdas Pophale) SiO2 
 PCOD9494319
Probable space group: C M M M
;
_chemical_formula_sum "Si O2"
_cell_formula_units_Z 80
_cell_length_a 14.315032
_cell_length_b 8.034472
_cell_length_c 30.486194
_cell_angle_alpha 90.000000
_cell_angle_beta 90.000000
_cell_angle_gamma 90.000000
_cell_volume 3506.330696
_symmetry_space_group_name_H-M "C M M M"
_symmetry_group_IT_number 65
_symmetry_cell_setting 'orthorhombic'
loop_
_space_group_symop_operation_xyz
x,y,z
-x,-y,z
x,-y,-z
-x,y,-z
-x,-y,-z
x,y,-z
-x,y,z
x,-y,z
1/2+x,1/2+y,z
1/2-x,1/2-y,z
1/2+x,1/2-y,-z
1/2-x,1/2+y,-z
1/2-x,1/2-y,-z
1/2+x,1/2+y,-z
1/2-x,1/2+y,z
1/2+x,1/2-y,z
loop_
_atom_site_type_symbol
_atom_site_label
_atom_site_fract_x
_atom_site_fract_y
_atom_site_fract_z
Si Si1 0.885334 0.000000 0.891968
Si Si2 0.109552 0.812411 0.644142
Si Si3 0.642261 0.700843 0.452913
Si Si4 0.613790 0.186893 0.050697
Si Si5 0.114510 0.000000 0.791305
Si Si6 0.114141 0.680491 0.264097
O O1 0.855191 0.165021 0.917950
O O2 0.854795 0.000000 0.841606
O O3 0.000000 0.000000 0.891981
O O4 0.113906 0.737940 0.595227
O O5 0.144352 0.708656 0.685416
O O6 0.000000 0.831839 0.652774
O O7 0.151127 0.000000 0.643675
O O8 0.602271 0.759008 0.500000
O O9 0.628520 0.500000 0.452036
O O10 0.750000 0.750000 0.454837
O O11 0.500000 0.187146 0.051595
O O12 0.643388 0.000000 0.063252
O O13 0.640130 0.217400 0.000000
O O14 0.143927 0.835673 0.765064
O O15 0.000000 0.000000 0.791267
O O16 0.145525 0.500000 0.248290
O O17 0.000000 0.679193 0.263062
#
# Coordination Sequence:
#
# PCOD9494319 Si02
#       6
#     8  16  16  16   8  16
#     4   9  15  20  29  42  58  83 114 149 199 256
#     4   9  16  28  46  64  84 110 143 181 213 252
#     4   9  18  31  46  65  90 118 142 169 212 261
#     4   8  13  20  28  38  54  78 112 155 199 243
#     4   9  16  25  34  49  73  96 121 162 210 255
#     4   9  16  26  40  56  75 100 129 163 206 252
#
# _framework density 22.815874000000001
#
# number of rings (size 3 to 8) (size 9 to 14) (size 15 to 20)
#    0.000    3.200    1.000    0.900    0.000    3.200 
#    0.000    6.000    0.000    0.000    0.000    5.600 
#    0.000    0.000    0.000    0.000    0.000    0.000 
#
# Total GULP energy -223154.675861 kJ/mol
# GULP energy per Si atom -5578.866897 kJ/mol
# Density = 2.276394 g / cm^3
# Si number density = 22.815874 Si / 1000 Ang^3
#
#
#
# Elastic Constant Matrix: (Units=GPa)
#
#
# Indices 1 2 3 4 5 6 
#
# 1 62.0842 12.4313 -2.0195 0.0000 0.0000 0.0000
# 2 12.4313 165.8244 136.0849 0.0000 0.0000 0.0000
# 3 -2.0195 136.0849 197.8979 0.0000 0.0000 0.0000
# 4 0.0000 0.0000 0.0000 -8.7516 0.0000 0.0000
# 5 0.0000 0.0000 0.0000 0.0000 18.1671 0.0000
# 6 0.0000 0.0000 0.0000 0.0000 0.0000 9.9953
#
#
#
# Elastic Compliance Matrix: (Units=1/GPa)
#
#
# Indices 1 2 3 4 5 6 
#
# 1 0.016829 -0.003219 0.002386 0.000000 0.000000 0.000000
# 2 -0.003219 0.014458 -0.009975 0.000000 0.000000 0.000000
# 3 0.002386 -0.009975 0.011937 0.000000 0.000000 0.000000
# 4 0.000000 0.000000 0.000000 -0.114265 0.000000 0.000000
# 5 0.000000 0.000000 0.000000 0.000000 0.055045 0.000000
# 6 0.000000 0.000000 0.000000 0.000000 0.000000 0.100047
#
#
# Mechanical properties :
#
#
# Convention : Reuss Voigt Hill
#
# Bulk Modulus (GPa) = 46.28221 79.86665 63.07443
# Shear Modulus (GPa) = 44.29888 22.50280 33.40084
#
# Velocity S-wave (km/s) = 4.41112 3.14391 3.83028
# Velocity P-wave (km/s) = 6.80243 6.94693 6.87506
#
# Compressibility (1/GPa) = 0.02160658
#
# Stress axis : x y z
#
# Youngs Moduli (GPa) = 59.41996 69.16802 83.77651
#
# Poissons Ratio (x) = 0.22267 -0.19985
# Poissons Ratio (y) = 0.19129 0.83564
# Poissons Ratio (z) = -0.14175 0.68992
#
# Static dielectric constant tensor:
#      x y z
#    x 1.892130 0.000000 0.000000 
#    y 0.000000 1.840970 0.000000 
#    z 0.000000 0.000000 1.830880 
# 
# From -- ./inp_files/71361.got.cif
#   From: 2010.05.17/outbox.cif.g08.bks.cpg/sg65_36_cif.got.tgz:71361.got - 2010.06.03 17:01:31.
