data_PCOD9494623
_publ_section_title
;
Structure prediction by ZEFSAII (Michael W. Deem and Ramdas Pophale) SiO2 
 PCOD9494623
Probable space group: C M M M
;
_chemical_formula_sum "Si O2"
_cell_formula_units_Z 44
_cell_length_a 9.000000
_cell_length_b 30.000000
_cell_length_c 21.000000
_cell_angle_alpha 90.000000
_cell_angle_beta 90.000000
_cell_angle_gamma 90.000000
_cell_volume 5670.000000
_symmetry_space_group_name_H-M "C M M M"
_symmetry_group_IT_number 65
_symmetry_cell_setting 'orthorhombic'
loop_
_space_group_symop_operation_xyz
x,y,z
-x,-y,z
x,-y,-z
-x,y,-z
-x,-y,-z
x,y,-z
-x,y,z
x,-y,z
1/2+x,1/2+y,z
1/2-x,1/2-y,z
1/2+x,1/2-y,-z
1/2-x,1/2+y,-z
1/2-x,1/2-y,-z
1/2+x,1/2+y,-z
1/2-x,1/2+y,z
1/2+x,1/2-y,z
loop_
_atom_site_type_symbol
_atom_site_label
_atom_site_fract_x
_atom_site_fract_y
_atom_site_fract_z
Si Si1 0.819900 0.700180 0.789839
Si Si2 0.321800 0.798937 0.068325
Si Si3 0.331029 0.553662 0.500000
Si Si4 0.178133 0.552732 0.634100
Si Si5 0.321135 0.360750 0.680391
Si Si6 0.323061 0.798410 0.424474
O O1 0.750000 0.750000 0.783424
O O2 0.784915 0.682720 0.861707
O O3 0.746331 0.667642 0.738650
O O4 0.000000 0.702536 0.781927
O O5 0.500000 0.794453 0.068071
O O6 0.250000 0.750000 0.067676
O O7 0.279227 0.820659 0.000000
O O8 0.343483 0.500000 0.500000
O O9 0.500000 0.571953 0.500000
O O10 0.240898 0.564188 0.563766
O O11 0.210669 0.500000 0.646531
O O12 0.257408 0.588858 0.679026
O O13 0.000000 0.558130 0.635685
O O14 0.500000 0.360742 0.681029
O O15 0.259005 0.335086 0.617968
O O16 0.305657 0.807204 0.500000
O O17 0.500000 0.797475 0.410206
O O18 0.250000 0.750000 0.411240
#
# Coordination Sequence:
#
# PCOD9494623 Si02
#       6
#    16  16   8  16  16  16
#     4  10  19  32  49  70 100 133 167 202 238 282
#     4   8  14  25  43  67  94 126 161 196 233 274
#     4   9  17  31  51  73  94 115 142 181 233 289
#     4  10  21  37  55  73  94 120 153 196 246 297
#     4  12  24  35  50  70  96 127 162 200 241 291
#     4  10  21  37  54  70  91 120 158 202 245 288
#
# _framework density 7.760141
#
# number of rings (size 3 to 8) (size 9 to 14) (size 15 to 20)
#    0.000    2.091    0.000    4.091    1.273    4.000 
#    0.000    0.000    0.000    0.000    0.000    0.000 
#    0.000    0.727    0.000    8.364    0.000    2.364 
#
# Total GULP energy -245314.021287 kJ/mol
# GULP energy per Si atom -5575.318666 kJ/mol
# Density = 0.774248 g / cm^3
# Si number density = 7.760141 Si / 1000 Ang^3
#
#
#
# Elastic Constant Matrix: (Units=GPa)
#
#
# Indices 1 2 3 4 5 6 
#
# 1 110.7654 47.7940 49.5874 0.0000 0.0000 0.0000
# 2 47.7940 85.8680 58.0963 0.0000 0.0000 0.0000
# 3 49.5874 58.0963 95.4778 0.0000 0.0000 0.0000
# 4 0.0000 0.0000 0.0000 6.7013 0.0000 0.0000
# 5 0.0000 0.0000 0.0000 0.0000 17.4725 0.0000
# 6 0.0000 0.0000 0.0000 0.0000 0.0000 25.5609
#
#
#
# Elastic Compliance Matrix: (Units=1/GPa)
#
#
# Indices 1 2 3 4 5 6 
#
# 1 0.012680 -0.004423 -0.003894 0.000000 0.000000 0.000000
# 2 -0.004423 0.021338 -0.010687 0.000000 0.000000 0.000000
# 3 -0.003894 -0.010687 0.018999 0.000000 0.000000 0.000000
# 4 0.000000 0.000000 0.000000 0.149225 0.000000 0.000000
# 5 0.000000 0.000000 0.000000 0.000000 0.057233 0.000000
# 6 0.000000 0.000000 0.000000 0.000000 0.000000 0.039122
#
#
# Mechanical properties :
#
#
# Convention : Reuss Voigt Hill
#
# Bulk Modulus (GPa) = 66.62619 67.00740 66.81680
# Shear Modulus (GPa) = 14.63671 19.05583 16.84627
#
# Velocity S-wave (km/s) = 3.07428 3.50780 3.29817
# Velocity P-wave (km/s) = 7.45810 7.72490 7.59267
#
# Compressibility (1/GPa) = 0.01500911
#
# Stress axis : x y z
#
# Youngs Moduli (GPa) = 78.86527 46.86513 52.63519
#
# Poissons Ratio (x) = 0.20728 0.20497
# Poissons Ratio (y) = 0.34881 0.56249
# Poissons Ratio (z) = 0.30712 0.50083
#
# Static dielectric constant tensor:
#      x y z
#    x 1.514930 0.000000 0.000000 
#    y 0.000000 1.516560 0.000000 
#    z 0.000000 0.000000 1.561100 
# 
# From -- ./inp_files/60691.got.cif
#   From: 2010.05.17/outbox.ucp.g08.bks.cvg/sg65_31_cif.got.tgz:60691.got - 2010.06.11 16:39:57.
