data_PCOD9494430
_publ_section_title
;
Structure prediction by ZEFSAII (Michael W. Deem and Ramdas Pophale) SiO2 
 PCOD9494430
Probable space group: C M M M
;
_chemical_formula_sum "Si O2"
_cell_formula_units_Z 96
_cell_length_a 7.582714
_cell_length_b 19.620826
_cell_length_c 32.275467
_cell_angle_alpha 90.000000
_cell_angle_beta 90.000000
_cell_angle_gamma 90.000000
_cell_volume 4801.915320
_symmetry_space_group_name_H-M "C M M M"
_symmetry_group_IT_number 65
_symmetry_cell_setting 'orthorhombic'
loop_
_space_group_symop_operation_xyz
x,y,z
-x,-y,z
x,-y,-z
-x,y,-z
-x,-y,-z
x,y,-z
-x,y,z
x,-y,z
1/2+x,1/2+y,z
1/2-x,1/2-y,z
1/2+x,1/2-y,-z
1/2-x,1/2+y,-z
1/2-x,1/2-y,-z
1/2+x,1/2+y,-z
1/2-x,1/2+y,z
1/2+x,1/2-y,z
loop_
_atom_site_type_symbol
_atom_site_label
_atom_site_fract_x
_atom_site_fract_y
_atom_site_fract_z
Si Si1 0.288444 0.828130 0.546838
Si Si2 0.783691 0.421431 0.377899
Si Si3 0.710106 0.922473 0.134900
Si Si4 0.288046 0.579338 0.955467
Si Si5 0.211933 0.328813 0.208827
Si Si6 0.288379 0.171026 0.301986
O O1 0.220142 0.838792 0.500000
O O2 0.500000 0.834987 0.545176
O O3 0.250000 0.750000 0.558891
O O4 0.224291 0.880952 0.581160
O O5 0.729010 0.500000 0.377524
O O6 0.724050 0.379793 0.337417
O O7 0.000000 0.420655 0.377909
O O8 0.500000 0.927235 0.140359
O O9 0.737113 0.891396 0.089049
O O10 0.780738 0.877313 0.172521
O O11 0.781656 0.000000 0.135447
O O12 0.500000 0.578951 0.956279
O O13 0.228205 0.500000 0.954679
O O14 0.227520 0.608478 0.000000
O O15 0.250000 0.250000 0.199616
O O16 0.278972 0.343192 0.255420
O O17 0.000000 0.336431 0.210160
O O18 0.500000 0.164231 0.300739
O O19 0.250000 0.250000 0.312010
#
# Coordination Sequence:
#
# PCOD9494430 Si02
#       6
#    16  16  16  16  16  16
#     4   9  17  29  46  67  90 118 152 188 223 261
#     4   9  17  28  44  68  93 116 146 184 225 266
#     4   9  17  28  43  65  90 113 140 177 219 259
#     4   8  14  25  41  62  88 116 145 176 211 254
#     4   9  18  31  46  65  88 115 146 179 217 260
#     4   9  17  30  48  66  85 113 148 183 217 258
#
# _framework density 19.992023
#
# number of rings (size 3 to 8) (size 9 to 14) (size 15 to 20)
#    0.000    3.167    0.000    1.000    0.000    2.000 
#    0.000    6.667    0.000    2.500    0.000    7.000 
#    0.000    0.000    0.000    0.000    0.000    0.000 
#
# Total GULP energy -267516.953661 kJ/mol
# GULP energy per Si atom -5573.269868 kJ/mol
# Density = 1.994652 g / cm^3
# Si number density = 19.992023 Si / 1000 Ang^3
#
#
#
# Elastic Constant Matrix: (Units=GPa)
#
#
# Indices 1 2 3 4 5 6 
#
# 1 43.8390 0.7523 6.7214 0.0000 0.0000 0.0000
# 2 0.7523 118.7044 132.7074 0.0000 0.0000 0.0000
# 3 6.7214 132.7074 201.7196 0.0000 0.0000 0.0000
# 4 0.0000 0.0000 0.0000 29.7906 0.0000 0.0000
# 5 0.0000 0.0000 0.0000 0.0000 17.2995 0.0000
# 6 0.0000 0.0000 0.0000 0.0000 0.0000 17.1338
#
#
#
# Elastic Compliance Matrix: (Units=1/GPa)
#
#
# Indices 1 2 3 4 5 6 
#
# 1 0.023156 0.002706 -0.002552 0.000000 0.000000 0.000000
# 2 0.002706 0.032165 -0.021251 0.000000 0.000000 0.000000
# 3 -0.002552 -0.021251 0.019023 0.000000 0.000000 0.000000
# 4 0.000000 0.000000 0.000000 0.033568 0.000000 0.000000
# 5 0.000000 0.000000 0.000000 0.000000 0.057805 0.000000
# 6 0.000000 0.000000 0.000000 0.000000 0.000000 0.058364
#
#
# Mechanical properties :
#
#
# Convention : Reuss Voigt Hill
#
# Bulk Modulus (GPa) = 31.10395 71.62503 51.36449
# Shear Modulus (GPa) = 18.05122 27.78357 22.91740
#
# Velocity S-wave (km/s) = 3.00812 3.73196 3.38942
# Velocity P-wave (km/s) = 5.25900 7.38069 6.40826
#
# Compressibility (1/GPa) = 0.03215025
#
# Stress axis : x y z
#
# Youngs Moduli (GPa) = 43.18617 31.08999 52.56841
#
# Poissons Ratio (x) = -0.08414 0.13415
# Poissons Ratio (y) = -0.11687 1.11712
# Poissons Ratio (z) = 0.11021 0.66068
#
# Static dielectric constant tensor:
#      x y z
#    x 1.754050 0.000000 0.000000 
#    y 0.000000 1.661420 0.000000 
#    z 0.000000 0.000000 1.743710 
# 
# From -- ./inp_files/74369.got.cif
#   From: 2010.05.17/outbox.cif.g08.bks.cpg/sg65_38_cif.got.tgz:74369.got - 2010.06.03 17:01:31.
