data_PCOD9494758
_publ_section_title
;
Structure prediction by ZEFSAII (Michael W. Deem and Ramdas Pophale) SiO2 
 PCOD9494758
Probable space group: C M M M
;
_chemical_formula_sum "Si O2"
_cell_formula_units_Z 58
_cell_length_a 24.000000
_cell_length_b 18.000000
_cell_length_c 15.000000
_cell_angle_alpha 90.000000
_cell_angle_beta 90.000000
_cell_angle_gamma 90.000000
_cell_volume 6480.000000
_symmetry_space_group_name_H-M "C M M M"
_symmetry_group_IT_number 65
_symmetry_cell_setting 'orthorhombic'
loop_
_space_group_symop_operation_xyz
x,y,z
-x,-y,z
x,-y,-z
-x,y,-z
-x,-y,-z
x,y,-z
-x,y,z
x,-y,z
1/2+x,1/2+y,z
1/2-x,1/2-y,z
1/2+x,1/2-y,-z
1/2-x,1/2+y,-z
1/2-x,1/2-y,-z
1/2+x,1/2+y,-z
1/2-x,1/2+y,z
1/2+x,1/2-y,z
loop_
_atom_site_type_symbol
_atom_site_label
_atom_site_fract_x
_atom_site_fract_y
_atom_site_fract_z
Si Si1 0.091577 0.689623 0.654346
Si Si2 0.262756 0.415089 0.772764
Si Si3 0.189852 0.416776 0.401287
Si Si4 0.000000 0.709225 0.500000
Si Si5 0.933217 0.082759 0.897243
Si Si6 0.937992 0.412949 0.821444
Si Si7 0.169931 0.656392 0.102396
Si Si8 0.862909 0.802563 0.791536
O O1 0.143412 0.644381 0.614802
O O2 0.048045 0.706290 0.578154
O O3 0.067449 0.636082 0.732113
O O4 0.113277 0.762931 0.704126
O O5 0.278131 0.500000 0.792610
O O6 0.234734 0.411684 0.675908
O O7 0.216350 0.387314 0.842170
O O8 0.314007 0.360016 0.773877
O O9 0.214045 0.409167 0.500000
O O10 0.164435 0.500000 0.394990
O O11 0.909887 0.150207 0.841049
O O12 0.000000 0.084438 0.896651
O O13 0.916141 0.000000 0.865585
O O14 0.914584 0.090004 0.000000
O O15 0.931003 0.500000 0.800500
O O16 0.888553 0.386432 0.885008
O O17 0.000000 0.402131 0.859246
O O18 0.160506 0.736665 0.146461
O O19 0.185486 0.662497 0.000000
#
# Coordination Sequence:
#
# PCOD9494758 Si02
#       8
#    16  16  16   4  16  16  16  16
#     4  11  22  37  57  85 122 151 193 244 298 356
#     4  11  23  41  62  86 116 153 203 253 302 360
#     4  10  20  38  61  85 117 156 196 247 303 350
#     4  12  24  40  57  94 127 156 196 244 308 364
#     4   9  19  37  61  89 117 148 196 255 307 354
#     4  10  20  36  57  81 117 161 205 244 285 346
#     4  11  24  38  56  85 125 165 201 248 306 361
#     4  11  23  38  61  86 119 160 198 243 298 368
#
# _framework density 8.9506169999999994
#
# number of rings (size 3 to 8) (size 9 to 14) (size 15 to 20)
#    0.000    1.517    4.138    2.483    0.966    3.586 
#    1.241    2.759    0.000    0.000    0.000    1.931 
#    0.000    0.000    0.000    0.000    0.000    0.000 
#
# Total GULP energy -323141.806381 kJ/mol
# GULP energy per Si atom -5571.410455 kJ/mol
# Density = 0.893025 g / cm^3
# Si number density = 8.950617 Si / 1000 Ang^3
#
#
#
# Elastic Constant Matrix: (Units=GPa)
#
#
# Indices 1 2 3 4 5 6 
#
# 1 74.6962 69.3417 37.1424 0.0000 0.0000 0.0000
# 2 69.3417 130.0578 54.4814 0.0000 0.0000 0.0000
# 3 37.1424 54.4814 101.9447 0.0000 0.0000 0.0000
# 4 0.0000 0.0000 0.0000 24.4869 0.0000 0.0000
# 5 0.0000 0.0000 0.0000 0.0000 230.5706 0.0000
# 6 0.0000 0.0000 0.0000 0.0000 0.0000 21.3767
#
#
#
# Elastic Compliance Matrix: (Units=1/GPa)
#
#
# Indices 1 2 3 4 5 6 
#
# 1 0.027102 -0.013288 -0.002773 0.000000 0.000000 0.000000
# 2 -0.013288 0.016422 -0.003935 0.000000 0.000000 0.000000
# 3 -0.002773 -0.003935 0.012922 0.000000 0.000000 0.000000
# 4 0.000000 0.000000 0.000000 0.040838 0.000000 0.000000
# 5 0.000000 0.000000 0.000000 0.000000 0.004337 0.000000
# 6 0.000000 0.000000 0.000000 0.000000 0.000000 0.046780
#
#
# Mechanical properties :
#
#
# Convention : Reuss Voigt Hill
#
# Bulk Modulus (GPa) = 60.77327 69.84775 65.31051
# Shear Modulus (GPa) = 25.78943 65.00237 45.39590
#
# Velocity S-wave (km/s) = 3.79971 6.03245 5.04124
# Velocity P-wave (km/s) = 7.29886 9.36076 8.39336
#
# Compressibility (1/GPa) = 0.01645460
#
# Stress axis : x y z
#
# Youngs Moduli (GPa) = 36.89777 60.89425 77.38537
#
# Poissons Ratio (x) = 0.80917 0.21457
# Poissons Ratio (y) = 0.49030 0.30450
# Poissons Ratio (z) = 0.10231 0.23961
#
# Static dielectric constant tensor:
#      x y z
#    x 1.605150 0.000000 0.000000 
#    y 0.000000 1.596110 0.000000 
#    z 0.000000 0.000000 1.605610 
# 
# From -- ./inp_files/46027.got.cif
#   From: 2010.05.17/outbox.ucp.g08.bks.cvg/sg65_24_cif.got.tgz:46027.got - 2010.06.11 16:39:57.
