data_PCOD9494984
_publ_section_title
;
Structure prediction by ZEFSAII (Michael W. Deem and Ramdas Pophale) SiO2 
 PCOD9494984
Probable space group: C C C M
;
_chemical_formula_sum "Si O2"
_cell_formula_units_Z 64
_cell_length_a 31.764970
_cell_length_b 9.696938
_cell_length_c 10.593397
_cell_angle_alpha 90.000000
_cell_angle_beta 90.000000
_cell_angle_gamma 90.000000
_cell_volume 3263.009338
_symmetry_space_group_name_H-M "C C C M"
_symmetry_group_IT_number 66
_symmetry_cell_setting 'orthorhombic'
loop_
_space_group_symop_operation_xyz
x,y,z
-x,-y,z
x,-y,1/2-z
-x,y,1/2-z
-x,-y,-z
x,y,-z
-x,y,1/2+z
x,-y,1/2+z
1/2+x,1/2+y,z
1/2-x,1/2-y,z
1/2+x,1/2-y,1/2-z
1/2-x,1/2+y,1/2-z
1/2-x,1/2-y,-z
1/2+x,1/2+y,-z
1/2-x,1/2+y,1/2+z
1/2+x,1/2-y,1/2+z
loop_
_atom_site_type_symbol
_atom_site_label
_atom_site_fract_x
_atom_site_fract_y
_atom_site_fract_z
Si Si1 0.582775 0.000000 0.250000
Si Si2 0.068047 0.370037 0.500000
Si Si3 0.597474 0.500000 0.250000
Si Si4 0.329259 0.890501 0.000000
Si Si5 0.702020 0.203847 0.500000
Si Si6 0.151751 0.264912 0.247503
Si Si7 0.951606 0.958562 0.500000
O O1 0.556363 0.946457 0.369806
O O2 0.615367 0.877116 0.214863
O O3 0.119274 0.387922 0.500000
O O4 0.055279 0.208911 0.500000
O O5 0.626812 0.628462 0.281878
O O6 0.569503 0.479411 0.374276
O O7 0.320898 0.816908 0.866523
O O8 0.307583 0.039308 0.000000
O O9 0.750000 0.250000 0.500000
O O10 0.679636 0.258640 0.374666
O O11 0.000000 0.000000 0.500000
#
# Coordination Sequence:
#
# PCOD9494984 Si02
#       7
#     8   8   8   8   8  16   8
#     4  10  16  36  71  93 118 171 241 270 304 393
#     4  10  18  36  67 103 121 176 231 273 323 413
#     4  12  23  42  69  98 132 183 239 268 328 441
#     4  10  18  40  68  86 126 178 222 275 329 402
#     4  12  23  38  62 102 134 164 226 291 349 383
#     4  11  20  39  68  93 124 178 234 268 322 403
#     4  12  25  42  64 104 148 173 211 291 369 399
#
# _framework density 19.613793999999999
#
# number of rings (size 3 to 8) (size 9 to 14) (size 15 to 20)
#    0.000    1.000   10.000    1.125    0.000    0.000 
#    4.500    0.625    0.000    4.500    0.000    0.000 
#    0.000    0.000    0.000    0.000    0.000    0.000 
#
# Total GULP energy -178567.942565 kJ/mol
# GULP energy per Si atom -5580.248205 kJ/mol
# Density = 1.956915 g / cm^3
# Si number density = 19.613794 Si / 1000 Ang^3
#
#
#
# Elastic Constant Matrix: (Units=GPa)
#
#
# Indices 1 2 3 4 5 6 
#
# 1 75.3290 19.5340 28.3993 0.0000 0.0000 0.0000
# 2 19.5340 52.8255 -28.7794 0.0000 0.0000 0.0000
# 3 28.3993 -28.7794 139.3568 0.0000 0.0000 0.0000
# 4 0.0000 0.0000 0.0000 15.5947 0.0000 0.0000
# 5 0.0000 0.0000 0.0000 0.0000 7.7630 0.0000
# 6 0.0000 0.0000 0.0000 0.0000 0.0000 21.9469
#
#
#
# Elastic Compliance Matrix: (Units=1/GPa)
#
#
# Indices 1 2 3 4 5 6 
#
# 1 0.017927 -0.009712 -0.005659 0.000000 0.000000 0.000000
# 2 -0.009712 0.026592 0.007471 0.000000 0.000000 0.000000
# 3 -0.005659 0.007471 0.009872 0.000000 0.000000 0.000000
# 4 0.000000 0.000000 0.000000 0.064124 0.000000 0.000000
# 5 0.000000 0.000000 0.000000 0.000000 0.128816 0.000000
# 6 0.000000 0.000000 0.000000 0.000000 0.000000 0.045564
#
#
# Mechanical properties :
#
#
# Convention : Reuss Voigt Hill
#
# Bulk Modulus (GPa) = 25.91340 33.97988 29.94664
# Shear Modulus (GPa) = 15.54919 25.61810 20.58364
#
# Velocity S-wave (km/s) = 2.81867 3.61796 3.24303
# Velocity P-wave (km/s) = 4.88198 5.90042 5.41519
#
# Compressibility (1/GPa) = 0.03859007
#
# Stress axis : x y z
#
# Youngs Moduli (GPa) = 55.78146 37.60552 101.29733
#
# Poissons Ratio (x) = 0.36523 0.57325
# Poissons Ratio (y) = 0.54176 -0.75678
# Poissons Ratio (z) = 0.31567 -0.28095
#
# Static dielectric constant tensor:
#      x y z
#    x 1.674350 0.000000 0.000000 
#    y 0.000000 1.732740 0.000000 
#    z 0.000000 0.000000 1.674290 
# 
# From -- ./inp_files/21160.got.cif
#   From: 2010.05.17/outbox.cif.g08.bks.cpg/sg66_11_cif.got.tgz:21160.got - 2010.06.03 17:51:23.
