data_PCOD9494148
_publ_section_title
;
Structure prediction by ZEFSAII (Michael W. Deem and Ramdas Pophale) SiO2 
 PCOD9494148
Probable space group: C M M M
;
_chemical_formula_sum "Si O2"
_cell_formula_units_Z 56
_cell_length_a 9.052029
_cell_length_b 19.282757
_cell_length_c 19.802745
_cell_angle_alpha 90.000000
_cell_angle_beta 90.000000
_cell_angle_gamma 90.000000
_cell_volume 3456.531031
_symmetry_space_group_name_H-M "C M M M"
_symmetry_group_IT_number 65
_symmetry_cell_setting 'orthorhombic'
loop_
_space_group_symop_operation_xyz
x,y,z
-x,-y,z
x,-y,-z
-x,y,-z
-x,-y,-z
x,y,-z
-x,y,z
x,-y,z
1/2+x,1/2+y,z
1/2-x,1/2-y,z
1/2+x,1/2-y,-z
1/2-x,1/2+y,-z
1/2-x,1/2-y,-z
1/2+x,1/2+y,-z
1/2-x,1/2+y,z
1/2+x,1/2-y,z
loop_
_atom_site_type_symbol
_atom_site_label
_atom_site_fract_x
_atom_site_fract_y
_atom_site_fract_z
Si Si1 0.173824 0.078822 0.797696
Si Si2 0.179405 0.000000 0.923863
Si Si3 0.825127 0.081267 0.420510
Si Si4 0.675377 0.174918 0.308959
O O1 0.218010 0.065569 0.876045
O O2 0.269452 0.132433 0.756493
O O3 0.000000 0.097233 0.794228
O O4 0.187164 0.000000 0.768419
O O5 0.000000 0.000000 0.926116
O O6 0.235699 0.000000 0.000000
O O7 0.802593 0.095654 0.500000
O O8 0.731513 0.130487 0.372827
O O9 0.000000 0.090668 0.405905
O O10 0.790730 0.000000 0.409325
O O11 0.500000 0.181369 0.309435
O O12 0.750000 0.250000 0.310125
#
# Coordination Sequence:
#
# PCOD9494148 Si02
#       4
#    16   8  16  16
#     4   8  16  31  53  78 105 134 164 204 249 300
#     4   7  12  26  53  85 108 131 164 201 245 300
#     4   9  19  37  59  79 101 131 167 209 258 310
#     4  12  24  35  50  72 103 139 176 216 256 302
#
# _framework density 16.201215000000001
#
# number of rings (size 3 to 8) (size 9 to 14) (size 15 to 20)
#    0.857    1.857    0.000    4.286    0.000    5.714 
#    0.000    1.429    0.000    2.571    0.000    0.000 
#    0.000    0.000    0.000    0.000    0.000    0.000 
#
# Total GULP energy -155897.136491 kJ/mol
# GULP energy per Si atom -5567.754875 kJ/mol
# Density = 1.616434 g / cm^3
# Si number density = 16.201215 Si / 1000 Ang^3
#
#
#
# Elastic Constant Matrix: (Units=GPa)
#
#
# Indices 1 2 3 4 5 6 
#
# 1 104.2885 76.9562 73.9986 0.0000 0.0000 0.0000
# 2 76.9562 100.1823 73.6108 0.0000 0.0000 0.0000
# 3 73.9986 73.6108 121.7648 0.0000 0.0000 0.0000
# 4 0.0000 0.0000 0.0000 -7.2434 0.0000 0.0000
# 5 0.0000 0.0000 0.0000 0.0000 13.8549 0.0000
# 6 0.0000 0.0000 0.0000 0.0000 0.0000 28.3074
#
#
#
# Elastic Compliance Matrix: (Units=1/GPa)
#
#
# Indices 1 2 3 4 5 6 
#
# 1 0.024587 -0.014228 -0.006341 0.000000 0.000000 0.000000
# 2 -0.014228 0.026192 -0.007188 0.000000 0.000000 0.000000
# 3 -0.006341 -0.007188 0.016411 0.000000 0.000000 0.000000
# 4 0.000000 0.000000 0.000000 -0.138056 0.000000 0.000000
# 5 0.000000 0.000000 0.000000 0.000000 0.072177 0.000000
# 6 0.000000 0.000000 0.000000 0.000000 0.000000 0.035326
#
#
# Mechanical properties :
#
#
# Convention : Reuss Voigt Hill
#
# Bulk Modulus (GPa) = 85.63106 86.15185 85.89146
# Shear Modulus (GPa) = 52.06078 13.76176 32.91127
#
# Velocity S-wave (km/s) = 5.67482 2.91766 4.51200
# Velocity P-wave (km/s) = 9.79324 8.04002 8.95962
#
# Compressibility (1/GPa) = 0.01167801
#
# Stress axis : x y z
#
# Youngs Moduli (GPa) = 40.67251 38.17934 60.93440
#
# Poissons Ratio (x) = 0.54320 0.38637
# Poissons Ratio (y) = 0.57867 0.43798
# Poissons Ratio (z) = 0.25789 0.27442
#
# Static dielectric constant tensor:
#      x y z
#    x 1.530090 0.000000 0.000000 
#    y 0.000000 1.522430 0.000000 
#    z 0.000000 0.000000 1.571530 
# 
# From -- ./inp_files/58580.got.cif
#   From: 2010.05.17/outbox.cif.g08.bks.cpg/sg65_30_cif.got.tgz:58580.got - 2010.06.03 17:01:31.
