data_PCOD9494220
_publ_section_title
;
Structure prediction by ZEFSAII (Michael W. Deem and Ramdas Pophale) SiO2 
 PCOD9494220
Probable space group: C M M M
;
_chemical_formula_sum "Si O2"
_cell_formula_units_Z 80
_cell_length_a 7.217147
_cell_length_b 14.585448
_cell_length_c 28.829702
_cell_angle_alpha 90.000000
_cell_angle_beta 90.000000
_cell_angle_gamma 90.000000
_cell_volume 3034.767872
_symmetry_space_group_name_H-M "C M M M"
_symmetry_group_IT_number 65
_symmetry_cell_setting 'orthorhombic'
loop_
_space_group_symop_operation_xyz
x,y,z
-x,-y,z
x,-y,-z
-x,y,-z
-x,-y,-z
x,y,-z
-x,y,z
x,-y,z
1/2+x,1/2+y,z
1/2-x,1/2-y,z
1/2+x,1/2-y,-z
1/2-x,1/2+y,-z
1/2-x,1/2-y,-z
1/2+x,1/2+y,-z
1/2-x,1/2+y,z
1/2+x,1/2-y,z
loop_
_atom_site_type_symbol
_atom_site_label
_atom_site_fract_x
_atom_site_fract_y
_atom_site_fract_z
Si Si1 0.709546 0.609214 0.598635
Si Si2 0.226660 0.107191 0.500000
Si Si3 0.720863 0.360357 0.200043
Si Si4 0.280397 0.358261 0.299719
Si Si5 0.720698 0.360278 0.100031
Si Si6 0.279302 0.639724 0.000000
O O1 0.500000 0.647837 0.602256
O O2 0.695475 0.500000 0.592122
O O3 0.789459 0.645156 0.549910
O O4 0.795882 0.618845 0.649455
O O5 0.000000 0.110685 0.500000
O O6 0.280498 0.000000 0.500000
O O7 0.500000 0.376488 0.200332
O O8 0.750000 0.250000 0.199579
O O9 0.790525 0.394468 0.250079
O O10 0.791456 0.393567 0.150034
O O11 0.500000 0.381249 0.301068
O O12 0.250000 0.250000 0.296563
O O13 0.500000 0.376994 0.100092
O O14 0.750000 0.250000 0.099961
O O15 0.791559 0.393378 0.050015
O O16 0.250000 0.750000 0.000000
O O17 0.500000 0.623011 0.000000
#
# Coordination Sequence:
#
# PCOD9494220 Si02
#       6
#    16   8  16  16  16   8
#     4   8  13  22  37  55  72  91 117 147 175 202
#     4   7  10  18  33  52  71  89 112 143 174 202
#     4   8  13  20  29  41  58  81 106 130 158 194
#     4   9  16  25  37  53  73  95 117 142 172 206
#     4   8  12  17  24  34  49  70  97 126 154 185
#     4   8  12  16  22  32  46  66  93 125 155 181
#
# _framework density 26.361160999999999
#
# number of rings (size 3 to 8) (size 9 to 14) (size 15 to 20)
#    0.000    3.900    0.000    1.200    0.000    0.000 
#    0.000    0.500    0.000    0.600    0.000    0.000 
#    0.000    2.400    0.000    0.900    0.000   29.800 
#
# Total GULP energy -222807.743820 kJ/mol
# GULP energy per Si atom -5570.193595 kJ/mol
# Density = 2.630116 g / cm^3
# Si number density = 26.361161 Si / 1000 Ang^3
#
#
#
# Elastic Constant Matrix: (Units=GPa)
#
#
# Indices 1 2 3 4 5 6 
#
# 1 139.4383 -11.2295 25.4820 0.0000 0.0000 0.0000
# 2 -11.2295 88.2057 18.9537 0.0000 0.0000 0.0000
# 3 25.4820 18.9537 450.2934 0.0000 0.0000 0.0000
# 4 0.0000 0.0000 0.0000 55.7403 0.0000 0.0000
# 5 0.0000 0.0000 0.0000 0.0000 9.3736 0.0000
# 6 0.0000 0.0000 0.0000 0.0000 0.0000 -15.9617
#
#
#
# Elastic Compliance Matrix: (Units=1/GPa)
#
#
# Indices 1 2 3 4 5 6 
#
# 1 0.007339 0.001033 -0.000459 0.000000 0.000000 0.000000
# 2 0.001033 0.011586 -0.000546 0.000000 0.000000 0.000000
# 3 -0.000459 -0.000546 0.002270 0.000000 0.000000 0.000000
# 4 0.000000 0.000000 0.000000 0.017940 0.000000 0.000000
# 5 0.000000 0.000000 0.000000 0.000000 0.106682 0.000000
# 6 0.000000 0.000000 0.000000 0.000000 0.000000 -0.062650
#
#
# Mechanical properties :
#
#
# Convention : Reuss Voigt Hill
#
# Bulk Modulus (GPa) = 47.05816 82.70553 64.88185
# Shear Modulus (GPa) = 55.43572 52.81252 54.12412
#
# Velocity S-wave (km/s) = 4.59075 4.48082 4.53612
# Velocity P-wave (km/s) = 6.78160 7.62970 7.21812
#
# Compressibility (1/GPa) = 0.02125030
#
# Stress axis : x y z
#
# Youngs Moduli (GPa) = 136.26488 86.31121 440.58234
#
# Poissons Ratio (x) = -0.08915 0.20212
# Poissons Ratio (y) = -0.14074 0.24061
# Poissons Ratio (z) = 0.06251 0.04714
#
# Static dielectric constant tensor:
#      x y z
#    x 1.975950 0.000000 0.000000 
#    y 0.000000 2.045440 0.000000 
#    z 0.000000 0.000000 2.171170 
# 
# From -- ./inp_files/74441.got.cif
#   From: 2010.05.17/outbox.cif.g08.bks.cpg/sg65_38_cif.got.tgz:74441.got - 2010.06.03 17:01:31.
