data_PCOD9494625
_publ_section_title
;
Structure prediction by ZEFSAII (Michael W. Deem and Ramdas Pophale) SiO2 
 PCOD9494625
Probable space group: C M M M
;
_chemical_formula_sum "Si O2"
_cell_formula_units_Z 36
_cell_length_a 9.000000
_cell_length_b 18.000000
_cell_length_c 24.000000
_cell_angle_alpha 90.000000
_cell_angle_beta 90.000000
_cell_angle_gamma 90.000000
_cell_volume 3888.000000
_symmetry_space_group_name_H-M "C M M M"
_symmetry_group_IT_number 65
_symmetry_cell_setting 'orthorhombic'
loop_
_space_group_symop_operation_xyz
x,y,z
-x,-y,z
x,-y,-z
-x,y,-z
-x,-y,-z
x,y,-z
-x,y,z
x,-y,z
1/2+x,1/2+y,z
1/2-x,1/2-y,z
1/2+x,1/2-y,-z
1/2-x,1/2+y,-z
1/2-x,1/2-y,-z
1/2+x,1/2+y,-z
1/2-x,1/2+y,z
1/2+x,1/2-y,z
loop_
_atom_site_type_symbol
_atom_site_label
_atom_site_fract_x
_atom_site_fract_y
_atom_site_fract_z
Si Si1 0.178500 0.668782 0.279648
Si Si2 0.678649 0.830792 0.939428
Si Si3 0.321147 0.668531 0.389233
Si Si4 0.819146 0.583037 0.831696
Si Si5 0.680446 0.417007 0.500000
O O1 0.250000 0.750000 0.275808
O O2 0.251147 0.632620 0.334134
O O3 0.219078 0.626822 0.223625
O O4 0.000000 0.673167 0.285146
O O5 0.500000 0.823517 0.935739
O O6 0.750000 0.750000 0.936938
O O7 0.733102 0.877864 0.887637
O O8 0.712926 0.864326 0.000000
O O9 0.500000 0.673097 0.384918
O O10 0.250000 0.750000 0.393305
O O11 0.277005 0.625145 0.444334
O O12 0.763600 0.500000 0.828599
O O13 0.000000 0.581386 0.834011
O O14 0.738156 0.500000 0.500000
O O15 0.500000 0.419277 0.500000
#
# Coordination Sequence:
#
# PCOD9494625 Si02
#       5
#    16  16  16  16   8
#     4  10  19  32  51  72  96 126 160 198 238 281
#     4   9  17  30  50  73  95 123 160 200 239 281
#     4  10  19  33  54  75  97 125 159 199 237 279
#     4   9  18  31  47  70  99 128 158 196 241 284
#     4   9  19  34  51  73 100 129 158 192 238 285
#
# _framework density 9.2592590000000001
#
# number of rings (size 3 to 8) (size 9 to 14) (size 15 to 20)
#    0.000    2.556    0.000    3.667    0.000    1.333 
#    0.000    5.000    0.000   10.000    0.000    3.111 
#    0.000    0.000    0.000    0.000    0.000    0.000 
#
# Total GULP energy -200568.608880 kJ/mol
# GULP energy per Si atom -5571.350247 kJ/mol
# Density = 0.923818 g / cm^3
# Si number density = 9.259259 Si / 1000 Ang^3
#
#
#
# Elastic Constant Matrix: (Units=GPa)
#
#
# Indices 1 2 3 4 5 6 
#
# 1 37.7107 21.0372 47.1557 0.0000 0.0000 0.0000
# 2 21.0372 76.8526 102.3093 0.0000 0.0000 0.0000
# 3 47.1557 102.3093 229.3004 0.0000 0.0000 0.0000
# 4 0.0000 0.0000 0.0000 77.0470 0.0000 0.0000
# 5 0.0000 0.0000 0.0000 0.0000 59.2648 0.0000
# 6 0.0000 0.0000 0.0000 0.0000 0.0000 7.4784
#
#
#
# Elastic Compliance Matrix: (Units=1/GPa)
#
#
# Indices 1 2 3 4 5 6 
#
# 1 0.035698 0.000003 -0.007343 0.000000 0.000000 0.000000
# 2 0.000003 0.032047 -0.014299 0.000000 0.000000 0.000000
# 3 -0.007343 -0.014299 0.012251 0.000000 0.000000 0.000000
# 4 0.000000 0.000000 0.000000 0.012979 0.000000 0.000000
# 5 0.000000 0.000000 0.000000 0.000000 0.016873 0.000000
# 6 0.000000 0.000000 0.000000 0.000000 0.000000 0.133718
#
#
# Mechanical properties :
#
#
# Convention : Reuss Voigt Hill
#
# Bulk Modulus (GPa) = 27.23464 76.09645 51.66554
# Shear Modulus (GPa) = 16.71777 40.31549 28.51663
#
# Velocity S-wave (km/s) = 3.00786 4.67093 3.92841
# Velocity P-wave (km/s) = 5.17702 8.38281 6.96681
#
# Compressibility (1/GPa) = 0.03671795
#
# Stress axis : x y z
#
# Youngs Moduli (GPa) = 28.01316 31.20424 81.62485
#
# Poissons Ratio (x) = -0.00010 0.59934
# Poissons Ratio (y) = -0.00009 1.16718
# Poissons Ratio (z) = 0.20569 0.44620
#
# Static dielectric constant tensor:
#      x y z
#    x 1.616410 0.000000 0.000000 
#    y 0.000000 1.617810 0.000000 
#    z 0.000000 0.000000 1.693800 
# 
# From -- ./inp_files/67012.got.cif
#   From: 2010.05.17/outbox.ucp.g08.bks.cvg/sg65_34_cif.got.tgz:67012.got - 2010.06.11 16:39:57.
