data_PCOD9494510
_publ_section_title
;
Structure prediction by ZEFSAII (Michael W. Deem and Ramdas Pophale) SiO2 
 PCOD9494510
Probable space group: C M M M
;
_chemical_formula_sum "Si O2"
_cell_formula_units_Z 56
_cell_length_a 19.463590
_cell_length_b 7.915757
_cell_length_c 20.579821
_cell_angle_alpha 90.000000
_cell_angle_beta 90.000000
_cell_angle_gamma 90.000000
_cell_volume 3170.713446
_symmetry_space_group_name_H-M "C M M M"
_symmetry_group_IT_number 65
_symmetry_cell_setting 'orthorhombic'
loop_
_space_group_symop_operation_xyz
x,y,z
-x,-y,z
x,-y,-z
-x,y,-z
-x,-y,-z
x,y,-z
-x,y,z
x,-y,z
1/2+x,1/2+y,z
1/2-x,1/2-y,z
1/2+x,1/2-y,-z
1/2-x,1/2+y,-z
1/2-x,1/2-y,-z
1/2+x,1/2+y,-z
1/2-x,1/2+y,z
1/2+x,1/2-y,z
loop_
_atom_site_type_symbol
_atom_site_label
_atom_site_fract_x
_atom_site_fract_y
_atom_site_fract_z
Si Si1 0.416330 0.688187 0.163353
Si Si2 0.079971 0.704842 0.306957
Si Si3 0.329434 0.796352 0.427657
Si Si4 0.416038 0.000000 0.074806
O O1 0.500000 0.693262 0.163794
O O2 0.395117 0.500000 0.143938
O O3 0.395471 0.725786 0.237563
O O4 0.393648 0.834363 0.114475
O O5 0.083046 0.500000 0.303335
O O6 0.124163 0.764472 0.368214
O O7 0.000000 0.751332 0.315502
O O8 0.349660 0.735260 0.500000
O O9 0.250000 0.750000 0.417686
O O10 0.334817 0.000000 0.428352
O O11 0.500000 0.000000 0.074893
O O12 0.394053 0.000000 0.000000
#
# Coordination Sequence:
#
# PCOD9494510 Si02
#       4
#    16  16  16   8
#     4   9  16  26  41  62  89 122 157 193 236 280
#     4   9  16  28  46  65  89 123 160 200 242 282
#     4   9  18  31  46  65  91 124 157 195 244 288
#     4   9  16  26  40  60  91 127 157 189 233 284
#
# _framework density 17.661639999999998
#
# number of rings (size 3 to 8) (size 9 to 14) (size 15 to 20)
#    0.000    3.000    1.429    0.000    0.000    2.286 
#    0.000    5.714    0.000    0.000    0.000    8.000 
#    0.000    1.143    0.571    0.000    0.000    0.000 
#
# Total GULP energy -156011.427425 kJ/mol
# GULP energy per Si atom -5571.836694 kJ/mol
# Density = 1.762144 g / cm^3
# Si number density = 17.661640 Si / 1000 Ang^3
#
#
#
# Elastic Constant Matrix: (Units=GPa)
#
#
# Indices 1 2 3 4 5 6 
#
# 1 18.5584 19.1424 46.1818 0.0000 0.0000 0.0000
# 2 19.1424 90.3603 78.6777 0.0000 0.0000 0.0000
# 3 46.1818 78.6777 188.0001 0.0000 0.0000 0.0000
# 4 0.0000 0.0000 0.0000 5.4701 0.0000 0.0000
# 5 0.0000 0.0000 0.0000 0.0000 -6.3645 0.0000
# 6 0.0000 0.0000 0.0000 0.0000 0.0000 12.1834
#
#
#
# Elastic Compliance Matrix: (Units=1/GPa)
#
#
# Indices 1 2 3 4 5 6 
#
# 1 0.138632 0.000446 -0.034241 0.000000 0.000000 0.000000
# 2 0.000446 0.017413 -0.007397 0.000000 0.000000 0.000000
# 3 -0.034241 -0.007397 0.016826 0.000000 0.000000 0.000000
# 4 0.000000 0.000000 0.000000 0.182813 0.000000 0.000000
# 5 0.000000 0.000000 0.000000 0.000000 -0.157121 0.000000
# 6 0.000000 0.000000 0.000000 0.000000 0.000000 0.082079
#
#
# Mechanical properties :
#
#
# Convention : Reuss Voigt Hill
#
# Bulk Modulus (GPa) = 11.05142 64.99139 38.02140
# Shear Modulus (GPa) = 12.71656 12.45224 12.58440
#
# Velocity S-wave (km/s) = 2.68621 2.65815 2.67222
# Velocity P-wave (km/s) = 3.98646 6.80433 5.57632
#
# Compressibility (1/GPa) = 0.09048613
#
# Stress axis : x y z
#
# Youngs Moduli (GPa) = 7.21335 57.42907 59.43224
#
# Poissons Ratio (x) = -0.02559 2.03502
# Poissons Ratio (y) = -0.00321 0.43960
# Poissons Ratio (z) = 0.24699 0.42478
#
# Static dielectric constant tensor:
#      x y z
#    x 1.562180 0.000000 0.000000 
#    y 0.000000 1.634170 0.000000 
#    z 0.000000 0.000000 1.601510 
# 
# From -- ./inp_files/35784.got.cif
#   From: 2010.05.17/outbox.cif.g08.bks.cpg/sg65_18_cif.got.tgz:35784.got - 2010.06.03 17:01:31.
