data_PCOD9494403
_publ_section_title
;
Structure prediction by ZEFSAII (Michael W. Deem and Ramdas Pophale) SiO2 
 PCOD9494403
Probable space group: C M M M
;
_chemical_formula_sum "Si O2"
_cell_formula_units_Z 80
_cell_length_a 7.371753
_cell_length_b 28.838692
_cell_length_c 18.891492
_cell_angle_alpha 90.000000
_cell_angle_beta 90.000000
_cell_angle_gamma 90.000000
_cell_volume 4016.174669
_symmetry_space_group_name_H-M "C M M M"
_symmetry_group_IT_number 65
_symmetry_cell_setting 'orthorhombic'
loop_
_space_group_symop_operation_xyz
x,y,z
-x,-y,z
x,-y,-z
-x,y,-z
-x,-y,-z
x,y,-z
-x,y,z
x,-y,z
1/2+x,1/2+y,z
1/2-x,1/2-y,z
1/2+x,1/2-y,-z
1/2-x,1/2+y,-z
1/2-x,1/2-y,-z
1/2+x,1/2+y,-z
1/2-x,1/2+y,z
1/2+x,1/2-y,z
loop_
_atom_site_type_symbol
_atom_site_label
_atom_site_fract_x
_atom_site_fract_y
_atom_site_fract_z
Si Si1 0.283116 0.196669 0.580093
Si Si2 0.284718 0.945842 0.801442
Si Si3 0.216715 0.304827 0.152695
Si Si4 0.216847 0.305542 0.000000
Si Si5 0.720819 0.861578 0.711693
Si Si6 0.000000 0.056515 0.919406
O O1 0.211983 0.190982 0.500000
O O2 0.500000 0.191162 0.576484
O O3 0.250000 0.250000 0.602407
O O4 0.214225 0.160580 0.638465
O O5 0.500000 0.940145 0.814092
O O6 0.232677 0.913633 0.735173
O O7 0.173770 0.931399 0.871229
O O8 0.248463 0.000000 0.787974
O O9 0.250000 0.250000 0.158577
O O10 0.288005 0.321643 0.076187
O O11 0.284320 0.330548 0.222073
O O12 0.000000 0.311744 0.151368
O O13 0.250000 0.250000 0.000000
O O14 0.000000 0.313156 0.000000
O O15 0.500000 0.859345 0.709235
O O16 0.000000 0.000000 0.924022
O O17 0.000000 0.074071 0.000000
#
# Coordination Sequence:
#
# PCOD9494403 Si02
#       6
#    16  16  16   8  16   8
#     4   9  17  30  48  71 102 134 163 204 256 306
#     4   9  18  34  54  74 100 136 174 213 262 314
#     4   9  16  27  41  58  84 114 148 190 233 281
#     4   8  14  24  38  52  73 109 142 176 223 266
#     4   9  17  30  47  69  94 124 164 205 249 305
#     4   9  18  34  54  76 105 133 169 223 270 312
#
# _framework density 19.919453000000001
#
# number of rings (size 3 to 8) (size 9 to 14) (size 15 to 20)
#    0.000    3.100    0.000    0.600    0.000    0.400 
#    5.400    2.000    0.000    0.600    0.000    4.200 
#    0.000    2.400    0.000    0.200    0.000    0.000 
#
# Total GULP energy -223054.776320 kJ/mol
# GULP energy per Si atom -5576.369408 kJ/mol
# Density = 1.987412 g / cm^3
# Si number density = 19.919453 Si / 1000 Ang^3
#
#
#
# Elastic Constant Matrix: (Units=GPa)
#
#
# Indices 1 2 3 4 5 6 
#
# 1 77.0317 15.2690 27.2810 0.0000 0.0000 0.0000
# 2 15.2690 104.5285 83.5782 0.0000 0.0000 0.0000
# 3 27.2810 83.5782 153.9345 0.0000 0.0000 0.0000
# 4 0.0000 0.0000 0.0000 44.4408 0.0000 0.0000
# 5 0.0000 0.0000 0.0000 0.0000 -1.6659 0.0000
# 6 0.0000 0.0000 0.0000 0.0000 0.0000 10.1919
#
#
#
# Elastic Compliance Matrix: (Units=1/GPa)
#
#
# Indices 1 2 3 4 5 6 
#
# 1 0.013852 -0.000107 -0.002397 0.000000 0.000000 0.000000
# 2 -0.000107 0.016907 -0.009161 0.000000 0.000000 0.000000
# 3 -0.002397 -0.009161 0.011895 0.000000 0.000000 0.000000
# 4 0.000000 0.000000 0.000000 0.022502 0.000000 0.000000
# 5 0.000000 0.000000 0.000000 0.000000 -0.600270 0.000000
# 6 0.000000 0.000000 0.000000 0.000000 0.000000 0.098117
#
#
# Mechanical properties :
#
#
# Convention : Reuss Voigt Hill
#
# Bulk Modulus (GPa) = 51.74732 65.30568 58.52650
# Shear Modulus (GPa) = -12.27814 24.55114 6.13650
#
# Velocity S-wave (km/s) = -2.48541 3.51454 1.75708
# Velocity P-wave (km/s) = 4.21880 7.02320 5.79326
#
# Compressibility (1/GPa) = 0.01932467
#
# Stress axis : x y z
#
# Youngs Moduli (GPa) = 72.19334 59.14711 84.07050
#
# Poissons Ratio (x) = 0.00633 0.20150
# Poissons Ratio (y) = 0.00772 0.77014
# Poissons Ratio (z) = 0.17303 0.54183
#
# Static dielectric constant tensor:
#      x y z
#    x 1.739540 0.000000 0.000000 
#    y 0.000000 1.703600 0.000000 
#    z 0.000000 0.000000 1.713440 
# 
# From -- ./inp_files/50162.got.cif
#   From: 2010.05.17/outbox.cif.g08.bks.cpg/sg65_26_cif.got.tgz:50162.got - 2010.06.03 17:01:31.
