data_PCOD9494944
_publ_section_title
;
Structure prediction by ZEFSAII (Michael W. Deem and Ramdas Pophale) SiO2 
 PCOD9494944
Probable space group: C C C M
;
_chemical_formula_sum "Si O2"
_cell_formula_units_Z 84
_cell_length_a 9.222453
_cell_length_b 18.364887
_cell_length_c 26.360961
_cell_angle_alpha 90.000000
_cell_angle_beta 90.000000
_cell_angle_gamma 90.000000
_cell_volume 4464.737702
_symmetry_space_group_name_H-M "C C C M"
_symmetry_group_IT_number 66
_symmetry_cell_setting 'orthorhombic'
loop_
_space_group_symop_operation_xyz
x,y,z
-x,-y,z
x,-y,1/2-z
-x,y,1/2-z
-x,-y,-z
x,y,-z
-x,y,1/2+z
x,-y,1/2+z
1/2+x,1/2+y,z
1/2-x,1/2-y,z
1/2+x,1/2-y,1/2-z
1/2-x,1/2+y,1/2-z
1/2-x,1/2-y,-z
1/2+x,1/2+y,-z
1/2-x,1/2+y,1/2+z
1/2+x,1/2-y,1/2+z
loop_
_atom_site_type_symbol
_atom_site_label
_atom_site_fract_x
_atom_site_fract_y
_atom_site_fract_z
Si Si1 0.250000 0.750000 0.820598
Si Si2 0.911519 0.389865 0.000000
Si Si3 0.838464 0.970504 0.890463
Si Si4 0.500000 0.000000 0.250000
Si Si5 0.352872 0.117200 0.611354
Si Si6 0.862653 0.611669 0.175788
Si Si7 0.000000 0.729393 0.750000
Si Si8 0.225033 0.447566 0.000000
O O1 0.286224 0.820182 0.853934
O O2 0.386244 0.730289 0.785221
O O3 0.857203 0.358062 0.052923
O O4 0.847599 0.472075 0.000000
O O5 0.086143 0.394524 0.000000
O O6 0.787998 0.907219 0.851570
O O7 0.731329 0.040487 0.884080
O O8 0.816180 0.942505 0.948255
O O9 0.000000 0.000000 0.882811
O O10 0.601431 0.952248 0.214770
O O11 0.516638 0.107275 0.631415
O O12 0.901497 0.681305 0.210693
#
# Coordination Sequence:
#
# PCOD9494944 Si02
#       8
#     8   8  16   4  16  16   8   8
#     4  10  22  39  56  76 104 145 190 230 264 326
#     4   9  16  29  58  81 104 143 180 225 258 325
#     4  11  20  31  52  86 115 138 167 223 281 327
#     4  10  16  28  54  66 100 132 176 216 254 328
#     4  10  19  35  55  80 108 142 186 217 265 328
#     4  10  18  33  54  76 100 141 181 221 270 324
#     4   9  22  37  58  72 101 146 185 232 276 321
#     4   9  17  30  50  83 116 141 170 208 279 337
#
# _framework density 18.814094999999998
#
# number of rings (size 3 to 8) (size 9 to 14) (size 15 to 20)
#    0.000    2.095    3.810    0.286    0.000    1.905 
#    0.000    0.476    0.000    0.000    0.000    1.333 
#    0.000    0.000    0.000    0.000    0.000    0.000 
#
# Total GULP energy -234090.923641 kJ/mol
# GULP energy per Si atom -5573.593420 kJ/mol
# Density = 1.877127 g / cm^3
# Si number density = 18.814095 Si / 1000 Ang^3
#
#
#
# Elastic Constant Matrix: (Units=GPa)
#
#
# Indices 1 2 3 4 5 6 
#
# 1 94.1171 13.3461 46.2557 0.0000 0.0000 0.0000
# 2 13.3461 20.3873 15.6720 0.0000 0.0000 0.0000
# 3 46.2557 15.6720 128.7642 0.0000 0.0000 0.0000
# 4 0.0000 0.0000 0.0000 7.7534 0.0000 0.0000
# 5 0.0000 0.0000 0.0000 0.0000 32.9065 0.0000
# 6 0.0000 0.0000 0.0000 0.0000 0.0000 22.4672
#
#
#
# Elastic Compliance Matrix: (Units=1/GPa)
#
#
# Indices 1 2 3 4 5 6 
#
# 1 0.013463 -0.005621 -0.004152 0.000000 0.000000 0.000000
# 2 -0.005621 0.056460 -0.004852 0.000000 0.000000 0.000000
# 3 -0.004152 -0.004852 0.009848 0.000000 0.000000 0.000000
# 4 0.000000 0.000000 0.000000 0.128975 0.000000 0.000000
# 5 0.000000 0.000000 0.000000 0.000000 0.030389 0.000000
# 6 0.000000 0.000000 0.000000 0.000000 0.000000 0.044509
#
#
# Mechanical properties :
#
#
# Convention : Reuss Voigt Hill
#
# Bulk Modulus (GPa) = 19.79431 43.75736 31.77584
# Shear Modulus (GPa) = 15.16362 23.82508 19.49435
#
# Velocity S-wave (km/s) = 2.84204 3.56243 3.22243
# Velocity P-wave (km/s) = 4.61665 6.34267 5.54720
#
# Compressibility (1/GPa) = 0.05051957
#
# Stress axis : x y z
#
# Youngs Moduli (GPa) = 74.27885 17.71153 101.54084
#
# Poissons Ratio (x) = 0.09956 0.42160
# Poissons Ratio (y) = 0.41755 0.49273
# Poissons Ratio (z) = 0.30841 0.08595
#
# Static dielectric constant tensor:
#      x y z
#    x 1.670050 0.000000 0.000000 
#    y 0.000000 1.646930 0.000000 
#    z 0.000000 0.000000 1.680050 
# 
# From -- ./inp_files/55458.got.cif
#   From: 2010.05.17/outbox.cif.g08.bks.cpg/sg66_28_cif.got.tgz:55458.got - 2010.06.03 17:51:23.
