data_PCOD9494862
_publ_section_title
;
Structure prediction by ZEFSAII (Michael W. Deem and Ramdas Pophale) SiO2 
 PCOD9494862
Probable space group: C M M M
;
_chemical_formula_sum "Si O2"
_cell_formula_units_Z 36
_cell_length_a 15.000000
_cell_length_b 27.000000
_cell_length_c 9.000000
_cell_angle_alpha 90.000000
_cell_angle_beta 90.000000
_cell_angle_gamma 90.000000
_cell_volume 3645.000000
_symmetry_space_group_name_H-M "C M M M"
_symmetry_group_IT_number 65
_symmetry_cell_setting 'orthorhombic'
loop_
_space_group_symop_operation_xyz
x,y,z
-x,-y,z
x,-y,-z
-x,y,-z
-x,-y,-z
x,y,-z
-x,y,z
x,-y,z
1/2+x,1/2+y,z
1/2-x,1/2-y,z
1/2+x,1/2-y,-z
1/2-x,1/2+y,-z
1/2-x,1/2-y,-z
1/2+x,1/2+y,-z
1/2-x,1/2+y,z
1/2+x,1/2-y,z
loop_
_atom_site_type_symbol
_atom_site_label
_atom_site_fract_x
_atom_site_fract_y
_atom_site_fract_z
Si Si1 0.778817 0.909046 0.678228
Si Si2 0.894997 0.176290 0.180700
Si Si3 0.102164 0.394146 0.819523
Si Si4 0.892470 0.716053 0.166978
Si Si5 0.401274 0.500000 0.320163
O O1 0.773378 0.904466 0.500000
O O2 0.824914 0.861193 0.750479
O O3 0.682574 0.922847 0.745070
O O4 0.846928 0.952018 0.721085
O O5 0.867704 0.231498 0.234385
O O6 0.000000 0.166606 0.219966
O O7 0.891005 0.175816 0.000000
O O8 0.121265 0.337637 0.765115
O O9 0.000000 0.407377 0.781638
O O10 0.107598 0.394863 0.000000
O O11 0.000000 0.719380 0.152654
O O12 0.853950 0.714108 0.000000
O O13 0.500000 0.500000 0.257708
O O14 0.406688 0.500000 0.500000
#
# Coordination Sequence:
#
# PCOD9494862 Si02
#       5
#    16  16  16  16   8
#     4  11  22  35  54  78 103 134 174 219 266 314
#     4   9  17  31  52  78 107 138 175 217 256 301
#     4   9  18  35  57  78 104 140 178 213 250 299
#     4   7  12  26  49  74 101 138 178 208 241 295
#     4   9  20  40  60  75  98 136 175 207 250 315
#
# _framework density 9.8765429999999999
#
# number of rings (size 3 to 8) (size 9 to 14) (size 15 to 20)
#    0.000    3.000    0.000    4.000    0.000    2.667 
#    0.000    8.333    0.000   11.333    0.000    0.000 
#    0.000    0.000    0.000    0.000    0.000    0.000 
#
# Total GULP energy -200427.560031 kJ/mol
# GULP energy per Si atom -5567.432223 kJ/mol
# Density = 0.985406 g / cm^3
# Si number density = 9.876543 Si / 1000 Ang^3
#
#
#
# Elastic Constant Matrix: (Units=GPa)
#
#
# Indices 1 2 3 4 5 6 
#
# 1 155.4509 39.8008 34.9271 0.0000 0.0000 0.0000
# 2 39.8008 33.0346 3.6250 0.0000 0.0000 0.0000
# 3 34.9271 3.6250 22.5537 0.0000 0.0000 0.0000
# 4 0.0000 0.0000 0.0000 13.7309 0.0000 0.0000
# 5 0.0000 0.0000 0.0000 0.0000 26.2646 0.0000
# 6 0.0000 0.0000 0.0000 0.0000 0.0000 27.2256
#
#
#
# Elastic Compliance Matrix: (Units=1/GPa)
#
#
# Indices 1 2 3 4 5 6 
#
# 1 0.015303 -0.016121 -0.021107 0.000000 0.000000 0.000000
# 2 -0.016121 0.047798 0.017283 0.000000 0.000000 0.000000
# 3 -0.021107 0.017283 0.074248 0.000000 0.000000 0.000000
# 4 0.000000 0.000000 0.000000 0.072828 0.000000 0.000000
# 5 0.000000 0.000000 0.000000 0.000000 0.038074 0.000000
# 6 0.000000 0.000000 0.000000 0.000000 0.000000 0.036730
#
#
# Mechanical properties :
#
#
# Convention : Reuss Voigt Hill
#
# Bulk Modulus (GPa) = 10.26088 40.86058 25.56073
# Shear Modulus (GPa) = 13.99160 22.28999 18.14079
#
# Velocity S-wave (km/s) = 2.66432 3.36286 3.03376
# Velocity P-wave (km/s) = 3.83023 5.98406 5.02393
#
# Compressibility (1/GPa) = 0.09745750
#
# Stress axis : x y z
#
# Youngs Moduli (GPa) = 65.34734 20.92152 13.46843
#
# Poissons Ratio (x) = 0.33728 0.28428
# Poissons Ratio (y) = 1.05346 -0.23277
# Poissons Ratio (z) = 1.37930 -0.36158
#
# Static dielectric constant tensor:
#      x y z
#    x 1.716130 0.000000 0.000000 
#    y 0.000000 1.800330 0.000000 
#    z 0.000000 0.000000 1.676920 
# 
# From -- ./inp_files/7277.got.cif
#   From: 2010.05.17/outbox.ucp.g08.bks.cvg/sg65_4_cif.got.tgz:7277.got - 2010.06.11 16:39:57.
