data_PCOD9494679
_publ_section_title
;
Structure prediction by ZEFSAII (Michael W. Deem and Ramdas Pophale) SiO2 
 PCOD9494679
Probable space group: C M M M
;
_chemical_formula_sum "Si O2"
_cell_formula_units_Z 52
_cell_length_a 9.000000
_cell_length_b 30.000000
_cell_length_c 21.000000
_cell_angle_alpha 90.000000
_cell_angle_beta 90.000000
_cell_angle_gamma 90.000000
_cell_volume 5670.000000
_symmetry_space_group_name_H-M "C M M M"
_symmetry_group_IT_number 65
_symmetry_cell_setting 'orthorhombic'
loop_
_space_group_symop_operation_xyz
x,y,z
-x,-y,z
x,-y,-z
-x,y,-z
-x,-y,-z
x,y,-z
-x,y,z
x,-y,z
1/2+x,1/2+y,z
1/2-x,1/2-y,z
1/2+x,1/2-y,-z
1/2-x,1/2+y,-z
1/2-x,1/2-y,-z
1/2+x,1/2+y,-z
1/2-x,1/2+y,z
1/2+x,1/2-y,z
loop_
_atom_site_type_symbol
_atom_site_label
_atom_site_fract_x
_atom_site_fract_y
_atom_site_fract_z
Si Si1 0.675754 0.052074 0.237742
Si Si2 0.678700 0.607788 0.125405
Si Si3 0.179335 0.298457 0.683168
Si Si4 0.180982 0.052357 0.000000
Si Si5 0.678412 0.643880 0.571752
Si Si6 0.320332 0.701754 0.179226
Si Si7 0.677671 0.450162 0.375233
O O1 0.500000 0.060394 0.239874
O O2 0.751978 0.083302 0.186140
O O3 0.744321 0.058355 0.307644
O O4 0.700130 0.000000 0.220465
O O5 0.500000 0.604238 0.128792
O O6 0.712722 0.660687 0.131374
O O7 0.727134 0.580688 0.062358
O O8 0.250000 0.250000 0.669206
O O9 0.233789 0.330887 0.627206
O O10 0.249201 0.310841 0.752040
O O11 0.000000 0.296669 0.687087
O O12 0.000000 0.051323 0.000000
O O13 0.229231 0.000000 0.000000
O O14 0.716017 0.658733 0.500000
O O15 0.500000 0.650267 0.580798
O O16 0.709578 0.591117 0.579007
O O17 0.500000 0.706057 0.185342
O O18 0.250000 0.750000 0.162029
O O19 0.500000 0.450329 0.364882
O O20 0.720016 0.500000 0.397587
#
# Coordination Sequence:
#
# PCOD9494679 Si02
#       7
#    16  16  16   8  16  16  16
#     4  10  20  32  49  76 107 137 171 215 267 318
#     4  10  20  34  55  80 106 140 180 220 259 304
#     4  11  22  37  58  81 106 136 172 216 266 318
#     4   9  18  34  56  81 109 143 183 221 256 299
#     4  10  21  36  53  75 105 139 175 216 262 314
#     4  10  20  35  56  82 109 136 172 217 265 314
#     4   9  18  33  53  76 102 135 176 219 262 310
#
# _framework density 9.1710759999999993
#
# number of rings (size 3 to 8) (size 9 to 14) (size 15 to 20)
#    0.000    2.077    0.000    4.615    0.000    8.000 
#    0.000    2.308    0.000    1.385    0.000    3.231 
#    0.000    0.000    0.000    0.000    0.000    0.000 
#
# Total GULP energy -290210.660721 kJ/mol
# GULP energy per Si atom -5580.974245 kJ/mol
# Density = 0.915020 g / cm^3
# Si number density = 9.171076 Si / 1000 Ang^3
#
#
#
# Elastic Constant Matrix: (Units=GPa)
#
#
# Indices 1 2 3 4 5 6 
#
# 1 54.7824 42.1309 24.4992 0.0000 0.0000 0.0000
# 2 42.1309 117.5090 68.7963 0.0000 0.0000 0.0000
# 3 24.4992 68.7963 65.3526 0.0000 0.0000 0.0000
# 4 0.0000 0.0000 0.0000 26.7736 0.0000 0.0000
# 5 0.0000 0.0000 0.0000 0.0000 8.5604 0.0000
# 6 0.0000 0.0000 0.0000 0.0000 0.0000 30.1288
#
#
#
# Elastic Compliance Matrix: (Units=1/GPa)
#
#
# Indices 1 2 3 4 5 6 
#
# 1 0.025204 -0.009135 0.000167 0.000000 0.000000 0.000000
# 2 -0.009135 0.025490 -0.023408 0.000000 0.000000 0.000000
# 3 0.000167 -0.023408 0.039881 0.000000 0.000000 0.000000
# 4 0.000000 0.000000 0.000000 0.037350 0.000000 0.000000
# 5 0.000000 0.000000 0.000000 0.000000 0.116817 0.000000
# 6 0.000000 0.000000 0.000000 0.000000 0.000000 0.033191
#
#
# Mechanical properties :
#
#
# Convention : Reuss Voigt Hill
#
# Bulk Modulus (GPa) = 38.72447 56.49962 47.61205
# Shear Modulus (GPa) = 14.23319 19.90708 17.07013
#
# Velocity S-wave (km/s) = 2.78867 3.29799 3.05397
# Velocity P-wave (km/s) = 5.61489 6.73590 6.20078
#
# Compressibility (1/GPa) = 0.02582347
#
# Stress axis : x y z
#
# Youngs Moduli (GPa) = 39.67587 39.23160 25.07476
#
# Poissons Ratio (x) = 0.35837 -0.00420
# Poissons Ratio (y) = 0.36242 0.58696
# Poissons Ratio (z) = -0.00665 0.91835
#
# Static dielectric constant tensor:
#      x y z
#    x 1.610250 0.000000 0.000000 
#    y 0.000000 1.662050 0.000000 
#    z 0.000000 0.000000 1.611300 
# 
# From -- ./inp_files/60843.got.cif
#   From: 2010.05.17/outbox.ucp.g08.bks.cvg/sg65_31_cif.got.tgz:60843.got - 2010.06.11 16:39:57.
