data_PCOD9494154
_publ_section_title
;
Structure prediction by ZEFSAII (Michael W. Deem and Ramdas Pophale) SiO2 
 PCOD9494154
Probable space group: C M M M
;
_chemical_formula_sum "Si O2"
_cell_formula_units_Z 116
_cell_length_a 14.509352
_cell_length_b 19.368127
_cell_length_c 21.246073
_cell_angle_alpha 90.000000
_cell_angle_beta 90.000000
_cell_angle_gamma 90.000000
_cell_volume 5970.549598
_symmetry_space_group_name_H-M "C M M M"
_symmetry_group_IT_number 65
_symmetry_cell_setting 'orthorhombic'
loop_
_space_group_symop_operation_xyz
x,y,z
-x,-y,z
x,-y,-z
-x,y,-z
-x,-y,-z
x,y,-z
-x,y,z
x,-y,z
1/2+x,1/2+y,z
1/2-x,1/2-y,z
1/2+x,1/2-y,-z
1/2-x,1/2+y,-z
1/2-x,1/2-y,-z
1/2+x,1/2+y,-z
1/2-x,1/2+y,z
1/2+x,1/2-y,z
loop_
_atom_site_type_symbol
_atom_site_label
_atom_site_fract_x
_atom_site_fract_y
_atom_site_fract_z
Si Si1 0.736470 0.136035 0.242500
Si Si2 0.896646 0.236391 0.756613
Si Si3 0.392833 0.643317 0.423747
Si Si4 0.104469 0.238547 0.091571
Si Si5 0.725058 0.000000 0.000000
Si Si6 0.889505 0.299305 0.426455
Si Si7 0.280097 0.074529 0.368048
Si Si8 0.265493 0.132900 0.908288
O O1 0.834831 0.170552 0.258998
O O2 0.660554 0.194875 0.257291
O O3 0.720223 0.076719 0.292375
O O4 0.733337 0.121568 0.167745
O O5 0.900321 0.236295 0.832642
O O6 0.000000 0.236210 0.731123
O O7 0.386556 0.641145 0.500000
O O8 0.500000 0.631793 0.407487
O O9 0.365796 0.721796 0.404023
O O10 0.322096 0.590262 0.393766
O O11 0.171818 0.175102 0.074791
O O12 0.154028 0.311234 0.076255
O O13 0.000000 0.233555 0.068398
O O14 0.725818 0.938063 0.945545
O O15 0.863302 0.302905 0.500000
O O16 0.841271 0.362138 0.392122
O O17 0.000000 0.304888 0.422378
O O18 0.312481 0.000000 0.390902
#
# Coordination Sequence:
#
# PCOD9494154 Si02
#       8
#    16  16  16  16   4  16  16  16
#     4   9  20  35  53  82 116 148 186 237 285 337
#     4   8  15  31  58  84 103 136 187 238 288 332
#     4   9  20  40  63  85 111 146 192 245 288 328
#     4   8  15  35  63  85 109 139 180 240 291 331
#     4  12  24  38  62  84 116 168 198 224 278 346
#     4   9  20  40  63  85 111 146 192 245 288 328
#     4  12  25  35  51  84 119 157 191 223 287 350
#     4   9  20  38  58  85 114 148 196 234 282 341
#
# _framework density 19.428698000000001
#
# number of rings (size 3 to 8) (size 9 to 14) (size 15 to 20)
#    0.000    2.759    0.000    3.310    4.828    4.966 
#    0.000    4.138    0.000    0.000    0.000    0.000 
#    0.000    0.000    0.000    0.000    0.000    0.000 
#
# Total GULP energy -323100.582045 kJ/mol
# GULP energy per Si atom -5570.699690 kJ/mol
# Density = 1.938448 g / cm^3
# Si number density = 19.428698 Si / 1000 Ang^3
#
#
#
# Elastic Constant Matrix: (Units=GPa)
#
#
# Indices 1 2 3 4 5 6 
#
# 1 67.2960 5.2961 0.2297 0.0000 0.0000 0.0000
# 2 5.2961 85.9116 23.3842 0.0000 0.0000 0.0000
# 3 0.2297 23.3842 81.5218 0.0000 0.0000 0.0000
# 4 0.0000 0.0000 0.0000 51.3142 0.0000 0.0000
# 5 0.0000 0.0000 0.0000 0.0000 -21.1988 0.0000
# 6 0.0000 0.0000 0.0000 0.0000 0.0000 0.1128
#
#
#
# Elastic Compliance Matrix: (Units=1/GPa)
#
#
# Indices 1 2 3 4 5 6 
#
# 1 0.014937 -0.000986 0.000241 0.000000 0.000000 0.000000
# 2 -0.000986 0.012691 -0.003638 0.000000 0.000000 0.000000
# 3 0.000241 -0.003638 0.013309 0.000000 0.000000 0.000000
# 4 0.000000 0.000000 0.000000 0.019488 0.000000 0.000000
# 5 0.000000 0.000000 0.000000 0.000000 -0.047173 0.000000
# 6 0.000000 0.000000 0.000000 0.000000 0.000000 8.863933
#
#
# Mechanical properties :
#
#
# Convention : Reuss Voigt Hill
#
# Bulk Modulus (GPa) = 31.08420 32.50547 31.79484
# Shear Modulus (GPa) = 0.56201 19.76695 10.16448
#
# Velocity S-wave (km/s) = 0.53842 3.19315 2.28977
# Velocity P-wave (km/s) = 4.05221 5.51016 4.83644
#
# Compressibility (1/GPa) = 0.03217068
#
# Stress axis : x y z
#
# Youngs Moduli (GPa) = 66.94996 78.79744 75.13496
#
# Poissons Ratio (x) = 0.07772 -0.01809
# Poissons Ratio (y) = 0.06603 0.27330
# Poissons Ratio (z) = -0.01612 0.28663
#
# Static dielectric constant tensor:
#      x y z
#    x 1.688570 0.000000 0.000000 
#    y 0.000000 1.634440 0.000000 
#    z 0.000000 0.000000 1.728780 
# 
# From -- ./inp_files/70191.got.cif
#   From: 2010.05.17/outbox.cif.g08.bks.cpg/sg65_36_cif.got.tgz:70191.got - 2010.06.03 17:01:31.
