data_PCOD9494957
_publ_section_title
;
Structure prediction by ZEFSAII (Michael W. Deem and Ramdas Pophale) SiO2 
 PCOD9494957
Probable space group: C C C M
;
_chemical_formula_sum "Si O2"
_cell_formula_units_Z 88
_cell_length_a 9.229708
_cell_length_b 20.991615
_cell_length_c 21.625560
_cell_angle_alpha 90.000000
_cell_angle_beta 90.000000
_cell_angle_gamma 90.000000
_cell_volume 4189.876061
_symmetry_space_group_name_H-M "C C C M"
_symmetry_group_IT_number 66
_symmetry_cell_setting 'orthorhombic'
loop_
_space_group_symop_operation_xyz
x,y,z
-x,-y,z
x,-y,1/2-z
-x,y,1/2-z
-x,-y,-z
x,y,-z
-x,y,1/2+z
x,-y,1/2+z
1/2+x,1/2+y,z
1/2-x,1/2-y,z
1/2+x,1/2-y,1/2-z
1/2-x,1/2+y,1/2-z
1/2-x,1/2-y,-z
1/2+x,1/2+y,-z
1/2-x,1/2+y,1/2+z
1/2+x,1/2-y,1/2+z
loop_
_atom_site_type_symbol
_atom_site_label
_atom_site_fract_x
_atom_site_fract_y
_atom_site_fract_z
Si Si1 0.012403 0.802139 0.500000
Si Si2 0.083364 0.177817 0.635902
Si Si3 0.906697 0.675790 0.636130
Si Si4 0.614987 0.443879 0.363757
Si Si5 0.424630 0.939719 0.316570
Si Si6 0.990451 0.660581 0.500000
Si Si7 0.228752 0.916723 0.500000
O O1 0.921257 0.815872 0.561348
O O2 0.067500 0.729843 0.500000
O O3 0.145449 0.849730 0.500000
O O4 0.056242 0.251515 0.654643
O O5 0.244387 0.160409 0.659282
O O6 0.965988 0.123369 0.649147
O O7 0.900168 0.664761 0.562491
O O8 0.031642 0.627752 0.655477
O O9 0.500000 0.500000 0.355414
O O10 0.753982 0.449407 0.319828
O O11 0.676767 0.447430 0.434965
O O12 0.500000 0.937752 0.250000
O O13 0.500000 0.000000 0.350159
O O14 0.102074 0.601908 0.500000
#
# Coordination Sequence:
#
# PCOD9494957 Si02
#       7
#     8  16  16  16  16   8   8
#     4   8  16  27  50  84 132 168 201 239 289 371
#     4   9  19  34  59  91 125 166 202 250 302 362
#     4  10  19  37  60  91 127 161 209 250 302 364
#     4  11  22  40  64  93 130 165 203 252 313 376
#     4  11  25  45  64  84 116 158 207 261 310 371
#     4  10  16  29  56  89 126 169 204 243 302 361
#     4  10  18  32  54  97 129 164 204 245 306 372
#
# _framework density 21.003007
#
# number of rings (size 3 to 8) (size 9 to 14) (size 15 to 20)
#    0.000    2.000    1.818    2.182    0.000    2.909 
#    0.000   13.636    0.000    0.000    0.000    0.000 
#    0.000    0.000    0.000    0.000    0.000    0.000 
#
# Total GULP energy -245251.309075 kJ/mol
# GULP energy per Si atom -5573.893388 kJ/mol
# Density = 2.095520 g / cm^3
# Si number density = 21.003007 Si / 1000 Ang^3
#
#
#
# Elastic Constant Matrix: (Units=GPa)
#
#
# Indices 1 2 3 4 5 6 
#
# 1 153.5714 73.9201 24.1805 0.0000 0.0000 0.0000
# 2 73.9201 97.4109 10.9759 0.0000 0.0000 0.0000
# 3 24.1805 10.9759 34.6055 0.0000 0.0000 0.0000
# 4 0.0000 0.0000 0.0000 58.1884 0.0000 0.0000
# 5 0.0000 0.0000 0.0000 0.0000 17.9117 0.0000
# 6 0.0000 0.0000 0.0000 0.0000 0.0000 32.5225
#
#
#
# Elastic Compliance Matrix: (Units=1/GPa)
#
#
# Indices 1 2 3 4 5 6 
#
# 1 0.011118 -0.007842 -0.005281 0.000000 0.000000 0.000000
# 2 -0.007842 0.016177 0.000348 0.000000 0.000000 0.000000
# 3 -0.005281 0.000348 0.032477 0.000000 0.000000 0.000000
# 4 0.000000 0.000000 0.000000 0.017186 0.000000 0.000000
# 5 0.000000 0.000000 0.000000 0.000000 0.055829 0.000000
# 6 0.000000 0.000000 0.000000 0.000000 0.000000 0.030748
#
#
# Mechanical properties :
#
#
# Convention : Reuss Voigt Hill
#
# Bulk Modulus (GPa) = 29.22041 55.97120 42.59580
# Shear Modulus (GPa) = 24.93876 33.49195 29.21535
#
# Velocity S-wave (km/s) = 3.44959 3.99761 3.73367
# Velocity P-wave (km/s) = 5.45975 6.92927 6.23794
#
# Compressibility (1/GPa) = 0.03422266
#
# Stress axis : x y z
#
# Youngs Moduli (GPa) = 89.94714 61.81584 30.79107
#
# Poissons Ratio (x) = 0.48473 0.16262
# Poissons Ratio (y) = 0.70532 -0.01073
# Poissons Ratio (z) = 0.47504 -0.02153
#
# Static dielectric constant tensor:
#      x y z
#    x 1.739260 0.000000 0.000000 
#    y 0.000000 1.798700 0.000000 
#    z 0.000000 0.000000 1.456960 
# 
# From -- ./inp_files/55517.got.cif
#   From: 2010.05.17/outbox.cif.g08.bks.cpg/sg66_28_cif.got.tgz:55517.got - 2010.06.03 17:51:23.
