data_PCOD9494022
_publ_section_title
;
Structure prediction by ZEFSAII (Michael W. Deem and Ramdas Pophale) SiO2 
 PCOD9494022
Probable space group: C M M M
;
_chemical_formula_sum "Si O2"
_cell_formula_units_Z 56
_cell_length_a 11.425266
_cell_length_b 15.263010
_cell_length_c 16.877022
_cell_angle_alpha 90.000000
_cell_angle_beta 90.000000
_cell_angle_gamma 90.000000
_cell_volume 2943.081747
_symmetry_space_group_name_H-M "C M M M"
_symmetry_group_IT_number 65
_symmetry_cell_setting 'orthorhombic'
loop_
_space_group_symop_operation_xyz
x,y,z
-x,-y,z
x,-y,-z
-x,y,-z
-x,-y,-z
x,y,-z
-x,y,z
x,-y,z
1/2+x,1/2+y,z
1/2-x,1/2-y,z
1/2+x,1/2-y,-z
1/2-x,1/2+y,-z
1/2-x,1/2-y,-z
1/2+x,1/2+y,-z
1/2-x,1/2+y,z
1/2+x,1/2-y,z
loop_
_atom_site_type_symbol
_atom_site_label
_atom_site_fract_x
_atom_site_fract_y
_atom_site_fract_z
Si Si1 0.201398 0.000000 0.916442
Si Si2 0.500000 0.397053 0.738937
Si Si3 0.246900 0.851088 0.666881
Si Si4 0.861217 0.606062 0.500000
Si Si5 0.134826 0.500000 0.233549
Si Si6 0.500000 0.356367 0.912040
O O1 0.285351 0.000000 0.843212
O O2 0.115489 0.916741 0.915072
O O3 0.266667 0.000000 0.000000
O O4 0.500000 0.500000 0.765616
O O5 0.615588 0.382966 0.686498
O O6 0.500000 0.333179 0.817186
O O7 0.250000 0.750000 0.690894
O O8 0.292562 0.860403 0.577207
O O9 0.331583 0.914343 0.716343
O O10 0.858142 0.500000 0.500000
O O11 0.000000 0.631511 0.500000
O O12 0.000000 0.500000 0.213636
O O13 0.500000 0.308317 0.000000
#
# Coordination Sequence:
#
# PCOD9494022 Si02
#       6
#     8   8  16   8   8   8
#     4   9  16  31  58  91 122 160 208 257 312 367
#     4  12  20  40  66  91 125 156 210 270 304 362
#     4  12  26  42  64  96 124 164 212 258 316 373
#     4  11  23  45  67  88 127 167 206 254 316 386
#     4  12  23  41  64  90 130 172 210 256 315 379
#     4   9  14  28  59  91 119 157 205 258 313 367
#
# _framework density 19.027674000000001
#
# number of rings (size 3 to 8) (size 9 to 14) (size 15 to 20)
#    0.000    1.000    7.143    2.143    4.000    0.857 
#    0.000    1.429    0.000    3.429    0.000    0.000 
#    0.000    0.000    0.000    0.000    0.000    0.000 
#
# Total GULP energy -156057.397584 kJ/mol
# GULP energy per Si atom -5573.478485 kJ/mol
# Density = 1.898437 g / cm^3
# Si number density = 19.027674 Si / 1000 Ang^3
#
#
#
# Elastic Constant Matrix: (Units=GPa)
#
#
# Indices 1 2 3 4 5 6 
#
# 1 115.6016 9.2674 59.6560 0.0000 0.0000 0.0000
# 2 9.2674 79.2346 13.9690 0.0000 0.0000 0.0000
# 3 59.6560 13.9690 164.4761 0.0000 0.0000 0.0000
# 4 0.0000 0.0000 0.0000 41.2447 0.0000 0.0000
# 5 0.0000 0.0000 0.0000 0.0000 -31.9556 0.0000
# 6 0.0000 0.0000 0.0000 0.0000 0.0000 4.1838
#
#
#
# Elastic Compliance Matrix: (Units=1/GPa)
#
#
# Indices 1 2 3 4 5 6 
#
# 1 0.010668 -0.000574 -0.003821 0.000000 0.000000 0.000000
# 2 -0.000574 0.012844 -0.000883 0.000000 0.000000 0.000000
# 3 -0.003821 -0.000883 0.007541 0.000000 0.000000 0.000000
# 4 0.000000 0.000000 0.000000 0.024246 0.000000 0.000000
# 5 0.000000 0.000000 0.000000 0.000000 -0.031293 0.000000
# 6 0.000000 0.000000 0.000000 0.000000 0.000000 0.239019
#
#
# Mechanical properties :
#
#
# Convention : Reuss Voigt Hill
#
# Bulk Modulus (GPa) = 48.78633 58.34412 53.56523
# Shear Modulus (GPa) = 17.83099 21.12257 19.47678
#
# Velocity S-wave (km/s) = 3.06454 3.33543 3.20285
# Velocity P-wave (km/s) = 6.18201 6.75002 6.47225
#
# Compressibility (1/GPa) = 0.02049754
#
# Stress axis : x y z
#
# Youngs Moduli (GPa) = 93.73812 77.86036 132.61557
#
# Poissons Ratio (x) = 0.04471 0.50667
# Poissons Ratio (y) = 0.05382 0.11704
# Poissons Ratio (z) = 0.35813 0.06872
#
# Static dielectric constant tensor:
#      x y z
#    x 1.627260 0.000000 0.000000 
#    y 0.000000 1.700740 0.000000 
#    z 0.000000 0.000000 1.724220 
# 
# From -- ./inp_files/37499.got.cif
#   From: 2010.05.17/outbox.cif.g08.bks.cpg/sg65_19_cif.got.tgz:37499.got - 2010.06.03 17:01:31.
