data_PCOD9494810
_publ_section_title
;
Structure prediction by ZEFSAII (Michael W. Deem and Ramdas Pophale) SiO2 
 PCOD9494810
Probable space group: C M M M
;
_chemical_formula_sum "Si O2"
_cell_formula_units_Z 36
_cell_length_a 27.000000
_cell_length_b 15.000000
_cell_length_c 9.000000
_cell_angle_alpha 90.000000
_cell_angle_beta 90.000000
_cell_angle_gamma 90.000000
_cell_volume 3645.000000
_symmetry_space_group_name_H-M "C M M M"
_symmetry_group_IT_number 65
_symmetry_cell_setting 'orthorhombic'
loop_
_space_group_symop_operation_xyz
x,y,z
-x,-y,z
x,-y,-z
-x,y,-z
-x,-y,-z
x,y,-z
-x,y,z
x,-y,z
1/2+x,1/2+y,z
1/2-x,1/2-y,z
1/2+x,1/2-y,-z
1/2-x,1/2+y,-z
1/2-x,1/2-y,-z
1/2+x,1/2+y,-z
1/2-x,1/2+y,z
1/2+x,1/2-y,z
loop_
_atom_site_type_symbol
_atom_site_label
_atom_site_fract_x
_atom_site_fract_y
_atom_site_fract_z
Si Si1 0.560340 0.500000 0.331001
Si Si2 0.312845 0.399075 0.170671
Si Si3 0.305694 0.102620 0.838784
Si Si4 0.362108 0.238560 0.331782
Si Si5 0.555483 0.682555 0.824811
O O1 0.500000 0.500000 0.333188
O O2 0.578225 0.500000 0.500000
O O3 0.573963 0.409941 0.246333
O O4 0.326055 0.500000 0.212700
O O5 0.253458 0.394088 0.167208
O O6 0.331306 0.324352 0.280618
O O7 0.330017 0.383205 0.000000
O O8 0.328859 0.154550 0.703823
O O9 0.320584 0.000000 0.836973
O O10 0.320235 0.142767 0.000000
O O11 0.377619 0.245889 0.500000
O O12 0.409689 0.238934 0.227270
O O13 0.500000 0.697189 0.770698
O O14 0.554920 0.672390 0.000000
#
# Coordination Sequence:
#
# PCOD9494810 Si02
#       5
#     8  16  16  16  16
#     4   9  17  31  51  75 105 137 169 213 269 321
#     4   9  19  36  57  80 109 146 186 226 265 315
#     4   9  19  38  61  81 104 140 186 231 272 320
#     4  12  24  34  52  82 115 147 178 222 278 330
#     4  10  21  37  56  76 102 142 188 227 264 315
#
# _framework density 9.8765429999999999
#
# number of rings (size 3 to 8) (size 9 to 14) (size 15 to 20)
#    0.000    2.111    0.000    5.000    1.556    7.111 
#    0.000    2.222    0.000    0.667    0.000    4.667 
#    0.000    0.000    0.000    0.000    0.000    0.000 
#
# Total GULP energy -200827.709418 kJ/mol
# GULP energy per Si atom -5578.547484 kJ/mol
# Density = 0.985406 g / cm^3
# Si number density = 9.876543 Si / 1000 Ang^3
#
#
#
# Elastic Constant Matrix: (Units=GPa)
#
#
# Indices 1 2 3 4 5 6 
#
# 1 59.2498 35.3245 11.6186 0.0000 0.0000 0.0000
# 2 35.3245 39.8326 16.7619 0.0000 0.0000 0.0000
# 3 11.6186 16.7619 57.7820 0.0000 0.0000 0.0000
# 4 0.0000 0.0000 0.0000 39.0733 0.0000 0.0000
# 5 0.0000 0.0000 0.0000 0.0000 8.9393 0.0000
# 6 0.0000 0.0000 0.0000 0.0000 0.0000 12.5161
#
#
#
# Elastic Compliance Matrix: (Units=1/GPa)
#
#
# Indices 1 2 3 4 5 6 
#
# 1 0.036081 -0.032969 0.002309 0.000000 0.000000 0.000000
# 2 -0.032969 0.058722 -0.010405 0.000000 0.000000 0.000000
# 3 0.002309 -0.010405 0.019861 0.000000 0.000000 0.000000
# 4 0.000000 0.000000 0.000000 0.025593 0.000000 0.000000
# 5 0.000000 0.000000 0.000000 0.000000 0.111865 0.000000
# 6 0.000000 0.000000 0.000000 0.000000 0.000000 0.079897
#
#
# Mechanical properties :
#
#
# Convention : Reuss Voigt Hill
#
# Bulk Modulus (GPa) = 30.73860 31.58606 31.16233
# Shear Modulus (GPa) = 11.76489 18.31638 15.04063
#
# Velocity S-wave (km/s) = 2.44313 3.04841 2.76240
# Velocity P-wave (km/s) = 4.85322 5.33062 5.09751
#
# Compressibility (1/GPa) = 0.03253238
#
# Stress axis : x y z
#
# Youngs Moduli (GPa) = 27.71538 17.02950 50.35104
#
# Poissons Ratio (x) = 0.56145 -0.11626
# Poissons Ratio (y) = 0.91375 0.52391
# Poissons Ratio (z) = -0.06399 0.17720
#
# Static dielectric constant tensor:
#      x y z
#    x 1.763440 0.000000 0.000000 
#    y 0.000000 1.683030 0.000000 
#    z 0.000000 0.000000 1.716970 
# 
# From -- ./inp_files/7226.got.cif
#   From: 2010.05.17/outbox.ucp.g08.bks.cvg/sg65_4_cif.got.tgz:7226.got - 2010.06.11 16:39:57.
