data_PCOD9494972
_publ_section_title
;
Structure prediction by ZEFSAII (Michael W. Deem and Ramdas Pophale) SiO2 
 PCOD9494972
Probable space group: C C C M
;
_chemical_formula_sum "Si O2"
_cell_formula_units_Z 80
_cell_length_a 12.106041
_cell_length_b 11.772634
_cell_length_c 25.798458
_cell_angle_alpha 90.000000
_cell_angle_beta 90.000000
_cell_angle_gamma 90.000000
_cell_volume 3676.795973
_symmetry_space_group_name_H-M "C C C M"
_symmetry_group_IT_number 66
_symmetry_cell_setting 'orthorhombic'
loop_
_space_group_symop_operation_xyz
x,y,z
-x,-y,z
x,-y,1/2-z
-x,y,1/2-z
-x,-y,-z
x,y,-z
-x,y,1/2+z
x,-y,1/2+z
1/2+x,1/2+y,z
1/2-x,1/2-y,z
1/2+x,1/2-y,1/2-z
1/2-x,1/2+y,1/2-z
1/2-x,1/2-y,-z
1/2+x,1/2+y,-z
1/2-x,1/2+y,1/2+z
1/2+x,1/2-y,1/2+z
loop_
_atom_site_type_symbol
_atom_site_label
_atom_site_fract_x
_atom_site_fract_y
_atom_site_fract_z
Si Si1 0.382468 0.442780 0.195972
Si Si2 0.250000 0.750000 0.870687
Si Si3 0.507892 0.753204 0.660931
Si Si4 0.000000 0.500000 0.371554
Si Si5 0.438209 0.378249 0.056945
Si Si6 0.739111 0.000164 0.597196
O O1 0.500000 0.500000 0.179026
O O2 0.353458 0.500000 0.250000
O O3 0.423196 0.312522 0.198233
O O4 0.288851 0.465353 0.153804
O O5 0.360209 0.734795 0.836224
O O6 0.252123 0.636245 0.905477
O O7 0.500327 0.887510 0.662655
O O8 0.472471 0.704232 0.603800
O O9 0.109271 0.514621 0.405354
O O10 0.500000 0.500000 0.062575
O O11 0.311038 0.418599 0.061172
O O12 0.463155 0.331604 0.000000
#
# Coordination Sequence:
#
# PCOD9494972 Si02
#       6
#    16   8  16   8  16  16
#     4  10  19  35  65  88 104 144 206 248 278 348
#     4  10  16  32  59  78 118 150 184 246 287 344
#     4  10  19  38  59  88 117 157 198 240 297 364
#     4  10  24  36  62  82 128 168 184 232 320 364
#     4  10  19  35  61  90 115 152 209 264 289 335
#     4  10  19  38  56  87 115 157 195 243 295 360
#
# _framework density 21.758074000000001
#
# number of rings (size 3 to 8) (size 9 to 14) (size 15 to 20)
#    0.000    2.000    4.000    1.200    0.000    3.200 
#    0.000   10.500    0.000    0.000    0.000    0.000 
#    0.000    0.000    0.000    0.000    0.000    0.000 
#
# Total GULP energy -223000.875174 kJ/mol
# GULP energy per Si atom -5575.021879 kJ/mol
# Density = 2.170855 g / cm^3
# Si number density = 21.758074 Si / 1000 Ang^3
#
#
#
# Elastic Constant Matrix: (Units=GPa)
#
#
# Indices 1 2 3 4 5 6 
#
# 1 121.2525 31.9281 6.1846 0.0000 0.0000 0.0000
# 2 31.9281 97.3364 10.6474 0.0000 0.0000 0.0000
# 3 6.1846 10.6474 102.5615 0.0000 0.0000 0.0000
# 4 0.0000 0.0000 0.0000 7.0671 0.0000 0.0000
# 5 0.0000 0.0000 0.0000 0.0000 6.5965 0.0000
# 6 0.0000 0.0000 0.0000 0.0000 0.0000 33.4238
#
#
#
# Elastic Compliance Matrix: (Units=1/GPa)
#
#
# Indices 1 2 3 4 5 6 
#
# 1 0.009033 -0.002937 -0.000240 0.000000 0.000000 0.000000
# 2 -0.002937 0.011346 -0.001001 0.000000 0.000000 0.000000
# 3 -0.000240 -0.001001 0.009869 0.000000 0.000000 0.000000
# 4 0.000000 0.000000 0.000000 0.141501 0.000000 0.000000
# 5 0.000000 0.000000 0.000000 0.000000 0.151594 0.000000
# 6 0.000000 0.000000 0.000000 0.000000 0.000000 0.029919
#
#
# Mechanical properties :
#
#
# Convention : Reuss Voigt Hill
#
# Bulk Modulus (GPa) = 45.67646 46.51897 46.09771
# Shear Modulus (GPa) = 13.55328 27.57683 20.56506
#
# Velocity S-wave (km/s) = 2.49852 3.56396 3.07770
# Velocity P-wave (km/s) = 5.41866 6.19373 5.81911
#
# Compressibility (1/GPa) = 0.02189311
#
# Stress axis : x y z
#
# Youngs Moduli (GPa) = 110.70799 88.13357 101.33137
#
# Poissons Ratio (x) = 0.25882 0.02430
# Poissons Ratio (y) = 0.32511 0.10142
# Poissons Ratio (z) = 0.02655 0.08821
#
# Static dielectric constant tensor:
#      x y z
#    x 1.849510 0.000000 0.000000 
#    y 0.000000 1.870340 0.000000 
#    z 0.000000 0.000000 1.800380 
# 
# From -- ./inp_files/68821.got.cif
#   From: 2010.05.17/outbox.cif.g08.bks.cpg/sg66_35_cif.got.tgz:68821.got - 2010.06.03 17:51:23.
