data_PCOD9494738
_publ_section_title
;
Structure prediction by ZEFSAII (Michael W. Deem and Ramdas Pophale) SiO2 
 PCOD9494738
Probable space group: C M M M
;
_chemical_formula_sum "Si O2"
_cell_formula_units_Z 32
_cell_length_a 9.000000
_cell_length_b 18.000000
_cell_length_c 21.000000
_cell_angle_alpha 90.000000
_cell_angle_beta 90.000000
_cell_angle_gamma 90.000000
_cell_volume 3402.000000
_symmetry_space_group_name_H-M "C M M M"
_symmetry_group_IT_number 65
_symmetry_cell_setting 'orthorhombic'
loop_
_space_group_symop_operation_xyz
x,y,z
-x,-y,z
x,-y,-z
-x,y,-z
-x,-y,-z
x,y,-z
-x,y,z
x,-y,z
1/2+x,1/2+y,z
1/2-x,1/2-y,z
1/2+x,1/2-y,-z
1/2-x,1/2+y,-z
1/2-x,1/2-y,-z
1/2+x,1/2+y,-z
1/2-x,1/2+y,z
1/2+x,1/2-y,z
loop_
_atom_site_type_symbol
_atom_site_label
_atom_site_fract_x
_atom_site_fract_y
_atom_site_fract_z
Si Si1 0.671120 0.909392 0.000000
Si Si2 0.821872 0.832717 0.364686
Si Si3 0.824699 0.668893 0.240770
Si Si4 0.330425 0.589411 0.871657
Si Si5 0.322617 0.331524 0.500000
O O1 0.762421 0.885729 0.938464
O O2 0.500000 0.884410 0.000000
O O3 0.667866 0.000000 0.000000
O O4 0.750000 0.750000 0.367136
O O5 0.746379 0.867735 0.303671
O O6 0.786158 0.868759 0.432896
O O7 0.000000 0.827696 0.356906
O O8 0.750000 0.750000 0.232991
O O9 0.777386 0.619747 0.181854
O O10 0.000000 0.677322 0.247469
O O11 0.500000 0.615426 0.862308
O O12 0.332383 0.500000 0.870910
O O13 0.500000 0.320010 0.500000
O O14 0.250000 0.250000 0.500000
#
# Coordination Sequence:
#
# PCOD9494738 Si02
#       5
#     8  16  16  16   8
#     4   9  17  31  52  77 102 127 158 197 239 283
#     4   9  15  25  40  61  90 123 159 197 240 286
#     4  11  21  33  49  71 101 134 166 201 245 292
#     4  10  20  35  55  77 100 128 163 201 241 287
#     4   8  14  22  36  58  85 118 155 196 237 281
#
# _framework density 9.4062319999999993
#
# number of rings (size 3 to 8) (size 9 to 14) (size 15 to 20)
#    0.000    2.375    0.000    5.625    0.000    4.000 
#    0.000    0.625    0.000    0.000    0.000    0.875 
#    0.000    7.000    0.000    0.000    0.000    0.000 
#
# Total GULP energy -178197.485735 kJ/mol
# GULP energy per Si atom -5568.671429 kJ/mol
# Density = 0.938482 g / cm^3
# Si number density = 9.406232 Si / 1000 Ang^3
#
#
#
# Elastic Constant Matrix: (Units=GPa)
#
#
# Indices 1 2 3 4 5 6 
#
# 1 118.9956 10.2801 49.9727 0.0000 0.0000 0.0000
# 2 10.2801 -1.9269 15.0224 0.0000 0.0000 0.0000
# 3 49.9727 15.0224 176.7108 0.0000 0.0000 0.0000
# 4 0.0000 0.0000 0.0000 -5.3223 0.0000 0.0000
# 5 0.0000 0.0000 0.0000 0.0000 51.4848 0.0000
# 6 0.0000 0.0000 0.0000 0.0000 0.0000 16.6705
#
#
#
# Elastic Compliance Matrix: (Units=1/GPa)
#
#
# Indices 1 2 3 4 5 6 
#
# 1 0.008604 0.016199 -0.003810 0.000000 0.000000 0.000000
# 2 0.016199 -0.281613 0.019359 0.000000 0.000000 0.000000
# 3 -0.003810 0.019359 0.005091 0.000000 0.000000 0.000000
# 4 0.000000 0.000000 0.000000 -0.187890 0.000000 0.000000
# 5 0.000000 0.000000 0.000000 0.000000 0.019423 0.000000
# 6 0.000000 0.000000 0.000000 0.000000 0.000000 0.059986
#
#
# Mechanical properties :
#
#
# Convention : Reuss Voigt Hill
#
# Bulk Modulus (GPa) = -4.89184 49.37000 22.23908
# Shear Modulus (GPa) = -9.84185 27.13355 8.64585
#
# Velocity S-wave (km/s) = -2.28974 3.80191 2.14611
# Velocity P-wave (km/s) = 3.09782 6.75077 4.24125
#
# Compressibility (1/GPa) = -0.20442208
#
# Stress axis : x y z
#
# Youngs Moduli (GPa) = 116.21924 -3.55098 196.43526
#
# Poissons Ratio (x) = 0.05752 0.74849
# Poissons Ratio (y) = -1.88260 -3.80287
# Poissons Ratio (z) = 0.44284 0.06874
#
# Static dielectric constant tensor:
#      x y z
#    x 1.618820 0.000000 0.000000 
#    y 0.000000 1.626240 0.000000 
#    z 0.000000 0.000000 1.900360 
# 
# From -- ./inp_files/58882.got.cif
#   From: 2010.05.17/outbox.ucp.g08.bks.cvg/sg65_30_cif.got.tgz:58882.got - 2010.06.11 16:39:57.
