data_PCOD9494400
_publ_section_title
;
Structure prediction by ZEFSAII (Michael W. Deem and Ramdas Pophale) SiO2 
 PCOD9494400
Probable space group: C M M M
;
_chemical_formula_sum "Si O2"
_cell_formula_units_Z 72
_cell_length_a 7.559053
_cell_length_b 26.569402
_cell_length_c 20.715506
_cell_angle_alpha 90.000000
_cell_angle_beta 90.000000
_cell_angle_gamma 90.000000
_cell_volume 4160.492238
_symmetry_space_group_name_H-M "C M M M"
_symmetry_group_IT_number 65
_symmetry_cell_setting 'orthorhombic'
loop_
_space_group_symop_operation_xyz
x,y,z
-x,-y,z
x,-y,-z
-x,y,-z
-x,-y,-z
x,y,-z
-x,y,z
x,-y,z
1/2+x,1/2+y,z
1/2-x,1/2-y,z
1/2+x,1/2-y,-z
1/2-x,1/2+y,-z
1/2-x,1/2-y,-z
1/2+x,1/2+y,-z
1/2-x,1/2+y,z
1/2+x,1/2-y,z
loop_
_atom_site_type_symbol
_atom_site_label
_atom_site_fract_x
_atom_site_fract_y
_atom_site_fract_z
Si Si1 0.210507 0.442368 0.710334
Si Si2 0.787535 0.941598 0.430569
Si Si3 0.787893 0.692922 0.073564
Si Si4 0.284332 0.000000 0.925828
Si Si5 0.216634 0.598393 0.155022
O O1 0.281897 0.500000 0.712075
O O2 0.239249 0.419883 0.639051
O O3 0.276524 0.411129 0.771599
O O4 0.000000 0.446475 0.718471
O O5 0.726814 0.920169 0.500000
O O6 0.000000 0.942367 0.432235
O O7 0.725806 0.000000 0.428952
O O8 0.750000 0.750000 0.094242
O O9 0.722038 0.649607 0.121219
O O10 0.000000 0.687686 0.070486
O O11 0.720228 0.686559 0.000000
O O12 0.230623 0.050087 0.887637
O O13 0.500000 0.000000 0.926416
O O14 0.225445 0.000000 0.000000
O O15 0.000000 0.599457 0.155181
#
# Coordination Sequence:
#
# PCOD9494400 Si02
#       5
#    16  16  16   8  16
#     4   9  15  23  36  55  80 105 128 159 198 236
#     4   8  14  24  36  50  72 104 138 165 186 218
#     4   9  17  29  44  60  78 103 136 172 207 240
#     4   9  14  20  34  56  80 105 132 162 197 239
#     4   9  15  24  37  57  83 106 130 164 204 241
#
# _framework density 17.305644999999998
#
# number of rings (size 3 to 8) (size 9 to 14) (size 15 to 20)
#    0.000    3.222    1.111    1.333    0.000    3.111 
#    0.000    3.333    0.000    0.000    0.000    0.000 
#    0.000    6.222    0.000    2.000    0.000    3.556 
#
# Total GULP energy -200462.162620 kJ/mol
# GULP energy per Si atom -5568.393406 kJ/mol
# Density = 1.726626 g / cm^3
# Si number density = 17.305645 Si / 1000 Ang^3
#
#
#
# Elastic Constant Matrix: (Units=GPa)
#
#
# Indices 1 2 3 4 5 6 
#
# 1 37.6046 2.4310 5.0162 0.0000 0.0000 0.0000
# 2 2.4310 100.6190 88.1058 0.0000 0.0000 0.0000
# 3 5.0162 88.1058 197.3559 0.0000 0.0000 0.0000
# 4 0.0000 0.0000 0.0000 15.4453 0.0000 0.0000
# 5 0.0000 0.0000 0.0000 0.0000 137.0235 0.0000
# 6 0.0000 0.0000 0.0000 0.0000 0.0000 8.9786
#
#
#
# Elastic Compliance Matrix: (Units=1/GPa)
#
#
# Indices 1 2 3 4 5 6 
#
# 1 0.026683 -0.000083 -0.000641 0.000000 0.000000 0.000000
# 2 -0.000083 0.016317 -0.007282 0.000000 0.000000 0.000000
# 3 -0.000641 -0.007282 0.008334 0.000000 0.000000 0.000000
# 4 0.000000 0.000000 0.000000 0.064744 0.000000 0.000000
# 5 0.000000 0.000000 0.000000 0.000000 0.007298 0.000000
# 6 0.000000 0.000000 0.000000 0.000000 0.000000 0.111376
#
#
# Mechanical properties :
#
#
# Convention : Reuss Voigt Hill
#
# Bulk Modulus (GPa) = 28.31141 58.52061 43.41601
# Shear Modulus (GPa) = 19.04464 48.29125 33.66795
#
# Velocity S-wave (km/s) = 3.32096 5.28824 4.41556
# Velocity P-wave (km/s) = 5.57675 8.43662 7.15111
#
# Compressibility (1/GPa) = 0.03532144
#
# Stress axis : x y z
#
# Youngs Moduli (GPa) = 37.47645 61.28491 119.98519
#
# Poissons Ratio (x) = 0.00511 0.07691
# Poissons Ratio (y) = 0.00313 0.87378
# Poissons Ratio (z) = 0.02402 0.44630
#
# Static dielectric constant tensor:
#      x y z
#    x 1.666030 0.000000 0.000000 
#    y 0.000000 1.549930 0.000000 
#    z 0.000000 0.000000 1.639790 
# 
# From -- ./inp_files/51282.got.cif
#   From: 2010.05.17/outbox.cif.g08.bks.cpg/sg65_26_cif.got.tgz:51282.got - 2010.06.03 17:01:31.
