data_PCOD9494952
_publ_section_title
;
Structure prediction by ZEFSAII (Michael W. Deem and Ramdas Pophale) SiO2 
 PCOD9494952
Probable space group: C C C M
;
_chemical_formula_sum "Si O2"
_cell_formula_units_Z 72
_cell_length_a 14.807815
_cell_length_b 18.842913
_cell_length_c 15.295319
_cell_angle_alpha 90.000000
_cell_angle_beta 90.000000
_cell_angle_gamma 90.000000
_cell_volume 4267.736154
_symmetry_space_group_name_H-M "C C C M"
_symmetry_group_IT_number 66
_symmetry_cell_setting 'orthorhombic'
loop_
_space_group_symop_operation_xyz
x,y,z
-x,-y,z
x,-y,1/2-z
-x,y,1/2-z
-x,-y,-z
x,y,-z
-x,y,1/2+z
x,-y,1/2+z
1/2+x,1/2+y,z
1/2-x,1/2-y,z
1/2+x,1/2-y,1/2-z
1/2-x,1/2+y,1/2-z
1/2-x,1/2-y,-z
1/2+x,1/2+y,-z
1/2-x,1/2+y,1/2+z
1/2+x,1/2-y,1/2+z
loop_
_atom_site_type_symbol
_atom_site_label
_atom_site_fract_x
_atom_site_fract_y
_atom_site_fract_z
Si Si1 0.316188 0.652810 0.643014
Si Si2 0.660725 0.299533 0.166626
Si Si3 0.500000 0.205577 0.750000
Si Si4 0.613567 0.195130 0.402274
Si Si5 0.903785 0.108953 0.000000
Si Si6 0.111726 0.054547 0.000000
O O1 0.318283 0.652370 0.747820
O O2 0.378109 0.719800 0.613170
O O3 0.215274 0.669505 0.611600
O O4 0.347866 0.585701 0.589330
O O5 0.750000 0.250000 0.150804
O O6 0.576718 0.251262 0.199541
O O7 0.628594 0.345795 0.084192
O O8 0.551246 0.164489 0.673548
O O9 0.582013 0.181157 0.500000
O O10 0.009996 0.087270 0.000000
O O11 0.867241 0.028731 0.000000
#
# Coordination Sequence:
#
# PCOD9494952 Si02
#       6
#    16  16   8  16   8   8
#     4  10  17  33  55  78 103 141 187 238 267 330
#     4  11  21  37  54  82 119 149 185 239 295 343
#     4  10  20  30  54  89 109 132 184 236 292 334
#     4  10  16  29  53  83 105 134 179 231 291 316
#     4  11  25  36  50  81 118 167 183 219 287 361
#     4  11  22  37  56  79 115 153 203 220 273 363
#
# _framework density 16.870771999999999
#
# number of rings (size 3 to 8) (size 9 to 14) (size 15 to 20)
#    0.000    1.556    6.667    3.667    1.556    0.889 
#    0.000    2.222    0.000    0.000    0.000    4.667 
#    0.000    0.000    0.000    0.000    0.000    0.000 
#
# Total GULP energy -200424.414226 kJ/mol
# GULP energy per Si atom -5567.344840 kJ/mol
# Density = 1.683237 g / cm^3
# Si number density = 16.870772 Si / 1000 Ang^3
#
#
#
# Elastic Constant Matrix: (Units=GPa)
#
#
# Indices 1 2 3 4 5 6 
#
# 1 64.2525 15.7053 23.0611 0.0000 0.0000 0.0000
# 2 15.7053 44.3048 32.9113 0.0000 0.0000 0.0000
# 3 23.0611 32.9113 157.7543 0.0000 0.0000 0.0000
# 4 0.0000 0.0000 0.0000 -219.7232 0.0000 0.0000
# 5 0.0000 0.0000 0.0000 0.0000 29.2063 0.0000
# 6 0.0000 0.0000 0.0000 0.0000 0.0000 17.3212
#
#
#
# Elastic Compliance Matrix: (Units=1/GPa)
#
#
# Indices 1 2 3 4 5 6 
#
# 1 0.017328 -0.005042 -0.001481 0.000000 0.000000 0.000000
# 2 -0.005042 0.028178 -0.005141 0.000000 0.000000 0.000000
# 3 -0.001481 -0.005141 0.007628 0.000000 0.000000 0.000000
# 4 0.000000 0.000000 0.000000 -0.004551 0.000000 0.000000
# 5 0.000000 0.000000 0.000000 0.000000 0.034239 0.000000
# 6 0.000000 0.000000 0.000000 0.000000 0.000000 0.057733
#
#
# Mechanical properties :
#
#
# Convention : Reuss Voigt Hill
#
# Bulk Modulus (GPa) = 33.55259 45.51854 39.53557
# Shear Modulus (GPa) = 28.76572 -21.66355 3.55109
#
# Velocity S-wave (km/s) = 4.13372 -3.58730 1.45239
# Velocity P-wave (km/s) = 6.53565 3.14340 5.12814
#
# Compressibility (1/GPa) = 0.02980395
#
# Stress axis : x y z
#
# Youngs Moduli (GPa) = 57.71124 35.48928 131.09418
#
# Poissons Ratio (x) = 0.17894 0.19416
# Poissons Ratio (y) = 0.29099 0.67401
# Poissons Ratio (z) = 0.08548 0.18247
#
# Static dielectric constant tensor:
#      x y z
#    x 1.601960 0.000000 0.000000 
#    y 0.000000 1.547980 0.000000 
#    z 0.000000 0.000000 1.599160 
# 
# From -- ./inp_files/28009.got.cif
#   From: 2010.05.17/outbox.cif.g08.bks.cpg/sg66_15_cif.got.tgz:28009.got - 2010.06.03 17:51:23.
