data_PCOD9494121
_publ_section_title
;
Structure prediction by ZEFSAII (Michael W. Deem and Ramdas Pophale) SiO2 
 PCOD9494121
Probable space group: C M M M
;
_chemical_formula_sum "Si O2"
_cell_formula_units_Z 72
_cell_length_a 13.586876
_cell_length_b 9.434989
_cell_length_c 26.700277
_cell_angle_alpha 90.000000
_cell_angle_beta 90.000000
_cell_angle_gamma 90.000000
_cell_volume 3422.762593
_symmetry_space_group_name_H-M "C M M M"
_symmetry_group_IT_number 65
_symmetry_cell_setting 'orthorhombic'
loop_
_space_group_symop_operation_xyz
x,y,z
-x,-y,z
x,-y,-z
-x,y,-z
-x,-y,-z
x,y,-z
-x,y,z
x,-y,z
1/2+x,1/2+y,z
1/2-x,1/2-y,z
1/2+x,1/2-y,-z
1/2-x,1/2+y,-z
1/2-x,1/2-y,-z
1/2+x,1/2+y,-z
1/2-x,1/2+y,z
1/2+x,1/2-y,z
loop_
_atom_site_type_symbol
_atom_site_label
_atom_site_fract_x
_atom_site_fract_y
_atom_site_fract_z
Si Si1 0.880611 0.160274 0.000000
Si Si2 0.118336 0.500000 0.560142
Si Si3 0.119423 0.660132 0.902288
Si Si4 0.750000 0.250000 0.608887
Si Si5 0.619592 0.337951 0.805039
Si Si6 0.891420 0.833377 0.696552
O O1 0.854342 0.246104 0.950245
O O2 0.000000 0.151544 0.000000
O O3 0.842162 0.000000 0.000000
O O4 0.117376 0.500000 0.500000
O O5 0.182917 0.636400 0.578723
O O6 0.000000 0.500000 0.575737
O O7 0.157509 0.500000 0.905420
O O8 0.146320 0.737873 0.850900
O O9 0.000000 0.652312 0.902593
O O10 0.825268 0.179349 0.647971
O O11 0.500000 0.345531 0.804846
O O12 0.655835 0.500000 0.811879
O O13 0.644467 0.275621 0.750119
O O14 0.000000 0.773866 0.685905
O O15 0.899960 0.000000 0.707030
#
# Coordination Sequence:
#
# PCOD9494121 Si02
#       6
#     8   8  16   8  16  16
#     4   9  15  21  31  47  73 120 181 236 295 370
#     4  11  26  46  69 103 143 183 232 285 337 398
#     4   9  15  22  32  52  84 123 171 234 306 373
#     4  12  21  42  68  96 132 179 222 276 336 392
#     4   8  14  26  43  62  90 131 179 235 297 369
#     4   9  18  34  57  85 117 157 209 262 318 390
#
# _framework density 21.035640999999998
#
# number of rings (size 3 to 8) (size 9 to 14) (size 15 to 20)
#    0.000    2.667    1.111    3.333    0.000    4.000 
#    2.000    0.000    0.000    2.667    0.000    0.000 
#    0.000    0.889    0.000    2.222    0.000    6.000 
#
# Total GULP energy -200764.279048 kJ/mol
# GULP energy per Si atom -5576.785529 kJ/mol
# Density = 2.098776 g / cm^3
# Si number density = 21.035641 Si / 1000 Ang^3
#
#
#
# Elastic Constant Matrix: (Units=GPa)
#
#
# Indices 1 2 3 4 5 6 
#
# 1 135.4652 40.1692 48.6856 0.0000 0.0000 0.0000
# 2 40.1692 124.0027 76.7306 0.0000 0.0000 0.0000
# 3 48.6856 76.7306 170.7817 0.0000 0.0000 0.0000
# 4 0.0000 0.0000 0.0000 33.0907 0.0000 0.0000
# 5 0.0000 0.0000 0.0000 0.0000 250.4856 0.0000
# 6 0.0000 0.0000 0.0000 0.0000 0.0000 11.6377
#
#
#
# Elastic Compliance Matrix: (Units=1/GPa)
#
#
# Indices 1 2 3 4 5 6 
#
# 1 0.008486 -0.001734 -0.001640 0.000000 0.000000 0.000000
# 2 -0.001734 0.011524 -0.004683 0.000000 0.000000 0.000000
# 3 -0.001640 -0.004683 0.008427 0.000000 0.000000 0.000000
# 4 0.000000 0.000000 0.000000 0.030220 0.000000 0.000000
# 5 0.000000 0.000000 0.000000 0.000000 0.003992 0.000000
# 6 0.000000 0.000000 0.000000 0.000000 0.000000 0.085928
#
#
# Mechanical properties :
#
#
# Convention : Reuss Voigt Hill
#
# Bulk Modulus (GPa) = 81.15489 84.60227 82.87858
# Shear Modulus (GPa) = 29.62109 76.68706 53.15407
#
# Velocity S-wave (km/s) = 3.75659 6.04441 5.03224
# Velocity P-wave (km/s) = 7.58152 9.43499 8.55858
#
# Compressibility (1/GPa) = 0.01232212
#
# Stress axis : x y z
#
# Youngs Moduli (GPa) = 117.84749 86.77543 118.66494
#
# Poissons Ratio (x) = 0.15047 0.19460
# Poissons Ratio (y) = 0.20435 0.55574
# Poissons Ratio (z) = 0.19326 0.40639
#
# Static dielectric constant tensor:
#      x y z
#    x 2.217140 0.000000 0.000000 
#    y 0.000000 1.749090 0.000000 
#    z 0.000000 0.000000 1.730980 
# 
# From -- ./inp_files/74654.got.cif
#   From: 2010.05.17/outbox.cif.g08.bks.cpg/sg65_38_cif.got.tgz:74654.got - 2010.06.03 17:01:31.
