data_PCOD9494019
_publ_section_title
;
Structure prediction by ZEFSAII (Michael W. Deem and Ramdas Pophale) SiO2 
 PCOD9494019
Probable space group: C M M M
;
_chemical_formula_sum "Si O2"
_cell_formula_units_Z 42
_cell_length_a 15.314409
_cell_length_b 10.457128
_cell_length_c 12.615149
_cell_angle_alpha 90.000000
_cell_angle_beta 90.000000
_cell_angle_gamma 90.000000
_cell_volume 2020.249696
_symmetry_space_group_name_H-M "C M M M"
_symmetry_group_IT_number 65
_symmetry_cell_setting 'orthorhombic'
loop_
_space_group_symop_operation_xyz
x,y,z
-x,-y,z
x,-y,-z
-x,y,-z
-x,-y,-z
x,y,-z
-x,y,z
x,-y,z
1/2+x,1/2+y,z
1/2-x,1/2-y,z
1/2+x,1/2-y,-z
1/2-x,1/2+y,-z
1/2-x,1/2-y,-z
1/2+x,1/2+y,-z
1/2-x,1/2+y,z
1/2+x,1/2-y,z
loop_
_atom_site_type_symbol
_atom_site_label
_atom_site_fract_x
_atom_site_fract_y
_atom_site_fract_z
Si Si1 0.500000 0.500000 0.500000
Si Si2 0.106531 0.354401 0.000000
Si Si3 0.160102 0.000000 0.332239
Si Si4 0.103548 0.256142 0.229068
Si Si5 0.358968 0.000000 0.378676
O O1 0.577327 0.500000 0.409493
O O2 0.132896 0.292532 0.110823
O O3 0.136799 0.500000 0.000000
O O4 0.000000 0.355429 0.000000
O O5 0.153104 0.869510 0.266470
O O6 0.254450 0.000000 0.385139
O O7 0.114582 0.374533 0.310907
O O8 0.000000 0.227729 0.225600
O O9 0.393504 0.000000 0.500000
#
# Coordination Sequence:
#
# PCOD9494019 Si02
#       5
#     2   8   8  16   8
#     4  12  24  48  68  84 146 180 212 262 338 400
#     4   9  18  39  68  96 131 170 214 268 323 380
#     4  12  26  44  65  98 129 176 217 271 336 380
#     4  11  23  43  69  98 130 175 220 264 324 393
#     4  12  27  41  64  98 135 167 221 276 322 386
#
# _framework density 20.789508999999999
#
# number of rings (size 3 to 8) (size 9 to 14) (size 15 to 20)
#    0.000    0.952    4.762    1.714    2.667    3.810 
#    0.000    8.571    0.000    0.000    0.000    0.000 
#    0.000    0.000    0.000    0.000    0.000    0.000 
#
# Total GULP energy -117127.697789 kJ/mol
# GULP energy per Si atom -5577.509419 kJ/mol
# Density = 2.074219 g / cm^3
# Si number density = 20.789509 Si / 1000 Ang^3
#
#
#
# Elastic Constant Matrix: (Units=GPa)
#
#
# Indices 1 2 3 4 5 6 
#
# 1 64.8932 -15.9548 0.0546 0.0000 0.0000 0.0000
# 2 -15.9548 148.7040 83.2234 0.0000 0.0000 0.0000
# 3 0.0546 83.2234 202.6893 0.0000 0.0000 0.0000
# 4 0.0000 0.0000 0.0000 -68.8800 0.0000 0.0000
# 5 0.0000 0.0000 0.0000 0.0000 16.0456 0.0000
# 6 0.0000 0.0000 0.0000 0.0000 0.0000 31.8392
#
#
#
# Elastic Compliance Matrix: (Units=1/GPa)
#
#
# Indices 1 2 3 4 5 6 
#
# 1 0.015958 0.002226 -0.000918 0.000000 0.000000 0.000000
# 2 0.002226 0.009042 -0.003713 0.000000 0.000000 0.000000
# 3 -0.000918 -0.003713 0.006458 0.000000 0.000000 0.000000
# 4 0.000000 0.000000 0.000000 -0.014518 0.000000 0.000000
# 5 0.000000 0.000000 0.000000 0.000000 0.062322 0.000000
# 6 0.000000 0.000000 0.000000 0.000000 0.000000 0.031408
#
#
# Mechanical properties :
#
#
# Convention : Reuss Voigt Hill
#
# Bulk Modulus (GPa) = 37.52679 61.21474 49.37077
# Shear Modulus (GPa) = 40.20476 19.06520 29.63498
#
# Velocity S-wave (km/s) = 4.40238 3.03158 3.77965
# Velocity P-wave (km/s) = 6.62807 6.46242 6.54577
#
# Compressibility (1/GPa) = 0.02664763
#
# Stress axis : x y z
#
# Youngs Moduli (GPa) = 62.66437 110.59913 154.83526
#
# Poissons Ratio (x) = -0.24621 0.14219
# Poissons Ratio (y) = -0.13950 0.57491
# Poissons Ratio (z) = 0.05755 0.41066
#
# Static dielectric constant tensor:
#      x y z
#    x 1.731730 0.000000 0.000000 
#    y 0.000000 1.771980 0.000000 
#    z 0.000000 0.000000 1.758910 
# 
# From -- ./inp_files/25794.got.cif
#   From: 2010.05.17/outbox.cif.g08.bks.cpg/sg65_13_cif.got.tgz:25794.got - 2010.06.03 17:01:31.
