data_PCOD9494170
_publ_section_title
;
Structure prediction by ZEFSAII (Michael W. Deem and Ramdas Pophale) SiO2 
 PCOD9494170
Probable space group: C M M M
;
_chemical_formula_sum "Si O2"
_cell_formula_units_Z 72
_cell_length_a 7.860479
_cell_length_b 19.513222
_cell_length_c 24.569227
_cell_angle_alpha 90.000000
_cell_angle_beta 90.000000
_cell_angle_gamma 90.000000
_cell_volume 3768.508422
_symmetry_space_group_name_H-M "C M M M"
_symmetry_group_IT_number 65
_symmetry_cell_setting 'orthorhombic'
loop_
_space_group_symop_operation_xyz
x,y,z
-x,-y,z
x,-y,-z
-x,y,-z
-x,-y,-z
x,y,-z
-x,y,z
x,-y,z
1/2+x,1/2+y,z
1/2-x,1/2-y,z
1/2+x,1/2-y,-z
1/2-x,1/2+y,-z
1/2-x,1/2-y,-z
1/2+x,1/2+y,-z
1/2-x,1/2+y,z
1/2+x,1/2-y,z
loop_
_atom_site_type_symbol
_atom_site_label
_atom_site_fract_x
_atom_site_fract_y
_atom_site_fract_z
Si Si1 0.792450 0.079429 0.222809
Si Si2 0.205045 0.830795 0.558475
Si Si3 0.800143 0.670681 0.000000
Si Si4 0.705481 0.330042 0.677037
Si Si5 0.796124 0.077594 0.898755
O O1 0.730057 0.127180 0.271527
O O2 0.735043 0.098428 0.161668
O O3 0.000000 0.082838 0.223118
O O4 0.746988 0.000000 0.231738
O O5 0.267716 0.858904 0.500000
O O6 0.250000 0.750000 0.558430
O O7 0.266581 0.856123 0.617493
O O8 0.000000 0.837193 0.558272
O O9 0.750000 0.750000 0.000000
O O10 0.741098 0.630398 0.946347
O O11 0.000000 0.667571 0.000000
O O12 0.500000 0.335061 0.676640
O O13 0.750000 0.250000 0.682289
O O14 0.000000 0.072951 0.895165
O O15 0.733157 0.000000 0.910797
#
# Coordination Sequence:
#
# PCOD9494170 Si02
#       5
#    16  16   8  16  16
#     4   8  15  29  49  70  91 120 155 185 218 267
#     4   8  13  21  34  54  81 112 145 182 223 265
#     4  12  25  38  53  75 103 129 155 190 233 278
#     4   9  16  26  42  64  89 116 149 189 229 269
#     4   9  18  35  57  76  96 125 160 194 230 277
#
# _framework density 19.105702000000001
#
# number of rings (size 3 to 8) (size 9 to 14) (size 15 to 20)
#    0.000    3.111    0.000    2.667    0.000    2.667 
#    0.000    3.333    0.000    2.667    0.000    4.667 
#    0.000    0.000    0.000   36.000    0.000   16.889 
#
# Total GULP energy -200442.740673 kJ/mol
# GULP energy per Si atom -5567.853908 kJ/mol
# Density = 1.906222 g / cm^3
# Si number density = 19.105702 Si / 1000 Ang^3
#
#
#
# Elastic Constant Matrix: (Units=GPa)
#
#
# Indices 1 2 3 4 5 6 
#
# 1 22.2571 1.8298 12.3006 0.0000 0.0000 0.0000
# 2 1.8298 78.0674 112.9400 0.0000 0.0000 0.0000
# 3 12.3006 112.9400 248.6217 0.0000 0.0000 0.0000
# 4 0.0000 0.0000 0.0000 390.4959 0.0000 0.0000
# 5 0.0000 0.0000 0.0000 0.0000 5.0480 0.0000
# 6 0.0000 0.0000 0.0000 0.0000 0.0000 14.8663
#
#
#
# Elastic Compliance Matrix: (Units=1/GPa)
#
#
# Indices 1 2 3 4 5 6 
#
# 1 0.047347 0.006648 -0.005363 0.000000 0.000000 0.000000
# 2 0.006648 0.038299 -0.017727 0.000000 0.000000 0.000000
# 3 -0.005363 -0.017727 0.012340 0.000000 0.000000 0.000000
# 4 0.000000 0.000000 0.000000 0.002561 0.000000 0.000000
# 5 0.000000 0.000000 0.000000 0.000000 0.198100 0.000000
# 6 0.000000 0.000000 0.000000 0.000000 0.000000 0.067266
#
#
# Mechanical properties :
#
#
# Convention : Reuss Voigt Hill
#
# Bulk Modulus (GPa) = 15.36015 67.00966 41.18491
# Shear Modulus (GPa) = 11.89073 96.87377 54.38225
#
# Velocity S-wave (km/s) = 2.49743 7.12841 5.34094
# Velocity P-wave (km/s) = 4.04639 10.14404 7.72252
#
# Compressibility (1/GPa) = 0.06510353
#
# Stress axis : x y z
#
# Youngs Moduli (GPa) = 21.12089 26.11035 81.03626
#
# Poissons Ratio (x) = -0.17359 0.43456
# Poissons Ratio (y) = -0.14042 1.43651
# Poissons Ratio (z) = 0.11326 0.46285
#
# Static dielectric constant tensor:
#      x y z
#    x 1.706510 0.000000 0.000000 
#    y 0.000000 1.614650 0.000000 
#    z 0.000000 0.000000 1.812800 
# 
# From -- ./inp_files/72556.got.cif
#   From: 2010.05.17/outbox.cif.g08.bks.cpg/sg65_37_cif.got.tgz:72556.got - 2010.06.03 17:01:31.
