data_PCOD9494171
_publ_section_title
;
Structure prediction by ZEFSAII (Michael W. Deem and Ramdas Pophale) SiO2 
 PCOD9494171
Probable space group: C M M M
;
_chemical_formula_sum "Si O2"
_cell_formula_units_Z 64
_cell_length_a 8.011495
_cell_length_b 19.638415
_cell_length_c 21.590514
_cell_angle_alpha 90.000000
_cell_angle_beta 90.000000
_cell_angle_gamma 90.000000
_cell_volume 3396.901712
_symmetry_space_group_name_H-M "C M M M"
_symmetry_group_IT_number 65
_symmetry_cell_setting 'orthorhombic'
loop_
_space_group_symop_operation_xyz
x,y,z
-x,-y,z
x,-y,-z
-x,y,-z
-x,-y,-z
x,y,-z
-x,y,z
x,-y,z
1/2+x,1/2+y,z
1/2-x,1/2-y,z
1/2+x,1/2-y,-z
1/2-x,1/2+y,-z
1/2-x,1/2-y,-z
1/2+x,1/2+y,-z
1/2-x,1/2+y,z
1/2+x,1/2-y,z
loop_
_atom_site_type_symbol
_atom_site_label
_atom_site_fract_x
_atom_site_fract_y
_atom_site_fract_z
Si Si1 0.799264 0.922610 0.113268
Si Si2 0.201924 0.829109 0.365095
Si Si3 0.298943 0.329575 0.500000
Si Si4 0.303456 0.828439 0.000000
Si Si5 0.203683 0.078604 0.252450
O O1 0.754996 0.869328 0.060603
O O2 0.741270 0.903344 0.182615
O O3 0.000000 0.925935 0.115608
O O4 0.739843 0.000000 0.099345
O O5 0.250000 0.750000 0.359126
O O6 0.260312 0.855595 0.432916
O O7 0.264230 0.872615 0.307017
O O8 0.000000 0.832618 0.365127
O O9 0.500000 0.335144 0.500000
O O10 0.250000 0.250000 0.500000
O O11 0.250000 0.750000 0.000000
O O12 0.500000 0.829862 0.000000
O O13 0.000000 0.081353 0.252648
O O14 0.249727 0.000000 0.263689
#
# Coordination Sequence:
#
# PCOD9494171 Si02
#       5
#    16  16   8   8  16
#     4   9  18  35  57  76  97 129 164 195 235 290
#     4   9  16  27  44  66  92 122 158 196 234 276
#     4   8  14  24  39  61  89 121 155 192 232 274
#     4  12  25  38  53  75 103 129 157 198 243 284
#     4   8  15  29  49  71  95 124 156 190 230 278
#
# _framework density 18.840699000000001
#
# number of rings (size 3 to 8) (size 9 to 14) (size 15 to 20)
#    0.000    3.000    0.000    3.000    0.000    3.000 
#    0.000    4.375    0.000    6.000    0.000    0.000 
#    0.000   10.000    0.000    0.000    0.000    0.000 
#
# Total GULP energy -178264.318457 kJ/mol
# GULP energy per Si atom -5570.759952 kJ/mol
# Density = 1.879782 g / cm^3
# Si number density = 18.840699 Si / 1000 Ang^3
#
#
#
# Elastic Constant Matrix: (Units=GPa)
#
#
# Indices 1 2 3 4 5 6 
#
# 1 16.5578 6.5822 16.4681 0.0000 0.0000 0.0000
# 2 6.5822 103.3285 126.6788 0.0000 0.0000 0.0000
# 3 16.4681 126.6788 229.2103 0.0000 0.0000 0.0000
# 4 0.0000 0.0000 0.0000 47.0866 0.0000 0.0000
# 5 0.0000 0.0000 0.0000 0.0000 6.9845 0.0000
# 6 0.0000 0.0000 0.0000 0.0000 0.0000 18.7634
#
#
#
# Elastic Compliance Matrix: (Units=1/GPa)
#
#
# Indices 1 2 3 4 5 6 
#
# 1 0.065858 0.004980 -0.007484 0.000000 0.000000 0.000000
# 2 0.004980 0.030392 -0.017155 0.000000 0.000000 0.000000
# 3 -0.007484 -0.017155 0.014381 0.000000 0.000000 0.000000
# 4 0.000000 0.000000 0.000000 0.021237 0.000000 0.000000
# 5 0.000000 0.000000 0.000000 0.000000 0.143173 0.000000
# 6 0.000000 0.000000 0.000000 0.000000 0.000000 0.053295
#
#
# Mechanical properties :
#
#
# Convention : Reuss Voigt Hill
#
# Bulk Modulus (GPa) = 14.02243 72.06164 43.04203
# Shear Modulus (GPa) = 12.77379 27.85807 20.31593
#
# Velocity S-wave (km/s) = 2.60665 3.84944 3.28731
# Velocity P-wave (km/s) = 4.06427 7.62158 6.10765
#
# Compressibility (1/GPa) = 0.07131434
#
# Stress axis : x y z
#
# Youngs Moduli (GPa) = 15.18412 32.90345 69.53387
#
# Poissons Ratio (x) = -0.16386 0.52040
# Poissons Ratio (y) = -0.07562 1.19283
# Poissons Ratio (z) = 0.11364 0.56445
#
# Static dielectric constant tensor:
#      x y z
#    x 1.678680 0.000000 0.000000 
#    y 0.000000 1.586750 0.000000 
#    z 0.000000 0.000000 1.730810 
# 
# From -- ./inp_files/58860.got.cif
#   From: 2010.05.17/outbox.cif.g08.bks.cpg/sg65_30_cif.got.tgz:58860.got - 2010.06.03 17:01:31.
