data_PCOD9494433
_publ_section_title
;
Structure prediction by ZEFSAII (Michael W. Deem and Ramdas Pophale) SiO2 
 PCOD9494433
Probable space group: C M M M
;
_chemical_formula_sum "Si O2"
_cell_formula_units_Z 88
_cell_length_a 9.462817
_cell_length_b 19.732641
_cell_length_c 29.151970
_cell_angle_alpha 90.000000
_cell_angle_beta 90.000000
_cell_angle_gamma 90.000000
_cell_volume 5443.441557
_symmetry_space_group_name_H-M "C M M M"
_symmetry_group_IT_number 65
_symmetry_cell_setting 'orthorhombic'
loop_
_space_group_symop_operation_xyz
x,y,z
-x,-y,z
x,-y,-z
-x,y,-z
-x,-y,-z
x,y,-z
-x,y,z
x,-y,z
1/2+x,1/2+y,z
1/2-x,1/2-y,z
1/2+x,1/2-y,-z
1/2-x,1/2+y,-z
1/2-x,1/2-y,-z
1/2+x,1/2+y,-z
1/2-x,1/2+y,z
1/2+x,1/2-y,z
loop_
_atom_site_type_symbol
_atom_site_label
_atom_site_fract_x
_atom_site_fract_y
_atom_site_fract_z
Si Si1 0.169276 0.179830 0.277811
Si Si2 0.164745 0.417700 0.449154
Si Si3 0.831233 0.819961 0.172828
Si Si4 0.837424 0.417572 0.000000
Si Si5 0.330716 0.579284 0.640711
Si Si6 0.668310 0.579947 0.909393
O O1 0.250000 0.250000 0.286274
O O2 0.200381 0.158470 0.225280
O O3 0.209163 0.124012 0.315406
O O4 0.000000 0.190492 0.280960
O O5 0.212043 0.394879 0.500000
O O6 0.171452 0.500000 0.449606
O O7 0.255927 0.395609 0.405750
O O8 0.000000 0.399397 0.443555
O O9 0.750000 0.750000 0.164073
O O10 0.794672 0.876171 0.135162
O O11 0.000000 0.808320 0.170112
O O12 0.755031 0.397082 0.954019
O O13 0.836533 0.500000 0.000000
O O14 0.000000 0.395063 0.000000
O O15 0.500000 0.582926 0.635041
O O16 0.293949 0.500000 0.647757
O O17 0.500000 0.586898 0.918097
O O18 0.695868 0.500000 0.901640
#
# Coordination Sequence:
#
# PCOD9494433 Si02
#       6
#    16  16  16   8  16  16
#     4   9  18  32  48  66  90 121 153 183 221 269
#     4   8  14  25  41  62  89 119 148 179 219 267
#     4   9  18  32  49  68  91 120 152 186 224 266
#     4   9  17  29  46  69  96 123 149 181 224 269
#     4   9  17  28  44  68  94 117 145 185 227 264
#     4   9  17  30  49  71  93 119 152 187 222 263
#
# _framework density 16.166243000000001
#
# number of rings (size 3 to 8) (size 9 to 14) (size 15 to 20)
#    0.000    3.182    0.000    0.818    0.000    3.636 
#    0.000    5.909    0.000    0.545    0.000   10.182 
#    0.000    0.000    0.000    0.000    0.000    0.000 
#
# Total GULP energy -244973.145144 kJ/mol
# GULP energy per Si atom -5567.571481 kJ/mol
# Density = 1.612945 g / cm^3
# Si number density = 16.166243 Si / 1000 Ang^3
#
#
#
# Elastic Constant Matrix: (Units=GPa)
#
#
# Indices 1 2 3 4 5 6 
#
# 1 35.2080 36.6106 69.2123 0.0000 0.0000 0.0000
# 2 36.6106 54.3378 84.3135 0.0000 0.0000 0.0000
# 3 69.2123 84.3135 184.3078 0.0000 0.0000 0.0000
# 4 0.0000 0.0000 0.0000 -5.3287 0.0000 0.0000
# 5 0.0000 0.0000 0.0000 0.0000 24.6864 0.0000
# 6 0.0000 0.0000 0.0000 0.0000 0.0000 19.7672
#
#
#
# Elastic Compliance Matrix: (Units=1/GPa)
#
#
# Indices 1 2 3 4 5 6 
#
# 1 0.130483 -0.040952 -0.030266 0.000000 0.000000 0.000000
# 2 -0.040952 0.076274 -0.019514 0.000000 0.000000 0.000000
# 3 -0.030266 -0.019514 0.025718 0.000000 0.000000 0.000000
# 4 0.000000 0.000000 0.000000 -0.187663 0.000000 0.000000
# 5 0.000000 0.000000 0.000000 0.000000 0.040508 0.000000
# 6 0.000000 0.000000 0.000000 0.000000 0.000000 0.050589
#
#
# Mechanical properties :
#
#
# Convention : Reuss Voigt Hill
#
# Bulk Modulus (GPa) = 19.60340 72.68074 46.14207
# Shear Modulus (GPa) = 14.95323 13.40613 14.17968
#
# Velocity S-wave (km/s) = 3.04462 2.88282 2.96483
# Velocity P-wave (km/s) = 4.95097 7.49245 6.35016
#
# Compressibility (1/GPa) = 0.05101156
#
# Stress axis : x y z
#
# Youngs Moduli (GPa) = 7.66382 13.11068 38.88342
#
# Poissons Ratio (x) = 0.53691 1.17683
# Poissons Ratio (y) = 0.31385 0.75875
# Poissons Ratio (z) = 0.23195 0.25584
#
# Static dielectric constant tensor:
#      x y z
#    x 1.539440 0.000000 0.000000 
#    y 0.000000 1.516260 0.000000 
#    z 0.000000 0.000000 1.546160 
# 
# From -- ./inp_files/75375.got.cif
#   From: 2010.05.17/outbox.cif.g08.bks.cpg/sg65_38_cif.got.tgz:75375.got - 2010.06.03 17:01:31.
