data_PCOD9494832
_publ_section_title
;
Structure prediction by ZEFSAII (Michael W. Deem and Ramdas Pophale) SiO2 
 PCOD9494832
Probable space group: C M M M
;
_chemical_formula_sum "Si O2"
_cell_formula_units_Z 36
_cell_length_a 15.000000
_cell_length_b 9.000000
_cell_length_c 27.000000
_cell_angle_alpha 90.000000
_cell_angle_beta 90.000000
_cell_angle_gamma 90.000000
_cell_volume 3645.000000
_symmetry_space_group_name_H-M "C M M M"
_symmetry_group_IT_number 65
_symmetry_cell_setting 'orthorhombic'
loop_
_space_group_symop_operation_xyz
x,y,z
-x,-y,z
x,-y,-z
-x,y,-z
-x,-y,-z
x,y,-z
-x,y,z
x,-y,z
1/2+x,1/2+y,z
1/2-x,1/2-y,z
1/2+x,1/2-y,-z
1/2-x,1/2+y,-z
1/2-x,1/2-y,-z
1/2+x,1/2+y,-z
1/2-x,1/2+y,z
1/2+x,1/2-y,z
loop_
_atom_site_type_symbol
_atom_site_label
_atom_site_fract_x
_atom_site_fract_y
_atom_site_fract_z
Si Si1 0.396480 0.661871 0.500000
Si Si2 0.500000 0.329701 0.767767
Si Si3 0.154534 0.676159 0.599809
Si Si4 0.500000 0.330401 0.114560
Si Si5 0.345799 0.175441 0.056645
Si Si6 0.652414 0.177268 0.291773
O O1 0.349144 0.500000 0.500000
O O2 0.500000 0.638015 0.500000
O O3 0.379241 0.751652 0.549760
O O4 0.500000 0.500000 0.749858
O O5 0.500000 0.329812 0.826612
O O6 0.413451 0.246349 0.747700
O O7 0.159114 0.500000 0.593558
O O8 0.250000 0.750000 0.606004
O O9 0.111202 0.706136 0.653228
O O10 0.500000 0.500000 0.096647
O O11 0.414331 0.247445 0.093853
O O12 0.250000 0.250000 0.061766
O O13 0.338731 0.000000 0.064413
O O14 0.376851 0.200183 0.000000
O O15 0.750000 0.250000 0.287878
O O16 0.660749 0.000000 0.286648
#
# Coordination Sequence:
#
# PCOD9494832 Si02
#       6
#     8   8  16   8  16  16
#     4  11  24  37  52  81 115 149 184 223 278 341
#     4  11  25  42  62  88 121 160 202 251 303 356
#     4  10  21  38  60  83 110 144 183 230 283 344
#     4  11  24  40  59  88 123 163 206 249 302 356
#     4  10  21  38  62  92 125 163 205 249 299 354
#     4  10  22  41  65  91 117 153 199 247 302 360
#
# _framework density 9.8765429999999999
#
# number of rings (size 3 to 8) (size 9 to 14) (size 15 to 20)
#    0.000    1.667    0.000    3.667    1.556    8.889 
#    0.000    0.000    0.000    0.000    0.000    0.000 
#    0.000    0.000    0.000    0.000    0.000    0.000 
#
# Total GULP energy -200845.458884 kJ/mol
# GULP energy per Si atom -5579.040525 kJ/mol
# Density = 0.985406 g / cm^3
# Si number density = 9.876543 Si / 1000 Ang^3
#
#
#
# Elastic Constant Matrix: (Units=GPa)
#
#
# Indices 1 2 3 4 5 6 
#
# 1 83.7142 47.2857 55.0071 0.0000 0.0000 0.0000
# 2 47.2857 112.9100 78.5714 0.0000 0.0000 0.0000
# 3 55.0071 78.5714 87.2754 0.0000 0.0000 0.0000
# 4 0.0000 0.0000 0.0000 30.0544 0.0000 0.0000
# 5 0.0000 0.0000 0.0000 0.0000 -14.2220 0.0000
# 6 0.0000 0.0000 0.0000 0.0000 0.0000 7.4804
#
#
#
# Elastic Compliance Matrix: (Units=1/GPa)
#
#
# Indices 1 2 3 4 5 6 
#
# 1 0.020439 0.001083 -0.013857 0.000000 0.000000 0.000000
# 2 0.001083 0.023768 -0.022081 0.000000 0.000000 0.000000
# 3 -0.013857 -0.022081 0.040071 0.000000 0.000000 0.000000
# 4 0.000000 0.000000 0.000000 0.033273 0.000000 0.000000
# 5 0.000000 0.000000 0.000000 0.000000 -0.070314 0.000000
# 6 0.000000 0.000000 0.000000 0.000000 0.000000 0.133683
#
#
# Mechanical properties :
#
#
# Convention : Reuss Voigt Hill
#
# Bulk Modulus (GPa) = 68.64229 71.73643 70.18936
# Shear Modulus (GPa) = 19.57058 11.53158 15.55108
#
# Velocity S-wave (km/s) = 3.15105 2.41879 2.80888
# Velocity P-wave (km/s) = 6.93285 6.64802 6.79193
#
# Compressibility (1/GPa) = 0.01456828
#
# Stress axis : x y z
#
# Youngs Moduli (GPa) = 48.92632 42.07272 24.95598
#
# Poissons Ratio (x) = -0.04558 0.34582
# Poissons Ratio (y) = -0.05301 0.55105
# Poissons Ratio (z) = 0.67799 0.92900
#
# Static dielectric constant tensor:
#      x y z
#    x 2.048720 0.000000 0.000000 
#    y 0.000000 1.607110 0.000000 
#    z 0.000000 0.000000 2.079220 
# 
# From -- ./inp_files/74679.got.cif
#   From: 2010.05.17/outbox.ucp.g08.bks.cvg/sg65_38_cif.got.tgz:74679.got - 2010.06.11 16:39:57.
