data_PCOD9494069
_publ_section_title
;
Structure prediction by ZEFSAII (Michael W. Deem and Ramdas Pophale) SiO2 
 PCOD9494069
Probable space group: C M M M
;
_chemical_formula_sum "Si O2"
_cell_formula_units_Z 90
_cell_length_a 23.777999
_cell_length_b 17.699065
_cell_length_c 11.466690
_cell_angle_alpha 90.000000
_cell_angle_beta 90.000000
_cell_angle_gamma 90.000000
_cell_volume 4825.737565
_symmetry_space_group_name_H-M "C M M M"
_symmetry_group_IT_number 65
_symmetry_cell_setting 'orthorhombic'
loop_
_space_group_symop_operation_xyz
x,y,z
-x,-y,z
x,-y,-z
-x,y,-z
-x,-y,-z
x,y,-z
-x,y,z
x,-y,z
1/2+x,1/2+y,z
1/2-x,1/2-y,z
1/2+x,1/2-y,-z
1/2-x,1/2+y,-z
1/2-x,1/2-y,-z
1/2+x,1/2+y,-z
1/2-x,1/2+y,z
1/2+x,1/2-y,z
loop_
_atom_site_type_symbol
_atom_site_label
_atom_site_fract_x
_atom_site_fract_y
_atom_site_fract_z
Si Si1 0.565877 0.207017 0.749638
Si Si2 0.779215 0.409907 0.000000
Si Si3 0.910050 0.640201 0.000000
Si Si4 0.250894 0.659771 0.757289
Si Si5 0.358544 0.087208 0.360655
Si Si6 0.130295 0.150874 0.640276
Si Si7 0.436355 0.500000 0.641301
Si Si8 0.500000 0.000000 0.000000
O O1 0.500000 0.220670 0.731177
O O2 0.577903 0.189271 0.884754
O O3 0.587001 0.132140 0.682674
O O4 0.602014 0.276630 0.700603
O O5 0.750102 0.377236 0.115444
O O6 0.777067 0.500000 0.000000
O O7 0.844684 0.384350 0.000000
O O8 0.950721 0.567189 0.000000
O O9 0.250000 0.750000 0.768518
O O10 0.195456 0.629167 0.692514
O O11 0.306167 0.640681 0.683520
O O12 0.355432 0.089080 0.500000
O O13 0.359347 0.000000 0.321307
O O14 0.128821 0.160505 0.500000
O O15 0.095844 0.076076 0.674000
O O16 0.500000 0.500000 0.685271
O O17 0.438170 0.500000 0.500000
#
# Coordination Sequence:
#
# PCOD9494069 Si02
#       8
#    16   8   8  16  16  16   8   2
#     4  12  25  42  68  97 133 174 225 275 329 391
#     4  12  25  41  67  96 130 172 217 278 337 387
#     4  12  24  43  66  99 130 180 227 276 321 391
#     4  12  24  42  66  94 130 170 221 273 332 395
#     4  11  25  41  62  95 134 174 214 268 335 401
#     4  11  24  42  68  98 132 176 221 276 337 399
#     4   9  20  40  65  93 126 169 223 270 319 388
#     4  12  24  40  72  96 134 182 240 268 318 394
#
# _framework density 18.649998
#
# number of rings (size 3 to 8) (size 9 to 14) (size 15 to 20)
#    0.000    0.622    4.889    2.400    3.733    3.911 
#    0.000    0.889    0.000    0.000    0.000    2.489 
#    0.000    0.000    0.000    0.000    0.000    0.000 
#
# Total GULP energy -251414.785227 kJ/mol
# GULP energy per Si atom -5586.995227 kJ/mol
# Density = 1.860755 g / cm^3
# Si number density = 18.649998 Si / 1000 Ang^3
#
#
#
# Elastic Constant Matrix: (Units=GPa)
#
#
# Indices 1 2 3 4 5 6 
#
# 1 76.0718 32.1541 28.8677 0.0000 0.0000 0.0000
# 2 32.1541 108.1332 37.6810 0.0000 0.0000 0.0000
# 3 28.8677 37.6810 96.6115 0.0000 0.0000 0.0000
# 4 0.0000 0.0000 0.0000 44.0666 0.0000 0.0000
# 5 0.0000 0.0000 0.0000 0.0000 13.7989 0.0000
# 6 0.0000 0.0000 0.0000 0.0000 0.0000 22.0912
#
#
#
# Elastic Compliance Matrix: (Units=1/GPa)
#
#
# Indices 1 2 3 4 5 6 
#
# 1 0.015930 -0.003562 -0.003371 0.000000 0.000000 0.000000
# 2 -0.003562 0.011499 -0.003420 0.000000 0.000000 0.000000
# 3 -0.003371 -0.003420 0.012692 0.000000 0.000000 0.000000
# 4 0.000000 0.000000 0.000000 0.022693 0.000000 0.000000
# 5 0.000000 0.000000 0.000000 0.000000 0.072470 0.000000
# 6 0.000000 0.000000 0.000000 0.000000 0.000000 0.045267
#
#
# Mechanical properties :
#
#
# Convention : Reuss Voigt Hill
#
# Bulk Modulus (GPa) = 51.50824 53.13580 52.32202
# Shear Modulus (GPa) = 24.06979 28.13224 26.10101
#
# Velocity S-wave (km/s) = 3.59640 3.88807 3.74507
# Velocity P-wave (km/s) = 6.70252 6.97918 6.84225
#
# Compressibility (1/GPa) = 0.01941437
#
# Stress axis : x y z
#
# Youngs Moduli (GPa) = 62.77342 86.96337 78.79015
#
# Poissons Ratio (x) = 0.30980 0.26557
# Poissons Ratio (y) = 0.22363 0.26950
# Poissons Ratio (z) = 0.21158 0.29746
#
# Static dielectric constant tensor:
#      x y z
#    x 1.628330 0.000000 0.000000 
#    y 0.000000 1.624810 0.000000 
#    z 0.000000 0.000000 1.641840 
# 
# From -- ./inp_files/28819.got.cif
#   From: 2010.05.17/outbox.cif.g08.bks.cpg/sg65_15_cif.got.tgz:28819.got - 2010.06.03 17:01:31.
