data_PCOD9494651
_publ_section_title
;
Structure prediction by ZEFSAII (Michael W. Deem and Ramdas Pophale) SiO2 
 PCOD9494651
Probable space group: C M M M
;
_chemical_formula_sum "Si O2"
_cell_formula_units_Z 36
_cell_length_a 21.000000
_cell_length_b 21.000000
_cell_length_c 9.000000
_cell_angle_alpha 90.000000
_cell_angle_beta 90.000000
_cell_angle_gamma 90.000000
_cell_volume 3969.000000
_symmetry_space_group_name_H-M "C M M M"
_symmetry_group_IT_number 65
_symmetry_cell_setting 'orthorhombic'
loop_
_space_group_symop_operation_xyz
x,y,z
-x,-y,z
x,-y,-z
-x,y,-z
-x,-y,-z
x,y,-z
-x,y,z
x,-y,z
1/2+x,1/2+y,z
1/2-x,1/2-y,z
1/2+x,1/2-y,-z
1/2-x,1/2+y,-z
1/2-x,1/2-y,-z
1/2+x,1/2+y,-z
1/2-x,1/2+y,z
1/2+x,1/2-y,z
loop_
_atom_site_type_symbol
_atom_site_label
_atom_site_fract_x
_atom_site_fract_y
_atom_site_fract_z
Si Si1 0.200365 0.424878 0.677110
Si Si2 0.161027 0.879255 0.320338
Si Si3 0.428451 0.126771 0.822223
Si Si4 0.925911 0.000000 0.319278
Si Si5 0.428525 0.721658 0.822374
O O1 0.194779 0.414358 0.500000
O O2 0.210824 0.500000 0.701536
O O3 0.265563 0.389878 0.728208
O O4 0.133737 0.404584 0.750475
O O5 0.161565 0.877877 0.500000
O O6 0.115236 0.938201 0.274494
O O7 0.126905 0.816785 0.257879
O O8 0.500000 0.105716 0.772156
O O9 0.424503 0.202749 0.794970
O O10 0.426159 0.116873 0.000000
O O11 0.927704 0.000000 0.500000
O O12 0.000000 0.000000 0.268682
O O13 0.500000 0.700501 0.774862
O O14 0.424093 0.712190 0.000000
#
# Coordination Sequence:
#
# PCOD9494651 Si02
#       5
#    16  16  16   8  16
#     4  10  21  37  55  78 111 143 173 218 270 315
#     4  10  19  33  53  78 108 142 179 216 258 314
#     4   9  20  39  59  78 103 138 179 221 267 321
#     4   9  16  28  49  75 102 137 178 214 249 297
#     4   9  19  36  55  77 108 141 175 221 270 312
#
# _framework density 9.0702949999999998
#
# number of rings (size 3 to 8) (size 9 to 14) (size 15 to 20)
#    0.000    2.556    1.111    2.000    0.000    5.333 
#    0.000    9.444    0.000    2.000    0.000    0.000 
#    0.000    0.000    0.000    0.000    0.000    0.000 
#
# Total GULP energy -200722.252830 kJ/mol
# GULP energy per Si atom -5575.618134 kJ/mol
# Density = 0.904965 g / cm^3
# Si number density = 9.070295 Si / 1000 Ang^3
#
#
#
# Elastic Constant Matrix: (Units=GPa)
#
#
# Indices 1 2 3 4 5 6 
#
# 1 185.6543 32.9877 38.4316 0.0000 0.0000 0.0000
# 2 32.9877 14.7605 17.8898 0.0000 0.0000 0.0000
# 3 38.4316 17.8898 15.1064 0.0000 0.0000 0.0000
# 4 0.0000 0.0000 0.0000 36.1182 0.0000 0.0000
# 5 0.0000 0.0000 0.0000 0.0000 33.2474 0.0000
# 6 0.0000 0.0000 0.0000 0.0000 0.0000 41.6894
#
#
#
# Elastic Compliance Matrix: (Units=1/GPa)
#
#
# Indices 1 2 3 4 5 6 
#
# 1 0.008905 -0.017358 -0.002098 0.000000 0.000000 0.000000
# 2 -0.017358 -0.121792 0.188393 0.000000 0.000000 0.000000
# 3 -0.002098 0.188393 -0.151570 0.000000 0.000000 0.000000
# 4 0.000000 0.000000 0.000000 0.027687 0.000000 0.000000
# 5 0.000000 0.000000 0.000000 0.000000 0.030078 0.000000
# 6 0.000000 0.000000 0.000000 0.000000 0.000000 0.023987
#
#
# Mechanical properties :
#
#
# Convention : Reuss Voigt Hill
#
# Bulk Modulus (GPa) = 13.62097 43.79327 28.70712
# Shear Modulus (GPa) = -10.07848 30.62513 10.27333
#
# Velocity S-wave (km/s) = -2.35962 4.11324 2.38232
# Velocity P-wave (km/s) = 0.31796 6.83753 4.84009
#
# Compressibility (1/GPa) = 0.07341621
#
# Stress axis : x y z
#
# Youngs Moduli (GPa) = 112.29655 -8.21072 -6.59761
#
# Poissons Ratio (x) = -0.14252 -0.01384
# Poissons Ratio (y) = 1.94927 1.24295
# Poissons Ratio (z) = 0.23564 1.54684
#
# Static dielectric constant tensor:
#      x y z
#    x 1.622930 0.000000 0.000000 
#    y 0.000000 1.628040 0.000000 
#    z 0.000000 0.000000 1.613160 
# 
# From -- ./inp_files/9220.got.cif
#   From: 2010.05.17/outbox.ucp.g08.bks.cvg/sg65_5_cif.got.tgz:9220.got - 2010.06.11 16:39:57.
