data_PCOD9494731
_publ_section_title
;
Structure prediction by ZEFSAII (Michael W. Deem and Ramdas Pophale) SiO2 
 PCOD9494731
Probable space group: C M M M
;
_chemical_formula_sum "Si O2"
_cell_formula_units_Z 44
_cell_length_a 9.000000
_cell_length_b 30.000000
_cell_length_c 18.000000
_cell_angle_alpha 90.000000
_cell_angle_beta 90.000000
_cell_angle_gamma 90.000000
_cell_volume 4860.000000
_symmetry_space_group_name_H-M "C M M M"
_symmetry_group_IT_number 65
_symmetry_cell_setting 'orthorhombic'
loop_
_space_group_symop_operation_xyz
x,y,z
-x,-y,z
x,-y,-z
-x,y,-z
-x,-y,-z
x,y,-z
-x,y,z
x,-y,z
1/2+x,1/2+y,z
1/2-x,1/2-y,z
1/2+x,1/2-y,-z
1/2-x,1/2+y,-z
1/2-x,1/2-y,-z
1/2+x,1/2+y,-z
1/2-x,1/2+y,z
1/2+x,1/2-y,z
loop_
_atom_site_type_symbol
_atom_site_label
_atom_site_fract_x
_atom_site_fract_y
_atom_site_fract_z
Si Si1 0.821763 0.701464 0.220786
Si Si2 0.679574 0.700400 0.500000
Si Si3 0.819268 0.640941 0.083867
Si Si4 0.321405 0.857038 0.367776
Si Si5 0.677508 0.949897 0.164538
Si Si6 0.178238 0.050905 0.327059
O O1 0.750000 0.750000 0.231573
O O2 0.770594 0.677162 0.144898
O O3 0.792390 0.667367 0.288682
O O4 0.000000 0.707142 0.217443
O O5 0.500000 0.703024 0.500000
O O6 0.750000 0.750000 0.500000
O O7 0.740245 0.672961 0.570734
O O8 0.780171 0.591156 0.111860
O O9 0.000000 0.642427 0.083081
O O10 0.766839 0.649155 0.000000
O O11 0.500000 0.857696 0.379437
O O12 0.257791 0.907424 0.366865
O O13 0.500000 0.945507 0.180528
O O14 0.765529 0.946764 0.241792
O O15 0.700557 0.000000 0.133695
O O16 0.000000 0.056156 0.330813
O O17 0.214018 0.000000 0.353154
#
# Coordination Sequence:
#
# PCOD9494731 Si02
#       6
#    16   8  16  16  16  16
#     4  10  21  36  55  80 107 144 190 237 287 341
#     4  12  26  44  65  94 127 158 194 237 291 345
#     4   9  17  31  50  76 111 146 186 239 290 337
#     4  11  22  40  64  89 118 153 195 240 290 343
#     4   9  16  29  51  78 108 145 189 236 286 344
#     4  10  20  34  56  87 120 154 191 234 286 345
#
# _framework density 9.0534979999999994
#
# number of rings (size 3 to 8) (size 9 to 14) (size 15 to 20)
#    0.000    2.000    1.818    2.455    0.000    4.727 
#    0.000    2.273    0.000    4.364    0.000    2.545 
#    0.000    0.000    0.000    0.000    0.000    0.000 
#
# Total GULP energy -245544.086658 kJ/mol
# GULP energy per Si atom -5580.547424 kJ/mol
# Density = 0.903289 g / cm^3
# Si number density = 9.053498 Si / 1000 Ang^3
#
#
#
# Elastic Constant Matrix: (Units=GPa)
#
#
# Indices 1 2 3 4 5 6 
#
# 1 73.6025 60.6611 41.6621 0.0000 0.0000 0.0000
# 2 60.6611 171.2812 60.9133 0.0000 0.0000 0.0000
# 3 41.6621 60.9133 92.1638 0.0000 0.0000 0.0000
# 4 0.0000 0.0000 0.0000 26.7839 0.0000 0.0000
# 5 0.0000 0.0000 0.0000 0.0000 17.6794 0.0000
# 6 0.0000 0.0000 0.0000 0.0000 0.0000 32.9998
#
#
#
# Elastic Compliance Matrix: (Units=1/GPa)
#
#
# Indices 1 2 3 4 5 6 
#
# 1 0.021554 -0.005449 -0.006142 0.000000 0.000000 0.000000
# 2 -0.005449 0.009010 -0.003492 0.000000 0.000000 0.000000
# 3 -0.006142 -0.003492 0.015934 0.000000 0.000000 0.000000
# 4 0.000000 0.000000 0.000000 0.037336 0.000000 0.000000
# 5 0.000000 0.000000 0.000000 0.000000 0.056563 0.000000
# 6 0.000000 0.000000 0.000000 0.000000 0.000000 0.030303
#
#
# Mechanical properties :
#
#
# Convention : Reuss Voigt Hill
#
# Bulk Modulus (GPa) = 61.22588 73.72449 67.47519
# Shear Modulus (GPa) = 24.23529 27.08002 25.65766
#
# Velocity S-wave (km/s) = 3.66245 3.87144 3.76839
# Velocity P-wave (km/s) = 7.19524 7.79669 7.50200
#
# Compressibility (1/GPa) = 0.01633296
#
# Stress axis : x y z
#
# Youngs Moduli (GPa) = 46.39442 110.98712 62.75778
#
# Poissons Ratio (x) = 0.60482 0.38545
# Poissons Ratio (y) = 0.25282 0.21912
# Poissons Ratio (z) = 0.28495 0.38752
#
# Static dielectric constant tensor:
#      x y z
#    x 1.602510 0.000000 0.000000 
#    y 0.000000 1.617880 0.000000 
#    z 0.000000 0.000000 1.624280 
# 
# From -- ./inp_files/50401.got.cif
#   From: 2010.05.17/outbox.ucp.g08.bks.cvg/sg65_26_cif.got.tgz:50401.got - 2010.06.11 16:39:57.
