data_PCOD9494881
_publ_section_title
;
Structure prediction by ZEFSAII (Michael W. Deem and Ramdas Pophale) SiO2 
 PCOD9494881
Probable space group: C M M M
;
_chemical_formula_sum "Si O2"
_cell_formula_units_Z 32
_cell_length_a 15.000000
_cell_length_b 18.000000
_cell_length_c 12.000000
_cell_angle_alpha 90.000000
_cell_angle_beta 90.000000
_cell_angle_gamma 90.000000
_cell_volume 3240.000000
_symmetry_space_group_name_H-M "C M M M"
_symmetry_group_IT_number 65
_symmetry_cell_setting 'orthorhombic'
loop_
_space_group_symop_operation_xyz
x,y,z
-x,-y,z
x,-y,-z
-x,y,-z
-x,-y,-z
x,y,-z
-x,y,z
x,-y,z
1/2+x,1/2+y,z
1/2-x,1/2-y,z
1/2+x,1/2-y,-z
1/2-x,1/2+y,-z
1/2-x,1/2-y,-z
1/2+x,1/2+y,-z
1/2-x,1/2+y,z
1/2+x,1/2-y,z
loop_
_atom_site_type_symbol
_atom_site_label
_atom_site_fract_x
_atom_site_fract_y
_atom_site_fract_z
Si Si1 0.107176 0.910491 0.500000
Si Si2 0.895554 0.086533 0.133636
Si Si3 0.102349 0.410052 0.754168
Si Si4 0.892533 0.583377 0.000000
Si Si5 0.224036 0.163308 0.692210
O O1 0.154183 0.869569 0.396561
O O2 0.000000 0.901031 0.500000
O O3 0.124172 0.000000 0.500000
O O4 0.826238 0.140709 0.193303
O O5 0.000000 0.101580 0.162145
O O6 0.877237 0.000000 0.165750
O O7 0.887783 0.091214 0.000000
O O8 0.103458 0.500000 0.756954
O O9 0.125868 0.382270 0.880002
O O10 0.181866 0.379797 0.679883
O O11 0.000000 0.388161 0.727117
O O12 0.852460 0.500000 0.000000
O O13 0.000000 0.575639 0.000000
O O14 0.250000 0.250000 0.683725
#
# Coordination Sequence:
#
# PCOD9494881 Si02
#       5
#     8  16  16   8  16
#     4  11  25  48  75  93 109 151 216 273 314 368
#     4   9  19  38  64  92 124 168 222 272 310 352
#     4   9  18  34  56  83 117 160 208 246 283 346
#     4   7  12  26  49  76 107 149 201 243 266 307
#     4  12  25  39  60  92 132 161 196 252 325 390
#
# _framework density 9.8765429999999999
#
# number of rings (size 3 to 8) (size 9 to 14) (size 15 to 20)
#    0.000    2.250    0.000    5.625    1.750    4.500 
#    0.000    0.625    0.000    2.250    0.000    0.000 
#    0.000    0.000    0.000    0.000    0.000    0.000 
#
# Total GULP energy -178461.806550 kJ/mol
# GULP energy per Si atom -5576.931455 kJ/mol
# Density = 0.985406 g / cm^3
# Si number density = 9.876543 Si / 1000 Ang^3
#
#
#
# Elastic Constant Matrix: (Units=GPa)
#
#
# Indices 1 2 3 4 5 6 
#
# 1 159.8657 73.7829 50.9029 0.0000 0.0000 0.0000
# 2 73.7829 104.7395 33.6082 0.0000 0.0000 0.0000
# 3 50.9029 33.6082 44.6122 0.0000 0.0000 0.0000
# 4 0.0000 0.0000 0.0000 14.3705 0.0000 0.0000
# 5 0.0000 0.0000 0.0000 0.0000 40.2424 0.0000
# 6 0.0000 0.0000 0.0000 0.0000 0.0000 17.8124
#
#
#
# Elastic Compliance Matrix: (Units=1/GPa)
#
#
# Indices 1 2 3 4 5 6 
#
# 1 0.011631 -0.005190 -0.009362 0.000000 0.000000 0.000000
# 2 -0.005190 0.014907 -0.005308 0.000000 0.000000 0.000000
# 3 -0.009362 -0.005308 0.037096 0.000000 0.000000 0.000000
# 4 0.000000 0.000000 0.000000 0.069587 0.000000 0.000000
# 5 0.000000 0.000000 0.000000 0.000000 0.024849 0.000000
# 6 0.000000 0.000000 0.000000 0.000000 0.000000 0.056141
#
#
# Mechanical properties :
#
#
# Convention : Reuss Voigt Hill
#
# Bulk Modulus (GPa) = 41.81548 69.53394 55.67471
# Shear Modulus (GPa) = 19.09106 24.54663 21.81884
#
# Velocity S-wave (km/s) = 3.11221 3.52898 3.32713
# Velocity P-wave (km/s) = 5.84204 7.20298 6.55791
#
# Compressibility (1/GPa) = 0.02391459
#
# Stress axis : x y z
#
# Youngs Moduli (GPa) = 85.97462 67.08438 26.95676
#
# Poissons Ratio (x) = 0.34814 0.25237
# Poissons Ratio (y) = 0.44617 0.14310
# Poissons Ratio (z) = 0.80489 0.35611
#
# Static dielectric constant tensor:
#      x y z
#    x 1.692280 0.000000 0.000000 
#    y 0.000000 1.673700 0.000000 
#    z 0.000000 0.000000 1.808050 
# 
# From -- ./inp_files/23926.got.cif
#   From: 2010.05.17/outbox.ucp.g08.bks.cvg/sg65_12_cif.got.tgz:23926.got - 2010.06.11 16:39:57.
