data_PCOD9494612
_publ_section_title
;
Structure prediction by ZEFSAII (Michael W. Deem and Ramdas Pophale) SiO2 
 PCOD9494612
Probable space group: C M M M
;
_chemical_formula_sum "Si O2"
_cell_formula_units_Z 44
_cell_length_a 9.000000
_cell_length_b 18.000000
_cell_length_c 30.000000
_cell_angle_alpha 90.000000
_cell_angle_beta 90.000000
_cell_angle_gamma 90.000000
_cell_volume 4860.000000
_symmetry_space_group_name_H-M "C M M M"
_symmetry_group_IT_number 65
_symmetry_cell_setting 'orthorhombic'
loop_
_space_group_symop_operation_xyz
x,y,z
-x,-y,z
x,-y,-z
-x,y,-z
-x,-y,-z
x,y,-z
-x,y,z
x,-y,z
1/2+x,1/2+y,z
1/2-x,1/2-y,z
1/2+x,1/2-y,-z
1/2-x,1/2+y,-z
1/2-x,1/2-y,-z
1/2+x,1/2+y,-z
1/2-x,1/2+y,z
1/2+x,1/2-y,z
loop_
_atom_site_type_symbol
_atom_site_label
_atom_site_fract_x
_atom_site_fract_y
_atom_site_fract_z
Si Si1 0.328889 0.909289 0.500000
Si Si2 0.320180 0.331808 0.138313
Si Si3 0.828116 0.090587 0.590494
Si Si4 0.322986 0.087044 0.680757
Si Si5 0.819628 0.913733 0.951603
Si Si6 0.821030 0.668394 0.227525
O O1 0.500000 0.887959 0.500000
O O2 0.251523 0.883881 0.545446
O O3 0.321735 0.000000 0.500000
O O4 0.500000 0.329093 0.141178
O O5 0.250000 0.250000 0.136228
O O6 0.273364 0.372366 0.092956
O O7 0.252162 0.366841 0.183297
O O8 0.755571 0.117101 0.636486
O O9 0.000000 0.110209 0.589035
O O10 0.816713 0.000000 0.590847
O O11 0.500000 0.093055 0.674315
O O12 0.284710 0.126295 0.726916
O O13 0.285864 0.000000 0.684905
O O14 0.000000 0.911524 0.951796
O O15 0.776392 0.000000 0.949261
O O16 0.769649 0.883649 0.000000
O O17 0.750000 0.750000 0.231078
O O18 0.000000 0.672348 0.222533
#
# Coordination Sequence:
#
# PCOD9494612 Si02
#       6
#     8  16  16  16  16  16
#     4   9  15  23  37  57  86 125 160 189 228 279
#     4  10  19  31  49  71  94 121 154 193 234 276
#     4   9  16  25  39  62  91 120 152 193 236 275
#     4   9  18  32  48  67  92 122 155 190 233 283
#     4   8  15  29  48  70  96 125 157 192 230 274
#     4  10  20  34  51  69  93 125 158 194 234 279
#
# _framework density 9.0534979999999994
#
# number of rings (size 3 to 8) (size 9 to 14) (size 15 to 20)
#    0.000    2.818    0.000    3.545    0.000    5.818 
#    0.000    0.000    0.000    3.273    0.000    5.727 
#    0.000    0.000    0.000    0.000    0.000    0.000 
#
# Total GULP energy -245094.975972 kJ/mol
# GULP energy per Si atom -5570.340363 kJ/mol
# Density = 0.903289 g / cm^3
# Si number density = 9.053498 Si / 1000 Ang^3
#
#
#
# Elastic Constant Matrix: (Units=GPa)
#
#
# Indices 1 2 3 4 5 6 
#
# 1 57.4042 23.8197 85.0570 0.0000 0.0000 0.0000
# 2 23.8197 17.3492 53.4404 0.0000 0.0000 0.0000
# 3 85.0570 53.4404 244.8838 0.0000 0.0000 0.0000
# 4 0.0000 0.0000 0.0000 69.9347 0.0000 0.0000
# 5 0.0000 0.0000 0.0000 0.0000 25.5343 0.0000
# 6 0.0000 0.0000 0.0000 0.0000 0.0000 10.1278
#
#
#
# Elastic Compliance Matrix: (Units=1/GPa)
#
#
# Indices 1 2 3 4 5 6 
#
# 1 0.043479 -0.040198 -0.006330 0.000000 0.000000 0.000000
# 2 -0.040198 0.213002 -0.032521 0.000000 0.000000 0.000000
# 3 -0.006330 -0.032521 0.013379 0.000000 0.000000 0.000000
# 4 0.000000 0.000000 0.000000 0.014299 0.000000 0.000000
# 5 0.000000 0.000000 0.000000 0.000000 0.039163 0.000000
# 6 0.000000 0.000000 0.000000 0.000000 0.000000 0.098738
#
#
# Mechanical properties :
#
#
# Convention : Reuss Voigt Hill
#
# Bulk Modulus (GPa) = 8.94745 71.58573 40.26659
# Shear Modulus (GPa) = 8.09834 31.60735 19.85285
#
# Velocity S-wave (km/s) = 2.11712 4.18256 3.31481
# Velocity P-wave (km/s) = 3.30582 7.93383 6.07759
#
# Compressibility (1/GPa) = 0.11176366
#
# Stress axis : x y z
#
# Youngs Moduli (GPa) = 22.99972 4.69480 74.74415
#
# Poissons Ratio (x) = 0.18872 0.47309
# Poissons Ratio (y) = 0.92454 2.43074
# Poissons Ratio (z) = 0.14558 0.15268
#
# Static dielectric constant tensor:
#      x y z
#    x 1.605100 0.000000 0.000000 
#    y 0.000000 1.616130 0.000000 
#    z 0.000000 0.000000 1.655490 
# 
# From -- ./inp_files/76576.got.cif
#   From: 2010.05.17/outbox.ucp.g08.bks.cvg/sg65_39_cif.got.tgz:76576.got - 2010.06.11 16:39:57.
