data_PCOD9494330
_publ_section_title
;
Structure prediction by ZEFSAII (Michael W. Deem and Ramdas Pophale) SiO2 
 PCOD9494330
Probable space group: C M M M
;
_chemical_formula_sum "Si O2"
_cell_formula_units_Z 80
_cell_length_a 19.324083
_cell_length_b 28.176442
_cell_length_c 7.415273
_cell_angle_alpha 90.000000
_cell_angle_beta 90.000000
_cell_angle_gamma 90.000000
_cell_volume 4037.496791
_symmetry_space_group_name_H-M "C M M M"
_symmetry_group_IT_number 65
_symmetry_cell_setting 'orthorhombic'
loop_
_space_group_symop_operation_xyz
x,y,z
-x,-y,z
x,-y,-z
-x,y,-z
-x,-y,-z
x,y,-z
-x,y,z
x,-y,z
1/2+x,1/2+y,z
1/2-x,1/2-y,z
1/2+x,1/2-y,-z
1/2-x,1/2+y,-z
1/2-x,1/2-y,-z
1/2+x,1/2+y,-z
1/2-x,1/2+y,z
1/2+x,1/2-y,z
loop_
_atom_site_type_symbol
_atom_site_label
_atom_site_fract_x
_atom_site_fract_y
_atom_site_fract_z
Si Si1 0.422593 0.848256 0.780345
Si Si2 0.355572 0.947239 0.780025
Si Si3 0.717349 0.799394 0.220406
Si Si4 0.281177 0.603087 0.786658
Si Si5 0.076292 0.053973 0.716213
O O1 0.500000 0.836395 0.720473
O O2 0.401546 0.901959 0.725670
O O3 0.361163 0.812640 0.724928
O O4 0.422467 0.848153 0.000000
O O5 0.277163 0.933972 0.721599
O O6 0.375350 0.000000 0.718805
O O7 0.357705 0.948297 0.000000
O O8 0.750000 0.750000 0.281981
O O9 0.762995 0.844471 0.280791
O O10 0.717406 0.798036 0.000000
O O11 0.358819 0.586350 0.759484
O O12 0.269664 0.605302 0.000000
O O13 0.073312 0.051832 0.500000
O O14 0.000000 0.069583 0.779803
O O15 0.088086 0.000000 0.781621
#
# Coordination Sequence:
#
# PCOD9494330 Si02
#       5
#    16  16  16  16  16
#     4   8  13  20  30  46  70 101 132 157 188 235
#     4   8  13  20  31  50  75  99 122 153 194 234
#     4   8  14  25  39  55  79 109 137 169 210 248
#     4   9  16  26  42  62  82 106 138 174 208 245
#     4   9  18  31  44  59  83 114 142 170 211 259
#
# _framework density 19.814256
#
# number of rings (size 3 to 8) (size 9 to 14) (size 15 to 20)
#    0.000    3.600    0.000    3.600    0.000    2.000 
#    0.000    4.000    0.000    4.200    0.000    0.000 
#    0.000   12.800    0.000   44.000    0.000   36.800 
#
# Total GULP energy -222879.448110 kJ/mol
# GULP energy per Si atom -5571.986203 kJ/mol
# Density = 1.976916 g / cm^3
# Si number density = 19.814256 Si / 1000 Ang^3
#
#
#
# Elastic Constant Matrix: (Units=GPa)
#
#
# Indices 1 2 3 4 5 6 
#
# 1 180.4761 91.9329 -3.4975 0.0000 0.0000 0.0000
# 2 91.9329 132.5382 4.8410 0.0000 0.0000 0.0000
# 3 -3.4975 4.8410 58.8023 0.0000 0.0000 0.0000
# 4 0.0000 0.0000 0.0000 2.5050 0.0000 0.0000
# 5 0.0000 0.0000 0.0000 0.0000 38.6882 0.0000
# 6 0.0000 0.0000 0.0000 0.0000 0.0000 15.4339
#
#
#
# Elastic Compliance Matrix: (Units=1/GPa)
#
#
# Indices 1 2 3 4 5 6 
#
# 1 0.008628 -0.006021 0.001009 0.000000 0.000000 0.000000
# 2 -0.006021 0.011770 -0.001327 0.000000 0.000000 0.000000
# 3 0.001009 -0.001327 0.017175 0.000000 0.000000 0.000000
# 4 0.000000 0.000000 0.000000 0.399204 0.000000 0.000000
# 5 0.000000 0.000000 0.000000 0.000000 0.025848 0.000000
# 6 0.000000 0.000000 0.000000 0.000000 0.000000 0.064792
#
#
# Mechanical properties :
#
#
# Convention : Reuss Voigt Hill
#
# Bulk Modulus (GPa) = 40.17028 62.04104 51.10566
# Shear Modulus (GPa) = 9.11753 29.89476 19.50615
#
# Velocity S-wave (km/s) = 2.14744 3.88848 3.14100
# Velocity P-wave (km/s) = 5.14452 7.17911 6.24523
#
# Compressibility (1/GPa) = 0.02489403
#
# Stress axis : x y z
#
# Youngs Moduli (GPa) = 115.90668 84.96163 58.22280
#
# Poissons Ratio (x) = 0.51158 -0.05874
# Poissons Ratio (y) = 0.69790 0.07727
# Poissons Ratio (z) = -0.11694 0.11275
#
# Static dielectric constant tensor:
#      x y z
#    x 1.706310 0.000000 0.000000 
#    y 0.000000 1.676720 0.000000 
#    z 0.000000 0.000000 1.754800 
# 
# From -- ./inp_files/9864.got.cif
#   From: 2010.05.17/outbox.cif.g08.bks.cpg/sg65_5_cif.got.tgz:9864.got - 2010.06.03 17:01:31.
