data_PCOD9494603
_publ_section_title
;
Structure prediction by ZEFSAII (Michael W. Deem and Ramdas Pophale) SiO2 
 PCOD9494603
Probable space group: C M M M
;
_chemical_formula_sum "Si O2"
_cell_formula_units_Z 46
_cell_length_a 24.000000
_cell_length_b 9.000000
_cell_length_c 24.000000
_cell_angle_alpha 90.000000
_cell_angle_beta 90.000000
_cell_angle_gamma 90.000000
_cell_volume 5184.000000
_symmetry_space_group_name_H-M "C M M M"
_symmetry_group_IT_number 65
_symmetry_cell_setting 'orthorhombic'
loop_
_space_group_symop_operation_xyz
x,y,z
-x,-y,z
x,-y,-z
-x,y,-z
-x,-y,-z
x,y,-z
-x,y,z
x,-y,z
1/2+x,1/2+y,z
1/2-x,1/2-y,z
1/2+x,1/2-y,-z
1/2-x,1/2+y,-z
1/2-x,1/2-y,-z
1/2+x,1/2+y,-z
1/2-x,1/2+y,z
1/2+x,1/2-y,z
loop_
_atom_site_type_symbol
_atom_site_label
_atom_site_fract_x
_atom_site_fract_y
_atom_site_fract_z
Si Si1 0.191371 0.677591 0.103429
Si Si2 0.111441 0.825894 0.178121
Si Si3 0.432397 0.668373 0.388804
Si Si4 0.123297 0.669446 0.000000
Si Si5 0.066973 0.331107 0.721077
Si Si6 0.000000 0.166444 0.124125
Si Si7 0.068103 0.328305 0.500000
Si Si8 0.000000 0.757898 0.000000
O O1 0.194552 0.500000 0.104642
O O2 0.250000 0.750000 0.091226
O O3 0.165725 0.738496 0.159995
O O4 0.149176 0.735410 0.055582
O O5 0.095684 0.790613 0.240677
O O6 0.057219 0.762903 0.144780
O O7 0.118178 0.000000 0.166229
O O8 0.500000 0.661036 0.390251
O O9 0.412873 0.500000 0.378575
O O10 0.418841 0.786253 0.341275
O O11 0.413322 0.736716 0.446554
O O12 0.142747 0.500000 0.000000
O O13 0.057401 0.670422 0.000000
O O14 0.082936 0.500000 0.735219
O O15 0.000000 0.320161 0.728129
O O16 0.000000 0.157092 0.058007
O O17 0.000000 0.000000 0.148833
O O18 0.085620 0.500000 0.500000
O O19 0.000000 0.330020 0.500000
#
# Coordination Sequence:
#
# PCOD9494603 Si02
#       8
#    16  16  16   8  16   8   8   4
#     4  11  23  41  58  78 100 131 169 208 252 303
#     4  11  21  36  54  76 101 132 166 208 254 306
#     4   9  16  25  38  57  84 122 165 209 250 296
#     4  10  22  36  56  80 106 132 163 202 250 304
#     4  10  19  30  45  68  96 129 165 207 254 303
#     4  10  21  33  51  76 105 132 163 200 253 309
#     4   9  15  23  35  53  81 119 164 211 250 293
#     4  12  18  38  54  82 108 134 162 202 258 304
#
# _framework density 8.8734570000000001
#
# number of rings (size 3 to 8) (size 9 to 14) (size 15 to 20)
#    0.000    1.826    2.609    2.870    0.000    3.826 
#    0.000    1.304    0.000    0.000    0.000    0.000 
#    0.000    0.000    0.000    0.783    0.000   11.043 
#
# Total GULP energy -256070.534491 kJ/mol
# GULP energy per Si atom -5566.750750 kJ/mol
# Density = 0.885326 g / cm^3
# Si number density = 8.873457 Si / 1000 Ang^3
#
#
#
# Elastic Constant Matrix: (Units=GPa)
#
#
# Indices 1 2 3 4 5 6 
#
# 1 57.7742 17.4368 20.8498 0.0000 0.0000 0.0000
# 2 17.4368 65.1189 1.7154 0.0000 0.0000 0.0000
# 3 20.8498 1.7154 69.0166 0.0000 0.0000 0.0000
# 4 0.0000 0.0000 0.0000 22.2718 0.0000 0.0000
# 5 0.0000 0.0000 0.0000 0.0000 -11.5376 0.0000
# 6 0.0000 0.0000 0.0000 0.0000 0.0000 28.1568
#
#
#
# Elastic Compliance Matrix: (Units=1/GPa)
#
#
# Indices 1 2 3 4 5 6 
#
# 1 0.021242 -0.005522 -0.006280 0.000000 0.000000 0.000000
# 2 -0.005522 0.016802 0.001251 0.000000 0.000000 0.000000
# 3 -0.006280 0.001251 0.016355 0.000000 0.000000 0.000000
# 4 0.000000 0.000000 0.000000 0.044900 0.000000 0.000000
# 5 0.000000 0.000000 0.000000 0.000000 -0.086673 0.000000
# 6 0.000000 0.000000 0.000000 0.000000 0.000000 0.035515
#
#
# Mechanical properties :
#
#
# Convention : Reuss Voigt Hill
#
# Bulk Modulus (GPa) = 30.03346 30.21266 30.12306
# Shear Modulus (GPa) = 62.23297 17.90538 40.06918
#
# Velocity S-wave (km/s) = 5.92816 3.17981 4.75680
# Velocity P-wave (km/s) = 7.98858 5.52655 6.86877
#
# Compressibility (1/GPa) = 0.03329620
#
# Stress axis : x y z
#
# Youngs Moduli (GPa) = 47.07695 59.51554 61.14221
#
# Poissons Ratio (x) = 0.32867 0.38396
# Poissons Ratio (y) = 0.25998 -0.07647
# Poissons Ratio (z) = 0.29564 -0.07444
#
# Static dielectric constant tensor:
#      x y z
#    x 1.596480 0.000000 0.000000 
#    y 0.000000 1.624840 0.000000 
#    z 0.000000 0.000000 1.705300 
# 
# From -- ./inp_files/71514.got.cif
#   From: 2010.05.17/outbox.ucp.g08.bks.cvg/sg65_36_cif.got.tgz:71514.got - 2010.06.11 16:39:57.
