data_PCOD9494951
_publ_section_title
;
Structure prediction by ZEFSAII (Michael W. Deem and Ramdas Pophale) SiO2 
 PCOD9494951
Probable space group: C C C M
;
_chemical_formula_sum "Si O2"
_cell_formula_units_Z 112
_cell_length_a 25.740333
_cell_length_b 15.135250
_cell_length_c 15.079527
_cell_angle_alpha 90.000000
_cell_angle_beta 90.000000
_cell_angle_gamma 90.000000
_cell_volume 5874.778261
_symmetry_space_group_name_H-M "C C C M"
_symmetry_group_IT_number 66
_symmetry_cell_setting 'orthorhombic'
loop_
_space_group_symop_operation_xyz
x,y,z
-x,-y,z
x,-y,1/2-z
-x,y,1/2-z
-x,-y,-z
x,y,-z
-x,y,1/2+z
x,-y,1/2+z
1/2+x,1/2+y,z
1/2-x,1/2-y,z
1/2+x,1/2-y,1/2-z
1/2-x,1/2+y,1/2-z
1/2-x,1/2-y,-z
1/2+x,1/2+y,-z
1/2-x,1/2+y,1/2+z
1/2+x,1/2-y,1/2+z
loop_
_atom_site_type_symbol
_atom_site_label
_atom_site_fract_x
_atom_site_fract_y
_atom_site_fract_z
Si Si1 0.476530 0.258181 0.847217
Si Si2 0.950208 0.560869 0.107613
Si Si3 0.088693 0.748802 0.900923
Si Si4 0.253781 0.854178 0.107856
Si Si5 0.856701 0.921646 0.608813
Si Si6 0.553280 0.551148 0.892728
Si Si7 0.635615 0.929844 0.391616
O O1 0.500000 0.260827 0.750000
O O2 0.452644 0.162237 0.862928
O O3 0.528052 0.264766 0.906804
O O4 0.445032 0.347204 0.863547
O O5 0.896476 0.515313 0.137472
O O6 0.000000 0.500000 0.135477
O O7 0.952127 0.561121 0.000000
O O8 0.116047 0.831734 0.857765
O O9 0.100507 0.653601 0.862332
O O10 0.111672 0.744748 0.000000
O O11 0.250000 0.750000 0.135234
O O12 0.203161 0.910477 0.134778
O O13 0.306436 0.903548 0.136761
O O14 0.254564 0.851716 0.000000
O O15 0.857853 0.923473 0.500000
O O16 0.894887 0.999916 0.637038
O O17 0.500000 0.500000 0.863539
O O18 0.551830 0.549506 0.000000
O O19 0.636357 0.935464 0.500000
#
# Coordination Sequence:
#
# PCOD9494951 Si02
#       7
#    16  16  16  16  16  16  16
#     4  12  24  34  47  72 104 136 169 211 254 296
#     4  10  19  33  53  73  99 134 168 202 251 311
#     4  10  16  29  50  74 102 131 166 199 247 310
#     4   9  14  22  42  77 112 130 154 206 265 297
#     4   9  16  26  46  75 105 133 160 204 255 303
#     4  10  19  33  53  73  99 134 168 202 251 311
#     4   9  16  26  46  75 105 133 160 204 255 303
#
# _framework density 19.064549
#
# number of rings (size 3 to 8) (size 9 to 14) (size 15 to 20)
#    0.000    2.143    4.286    1.286    0.000    0.571 
#    0.000    0.000    0.000    0.857    0.000   11.000 
#    0.000    0.000    0.000    0.000    0.000    0.000 
#
# Total GULP energy -312027.277819 kJ/mol
# GULP energy per Si atom -5571.915675 kJ/mol
# Density = 1.902116 g / cm^3
# Si number density = 19.064549 Si / 1000 Ang^3
#
#
#
# Elastic Constant Matrix: (Units=GPa)
#
#
# Indices 1 2 3 4 5 6 
#
# 1 105.4275 46.5079 4.4694 0.0000 0.0000 0.0000
# 2 46.5079 110.2085 5.9649 0.0000 0.0000 0.0000
# 3 4.4694 5.9649 33.5540 0.0000 0.0000 0.0000
# 4 0.0000 0.0000 0.0000 -7.6559 0.0000 0.0000
# 5 0.0000 0.0000 0.0000 0.0000 1.0114 0.0000
# 6 0.0000 0.0000 0.0000 0.0000 0.0000 35.9013
#
#
#
# Elastic Compliance Matrix: (Units=1/GPa)
#
#
# Indices 1 2 3 4 5 6 
#
# 1 0.011670 -0.004888 -0.000686 0.000000 0.000000 0.000000
# 2 -0.004888 0.011209 -0.001342 0.000000 0.000000 0.000000
# 3 -0.000686 -0.001342 0.030133 0.000000 0.000000 0.000000
# 4 0.000000 0.000000 0.000000 -0.130618 0.000000 0.000000
# 5 0.000000 0.000000 0.000000 0.000000 0.988704 0.000000
# 6 0.000000 0.000000 0.000000 0.000000 0.000000 0.027854
#
#
# Mechanical properties :
#
#
# Convention : Reuss Voigt Hill
#
# Bulk Modulus (GPa) = 25.52191 40.34160 32.93176
# Shear Modulus (GPa) = 5.17683 18.66787 11.92235
#
# Velocity S-wave (km/s) = 1.64964 3.13260 2.50345
# Velocity P-wave (km/s) = 4.12851 5.85583 5.06633
#
# Compressibility (1/GPa) = 0.03918201
#
# Stress axis : x y z
#
# Youngs Moduli (GPa) = 85.68649 89.21422 33.18670
#
# Poissons Ratio (x) = 0.43606 0.02275
# Poissons Ratio (y) = 0.41882 0.04452
# Poissons Ratio (z) = 0.05875 0.11969
#
# Static dielectric constant tensor:
#      x y z
#    x 1.681690 0.000000 0.000000 
#    y 0.000000 1.686530 0.000000 
#    z 0.000000 0.000000 1.891110 
# 
# From -- ./inp_files/53157.got.cif
#   From: 2010.05.17/outbox.cif.g08.bks.cpg/sg66_27_cif.got.tgz:53157.got - 2010.06.03 17:51:23.
