data_PCOD9494289
_publ_section_title
;
Structure prediction by ZEFSAII (Michael W. Deem and Ramdas Pophale) SiO2 
 PCOD9494289
Probable space group: C M M M
;
_chemical_formula_sum "Si O2"
_cell_formula_units_Z 112
_cell_length_a 30.705195
_cell_length_b 7.288525
_cell_length_c 23.937298
_cell_angle_alpha 90.000000
_cell_angle_beta 90.000000
_cell_angle_gamma 90.000000
_cell_volume 5357.061523
_symmetry_space_group_name_H-M "C M M M"
_symmetry_group_IT_number 65
_symmetry_cell_setting 'orthorhombic'
loop_
_space_group_symop_operation_xyz
x,y,z
-x,-y,z
x,-y,-z
-x,y,-z
-x,-y,-z
x,y,-z
-x,y,z
x,-y,z
1/2+x,1/2+y,z
1/2-x,1/2-y,z
1/2+x,1/2-y,-z
1/2-x,1/2+y,-z
1/2-x,1/2-y,-z
1/2+x,1/2+y,-z
1/2-x,1/2+y,z
1/2+x,1/2-y,z
loop_
_atom_site_type_symbol
_atom_site_label
_atom_site_fract_x
_atom_site_fract_y
_atom_site_fract_z
Si Si1 0.138936 0.775995 0.438550
Si Si2 0.049360 0.776713 0.935948
Si Si3 0.300047 0.718707 0.211685
Si Si4 0.049217 0.777279 0.737985
Si Si5 0.388103 0.723983 0.837600
Si Si6 0.699605 0.718364 0.338283
Si Si7 0.548690 0.276825 0.609563
O O1 0.153943 0.718512 0.500000
O O2 0.168287 0.712097 0.386889
O O3 0.089060 0.719941 0.427919
O O4 0.139888 0.000000 0.437847
O O5 0.085655 0.715131 0.892227
O O6 0.000000 0.722029 0.919911
O O7 0.049529 0.000000 0.935454
O O8 0.057110 0.720436 0.000000
O O9 0.304966 0.500000 0.215007
O O10 0.250000 0.750000 0.195103
O O11 0.338344 0.784048 0.171116
O O12 0.306772 0.789863 0.275147
O O13 0.084530 0.718950 0.782932
O O14 0.057139 0.721649 0.674004
O O15 0.000000 0.722377 0.753561
O O16 0.049909 0.000000 0.737942
O O17 0.388572 0.500000 0.839075
O O18 0.692190 0.500000 0.335281
O O19 0.750000 0.750000 0.352887
O O20 0.500000 0.217218 0.593591
O O21 0.548107 0.500000 0.609037
#
# Coordination Sequence:
#
# PCOD9494289 Si02
#       7
#    16  16  16  16  16  16  16
#     4   9  16  24  34  49  70  97 127 156 187 226
#     4   8  13  20  30  48  77 109 135 158 187 226
#     4   9  17  28  42  59  78 101 130 163 196 230
#     4   8  12  17  27  45  68  92 118 150 188 228
#     4   9  14  20  33  51  72 100 130 158 191 230
#     4   9  17  29  43  58  77 100 126 158 196 234
#     4   8  13  20  29  43  66  95 123 149 180 223
#
# _framework density 20.906984999999999
#
# number of rings (size 3 to 8) (size 9 to 14) (size 15 to 20)
#    0.000    3.429    0.000    2.571    0.000    5.714 
#    0.000    1.429    0.000    0.429    0.000    0.000 
#    0.000    2.857    0.000   20.714    0.000   22.429 
#
# Total GULP energy -312481.634363 kJ/mol
# GULP energy per Si atom -5580.029185 kJ/mol
# Density = 2.085940 g / cm^3
# Si number density = 20.906985 Si / 1000 Ang^3
#
#
#
# Elastic Constant Matrix: (Units=GPa)
#
#
# Indices 1 2 3 4 5 6 
#
# 1 158.3275 1.1601 98.2711 0.0000 0.0000 0.0000
# 2 1.1601 88.2971 3.6871 0.0000 0.0000 0.0000
# 3 98.2711 3.6871 90.1874 0.0000 0.0000 0.0000
# 4 0.0000 0.0000 0.0000 -14.9656 0.0000 0.0000
# 5 0.0000 0.0000 0.0000 0.0000 26.5840 0.0000
# 6 0.0000 0.0000 0.0000 0.0000 0.0000 -1.6106
#
#
#
# Elastic Compliance Matrix: (Units=1/GPa)
#
#
# Indices 1 2 3 4 5 6 
#
# 1 0.019548 0.000634 -0.021326 0.000000 0.000000 0.000000
# 2 0.000634 0.011365 -0.001155 0.000000 0.000000 0.000000
# 3 -0.021326 -0.001155 0.034373 0.000000 0.000000 0.000000
# 4 0.000000 0.000000 0.000000 -0.066820 0.000000 0.000000
# 5 0.000000 0.000000 0.000000 0.000000 0.037617 0.000000
# 6 0.000000 0.000000 0.000000 0.000000 0.000000 -0.620905
#
#
# Mechanical properties :
#
#
# Convention : Reuss Voigt Hill
#
# Bulk Modulus (GPa) = 46.31532 60.33874 53.32703
# Shear Modulus (GPa) = -9.36453 17.58115 4.10831
#
# Velocity S-wave (km/s) = -2.11869 2.90301 1.40332
# Velocity P-wave (km/s) = 4.02691 6.33718 5.30923
#
# Compressibility (1/GPa) = 0.02159113
#
# Stress axis : x y z
#
# Youngs Moduli (GPa) = 51.15558 87.98705 29.09258
#
# Poissons Ratio (x) = -0.05576 0.62044
# Poissons Ratio (y) = -0.03242 0.03361
# Poissons Ratio (z) = 1.09096 0.10164
#
# Static dielectric constant tensor:
#      x y z
#    x 1.732810 0.000000 0.000000 
#    y 0.000000 1.902080 0.000000 
#    z 0.000000 0.000000 1.716820 
# 
# From -- ./inp_files/71566.got.cif
#   From: 2010.05.17/outbox.cif.g08.bks.cpg/sg65_36_cif.got.tgz:71566.got - 2010.06.03 17:01:31.
