data_PCOD9494568
_publ_section_title
;
Structure prediction by ZEFSAII (Michael W. Deem and Ramdas Pophale) SiO2 
 PCOD9494568
Probable space group: C M M M
;
_chemical_formula_sum "Si O2"
_cell_formula_units_Z 60
_cell_length_a 18.000000
_cell_length_b 18.000000
_cell_length_c 21.000000
_cell_angle_alpha 90.000000
_cell_angle_beta 90.000000
_cell_angle_gamma 90.000000
_cell_volume 6804.000000
_symmetry_space_group_name_H-M "C M M M"
_symmetry_group_IT_number 65
_symmetry_cell_setting 'orthorhombic'
loop_
_space_group_symop_operation_xyz
x,y,z
-x,-y,z
x,-y,-z
-x,y,-z
-x,-y,-z
x,y,-z
-x,y,z
x,-y,z
1/2+x,1/2+y,z
1/2-x,1/2-y,z
1/2+x,1/2-y,-z
1/2-x,1/2+y,-z
1/2-x,1/2-y,-z
1/2+x,1/2+y,-z
1/2-x,1/2+y,z
1/2+x,1/2-y,z
loop_
_atom_site_type_symbol
_atom_site_label
_atom_site_fract_x
_atom_site_fract_y
_atom_site_fract_z
Si Si1 0.914026 0.693857 0.607430
Si Si2 0.322474 0.915698 0.220710
Si Si3 0.348183 0.343517 0.572625
Si Si4 0.413582 0.586101 0.076496
Si Si5 0.500000 0.587887 0.424633
Si Si6 0.084711 0.722871 0.759105
Si Si7 0.303395 0.682698 0.158890
Si Si8 0.205799 0.583493 0.371901
O O1 0.866852 0.756908 0.572746
O O2 0.911848 0.715693 0.682537
O O3 0.870148 0.617202 0.600460
O O4 0.000000 0.692565 0.587394
O O5 0.390155 0.857638 0.213974
O O6 0.251917 0.879625 0.186082
O O7 0.303950 0.917281 0.295862
O O8 0.337972 0.000000 0.200114
O O9 0.338836 0.370474 0.500000
O O10 0.423195 0.379918 0.601539
O O11 0.275044 0.365042 0.610326
O O12 0.500000 0.600518 0.093772
O O13 0.396952 0.500000 0.094595
O O14 0.358017 0.643913 0.108830
O O15 0.408240 0.590582 0.000000
O O16 0.500000 0.500000 0.419158
O O17 0.500000 0.608405 0.500000
O O18 0.144477 0.780992 0.786304
O O19 0.000000 0.741105 0.776802
O O20 0.250000 0.750000 0.135147
O O21 0.220365 0.500000 0.394364
#
# Coordination Sequence:
#
# PCOD9494568 Si02
#       8
#    16  16  16  16   8  16  16  16
#     4  10  20  35  53  74  99 126 160 198 237 287
#     4   9  18  32  49  70  97 127 158 194 236 282
#     4  11  21  35  53  72  94 121 157 196 239 292
#     4   9  18  32  49  69  95 130 170 207 240 277
#     4   9  18  32  50  70  91 115 145 185 229 275
#     4   9  18  31  49  72  96 126 159 194 236 281
#     4  10  18  29  48  73 101 129 158 196 243 288
#     4  10  21  35  52  74  99 127 159 197 240 287
#
# _framework density 8.8183419999999995
#
# number of rings (size 3 to 8) (size 9 to 14) (size 15 to 20)
#    0.000    2.333    0.667    2.800    0.000    4.800 
#    0.000    2.667    0.000    0.000    0.000    1.867 
#    0.000    0.000    0.000   24.800    0.000    0.267 
#
# Total GULP energy -334530.061558 kJ/mol
# GULP energy per Si atom -5575.501026 kJ/mol
# Density = 0.879827 g / cm^3
# Si number density = 8.818342 Si / 1000 Ang^3
#
#
#
# Elastic Constant Matrix: (Units=GPa)
#
#
# Indices 1 2 3 4 5 6 
#
# 1 78.4107 24.3683 16.0365 0.0000 0.0000 0.0000
# 2 24.3683 61.5200 11.3022 0.0000 0.0000 0.0000
# 3 16.0365 11.3022 14.0967 0.0000 0.0000 0.0000
# 4 0.0000 0.0000 0.0000 18.2823 0.0000 0.0000
# 5 0.0000 0.0000 0.0000 0.0000 -0.4131 0.0000
# 6 0.0000 0.0000 0.0000 0.0000 0.0000 19.9883
#
#
#
# Elastic Compliance Matrix: (Units=1/GPa)
#
#
# Indices 1 2 3 4 5 6 
#
# 1 0.017349 -0.003807 -0.016684 0.000000 0.000000 0.000000
# 2 -0.003807 0.019898 -0.011623 0.000000 0.000000 0.000000
# 3 -0.016684 -0.011623 0.099237 0.000000 0.000000 0.000000
# 4 0.000000 0.000000 0.000000 0.054698 0.000000 0.000000
# 5 0.000000 0.000000 0.000000 0.000000 -2.420491 0.000000
# 6 0.000000 0.000000 0.000000 0.000000 0.000000 0.050029
#
#
# Mechanical properties :
#
#
# Convention : Reuss Voigt Hill
#
# Bulk Modulus (GPa) = 13.83953 28.60460 21.22207
# Shear Modulus (GPa) = -2.39124 14.39284 6.00080
#
# Velocity S-wave (km/s) = -1.16567 2.85980 1.84658
# Velocity P-wave (km/s) = 2.46015 5.21139 4.07498
#
# Compressibility (1/GPa) = 0.07225680
#
# Stress axis : x y z
#
# Youngs Moduli (GPa) = 57.64164 50.25609 10.07687
#
# Poissons Ratio (x) = 0.19131 0.16812
# Poissons Ratio (y) = 0.21943 0.11712
# Poissons Ratio (z) = 0.96168 0.58413
#
# Static dielectric constant tensor:
#      x y z
#    x 1.595880 0.000000 0.000000 
#    y 0.000000 1.619250 0.000000 
#    z 0.000000 0.000000 1.591310 
# 
# From -- ./inp_files/64001.got.cif
#   From: 2010.05.17/outbox.ucp.g08.bks.cvg/sg65_33_cif.got.tgz:64001.got - 2010.06.11 16:39:57.
