data_PCOD9494579
_publ_section_title
;
Structure prediction by ZEFSAII (Michael W. Deem and Ramdas Pophale) SiO2 
 PCOD9494579
Probable space group: C M M M
;
_chemical_formula_sum "Si O2"
_cell_formula_units_Z 32
_cell_length_a 18.000000
_cell_length_b 15.000000
_cell_length_c 12.000000
_cell_angle_alpha 90.000000
_cell_angle_beta 90.000000
_cell_angle_gamma 90.000000
_cell_volume 3240.000000
_symmetry_space_group_name_H-M "C M M M"
_symmetry_group_IT_number 65
_symmetry_cell_setting 'orthorhombic'
loop_
_space_group_symop_operation_xyz
x,y,z
-x,-y,z
x,-y,-z
-x,y,-z
-x,-y,-z
x,y,-z
-x,y,z
x,-y,z
1/2+x,1/2+y,z
1/2-x,1/2-y,z
1/2+x,1/2-y,-z
1/2-x,1/2+y,-z
1/2-x,1/2-y,-z
1/2+x,1/2+y,-z
1/2-x,1/2+y,z
1/2+x,1/2-y,z
loop_
_atom_site_type_symbol
_atom_site_label
_atom_site_fract_x
_atom_site_fract_y
_atom_site_fract_z
Si Si1 0.914678 0.353671 0.500000
Si Si2 0.417402 0.718234 0.867112
Si Si3 0.750235 0.108661 0.500000
Si Si4 0.384172 0.901244 0.246789
Si Si5 0.705408 0.603058 0.258305
O O1 0.824314 0.329993 0.500000
O O2 0.911004 0.397485 0.376217
O O3 0.000000 0.311679 0.500000
O O4 0.500000 0.680195 0.841886
O O5 0.416220 0.818501 0.819975
O O6 0.349721 0.665477 0.809858
O O7 0.407658 0.718211 0.000000
O O8 0.798151 0.122970 0.610086
O O9 0.728452 0.000000 0.500000
O O10 0.294270 0.889715 0.238107
O O11 0.402322 0.000000 0.204049
O O12 0.685256 0.500000 0.237828
#
# Coordination Sequence:
#
# PCOD9494579 Si02
#       5
#     8  16   8  16  16
#     4  10  18  30  54  88 122 151 181 222 275 336
#     4  11  25  41  56  79 112 150 193 239 285 334
#     4   8  16  32  55  85 116 146 183 225 275 336
#     4  10  21  37  59  86 115 149 186 226 277 336
#     4   9  19  38  62  85 112 146 184 230 281 334
#
# _framework density 9.8765429999999999
#
# number of rings (size 3 to 8) (size 9 to 14) (size 15 to 20)
#    0.000    2.250    0.000    4.125    0.000    8.250 
#    0.000   10.625    0.000    2.250    0.000    0.000 
#    0.000    0.000    0.000    0.000    0.000    0.000 
#
# Total GULP energy -178157.985907 kJ/mol
# GULP energy per Si atom -5567.437060 kJ/mol
# Density = 0.985406 g / cm^3
# Si number density = 9.876543 Si / 1000 Ang^3
#
#
#
# Elastic Constant Matrix: (Units=GPa)
#
#
# Indices 1 2 3 4 5 6 
#
# 1 119.9279 51.1586 60.9869 0.0000 0.0000 0.0000
# 2 51.1586 86.9786 43.0555 0.0000 0.0000 0.0000
# 3 60.9869 43.0555 88.4811 0.0000 0.0000 0.0000
# 4 0.0000 0.0000 0.0000 9.1048 0.0000 0.0000
# 5 0.0000 0.0000 0.0000 0.0000 21.1801 0.0000
# 6 0.0000 0.0000 0.0000 0.0000 0.0000 8.1294
#
#
#
# Elastic Compliance Matrix: (Units=1/GPa)
#
#
# Indices 1 2 3 4 5 6 
#
# 1 0.014104 -0.004589 -0.007488 0.000000 0.000000 0.000000
# 2 -0.004589 0.016638 -0.004933 0.000000 0.000000 0.000000
# 3 -0.007488 -0.004933 0.018864 0.000000 0.000000 0.000000
# 4 0.000000 0.000000 0.000000 0.109832 0.000000 0.000000
# 5 0.000000 0.000000 0.000000 0.000000 0.047214 0.000000
# 6 0.000000 0.000000 0.000000 0.000000 0.000000 0.123010
#
#
# Mechanical properties :
#
#
# Convention : Reuss Voigt Hill
#
# Bulk Modulus (GPa) = 64.16440 67.30994 65.73717
# Shear Modulus (GPa) = 13.55460 17.02864 15.29162
#
# Velocity S-wave (km/s) = 2.62239 2.93930 2.78535
# Velocity P-wave (km/s) = 6.45933 6.75788 6.61029
#
# Compressibility (1/GPa) = 0.01558496
#
# Stress axis : x y z
#
# Youngs Moduli (GPa) = 70.90272 60.10295 53.01114
#
# Poissons Ratio (x) = 0.27579 0.39697
# Poissons Ratio (y) = 0.32535 0.26153
# Poissons Ratio (z) = 0.53095 0.29651
#
# Static dielectric constant tensor:
#      x y z
#    x 1.718170 0.000000 0.000000 
#    y 0.000000 1.719990 0.000000 
#    z 0.000000 0.000000 1.679420 
# 
# From -- ./inp_files/26133.got.cif
#   From: 2010.05.17/outbox.ucp.g08.bks.cvg/sg65_14_cif.got.tgz:26133.got - 2010.06.11 16:39:57.
