data_PCOD9494452
_publ_section_title
;
Structure prediction by ZEFSAII (Michael W. Deem and Ramdas Pophale) SiO2 
 PCOD9494452
Probable space group: C M M M
;
_chemical_formula_sum "Si O2"
_cell_formula_units_Z 88
_cell_length_a 8.974519
_cell_length_b 19.572218
_cell_length_c 29.725203
_cell_angle_alpha 90.000000
_cell_angle_beta 90.000000
_cell_angle_gamma 90.000000
_cell_volume 5221.268835
_symmetry_space_group_name_H-M "C M M M"
_symmetry_group_IT_number 65
_symmetry_cell_setting 'orthorhombic'
loop_
_space_group_symop_operation_xyz
x,y,z
-x,-y,z
x,-y,-z
-x,y,-z
-x,-y,-z
x,y,-z
-x,y,z
x,-y,z
1/2+x,1/2+y,z
1/2-x,1/2-y,z
1/2+x,1/2-y,-z
1/2-x,1/2+y,-z
1/2-x,1/2-y,-z
1/2+x,1/2+y,-z
1/2-x,1/2+y,z
1/2+x,1/2-y,z
loop_
_atom_site_type_symbol
_atom_site_label
_atom_site_fract_x
_atom_site_fract_y
_atom_site_fract_z
Si Si1 0.180181 0.174565 0.901482
Si Si2 0.820945 0.825185 0.000000
Si Si3 0.179487 0.079691 0.181291
Si Si4 0.827953 0.583061 0.274396
Si Si5 0.679391 0.420311 0.367235
Si Si6 0.320375 0.675661 0.550823
O O1 0.250000 0.250000 0.897232
O O2 0.220530 0.145020 0.951152
O O3 0.227083 0.125699 0.860813
O O4 0.000000 0.180605 0.899804
O O5 0.750000 0.750000 0.000000
O O6 0.000000 0.819688 0.000000
O O7 0.247857 0.104496 0.228421
O O8 0.000000 0.082182 0.184537
O O9 0.221361 0.000000 0.174604
O O10 0.820790 0.500000 0.274575
O O11 0.749023 0.605167 0.320435
O O12 0.000000 0.603559 0.274141
O O13 0.500000 0.417255 0.363625
O O14 0.720424 0.500000 0.373402
O O15 0.726778 0.376066 0.410116
O O16 0.280721 0.652812 0.500000
O O17 0.500000 0.681194 0.552610
O O18 0.250000 0.750000 0.557859
#
# Coordination Sequence:
#
# PCOD9494452 Si02
#       6
#    16   8  16  16  16  16
#     4   9  17  29  46  67  90 117 149 185 223 264
#     4   8  14  26  43  63  87 115 147 180 218 264
#     4   9  17  30  47  66  90 120 151 182 221 269
#     4   9  17  29  46  68  92 118 149 185 225 268
#     4   9  17  30  49  71  93 118 150 188 226 263
#     4   9  18  32  49  69  94 124 154 183 220 267
#
# _framework density 16.854140999999998
#
# number of rings (size 3 to 8) (size 9 to 14) (size 15 to 20)
#    0.000    3.091    0.000    0.545    0.000    4.000 
#    0.000    3.182    0.000    2.727    0.000    5.091 
#    0.000   10.182    0.000    0.000    0.000    0.000 
#
# Total GULP energy -244945.226895 kJ/mol
# GULP energy per Si atom -5566.936975 kJ/mol
# Density = 1.681578 g / cm^3
# Si number density = 16.854141 Si / 1000 Ang^3
#
#
#
# Elastic Constant Matrix: (Units=GPa)
#
#
# Indices 1 2 3 4 5 6 
#
# 1 13.2503 19.4846 43.7763 0.0000 0.0000 0.0000
# 2 19.4846 49.5783 80.3981 0.0000 0.0000 0.0000
# 3 43.7763 80.3981 218.8425 0.0000 0.0000 0.0000
# 4 0.0000 0.0000 0.0000 68.6973 0.0000 0.0000
# 5 0.0000 0.0000 0.0000 0.0000 18.1112 0.0000
# 6 0.0000 0.0000 0.0000 0.0000 0.0000 17.6364
#
#
#
# Elastic Compliance Matrix: (Units=1/GPa)
#
#
# Indices 1 2 3 4 5 6 
#
# 1 0.255367 -0.043349 -0.035157 0.000000 0.000000 0.000000
# 2 -0.043349 0.057254 -0.012363 0.000000 0.000000 0.000000
# 3 -0.035157 -0.012363 0.016144 0.000000 0.000000 0.000000
# 4 0.000000 0.000000 0.000000 0.014557 0.000000 0.000000
# 5 0.000000 0.000000 0.000000 0.000000 0.055215 0.000000
# 6 0.000000 0.000000 0.000000 0.000000 0.000000 0.056701
#
#
# Mechanical properties :
#
#
# Convention : Reuss Voigt Hill
#
# Bulk Modulus (GPa) = 6.80142 63.22100 35.01121
# Shear Modulus (GPa) = 7.28880 30.08978 18.68929
#
# Velocity S-wave (km/s) = 2.08183 4.22987 3.33360
# Velocity P-wave (km/s) = 3.13415 7.83887 5.96954
#
# Compressibility (1/GPa) = 0.14702823
#
# Stress axis : x y z
#
# Youngs Moduli (GPa) = 3.91593 17.46592 61.94261
#
# Poissons Ratio (x) = 0.75713 2.17772
# Poissons Ratio (y) = 0.16975 0.76578
# Poissons Ratio (z) = 0.13767 0.21593
#
# Static dielectric constant tensor:
#      x y z
#    x 1.564870 0.000000 0.000000 
#    y 0.000000 1.534570 0.000000 
#    z 0.000000 0.000000 1.592020 
# 
# From -- ./inp_files/73162.got.cif
#   From: 2010.05.17/outbox.cif.g08.bks.cpg/sg65_37_cif.got.tgz:73162.got - 2010.06.03 17:01:31.
