data_PCOD9494357
_publ_section_title
;
Structure prediction by ZEFSAII (Michael W. Deem and Ramdas Pophale) SiO2 
 PCOD9494357
Probable space group: C M M M
;
_chemical_formula_sum "Si O2"
_cell_formula_units_Z 88
_cell_length_a 7.306447
_cell_length_b 15.775985
_cell_length_c 32.872758
_cell_angle_alpha 90.000000
_cell_angle_beta 90.000000
_cell_angle_gamma 90.000000
_cell_volume 3789.124416
_symmetry_space_group_name_H-M "C M M M"
_symmetry_group_IT_number 65
_symmetry_cell_setting 'orthorhombic'
loop_
_space_group_symop_operation_xyz
x,y,z
-x,-y,z
x,-y,-z
-x,y,-z
-x,-y,-z
x,y,-z
-x,y,z
x,-y,z
1/2+x,1/2+y,z
1/2-x,1/2-y,z
1/2+x,1/2-y,-z
1/2-x,1/2+y,-z
1/2-x,1/2-y,-z
1/2+x,1/2+y,-z
1/2-x,1/2+y,z
1/2+x,1/2-y,z
loop_
_atom_site_type_symbol
_atom_site_label
_atom_site_fract_x
_atom_site_fract_y
_atom_site_fract_z
Si Si1 0.293483 0.899985 0.718319
Si Si2 0.217279 0.650035 0.805404
Si Si3 0.281238 0.149126 0.894447
Si Si4 0.282022 0.850251 0.631172
Si Si5 0.281238 0.147896 0.456223
Si Si6 0.223720 0.500000 0.953283
O O1 0.500000 0.860619 0.718422
O O2 0.207372 0.877982 0.761765
O O3 0.207248 0.876907 0.675030
O O4 0.310466 0.000000 0.717980
O O5 0.250000 0.750000 0.806753
O O6 0.287436 0.621100 0.849534
O O7 0.000000 0.629337 0.804434
O O8 0.500000 0.140630 0.892707
O O9 0.250000 0.250000 0.901172
O O10 0.217188 0.084490 0.929004
O O11 0.500000 0.869307 0.632095
O O12 0.250000 0.750000 0.629293
O O13 0.212625 0.884604 0.587585
O O14 0.211751 0.115820 0.500000
O O15 0.500000 0.134629 0.456093
O O16 0.250000 0.250000 0.456443
O O17 0.000000 0.500000 0.953491
O O18 0.282807 0.500000 0.000000
#
# Coordination Sequence:
#
# PCOD9494357 Si02
#       6
#    16  16  16  16  16   8
#     4   9  17  27  41  62  85 110 141 175 209 251
#     4   9  17  29  47  68  89 114 146 183 222 263
#     4   9  18  32  51  74  99 128 162 201 242 284
#     4   9  16  26  41  59  79 105 134 168 208 248
#     4   8  13  21  34  53  75  97 125 162 202 243
#     4   9  18  32  51  75 101 131 167 203 238 282
#
# _framework density 23.224363
#
# number of rings (size 3 to 8) (size 9 to 14) (size 15 to 20)
#    0.000    3.182    0.000    0.545    1.273    0.364 
#    0.000    0.455    0.000    3.273    0.000    3.818 
#    0.000    0.000    0.000   29.455    0.000   13.818 
#
# Total GULP energy -245098.997623 kJ/mol
# GULP energy per Si atom -5570.431764 kJ/mol
# Density = 2.317150 g / cm^3
# Si number density = 23.224363 Si / 1000 Ang^3
#
#
#
# Elastic Constant Matrix: (Units=GPa)
#
#
# Indices 1 2 3 4 5 6 
#
# 1 101.8563 -6.4989 17.9295 0.0000 0.0000 0.0000
# 2 -6.4989 54.6459 84.2089 0.0000 0.0000 0.0000
# 3 17.9295 84.2089 334.2365 0.0000 0.0000 0.0000
# 4 0.0000 0.0000 0.0000 362.7255 0.0000 0.0000
# 5 0.0000 0.0000 0.0000 0.0000 5.8741 0.0000
# 6 0.0000 0.0000 0.0000 0.0000 0.0000 5.4029
#
#
#
# Elastic Compliance Matrix: (Units=1/GPa)
#
#
# Indices 1 2 3 4 5 6 
#
# 1 0.010281 0.003388 -0.001405 0.000000 0.000000 0.000000
# 2 0.003388 0.031030 -0.008000 0.000000 0.000000 0.000000
# 3 -0.001405 -0.008000 0.005083 0.000000 0.000000 0.000000
# 4 0.000000 0.000000 0.000000 0.002757 0.000000 0.000000
# 5 0.000000 0.000000 0.000000 0.000000 0.170238 0.000000
# 6 0.000000 0.000000 0.000000 0.000000 0.000000 0.185085
#
#
# Mechanical properties :
#
#
# Convention : Reuss Voigt Hill
#
# Bulk Modulus (GPa) = 29.10324 75.77976 52.44150
# Shear Modulus (GPa) = 11.68333 101.14045 56.41189
#
# Velocity S-wave (km/s) = 2.24534 6.60635 4.93383
# Velocity P-wave (km/s) = 4.39097 9.53373 7.42202
#
# Compressibility (1/GPa) = 0.03436043
#
# Stress axis : x y z
#
# Youngs Moduli (GPa) = 97.26441 32.22713 196.74600
#
# Poissons Ratio (x) = -0.10918 0.27645
# Poissons Ratio (y) = -0.32953 1.57387
# Poissons Ratio (z) = 0.13667 0.25780
#
# Static dielectric constant tensor:
#      x y z
#    x 1.859500 0.000000 0.000000 
#    y 0.000000 1.806420 0.000000 
#    z 0.000000 0.000000 1.954310 
# 
# From -- ./inp_files/74228.got.cif
#   From: 2010.05.17/outbox.cif.g08.bks.cpg/sg65_38_cif.got.tgz:74228.got - 2010.06.03 17:01:31.
