data_PCOD9494435
_publ_section_title
;
Structure prediction by ZEFSAII (Michael W. Deem and Ramdas Pophale) SiO2 
 PCOD9494435
Probable space group: C M M M
;
_chemical_formula_sum "Si O2"
_cell_formula_units_Z 88
_cell_length_a 13.852046
_cell_length_b 19.251344
_cell_length_c 17.597065
_cell_angle_alpha 90.000000
_cell_angle_beta 90.000000
_cell_angle_gamma 90.000000
_cell_volume 4692.618169
_symmetry_space_group_name_H-M "C M M M"
_symmetry_group_IT_number 65
_symmetry_cell_setting 'orthorhombic'
loop_
_space_group_symop_operation_xyz
x,y,z
-x,-y,z
x,-y,-z
-x,y,-z
-x,-y,-z
x,y,-z
-x,y,z
x,-y,z
1/2+x,1/2+y,z
1/2-x,1/2-y,z
1/2+x,1/2-y,-z
1/2-x,1/2+y,-z
1/2-x,1/2-y,-z
1/2+x,1/2+y,-z
1/2-x,1/2+y,z
1/2+x,1/2-y,z
loop_
_atom_site_type_symbol
_atom_site_label
_atom_site_fract_x
_atom_site_fract_y
_atom_site_fract_z
Si Si1 0.612727 0.085218 0.500000
Si Si2 0.884646 0.577236 0.189688
Si Si3 0.390868 0.416936 0.750849
Si Si4 0.215755 0.582356 0.652782
Si Si5 0.117544 0.862764 0.085306
Si Si6 0.117139 0.702791 0.914053
O O1 0.500000 0.105997 0.500000
O O2 0.669522 0.109508 0.575296
O O3 0.612074 0.000000 0.500000
O O4 0.847867 0.500000 0.167568
O O5 0.858869 0.587702 0.277615
O O6 0.848413 0.642564 0.141525
O O7 0.000000 0.575498 0.180738
O O8 0.500000 0.389451 0.741525
O O9 0.394182 0.500000 0.742169
O O10 0.315355 0.389041 0.688577
O O11 0.357899 0.402978 0.837522
O O12 0.231819 0.500000 0.639560
O O13 0.147751 0.782427 0.097205
O O14 0.000000 0.864589 0.082517
O O15 0.148852 0.885542 0.000000
O O16 0.000000 0.704768 0.908690
O O17 0.141706 0.683199 0.000000
#
# Coordination Sequence:
#
# PCOD9494435 Si02
#       6
#     8  16  16  16  16  16
#     4   9  16  28  49  73  96 123 150 178 222 279
#     4   9  16  26  42  64  90 119 149 183 226 274
#     4   9  17  29  45  65  90 120 154 194 239 279
#     4   9  17  29  44  66  94 118 145 185 228 272
#     4   8  14  26  44  64  87 119 160 201 235 268
#     4   8  14  25  41  62  89 121 156 191 226 268
#
# _framework density 18.752858
#
# number of rings (size 3 to 8) (size 9 to 14) (size 15 to 20)
#    0.000    3.364    0.000    1.636    0.000    2.909 
#    0.000    5.909    0.000    8.182    0.000    2.545 
#    0.000    5.818    0.000    0.000    0.000    0.000 
#
# Total GULP energy -245026.929431 kJ/mol
# GULP energy per Si atom -5568.793851 kJ/mol
# Density = 1.871018 g / cm^3
# Si number density = 18.752858 Si / 1000 Ang^3
#
#
#
# Elastic Constant Matrix: (Units=GPa)
#
#
# Indices 1 2 3 4 5 6 
#
# 1 84.5003 6.3704 39.6706 0.0000 0.0000 0.0000
# 2 6.3704 20.7225 32.3316 0.0000 0.0000 0.0000
# 3 39.6706 32.3316 130.6970 0.0000 0.0000 0.0000
# 4 0.0000 0.0000 0.0000 -12.0313 0.0000 0.0000
# 5 0.0000 0.0000 0.0000 0.0000 155.4605 0.0000
# 6 0.0000 0.0000 0.0000 0.0000 0.0000 13.2304
#
#
#
# Elastic Compliance Matrix: (Units=1/GPa)
#
#
# Indices 1 2 3 4 5 6 
#
# 1 0.013981 0.003783 -0.005179 0.000000 0.000000 0.000000
# 2 0.003783 0.079613 -0.020843 0.000000 0.000000 0.000000
# 3 -0.005179 -0.020843 0.014380 0.000000 0.000000 0.000000
# 4 0.000000 0.000000 0.000000 -0.083116 0.000000 0.000000
# 5 0.000000 0.000000 0.000000 0.000000 0.006433 0.000000
# 6 0.000000 0.000000 0.000000 0.000000 0.000000 0.075583
#
#
# Mechanical properties :
#
#
# Convention : Reuss Voigt Hill
#
# Bulk Modulus (GPa) = 15.74923 43.62945 29.68934
# Shear Modulus (GPa) = 28.98278 41.83506 35.40892
#
# Velocity S-wave (km/s) = 3.93557 4.72833 4.35004
# Velocity P-wave (km/s) = 5.39149 7.28872 6.41068
#
# Compressibility (1/GPa) = 0.06349518
#
# Stress axis : x y z
#
# Youngs Moduli (GPa) = 71.52726 12.56071 69.54342
#
# Poissons Ratio (x) = -0.04752 0.36020
# Poissons Ratio (y) = -0.27061 1.44949
# Poissons Ratio (z) = 0.37047 0.26180
#
# Static dielectric constant tensor:
#      x y z
#    x 1.755240 0.000000 0.000000 
#    y 0.000000 1.643310 0.000000 
#    z 0.000000 0.000000 1.630300 
# 
# From -- ./inp_files/40172.got.cif
#   From: 2010.05.17/outbox.cif.g08.bks.cpg/sg65_21_cif.got.tgz:40172.got - 2010.06.03 17:01:31.
