data_PCOD9494202
_publ_section_title
;
Structure prediction by ZEFSAII (Michael W. Deem and Ramdas Pophale) SiO2 
 PCOD9494202
Probable space group: C M M M
;
_chemical_formula_sum "Si O2"
_cell_formula_units_Z 72
_cell_length_a 20.610418
_cell_length_b 20.722662
_cell_length_c 7.364734
_cell_angle_alpha 90.000000
_cell_angle_beta 90.000000
_cell_angle_gamma 90.000000
_cell_volume 3145.497967
_symmetry_space_group_name_H-M "C M M M"
_symmetry_group_IT_number 65
_symmetry_cell_setting 'orthorhombic'
loop_
_space_group_symop_operation_xyz
x,y,z
-x,-y,z
x,-y,-z
-x,y,-z
-x,-y,-z
x,y,-z
-x,y,z
x,-y,z
1/2+x,1/2+y,z
1/2-x,1/2-y,z
1/2+x,1/2-y,-z
1/2-x,1/2+y,-z
1/2-x,1/2-y,-z
1/2+x,1/2+y,-z
1/2-x,1/2+y,z
1/2+x,1/2-y,z
loop_
_atom_site_type_symbol
_atom_site_label
_atom_site_fract_x
_atom_site_fract_y
_atom_site_fract_z
Si Si1 0.426813 0.711792 0.712410
Si Si2 0.356639 0.073112 0.722069
Si Si3 0.500000 0.078121 0.704413
Si Si4 0.576024 0.569225 0.781833
Si Si5 0.691468 0.795020 0.722015
O O1 0.432968 0.726253 0.500000
O O2 0.500000 0.713279 0.790072
O O3 0.398688 0.638870 0.724415
O O4 0.375261 0.762095 0.785596
O O5 0.359569 0.071539 0.500000
O O6 0.429602 0.092491 0.784292
O O7 0.308338 0.130030 0.775706
O O8 0.341907 0.000000 0.780498
O O9 0.500000 0.106022 0.500000
O O10 0.500000 0.000000 0.691611
O O11 0.500000 0.569476 0.725694
O O12 0.604054 0.500000 0.719848
O O13 0.577448 0.568911 0.000000
O O14 0.691951 0.794083 0.500000
O O15 0.750000 0.750000 0.782644
#
# Coordination Sequence:
#
# PCOD9494202 Si02
#       5
#    16  16   8  16  16
#     4   9  17  27  41  63  88 114 144 179 222 267
#     4   8  13  21  34  50  69  97 135 174 209 248
#     4   7  10  16  28  48  66  82 114 163 210 242
#     4   8  14  26  44  64  86 113 146 184 220 252
#     4   9  17  27  37  52  82 118 145 171 212 265
#
# _framework density 22.889856999999999
#
# number of rings (size 3 to 8) (size 9 to 14) (size 15 to 20)
#    0.000    3.667    0.000    2.000    1.556    0.444 
#    0.000    3.333    0.000    4.667    0.000    0.000 
#    0.000    0.889    0.000    5.556    0.000    5.778 
#
# Total GULP energy -200600.583518 kJ/mol
# GULP energy per Si atom -5572.238431 kJ/mol
# Density = 2.283776 g / cm^3
# Si number density = 22.889857 Si / 1000 Ang^3
#
#
#
# Elastic Constant Matrix: (Units=GPa)
#
#
# Indices 1 2 3 4 5 6 
#
# 1 69.6029 80.2675 5.0114 0.0000 0.0000 0.0000
# 2 80.2675 199.2476 -0.2122 0.0000 0.0000 0.0000
# 3 5.0114 -0.2122 81.0373 0.0000 0.0000 0.0000
# 4 0.0000 0.0000 0.0000 24.3213 0.0000 0.0000
# 5 0.0000 0.0000 0.0000 0.0000 -14.9196 0.0000
# 6 0.0000 0.0000 0.0000 0.0000 0.0000 33.6744
#
#
#
# Elastic Compliance Matrix: (Units=1/GPa)
#
#
# Indices 1 2 3 4 5 6 
#
# 1 0.027066 -0.010906 -0.001702 0.000000 0.000000 0.000000
# 2 -0.010906 0.009413 0.000699 0.000000 0.000000 0.000000
# 3 -0.001702 0.000699 0.012447 0.000000 0.000000 0.000000
# 4 0.000000 0.000000 0.000000 0.041116 0.000000 0.000000
# 5 0.000000 0.000000 0.000000 0.000000 -0.067026 0.000000
# 6 0.000000 0.000000 0.000000 0.000000 0.000000 0.029696
#
#
# Mechanical properties :
#
#
# Convention : Reuss Voigt Hill
#
# Bulk Modulus (GPa) = 39.82686 57.78011 48.80348
# Shear Modulus (GPa) = 58.89270 26.26996 42.58133
#
# Velocity S-wave (km/s) = 5.07785 3.39140 4.31776
# Velocity P-wave (km/s) = 7.19837 6.37440 6.79888
#
# Compressibility (1/GPa) = 0.02510868
#
# Stress axis : x y z
#
# Youngs Moduli (GPa) = 36.94630 106.23652 80.33996
#
# Poissons Ratio (x) = 1.15857 0.13677
# Poissons Ratio (y) = 0.40292 -0.05616
# Poissons Ratio (z) = 0.06290 -0.07426
#
# Static dielectric constant tensor:
#      x y z
#    x 1.861070 0.000000 0.000000 
#    y 0.000000 1.885160 0.000000 
#    z 0.000000 0.000000 1.867630 
# 
# From -- ./inp_files/28479.got.cif
#   From: 2010.05.17/outbox.cif.g08.bks.cpg/sg65_15_cif.got.tgz:28479.got - 2010.06.03 17:01:31.
