data_PCOD9494375
_publ_section_title
;
Structure prediction by ZEFSAII (Michael W. Deem and Ramdas Pophale) SiO2 
 PCOD9494375
Probable space group: C M M M
;
_chemical_formula_sum "Si O2"
_cell_formula_units_Z 112
_cell_length_a 23.910560
_cell_length_b 25.984347
_cell_length_c 7.253591
_cell_angle_alpha 90.000000
_cell_angle_beta 90.000000
_cell_angle_gamma 90.000000
_cell_volume 4506.658177
_symmetry_space_group_name_H-M "C M M M"
_symmetry_group_IT_number 65
_symmetry_cell_setting 'orthorhombic'
loop_
_space_group_symop_operation_xyz
x,y,z
-x,-y,z
x,-y,-z
-x,y,-z
-x,-y,-z
x,y,-z
-x,y,z
x,-y,z
1/2+x,1/2+y,z
1/2-x,1/2-y,z
1/2+x,1/2-y,-z
1/2-x,1/2+y,-z
1/2-x,1/2-y,-z
1/2+x,1/2+y,-z
1/2-x,1/2+y,z
1/2+x,1/2-y,z
loop_
_atom_site_type_symbol
_atom_site_label
_atom_site_fract_x
_atom_site_fract_y
_atom_site_fract_z
Si Si1 0.437889 0.702278 0.723845
Si Si2 0.939772 0.918478 0.276706
Si Si3 0.760362 0.642260 0.709468
Si Si4 0.317979 0.444415 0.274600
Si Si5 0.646801 0.942197 0.777678
Si Si6 0.062538 0.638969 0.222372
Si Si7 0.654932 0.223468 0.290728
O O1 0.436998 0.706955 0.500000
O O2 0.500000 0.722461 0.782503
O O3 0.436740 0.642098 0.768039
O O4 0.381184 0.729816 0.791659
O O5 0.940080 0.922345 0.500000
O O6 0.882459 0.943812 0.217747
O O7 0.000000 0.938172 0.212932
O O8 0.744636 0.655921 0.500000
O O9 0.710167 0.608656 0.791608
O O10 0.807698 0.597775 0.705328
O O11 0.791175 0.692975 0.789456
O O12 0.314977 0.442837 0.500000
O O13 0.292562 0.500000 0.219258
O O14 0.586973 0.917149 0.733431
O O15 0.653515 0.000000 0.711996
O O16 0.652439 0.941930 0.000000
O O17 0.106330 0.680203 0.295737
O O18 0.000000 0.647019 0.287374
O O19 0.063370 0.644174 0.000000
O O20 0.670408 0.237597 0.500000
#
# Coordination Sequence:
#
# PCOD9494375 Si02
#       7
#    16  16  16  16  16  16  16
#     4   8  13  22  37  56  78 104 134 170 209 243
#     4   8  14  24  37  56  83 110 135 166 205 249
#     4   9  17  28  41  59  83 108 135 168 205 243
#     4   9  16  25  38  56  80 111 141 168 204 249
#     4   9  17  28  41  56  75 103 139 175 209 247
#     4   9  17  27  38  55  79 104 133 173 216 251
#     4   9  16  26  41  59  79 107 141 170 199 241
#
# _framework density 24.852118999999998
#
# number of rings (size 3 to 8) (size 9 to 14) (size 15 to 20)
#    0.000    3.286    0.000    1.714    0.000    2.286 
#    0.000    3.571    0.000    4.286    0.000    5.000 
#    0.000    6.286    0.000    3.000    0.000    2.857 
#
# Total GULP energy -312422.948575 kJ/mol
# GULP energy per Si atom -5578.981225 kJ/mol
# Density = 2.479555 g / cm^3
# Si number density = 24.852119 Si / 1000 Ang^3
#
#
#
# Elastic Constant Matrix: (Units=GPa)
#
#
# Indices 1 2 3 4 5 6 
#
# 1 122.0079 48.1540 1.7938 0.0000 0.0000 0.0000
# 2 48.1540 108.6701 2.9201 0.0000 0.0000 0.0000
# 3 1.7938 2.9201 113.2532 0.0000 0.0000 0.0000
# 4 0.0000 0.0000 0.0000 -1.8380 0.0000 0.0000
# 5 0.0000 0.0000 0.0000 0.0000 -6.0880 0.0000
# 6 0.0000 0.0000 0.0000 0.0000 0.0000 43.6434
#
#
#
# Elastic Compliance Matrix: (Units=1/GPa)
#
#
# Indices 1 2 3 4 5 6 
#
# 1 0.009934 -0.004401 -0.000044 0.000000 0.000000 0.000000
# 2 -0.004401 0.011158 -0.000218 0.000000 0.000000 0.000000
# 3 -0.000044 -0.000218 0.008836 0.000000 0.000000 0.000000
# 4 0.000000 0.000000 0.000000 -0.544064 0.000000 0.000000
# 5 0.000000 0.000000 0.000000 0.000000 -0.164257 0.000000
# 6 0.000000 0.000000 0.000000 0.000000 0.000000 0.022913
#
#
# Mechanical properties :
#
#
# Convention : Reuss Voigt Hill
#
# Bulk Modulus (GPa) = 48.53713 49.96300 49.25006
# Shear Modulus (GPa) = -7.82121 26.54771 9.36325
#
# Velocity S-wave (km/s) = -1.77593 3.27192 1.94313
# Velocity P-wave (km/s) = 3.92014 5.86700 4.98945
#
# Compressibility (1/GPa) = 0.02060278
#
# Stress axis : x y z
#
# Youngs Moduli (GPa) = 100.66767 89.62156 113.17229
#
# Poissons Ratio (x) = 0.39439 0.00496
# Poissons Ratio (y) = 0.44300 0.02467
# Poissons Ratio (z) = 0.00442 0.01954
#
# Static dielectric constant tensor:
#      x y z
#    x 1.982720 0.000000 0.000000 
#    y 0.000000 1.954190 0.000000 
#    z 0.000000 0.000000 1.957520 
# 
# From -- ./inp_files/31417.got.cif
#   From: 2010.05.17/outbox.cif.g08.bks.cpg/sg65_16_cif.got.tgz:31417.got - 2010.06.03 17:01:31.
