data_PCOD9494292
_publ_section_title
;
Structure prediction by ZEFSAII (Michael W. Deem and Ramdas Pophale) SiO2 
 PCOD9494292
Probable space group: C M M M
;
_chemical_formula_sum "Si O2"
_cell_formula_units_Z 88
_cell_length_a 19.625635
_cell_length_b 7.367387
_cell_length_c 30.348172
_cell_angle_alpha 90.000000
_cell_angle_beta 90.000000
_cell_angle_gamma 90.000000
_cell_volume 4388.031512
_symmetry_space_group_name_H-M "C M M M"
_symmetry_group_IT_number 65
_symmetry_cell_setting 'orthorhombic'
loop_
_space_group_symop_operation_xyz
x,y,z
-x,-y,z
x,-y,-z
-x,y,-z
-x,-y,-z
x,y,-z
-x,y,z
x,-y,z
1/2+x,1/2+y,z
1/2-x,1/2-y,z
1/2+x,1/2-y,-z
1/2-x,1/2+y,-z
1/2-x,1/2-y,-z
1/2+x,1/2+y,-z
1/2-x,1/2+y,z
1/2+x,1/2-y,z
loop_
_atom_site_type_symbol
_atom_site_label
_atom_site_fract_x
_atom_site_fract_y
_atom_site_fract_z
Si Si1 0.330752 0.282731 0.690967
Si Si2 0.168299 0.782774 0.500000
Si Si3 0.921067 0.221217 0.771996
Si Si4 0.669993 0.283101 0.950982
Si Si5 0.921155 0.778806 0.129502
Si Si6 0.668537 0.716799 0.594881
O O1 0.339606 0.500000 0.689892
O O2 0.250000 0.250000 0.695926
O O3 0.373264 0.214142 0.732530
O O4 0.354383 0.213586 0.642715
O O5 0.250000 0.750000 0.500000
O O6 0.142461 0.713320 0.452526
O O7 0.158330 0.000000 0.500000
O O8 0.899668 0.278281 0.821264
O O9 0.000000 0.273311 0.765498
O O10 0.919505 0.000000 0.771839
O O11 0.660076 0.500000 0.952223
O O12 0.750000 0.250000 0.943801
O O13 0.625502 0.213514 0.910420
O O14 0.652333 0.213323 0.000000
O O15 0.000000 0.727000 0.123247
O O16 0.919276 0.000000 0.129415
O O17 0.657626 0.500000 0.594679
O O18 0.750000 0.750000 0.594792
#
# Coordination Sequence:
#
# PCOD9494292 Si02
#       6
#    16   8  16  16  16  16
#     4   9  16  25  38  57  78  98 123 156 191 225
#     4   8  12  18  28  42  63  91 117 141 175 216
#     4   8  14  25  40  57  77 101 129 159 189 223
#     4   9  17  28  42  61  84 107 129 155 189 228
#     4   8  14  25  41  60  79  99 128 165 195 217
#     4   8  13  20  30  46  68  92 117 146 180 217
#
# _framework density 20.054552000000001
#
# number of rings (size 3 to 8) (size 9 to 14) (size 15 to 20)
#    0.000    3.636    0.000    1.091    0.000    1.091 
#    0.000    1.818    0.000    1.091    0.000    5.727 
#    0.000    5.091    0.000    0.000    0.000  172.909 
#
# Total GULP energy -244992.814360 kJ/mol
# GULP energy per Si atom -5568.018508 kJ/mol
# Density = 2.000891 g / cm^3
# Si number density = 20.054552 Si / 1000 Ang^3
#
#
#
# Elastic Constant Matrix: (Units=GPa)
#
#
# Indices 1 2 3 4 5 6 
#
# 1 50.8809 0.2559 105.7652 0.0000 0.0000 0.0000
# 2 0.2559 75.9789 12.7276 0.0000 0.0000 0.0000
# 3 105.7652 12.7276 290.5224 0.0000 0.0000 0.0000
# 4 0.0000 0.0000 0.0000 -2.5389 0.0000 0.0000
# 5 0.0000 0.0000 0.0000 0.0000 14.0433 0.0000
# 6 0.0000 0.0000 0.0000 0.0000 0.0000 6.8372
#
#
#
# Elastic Compliance Matrix: (Units=1/GPa)
#
#
# Indices 1 2 3 4 5 6 
#
# 1 0.082489 0.004788 -0.030240 0.000000 0.000000 0.000000
# 2 0.004788 0.013537 -0.002336 0.000000 0.000000 0.000000
# 3 -0.030240 -0.002336 0.014553 0.000000 0.000000 0.000000
# 4 0.000000 0.000000 0.000000 -0.393867 0.000000 0.000000
# 5 0.000000 0.000000 0.000000 0.000000 0.071208 0.000000
# 6 0.000000 0.000000 0.000000 0.000000 0.000000 0.146259
#
#
# Mechanical properties :
#
#
# Convention : Reuss Voigt Hill
#
# Bulk Modulus (GPa) = 18.18096 72.76439 45.47268
# Shear Modulus (GPa) = 618.00676 23.57721 320.79199
#
# Velocity S-wave (km/s) = 17.57361 3.43250 12.66124
# Velocity P-wave (km/s) = 20.51490 7.21605 15.37746
#
# Compressibility (1/GPa) = 0.05500260
#
# Stress axis : x y z
#
# Youngs Moduli (GPa) = 12.12281 73.87304 68.71264
#
# Poissons Ratio (x) = -0.35369 2.07787
# Poissons Ratio (y) = -0.05804 0.16052
# Poissons Ratio (z) = 0.36659 0.17257
#
# Static dielectric constant tensor:
#      x y z
#    x 1.646820 0.000000 0.000000 
#    y 0.000000 1.779180 0.000000 
#    z 0.000000 0.000000 1.774120 
# 
# From -- ./inp_files/76755.got.cif
#   From: 2010.05.17/outbox.cif.g08.bks.cpg/sg65_39_cif.got.tgz:76755.got - 2010.06.03 17:01:31.
