data_PCOD9494066
_publ_section_title
;
Structure prediction by ZEFSAII (Michael W. Deem and Ramdas Pophale) SiO2 
 PCOD9494066
Probable space group: C M M M
;
_chemical_formula_sum "Si O2"
_cell_formula_units_Z 48
_cell_length_a 8.240674
_cell_length_b 20.529986
_cell_length_c 12.816240
_cell_angle_alpha 90.000000
_cell_angle_beta 90.000000
_cell_angle_gamma 90.000000
_cell_volume 2168.263298
_symmetry_space_group_name_H-M "C M M M"
_symmetry_group_IT_number 65
_symmetry_cell_setting 'orthorhombic'
loop_
_space_group_symop_operation_xyz
x,y,z
-x,-y,z
x,-y,-z
-x,y,-z
-x,-y,-z
x,y,-z
-x,y,z
x,-y,z
1/2+x,1/2+y,z
1/2-x,1/2-y,z
1/2+x,1/2-y,-z
1/2-x,1/2+y,-z
1/2-x,1/2-y,-z
1/2+x,1/2+y,-z
1/2-x,1/2+y,z
1/2+x,1/2-y,z
loop_
_atom_site_type_symbol
_atom_site_label
_atom_site_fract_x
_atom_site_fract_y
_atom_site_fract_z
Si Si1 0.318136 0.500000 0.375064
Si Si2 0.194561 0.319002 0.836247
Si Si3 0.192554 0.641488 0.383024
Si Si4 0.806091 0.075100 0.000000
O O1 0.500000 0.500000 0.328568
O O2 0.335763 0.500000 0.500000
O O3 0.222993 0.565987 0.354104
O O4 0.250000 0.250000 0.881807
O O5 0.260793 0.321884 0.717293
O O6 0.000000 0.320478 0.834404
O O7 0.251502 0.381526 0.901283
O O8 0.260093 0.654505 0.500000
O O9 0.000000 0.653031 0.388712
O O10 0.000000 0.072404 0.000000
O O11 0.745330 0.000000 0.000000
#
# Coordination Sequence:
#
# PCOD9494066 Si02
#       4
#     8  16  16   8
#     4   9  17  29  49  80 117 158 203 253 303 351
#     4  11  24  42  66  94 128 169 210 257 311 373
#     4   9  19  36  58  87 125 168 209 249 302 368
#     4  11  26  47  70  95 123 159 206 265 320 373
#
# _framework density 22.137532
#
# number of rings (size 3 to 8) (size 9 to 14) (size 15 to 20)
#    0.000    2.000    0.000    2.500    2.333    6.667 
#    0.000    0.000    0.000    0.000    0.000    0.000 
#    0.000    0.000    0.000    0.000    0.000    0.000 
#
# Total GULP energy -133923.687194 kJ/mol
# GULP energy per Si atom -5580.153633 kJ/mol
# Density = 2.208715 g / cm^3
# Si number density = 22.137532 Si / 1000 Ang^3
#
#
#
# Elastic Constant Matrix: (Units=GPa)
#
#
# Indices 1 2 3 4 5 6 
#
# 1 34.7754 4.3814 17.8777 0.0000 0.0000 0.0000
# 2 4.3814 162.6147 73.9015 0.0000 0.0000 0.0000
# 3 17.8777 73.9015 159.8588 0.0000 0.0000 0.0000
# 4 0.0000 0.0000 0.0000 22.2691 0.0000 0.0000
# 5 0.0000 0.0000 0.0000 0.0000 -44.6799 0.0000
# 6 0.0000 0.0000 0.0000 0.0000 0.0000 20.2816
#
#
#
# Elastic Compliance Matrix: (Units=1/GPa)
#
#
# Indices 1 2 3 4 5 6 
#
# 1 0.030620 0.000926 -0.003852 0.000000 0.000000 0.000000
# 2 0.000926 0.007813 -0.003715 0.000000 0.000000 0.000000
# 3 -0.003852 -0.003715 0.008404 0.000000 0.000000 0.000000
# 4 0.000000 0.000000 0.000000 0.044905 0.000000 0.000000
# 5 0.000000 0.000000 0.000000 0.000000 -0.022381 0.000000
# 6 0.000000 0.000000 0.000000 0.000000 0.000000 0.049306
#
#
# Mechanical properties :
#
#
# Convention : Reuss Voigt Hill
#
# Bulk Modulus (GPa) = 29.80386 61.06334 45.43360
# Shear Modulus (GPa) = 34.93214 16.98005 25.95610
#
# Velocity S-wave (km/s) = 3.97666 2.77253 3.42788
# Velocity P-wave (km/s) = 5.88026 6.15571 6.01956
#
# Compressibility (1/GPa) = 0.03355270
#
# Stress axis : x y z
#
# Youngs Moduli (GPa) = 32.65868 127.99055 118.99152
#
# Poissons Ratio (x) = -0.11848 0.45839
# Poissons Ratio (y) = -0.03023 0.44211
# Poissons Ratio (z) = 0.12581 0.47554
#
# Static dielectric constant tensor:
#      x y z
#    x 1.775080 0.000000 0.000000 
#    y 0.000000 1.799880 0.000000 
#    z 0.000000 0.000000 1.886510 
# 
# From -- ./inp_files/35079.got.cif
#   From: 2010.05.17/outbox.cif.g08.bks.cpg/sg65_18_cif.got.tgz:35079.got - 2010.06.03 17:01:31.
