data_PCOD9494456
_publ_section_title
;
Structure prediction by ZEFSAII (Michael W. Deem and Ramdas Pophale) SiO2 
 PCOD9494456
Probable space group: C M M M
;
_chemical_formula_sum "Si O2"
_cell_formula_units_Z 72
_cell_length_a 27.941611
_cell_length_b 7.371060
_cell_length_c 14.128644
_cell_angle_alpha 90.000000
_cell_angle_beta 90.000000
_cell_angle_gamma 90.000000
_cell_volume 2909.925504
_symmetry_space_group_name_H-M "C M M M"
_symmetry_group_IT_number 65
_symmetry_cell_setting 'orthorhombic'
loop_
_space_group_symop_operation_xyz
x,y,z
-x,-y,z
x,-y,-z
-x,y,-z
-x,-y,-z
x,y,-z
-x,y,z
x,-y,z
1/2+x,1/2+y,z
1/2-x,1/2-y,z
1/2+x,1/2-y,-z
1/2-x,1/2+y,-z
1/2-x,1/2-y,-z
1/2+x,1/2+y,-z
1/2-x,1/2+y,z
1/2+x,1/2-y,z
loop_
_atom_site_type_symbol
_atom_site_label
_atom_site_fract_x
_atom_site_fract_y
_atom_site_fract_z
Si Si1 0.148058 0.777756 0.897362
Si Si2 0.307683 0.716875 0.500000
Si Si3 0.556687 0.217638 0.398390
Si Si4 0.306577 0.716286 0.296914
Si Si5 0.553450 0.711664 0.811774
O O1 0.174499 0.713447 0.802968
O O2 0.093218 0.717323 0.882511
O O3 0.149260 0.000000 0.896248
O O4 0.166701 0.720812 0.000000
O O5 0.314102 0.500000 0.500000
O O6 0.250000 0.750000 0.500000
O O7 0.325819 0.788237 0.398391
O O8 0.576422 0.283440 0.500000
O O9 0.500000 0.268029 0.398252
O O10 0.574025 0.278858 0.295698
O O11 0.559035 0.000000 0.398574
O O12 0.314918 0.500000 0.297831
O O13 0.250000 0.750000 0.298031
O O14 0.500000 0.791779 0.813814
O O15 0.548709 0.500000 0.833536
#
# Coordination Sequence:
#
# PCOD9494456 Si02
#       5
#    16   8  16  16  16
#     4   9  18  32  48  69  98 129 162 200 242 287
#     4   8  14  26  46  70  93 117 149 185 228 280
#     4   8  14  26  44  64  89 123 157 190 236 291
#     4   9  17  31  51  73  96 124 155 192 238 288
#     4   9  17  29  46  69  94 123 163 206 241 274
#
# _framework density 24.742902000000001
#
# number of rings (size 3 to 8) (size 9 to 14) (size 15 to 20)
#    0.000    3.333    0.000    0.667    0.000    1.333 
#    2.000    5.556    0.000    2.000    0.000    3.111 
#    0.000    0.000    0.000    0.000    0.000    0.000 
#
# Total GULP energy -200914.262802 kJ/mol
# GULP energy per Si atom -5580.951745 kJ/mol
# Density = 2.468659 g / cm^3
# Si number density = 24.742902 Si / 1000 Ang^3
#
#
#
# Elastic Constant Matrix: (Units=GPa)
#
#
# Indices 1 2 3 4 5 6 
#
# 1 57.5109 -3.4211 63.6629 0.0000 0.0000 0.0000
# 2 -3.4211 96.7552 4.1605 0.0000 0.0000 0.0000
# 3 63.6629 4.1605 249.0497 0.0000 0.0000 0.0000
# 4 0.0000 0.0000 0.0000 56.4029 0.0000 0.0000
# 5 0.0000 0.0000 0.0000 0.0000 36.2323 0.0000
# 6 0.0000 0.0000 0.0000 0.0000 0.0000 5.8359
#
#
#
# Elastic Compliance Matrix: (Units=1/GPa)
#
#
# Indices 1 2 3 4 5 6 
#
# 1 0.024373 0.001130 -0.006249 0.000000 0.000000 0.000000
# 2 0.001130 0.010395 -0.000463 0.000000 0.000000 0.000000
# 3 -0.006249 -0.000463 0.005620 0.000000 0.000000 0.000000
# 4 0.000000 0.000000 0.000000 0.017730 0.000000 0.000000
# 5 0.000000 0.000000 0.000000 0.000000 0.027600 0.000000
# 6 0.000000 0.000000 0.000000 0.000000 0.000000 0.171353
#
#
# Mechanical properties :
#
#
# Convention : Reuss Voigt Hill
#
# Bulk Modulus (GPa) = 34.21621 59.12452 46.67037
# Shear Modulus (GPa) = 17.98722 42.28845 30.13784
#
# Velocity S-wave (km/s) = 2.69915 4.13863 3.49383
# Velocity P-wave (km/s) = 4.85516 6.83996 5.93118
#
# Compressibility (1/GPa) = 0.02922591
#
# Stress axis : x y z
#
# Youngs Moduli (GPa) = 41.02919 96.19804 177.92255
#
# Poissons Ratio (x) = -0.10875 1.11187
# Poissons Ratio (y) = -0.04638 0.08231
# Poissons Ratio (z) = 0.25640 0.04450
#
# Static dielectric constant tensor:
#      x y z
#    x 1.984120 0.000000 0.000000 
#    y 0.000000 2.131220 0.000000 
#    z 0.000000 0.000000 1.984100 
# 
# From -- ./inp_files/31967.got.cif
#   From: 2010.05.17/outbox.cif.g08.bks.cpg/sg65_16_cif.got.tgz:31967.got - 2010.06.03 17:01:31.
