data_PCOD9494987
_publ_section_title
;
Structure prediction by ZEFSAII (Michael W. Deem and Ramdas Pophale) SiO2 
 PCOD9494987
Probable space group: C C C M
;
_chemical_formula_sum "Si O2"
_cell_formula_units_Z 88
_cell_length_a 23.560280
_cell_length_b 7.309937
_cell_length_c 20.783557
_cell_angle_alpha 90.000000
_cell_angle_beta 90.000000
_cell_angle_gamma 90.000000
_cell_volume 3579.430698
_symmetry_space_group_name_H-M "C C C M"
_symmetry_group_IT_number 66
_symmetry_cell_setting 'orthorhombic'
loop_
_space_group_symop_operation_xyz
x,y,z
-x,-y,z
x,-y,1/2-z
-x,y,1/2-z
-x,-y,-z
x,y,-z
-x,y,1/2+z
x,-y,1/2+z
1/2+x,1/2+y,z
1/2-x,1/2-y,z
1/2+x,1/2-y,1/2-z
1/2-x,1/2+y,1/2-z
1/2-x,1/2-y,-z
1/2+x,1/2+y,-z
1/2-x,1/2+y,1/2+z
1/2+x,1/2-y,1/2+z
loop_
_atom_site_type_symbol
_atom_site_label
_atom_site_fract_x
_atom_site_fract_y
_atom_site_fract_z
Si Si1 0.392829 0.742082 0.000000
Si Si2 0.988313 0.780425 0.609184
Si Si3 0.110453 0.697808 0.368141
Si Si4 0.829694 0.903058 0.623572
Si Si5 0.411905 0.710247 0.772051
Si Si6 0.279094 0.049381 0.074197
O O1 0.442320 0.762765 0.055915
O O2 0.347276 0.687918 0.056970
O O3 0.961558 0.733927 0.678871
O O4 0.049334 0.689583 0.598603
O O5 0.000000 0.000000 0.608150
O O6 0.136653 0.901788 0.376310
O O7 0.098731 0.676944 0.292478
O O8 0.157437 0.569668 0.399405
O O9 0.762999 0.940677 0.620442
O O10 0.854705 0.801306 0.685383
O O11 0.424737 0.500000 0.750000
O O12 0.250000 0.250000 0.072981
O O13 0.280188 0.990048 0.000000
#
# Coordination Sequence:
#
# PCOD9494987 Si02
#       6
#     8  16  16  16  16  16
#     4  10  17  22  31  52  67 100 142 171 201 231
#     4  11  17  20  34  46  73  98 134 173 197 229
#     4  10  18  22  33  49  71 100 135 177 202 242
#     4   9  16  25  36  45  68 100 138 182 198 240
#     4   9  16  25  34  48  67 101 138 174 196 230
#     4   9  17  25  35  48  71 101 137 172 216 245
#
# _framework density 24.584914999999999
#
# number of rings (size 3 to 8) (size 9 to 14) (size 15 to 20)
#    0.000    2.364    6.364    0.818    2.545    0.000 
#    0.000    0.000    0.000    0.000    0.000    0.000 
#    0.000    0.000   12.364  165.091    0.000  245.455 
#
# Total GULP energy -245423.919810 kJ/mol
# GULP energy per Si atom -5577.816359 kJ/mol
# Density = 2.452896 g / cm^3
# Si number density = 24.584915 Si / 1000 Ang^3
#
#
#
# Elastic Constant Matrix: (Units=GPa)
#
#
# Indices 1 2 3 4 5 6 
#
# 1 195.2164 11.6216 26.7843 0.0000 0.0000 0.0000
# 2 11.6216 77.7158 9.2767 0.0000 0.0000 0.0000
# 3 26.7843 9.2767 83.7087 0.0000 0.0000 0.0000
# 4 0.0000 0.0000 0.0000 2.9842 0.0000 0.0000
# 5 0.0000 0.0000 0.0000 0.0000 33.6062 0.0000
# 6 0.0000 0.0000 0.0000 0.0000 0.0000 13.5089
#
#
#
# Elastic Compliance Matrix: (Units=1/GPa)
#
#
# Indices 1 2 3 4 5 6 
#
# 1 0.005386 -0.000608 -0.001656 0.000000 0.000000 0.000000
# 2 -0.000608 0.013108 -0.001258 0.000000 0.000000 0.000000
# 3 -0.001656 -0.001258 0.012615 0.000000 0.000000 0.000000
# 4 0.000000 0.000000 0.000000 0.335094 0.000000 0.000000
# 5 0.000000 0.000000 0.000000 0.000000 0.029756 0.000000
# 6 0.000000 0.000000 0.000000 0.000000 0.000000 0.074025
#
#
# Mechanical properties :
#
#
# Convention : Reuss Voigt Hill
#
# Bulk Modulus (GPa) = 41.55248 50.22290 45.88769
# Shear Modulus (GPa) = 10.30818 30.61708 20.46263
#
# Velocity S-wave (km/s) = 2.04988 3.53279 2.88813
# Velocity P-wave (km/s) = 4.74773 6.09209 5.46143
#
# Compressibility (1/GPa) = 0.02406595
#
# Stress axis : x y z
#
# Youngs Moduli (GPa) = 185.66978 76.28656 79.26765
#
# Poissons Ratio (x) = 0.04636 0.13127
# Poissons Ratio (y) = 0.11284 0.09974
# Poissons Ratio (z) = 0.30747 0.09599
#
# Static dielectric constant tensor:
#      x y z
#    x 1.915210 0.000000 0.000000 
#    y 0.000000 2.155460 0.000000 
#    z 0.000000 0.000000 1.857630 
# 
# From -- ./inp_files/51053.got.cif
#   From: 2010.05.17/outbox.cif.g08.bks.cpg/sg66_26_cif.got.tgz:51053.got - 2010.06.03 17:51:23.
