data_PCOD9494214
_publ_section_title
;
Structure prediction by ZEFSAII (Michael W. Deem and Ramdas Pophale) SiO2 
 PCOD9494214
Probable space group: C M M M
;
_chemical_formula_sum "Si O2"
_cell_formula_units_Z 64
_cell_length_a 7.279434
_cell_length_b 15.157597
_cell_length_c 24.515147
_cell_angle_alpha 90.000000
_cell_angle_beta 90.000000
_cell_angle_gamma 90.000000
_cell_volume 2704.970111
_symmetry_space_group_name_H-M "C M M M"
_symmetry_group_IT_number 65
_symmetry_cell_setting 'orthorhombic'
loop_
_space_group_symop_operation_xyz
x,y,z
-x,-y,z
x,-y,-z
-x,y,-z
-x,-y,-z
x,y,-z
-x,y,z
x,-y,z
1/2+x,1/2+y,z
1/2-x,1/2-y,z
1/2+x,1/2-y,-z
1/2-x,1/2+y,-z
1/2-x,1/2-y,-z
1/2+x,1/2+y,-z
1/2-x,1/2+y,z
1/2+x,1/2-y,z
loop_
_atom_site_type_symbol
_atom_site_label
_atom_site_fract_x
_atom_site_fract_y
_atom_site_fract_z
Si Si1 0.224798 0.396460 0.000000
Si Si2 0.724474 0.000000 0.562420
Si Si3 0.290260 0.105667 0.883826
Si Si4 0.217900 0.645837 0.765235
Si Si5 0.280849 0.854623 0.646711
O O1 0.287493 0.359627 0.058607
O O2 0.277057 0.500000 0.000000
O O3 0.000000 0.393529 0.000000
O O4 0.784042 0.085458 0.597027
O O5 0.500000 0.000000 0.561189
O O6 0.785682 0.000000 0.500000
O O7 0.500000 0.140279 0.880699
O O8 0.205583 0.120227 0.824377
O O9 0.298997 0.000000 0.889895
O O10 0.250000 0.750000 0.762120
O O11 0.288669 0.614059 0.706421
O O12 0.000000 0.623887 0.766801
O O13 0.500000 0.865784 0.649269
O O14 0.250000 0.750000 0.639480
#
# Coordination Sequence:
#
# PCOD9494214 Si02
#       5
#     8   8  16  16  16
#     4   7  10  18  31  52  81 105 130 173 222 256
#     4   9  18  32  51  75  99 124 158 196 231 273
#     4   8  13  21  37  59  80 105 140 180 217 253
#     4   9  17  28  43  63  87 113 142 178 218 262
#     4   9  18  32  50  71  97 127 157 192 234 277
#
# _framework density 23.660150000000002
#
# number of rings (size 3 to 8) (size 9 to 14) (size 15 to 20)
#    0.000    3.500    0.000    1.500    1.750    0.500 
#    0.000    1.250    0.000    1.500    0.000    0.000 
#    0.000    3.000    0.000    0.000    0.000    0.000 
#
# Total GULP energy -178287.820244 kJ/mol
# GULP energy per Si atom -5571.494383 kJ/mol
# Density = 2.360630 g / cm^3
# Si number density = 23.660150 Si / 1000 Ang^3
#
#
#
# Elastic Constant Matrix: (Units=GPa)
#
#
# Indices 1 2 3 4 5 6 
#
# 1 106.9535 -6.7675 18.7126 0.0000 0.0000 0.0000
# 2 -6.7675 69.7696 80.4581 0.0000 0.0000 0.0000
# 3 18.7126 80.4581 341.6780 0.0000 0.0000 0.0000
# 4 0.0000 0.0000 0.0000 54.1958 0.0000 0.0000
# 5 0.0000 0.0000 0.0000 0.0000 -27.1145 0.0000
# 6 0.0000 0.0000 0.0000 0.0000 0.0000 3.6860
#
#
#
# Elastic Compliance Matrix: (Units=1/GPa)
#
#
# Indices 1 2 3 4 5 6 
#
# 1 0.009664 0.002125 -0.001030 0.000000 0.000000 0.000000
# 2 0.002125 0.020143 -0.004860 0.000000 0.000000 0.000000
# 3 -0.001030 -0.004860 0.004127 0.000000 0.000000 0.000000
# 4 0.000000 0.000000 0.000000 0.018452 0.000000 0.000000
# 5 0.000000 0.000000 0.000000 0.000000 -0.036881 0.000000
# 6 0.000000 0.000000 0.000000 0.000000 0.000000 0.271294
#
#
# Mechanical properties :
#
#
# Convention : Reuss Voigt Hill
#
# Bulk Modulus (GPa) = 37.87005 78.13416 58.00211
# Shear Modulus (GPa) = 16.49452 34.55334 25.52393
#
# Velocity S-wave (km/s) = 2.64321 3.82567 3.28803
# Velocity P-wave (km/s) = 5.03548 7.25324 6.24362
#
# Compressibility (1/GPa) = 0.02640609
#
# Stress axis : x y z
#
# Youngs Moduli (GPa) = 103.47197 49.64466 242.27904
#
# Poissons Ratio (x) = -0.10549 0.24946
# Poissons Ratio (y) = -0.21986 1.17739
# Poissons Ratio (z) = 0.10654 0.24126
#
# Static dielectric constant tensor:
#      x y z
#    x 1.931780 0.000000 0.000000 
#    y 0.000000 1.855120 0.000000 
#    z 0.000000 0.000000 1.960490 
# 
# From -- ./inp_files/58867.got.cif
#   From: 2010.05.17/outbox.cif.g08.bks.cpg/sg65_30_cif.got.tgz:58867.got - 2010.06.03 17:01:31.
