data_PCOD9494286
_publ_section_title
;
Structure prediction by ZEFSAII (Michael W. Deem and Ramdas Pophale) SiO2 
 PCOD9494286
Probable space group: C M M M
;
_chemical_formula_sum "Si O2"
_cell_formula_units_Z 72
_cell_length_a 15.101947
_cell_length_b 38.566776
_cell_length_c 7.274953
_cell_angle_alpha 90.000000
_cell_angle_beta 90.000000
_cell_angle_gamma 90.000000
_cell_volume 4237.175662
_symmetry_space_group_name_H-M "C M M M"
_symmetry_group_IT_number 65
_symmetry_cell_setting 'orthorhombic'
loop_
_space_group_symop_operation_xyz
x,y,z
-x,-y,z
x,-y,-z
-x,y,-z
-x,-y,-z
x,y,-z
-x,y,z
x,-y,z
1/2+x,1/2+y,z
1/2-x,1/2-y,z
1/2+x,1/2-y,-z
1/2-x,1/2+y,-z
1/2-x,1/2-y,-z
1/2+x,1/2+y,-z
1/2-x,1/2+y,z
1/2+x,1/2-y,z
loop_
_atom_site_type_symbol
_atom_site_label
_atom_site_fract_x
_atom_site_fract_y
_atom_site_fract_z
Si Si1 0.896030 0.097727 0.780647
Si Si2 0.281770 0.336018 0.776048
Si Si3 0.101285 0.228667 0.776763
Si Si4 0.606989 0.539157 0.500000
Si Si5 0.899938 0.692169 0.223703
O O1 0.835242 0.129860 0.720903
O O2 0.869972 0.062691 0.675687
O O3 0.000000 0.105153 0.740269
O O4 0.888563 0.093593 0.000000
O O5 0.333094 0.301325 0.715808
O O6 0.179784 0.332594 0.718413
O O7 0.283266 0.335927 0.000000
O O8 0.121114 0.268102 0.720549
O O9 0.000000 0.220771 0.724270
O O10 0.104200 0.228777 0.000000
O O11 0.642173 0.500000 0.500000
O O12 0.500000 0.536644 0.500000
O O13 0.000000 0.683822 0.283074
O O14 0.901063 0.692167 0.000000
#
# Coordination Sequence:
#
# PCOD9494286 Si02
#       5
#    16  16  16   8  16
#     4   9  17  28  43  65  90 114 141 171 203 243
#     4   9  14  20  32  51  78 109 140 177 217 250
#     4   8  12  17  26  43  70 105 143 180 216 251
#     4   9  18  32  48  66  90 117 139 161 196 246
#     4   8  13  19  27  44  73 108 146 185 218 249
#
# _framework density 16.992450999999999
#
# number of rings (size 3 to 8) (size 9 to 14) (size 15 to 20)
#    0.000    3.444    0.000    2.667    0.000    5.778 
#    0.000    2.222    0.000    0.000    0.000    3.889 
#    0.000    5.333    0.000    9.111    0.000    0.222 
#
# Total GULP energy -200712.166004 kJ/mol
# GULP energy per Si atom -5575.337945 kJ/mol
# Density = 1.695378 g / cm^3
# Si number density = 16.992451 Si / 1000 Ang^3
#
#
#
# Elastic Constant Matrix: (Units=GPa)
#
#
# Indices 1 2 3 4 5 6 
#
# 1 102.8655 88.8134 21.3642 0.0000 0.0000 0.0000
# 2 88.8134 119.2328 25.9004 0.0000 0.0000 0.0000
# 3 21.3642 25.9004 74.1279 0.0000 0.0000 0.0000
# 4 0.0000 0.0000 0.0000 29.7746 0.0000 0.0000
# 5 0.0000 0.0000 0.0000 0.0000 -7.5267 0.0000
# 6 0.0000 0.0000 0.0000 0.0000 0.0000 15.4510
#
#
#
# Elastic Compliance Matrix: (Units=1/GPa)
#
#
# Indices 1 2 3 4 5 6 
#
# 1 0.027287 -0.020146 -0.000825 0.000000 0.000000 0.000000
# 2 -0.020146 0.023950 -0.002562 0.000000 0.000000 0.000000
# 3 -0.000825 -0.002562 0.014623 0.000000 0.000000 0.000000
# 4 0.000000 0.000000 0.000000 0.033586 0.000000 0.000000
# 5 0.000000 0.000000 0.000000 0.000000 -0.132861 0.000000
# 6 0.000000 0.000000 0.000000 0.000000 0.000000 0.064721
#
#
# Mechanical properties :
#
#
# Convention : Reuss Voigt Hill
#
# Bulk Modulus (GPa) = 53.20977 63.15358 58.18168
# Shear Modulus (GPa) = 59.07691 18.21633 38.64662
#
# Velocity S-wave (km/s) = 5.90271 3.27773 4.77418
# Velocity P-wave (km/s) = 8.82257 7.18130 8.04391
#
# Compressibility (1/GPa) = 0.01879354
#
# Stress axis : x y z
#
# Youngs Moduli (GPa) = 36.64805 41.75445 68.38479
#
# Poissons Ratio (x) = 0.84118 0.05643
# Poissons Ratio (y) = 0.73830 0.17519
# Poissons Ratio (z) = 0.03024 0.10697
#
# Static dielectric constant tensor:
#      x y z
#    x 1.576180 0.000000 0.000000 
#    y 0.000000 1.539460 0.000000 
#    z 0.000000 0.000000 1.671380 
# 
# From -- ./inp_files/7652.got.cif
#   From: 2010.05.17/outbox.cif.g08.bks.cpg/sg65_4_cif.got.tgz:7652.got - 2010.06.03 17:01:31.
