data_PCOD9494476
_publ_section_title
;
Structure prediction by ZEFSAII (Michael W. Deem and Ramdas Pophale) SiO2 
 PCOD9494476
Probable space group: C M M M
;
_chemical_formula_sum "Si O2"
_cell_formula_units_Z 80
_cell_length_a 26.371194
_cell_length_b 9.229304
_cell_length_c 22.926282
_cell_angle_alpha 90.000000
_cell_angle_beta 90.000000
_cell_angle_gamma 90.000000
_cell_volume 5579.976565
_symmetry_space_group_name_H-M "C M M M"
_symmetry_group_IT_number 65
_symmetry_cell_setting 'orthorhombic'
loop_
_space_group_symop_operation_xyz
x,y,z
-x,-y,z
x,-y,-z
-x,y,-z
-x,-y,-z
x,y,-z
-x,y,z
x,-y,z
1/2+x,1/2+y,z
1/2-x,1/2-y,z
1/2+x,1/2-y,-z
1/2-x,1/2+y,-z
1/2-x,1/2-y,-z
1/2+x,1/2+y,-z
1/2-x,1/2+y,z
1/2+x,1/2-y,z
loop_
_atom_site_type_symbol
_atom_site_label
_atom_site_fract_x
_atom_site_fract_y
_atom_site_fract_z
Si Si1 0.938286 0.666788 0.116678
Si Si2 0.439527 0.672919 0.235136
Si Si3 0.803193 0.173925 0.568051
Si Si4 0.000000 0.176874 0.567164
Si Si5 0.901290 0.176540 0.639717
Si Si6 0.938158 0.167158 0.000000
O O1 0.922095 0.500000 0.115240
O O2 0.923458 0.745078 0.176621
O O3 0.000000 0.668507 0.115960
O O4 0.921643 0.751537 0.058763
O O5 0.500000 0.697010 0.244616
O O6 0.433119 0.500000 0.227203
O O7 0.410305 0.720130 0.293406
O O8 0.815889 0.204219 0.500000
O O9 0.750000 0.250000 0.581431
O O10 0.849019 0.222136 0.609630
O O11 0.797682 0.000000 0.573329
O O12 0.949533 0.223244 0.601215
O O13 0.000000 0.223289 0.500000
O O14 0.000000 0.000000 0.567362
O O15 0.901768 0.000000 0.639288
O O16 0.000000 0.168934 0.000000
O O17 0.922417 0.000000 0.000000
#
# Coordination Sequence:
#
# PCOD9494476 Si02
#       6
#    16  16  16   8  16   8
#     4   9  16  24  34  49  72 101 133 166 198 232
#     4   9  15  24  37  53  75 102 131 162 199 243
#     4   9  17  29  44  61  80 103 133 169 209 252
#     4   9  14  20  34  58  83 102 125 164 211 249
#     4   9  15  24  38  58  81 104 131 167 208 248
#     4   9  15  23  35  51  69  95 134 173 204 229
#
# _framework density 14.336976999999999
#
# number of rings (size 3 to 8) (size 9 to 14) (size 15 to 20)
#    0.000    3.000    1.000    1.500    0.000    6.000 
#    0.000    1.000    0.000    0.000    0.000    0.000 
#    0.000    4.800    0.000    0.900    0.000   10.900 
#
# Total GULP energy -222713.593181 kJ/mol
# GULP energy per Si atom -5567.839830 kJ/mol
# Density = 1.430435 g / cm^3
# Si number density = 14.336977 Si / 1000 Ang^3
#
#
#
# Elastic Constant Matrix: (Units=GPa)
#
#
# Indices 1 2 3 4 5 6 
#
# 1 66.1680 29.3297 64.8905 0.0000 0.0000 0.0000
# 2 29.3297 47.3189 60.0447 0.0000 0.0000 0.0000
# 3 64.8905 60.0447 167.0087 0.0000 0.0000 0.0000
# 4 0.0000 0.0000 0.0000 9.6190 0.0000 0.0000
# 5 0.0000 0.0000 0.0000 0.0000 12.5029 0.0000
# 6 0.0000 0.0000 0.0000 0.0000 0.0000 11.7646
#
#
#
# Elastic Compliance Matrix: (Units=1/GPa)
#
#
# Indices 1 2 3 4 5 6 
#
# 1 0.025280 -0.005895 -0.007703 0.000000 0.000000 0.000000
# 2 -0.005895 0.040238 -0.012177 0.000000 0.000000 0.000000
# 3 -0.007703 -0.012177 0.013359 0.000000 0.000000 0.000000
# 4 0.000000 0.000000 0.000000 0.103961 0.000000 0.000000
# 5 0.000000 0.000000 0.000000 0.000000 0.079981 0.000000
# 6 0.000000 0.000000 0.000000 0.000000 0.000000 0.085001
#
#
# Mechanical properties :
#
#
# Convention : Reuss Voigt Hill
#
# Bulk Modulus (GPa) = 36.59201 65.44727 51.01964
# Shear Modulus (GPa) = 12.24054 15.19268 13.71661
#
# Velocity S-wave (km/s) = 2.92511 3.25881 3.09646
# Velocity P-wave (km/s) = 6.08166 7.74004 6.96042
#
# Compressibility (1/GPa) = 0.02732837
#
# Stress axis : x y z
#
# Youngs Moduli (GPa) = 39.55619 24.85204 74.85791
#
# Poissons Ratio (x) = 0.14649 0.57666
# Poissons Ratio (y) = 0.23317 0.91151
# Poissons Ratio (z) = 0.30471 0.30261
#
# Static dielectric constant tensor:
#      x y z
#    x 1.442880 0.000000 0.000000 
#    y 0.000000 1.479230 0.000000 
#    z 0.000000 0.000000 1.476600 
# 
# From -- ./inp_files/71351.got.cif
#   From: 2010.05.17/outbox.cif.g08.bks.cpg/sg65_36_cif.got.tgz:71351.got - 2010.06.03 17:01:31.
