data_PCOD9494386
_publ_section_title
;
Structure prediction by ZEFSAII (Michael W. Deem and Ramdas Pophale) SiO2 
 PCOD9494386
Probable space group: C M M M
;
_chemical_formula_sum "Si O2"
_cell_formula_units_Z 80
_cell_length_a 29.734930
_cell_length_b 7.439858
_cell_length_c 15.895750
_cell_angle_alpha 90.000000
_cell_angle_beta 90.000000
_cell_angle_gamma 90.000000
_cell_volume 3516.515943
_symmetry_space_group_name_H-M "C M M M"
_symmetry_group_IT_number 65
_symmetry_cell_setting 'orthorhombic'
loop_
_space_group_symop_operation_xyz
x,y,z
-x,-y,z
x,-y,-z
-x,y,-z
-x,-y,-z
x,y,-z
-x,y,z
x,-y,z
1/2+x,1/2+y,z
1/2-x,1/2-y,z
1/2+x,1/2-y,-z
1/2-x,1/2+y,-z
1/2-x,1/2-y,-z
1/2+x,1/2+y,-z
1/2-x,1/2+y,z
1/2+x,1/2-y,z
loop_
_atom_site_type_symbol
_atom_site_label
_atom_site_fract_x
_atom_site_fract_y
_atom_site_fract_z
Si Si1 0.552799 0.215702 0.909915
Si Si2 0.124660 0.220401 0.596281
Si Si3 0.550700 0.712125 0.274356
Si Si4 0.803811 0.784929 0.089827
Si Si5 0.197099 0.784953 0.272287
O O1 0.500000 0.271435 0.908544
O O2 0.571350 0.270272 0.819411
O O3 0.553815 0.000000 0.911448
O O4 0.571594 0.280745 0.000000
O O5 0.123891 0.279698 0.500000
O O6 0.082357 0.281893 0.652095
O O7 0.168228 0.279208 0.649107
O O8 0.124391 0.000000 0.594988
O O9 0.500000 0.788473 0.274109
O O10 0.546863 0.500000 0.288893
O O11 0.750000 0.750000 0.089582
O O12 0.818859 0.714206 0.180709
O O13 0.810695 0.000000 0.089257
O O14 0.821259 0.713296 0.000000
O O15 0.250000 0.750000 0.281738
O O16 0.191376 0.000000 0.268792
#
# Coordination Sequence:
#
# PCOD9494386 Si02
#       5
#    16  16  16  16  16
#     4   8  14  26  45  68  95 128 159 185 224 280
#     4   9  18  32  48  67  93 123 155 195 243 288
#     4   9  17  29  47  71  95 121 158 200 235 270
#     4   8  13  22  38  60  84 109 138 172 211 258
#     4   9  17  30  48  68  90 118 151 186 228 278
#
# _framework density 22.749790000000001
#
# number of rings (size 3 to 8) (size 9 to 14) (size 15 to 20)
#    0.000    3.400    0.000    0.600    0.000    1.200 
#    0.000    6.000    0.000    5.400    0.000   14.000 
#    0.000    0.000    0.000    0.000    0.000    0.000 
#
# Total GULP energy -223028.108046 kJ/mol
# GULP energy per Si atom -5575.702701 kJ/mol
# Density = 2.269801 g / cm^3
# Si number density = 22.749790 Si / 1000 Ang^3
#
#
#
# Elastic Constant Matrix: (Units=GPa)
#
#
# Indices 1 2 3 4 5 6 
#
# 1 98.6651 -3.5388 92.9601 0.0000 0.0000 0.0000
# 2 -3.5388 74.5035 7.5353 0.0000 0.0000 0.0000
# 3 92.9601 7.5353 295.2732 0.0000 0.0000 0.0000
# 4 0.0000 0.0000 0.0000 2.1660 0.0000 0.0000
# 5 0.0000 0.0000 0.0000 0.0000 43.4869 0.0000
# 6 0.0000 0.0000 0.0000 0.0000 0.0000 4.4555
#
#
#
# Elastic Compliance Matrix: (Units=1/GPa)
#
#
# Indices 1 2 3 4 5 6 
#
# 1 0.014508 0.001154 -0.004597 0.000000 0.000000 0.000000
# 2 0.001154 0.013549 -0.000709 0.000000 0.000000 0.000000
# 3 -0.004597 -0.000709 0.004852 0.000000 0.000000 0.000000
# 4 0.000000 0.000000 0.000000 0.461674 0.000000 0.000000
# 5 0.000000 0.000000 0.000000 0.000000 0.022995 0.000000
# 6 0.000000 0.000000 0.000000 0.000000 0.000000 0.224440
#
#
# Mechanical properties :
#
#
# Convention : Reuss Voigt Hill
#
# Bulk Modulus (GPa) = 40.64281 73.59503 57.11892
# Shear Modulus (GPa) = 6.59175 34.78736 20.68956
#
# Velocity S-wave (km/s) = 1.70405 3.91465 3.01896
# Velocity P-wave (km/s) = 4.66644 7.26998 6.10853
#
# Compressibility (1/GPa) = 0.02460460
#
# Stress axis : x y z
#
# Youngs Moduli (GPa) = 68.92855 73.80774 206.09981
#
# Poissons Ratio (x) = -0.08518 0.94742
# Poissons Ratio (y) = -0.07954 0.14614
# Poissons Ratio (z) = 0.31686 0.05234
#
# Static dielectric constant tensor:
#      x y z
#    x 1.634070 0.000000 0.000000 
#    y 0.000000 1.874120 0.000000 
#    z 0.000000 0.000000 1.862950 
# 
# From -- ./inp_files/46674.got.cif
#   From: 2010.05.17/outbox.cif.g08.bks.cpg/sg65_24_cif.got.tgz:46674.got - 2010.06.03 17:01:31.
