data_PCOD9494447
_publ_section_title
;
Structure prediction by ZEFSAII (Michael W. Deem and Ramdas Pophale) SiO2 
 PCOD9494447
Probable space group: C M M M
;
_chemical_formula_sum "Si O2"
_cell_formula_units_Z 88
_cell_length_a 18.520104
_cell_length_b 31.794930
_cell_length_c 7.478685
_cell_angle_alpha 90.000000
_cell_angle_beta 90.000000
_cell_angle_gamma 90.000000
_cell_volume 4403.789337
_symmetry_space_group_name_H-M "C M M M"
_symmetry_group_IT_number 65
_symmetry_cell_setting 'orthorhombic'
loop_
_space_group_symop_operation_xyz
x,y,z
-x,-y,z
x,-y,-z
-x,y,-z
-x,-y,-z
x,y,-z
-x,y,z
x,-y,z
1/2+x,1/2+y,z
1/2-x,1/2-y,z
1/2+x,1/2-y,-z
1/2-x,1/2+y,-z
1/2-x,1/2-y,-z
1/2+x,1/2+y,-z
1/2-x,1/2+y,z
1/2+x,1/2-y,z
loop_
_atom_site_type_symbol
_atom_site_label
_atom_site_fract_x
_atom_site_fract_y
_atom_site_fract_z
Si Si1 0.699161 0.616748 0.713480
Si Si2 0.643899 0.912170 0.716815
Si Si3 0.916299 0.047869 0.281861
Si Si4 0.417391 0.000000 0.718497
Si Si5 0.733838 0.796962 0.215145
Si Si6 0.421817 0.173334 0.208977
O O1 0.698021 0.611968 0.500000
O O2 0.776148 0.599601 0.780604
O O3 0.634923 0.586296 0.779650
O O4 0.706661 0.666949 0.745218
O O5 0.644238 0.911311 0.500000
O O6 0.621600 0.957951 0.777308
O O7 0.588180 0.876758 0.777692
O O8 0.915296 0.048026 0.500000
O O9 0.000000 0.053700 0.228134
O O10 0.893803 0.000000 0.228823
O O11 0.500000 0.000000 0.774798
O O12 0.416621 0.000000 0.500000
O O13 0.750000 0.750000 0.278632
O O14 0.654126 0.809847 0.284995
O O15 0.729595 0.795934 0.000000
O O16 0.500000 0.185625 0.285801
O O17 0.422932 0.185234 0.000000
#
# Coordination Sequence:
#
# PCOD9494447 Si02
#       6
#    16  16  16   8  16  16
#     4   9  17  28  46  70  91 115 150 190 225 261
#     4   9  17  27  41  62  87 115 145 179 215 251
#     4   8  14  25  43  68  97 127 156 187 226 274
#     4   9  16  24  35  55  84 114 140 169 207 247
#     4   9  18  33  50  66  88 118 149 184 230 280
#     4   9  17  30  47  64  83 110 145 181 215 257
#
# _framework density 19.982790000000001
#
# number of rings (size 3 to 8) (size 9 to 14) (size 15 to 20)
#    0.000    3.182    0.000    1.091    1.273    1.455 
#    0.000    1.364    0.000    3.818    0.000    1.273 
#    0.000    0.000    0.000    0.000    0.000    0.000 
#
# Total GULP energy -245105.251550 kJ/mol
# GULP energy per Si atom -5570.573899 kJ/mol
# Density = 1.993731 g / cm^3
# Si number density = 19.982790 Si / 1000 Ang^3
#
#
#
# Elastic Constant Matrix: (Units=GPa)
#
#
# Indices 1 2 3 4 5 6 
#
# 1 112.4713 80.3792 4.4260 0.0000 0.0000 0.0000
# 2 80.3792 165.4444 -3.0469 0.0000 0.0000 0.0000
# 3 4.4260 -3.0469 57.1366 0.0000 0.0000 0.0000
# 4 0.0000 0.0000 0.0000 66.6359 0.0000 0.0000
# 5 0.0000 0.0000 0.0000 0.0000 6.4353 0.0000
# 6 0.0000 0.0000 0.0000 0.0000 0.0000 14.3925
#
#
#
# Elastic Compliance Matrix: (Units=1/GPa)
#
#
# Indices 1 2 3 4 5 6 
#
# 1 0.013735 -0.006699 -0.001421 0.000000 0.000000 0.000000
# 2 -0.006699 0.009318 0.001016 0.000000 0.000000 0.000000
# 3 -0.001421 0.001016 0.017666 0.000000 0.000000 0.000000
# 4 0.000000 0.000000 0.000000 0.015007 0.000000 0.000000
# 5 0.000000 0.000000 0.000000 0.000000 0.155394 0.000000
# 6 0.000000 0.000000 0.000000 0.000000 0.000000 0.069481
#
#
# Mechanical properties :
#
#
# Convention : Reuss Voigt Hill
#
# Bulk Modulus (GPa) = 37.72195 55.39653 46.55924
# Shear Modulus (GPa) = 16.46659 34.37900 25.42280
#
# Velocity S-wave (km/s) = 2.87372 4.15231 3.57071
# Velocity P-wave (km/s) = 5.47076 7.12539 6.35218
#
# Compressibility (1/GPa) = 0.02650976
#
# Stress axis : x y z
#
# Youngs Moduli (GPa) = 72.80887 107.32329 56.60538
#
# Poissons Ratio (x) = 0.71895 0.08045
# Poissons Ratio (y) = 0.48774 -0.05750
# Poissons Ratio (z) = 0.10347 -0.10902
#
# Static dielectric constant tensor:
#      x y z
#    x 1.705640 0.000000 0.000000 
#    y 0.000000 1.700080 0.000000 
#    z 0.000000 0.000000 1.767160 
# 
# From -- ./inp_files/10028.got.cif
#   From: 2010.05.17/outbox.cif.g08.bks.cpg/sg65_6_cif.got.tgz:10028.got - 2010.06.03 17:01:31.
