data_PCOD9494479
_publ_section_title
;
Structure prediction by ZEFSAII (Michael W. Deem and Ramdas Pophale) SiO2 
 PCOD9494479
Probable space group: C M M M
;
_chemical_formula_sum "Si O2"
_cell_formula_units_Z 104
_cell_length_a 9.189346
_cell_length_b 30.219139
_cell_length_c 23.646618
_cell_angle_alpha 90.000000
_cell_angle_beta 90.000000
_cell_angle_gamma 90.000000
_cell_volume 6566.526873
_symmetry_space_group_name_H-M "C M M M"
_symmetry_group_IT_number 65
_symmetry_cell_setting 'orthorhombic'
loop_
_space_group_symop_operation_xyz
x,y,z
-x,-y,z
x,-y,-z
-x,y,-z
-x,-y,-z
x,y,-z
-x,y,z
x,-y,z
1/2+x,1/2+y,z
1/2-x,1/2-y,z
1/2+x,1/2-y,-z
1/2-x,1/2+y,-z
1/2-x,1/2-y,-z
1/2+x,1/2+y,-z
1/2-x,1/2+y,z
1/2+x,1/2-y,z
loop_
_atom_site_type_symbol
_atom_site_label
_atom_site_fract_x
_atom_site_fract_y
_atom_site_fract_z
Si Si1 0.173724 0.051723 0.334101
Si Si2 0.175317 0.448284 0.216749
Si Si3 0.677360 0.891522 0.108729
Si Si4 0.675075 0.615893 0.565020
Si Si5 0.322466 0.948821 0.000000
Si Si6 0.665636 0.793240 0.568634
Si Si7 0.325844 0.204037 0.932728
O O1 0.254941 0.064511 0.276574
O O2 0.217255 0.079546 0.388980
O O3 0.000000 0.056977 0.326167
O O4 0.203293 0.000000 0.344034
O O5 0.213683 0.500000 0.204806
O O6 0.222426 0.415844 0.166304
O O7 0.000000 0.446431 0.220699
O O8 0.500000 0.891034 0.108118
O O9 0.723119 0.840624 0.099295
O O10 0.722987 0.921783 0.055592
O O11 0.716488 0.605015 0.500000
O O12 0.500000 0.620563 0.565817
O O13 0.748155 0.662154 0.581325
O O14 0.500000 0.949399 0.000000
O O15 0.274994 0.000000 0.000000
O O16 0.661216 0.790447 0.500000
O O17 0.500000 0.794572 0.588924
O O18 0.750000 0.750000 0.589317
O O19 0.500000 0.208455 0.925813
O O20 0.250000 0.250000 0.915754
O O21 0.298386 0.197243 0.000000
#
# Coordination Sequence:
#
# PCOD9494479 Si02
#       7
#    16  16  16  16   8  16  16
#     4   9  18  32  48  66  90 121 155 188 225 272
#     4   9  17  29  46  67  89 115 149 186 223 269
#     4   9  15  25  41  64  91 117 145 181 225 264
#     4   9  17  29  46  68  92 117 149 191 235 276
#     4   9  14  20  35  62  93 117 139 175 222 265
#     4   9  16  26  42  65  93 122 149 178 217 268
#     4   9  16  27  43  63  89 118 148 182 220 262
#
# _framework density 15.837901
#
# number of rings (size 3 to 8) (size 9 to 14) (size 15 to 20)
#    0.000    3.000    0.769    0.923    0.000    4.615 
#    0.000    2.308    0.000    0.923    0.000    8.615 
#    0.000    3.692    0.000    0.000    0.000    0.000 
#
# Total GULP energy -289549.279307 kJ/mol
# GULP energy per Si atom -5568.255371 kJ/mol
# Density = 1.580185 g / cm^3
# Si number density = 15.837901 Si / 1000 Ang^3
#
#
#
# Elastic Constant Matrix: (Units=GPa)
#
#
# Indices 1 2 3 4 5 6 
#
# 1 13.5267 34.2721 32.8221 0.0000 0.0000 0.0000
# 2 34.2721 138.8532 91.5996 0.0000 0.0000 0.0000
# 3 32.8221 91.5996 112.7029 0.0000 0.0000 0.0000
# 4 0.0000 0.0000 0.0000 11.7924 0.0000 0.0000
# 5 0.0000 0.0000 0.0000 0.0000 18.0375 0.0000
# 6 0.0000 0.0000 0.0000 0.0000 0.0000 22.1036
#
#
#
# Elastic Compliance Matrix: (Units=1/GPa)
#
#
# Indices 1 2 3 4 5 6 
#
# 1 0.325499 -0.038389 -0.063593 0.000000 0.000000 0.000000
# 2 -0.038389 0.020054 -0.005119 0.000000 0.000000 0.000000
# 3 -0.063593 -0.005119 0.031554 0.000000 0.000000 0.000000
# 4 0.000000 0.000000 0.000000 0.084800 0.000000 0.000000
# 5 0.000000 0.000000 0.000000 0.000000 0.055440 0.000000
# 6 0.000000 0.000000 0.000000 0.000000 0.000000 0.045242
#
#
# Mechanical properties :
#
#
# Convention : Reuss Voigt Hill
#
# Bulk Modulus (GPa) = 6.13859 64.71891 35.42875
# Shear Modulus (GPa) = 6.01618 17.47931 11.74774
#
# Velocity S-wave (km/s) = 1.95111 3.32571 2.72646
# Velocity P-wave (km/s) = 2.99334 7.46319 5.68591
#
# Compressibility (1/GPa) = 0.16290394
#
# Stress axis : x y z
#
# Youngs Moduli (GPa) = 3.07221 49.86513 31.69209
#
# Poissons Ratio (x) = 1.91425 2.01541
# Poissons Ratio (y) = 0.11794 0.16224
# Poissons Ratio (z) = 0.19537 0.25527
#
# Static dielectric constant tensor:
#      x y z
#    x 1.533430 0.000000 0.000000 
#    y 0.000000 1.525340 0.000000 
#    z 0.000000 0.000000 1.512620 
# 
# From -- ./inp_files/68562.got.cif
#   From: 2010.05.17/outbox.cif.g08.bks.cpg/sg65_35_cif.got.tgz:68562.got - 2010.06.03 17:01:31.
