data_PCOD9494863
_publ_section_title
;
Structure prediction by ZEFSAII (Michael W. Deem and Ramdas Pophale) SiO2 
 PCOD9494863
Probable space group: C M M M
;
_chemical_formula_sum "Si O2"
_cell_formula_units_Z 44
_cell_length_a 9.000000
_cell_length_b 18.000000
_cell_length_c 30.000000
_cell_angle_alpha 90.000000
_cell_angle_beta 90.000000
_cell_angle_gamma 90.000000
_cell_volume 4860.000000
_symmetry_space_group_name_H-M "C M M M"
_symmetry_group_IT_number 65
_symmetry_cell_setting 'orthorhombic'
loop_
_space_group_symop_operation_xyz
x,y,z
-x,-y,z
x,-y,-z
-x,y,-z
-x,-y,-z
x,y,-z
-x,y,z
x,-y,z
1/2+x,1/2+y,z
1/2-x,1/2-y,z
1/2+x,1/2-y,-z
1/2-x,1/2+y,-z
1/2-x,1/2-y,-z
1/2+x,1/2+y,-z
1/2-x,1/2+y,z
1/2+x,1/2-y,z
loop_
_atom_site_type_symbol
_atom_site_label
_atom_site_fract_x
_atom_site_fract_y
_atom_site_fract_z
Si Si1 0.328098 0.909420 0.361408
Si Si2 0.822856 0.911044 0.827143
Si Si3 0.821714 0.330633 0.089676
Si Si4 0.175029 0.909864 0.451523
Si Si5 0.680669 0.084498 0.000000
Si Si6 0.173187 0.909654 0.728552
O O1 0.500000 0.891068 0.362302
O O2 0.252256 0.882185 0.406804
O O3 0.256889 0.882708 0.315249
O O4 0.314093 0.000000 0.361279
O O5 0.735042 0.872783 0.866633
O O6 0.773384 0.885909 0.777565
O O7 0.000000 0.896321 0.830908
O O8 0.803667 0.000000 0.829890
O O9 0.750000 0.250000 0.088849
O O10 0.000000 0.325904 0.090040
O O11 0.773922 0.374010 0.044987
O O12 0.232491 0.884040 0.500000
O O13 0.000000 0.893907 0.449265
O O14 0.189551 0.000000 0.451516
O O15 0.500000 0.083170 0.000000
O O16 0.733933 0.000000 0.000000
O O17 0.000000 0.890595 0.724666
O O18 0.181831 0.000000 0.728817
#
# Coordination Sequence:
#
# PCOD9494863 Si02
#       6
#    16  16  16  16   8  16
#     4   9  15  20  28  45  68  93 126 173 224 271
#     4   9  18  33  52  74  99 126 161 205 249 294
#     4  11  22  36  55  77 105 138 169 203 243 290
#     4   8  13  20  28  37  53  84 127 171 216 270
#     4   9  19  36  57  81 106 133 168 207 246 288
#     4   8  14  25  40  56  77 107 140 178 226 278
#
# _framework density 9.0534979999999994
#
# number of rings (size 3 to 8) (size 9 to 14) (size 15 to 20)
#    0.000    3.000    0.000    3.545    0.000    4.364 
#    0.000    5.000    0.000    3.273    0.000    0.000 
#    0.000    0.000    0.000    0.000    0.000    0.909 
#
# Total GULP energy -245088.166482 kJ/mol
# GULP energy per Si atom -5570.185602 kJ/mol
# Density = 0.903289 g / cm^3
# Si number density = 9.053498 Si / 1000 Ang^3
#
#
#
# Elastic Constant Matrix: (Units=GPa)
#
#
# Indices 1 2 3 4 5 6 
#
# 1 49.9784 27.2459 91.5335 0.0000 0.0000 0.0000
# 2 27.2459 23.6014 45.2213 0.0000 0.0000 0.0000
# 3 91.5335 45.2213 239.6827 0.0000 0.0000 0.0000
# 4 0.0000 0.0000 0.0000 -9.4036 0.0000 0.0000
# 5 0.0000 0.0000 0.0000 0.0000 54.9852 0.0000
# 6 0.0000 0.0000 0.0000 0.0000 0.0000 3.1380
#
#
#
# Elastic Compliance Matrix: (Units=1/GPa)
#
#
# Indices 1 2 3 4 5 6 
#
# 1 0.118795 -0.078644 -0.030529 0.000000 0.000000 0.000000
# 2 -0.078644 0.118423 0.007691 0.000000 0.000000 0.000000
# 3 -0.030529 0.007691 0.014380 0.000000 0.000000 0.000000
# 4 0.000000 0.000000 0.000000 -0.106343 0.000000 0.000000
# 5 0.000000 0.000000 0.000000 0.000000 0.018187 0.000000
# 6 0.000000 0.000000 0.000000 0.000000 0.000000 0.318679
#
#
# Mechanical properties :
#
#
# Convention : Reuss Voigt Hill
#
# Bulk Modulus (GPa) = 20.56221 71.25156 45.90688
# Shear Modulus (GPa) = 7.12965 19.69471 13.41218
#
# Velocity S-wave (km/s) = 1.98647 3.30158 2.72457
# Velocity P-wave (km/s) = 4.07946 7.34641 5.94187
#
# Compressibility (1/GPa) = 0.04863291
#
# Stress axis : x y z
#
# Youngs Moduli (GPa) = 8.41787 8.44434 69.54025
#
# Poissons Ratio (x) = 0.66409 2.12302
# Poissons Ratio (y) = 0.66201 -0.53481
# Poissons Ratio (z) = 0.25699 -0.06494
#
# Static dielectric constant tensor:
#      x y z
#    x 1.602440 0.000000 0.000000 
#    y 0.000000 1.599180 0.000000 
#    z 0.000000 0.000000 1.645010 
# 
# From -- ./inp_files/76619.got.cif
#   From: 2010.05.17/outbox.ucp.g08.bks.cvg/sg65_39_cif.got.tgz:76619.got - 2010.06.11 16:39:57.
