data_PCOD9494203
_publ_section_title
;
Structure prediction by ZEFSAII (Michael W. Deem and Ramdas Pophale) SiO2 
 PCOD9494203
Probable space group: C M M M
;
_chemical_formula_sum "Si O2"
_cell_formula_units_Z 80
_cell_length_a 23.226650
_cell_length_b 23.234511
_cell_length_c 7.443860
_cell_angle_alpha 90.000000
_cell_angle_beta 90.000000
_cell_angle_gamma 90.000000
_cell_volume 4017.152408
_symmetry_space_group_name_H-M "C M M M"
_symmetry_group_IT_number 65
_symmetry_cell_setting 'orthorhombic'
loop_
_space_group_symop_operation_xyz
x,y,z
-x,-y,z
x,-y,-z
-x,y,-z
-x,-y,-z
x,y,-z
-x,y,z
x,-y,z
1/2+x,1/2+y,z
1/2-x,1/2-y,z
1/2+x,1/2-y,-z
1/2-x,1/2+y,-z
1/2-x,1/2-y,-z
1/2+x,1/2+y,-z
1/2-x,1/2+y,z
1/2+x,1/2-y,z
loop_
_atom_site_type_symbol
_atom_site_label
_atom_site_fract_x
_atom_site_fract_y
_atom_site_fract_z
Si Si1 0.208237 0.669015 0.214689
Si Si2 0.167278 0.792162 0.219443
Si Si3 0.375098 0.934975 0.285197
Si Si4 0.069965 0.000000 0.206615
Si Si5 0.933854 0.874044 0.779686
Si Si6 0.500000 0.929921 0.706677
O O1 0.174206 0.725994 0.278269
O O2 0.274214 0.675145 0.276696
O O3 0.174903 0.610634 0.254202
O O4 0.210886 0.673737 0.000000
O O5 0.110491 0.825412 0.278674
O O6 0.166023 0.792319 0.000000
O O7 0.382155 0.939263 0.500000
O O8 0.437757 0.914329 0.213607
O O9 0.363126 0.000000 0.219185
O O10 0.085689 0.937781 0.283155
O O11 0.000000 0.000000 0.204112
O O12 0.090290 0.000000 0.000000
O O13 0.000000 0.864180 0.725327
O O14 0.933980 0.875878 0.000000
O O15 0.500000 0.909285 0.500000
O O16 0.500000 0.000000 0.704899
#
# Coordination Sequence:
#
# PCOD9494203 Si02
#       6
#    16  16  16   8  16   8
#     4   9  17  30  45  62  91 124 149 177 218 267
#     4   8  15  28  41  54  85 128 153 172 216 270
#     4   9  17  31  50  69  89 114 148 188 225 264
#     4   7  10  16  28  48  72  96 129 178 217 238
#     4   8  12  20  35  54  77 108 148 185 213 249
#     4   7  12  26  47  65  83 113 145 174 219 270
#
# _framework density 19.914603
#
# number of rings (size 3 to 8) (size 9 to 14) (size 15 to 20)
#    0.000    3.800    0.000    3.600    0.000    0.400 
#    3.600    2.500    0.000    1.800    0.000    0.000 
#    0.000    0.000    0.000    2.200    0.000    1.600 
#
# Total GULP energy -222691.595464 kJ/mol
# GULP energy per Si atom -5567.289887 kJ/mol
# Density = 1.986928 g / cm^3
# Si number density = 19.914603 Si / 1000 Ang^3
#
#
#
# Elastic Constant Matrix: (Units=GPa)
#
#
# Indices 1 2 3 4 5 6 
#
# 1 124.1117 99.9199 3.5407 0.0000 0.0000 0.0000
# 2 99.9199 129.3966 2.5099 0.0000 0.0000 0.0000
# 3 3.5407 2.5099 57.9554 0.0000 0.0000 0.0000
# 4 0.0000 0.0000 0.0000 7.6931 0.0000 0.0000
# 5 0.0000 0.0000 0.0000 0.0000 6.5608 0.0000
# 6 0.0000 0.0000 0.0000 0.0000 0.0000 33.7822
#
#
#
# Elastic Compliance Matrix: (Units=1/GPa)
#
#
# Indices 1 2 3 4 5 6 
#
# 1 0.021318 -0.016450 -0.000590 0.000000 0.000000 0.000000
# 2 -0.016450 0.020429 0.000120 0.000000 0.000000 0.000000
# 3 -0.000590 0.000120 0.017285 0.000000 0.000000 0.000000
# 4 0.000000 0.000000 0.000000 0.129987 0.000000 0.000000
# 5 0.000000 0.000000 0.000000 0.000000 0.152421 0.000000
# 6 0.000000 0.000000 0.000000 0.000000 0.000000 0.029601
#
#
# Mechanical properties :
#
#
# Convention : Reuss Voigt Hill
#
# Bulk Modulus (GPa) = 39.69473 58.15607 48.92540
# Shear Modulus (GPa) = 12.09840 23.30676 17.70258
#
# Velocity S-wave (km/s) = 2.46745 3.42473 2.98472
# Velocity P-wave (km/s) = 5.30033 6.70108 6.04144
#
# Compressibility (1/GPa) = 0.02519226
#
# Stress axis : x y z
#
# Youngs Moduli (GPa) = 46.90933 48.95103 57.85205
#
# Poissons Ratio (x) = 0.80525 0.03413
# Poissons Ratio (y) = 0.77166 -0.00696
# Poissons Ratio (z) = 0.02767 -0.00589
#
# Static dielectric constant tensor:
#      x y z
#    x 1.702720 0.000000 0.000000 
#    y 0.000000 1.703420 0.000000 
#    z 0.000000 0.000000 1.767120 
# 
# From -- ./inp_files/13863.got.cif
#   From: 2010.05.17/outbox.cif.g08.bks.cpg/sg65_7_cif.got.tgz:13863.got - 2010.06.03 17:01:31.
