data_PCOD9494867
_publ_section_title
;
Structure prediction by ZEFSAII (Michael W. Deem and Ramdas Pophale) SiO2 
 PCOD9494867
Probable space group: C M M M
;
_chemical_formula_sum "Si O2"
_cell_formula_units_Z 36
_cell_length_a 18.000000
_cell_length_b 9.000000
_cell_length_c 24.000000
_cell_angle_alpha 90.000000
_cell_angle_beta 90.000000
_cell_angle_gamma 90.000000
_cell_volume 3888.000000
_symmetry_space_group_name_H-M "C M M M"
_symmetry_group_IT_number 65
_symmetry_cell_setting 'orthorhombic'
loop_
_space_group_symop_operation_xyz
x,y,z
-x,-y,z
x,-y,-z
-x,y,-z
-x,-y,-z
x,y,-z
-x,y,z
x,-y,z
1/2+x,1/2+y,z
1/2-x,1/2-y,z
1/2+x,1/2-y,-z
1/2-x,1/2+y,-z
1/2-x,1/2-y,-z
1/2+x,1/2+y,-z
1/2-x,1/2+y,z
1/2+x,1/2-y,z
loop_
_atom_site_type_symbol
_atom_site_label
_atom_site_fract_x
_atom_site_fract_y
_atom_site_fract_z
Si Si1 0.589852 0.826184 0.878373
Si Si2 0.089328 0.171912 0.436615
Si Si3 0.331620 0.677299 0.223834
Si Si4 0.668844 0.823360 0.663588
Si Si5 0.585787 0.180681 0.000000
O O1 0.500000 0.820703 0.879278
O O2 0.621380 0.726460 0.829396
O O3 0.617887 0.777164 0.939902
O O4 0.610447 0.000000 0.869542
O O5 0.112637 0.207742 0.500000
O O6 0.122864 0.278886 0.390656
O O7 0.000000 0.177955 0.434977
O O8 0.111136 0.000000 0.425111
O O9 0.326271 0.500000 0.228864
O O10 0.250000 0.750000 0.217726
O O11 0.364014 0.748594 0.280535
O O12 0.750000 0.750000 0.657219
O O13 0.674519 0.000000 0.670452
O O14 0.500000 0.231694 0.000000
O O15 0.584071 0.000000 0.000000
#
# Coordination Sequence:
#
# PCOD9494867 Si02
#       5
#    16  16  16  16   8
#     4   9  17  32  55  81 107 136 173 214 258 310
#     4   9  19  37  59  82 110 142 174 212 259 307
#     4  11  22  37  55  75 104 139 176 218 265 313
#     4  11  22  37  57  79 105 138 177 219 262 310
#     4   7  12  26  50  77 104 135 169 209 256 305
#
# _framework density 9.2592590000000001
#
# number of rings (size 3 to 8) (size 9 to 14) (size 15 to 20)
#    0.000    2.333    0.000    7.333    0.000    2.667 
#    0.000    2.222    0.000    2.000    0.000    0.000 
#    0.000    0.000    0.000    0.000    0.000    0.000 
#
# Total GULP energy -200784.403872 kJ/mol
# GULP energy per Si atom -5577.344552 kJ/mol
# Density = 0.923818 g / cm^3
# Si number density = 9.259259 Si / 1000 Ang^3
#
#
#
# Elastic Constant Matrix: (Units=GPa)
#
#
# Indices 1 2 3 4 5 6 
#
# 1 14.3155 25.1563 32.0589 0.0000 0.0000 0.0000
# 2 25.1563 147.1465 85.0148 0.0000 0.0000 0.0000
# 3 32.0589 85.0148 156.1664 0.0000 0.0000 0.0000
# 4 0.0000 0.0000 0.0000 28.5265 0.0000 0.0000
# 5 0.0000 0.0000 0.0000 0.0000 38.3422 0.0000
# 6 0.0000 0.0000 0.0000 0.0000 0.0000 20.5824
#
#
#
# Elastic Compliance Matrix: (Units=1/GPa)
#
#
# Indices 1 2 3 4 5 6 
#
# 1 0.139943 -0.010688 -0.022910 0.000000 0.000000 0.000000
# 2 -0.010688 0.010731 -0.003647 0.000000 0.000000 0.000000
# 3 -0.022910 -0.003647 0.013092 0.000000 0.000000 0.000000
# 4 0.000000 0.000000 0.000000 0.035055 0.000000 0.000000
# 5 0.000000 0.000000 0.000000 0.000000 0.026081 0.000000
# 6 0.000000 0.000000 0.000000 0.000000 0.000000 0.048585
#
#
# Mechanical properties :
#
#
# Convention : Reuss Voigt Hill
#
# Bulk Modulus (GPa) = 11.20143 66.89871 39.05007
# Shear Modulus (GPa) = 13.23676 29.18346 21.21011
#
# Velocity S-wave (km/s) = 2.67645 3.97408 3.38797
# Velocity P-wave (km/s) = 3.95134 7.56713 6.03633
#
# Compressibility (1/GPa) = 0.08927429
#
# Stress axis : x y z
#
# Youngs Moduli (GPa) = 7.14577 93.19194 76.38206
#
# Poissons Ratio (x) = 0.99608 1.74990
# Poissons Ratio (y) = 0.07638 0.27859
# Poissons Ratio (z) = 0.16371 0.33990
#
# Static dielectric constant tensor:
#      x y z
#    x 1.635570 0.000000 0.000000 
#    y 0.000000 1.617820 0.000000 
#    z 0.000000 0.000000 1.677800 
# 
# From -- ./inp_files/70368.got.cif
#   From: 2010.05.17/outbox.ucp.g08.bks.cvg/sg65_36_cif.got.tgz:70368.got - 2010.06.11 16:39:57.
