data_PCOD9494049
_publ_section_title
;
Structure prediction by ZEFSAII (Michael W. Deem and Ramdas Pophale) SiO2 
 PCOD9494049
Probable space group: C M M M
;
_chemical_formula_sum "Si O2"
_cell_formula_units_Z 48
_cell_length_a 10.780499
_cell_length_b 17.309005
_cell_length_c 13.096185
_cell_angle_alpha 90.000000
_cell_angle_beta 90.000000
_cell_angle_gamma 90.000000
_cell_volume 2443.744337
_symmetry_space_group_name_H-M "C M M M"
_symmetry_group_IT_number 65
_symmetry_cell_setting 'orthorhombic'
loop_
_space_group_symop_operation_xyz
x,y,z
-x,-y,z
x,-y,-z
-x,y,-z
-x,-y,-z
x,y,-z
-x,y,z
x,-y,z
1/2+x,1/2+y,z
1/2-x,1/2-y,z
1/2+x,1/2-y,-z
1/2-x,1/2+y,-z
1/2-x,1/2-y,-z
1/2+x,1/2+y,-z
1/2-x,1/2+y,z
1/2+x,1/2-y,z
loop_
_atom_site_type_symbol
_atom_site_label
_atom_site_fract_x
_atom_site_fract_y
_atom_site_fract_z
Si Si1 0.225461 0.593694 0.619094
Si Si2 0.358571 0.812391 0.197810
Si Si3 0.149146 0.413377 0.000000
Si Si4 0.500000 0.587253 0.376743
O O1 0.200730 0.612066 0.500000
O O2 0.220649 0.500000 0.627524
O O3 0.140586 0.635766 0.700117
O O4 0.366095 0.621048 0.646922
O O5 0.500000 0.782667 0.180798
O O6 0.250000 0.750000 0.206978
O O7 0.321384 0.866350 0.102047
O O8 0.201761 0.500000 0.000000
O O9 0.000000 0.419849 0.000000
O O10 0.500000 0.500000 0.334966
O O11 0.500000 0.581439 0.500000
#
# Coordination Sequence:
#
# PCOD9494049 Si02
#       4
#    16  16   8   8
#     4   9  18  34  58  86 116 152 197 244 286 334
#     4  11  24  39  59  86 118 156 191 233 291 347
#     4   9  19  40  67  89 110 143 192 242 287 340
#     4   7  12  26  50  79 109 145 183 225 282 334
#
# _framework density 19.641988999999999
#
# number of rings (size 3 to 8) (size 9 to 14) (size 15 to 20)
#    0.000    2.667    0.000    3.500    2.333    3.333 
#    0.000    1.667    0.000    1.000    0.000    0.000 
#    0.000    0.000    0.000    0.000    0.000    0.000 
#
# Total GULP energy -133696.587584 kJ/mol
# GULP energy per Si atom -5570.691149 kJ/mol
# Density = 1.959728 g / cm^3
# Si number density = 19.641989 Si / 1000 Ang^3
#
#
#
# Elastic Constant Matrix: (Units=GPa)
#
#
# Indices 1 2 3 4 5 6 
#
# 1 96.5930 43.9452 41.4117 0.0000 0.0000 0.0000
# 2 43.9452 78.6191 65.7816 0.0000 0.0000 0.0000
# 3 41.4117 65.7816 122.0654 0.0000 0.0000 0.0000
# 4 0.0000 0.0000 0.0000 11.6235 0.0000 0.0000
# 5 0.0000 0.0000 0.0000 0.0000 21.6364 0.0000
# 6 0.0000 0.0000 0.0000 0.0000 0.0000 15.2228
#
#
#
# Elastic Compliance Matrix: (Units=1/GPa)
#
#
# Indices 1 2 3 4 5 6 
#
# 1 0.013945 -0.006987 -0.000966 0.000000 0.000000 0.000000
# 2 -0.006987 0.026665 -0.012000 0.000000 0.000000 0.000000
# 3 -0.000966 -0.012000 0.014987 0.000000 0.000000 0.000000
# 4 0.000000 0.000000 0.000000 0.086032 0.000000 0.000000
# 5 0.000000 0.000000 0.000000 0.000000 0.046218 0.000000
# 6 0.000000 0.000000 0.000000 0.000000 0.000000 0.065691
#
#
# Mechanical properties :
#
#
# Convention : Reuss Voigt Hill
#
# Bulk Modulus (GPa) = 63.72425 66.61716 65.17070
# Shear Modulus (GPa) = 16.74062 19.43915 18.08989
#
# Velocity S-wave (km/s) = 2.92256 3.14932 3.03806
# Velocity P-wave (km/s) = 6.62584 6.87122 6.74964
#
# Compressibility (1/GPa) = 0.01569261
#
# Stress axis : x y z
#
# Youngs Moduli (GPa) = 71.70775 37.50197 66.72583
#
# Poissons Ratio (x) = 0.26202 0.06445
# Poissons Ratio (y) = 0.50101 0.80069
# Poissons Ratio (z) = 0.06926 0.45001
#
# Static dielectric constant tensor:
#      x y z
#    x 1.731110 0.000000 0.000000 
#    y 0.000000 1.704000 0.000000 
#    z 0.000000 0.000000 1.665740 
# 
# From -- ./inp_files/21579.got.cif
#   From: 2010.05.17/outbox.cif.g08.bks.cpg/sg65_11_cif.got.tgz:21579.got - 2010.06.03 17:01:31.
