data_PCOD9494773
_publ_section_title
;
Structure prediction by ZEFSAII (Michael W. Deem and Ramdas Pophale) SiO2 
 PCOD9494773
Probable space group: C M M M
;
_chemical_formula_sum "Si O2"
_cell_formula_units_Z 32
_cell_length_a 24.000000
_cell_length_b 15.000000
_cell_length_c 9.000000
_cell_angle_alpha 90.000000
_cell_angle_beta 90.000000
_cell_angle_gamma 90.000000
_cell_volume 3240.000000
_symmetry_space_group_name_H-M "C M M M"
_symmetry_group_IT_number 65
_symmetry_cell_setting 'orthorhombic'
loop_
_space_group_symop_operation_xyz
x,y,z
-x,-y,z
x,-y,-z
-x,y,-z
-x,-y,-z
x,y,-z
-x,y,z
x,-y,z
1/2+x,1/2+y,z
1/2-x,1/2-y,z
1/2+x,1/2-y,-z
1/2-x,1/2+y,-z
1/2-x,1/2-y,-z
1/2+x,1/2+y,-z
1/2-x,1/2+y,z
1/2+x,1/2-y,z
loop_
_atom_site_type_symbol
_atom_site_label
_atom_site_fract_x
_atom_site_fract_y
_atom_site_fract_z
Si Si1 0.353201 0.837660 0.319714
Si Si2 0.770130 0.103686 0.668401
Si Si3 0.935368 0.500000 0.320726
Si Si4 0.616131 0.345434 0.824128
Si Si5 0.000000 0.105407 0.333558
O O1 0.355136 0.826091 0.500000
O O2 0.287637 0.851217 0.281052
O O3 0.374862 0.755098 0.227546
O O4 0.396075 0.916608 0.281921
O O5 0.782638 0.135838 0.500000
O O6 0.826812 0.110686 0.761556
O O7 0.754992 0.000000 0.659918
O O8 0.939586 0.500000 0.500000
O O9 0.000000 0.500000 0.265256
O O10 0.557536 0.373240 0.750605
O O11 0.613076 0.358023 0.000000
O O12 0.000000 0.146775 0.500000
O O13 0.000000 0.000000 0.349521
#
# Coordination Sequence:
#
# PCOD9494773 Si02
#       5
#    16  16   8  16   8
#     4  10  20  38  63  92 123 161 210 260 304 353
#     4  10  20  38  63  90 121 160 213 265 306 353
#     4   9  18  34  61  95 123 154 204 261 308 350
#     4  12  26  40  59  91 129 163 199 247 311 376
#     4  11  25  47  71  92 115 154 207 255 304 361
#
# _framework density 9.8765429999999999
#
# number of rings (size 3 to 8) (size 9 to 14) (size 15 to 20)
#    0.000    1.500    1.250    4.125    1.750    8.500 
#    0.000    0.625    0.000    0.750    0.000    0.000 
#    0.000    0.000    0.000    0.000    0.000    0.000 
#
# Total GULP energy -178464.575548 kJ/mol
# GULP energy per Si atom -5577.017986 kJ/mol
# Density = 0.985406 g / cm^3
# Si number density = 9.876543 Si / 1000 Ang^3
#
#
#
# Elastic Constant Matrix: (Units=GPa)
#
#
# Indices 1 2 3 4 5 6 
#
# 1 219.0127 48.5417 85.9976 0.0000 0.0000 0.0000
# 2 48.5417 79.7096 25.4340 0.0000 0.0000 0.0000
# 3 85.9976 25.4340 99.6087 0.0000 0.0000 0.0000
# 4 0.0000 0.0000 0.0000 47.6899 0.0000 0.0000
# 5 0.0000 0.0000 0.0000 0.0000 19.1153 0.0000
# 6 0.0000 0.0000 0.0000 0.0000 0.0000 46.1694
#
#
#
# Elastic Compliance Matrix: (Units=1/GPa)
#
#
# Indices 1 2 3 4 5 6 
#
# 1 0.007401 -0.002687 -0.005704 0.000000 0.000000 0.000000
# 2 -0.002687 0.014634 -0.001417 0.000000 0.000000 0.000000
# 3 -0.005704 -0.001417 0.015325 0.000000 0.000000 0.000000
# 4 0.000000 0.000000 0.000000 0.020969 0.000000 0.000000
# 5 0.000000 0.000000 0.000000 0.000000 0.052314 0.000000
# 6 0.000000 0.000000 0.000000 0.000000 0.000000 0.021659
#
#
# Mechanical properties :
#
#
# Convention : Reuss Voigt Hill
#
# Bulk Modulus (GPa) = 56.35244 79.80862 68.08053
# Shear Modulus (GPa) = 31.67912 38.48546 35.08229
#
# Velocity S-wave (km/s) = 4.00904 4.41877 4.21888
# Velocity P-wave (km/s) = 7.07249 8.15628 7.63365
#
# Compressibility (1/GPa) = 0.01774546
#
# Stress axis : x y z
#
# Youngs Moduli (GPa) = 135.11445 68.33392 65.25173
#
# Poissons Ratio (x) = 0.18363 0.37217
# Poissons Ratio (y) = 0.36308 0.09244
# Poissons Ratio (z) = 0.77065 0.09680
#
# Static dielectric constant tensor:
#      x y z
#    x 1.676890 0.000000 0.000000 
#    y 0.000000 1.805750 0.000000 
#    z 0.000000 0.000000 1.687110 
# 
# From -- ./inp_files/6730.got.cif
#   From: 2010.05.17/outbox.ucp.g08.bks.cvg/sg65_4_cif.got.tgz:6730.got - 2010.06.11 16:39:57.
