data_PCOD9494169
_publ_section_title
;
Structure prediction by ZEFSAII (Michael W. Deem and Ramdas Pophale) SiO2 
 PCOD9494169
Probable space group: C M M M
;
_chemical_formula_sum "Si O2"
_cell_formula_units_Z 88
_cell_length_a 8.312736
_cell_length_b 18.883446
_cell_length_c 30.917004
_cell_angle_alpha 90.000000
_cell_angle_beta 90.000000
_cell_angle_gamma 90.000000
_cell_volume 4853.138003
_symmetry_space_group_name_H-M "C M M M"
_symmetry_group_IT_number 65
_symmetry_cell_setting 'orthorhombic'
loop_
_space_group_symop_operation_xyz
x,y,z
-x,-y,z
x,-y,-z
-x,y,-z
-x,-y,-z
x,y,-z
-x,y,z
x,-y,z
1/2+x,1/2+y,z
1/2-x,1/2-y,z
1/2+x,1/2-y,-z
1/2-x,1/2+y,-z
1/2-x,1/2-y,-z
1/2+x,1/2+y,-z
1/2-x,1/2+y,z
1/2+x,1/2-y,z
loop_
_atom_site_type_symbol
_atom_site_label
_atom_site_fract_x
_atom_site_fract_y
_atom_site_fract_z
Si Si1 0.690095 0.830088 0.130486
Si Si2 0.000000 0.086333 0.449848
Si Si3 0.694308 0.582032 0.048663
Si Si4 0.812916 0.086150 0.306900
Si Si5 0.193950 0.918931 0.212040
Si Si6 0.320534 0.086349 0.601565
O O1 0.500000 0.830697 0.133508
O O2 0.750000 0.750000 0.129964
O O3 0.741598 0.869473 0.086645
O O4 0.757997 0.871359 0.171944
O O5 0.834742 0.109305 0.426261
O O6 0.000000 0.106984 0.500000
O O7 0.000000 0.000000 0.447954
O O8 0.500000 0.584047 0.049735
O O9 0.742310 0.500000 0.055464
O O10 0.745163 0.602976 0.000000
O O11 0.752443 0.108113 0.259425
O O12 0.711873 0.107650 0.348651
O O13 0.000000 0.107378 0.312818
O O14 0.812773 0.000000 0.305740
O O15 0.000000 0.921459 0.214413
O O16 0.251227 0.000000 0.205728
O O17 0.500000 0.108996 0.587506
O O18 0.319921 0.000000 0.600379
#
# Coordination Sequence:
#
# PCOD9494169 Si02
#       6
#    16   8  16  16  16  16
#     4  12  25  38  53  74 105 141 174 211 252 305
#     4   9  16  24  32  44  70 108 150 196 243 297
#     4   9  19  38  63  86 107 133 166 206 254 306
#     4   8  13  24  42  62  85 113 146 190 244 295
#     4   9  18  33  54  77 101 130 164 207 257 308
#     4   9  15  22  34  51  73 104 145 196 245 291
#
# _framework density 18.132598999999999
#
# number of rings (size 3 to 8) (size 9 to 14) (size 15 to 20)
#    0.000    2.636    0.909    3.818    0.000    4.727 
#    0.000    4.545    0.000    0.000    0.000    0.000 
#    0.000    0.000    0.000    0.000    0.000    0.909 
#
# Total GULP energy -245264.284339 kJ/mol
# GULP energy per Si atom -5574.188280 kJ/mol
# Density = 1.809133 g / cm^3
# Si number density = 18.132599 Si / 1000 Ang^3
#
#
#
# Elastic Constant Matrix: (Units=GPa)
#
#
# Indices 1 2 3 4 5 6 
#
# 1 89.5154 22.2889 66.9823 0.0000 0.0000 0.0000
# 2 22.2889 36.9119 49.9499 0.0000 0.0000 0.0000
# 3 66.9823 49.9499 164.4720 0.0000 0.0000 0.0000
# 4 0.0000 0.0000 0.0000 -5.4576 0.0000 0.0000
# 5 0.0000 0.0000 0.0000 0.0000 10.1457 0.0000
# 6 0.0000 0.0000 0.0000 0.0000 0.0000 15.9598
#
#
#
# Elastic Compliance Matrix: (Units=1/GPa)
#
#
# Indices 1 2 3 4 5 6 
#
# 1 0.016113 -0.001443 -0.006124 0.000000 0.000000 0.000000
# 2 -0.001443 0.046123 -0.013420 0.000000 0.000000 0.000000
# 3 -0.006124 -0.013420 0.012650 0.000000 0.000000 0.000000
# 4 0.000000 0.000000 0.000000 -0.183231 0.000000 0.000000
# 5 0.000000 0.000000 0.000000 0.000000 0.098564 0.000000
# 6 0.000000 0.000000 0.000000 0.000000 0.000000 0.062657
#
#
# Mechanical properties :
#
#
# Convention : Reuss Voigt Hill
#
# Bulk Modulus (GPa) = 30.38366 63.26017 46.82192
# Shear Modulus (GPa) = 47.25022 14.24146 30.74584
#
# Velocity S-wave (km/s) = 5.11026 2.80555 4.12225
# Velocity P-wave (km/s) = 7.18418 6.74226 6.96672
#
# Compressibility (1/GPa) = 0.03291242
#
# Stress axis : x y z
#
# Youngs Moduli (GPa) = 62.06213 21.68132 79.05322
#
# Poissons Ratio (x) = 0.03128 0.48412
# Poissons Ratio (y) = 0.08953 1.06089
# Poissons Ratio (z) = 0.38007 0.29096
#
# Static dielectric constant tensor:
#      x y z
#    x 1.637310 0.000000 0.000000 
#    y 0.000000 1.575580 0.000000 
#    z 0.000000 0.000000 1.644850 
# 
# From -- ./inp_files/76705.got.cif
#   From: 2010.05.17/outbox.cif.g08.bks.cpg/sg65_39_cif.got.tgz:76705.got - 2010.06.03 17:01:31.
