data_PCOD9494803
_publ_section_title
;
Structure prediction by ZEFSAII (Michael W. Deem and Ramdas Pophale) SiO2 
 PCOD9494803
Probable space group: C M M M
;
_chemical_formula_sum "Si O2"
_cell_formula_units_Z 28
_cell_length_a 9.000000
_cell_length_b 21.000000
_cell_length_c 15.000000
_cell_angle_alpha 90.000000
_cell_angle_beta 90.000000
_cell_angle_gamma 90.000000
_cell_volume 2835.000000
_symmetry_space_group_name_H-M "C M M M"
_symmetry_group_IT_number 65
_symmetry_cell_setting 'orthorhombic'
loop_
_space_group_symop_operation_xyz
x,y,z
-x,-y,z
x,-y,-z
-x,y,-z
-x,-y,-z
x,y,-z
-x,y,z
x,-y,z
1/2+x,1/2+y,z
1/2-x,1/2-y,z
1/2+x,1/2-y,-z
1/2-x,1/2+y,-z
1/2-x,1/2-y,-z
1/2+x,1/2+y,-z
1/2-x,1/2+y,z
1/2+x,1/2-y,z
loop_
_atom_site_type_symbol
_atom_site_label
_atom_site_fract_x
_atom_site_fract_y
_atom_site_fract_z
Si Si1 0.825033 0.069047 0.160924
Si Si2 0.679486 0.177706 0.500000
Si Si3 0.661536 0.191645 0.894966
Si Si4 0.176627 0.073285 0.373863
O O1 0.746683 0.126601 0.114366
O O2 0.807033 0.075911 0.267270
O O3 0.000000 0.070907 0.142043
O O4 0.766324 0.000000 0.133702
O O5 0.500000 0.183090 0.500000
O O6 0.750000 0.250000 0.500000
O O7 0.736377 0.131847 0.581160
O O8 0.500000 0.186614 0.853576
O O9 0.750000 0.250000 0.853324
O O10 0.645945 0.204697 0.000000
O O11 0.000000 0.079381 0.393900
O O12 0.220373 0.000000 0.399591
#
# Coordination Sequence:
#
# PCOD9494803 Si02
#       4
#    16   8  16  16
#     4   9  19  36  58  83 109 140 178 218 264 319
#     4  12  25  38  55  81 111 143 181 222 265 314
#     4  10  21  36  54  77 107 144 183 223 269 319
#     4   9  19  38  61  82 108 142 177 216 266 321
#
# _framework density 9.8765429999999999
#
# number of rings (size 3 to 8) (size 9 to 14) (size 15 to 20)
#    0.000    2.286    0.000    4.286    0.000    7.429 
#    0.000    5.714    0.000    0.000    0.000    0.000 
#    0.000    0.000    0.000    0.000    0.000    0.000 
#
# Total GULP energy -156023.994482 kJ/mol
# GULP energy per Si atom -5572.285517 kJ/mol
# Density = 0.985406 g / cm^3
# Si number density = 9.876543 Si / 1000 Ang^3
#
#
#
# Elastic Constant Matrix: (Units=GPa)
#
#
# Indices 1 2 3 4 5 6 
#
# 1 94.4274 91.8461 19.4988 0.0000 0.0000 0.0000
# 2 91.8461 185.2410 3.1785 0.0000 0.0000 0.0000
# 3 19.4988 3.1785 -0.5738 0.0000 0.0000 0.0000
# 4 0.0000 0.0000 0.0000 38.6416 0.0000 0.0000
# 5 0.0000 0.0000 0.0000 0.0000 18.2807 0.0000
# 6 0.0000 0.0000 0.0000 0.0000 0.0000 23.5030
#
#
#
# Elastic Compliance Matrix: (Units=1/GPa)
#
#
# Indices 1 2 3 4 5 6 
#
# 1 0.001785 -0.001759 0.050925 0.000000 0.000000 0.000000
# 2 -0.001759 0.006663 -0.022866 0.000000 0.000000 0.000000
# 3 0.050925 -0.022866 -0.138908 0.000000 0.000000 0.000000
# 4 0.000000 0.000000 0.000000 0.025879 0.000000 0.000000
# 5 0.000000 0.000000 0.000000 0.000000 0.054702 0.000000
# 6 0.000000 0.000000 0.000000 0.000000 0.000000 0.042548
#
#
# Mechanical properties :
#
#
# Convention : Reuss Voigt Hill
#
# Bulk Modulus (GPa) = -12.84357 56.46015 21.80829
# Shear Modulus (GPa) = -58.21882 27.05648 -15.58117
#
# Velocity S-wave (km/s) = -5.43482 3.70501 -2.81160
# Velocity P-wave (km/s) = 6.77489 6.85184 0.72408
#
# Compressibility (1/GPa) = -0.07785994
#
# Stress axis : x y z
#
# Youngs Moduli (GPa) = 560.11224 150.08557 -7.19904
#
# Poissons Ratio (x) = 0.26400 0.36661
# Poissons Ratio (y) = 0.98524 -0.16461
# Poissons Ratio (z) = -28.52352 3.43185
#
# Static dielectric constant tensor:
#      x y z
#    x 1.721290 0.000000 0.000000 
#    y 0.000000 1.757340 0.000000 
#    z 0.000000 0.000000 1.735160 
# 
# From -- ./inp_files/35486.got.cif
#   From: 2010.05.17/outbox.ucp.g08.bks.cvg/sg65_18_cif.got.tgz:35486.got - 2010.06.11 16:39:57.
