data_PCOD9494930
_publ_section_title
;
Structure prediction by ZEFSAII (Michael W. Deem and Ramdas Pophale) SiO2 
 PCOD9494930
Probable space group: C C C M
;
_chemical_formula_sum "Si O2"
_cell_formula_units_Z 104
_cell_length_a 33.087483
_cell_length_b 7.512910
_cell_length_c 19.076408
_cell_angle_alpha 90.000000
_cell_angle_beta 90.000000
_cell_angle_gamma 90.000000
_cell_volume 4742.076108
_symmetry_space_group_name_H-M "C C C M"
_symmetry_group_IT_number 66
_symmetry_cell_setting 'orthorhombic'
loop_
_space_group_symop_operation_xyz
x,y,z
-x,-y,z
x,-y,1/2-z
-x,y,1/2-z
-x,-y,-z
x,y,-z
-x,y,1/2+z
x,-y,1/2+z
1/2+x,1/2+y,z
1/2-x,1/2-y,z
1/2+x,1/2-y,1/2-z
1/2-x,1/2+y,1/2-z
1/2-x,1/2-y,-z
1/2+x,1/2+y,-z
1/2-x,1/2+y,1/2+z
1/2+x,1/2-y,1/2+z
loop_
_atom_site_type_symbol
_atom_site_label
_atom_site_fract_x
_atom_site_fract_y
_atom_site_fract_z
Si Si1 0.046523 0.223212 0.671769
Si Si2 0.543032 0.711166 0.834147
Si Si3 0.875960 0.171271 0.614201
Si Si4 0.793787 0.790874 0.362629
Si Si5 0.318787 0.166784 0.000000
Si Si6 0.623969 0.250117 0.080474
Si Si7 0.343875 0.500000 0.750000
Si Si8 0.737072 0.491222 0.000000
O O1 0.049015 0.272409 0.753752
O O2 0.085006 0.289745 0.628327
O O3 0.001801 0.271989 0.644676
O O4 0.045574 0.006095 0.668588
O O5 0.579555 0.756406 0.885620
O O6 0.845978 0.292885 0.568829
O O7 0.867556 0.133556 0.697575
O O8 0.873998 0.969425 0.582705
O O9 0.750000 0.750000 0.330320
O O10 0.833238 0.680154 0.388908
O O11 0.815667 0.899830 0.303130
O O12 0.778965 0.894277 0.431393
O O13 0.286665 0.326502 0.000000
O O14 0.285757 0.007395 0.000000
O O15 0.619547 0.193956 0.000000
#
# Coordination Sequence:
#
# PCOD9494930 Si02
#       8
#    16  16  16  16   8  16   8   8
#     4   8  14  23  36  59  85 123 151 187 222 276
#     4   8  13  23  39  55  87 122 157 178 224 283
#     4  10  16  30  43  67  91 128 156 190 233 286
#     4  11  21  35  52  71  95 125 163 199 237 286
#     4  11  20  32  52  64  98 125 164 202 237 291
#     4  10  16  27  41  63  91 119 156 192 230 278
#     4  10  20  30  48  73  96 122 158 201 238 276
#     4  11  21  36  50  69  88 131 165 198 243 289
#
# _framework density 21.931322999999999
#
# number of rings (size 3 to 8) (size 9 to 14) (size 15 to 20)
#    0.000    2.308    4.615    3.923    0.000    1.231 
#    1.385    1.538    0.000    0.000    0.000    0.000 
#    0.000    2.462    0.000    4.769    0.000    0.923 
#
# Total GULP energy -289544.319878 kJ/mol
# GULP energy per Si atom -5568.159998 kJ/mol
# Density = 2.188141 g / cm^3
# Si number density = 21.931323 Si / 1000 Ang^3
#
#
#
# Elastic Constant Matrix: (Units=GPa)
#
#
# Indices 1 2 3 4 5 6 
#
# 1 238.8332 13.4459 56.5855 0.0000 0.0000 0.0000
# 2 13.4459 40.4807 7.9380 0.0000 0.0000 0.0000
# 3 56.5855 7.9380 98.7368 0.0000 0.0000 0.0000
# 4 0.0000 0.0000 0.0000 -10.4802 0.0000 0.0000
# 5 0.0000 0.0000 0.0000 0.0000 49.6379 0.0000
# 6 0.0000 0.0000 0.0000 0.0000 0.0000 8.0559
#
#
#
# Elastic Compliance Matrix: (Units=1/GPa)
#
#
# Indices 1 2 3 4 5 6 
#
# 1 0.004892 -0.001092 -0.002716 0.000000 0.000000 0.000000
# 2 -0.001092 0.025343 -0.001411 0.000000 0.000000 0.000000
# 3 -0.002716 -0.001411 0.011798 0.000000 0.000000 0.000000
# 4 0.000000 0.000000 0.000000 -0.095418 0.000000 0.000000
# 5 0.000000 0.000000 0.000000 0.000000 0.020146 0.000000
# 6 0.000000 0.000000 0.000000 0.000000 0.000000 0.124132
#
#
# Mechanical properties :
#
#
# Convention : Reuss Voigt Hill
#
# Bulk Modulus (GPa) = 31.65216 59.33217 45.49216
# Shear Modulus (GPa) = 44.69780 29.44815 37.07298
#
# Velocity S-wave (km/s) = 4.51941 3.66832 4.11592
# Velocity P-wave (km/s) = 6.45733 6.71226 6.58603
#
# Compressibility (1/GPa) = 0.03159342
#
# Stress axis : x y z
#
# Youngs Moduli (GPa) = 204.41783 39.45908 84.76181
#
# Poissons Ratio (x) = 0.04310 0.23019
# Poissons Ratio (y) = 0.22330 0.11964
# Poissons Ratio (z) = 0.55514 0.05569
#
# Static dielectric constant tensor:
#      x y z
#    x 1.894360 0.000000 0.000000 
#    y 0.000000 1.942560 0.000000 
#    z 0.000000 0.000000 1.791310 
# 
# From -- ./inp_files/44754.got.cif
#   From: 2010.05.17/outbox.cif.g08.bks.cpg/sg66_23_cif.got.tgz:44754.got - 2010.06.03 17:51:23.
