data_PCOD9494096
_publ_section_title
;
Structure prediction by ZEFSAII (Michael W. Deem and Ramdas Pophale) SiO2 
 PCOD9494096
Probable space group: C M M M
;
_chemical_formula_sum "Si O2"
_cell_formula_units_Z 56
_cell_length_a 14.241667
_cell_length_b 18.028700
_cell_length_c 10.781668
_cell_angle_alpha 90.000000
_cell_angle_beta 90.000000
_cell_angle_gamma 90.000000
_cell_volume 2768.287511
_symmetry_space_group_name_H-M "C M M M"
_symmetry_group_IT_number 65
_symmetry_cell_setting 'orthorhombic'
loop_
_space_group_symop_operation_xyz
x,y,z
-x,-y,z
x,-y,-z
-x,y,-z
-x,-y,-z
x,y,-z
-x,y,z
x,-y,z
1/2+x,1/2+y,z
1/2-x,1/2-y,z
1/2+x,1/2-y,-z
1/2-x,1/2+y,-z
1/2-x,1/2-y,-z
1/2+x,1/2+y,-z
1/2-x,1/2+y,z
1/2+x,1/2-y,z
loop_
_atom_site_type_symbol
_atom_site_label
_atom_site_fract_x
_atom_site_fract_y
_atom_site_fract_z
Si Si1 0.893016 0.089520 0.771433
Si Si2 0.886838 0.413166 0.640573
Si Si3 0.386074 0.415704 0.500000
Si Si4 0.282041 0.165610 0.862993
O O1 0.864023 0.117871 0.633288
O O2 0.813718 0.118202 0.860909
O O3 0.000000 0.113008 0.799029
O O4 0.893670 0.000000 0.766766
O O5 0.856006 0.392419 0.500000
O O6 0.861019 0.500000 0.659488
O O7 0.844883 0.364626 0.750874
O O8 0.000000 0.408852 0.642604
O O9 0.348968 0.500000 0.500000
O O10 0.500000 0.420721 0.500000
O O11 0.250000 0.250000 0.843643
O O12 0.326669 0.159272 0.000000
#
# Coordination Sequence:
#
# PCOD9494096 Si02
#       4
#    16  16   8  16
#     4   9  18  34  57  84 114 147 187 236 285 337
#     4   9  20  41  67  91 114 146 196 257 310 352
#     4   7  12  26  49  78 107 135 171 217 272 327
#     4  11  25  40  55  82 122 164 199 234 285 353
#
# _framework density 20.229111
#
# number of rings (size 3 to 8) (size 9 to 14) (size 15 to 20)
#    0.000    2.714    0.000    3.429    2.000    5.143 
#    0.000    5.714    0.000    0.000    0.000    0.000 
#    0.000    0.000    0.000    0.000    0.000    0.000 
#
# Total GULP energy -156169.501314 kJ/mol
# GULP energy per Si atom -5577.482190 kJ/mol
# Density = 2.018307 g / cm^3
# Si number density = 20.229111 Si / 1000 Ang^3
#
#
#
# Elastic Constant Matrix: (Units=GPa)
#
#
# Indices 1 2 3 4 5 6 
#
# 1 54.4915 22.9413 40.8897 0.0000 0.0000 0.0000
# 2 22.9413 47.6614 62.2753 0.0000 0.0000 0.0000
# 3 40.8897 62.2753 179.4587 0.0000 0.0000 0.0000
# 4 0.0000 0.0000 0.0000 25.1990 0.0000 0.0000
# 5 0.0000 0.0000 0.0000 0.0000 18.7299 0.0000
# 6 0.0000 0.0000 0.0000 0.0000 0.0000 -62.8703
#
#
#
# Elastic Compliance Matrix: (Units=1/GPa)
#
#
# Indices 1 2 3 4 5 6 
#
# 1 0.023677 -0.007954 -0.002635 0.000000 0.000000 0.000000
# 2 -0.007954 0.041059 -0.012436 0.000000 0.000000 0.000000
# 3 -0.002635 -0.012436 0.010488 0.000000 0.000000 0.000000
# 4 0.000000 0.000000 0.000000 0.039684 0.000000 0.000000
# 5 0.000000 0.000000 0.000000 0.000000 0.053391 0.000000
# 6 0.000000 0.000000 0.000000 0.000000 0.000000 -0.015906
#
#
# Mechanical properties :
#
#
# Convention : Reuss Voigt Hill
#
# Bulk Modulus (GPa) = 34.27625 59.31379 46.79502
# Shear Modulus (GPa) = 24.01912 6.57874 15.29893
#
# Velocity S-wave (km/s) = 3.44954 1.80532 2.75304
# Velocity P-wave (km/s) = 5.73119 5.80777 5.76961
#
# Compressibility (1/GPa) = 0.02917472
#
# Stress axis : x y z
#
# Youngs Moduli (GPa) = 42.23451 24.35527 95.34708
#
# Poissons Ratio (x) = 0.19373 0.25120
# Poissons Ratio (y) = 0.33595 1.18571
# Poissons Ratio (z) = 0.11127 0.30288
#
# Static dielectric constant tensor:
#      x y z
#    x 1.733730 0.000000 0.000000 
#    y 0.000000 1.686840 0.000000 
#    z 0.000000 0.000000 1.782200 
# 
# From -- ./inp_files/23503.got.cif
#   From: 2010.05.17/outbox.cif.g08.bks.cpg/sg65_12_cif.got.tgz:23503.got - 2010.06.03 17:01:31.
