data_PCOD9494210
_publ_section_title
;
Structure prediction by ZEFSAII (Michael W. Deem and Ramdas Pophale) SiO2 
 PCOD9494210
Probable space group: C M M M
;
_chemical_formula_sum "Si O2"
_cell_formula_units_Z 104
_cell_length_a 14.473470
_cell_length_b 7.289621
_cell_length_c 37.347914
_cell_angle_alpha 90.000000
_cell_angle_beta 90.000000
_cell_angle_gamma 90.000000
_cell_volume 3940.433155
_symmetry_space_group_name_H-M "C M M M"
_symmetry_group_IT_number 65
_symmetry_cell_setting 'orthorhombic'
loop_
_space_group_symop_operation_xyz
x,y,z
-x,-y,z
x,-y,-z
-x,y,-z
-x,-y,-z
x,y,-z
-x,y,z
x,-y,z
1/2+x,1/2+y,z
1/2-x,1/2-y,z
1/2+x,1/2-y,-z
1/2-x,1/2+y,-z
1/2-x,1/2-y,-z
1/2+x,1/2+y,-z
1/2-x,1/2+y,z
1/2+x,1/2-y,z
loop_
_atom_site_type_symbol
_atom_site_label
_atom_site_fract_x
_atom_site_fract_y
_atom_site_fract_z
Si Si1 0.112193 0.281537 0.923229
Si Si2 0.889610 0.778741 0.307148
Si Si3 0.610743 0.778634 0.000000
Si Si4 0.140974 0.781830 0.538399
Si Si5 0.893896 0.718780 0.847000
Si Si6 0.890418 0.207406 0.616907
Si Si7 0.606097 0.718487 0.231038
O O1 0.129422 0.500000 0.924227
O O2 0.145406 0.207604 0.961600
O O3 0.145946 0.209828 0.884690
O O4 0.000000 0.259369 0.922502
O O5 0.855486 0.707967 0.345732
O O6 0.852664 0.712064 0.268680
O O7 0.000000 0.742937 0.304782
O O8 0.878679 0.000000 0.309385
O O9 0.500000 0.745809 0.000000
O O10 0.621873 0.000000 0.000000
O O11 0.103973 0.712787 0.500000
O O12 0.250000 0.750000 0.536574
O O13 0.117152 0.706668 0.577600
O O14 0.119014 0.000000 0.539140
O O15 0.898017 0.500000 0.850796
O O16 0.851443 0.750815 0.808000
O O17 0.000000 0.788183 0.844927
O O18 0.000000 0.191303 0.622580
O O19 0.850767 0.000000 0.613755
O O20 0.500000 0.788437 0.228699
O O21 0.601448 0.500000 0.235129
#
# Coordination Sequence:
#
# PCOD9494210 Si02
#       7
#    16  16   8  16  16  16  16
#     4   7   9  12  17  25  36  49  67  94 128 164
#     4   7  10  17  29  45  63  80 100 130 165 195
#     4   7   8  10  16  24  33  45  63  91 127 163
#     4   9  17  28  42  60  81 104 127 151 182 220
#     4   8  12  16  21  30  44  60  78 102 133 170
#     4   8  13  22  38  59  78  95 121 158 190 211
#     4   8  12  17  25  36  49  66  87 109 137 177
#
# _framework density 26.393035999999999
#
# number of rings (size 3 to 8) (size 9 to 14) (size 15 to 20)
#    0.000    4.231    0.000    3.692    0.000    0.308 
#    0.000    1.538    0.000    1.385    0.000    4.846 
#    0.000    4.308    0.000    0.000    0.000    0.000 
#
# Total GULP energy -289586.194953 kJ/mol
# GULP energy per Si atom -5568.965288 kJ/mol
# Density = 2.633296 g / cm^3
# Si number density = 26.393036 Si / 1000 Ang^3
#
#
#
# Elastic Constant Matrix: (Units=GPa)
#
#
# Indices 1 2 3 4 5 6 
#
# 1 91.9638 -7.9754 14.6085 0.0000 0.0000 0.0000
# 2 -7.9754 117.7205 19.7809 0.0000 0.0000 0.0000
# 3 14.6085 19.7809 431.3982 0.0000 0.0000 0.0000
# 4 0.0000 0.0000 0.0000 -18.5243 0.0000 0.0000
# 5 0.0000 0.0000 0.0000 0.0000 6.0494 0.0000
# 6 0.0000 0.0000 0.0000 0.0000 0.0000 -8.0499
#
#
#
# Elastic Compliance Matrix: (Units=1/GPa)
#
#
# Indices 1 2 3 4 5 6 
#
# 1 0.011010 0.000815 -0.000410 0.000000 0.000000 0.000000
# 2 0.000815 0.008621 -0.000423 0.000000 0.000000 0.000000
# 3 -0.000410 -0.000423 0.002351 0.000000 0.000000 0.000000
# 4 0.000000 0.000000 0.000000 -0.053983 0.000000 0.000000
# 5 0.000000 0.000000 0.000000 0.000000 0.165306 0.000000
# 6 0.000000 0.000000 0.000000 0.000000 0.000000 -0.124225
#
#
# Mechanical properties :
#
#
# Convention : Reuss Voigt Hill
#
# Bulk Modulus (GPa) = 45.56758 77.10118 61.33438
# Shear Modulus (GPa) = 304.31177 36.87295 170.59236
#
# Velocity S-wave (km/s) = 10.74943 3.74180 8.04833
# Velocity P-wave (km/s) = 13.09082 6.92417 10.47172
#
# Compressibility (1/GPa) = 0.02194543
#
# Stress axis : x y z
#
# Youngs Moduli (GPa) = 90.82932 115.99642 425.29212
#
# Poissons Ratio (x) = -0.09452 0.17445
# Poissons Ratio (y) = -0.07401 0.17985
# Poissons Ratio (z) = 0.03726 0.04905
#
# Static dielectric constant tensor:
#      x y z
#    x 1.889560 0.000000 0.000000 
#    y 0.000000 1.868760 0.000000 
#    z 0.000000 0.000000 2.208780 
# 
# From -- ./inp_files/78060.got.cif
#   From: 2010.05.17/outbox.cif.g08.bks.cpg/sg65_40_cif.got.tgz:78060.got - 2010.06.03 17:01:31.
