data_PCOD9494539
_publ_section_title
;
Structure prediction by ZEFSAII (Michael W. Deem and Ramdas Pophale) SiO2 
 PCOD9494539
Probable space group: C M M M
;
_chemical_formula_sum "Si O2"
_cell_formula_units_Z 88
_cell_length_a 7.475550
_cell_length_b 19.394610
_cell_length_c 31.367820
_cell_angle_alpha 90.000000
_cell_angle_beta 90.000000
_cell_angle_gamma 90.000000
_cell_volume 4547.875202
_symmetry_space_group_name_H-M "C M M M"
_symmetry_group_IT_number 65
_symmetry_cell_setting 'orthorhombic'
loop_
_space_group_symop_operation_xyz
x,y,z
-x,-y,z
x,-y,-z
-x,y,-z
-x,-y,-z
x,y,-z
-x,y,z
x,-y,z
1/2+x,1/2+y,z
1/2-x,1/2-y,z
1/2+x,1/2-y,-z
1/2-x,1/2+y,-z
1/2-x,1/2-y,-z
1/2+x,1/2+y,-z
1/2-x,1/2+y,z
1/2+x,1/2-y,z
loop_
_atom_site_type_symbol
_atom_site_label
_atom_site_fract_x
_atom_site_fract_y
_atom_site_fract_z
Si Si1 0.286195 0.169599 0.301984
Si Si2 0.714293 0.169603 0.206607
Si Si3 0.288484 0.917787 0.617306
Si Si4 0.714159 0.170193 0.952020
Si Si5 0.780724 0.420522 0.872934
Si Si6 0.000000 0.083704 0.451585
O O1 0.500000 0.160123 0.300323
O O2 0.250000 0.250000 0.310591
O O3 0.216189 0.154307 0.254323
O O4 0.223169 0.122190 0.340635
O O5 0.500000 0.161538 0.208035
O O6 0.750000 0.250000 0.197247
O O7 0.780168 0.120613 0.169020
O O8 0.500000 0.904411 0.611075
O O9 0.172894 0.896754 0.576323
O O10 0.266592 0.000000 0.623586
O O11 0.500000 0.162015 0.953737
O O12 0.750000 0.250000 0.941085
O O13 0.780104 0.119601 0.915271
O O14 0.783773 0.157597 0.000000
O O15 0.726305 0.500000 0.872596
O O16 0.000000 0.419208 0.872955
O O17 0.000000 0.109613 0.500000
O O18 0.000000 0.000000 0.453711
#
# Coordination Sequence:
#
# PCOD9494539 Si02
#       6
#    16  16  16  16  16   8
#     4   9  18  30  47  72  95 125 161 196 243 291
#     4   9  17  30  47  67  91 119 157 194 230 283
#     4   9  18  32  50  75 103 131 168 211 253 298
#     4   9  17  29  46  67  89 116 154 196 237 284
#     4   9  17  28  44  67  92 120 153 192 241 286
#     4   9  18  32  52  78 104 134 171 209 254 302
#
# _framework density 19.349696000000002
#
# number of rings (size 3 to 8) (size 9 to 14) (size 15 to 20)
#    0.000    3.000    0.000    0.545    1.273    1.455 
#    0.000    7.273    0.000    2.727    0.000    2.545 
#    0.000    0.000    0.000    0.000    0.000    0.000 
#
# Total GULP energy -245409.090151 kJ/mol
# GULP energy per Si atom -5577.479322 kJ/mol
# Density = 1.930566 g / cm^3
# Si number density = 19.349696 Si / 1000 Ang^3
#
#
#
# Elastic Constant Matrix: (Units=GPa)
#
#
# Indices 1 2 3 4 5 6 
#
# 1 65.4300 20.8205 38.6797 0.0000 0.0000 0.0000
# 2 20.8205 99.3559 124.2089 0.0000 0.0000 0.0000
# 3 38.6797 124.2089 209.5590 0.0000 0.0000 0.0000
# 4 0.0000 0.0000 0.0000 14.9871 0.0000 0.0000
# 5 0.0000 0.0000 0.0000 0.0000 20.5591 0.0000
# 6 0.0000 0.0000 0.0000 0.0000 0.0000 18.8063
#
#
#
# Elastic Compliance Matrix: (Units=1/GPa)
#
#
# Indices 1 2 3 4 5 6 
#
# 1 0.017206 0.001408 -0.004010 0.000000 0.000000 0.000000
# 2 0.001408 0.038972 -0.023359 0.000000 0.000000 0.000000
# 3 -0.004010 -0.023359 0.019358 0.000000 0.000000 0.000000
# 4 0.000000 0.000000 0.000000 0.066724 0.000000 0.000000
# 5 0.000000 0.000000 0.000000 0.000000 0.048640 0.000000
# 6 0.000000 0.000000 0.000000 0.000000 0.000000 0.053174
#
#
# Mechanical properties :
#
#
# Convention : Reuss Voigt Hill
#
# Bulk Modulus (GPa) = 42.35064 82.41814 62.38439
# Shear Modulus (GPa) = 16.45448 23.57955 20.01702
#
# Velocity S-wave (km/s) = 2.91928 3.49463 3.21983
# Velocity P-wave (km/s) = 5.77039 7.67918 6.79217
#
# Compressibility (1/GPa) = 0.02361239
#
# Stress axis : x y z
#
# Youngs Moduli (GPa) = 58.11838 25.65928 51.65943
#
# Poissons Ratio (x) = -0.03612 0.20717
# Poissons Ratio (y) = -0.08181 1.20673
# Poissons Ratio (z) = 0.23307 0.59938
#
# Static dielectric constant tensor:
#      x y z
#    x 1.726960 0.000000 0.000000 
#    y 0.000000 1.621180 0.000000 
#    z 0.000000 0.000000 1.680350 
# 
# From -- ./inp_files/76630.got.cif
#   From: 2010.05.17/outbox.cif.g08.bks.cpg/sg65_39_cif.got.tgz:76630.got - 2010.06.03 17:01:31.
