data_PCOD9494559
_publ_section_title
;
Structure prediction by ZEFSAII (Michael W. Deem and Ramdas Pophale) SiO2 
 PCOD9494559
Probable space group: C M M M
;
_chemical_formula_sum "Si O2"
_cell_formula_units_Z 44
_cell_length_a 21.000000
_cell_length_b 15.000000
_cell_length_c 15.000000
_cell_angle_alpha 90.000000
_cell_angle_beta 90.000000
_cell_angle_gamma 90.000000
_cell_volume 4725.000000
_symmetry_space_group_name_H-M "C M M M"
_symmetry_group_IT_number 65
_symmetry_cell_setting 'orthorhombic'
loop_
_space_group_symop_operation_xyz
x,y,z
-x,-y,z
x,-y,-z
-x,y,-z
-x,-y,-z
x,y,-z
-x,y,z
x,-y,z
1/2+x,1/2+y,z
1/2-x,1/2-y,z
1/2+x,1/2-y,-z
1/2-x,1/2+y,-z
1/2-x,1/2-y,-z
1/2+x,1/2+y,-z
1/2-x,1/2+y,z
1/2+x,1/2-y,z
loop_
_atom_site_type_symbol
_atom_site_label
_atom_site_fract_x
_atom_site_fract_y
_atom_site_fract_z
Si Si1 0.111103 0.698529 0.784710
Si Si2 0.844210 0.900883 0.225401
Si Si3 0.500000 0.894031 0.106911
Si Si4 0.736943 0.644507 0.398866
Si Si5 0.116218 0.398460 0.398240
Si Si6 0.230785 0.353054 0.101306
O O1 0.117851 0.806675 0.786429
O O2 0.058955 0.658065 0.850392
O O3 0.097597 0.665032 0.683835
O O4 0.175078 0.652280 0.824700
O O5 0.808031 0.889886 0.320483
O O6 0.790868 0.899746 0.147382
O O7 0.875361 0.000000 0.223622
O O8 0.500000 0.000000 0.130070
O O9 0.500000 0.887956 0.000000
O O10 0.711385 0.633087 0.500000
O O11 0.750000 0.750000 0.384466
O O12 0.806696 0.601207 0.396035
O O13 0.098392 0.370695 0.500000
O O14 0.093317 0.500000 0.384116
O O15 0.250000 0.250000 0.091786
O O16 0.214702 0.385076 0.000000
#
# Coordination Sequence:
#
# PCOD9494559 Si02
#       6
#    16  16   8  16  16  16
#     4  11  21  39  59  81 113 150 187 238 285 332
#     4  11  21  33  53  85 119 153 189 225 278 345
#     4  11  26  46  68  88 104 137 192 244 292 346
#     4  10  17  29  49  79 122 163 194 226 272 332
#     4  10  19  31  52  82 115 151 188 229 281 337
#     4   9  18  33  53  77 108 143 178 223 282 337
#
# _framework density 9.3121690000000008
#
# number of rings (size 3 to 8) (size 9 to 14) (size 15 to 20)
#    0.000    1.727    3.636    2.182    0.000    2.909 
#    0.000    0.909    0.000    2.182    0.000    0.000 
#    0.000    2.909    0.000    0.000    0.000    0.000 
#
# Total GULP energy -245310.646851 kJ/mol
# GULP energy per Si atom -5575.241974 kJ/mol
# Density = 0.929097 g / cm^3
# Si number density = 9.312169 Si / 1000 Ang^3
#
#
#
# Elastic Constant Matrix: (Units=GPa)
#
#
# Indices 1 2 3 4 5 6 
#
# 1 31.2416 27.2512 14.6347 0.0000 0.0000 0.0000
# 2 27.2512 145.5547 50.0491 0.0000 0.0000 0.0000
# 3 14.6347 50.0491 135.6506 0.0000 0.0000 0.0000
# 4 0.0000 0.0000 0.0000 17.7978 0.0000 0.0000
# 5 0.0000 0.0000 0.0000 0.0000 21.5868 0.0000
# 6 0.0000 0.0000 0.0000 0.0000 0.0000 9.2281
#
#
#
# Elastic Compliance Matrix: (Units=1/GPa)
#
#
# Indices 1 2 3 4 5 6 
#
# 1 0.038602 -0.006637 -0.001716 0.000000 0.000000 0.000000
# 2 -0.006637 0.009010 -0.002608 0.000000 0.000000 0.000000
# 3 -0.001716 -0.002608 0.008519 0.000000 0.000000 0.000000
# 4 0.000000 0.000000 0.000000 0.056187 0.000000 0.000000
# 5 0.000000 0.000000 0.000000 0.000000 0.046325 0.000000
# 6 0.000000 0.000000 0.000000 0.000000 0.000000 0.108365
#
#
# Mechanical properties :
#
#
# Convention : Reuss Voigt Hill
#
# Bulk Modulus (GPa) = 29.23238 55.14633 42.18935
# Shear Modulus (GPa) = 16.64825 24.42332 20.53579
#
# Velocity S-wave (km/s) = 2.99306 3.62521 3.32419
# Velocity P-wave (km/s) = 5.26064 6.87000 6.11847
#
# Compressibility (1/GPa) = 0.03420864
#
# Stress axis : x y z
#
# Youngs Moduli (GPa) = 25.90554 110.99124 117.38091
#
# Poissons Ratio (x) = 0.73667 0.20139
# Poissons Ratio (y) = 0.17194 0.30615
# Poissons Ratio (z) = 0.04445 0.28948
#
# Static dielectric constant tensor:
#      x y z
#    x 1.702220 0.000000 0.000000 
#    y 0.000000 1.689160 0.000000 
#    z 0.000000 0.000000 1.661430 
# 
# From -- ./inp_files/40550.got.cif
#   From: 2010.05.17/outbox.ucp.g08.bks.cvg/sg65_21_cif.got.tgz:40550.got - 2010.06.11 16:39:57.
