data_PCOD9494619
_publ_section_title
;
Structure prediction by ZEFSAII (Michael W. Deem and Ramdas Pophale) SiO2 
 PCOD9494619
Probable space group: C M M M
;
_chemical_formula_sum "Si O2"
_cell_formula_units_Z 56
_cell_length_a 27.000000
_cell_length_b 15.000000
_cell_length_c 15.000000
_cell_angle_alpha 90.000000
_cell_angle_beta 90.000000
_cell_angle_gamma 90.000000
_cell_volume 6075.000000
_symmetry_space_group_name_H-M "C M M M"
_symmetry_group_IT_number 65
_symmetry_cell_setting 'orthorhombic'
loop_
_space_group_symop_operation_xyz
x,y,z
-x,-y,z
x,-y,-z
-x,y,-z
-x,-y,-z
x,y,-z
-x,y,z
x,-y,z
1/2+x,1/2+y,z
1/2-x,1/2-y,z
1/2+x,1/2-y,-z
1/2-x,1/2+y,-z
1/2-x,1/2-y,-z
1/2+x,1/2+y,-z
1/2-x,1/2+y,z
1/2+x,1/2-y,z
loop_
_atom_site_type_symbol
_atom_site_label
_atom_site_fract_x
_atom_site_fract_y
_atom_site_fract_z
Si Si1 0.859582 0.393973 0.900205
Si Si2 0.347432 0.605363 0.790346
Si Si3 0.558230 0.893012 0.237734
Si Si4 0.444175 0.608916 0.895588
Si Si5 0.249286 0.355531 0.100205
Si Si6 0.628542 0.394609 0.400986
Si Si7 0.441110 0.231236 0.401811
O O1 0.865861 0.500000 0.907995
O O2 0.905130 0.363271 0.840694
O O3 0.804610 0.379754 0.861247
O O4 0.859969 0.354227 0.000000
O O5 0.355387 0.500000 0.789941
O O6 0.397783 0.641984 0.836522
O O7 0.297826 0.620492 0.845380
O O8 0.340708 0.630904 0.686894
O O9 0.500000 0.877432 0.217802
O O10 0.572975 0.837183 0.324743
O O11 0.563743 0.000000 0.251780
O O12 0.500000 0.637739 0.867570
O O13 0.444491 0.500000 0.892545
O O14 0.437165 0.632727 0.000000
O O15 0.250000 0.250000 0.093122
O O16 0.251831 0.394458 0.000000
O O17 0.650643 0.380078 0.500000
O O18 0.616008 0.500000 0.396228
O O19 0.581774 0.329386 0.393095
O O20 0.426335 0.197292 0.500000
O O21 0.500000 0.238521 0.399120
#
# Coordination Sequence:
#
# PCOD9494619 Si02
#       7
#    16  16  16  16  16  16  16
#     4   9  18  33  53  76 104 137 171 211 258 309
#     4  10  19  31  52  75  96 133 176 214 259 309
#     4   9  18  32  53  82 110 137 172 214 262 317
#     4   8  14  25  42  67  98 127 158 200 247 298
#     4  10  21  34  50  75 105 135 170 215 261 307
#     4   9  19  34  51  74 103 136 177 223 266 311
#     4   9  18  32  51  75 104 140 177 216 264 313
#
# _framework density 9.2181069999999998
#
# number of rings (size 3 to 8) (size 9 to 14) (size 15 to 20)
#    0.000    2.857    0.000    1.286    2.000    2.857 
#    0.000    5.714    0.000    1.286    0.000    2.000 
#    0.000    0.000    0.000    0.000    0.000    0.000 
#
# Total GULP energy -311748.141309 kJ/mol
# GULP energy per Si atom -5566.931095 kJ/mol
# Density = 0.919713 g / cm^3
# Si number density = 9.218107 Si / 1000 Ang^3
#
#
#
# Elastic Constant Matrix: (Units=GPa)
#
#
# Indices 1 2 3 4 5 6 
#
# 1 100.9651 4.3491 78.0710 0.0000 0.0000 0.0000
# 2 4.3491 16.2909 14.7948 0.0000 0.0000 0.0000
# 3 78.0710 14.7948 114.1054 0.0000 0.0000 0.0000
# 4 0.0000 0.0000 0.0000 11.2868 0.0000 0.0000
# 5 0.0000 0.0000 0.0000 0.0000 6.5178 0.0000
# 6 0.0000 0.0000 0.0000 0.0000 0.0000 9.4968
#
#
#
# Elastic Compliance Matrix: (Units=1/GPa)
#
#
# Indices 1 2 3 4 5 6 
#
# 1 0.022109 0.008881 -0.016279 0.000000 0.000000 0.000000
# 2 0.008881 0.073145 -0.015560 0.000000 0.000000 0.000000
# 3 -0.016279 -0.015560 0.021919 0.000000 0.000000 0.000000
# 4 0.000000 0.000000 0.000000 0.088599 0.000000 0.000000
# 5 0.000000 0.000000 0.000000 0.000000 0.153427 0.000000
# 6 0.000000 0.000000 0.000000 0.000000 0.000000 0.105298
#
#
# Mechanical properties :
#
#
# Convention : Reuss Voigt Hill
#
# Bulk Modulus (GPa) = 14.03361 47.31012 30.67187
# Shear Modulus (GPa) = 9.36038 14.40337 11.88188
#
# Velocity S-wave (km/s) = 2.25570 2.79812 2.54143
# Velocity P-wave (km/s) = 3.79641 6.01303 5.02839
#
# Compressibility (1/GPa) = 0.07125749
#
# Stress axis : x y z
#
# Youngs Moduli (GPa) = 45.22968 13.67155 45.62177
#
# Poissons Ratio (x) = -0.12142 0.74267
# Poissons Ratio (y) = -0.40170 0.70990
# Poissons Ratio (z) = 0.73629 0.21274
#
# Static dielectric constant tensor:
#      x y z
#    x 1.639020 0.000000 0.000000 
#    y 0.000000 1.672080 0.000000 
#    z 0.000000 0.000000 1.699780 
# 
# From -- ./inp_files/47043.got.cif
#   From: 2010.05.17/outbox.ucp.g08.bks.cvg/sg65_24_cif.got.tgz:47043.got - 2010.06.11 16:39:57.
