data_PCOD9494263
_publ_section_title
;
Structure prediction by ZEFSAII (Michael W. Deem and Ramdas Pophale) SiO2 
 PCOD9494263
Probable space group: C M M M
;
_chemical_formula_sum "Si O2"
_cell_formula_units_Z 72
_cell_length_a 7.256492
_cell_length_b 14.993864
_cell_length_c 27.446792
_cell_angle_alpha 90.000000
_cell_angle_beta 90.000000
_cell_angle_gamma 90.000000
_cell_volume 2986.289307
_symmetry_space_group_name_H-M "C M M M"
_symmetry_group_IT_number 65
_symmetry_cell_setting 'orthorhombic'
loop_
_space_group_symop_operation_xyz
x,y,z
-x,-y,z
x,-y,-z
-x,y,-z
-x,-y,-z
x,y,-z
-x,y,z
x,-y,z
1/2+x,1/2+y,z
1/2-x,1/2-y,z
1/2+x,1/2-y,-z
1/2-x,1/2+y,-z
1/2-x,1/2-y,-z
1/2+x,1/2+y,-z
1/2-x,1/2+y,z
1/2+x,1/2-y,z
loop_
_atom_site_type_symbol
_atom_site_label
_atom_site_fract_x
_atom_site_fract_y
_atom_site_fract_z
Si Si1 0.725073 0.000000 0.444295
Si Si2 0.218370 0.644692 0.737885
Si Si3 0.290137 0.106638 0.844104
Si Si4 0.776059 0.394369 0.947782
Si Si5 0.719616 0.855695 0.632197
O O1 0.784815 0.085764 0.412926
O O2 0.500000 0.000000 0.445611
O O3 0.786886 0.000000 0.500000
O O4 0.250000 0.750000 0.734769
O O5 0.294893 0.619910 0.790887
O O6 0.289504 0.612272 0.685426
O O7 0.000000 0.622161 0.739418
O O8 0.500000 0.142537 0.841043
O O9 0.209802 0.141112 0.895365
O O10 0.300345 0.000000 0.850017
O O11 0.729809 0.500000 0.949302
O O12 0.000000 0.389489 0.946488
O O13 0.715050 0.355964 0.000000
O O14 0.500000 0.867792 0.634536
O O15 0.750000 0.750000 0.626145
#
# Coordination Sequence:
#
# PCOD9494263 Si02
#       5
#     8  16  16  16  16
#     4   9  18  32  51  75  99 125 158 194 232 273
#     4   9  17  28  43  62  85 112 141 173 213 257
#     4   8  13  20  34  57  78  99 134 176 211 246
#     4   7   9  14  25  44  72 100 124 159 209 253
#     4   9  18  32  50  71  96 126 158 192 231 275
#
# _framework density 24.110191
#
# number of rings (size 3 to 8) (size 9 to 14) (size 15 to 20)
#    0.000    3.667    0.000    2.000    1.556    0.444 
#    0.000    0.556    0.000    2.000    0.000    0.000 
#    0.000    0.000    0.000    5.556    0.000    4.444 
#
# Total GULP energy -200580.280275 kJ/mol
# GULP energy per Si atom -5571.674452 kJ/mol
# Density = 2.405531 g / cm^3
# Si number density = 24.110191 Si / 1000 Ang^3
#
#
#
# Elastic Constant Matrix: (Units=GPa)
#
#
# Indices 1 2 3 4 5 6 
#
# 1 112.9970 -7.5164 19.0298 0.0000 0.0000 0.0000
# 2 -7.5164 71.7000 72.3937 0.0000 0.0000 0.0000
# 3 19.0298 72.3937 357.5410 0.0000 0.0000 0.0000
# 4 0.0000 0.0000 0.0000 54.3210 0.0000 0.0000
# 5 0.0000 0.0000 0.0000 0.0000 -52.5661 0.0000
# 6 0.0000 0.0000 0.0000 0.0000 0.0000 2.1688
#
#
#
# Elastic Compliance Matrix: (Units=1/GPa)
#
#
# Indices 1 2 3 4 5 6 
#
# 1 0.009114 0.001817 -0.000853 0.000000 0.000000 0.000000
# 2 0.001817 0.017893 -0.003720 0.000000 0.000000 0.000000
# 3 -0.000853 -0.003720 0.003595 0.000000 0.000000 0.000000
# 4 0.000000 0.000000 0.000000 0.018409 0.000000 0.000000
# 5 0.000000 0.000000 0.000000 0.000000 -0.019024 0.000000
# 6 0.000000 0.000000 0.000000 0.000000 0.000000 0.461074
#
#
# Mechanical properties :
#
#
# Convention : Reuss Voigt Hill
#
# Bulk Modulus (GPa) = 39.85503 78.89467 59.37485
# Shear Modulus (GPa) = 9.90221 31.34014 20.62118
#
# Velocity S-wave (km/s) = 2.02879 3.60928 2.92770
# Velocity P-wave (km/s) = 4.69619 7.08257 6.00904
#
# Compressibility (1/GPa) = 0.02509094
#
# Stress axis : x y z
#
# Youngs Moduli (GPa) = 109.71801 55.88767 278.13220
#
# Poissons Ratio (x) = -0.10153 0.23723
# Poissons Ratio (y) = -0.19932 1.03454
# Poissons Ratio (z) = 0.09358 0.20788
#
# Static dielectric constant tensor:
#      x y z
#    x 1.971090 0.000000 0.000000 
#    y 0.000000 1.894500 0.000000 
#    z 0.000000 0.000000 1.990500 
# 
# From -- ./inp_files/69662.got.cif
#   From: 2010.05.17/outbox.cif.g08.bks.cpg/sg65_35_cif.got.tgz:69662.got - 2010.06.03 17:01:31.
