data_PCOD9494062
_publ_section_title
;
Structure prediction by ZEFSAII (Michael W. Deem and Ramdas Pophale) SiO2 
 PCOD9494062
Probable space group: C M M M
;
_chemical_formula_sum "Si O2"
_cell_formula_units_Z 48
_cell_length_a 10.119989
_cell_length_b 10.132853
_cell_length_c 26.069642
_cell_angle_alpha 90.000000
_cell_angle_beta 90.000000
_cell_angle_gamma 90.000000
_cell_volume 2673.294778
_symmetry_space_group_name_H-M "C M M M"
_symmetry_group_IT_number 65
_symmetry_cell_setting 'orthorhombic'
loop_
_space_group_symop_operation_xyz
x,y,z
-x,-y,z
x,-y,-z
-x,y,-z
-x,-y,-z
x,y,-z
-x,y,z
x,-y,z
1/2+x,1/2+y,z
1/2-x,1/2-y,z
1/2+x,1/2-y,-z
1/2-x,1/2+y,-z
1/2-x,1/2-y,-z
1/2+x,1/2+y,-z
1/2-x,1/2+y,z
1/2+x,1/2-y,z
loop_
_atom_site_type_symbol
_atom_site_label
_atom_site_fract_x
_atom_site_fract_y
_atom_site_fract_z
Si Si1 0.000000 0.842058 0.689560
Si Si2 0.750000 0.750000 0.374993
Si Si3 0.338559 0.500000 0.061057
Si Si4 0.659114 0.000000 0.440097
Si Si5 0.250000 0.750000 0.875325
Si Si6 0.000000 0.837763 0.189287
O O1 0.872649 0.784745 0.661227
O O2 0.000000 0.812165 0.750041
O O3 0.000000 0.000000 0.683951
O O4 0.714236 0.872674 0.411050
O O5 0.500000 0.500000 0.069767
O O6 0.268311 0.375015 0.087319
O O7 0.320581 0.500000 0.000000
O O8 0.500000 0.000000 0.436944
O O9 0.696475 0.000000 0.500000
O O10 0.125124 0.770143 0.837978
O O11 0.000000 0.000000 0.182992
#
# Coordination Sequence:
#
# PCOD9494062 Si02
#       6
#     8   8   8   8   8   8
#     4  11  24  41  66  93 127 167 211 261 314 381
#     4  12  22  44  64  96 124 168 214 256 322 376
#     4  11  24  43  66  94 131 168 209 263 316 367
#     4  11  24  41  64  94 131 166 209 267 320 371
#     4  12  20  46  64  94 126 168 208 256 318 368
#     4  11  24  43  64  93 131 167 207 263 320 371
#
# _framework density 17.955371
#
# number of rings (size 3 to 8) (size 9 to 14) (size 15 to 20)
#    0.000    0.667    6.667    2.000    0.000    0.667 
#    0.000    3.333    0.000    0.000    0.000    0.000 
#    0.000    0.000    0.000    0.000    0.000    0.000 
#
# Total GULP energy -133993.395463 kJ/mol
# GULP energy per Si atom -5583.058144 kJ/mol
# Density = 1.791450 g / cm^3
# Si number density = 17.955371 Si / 1000 Ang^3
#
#
#
# Elastic Constant Matrix: (Units=GPa)
#
#
# Indices 1 2 3 4 5 6 
#
# 1 167.7163 84.5871 108.2350 0.0000 0.0000 0.0000
# 2 84.5871 173.8052 110.0447 0.0000 0.0000 0.0000
# 3 108.2350 110.0447 228.9217 0.0000 0.0000 0.0000
# 4 0.0000 0.0000 0.0000 22.9176 0.0000 0.0000
# 5 0.0000 0.0000 0.0000 0.0000 132.2140 0.0000
# 6 0.0000 0.0000 0.0000 0.0000 0.0000 64.2737
#
#
#
# Elastic Compliance Matrix: (Units=1/GPa)
#
#
# Indices 1 2 3 4 5 6 
#
# 1 0.009279 -0.002499 -0.003186 0.000000 0.000000 0.000000
# 2 -0.002499 0.008944 -0.003118 0.000000 0.000000 0.000000
# 3 -0.003186 -0.003118 0.007373 0.000000 0.000000 0.000000
# 4 0.000000 0.000000 0.000000 0.043635 0.000000 0.000000
# 5 0.000000 0.000000 0.000000 0.000000 0.007563 0.000000
# 6 0.000000 0.000000 0.000000 0.000000 0.000000 0.015558
#
#
# Mechanical properties :
#
#
# Convention : Reuss Voigt Hill
#
# Bulk Modulus (GPa) = 125.14231 130.68631 127.91431
# Shear Modulus (GPa) = 44.39680 61.71950 53.05815
#
# Velocity S-wave (km/s) = 4.97794 5.86928 5.44189
# Velocity P-wave (km/s) = 10.14334 10.90290 10.52997
#
# Compressibility (1/GPa) = 0.00799090
#
# Stress axis : x y z
#
# Youngs Moduli (GPa) = 107.77532 111.81043 135.62178
#
# Poissons Ratio (x) = 0.27936 0.43207
# Poissons Ratio (y) = 0.26928 0.42287
# Poissons Ratio (z) = 0.34336 0.34863
#
# Static dielectric constant tensor:
#      x y z
#    x 1.617180 0.000000 0.000000 
#    y 0.000000 1.621440 0.000000 
#    z 0.000000 0.000000 1.594140 
# 
# From -- ./inp_files/76349.got.cif
#   From: 2010.05.17/outbox.cif.g08.bks.cpg/sg65_39_cif.got.tgz:76349.got - 2010.06.03 17:01:31.
