data_PCOD9494249
_publ_section_title
;
Structure prediction by ZEFSAII (Michael W. Deem and Ramdas Pophale) SiO2 
 PCOD9494249
Probable space group: C M M M
;
_chemical_formula_sum "Si O2"
_cell_formula_units_Z 72
_cell_length_a 14.560106
_cell_length_b 7.178385
_cell_length_c 25.903882
_cell_angle_alpha 90.000000
_cell_angle_beta 90.000000
_cell_angle_gamma 90.000000
_cell_volume 2707.423144
_symmetry_space_group_name_H-M "C M M M"
_symmetry_group_IT_number 65
_symmetry_cell_setting 'orthorhombic'
loop_
_space_group_symop_operation_xyz
x,y,z
-x,-y,z
x,-y,-z
-x,y,-z
-x,-y,-z
x,y,-z
-x,y,z
x,-y,z
1/2+x,1/2+y,z
1/2-x,1/2-y,z
1/2+x,1/2-y,-z
1/2-x,1/2+y,-z
1/2-x,1/2-y,-z
1/2+x,1/2+y,-z
1/2-x,1/2+y,z
1/2+x,1/2-y,z
loop_
_atom_site_type_symbol
_atom_site_label
_atom_site_fract_x
_atom_site_fract_y
_atom_site_fract_z
Si Si1 0.389986 0.275575 0.055357
Si Si2 0.860696 0.221900 0.500000
Si Si3 0.891375 0.773864 0.166032
Si Si4 0.390727 0.710461 0.275792
Si Si5 0.358551 0.720429 0.389018
O O1 0.500000 0.238343 0.055154
O O2 0.380901 0.500000 0.055474
O O3 0.353041 0.209376 0.110778
O O4 0.353791 0.207326 0.000000
O O5 0.750000 0.250000 0.500000
O O6 0.894704 0.291668 0.444288
O O7 0.876763 0.000000 0.500000
O O8 0.855360 0.707252 0.221686
O O9 0.000000 0.728040 0.163943
O O10 0.885362 0.000000 0.167581
O O11 0.500000 0.696278 0.268169
O O12 0.351714 0.500000 0.279989
O O13 0.381588 0.796694 0.332445
O O14 0.381951 0.500000 0.387635
O O15 0.250000 0.750000 0.392320
#
# Coordination Sequence:
#
# PCOD9494249 Si02
#       5
#    16   8  16  16  16
#     4   7   8   9  14  26  46  73 103 131 158 191
#     4   8  14  24  37  53  71  91 115 142 174 208
#     4   7   9  13  21  34  54  80 107 133 163 200
#     4   8  13  21  33  49  69  92 116 142 174 211
#     4   9  16  26  40  56  73  93 118 147 176 207
#
# _framework density 26.593554000000001
#
# number of rings (size 3 to 8) (size 9 to 14) (size 15 to 20)
#    0.000    4.222    0.000    3.333    0.000    0.000 
#    0.000    0.556    0.000    4.000    0.000    0.000 
#    0.000    9.778    0.000    0.667    0.000    3.333 
#
# Total GULP energy -200537.413522 kJ/mol
# GULP energy per Si atom -5570.483709 kJ/mol
# Density = 2.653303 g / cm^3
# Si number density = 26.593554 Si / 1000 Ang^3
#
#
#
# Elastic Constant Matrix: (Units=GPa)
#
#
# Indices 1 2 3 4 5 6 
#
# 1 84.3157 -9.6545 15.0472 0.0000 0.0000 0.0000
# 2 -9.6545 143.3384 25.6785 0.0000 0.0000 0.0000
# 3 15.0472 25.6785 445.2284 0.0000 0.0000 0.0000
# 4 0.0000 0.0000 0.0000 -55.1932 0.0000 0.0000
# 5 0.0000 0.0000 0.0000 0.0000 23.5266 0.0000
# 6 0.0000 0.0000 0.0000 0.0000 0.0000 -9.6572
#
#
#
# Elastic Compliance Matrix: (Units=1/GPa)
#
#
# Indices 1 2 3 4 5 6 
#
# 1 0.012044 0.000893 -0.000459 0.000000 0.000000 0.000000
# 2 0.000893 0.007116 -0.000441 0.000000 0.000000 0.000000
# 3 -0.000459 -0.000441 0.002287 0.000000 0.000000 0.000000
# 4 0.000000 0.000000 0.000000 -0.018118 0.000000 0.000000
# 5 0.000000 0.000000 0.000000 0.000000 0.042505 0.000000
# 6 0.000000 0.000000 0.000000 0.000000 0.000000 -0.103550
#
#
# Mechanical properties :
#
#
# Convention : Reuss Voigt Hill
#
# Bulk Modulus (GPa) = 46.65196 81.66942 64.16069
# Shear Modulus (GPa) = -98.89278 34.52268 -32.18505
#
# Velocity S-wave (km/s) = -6.10471 3.60691 -3.48265
# Velocity P-wave (km/s) = 5.66651 6.93709 2.82966
#
# Compressibility (1/GPa) = 0.02143533
#
# Stress axis : x y z
#
# Youngs Moduli (GPa) = 83.02664 140.53625 437.26409
#
# Poissons Ratio (x) = -0.12555 0.20052
# Poissons Ratio (y) = -0.07418 0.19265
# Poissons Ratio (z) = 0.03807 0.06192
#
# Static dielectric constant tensor:
#      x y z
#    x 2.082160 0.000000 0.000000 
#    y 0.000000 2.018490 0.000000 
#    z 0.000000 0.000000 2.190890 
# 
# From -- ./inp_files/64994.got.cif
#   From: 2010.05.17/outbox.cif.g08.bks.cpg/sg65_33_cif.got.tgz:64994.got - 2010.06.03 17:01:31.
