data_PCOD9494827
_publ_section_title
;
Structure prediction by ZEFSAII (Michael W. Deem and Ramdas Pophale) SiO2 
 PCOD9494827
Probable space group: C M M M
;
_chemical_formula_sum "Si O2"
_cell_formula_units_Z 32
_cell_length_a 9.000000
_cell_length_b 15.000000
_cell_length_c 24.000000
_cell_angle_alpha 90.000000
_cell_angle_beta 90.000000
_cell_angle_gamma 90.000000
_cell_volume 3240.000000
_symmetry_space_group_name_H-M "C M M M"
_symmetry_group_IT_number 65
_symmetry_cell_setting 'orthorhombic'
loop_
_space_group_symop_operation_xyz
x,y,z
-x,-y,z
x,-y,-z
-x,y,-z
-x,-y,-z
x,y,-z
-x,y,z
x,-y,z
1/2+x,1/2+y,z
1/2-x,1/2-y,z
1/2+x,1/2-y,-z
1/2-x,1/2+y,-z
1/2-x,1/2-y,-z
1/2+x,1/2+y,-z
1/2-x,1/2+y,z
1/2+x,1/2-y,z
loop_
_atom_site_type_symbol
_atom_site_label
_atom_site_fract_x
_atom_site_fract_y
_atom_site_fract_z
Si Si1 0.833361 0.105772 0.615570
Si Si2 0.320003 0.500000 0.067093
Si Si3 0.680659 0.845676 0.144095
Si Si4 0.328764 0.892026 0.728111
Si Si5 0.822104 0.653382 0.500000
O O1 0.761849 0.139803 0.673596
O O2 0.738099 0.115231 0.558941
O O3 0.000000 0.143372 0.606977
O O4 0.846758 0.000000 0.623788
O O5 0.500000 0.500000 0.072445
O O6 0.250053 0.416450 0.100855
O O7 0.286469 0.500000 0.000000
O O8 0.500000 0.847696 0.140710
O O9 0.750000 0.750000 0.130624
O O10 0.721104 0.865442 0.209387
O O11 0.500000 0.862888 0.721712
O O12 0.326856 0.000000 0.727506
O O13 0.750000 0.750000 0.500000
O O14 0.000000 0.651306 0.500000
#
# Coordination Sequence:
#
# PCOD9494827 Si02
#       5
#    16   8  16  16   8
#     4  10  21  37  59  87 117 153 197 246 301 365
#     4  11  25  45  69  97 131 172 217 266 319 379
#     4  11  23  41  66  98 133 173 216 266 320 379
#     4   9  18  36  60  87 121 161 205 253 308 368
#     4  12  25  40  57  77 109 153 197 252 311 366
#
# _framework density 9.8765429999999999
#
# number of rings (size 3 to 8) (size 9 to 14) (size 15 to 20)
#    0.000    1.625    1.250    3.375    0.000    7.500 
#    0.000    2.500    0.000    0.000    0.000    0.000 
#    0.000    0.000    0.000    0.000    0.000    0.000 
#
# Total GULP energy -178601.286870 kJ/mol
# GULP energy per Si atom -5581.290215 kJ/mol
# Density = 0.985406 g / cm^3
# Si number density = 9.876543 Si / 1000 Ang^3
#
#
#
# Elastic Constant Matrix: (Units=GPa)
#
#
# Indices 1 2 3 4 5 6 
#
# 1 144.9116 42.3201 100.4733 0.0000 0.0000 0.0000
# 2 42.3201 92.8897 60.2480 0.0000 0.0000 0.0000
# 3 100.4733 60.2480 213.0230 0.0000 0.0000 0.0000
# 4 0.0000 0.0000 0.0000 -9.9399 0.0000 0.0000
# 5 0.0000 0.0000 0.0000 0.0000 44.8690 0.0000
# 6 0.0000 0.0000 0.0000 0.0000 0.0000 25.0260
#
#
#
# Elastic Compliance Matrix: (Units=1/GPa)
#
#
# Indices 1 2 3 4 5 6 
#
# 1 0.010529 -0.001930 -0.004420 0.000000 0.000000 0.000000
# 2 -0.001930 0.013538 -0.002918 0.000000 0.000000 0.000000
# 3 -0.004420 -0.002918 0.007605 0.000000 0.000000 0.000000
# 4 0.000000 0.000000 0.000000 -0.100605 0.000000 0.000000
# 5 0.000000 0.000000 0.000000 0.000000 0.022287 0.000000
# 6 0.000000 0.000000 0.000000 0.000000 0.000000 0.039958
#
#
# Mechanical properties :
#
#
# Convention : Reuss Voigt Hill
#
# Bulk Modulus (GPa) = 76.13908 95.21189 85.67549
# Shear Modulus (GPa) = 308.11797 28.50990 168.31393
#
# Velocity S-wave (km/s) = 12.50293 3.80322 9.24088
# Velocity P-wave (km/s) = 15.71815 8.22141 12.54296
#
# Compressibility (1/GPa) = 0.01313386
#
# Stress axis : x y z
#
# Youngs Moduli (GPa) = 94.97421 73.86788 131.49972
#
# Poissons Ratio (x) = 0.14257 0.58126
# Poissons Ratio (y) = 0.18331 0.38378
# Poissons Ratio (z) = 0.41981 0.21558
#
# Static dielectric constant tensor:
#      x y z
#    x 1.712080 0.000000 0.000000 
#    y 0.000000 2.087700 0.000000 
#    z 0.000000 0.000000 1.696080 
# 
# From -- ./inp_files/66749.got.cif
#   From: 2010.05.17/outbox.ucp.g08.bks.cvg/sg65_34_cif.got.tgz:66749.got - 2010.06.11 16:39:57.
