data_PCOD9494500
_publ_section_title
;
Structure prediction by ZEFSAII (Michael W. Deem and Ramdas Pophale) SiO2 
 PCOD9494500
Probable space group: C M M M
;
_chemical_formula_sum "Si O2"
_cell_formula_units_Z 72
_cell_length_a 9.356053
_cell_length_b 31.042568
_cell_length_c 18.200770
_cell_angle_alpha 90.000000
_cell_angle_beta 90.000000
_cell_angle_gamma 90.000000
_cell_volume 5286.157224
_symmetry_space_group_name_H-M "C M M M"
_symmetry_group_IT_number 65
_symmetry_cell_setting 'orthorhombic'
loop_
_space_group_symop_operation_xyz
x,y,z
-x,-y,z
x,-y,-z
-x,y,-z
-x,-y,-z
x,y,-z
-x,y,z
x,-y,z
1/2+x,1/2+y,z
1/2-x,1/2-y,z
1/2+x,1/2-y,-z
1/2-x,1/2+y,-z
1/2-x,1/2-y,-z
1/2+x,1/2+y,-z
1/2-x,1/2+y,z
1/2+x,1/2-y,z
loop_
_atom_site_type_symbol
_atom_site_label
_atom_site_fract_x
_atom_site_fract_y
_atom_site_fract_z
Si Si1 0.829476 0.120962 0.085744
Si Si2 0.165203 0.052547 0.500000
Si Si3 0.164420 0.707715 0.089394
Si Si4 0.164531 0.447614 0.354781
Si Si5 0.329533 0.550347 0.206907
O O1 0.744512 0.163624 0.109246
O O2 0.796070 0.080876 0.138228
O O3 0.000000 0.129292 0.090153
O O4 0.796428 0.111880 0.000000
O O5 0.248115 0.066512 0.426636
O O6 0.000000 0.066104 0.500000
O O7 0.165532 0.000000 0.500000
O O8 0.250000 0.750000 0.114401
O O9 0.000000 0.708259 0.113690
O O10 0.164096 0.708914 0.000000
O O11 0.163901 0.500000 0.356529
O O12 0.243610 0.435823 0.279365
O O13 0.000000 0.433330 0.356659
O O14 0.500000 0.553155 0.221384
O O15 0.297327 0.500000 0.191642
#
# Coordination Sequence:
#
# PCOD9494500 Si02
#       5
#    16   8  16  16  16
#     4   9  17  28  41  57  77 102 134 170 204 237
#     4   9  15  23  37  55  73  93 120 155 194 237
#     4   9  16  26  41  59  77  96 120 154 198 246
#     4   9  16  25  37  53  73  97 126 160 197 235
#     4   9  17  28  40  54  75 105 139 171 201 232
#
# _framework density 13.620480000000001
#
# number of rings (size 3 to 8) (size 9 to 14) (size 15 to 20)
#    0.000    3.000    0.000    1.667    0.000    8.000 
#    0.000    2.222    0.000    0.000    0.000    6.222 
#    0.000    0.000    0.000    1.000    0.000   13.444 
#
# Total GULP energy -200424.371958 kJ/mol
# GULP energy per Si atom -5567.343665 kJ/mol
# Density = 1.358948 g / cm^3
# Si number density = 13.620480 Si / 1000 Ang^3
#
#
#
# Elastic Constant Matrix: (Units=GPa)
#
#
# Indices 1 2 3 4 5 6 
#
# 1 88.6871 52.1940 62.4603 0.0000 0.0000 0.0000
# 2 52.1940 67.3154 51.1822 0.0000 0.0000 0.0000
# 3 62.4603 51.1822 88.9060 0.0000 0.0000 0.0000
# 4 0.0000 0.0000 0.0000 -0.0709 0.0000 0.0000
# 5 0.0000 0.0000 0.0000 0.0000 15.4667 0.0000
# 6 0.0000 0.0000 0.0000 0.0000 0.0000 17.4231
#
#
#
# Elastic Compliance Matrix: (Units=1/GPa)
#
#
# Indices 1 2 3 4 5 6 
#
# 1 0.026426 -0.011336 -0.012040 0.000000 0.000000 0.000000
# 2 -0.011336 0.031282 -0.010045 0.000000 0.000000 0.000000
# 3 -0.012040 -0.010045 0.025489 0.000000 0.000000 0.000000
# 4 0.000000 0.000000 0.000000-14.114325 0.000000 0.000000
# 5 0.000000 0.000000 0.000000 0.000000 0.064655 0.000000
# 6 0.000000 0.000000 0.000000 0.000000 0.000000 0.057395
#
#
# Mechanical properties :
#
#
# Convention : Reuss Voigt Hill
#
# Bulk Modulus (GPa) = 61.13721 64.06460 62.60091
# Shear Modulus (GPa) = -0.36136 11.83526 5.73695
#
# Velocity S-wave (km/s) = -0.51563 2.95096 2.05454
# Velocity P-wave (km/s) = 6.68051 7.66476 7.18950
#
# Compressibility (1/GPa) = 0.01635665
#
# Stress axis : x y z
#
# Youngs Moduli (GPa) = 37.84139 31.96683 39.23251
#
# Poissons Ratio (x) = 0.36237 0.47234
# Poissons Ratio (y) = 0.42896 0.39410
# Poissons Ratio (z) = 0.45560 0.32111
#
# Static dielectric constant tensor:
#      x y z
#    x 1.460030 0.000000 0.000000 
#    y 0.000000 1.419590 0.000000 
#    z 0.000000 0.000000 1.430710 
# 
# From -- ./inp_files/37006.got.cif
#   From: 2010.05.17/outbox.cif.g08.bks.cpg/sg65_19_cif.got.tgz:37006.got - 2010.06.03 17:01:31.
