data_PCOD9494691
_publ_section_title
;
Structure prediction by ZEFSAII (Michael W. Deem and Ramdas Pophale) SiO2 
 PCOD9494691
Probable space group: C M M M
;
_chemical_formula_sum "Si O2"
_cell_formula_units_Z 40
_cell_length_a 18.000000
_cell_length_b 27.000000
_cell_length_c 9.000000
_cell_angle_alpha 90.000000
_cell_angle_beta 90.000000
_cell_angle_gamma 90.000000
_cell_volume 4374.000000
_symmetry_space_group_name_H-M "C M M M"
_symmetry_group_IT_number 65
_symmetry_cell_setting 'orthorhombic'
loop_
_space_group_symop_operation_xyz
x,y,z
-x,-y,z
x,-y,-z
-x,y,-z
-x,-y,-z
x,y,-z
-x,y,z
x,-y,z
1/2+x,1/2+y,z
1/2-x,1/2-y,z
1/2+x,1/2-y,-z
1/2-x,1/2+y,-z
1/2-x,1/2-y,-z
1/2+x,1/2+y,-z
1/2-x,1/2+y,z
1/2+x,1/2-y,z
loop_
_atom_site_type_symbol
_atom_site_label
_atom_site_fract_x
_atom_site_fract_y
_atom_site_fract_z
Si Si1 0.744344 0.554607 0.677704
Si Si2 0.378227 0.680889 0.825167
Si Si3 0.579595 0.579527 0.678571
Si Si4 0.416760 0.782681 0.674175
Si Si5 0.708019 0.153369 0.174441
O O1 0.747462 0.565103 0.500000
O O2 0.775125 0.500000 0.702961
O O3 0.657174 0.554988 0.723128
O O4 0.783320 0.597483 0.768839
O O5 0.412929 0.635639 0.734654
O O6 0.408441 0.732234 0.765529
O O7 0.289036 0.678286 0.803266
O O8 0.392971 0.674635 0.000000
O O9 0.578607 0.577759 0.500000
O O10 0.500000 0.559346 0.731228
O O11 0.406249 0.771971 0.500000
O O12 0.500000 0.802758 0.694695
O O13 0.354286 0.819346 0.732138
O O14 0.690945 0.155823 0.000000
#
# Coordination Sequence:
#
# PCOD9494691 Si02
#       5
#    16  16  16  16  16
#     4   9  18  33  53  75  99 131 170 211 256 301
#     4  10  20  33  50  74 104 138 174 206 240 289
#     4   9  17  29  46  71 104 139 174 210 246 288
#     4  11  23  36  52  76 104 133 166 205 250 299
#     4  10  21  36  54  76 102 133 169 208 249 295
#
# _framework density 9.1449470000000002
#
# number of rings (size 3 to 8) (size 9 to 14) (size 15 to 20)
#    0.000    2.200    0.000    3.000    0.000   10.000 
#    0.000    2.000    0.000    0.600    0.000    9.800 
#    0.000    0.000    0.000    0.000    0.000    0.000 
#
# Total GULP energy -223178.583651 kJ/mol
# GULP energy per Si atom -5579.464591 kJ/mol
# Density = 0.912413 g / cm^3
# Si number density = 9.144947 Si / 1000 Ang^3
#
#
#
# Elastic Constant Matrix: (Units=GPa)
#
#
# Indices 1 2 3 4 5 6 
#
# 1 20.9561 10.1009 -8.9219 0.0000 0.0000 0.0000
# 2 10.1009 47.5505 -15.5089 0.0000 0.0000 0.0000
# 3 -8.9219 -15.5089 -24.8001 0.0000 0.0000 0.0000
# 4 0.0000 0.0000 0.0000 35.2605 0.0000 0.0000
# 5 0.0000 0.0000 0.0000 0.0000 16.2732 0.0000
# 6 0.0000 0.0000 0.0000 0.0000 0.0000 -21.7771
#
#
#
# Elastic Compliance Matrix: (Units=1/GPa)
#
#
# Indices 1 2 3 4 5 6 
#
# 1 0.050324 -0.013784 -0.009485 0.000000 0.000000 0.000000
# 2 -0.013784 0.021243 -0.008326 0.000000 0.000000 0.000000
# 3 -0.009485 -0.008326 -0.031704 0.000000 0.000000 0.000000
# 4 0.000000 0.000000 0.000000 0.028360 0.000000 0.000000
# 5 0.000000 0.000000 0.000000 0.000000 0.061451 0.000000
# 6 0.000000 0.000000 0.000000 0.000000 0.000000 -0.045920
#
#
# Mechanical properties :
#
#
# Convention : Reuss Voigt Hill
#
# Bulk Modulus (GPa) = -42.87363 1.67187 -20.60088
# Shear Modulus (GPa) = 35.92783 9.82042 22.87412
#
# Velocity S-wave (km/s) = 4.43691 2.31969 3.54028
# Velocity P-wave (km/s) = 1.66018 2.84442 2.32883
#
# Compressibility (1/GPa) = -0.02332436
#
# Stress axis : x y z
#
# Youngs Moduli (GPa) = 19.87104 47.07468 -31.54196
#
# Poissons Ratio (x) = 0.64886 -0.29917
# Poissons Ratio (y) = 0.27390 -0.26261
# Poissons Ratio (z) = 0.18847 0.39192
#
# Static dielectric constant tensor:
#      x y z
#    x 1.655330 0.000000 0.000000 
#    y 0.000000 1.633930 0.000000 
#    z 0.000000 0.000000 1.609540 
# 
# From -- ./inp_files/9571.got.cif
#   From: 2010.05.17/outbox.ucp.g08.bks.cvg/sg65_5_cif.got.tgz:9571.got - 2010.06.11 16:39:57.
