data_PCOD9494519
_publ_section_title
;
Structure prediction by ZEFSAII (Michael W. Deem and Ramdas Pophale) SiO2 
 PCOD9494519
Probable space group: C M M M
;
_chemical_formula_sum "Si O2"
_cell_formula_units_Z 72
_cell_length_a 28.509487
_cell_length_b 16.517565
_cell_length_c 7.453690
_cell_angle_alpha 90.000000
_cell_angle_beta 90.000000
_cell_angle_gamma 90.000000
_cell_volume 3509.997068
_symmetry_space_group_name_H-M "C M M M"
_symmetry_group_IT_number 65
_symmetry_cell_setting 'orthorhombic'
loop_
_space_group_symop_operation_xyz
x,y,z
-x,-y,z
x,-y,-z
-x,y,-z
-x,-y,-z
x,y,-z
-x,y,z
x,-y,z
1/2+x,1/2+y,z
1/2-x,1/2-y,z
1/2+x,1/2-y,-z
1/2-x,1/2+y,-z
1/2-x,1/2-y,-z
1/2+x,1/2+y,-z
1/2-x,1/2+y,z
1/2+x,1/2-y,z
loop_
_atom_site_type_symbol
_atom_site_label
_atom_site_fract_x
_atom_site_fract_y
_atom_site_fract_z
Si Si1 0.698152 0.746686 0.792224
Si Si2 0.104407 0.165020 0.783988
Si Si3 0.445333 0.500000 0.219469
Si Si4 0.353918 0.089692 0.717961
Si Si5 0.448074 0.168543 0.713480
O O1 0.750000 0.750000 0.710221
O O2 0.656387 0.690086 0.716108
O O3 0.677877 0.837371 0.785327
O O4 0.703757 0.721265 0.000000
O O5 0.082002 0.080899 0.721647
O O6 0.070204 0.240083 0.742146
O O7 0.107616 0.160746 0.000000
O O8 0.500000 0.500000 0.274802
O O9 0.445499 0.500000 0.000000
O O10 0.353071 0.092977 0.500000
O O11 0.406838 0.110080 0.779118
O O12 0.339585 0.000000 0.773421
O O13 0.450666 0.155786 0.500000
O O14 0.500000 0.156997 0.788353
#
# Coordination Sequence:
#
# PCOD9494519 Si02
#       5
#    16  16   8  16  16
#     4   9  18  33  50  70  93 120 155 194 240 284
#     4   9  17  30  47  66  91 120 155 194 230 277
#     4   9  16  26  43  67  91 117 151 189 228 271
#     4   9  18  32  49  70  95 123 156 191 229 276
#     4   9  17  29  46  68  94 124 155 188 229 274
#
# _framework density 20.512837000000001
#
# number of rings (size 3 to 8) (size 9 to 14) (size 15 to 20)
#    0.000    3.000    0.000    0.667    0.000    2.667 
#    2.000    2.778    0.000    2.000    0.000    6.222 
#    0.000    0.000    0.000    0.000    0.000    0.000 
#
# Total GULP energy -200744.315959 kJ/mol
# GULP energy per Si atom -5576.230999 kJ/mol
# Density = 2.046615 g / cm^3
# Si number density = 20.512837 Si / 1000 Ang^3
#
#
#
# Elastic Constant Matrix: (Units=GPa)
#
#
# Indices 1 2 3 4 5 6 
#
# 1 177.8719 44.1587 2.4445 0.0000 0.0000 0.0000
# 2 44.1587 87.9168 -10.9606 0.0000 0.0000 0.0000
# 3 2.4445 -10.9606 62.3718 0.0000 0.0000 0.0000
# 4 0.0000 0.0000 0.0000 13.4364 0.0000 0.0000
# 5 0.0000 0.0000 0.0000 0.0000 7.2364 0.0000
# 6 0.0000 0.0000 0.0000 0.0000 0.0000 9.6382
#
#
#
# Elastic Compliance Matrix: (Units=1/GPa)
#
#
# Indices 1 2 3 4 5 6 
#
# 1 0.006466 -0.003353 -0.000843 0.000000 0.000000 0.000000
# 2 -0.003353 0.013368 0.002480 0.000000 0.000000 0.000000
# 3 -0.000843 0.002480 0.016502 0.000000 0.000000 0.000000
# 4 0.000000 0.000000 0.000000 0.074425 0.000000 0.000000
# 5 0.000000 0.000000 0.000000 0.000000 0.138191 0.000000
# 6 0.000000 0.000000 0.000000 0.000000 0.000000 0.103754
#
#
# Mechanical properties :
#
#
# Convention : Reuss Voigt Hill
#
# Bulk Modulus (GPa) = 30.38988 44.38286 37.38637
# Shear Modulus (GPa) = 13.62014 25.56338 19.59176
#
# Velocity S-wave (km/s) = 2.57958 3.53401 3.09382
# Velocity P-wave (km/s) = 4.87027 6.19160 5.57025
#
# Compressibility (1/GPa) = 0.03290569
#
# Stress axis : x y z
#
# Youngs Moduli (GPa) = 154.65598 74.80749 60.59945
#
# Poissons Ratio (x) = 0.25081 0.05106
# Poissons Ratio (y) = 0.51852 -0.15032
# Poissons Ratio (z) = 0.13031 -0.18556
#
# Static dielectric constant tensor:
#      x y z
#    x 1.742450 0.000000 0.000000 
#    y 0.000000 1.685750 0.000000 
#    z 0.000000 0.000000 1.786040 
# 
# From -- ./inp_files/7247.got.cif
#   From: 2010.05.17/outbox.cif.g08.bks.cpg/sg65_4_cif.got.tgz:7247.got - 2010.06.03 17:01:31.
