data_PCOD9494649
_publ_section_title
;
Structure prediction by ZEFSAII (Michael W. Deem and Ramdas Pophale) SiO2 
 PCOD9494649
Probable space group: C M M M
;
_chemical_formula_sum "Si O2"
_cell_formula_units_Z 44
_cell_length_a 18.000000
_cell_length_b 9.000000
_cell_length_c 30.000000
_cell_angle_alpha 90.000000
_cell_angle_beta 90.000000
_cell_angle_gamma 90.000000
_cell_volume 4860.000000
_symmetry_space_group_name_H-M "C M M M"
_symmetry_group_IT_number 65
_symmetry_cell_setting 'orthorhombic'
loop_
_space_group_symop_operation_xyz
x,y,z
-x,-y,z
x,-y,-z
-x,y,-z
-x,-y,-z
x,y,-z
-x,y,z
x,-y,z
1/2+x,1/2+y,z
1/2-x,1/2-y,z
1/2+x,1/2-y,-z
1/2-x,1/2+y,-z
1/2-x,1/2-y,-z
1/2+x,1/2+y,-z
1/2-x,1/2+y,z
1/2+x,1/2-y,z
loop_
_atom_site_type_symbol
_atom_site_label
_atom_site_fract_x
_atom_site_fract_y
_atom_site_fract_z
Si Si1 0.168839 0.819648 0.000000
Si Si2 0.167688 0.320968 0.725502
Si Si3 0.410200 0.326885 0.358461
Si Si4 0.915229 0.819582 0.090632
Si Si5 0.090253 0.674166 0.549725
Si Si6 0.332070 0.319758 0.182382
O O1 0.250000 0.750000 0.000000
O O2 0.127011 0.773282 0.045534
O O3 0.172978 0.000000 0.000000
O O4 0.171267 0.500000 0.728418
O O5 0.250000 0.250000 0.721253
O O6 0.122383 0.268221 0.682233
O O7 0.136568 0.251070 0.771797
O O8 0.500000 0.317619 0.357319
O O9 0.389173 0.500000 0.353456
O O10 0.385054 0.265415 0.406905
O O11 0.876343 0.779989 0.137355
O O12 0.000000 0.766980 0.089765
O O13 0.916174 0.000000 0.089669
O O14 0.114920 0.723961 0.500000
O O15 0.109765 0.500000 0.554791
O O16 0.000000 0.681811 0.549369
O O17 0.328762 0.500000 0.186420
O O18 0.250000 0.250000 0.177803
#
# Coordination Sequence:
#
# PCOD9494649 Si02
#       6
#     8  16  16  16  16  16
#     4  10  19  33  55  79 105 138 176 214 252 300
#     4  11  22  37  56  76 102 136 175 216 261 315
#     4  10  20  33  51  77 107 137 172 215 261 310
#     4   9  18  32  52  78 105 135 172 213 255 300
#     4   8  14  26  45  70 101 136 173 213 257 305
#     4  10  19  33  53  75 100 131 169 211 255 306
#
# _framework density 9.0534979999999994
#
# number of rings (size 3 to 8) (size 9 to 14) (size 15 to 20)
#    0.000    2.364    0.000    5.182    0.000    3.273 
#    0.000    4.545    0.000    5.455    0.000    0.000 
#    0.000    0.000    0.000    0.000    0.000    0.000 
#
# Total GULP energy -245392.975753 kJ/mol
# GULP energy per Si atom -5577.113085 kJ/mol
# Density = 0.903289 g / cm^3
# Si number density = 9.053498 Si / 1000 Ang^3
#
#
#
# Elastic Constant Matrix: (Units=GPa)
#
#
# Indices 1 2 3 4 5 6 
#
# 1 55.8831 27.0336 60.8899 0.0000 0.0000 0.0000
# 2 27.0336 100.8740 68.9072 0.0000 0.0000 0.0000
# 3 60.8899 68.9072 206.5191 0.0000 0.0000 0.0000
# 4 0.0000 0.0000 0.0000 31.1199 0.0000 0.0000
# 5 0.0000 0.0000 0.0000 0.0000 19.9589 0.0000
# 6 0.0000 0.0000 0.0000 0.0000 0.0000 23.2145
#
#
#
# Elastic Compliance Matrix: (Units=1/GPa)
#
#
# Indices 1 2 3 4 5 6 
#
# 1 0.026773 -0.002309 -0.007123 0.000000 0.000000 0.000000
# 2 -0.002309 0.013039 -0.003670 0.000000 0.000000 0.000000
# 3 -0.007123 -0.003670 0.008167 0.000000 0.000000 0.000000
# 4 0.000000 0.000000 0.000000 0.032134 0.000000 0.000000
# 5 0.000000 0.000000 0.000000 0.000000 0.050103 0.000000
# 6 0.000000 0.000000 0.000000 0.000000 0.000000 0.043077
#
#
# Mechanical properties :
#
#
# Convention : Reuss Voigt Hill
#
# Bulk Modulus (GPa) = 45.92511 75.21530 60.57021
# Shear Modulus (GPa) = 24.18326 28.62170 26.40248
#
# Velocity S-wave (km/s) = 3.65852 3.98011 3.82270
# Velocity P-wave (km/s) = 6.57758 7.92157 7.28065
#
# Compressibility (1/GPa) = 0.02177458
#
# Stress axis : x y z
#
# Youngs Moduli (GPa) = 37.35103 76.69289 122.44612
#
# Poissons Ratio (x) = 0.17709 0.87222
# Poissons Ratio (y) = 0.08625 0.44935
# Poissons Ratio (z) = 0.26606 0.28145
#
# Static dielectric constant tensor:
#      x y z
#    x 1.619330 0.000000 0.000000 
#    y 0.000000 1.609880 0.000000 
#    z 0.000000 0.000000 1.635420 
# 
# From -- ./inp_files/77939.got.cif
#   From: 2010.05.17/outbox.ucp.g08.bks.cvg/sg65_39_cif.got.tgz:77939.got - 2010.06.11 16:39:57.
