data_PCOD9494494
_publ_section_title
;
Structure prediction by ZEFSAII (Michael W. Deem and Ramdas Pophale) SiO2 
 PCOD9494494
Probable space group: C M M M
;
_chemical_formula_sum "Si O2"
_cell_formula_units_Z 104
_cell_length_a 37.586815
_cell_length_b 27.821175
_cell_length_c 9.379626
_cell_angle_alpha 90.000000
_cell_angle_beta 90.000000
_cell_angle_gamma 90.000000
_cell_volume 9808.362681
_symmetry_space_group_name_H-M "C M M M"
_symmetry_group_IT_number 65
_symmetry_cell_setting 'orthorhombic'
loop_
_space_group_symop_operation_xyz
x,y,z
-x,-y,z
x,-y,-z
-x,y,-z
-x,-y,-z
x,y,-z
-x,y,z
x,-y,z
1/2+x,1/2+y,z
1/2-x,1/2-y,z
1/2+x,1/2-y,-z
1/2-x,1/2+y,-z
1/2-x,1/2-y,-z
1/2+x,1/2+y,-z
1/2-x,1/2+y,z
1/2+x,1/2-y,z
loop_
_atom_site_type_symbol
_atom_site_label
_atom_site_fract_x
_atom_site_fract_y
_atom_site_fract_z
Si Si1 0.752353 0.638602 0.835710
Si Si2 0.500000 0.558430 0.164036
Si Si3 0.857206 0.887018 0.669766
Si Si4 0.070888 0.943292 0.670042
Si Si5 0.177387 0.197099 0.164333
Si Si6 0.287566 0.220676 0.335219
Si Si7 0.784318 0.943768 0.669557
O O1 0.715165 0.668542 0.835571
O O2 0.779712 0.671359 0.747578
O O3 0.742852 0.588917 0.758123
O O4 0.763047 0.632347 0.000000
O O5 0.500000 0.500000 0.166213
O O6 0.535891 0.572927 0.245566
O O7 0.500000 0.574007 0.000000
O O8 0.856975 0.876678 0.500000
O O9 0.894047 0.913052 0.706211
O O10 0.849694 0.838761 0.757574
O O11 0.824005 0.923012 0.696492
O O12 0.064698 0.939282 0.500000
O O13 0.077179 0.000000 0.700076
O O14 0.184755 0.245552 0.252103
O O15 0.167978 0.206354 0.000000
O O16 0.297322 0.213130 0.500000
O O17 0.250000 0.250000 0.335089
O O18 0.777747 0.937893 0.500000
O O19 0.782586 0.000000 0.704457
#
# Coordination Sequence:
#
# PCOD9494494 Si02
#       7
#    16   8  16  16  16  16  16
#     4   9  16  24  33  45  60  77  97 120 146 176
#     4   9  17  27  37  49  63  77  95 121 151 181
#     4   9  16  25  36  49  63  79  99 121 147 181
#     4   9  16  26  39  51  62  78 100 124 149 179
#     4   9  16  24  33  46  63  79  94 115 144 177
#     4   9  15  23  35  47  58  74  96 120 144 171
#     4   9  16  25  35  46  61  80 101 124 149 179
#
# _framework density 10.603197
#
# number of rings (size 3 to 8) (size 9 to 14) (size 15 to 20)
#    0.000    3.000    0.000    2.077    0.000    9.231 
#    0.000    0.000    0.000    2.769    0.000    0.000 
#    0.000    0.000    0.000    0.000    0.000    0.000 
#
# Total GULP energy -289497.552512 kJ/mol
# GULP energy per Si atom -5567.260625 kJ/mol
# Density = 1.057906 g / cm^3
# Si number density = 10.603197 Si / 1000 Ang^3
#
#
#
# Elastic Constant Matrix: (Units=GPa)
#
#
# Indices 1 2 3 4 5 6 
#
# 1 46.0823 42.2603 42.9586 0.0000 0.0000 0.0000
# 2 42.2603 68.3588 55.8560 0.0000 0.0000 0.0000
# 3 42.9586 55.8560 80.0408 0.0000 0.0000 0.0000
# 4 0.0000 0.0000 0.0000 13.2391 0.0000 0.0000
# 5 0.0000 0.0000 0.0000 0.0000 9.8780 0.0000
# 6 0.0000 0.0000 0.0000 0.0000 0.0000 13.9715
#
#
#
# Elastic Compliance Matrix: (Units=1/GPa)
#
#
# Indices 1 2 3 4 5 6 
#
# 1 0.055892 -0.023365 -0.013693 0.000000 0.000000 0.000000
# 2 -0.023365 0.043804 -0.018028 0.000000 0.000000 0.000000
# 3 -0.013693 -0.018028 0.032424 0.000000 0.000000 0.000000
# 4 0.000000 0.000000 0.000000 0.075534 0.000000 0.000000
# 5 0.000000 0.000000 0.000000 0.000000 0.101235 0.000000
# 6 0.000000 0.000000 0.000000 0.000000 0.000000 0.071574
#
#
# Mechanical properties :
#
#
# Convention : Reuss Voigt Hill
#
# Bulk Modulus (GPa) = 45.56242 52.95908 49.26075
# Shear Modulus (GPa) = 10.04119 10.97820 10.50969
#
# Velocity S-wave (km/s) = 3.08067 3.22120 3.15172
# Velocity P-wave (km/s) = 7.46443 7.99310 7.73328
#
# Compressibility (1/GPa) = 0.02194791
#
# Stress axis : x y z
#
# Youngs Moduli (GPa) = 17.89172 22.82900 30.84181
#
# Poissons Ratio (x) = 0.53339 0.42231
# Poissons Ratio (y) = 0.41803 0.55602
# Poissons Ratio (z) = 0.24499 0.41157
#
# Static dielectric constant tensor:
#      x y z
#    x 1.313040 0.000000 0.000000 
#    y 0.000000 1.326540 0.000000 
#    z 0.000000 0.000000 1.356090 
# 
# From -- ./inp_files/19073.got.cif
#   From: 2010.05.17/outbox.cif.g08.bks.cpg/sg65_10_cif.got.tgz:19073.got - 2010.06.03 17:01:31.
