data_PCOD9494410
_publ_section_title
;
Structure prediction by ZEFSAII (Michael W. Deem and Ramdas Pophale) SiO2 
 PCOD9494410
Probable space group: C M M M
;
_chemical_formula_sum "Si O2"
_cell_formula_units_Z 80
_cell_length_a 7.484196
_cell_length_b 29.110314
_cell_length_c 19.313255
_cell_angle_alpha 90.000000
_cell_angle_beta 90.000000
_cell_angle_gamma 90.000000
_cell_volume 4207.726636
_symmetry_space_group_name_H-M "C M M M"
_symmetry_group_IT_number 65
_symmetry_cell_setting 'orthorhombic'
loop_
_space_group_symop_operation_xyz
x,y,z
-x,-y,z
x,-y,-z
-x,y,-z
-x,-y,-z
x,y,-z
-x,y,z
x,-y,z
1/2+x,1/2+y,z
1/2-x,1/2-y,z
1/2+x,1/2-y,-z
1/2-x,1/2+y,-z
1/2-x,1/2-y,-z
1/2+x,1/2+y,-z
1/2-x,1/2+y,z
1/2+x,1/2-y,z
loop_
_atom_site_type_symbol
_atom_site_label
_atom_site_fract_x
_atom_site_fract_y
_atom_site_fract_z
Si Si1 0.213701 0.304588 0.000000
Si Si2 0.712955 0.553180 0.500000
Si Si3 0.785643 0.304368 0.150787
Si Si4 0.280185 0.856815 0.287055
Si Si5 0.790219 0.448226 0.347684
Si Si6 0.713739 0.195616 0.424287
O O1 0.250000 0.250000 0.000000
O O2 0.282417 0.320419 0.924917
O O3 0.000000 0.311732 0.000000
O O4 0.777265 0.500000 0.500000
O O5 0.500000 0.553588 0.500000
O O6 0.774349 0.571481 0.573917
O O7 0.750000 0.250000 0.158961
O O8 0.719447 0.332331 0.216978
O O9 0.000000 0.309421 0.149474
O O10 0.500000 0.856252 0.287019
O O11 0.220051 0.909413 0.296484
O O12 0.219874 0.829403 0.355535
O O13 0.712676 0.500000 0.345586
O O14 0.000000 0.452589 0.333852
O O15 0.783148 0.179981 0.500000
O O16 0.500000 0.189298 0.425467
O O17 0.750000 0.250000 0.418942
#
# Coordination Sequence:
#
# PCOD9494410 Si02
#       6
#     8   8  16  16  16  16
#     4   8  14  24  40  60  83 109 135 161 196 242
#     4   9  17  29  43  59  80 103 128 167 216 253
#     4   9  16  27  42  62  86 111 136 165 201 242
#     4   9  17  27  42  61  80 104 135 169 205 238
#     4   9  17  29  45  62  78 102 138 174 206 244
#     4   9  17  28  40  53  73 102 131 161 194 230
#
# _framework density 19.012640999999999
#
# number of rings (size 3 to 8) (size 9 to 14) (size 15 to 20)
#    0.000    3.100    0.000    0.900    1.400    1.200 
#    0.000    2.000    0.000    0.000    0.000    0.700 
#    0.000    5.600    0.000    0.000    0.000   43.500 
#
# Total GULP energy -222934.350143 kJ/mol
# GULP energy per Si atom -5573.358754 kJ/mol
# Density = 1.896937 g / cm^3
# Si number density = 19.012641 Si / 1000 Ang^3
#
#
#
# Elastic Constant Matrix: (Units=GPa)
#
#
# Indices 1 2 3 4 5 6 
#
# 1 56.9244 0.2244 8.3249 0.0000 0.0000 0.0000
# 2 0.2244 88.3486 89.9924 0.0000 0.0000 0.0000
# 3 8.3249 89.9924 197.1996 0.0000 0.0000 0.0000
# 4 0.0000 0.0000 0.0000 16.8272 0.0000 0.0000
# 5 0.0000 0.0000 0.0000 0.0000 -145.2161 0.0000
# 6 0.0000 0.0000 0.0000 0.0000 0.0000 7.8429
#
#
#
# Elastic Compliance Matrix: (Units=1/GPa)
#
#
# Indices 1 2 3 4 5 6 
#
# 1 0.017761 0.001343 -0.001363 0.000000 0.000000 0.000000
# 2 0.001343 0.021252 -0.009755 0.000000 0.000000 0.000000
# 3 -0.001363 -0.009755 0.009580 0.000000 0.000000 0.000000
# 4 0.000000 0.000000 0.000000 0.059428 0.000000 0.000000
# 5 0.000000 0.000000 0.000000 0.000000 -0.006886 0.000000
# 6 0.000000 0.000000 0.000000 0.000000 0.000000 0.127504
#
#
# Mechanical properties :
#
#
# Convention : Reuss Voigt Hill
#
# Bulk Modulus (GPa) = 34.43085 59.95067 47.19076
# Shear Modulus (GPa) = 19.38967 -7.84713 5.77127
#
# Velocity S-wave (km/s) = 3.19694 -2.03379 1.74416
# Velocity P-wave (km/s) = 5.63702 5.10739 5.37873
#
# Compressibility (1/GPa) = 0.02904372
#
# Stress axis : x y z
#
# Youngs Moduli (GPa) = 56.30267 47.05454 104.38132
#
# Poissons Ratio (x) = -0.06319 0.14223
# Poissons Ratio (y) = -0.07561 1.01824
# Poissons Ratio (z) = 0.07672 0.45902
#
# Static dielectric constant tensor:
#      x y z
#    x 2.088570 0.000000 0.000000 
#    y 0.000000 1.670240 0.000000 
#    z 0.000000 0.000000 1.693630 
# 
# From -- ./inp_files/50158.got.cif
#   From: 2010.05.17/outbox.cif.g08.bks.cpg/sg65_26_cif.got.tgz:50158.got - 2010.06.03 17:01:31.
