data_PCOD9494359
_publ_section_title
;
Structure prediction by ZEFSAII (Michael W. Deem and Ramdas Pophale) SiO2 
 PCOD9494359
Probable space group: C M M M
;
_chemical_formula_sum "Si O2"
_cell_formula_units_Z 96
_cell_length_a 7.304802
_cell_length_b 26.067473
_cell_length_c 19.407586
_cell_angle_alpha 90.000000
_cell_angle_beta 90.000000
_cell_angle_gamma 90.000000
_cell_volume 3695.548450
_symmetry_space_group_name_H-M "C M M M"
_symmetry_group_IT_number 65
_symmetry_cell_setting 'orthorhombic'
loop_
_space_group_symop_operation_xyz
x,y,z
-x,-y,z
x,-y,-z
-x,y,-z
-x,-y,-z
x,y,-z
-x,y,z
x,-y,z
1/2+x,1/2+y,z
1/2-x,1/2-y,z
1/2+x,1/2-y,-z
1/2-x,1/2+y,-z
1/2-x,1/2-y,-z
1/2+x,1/2+y,-z
1/2-x,1/2+y,z
1/2+x,1/2-y,z
loop_
_atom_site_type_symbol
_atom_site_label
_atom_site_fract_x
_atom_site_fract_y
_atom_site_fract_z
Si Si1 0.277427 0.444892 0.225478
Si Si2 0.223009 0.913958 0.925744
Si Si3 0.276166 0.333805 0.723100
Si Si4 0.293104 0.671974 0.422637
Si Si5 0.210614 0.555118 0.582511
Si Si6 0.716949 0.305531 0.873497
O O1 0.500000 0.444391 0.227455
O O2 0.213787 0.500000 0.251098
O O3 0.222140 0.440056 0.145469
O O4 0.221677 0.393545 0.265037
O O5 0.280915 0.854642 0.915850
O O6 0.000000 0.916501 0.926393
O O7 0.284386 0.933675 0.000000
O O8 0.500000 0.331933 0.720630
O O9 0.209035 0.310977 0.650359
O O10 0.214294 0.307637 0.794346
O O11 0.212833 0.679786 0.500000
O O12 0.500000 0.692089 0.426464
O O13 0.302048 0.610344 0.408749
O O14 0.205577 0.551437 0.500000
O O15 0.290255 0.500000 0.605860
O O16 0.000000 0.558498 0.605906
O O17 0.500000 0.312646 0.868347
O O18 0.750000 0.250000 0.904312
#
# Coordination Sequence:
#
# PCOD9494359 Si02
#       6
#    16  16  16  16  16  16
#     4   8  13  21  34  53  80 116 148 167 193 239
#     4   8  14  24  38  59  86 111 136 169 205 238
#     4   8  15  27  40  57  83 110 135 168 211 252
#     4   9  16  25  39  58  76  98 133 174 212 249
#     4   8  14  24  35  48  72 105 134 161 200 247
#     4   9  17  30  47  64  84 111 138 165 204 251
#
# _framework density 25.977198000000001
#
# number of rings (size 3 to 8) (size 9 to 14) (size 15 to 20)
#    0.000    3.667    0.000    2.500    0.000    1.667 
#    0.000    5.833    0.000    0.500    0.000    0.000 
#    0.000    6.000    0.000    6.000    0.000    6.667 
#
# Total GULP energy -267742.798325 kJ/mol
# GULP energy per Si atom -5577.974965 kJ/mol
# Density = 2.591807 g / cm^3
# Si number density = 25.977198 Si / 1000 Ang^3
#
#
#
# Elastic Constant Matrix: (Units=GPa)
#
#
# Indices 1 2 3 4 5 6 
#
# 1 105.3678 -8.4066 4.2458 0.0000 0.0000 0.0000
# 2 -8.4066 96.6794 0.3239 0.0000 0.0000 0.0000
# 3 4.2458 0.3239 191.3189 0.0000 0.0000 0.0000
# 4 0.0000 0.0000 0.0000 -16.0383 0.0000 0.0000
# 5 0.0000 0.0000 0.0000 0.0000 -44.8385 0.0000
# 6 0.0000 0.0000 0.0000 0.0000 0.0000 -3.0138
#
#
#
# Elastic Compliance Matrix: (Units=1/GPa)
#
#
# Indices 1 2 3 4 5 6 
#
# 1 0.009566 0.000832 -0.000214 0.000000 0.000000 0.000000
# 2 0.000832 0.010416 -0.000036 0.000000 0.000000 0.000000
# 3 -0.000214 -0.000036 0.005232 0.000000 0.000000 0.000000
# 4 0.000000 0.000000 0.000000 -0.062351 0.000000 0.000000
# 5 0.000000 0.000000 0.000000 0.000000 -0.022302 0.000000
# 6 0.000000 0.000000 0.000000 0.000000 0.000000 -0.331804
#
#
# Mechanical properties :
#
#
# Convention : Reuss Voigt Hill
#
# Bulk Modulus (GPa) = 37.90955 42.85471 40.38213
# Shear Modulus (GPa) = -13.03388 13.70206 0.33409
#
# Velocity S-wave (km/s) = -2.24239 2.29915 0.35901
# Velocity P-wave (km/s) = 2.81436 4.85603 3.96873
#
# Compressibility (1/GPa) = 0.02637858
#
# Stress axis : x y z
#
# Youngs Moduli (GPa) = 104.54140 96.00643 191.14319
#
# Poissons Ratio (x) = -0.07992 0.04085
# Poissons Ratio (y) = -0.08703 0.00690
# Poissons Ratio (z) = 0.02234 0.00347
#
# Static dielectric constant tensor:
#      x y z
#    x 2.044140 0.000000 0.000000 
#    y 0.000000 2.142310 0.000000 
#    z 0.000000 0.000000 2.038710 
# 
# From -- ./inp_files/60256.got.cif
#   From: 2010.05.17/outbox.cif.g08.bks.cpg/sg65_31_cif.got.tgz:60256.got - 2010.06.03 17:01:31.
