data_PCOD9494807
_publ_section_title
;
Structure prediction by ZEFSAII (Michael W. Deem and Ramdas Pophale) SiO2 
 PCOD9494807
Probable space group: C M M M
;
_chemical_formula_sum "Si O2"
_cell_formula_units_Z 48
_cell_length_a 27.000000
_cell_length_b 21.000000
_cell_length_c 9.000000
_cell_angle_alpha 90.000000
_cell_angle_beta 90.000000
_cell_angle_gamma 90.000000
_cell_volume 5103.000000
_symmetry_space_group_name_H-M "C M M M"
_symmetry_group_IT_number 65
_symmetry_cell_setting 'orthorhombic'
loop_
_space_group_symop_operation_xyz
x,y,z
-x,-y,z
x,-y,-z
-x,y,-z
-x,-y,-z
x,y,-z
-x,y,z
x,-y,z
1/2+x,1/2+y,z
1/2-x,1/2-y,z
1/2+x,1/2-y,-z
1/2-x,1/2+y,-z
1/2-x,1/2-y,-z
1/2+x,1/2+y,-z
1/2-x,1/2+y,z
1/2+x,1/2-y,z
loop_
_atom_site_type_symbol
_atom_site_label
_atom_site_fract_x
_atom_site_fract_y
_atom_site_fract_z
Si Si1 0.701220 0.070653 0.327478
Si Si2 0.059157 0.294950 0.831911
Si Si3 0.854957 0.923017 0.180113
Si Si4 0.764002 0.175971 0.821919
Si Si5 0.417866 0.071347 0.672409
Si Si6 0.059303 0.161125 0.321383
O O1 0.716919 0.077918 0.500000
O O2 0.720382 0.129394 0.232381
O O3 0.641797 0.069841 0.326038
O O4 0.718163 0.000000 0.275259
O O5 0.068244 0.364370 0.759388
O O6 0.074896 0.231466 0.741305
O O7 0.000000 0.289264 0.840731
O O8 0.079942 0.292927 0.000000
O O9 0.812221 0.869335 0.222976
O O10 0.905496 0.893040 0.249118
O O11 0.847556 0.000000 0.220519
O O12 0.857477 0.922167 0.000000
O O13 0.750000 0.250000 0.772088
O O14 0.766808 0.179689 0.000000
O O15 0.434005 0.077311 0.500000
O O16 0.434363 0.000000 0.725432
O O17 0.064869 0.160761 0.500000
O O18 0.000000 0.152062 0.288963
#
# Coordination Sequence:
#
# PCOD9494807 Si02
#       6
#    16  16  16  16  16  16
#     4   9  19  36  56  79 110 147 188 234 281 333
#     4  10  21  36  55  80 112 149 190 239 292 349
#     4  10  22  40  61  87 122 160 195 237 292 350
#     4  10  22  38  57  86 120 153 191 236 284 337
#     4   9  19  35  54  79 112 150 192 238 289 343
#     4  10  22  40  62  88 117 151 193 242 297 354
#
# _framework density 9.4062319999999993
#
# number of rings (size 3 to 8) (size 9 to 14) (size 15 to 20)
#    0.000    2.333    0.000    2.500    2.333    6.000 
#    0.000    5.000    0.000    0.000    0.000    0.000 
#    0.000    0.000    0.000    0.000    0.000    0.000 
#
# Total GULP energy -267217.903401 kJ/mol
# GULP energy per Si atom -5567.039654 kJ/mol
# Density = 0.938482 g / cm^3
# Si number density = 9.406232 Si / 1000 Ang^3
#
#
#
# Elastic Constant Matrix: (Units=GPa)
#
#
# Indices 1 2 3 4 5 6 
#
# 1 58.9262 43.5317 19.9213 0.0000 0.0000 0.0000
# 2 43.5317 193.4060 40.9943 0.0000 0.0000 0.0000
# 3 19.9213 40.9943 42.7227 0.0000 0.0000 0.0000
# 4 0.0000 0.0000 0.0000 39.9237 0.0000 0.0000
# 5 0.0000 0.0000 0.0000 0.0000 27.9236 0.0000
# 6 0.0000 0.0000 0.0000 0.0000 0.0000 39.4214
#
#
#
# Elastic Compliance Matrix: (Units=1/GPa)
#
#
# Indices 1 2 3 4 5 6 
#
# 1 0.021850 -0.003463 -0.006866 0.000000 0.000000 0.000000
# 2 -0.003463 0.007039 -0.005140 0.000000 0.000000 0.000000
# 3 -0.006866 -0.005140 0.031540 0.000000 0.000000 0.000000
# 4 0.000000 0.000000 0.000000 0.025048 0.000000 0.000000
# 5 0.000000 0.000000 0.000000 0.000000 0.035812 0.000000
# 6 0.000000 0.000000 0.000000 0.000000 0.000000 0.025367
#
#
# Mechanical properties :
#
#
# Convention : Reuss Voigt Hill
#
# Bulk Modulus (GPa) = 33.90699 55.99438 44.95068
# Shear Modulus (GPa) = 26.67760 34.16090 30.41925
#
# Velocity S-wave (km/s) = 3.76983 4.26592 4.02552
# Velocity P-wave (km/s) = 6.08372 7.35481 6.74925
#
# Compressibility (1/GPa) = 0.02949245
#
# Stress axis : x y z
#
# Youngs Moduli (GPa) = 45.76759 142.05976 31.70557
#
# Poissons Ratio (x) = 0.49190 0.21768
# Poissons Ratio (y) = 0.15848 0.16296
# Poissons Ratio (z) = 0.31423 0.73018
#
# Static dielectric constant tensor:
#      x y z
#    x 1.693460 0.000000 0.000000 
#    y 0.000000 1.667510 0.000000 
#    z 0.000000 0.000000 1.656780 
# 
# From -- ./inp_files/16338.got.cif
#   From: 2010.05.17/outbox.ucp.g08.bks.cvg/sg65_9_cif.got.tgz:16338.got - 2010.06.11 16:39:57.
