data_PCOD9494523
_publ_section_title
;
Structure prediction by ZEFSAII (Michael W. Deem and Ramdas Pophale) SiO2 
 PCOD9494523
Probable space group: C M M M
;
_chemical_formula_sum "Si O2"
_cell_formula_units_Z 72
_cell_length_a 14.242531
_cell_length_b 30.021286
_cell_length_c 8.914926
_cell_angle_alpha 90.000000
_cell_angle_beta 90.000000
_cell_angle_gamma 90.000000
_cell_volume 3811.836005
_symmetry_space_group_name_H-M "C M M M"
_symmetry_group_IT_number 65
_symmetry_cell_setting 'orthorhombic'
loop_
_space_group_symop_operation_xyz
x,y,z
-x,-y,z
x,-y,-z
-x,y,-z
-x,-y,-z
x,y,-z
-x,y,z
x,-y,z
1/2+x,1/2+y,z
1/2-x,1/2-y,z
1/2+x,1/2-y,-z
1/2-x,1/2+y,-z
1/2-x,1/2-y,-z
1/2+x,1/2+y,-z
1/2-x,1/2+y,z
1/2+x,1/2-y,z
loop_
_atom_site_type_symbol
_atom_site_label
_atom_site_fract_x
_atom_site_fract_y
_atom_site_fract_z
Si Si1 0.614557 0.227065 0.671219
Si Si2 0.209216 0.090282 0.182862
Si Si3 0.386896 0.318134 0.175892
Si Si4 0.891127 0.000000 0.183545
Si Si5 0.606412 0.134433 0.180475
O O1 0.644483 0.221841 0.500000
O O2 0.500000 0.228697 0.674391
O O3 0.646452 0.274161 0.737909
O O4 0.638915 0.183149 0.764929
O O5 0.154452 0.134983 0.229928
O O6 0.317177 0.098028 0.227540
O O7 0.161297 0.044827 0.234301
O O8 0.205511 0.089531 0.000000
O O9 0.500000 0.320414 0.186897
O O10 0.363082 0.312931 0.000000
O O11 0.000000 0.000000 0.228578
O O12 0.889832 0.000000 0.000000
O O13 0.500000 0.126514 0.234474
O O14 0.604404 0.135280 0.000000
#
# Coordination Sequence:
#
# PCOD9494523 Si02
#       5
#    16  16  16   8  16
#     4   9  17  29  45  66  93 124 156 190 227 266
#     4   9  17  28  44  67  92 119 153 189 227 273
#     4   9  16  27  44  66  92 121 152 187 228 273
#     4   9  16  28  47  71  98 121 143 183 236 278
#     4   9  17  30  46  64  91 126 157 185 221 266
#
# _framework density 18.888535999999998
#
# number of rings (size 3 to 8) (size 9 to 14) (size 15 to 20)
#    0.000    3.000    0.000    1.333    0.000    6.222 
#    0.000    6.111    0.000    3.333    0.000    3.111 
#    0.000   10.667    0.000    0.000    0.000    0.000 
#
# Total GULP energy -200773.892261 kJ/mol
# GULP energy per Si atom -5577.052563 kJ/mol
# Density = 1.884555 g / cm^3
# Si number density = 18.888536 Si / 1000 Ang^3
#
#
#
# Elastic Constant Matrix: (Units=GPa)
#
#
# Indices 1 2 3 4 5 6 
#
# 1 100.5291 86.1863 17.5438 0.0000 0.0000 0.0000
# 2 86.1863 154.5576 15.8014 0.0000 0.0000 0.0000
# 3 17.5438 15.8014 8.5329 0.0000 0.0000 0.0000
# 4 0.0000 0.0000 0.0000 -5.1769 0.0000 0.0000
# 5 0.0000 0.0000 0.0000 0.0000 6.8121 0.0000
# 6 0.0000 0.0000 0.0000 0.0000 0.0000 37.2952
#
#
#
# Elastic Compliance Matrix: (Units=1/GPa)
#
#
# Indices 1 2 3 4 5 6 
#
# 1 0.024128 -0.010341 -0.030459 0.000000 0.000000 0.000000
# 2 -0.010341 0.012413 -0.001726 0.000000 0.000000 0.000000
# 3 -0.030459 -0.001726 0.183015 0.000000 0.000000 0.000000
# 4 0.000000 0.000000 0.000000 -0.193167 0.000000 0.000000
# 5 0.000000 0.000000 0.000000 0.000000 0.146798 0.000000
# 6 0.000000 0.000000 0.000000 0.000000 0.000000 0.026813
#
#
# Mechanical properties :
#
#
# Convention : Reuss Voigt Hill
#
# Bulk Modulus (GPa) = 7.43469 55.85362 31.64416
# Shear Modulus (GPa) = 15.15677 17.39197 16.27437
#
# Velocity S-wave (km/s) = 2.83580 3.03771 2.93849
# Velocity P-wave (km/s) = 3.82975 6.47595 5.32000
#
# Compressibility (1/GPa) = 0.13450454
#
# Stress axis : x y z
#
# Youngs Moduli (GPa) = 41.44507 80.56212 5.46404
#
# Poissons Ratio (x) = 0.83307 0.16643
# Poissons Ratio (y) = 0.42857 0.00943
# Poissons Ratio (z) = 1.26239 0.13901
#
# Static dielectric constant tensor:
#      x y z
#    x 1.719530 0.000000 0.000000 
#    y 0.000000 1.622100 0.000000 
#    z 0.000000 0.000000 1.625950 
# 
# From -- ./inp_files/7275.got.cif
#   From: 2010.05.17/outbox.cif.g08.bks.cpg/sg65_4_cif.got.tgz:7275.got - 2010.06.03 17:01:31.
