data_PCOD9494639
_publ_section_title
;
Structure prediction by ZEFSAII (Michael W. Deem and Ramdas Pophale) SiO2 
 PCOD9494639
Probable space group: C M M M
;
_chemical_formula_sum "Si O2"
_cell_formula_units_Z 52
_cell_length_a 9.000000
_cell_length_b 24.000000
_cell_length_c 27.000000
_cell_angle_alpha 90.000000
_cell_angle_beta 90.000000
_cell_angle_gamma 90.000000
_cell_volume 5832.000000
_symmetry_space_group_name_H-M "C M M M"
_symmetry_group_IT_number 65
_symmetry_cell_setting 'orthorhombic'
loop_
_space_group_symop_operation_xyz
x,y,z
-x,-y,z
x,-y,-z
-x,y,-z
-x,-y,-z
x,y,-z
-x,y,z
x,-y,z
1/2+x,1/2+y,z
1/2-x,1/2-y,z
1/2+x,1/2-y,-z
1/2-x,1/2+y,-z
1/2-x,1/2-y,-z
1/2+x,1/2+y,-z
1/2-x,1/2+y,z
1/2+x,1/2-y,z
loop_
_atom_site_type_symbol
_atom_site_label
_atom_site_fract_x
_atom_site_fract_y
_atom_site_fract_z
Si Si1 0.679244 0.500000 0.747936
Si Si2 0.177459 0.809162 0.207144
Si Si3 0.821282 0.584468 0.945228
Si Si4 0.677635 0.309784 0.094208
Si Si5 0.320506 0.187597 0.389060
Si Si6 0.822160 0.310756 0.500000
Si Si7 0.320626 0.616723 0.699418
Si Si8 0.179799 0.500000 0.141300
O O1 0.500000 0.500000 0.755415
O O2 0.717954 0.446299 0.714630
O O3 0.749661 0.500000 0.803591
O O4 0.250000 0.750000 0.216771
O O5 0.216841 0.826031 0.151219
O O6 0.221607 0.849921 0.250810
O O7 0.000000 0.803772 0.208416
O O8 0.747328 0.644320 0.940687
O O9 0.776961 0.550685 0.895731
O O10 0.000000 0.587771 0.943568
O O11 0.783275 0.561260 0.000000
O O12 0.500000 0.307018 0.089796
O O13 0.750000 0.250000 0.085175
O O14 0.500000 0.191975 0.384723
O O15 0.250000 0.250000 0.383250
O O16 0.283238 0.166099 0.445229
O O17 0.256872 0.146044 0.347395
O O18 0.750000 0.250000 0.500000
O O19 0.000000 0.305874 0.500000
O O20 0.500000 0.620182 0.692642
O O21 0.000000 0.500000 0.146918
#
# Coordination Sequence:
#
# PCOD9494639 Si02
#       8
#     8  16  16  16  16   8  16   8
#     4  10  22  39  57  76 105 142 175 213 260 309
#     4   9  18  31  48  71  99 129 162 202 250 303
#     4  10  21  37  56  78 104 133 166 208 257 307
#     4  10  20  35  54  76 103 136 172 208 251 307
#     4  10  19  32  52  79 110 142 176 216 260 307
#     4   8  16  30  48  73 106 141 175 212 258 306
#     4  10  20  34  51  74 104 138 175 215 261 308
#     4  10  21  38  60  82 103 131 170 213 259 311
#
# _framework density 8.9163239999999995
#
# number of rings (size 3 to 8) (size 9 to 14) (size 15 to 20)
#    0.000    2.308    0.000    2.538    0.000    7.077 
#    0.000    0.000    0.000    1.846    0.000    3.231 
#    0.000    0.000    0.000    0.000    0.000    0.000 
#
# Total GULP energy -289740.747986 kJ/mol
# GULP energy per Si atom -5571.937461 kJ/mol
# Density = 0.889603 g / cm^3
# Si number density = 8.916324 Si / 1000 Ang^3
#
#
#
# Elastic Constant Matrix: (Units=GPa)
#
#
# Indices 1 2 3 4 5 6 
#
# 1 18.1110 34.7802 42.5549 0.0000 0.0000 0.0000
# 2 34.7802 110.9340 103.5204 0.0000 0.0000 0.0000
# 3 42.5549 103.5204 118.7486 0.0000 0.0000 0.0000
# 4 0.0000 0.0000 0.0000 29.3533 0.0000 0.0000
# 5 0.0000 0.0000 0.0000 0.0000 29.6091 0.0000
# 6 0.0000 0.0000 0.0000 0.0000 0.0000 19.2588
#
#
#
# Elastic Compliance Matrix: (Units=1/GPa)
#
#
# Indices 1 2 3 4 5 6 
#
# 1 0.384402 0.043059 -0.175291 0.000000 0.000000 0.000000
# 2 0.043059 0.053158 -0.061772 0.000000 0.000000 0.000000
# 3 -0.175291 -0.061772 0.125089 0.000000 0.000000 0.000000
# 4 0.000000 0.000000 0.000000 0.034068 0.000000 0.000000
# 5 0.000000 0.000000 0.000000 0.000000 0.033773 0.000000
# 6 0.000000 0.000000 0.000000 0.000000 0.000000 0.051924
#
#
# Mechanical properties :
#
#
# Convention : Reuss Voigt Hill
#
# Bulk Modulus (GPa) = 5.72607 67.72273 36.72440
# Shear Modulus (GPa) = 4.43012 20.10679 12.26846
#
# Velocity S-wave (km/s) = 1.57787 3.36151 2.62578
# Velocity P-wave (km/s) = 2.55686 7.28873 5.46183
#
# Compressibility (1/GPa) = 0.17463989
#
# Stress axis : x y z
#
# Youngs Moduli (GPa) = 2.60144 18.81183 7.99432
#
# Poissons Ratio (x) = -0.81001 1.40134
# Poissons Ratio (y) = -0.11201 0.49382
# Poissons Ratio (z) = 0.45601 1.16204
#
# Static dielectric constant tensor:
#      x y z
#    x 1.594000 0.000000 0.000000 
#    y 0.000000 1.594480 0.000000 
#    z 0.000000 0.000000 1.625280 
# 
# From -- ./inp_files/73629.got.cif
#   From: 2010.05.17/outbox.ucp.g08.bks.cvg/sg65_37_cif.got.tgz:73629.got - 2010.06.11 16:39:57.
