data_PCOD9494448
_publ_section_title
;
Structure prediction by ZEFSAII (Michael W. Deem and Ramdas Pophale) SiO2 
 PCOD9494448
Probable space group: C M M M
;
_chemical_formula_sum "Si O2"
_cell_formula_units_Z 80
_cell_length_a 8.205046
_cell_length_b 14.421377
_cell_length_c 28.926563
_cell_angle_alpha 90.000000
_cell_angle_beta 90.000000
_cell_angle_gamma 90.000000
_cell_volume 3422.824131
_symmetry_space_group_name_H-M "C M M M"
_symmetry_group_IT_number 65
_symmetry_cell_setting 'orthorhombic'
loop_
_space_group_symop_operation_xyz
x,y,z
-x,-y,z
x,-y,-z
-x,y,-z
-x,-y,-z
x,y,-z
-x,y,z
x,-y,z
1/2+x,1/2+y,z
1/2-x,1/2-y,z
1/2+x,1/2-y,-z
1/2-x,1/2+y,-z
1/2-x,1/2-y,-z
1/2+x,1/2+y,-z
1/2-x,1/2+y,z
1/2+x,1/2-y,z
loop_
_atom_site_type_symbol
_atom_site_label
_atom_site_fract_x
_atom_site_fract_y
_atom_site_fract_z
Si Si1 0.802372 0.641958 0.000000
Si Si2 0.697079 0.856103 0.900561
Si Si3 0.182555 0.390635 0.798659
Si Si4 0.681802 0.613093 0.702109
Si Si5 0.823341 0.386700 0.392729
Si Si6 0.000000 0.113745 0.553366
O O1 0.750000 0.750000 0.000000
O O2 0.747550 0.603220 0.049869
O O3 0.000000 0.637399 0.000000
O O4 0.500000 0.868606 0.899253
O O5 0.750000 0.750000 0.903363
O O6 0.758374 0.884315 0.849851
O O7 0.165714 0.500000 0.790824
O O8 0.275467 0.355232 0.753758
O O9 0.000000 0.349155 0.799994
O O10 0.500000 0.642460 0.689728
O O11 0.681997 0.500000 0.702513
O O12 0.801419 0.640554 0.660982
O O13 0.821910 0.500000 0.393977
O O14 0.664967 0.356127 0.420894
O O15 0.000000 0.356491 0.410450
O O16 0.000000 0.141619 0.500000
O O17 0.000000 0.000000 0.554834
#
# Coordination Sequence:
#
# PCOD9494448 Si02
#       6
#     8  16  16  16  16   8
#     4   8  14  26  43  61  79 105 141 176 212 254
#     4   9  17  29  45  63  84 110 142 179 216 264
#     4   9  17  28  41  60  85 110 138 177 222 266
#     4   9  15  24  38  55  75 100 133 174 214 257
#     4   9  15  23  35  49  68  98 135 176 220 263
#     4   9  16  24  32  46  70  98 136 183 221 259
#
# _framework density 23.372512
#
# number of rings (size 3 to 8) (size 9 to 14) (size 15 to 20)
#    0.000    3.100    1.000    0.600    0.000    3.600 
#    0.000    2.500    0.000    3.000    0.000    0.000 
#    0.000   11.200    0.000    0.000    0.000    1.000 
#
# Total GULP energy -222998.802780 kJ/mol
# GULP energy per Si atom -5574.970070 kJ/mol
# Density = 2.331932 g / cm^3
# Si number density = 23.372512 Si / 1000 Ang^3
#
#
#
# Elastic Constant Matrix: (Units=GPa)
#
#
# Indices 1 2 3 4 5 6 
#
# 1 111.8279 6.4169 80.7527 0.0000 0.0000 0.0000
# 2 6.4169 62.8117 -1.6759 0.0000 0.0000 0.0000
# 3 80.7527 -1.6759 190.3060 0.0000 0.0000 0.0000
# 4 0.0000 0.0000 0.0000 13.3765 0.0000 0.0000
# 5 0.0000 0.0000 0.0000 0.0000 14.1821 0.0000
# 6 0.0000 0.0000 0.0000 0.0000 0.0000 5.6856
#
#
#
# Elastic Compliance Matrix: (Units=1/GPa)
#
#
# Indices 1 2 3 4 5 6 
#
# 1 0.013029 -0.001479 -0.005542 0.000000 0.000000 0.000000
# 2 -0.001479 0.016092 0.000769 0.000000 0.000000 0.000000
# 3 -0.005542 0.000769 0.007613 0.000000 0.000000 0.000000
# 4 0.000000 0.000000 0.000000 0.074758 0.000000 0.000000
# 5 0.000000 0.000000 0.000000 0.000000 0.070512 0.000000
# 6 0.000000 0.000000 0.000000 0.000000 0.000000 0.175882
#
#
# Mechanical properties :
#
#
# Convention : Reuss Voigt Hill
#
# Bulk Modulus (GPa) = 41.26852 59.54814 50.40833
# Shear Modulus (GPa) = 13.21124 25.27896 19.24510
#
# Velocity S-wave (km/s) = 2.38007 3.29229 2.87262
# Velocity P-wave (km/s) = 5.02476 6.32340 5.71111
#
# Compressibility (1/GPa) = 0.02423155
#
# Stress axis : x y z
#
# Youngs Moduli (GPa) = 76.75295 62.14191 131.35558
#
# Poissons Ratio (x) = 0.09190 0.72791
# Poissons Ratio (y) = 0.11351 -0.10105
# Poissons Ratio (z) = 0.42533 -0.04780
#
# Static dielectric constant tensor:
#      x y z
#    x 1.861130 0.000000 0.000000 
#    y 0.000000 1.851440 0.000000 
#    z 0.000000 0.000000 1.903700 
# 
# From -- ./inp_files/67771.got.cif
#   From: 2010.05.17/outbox.cif.g08.bks.cpg/sg65_34_cif.got.tgz:67771.got - 2010.06.03 17:01:31.
