data_PCOD9494047
_publ_section_title
;
Structure prediction by ZEFSAII (Michael W. Deem and Ramdas Pophale) SiO2 
 PCOD9494047
Probable space group: C M M M
;
_chemical_formula_sum "Si O2"
_cell_formula_units_Z 64
_cell_length_a 21.715446
_cell_length_b 8.269142
_cell_length_c 17.677631
_cell_angle_alpha 90.000000
_cell_angle_beta 90.000000
_cell_angle_gamma 90.000000
_cell_volume 3174.338727
_symmetry_space_group_name_H-M "C M M M"
_symmetry_group_IT_number 65
_symmetry_cell_setting 'orthorhombic'
loop_
_space_group_symop_operation_xyz
x,y,z
-x,-y,z
x,-y,-z
-x,y,-z
-x,-y,-z
x,y,-z
-x,y,z
x,-y,z
1/2+x,1/2+y,z
1/2-x,1/2-y,z
1/2+x,1/2-y,-z
1/2-x,1/2+y,-z
1/2-x,1/2-y,-z
1/2+x,1/2+y,-z
1/2-x,1/2+y,z
1/2+x,1/2-y,z
loop_
_atom_site_type_symbol
_atom_site_label
_atom_site_fract_x
_atom_site_fract_y
_atom_site_fract_z
Si Si1 0.184733 0.307262 0.762506
Si Si2 0.634067 0.696033 0.913788
Si Si3 0.925699 0.183247 0.500000
Si Si4 0.429782 0.806473 0.665038
Si Si5 0.500000 0.683687 0.091679
O O1 0.183269 0.500000 0.759373
O O2 0.250000 0.250000 0.730283
O O3 0.179544 0.252096 0.849371
O O4 0.124139 0.242440 0.719188
O O5 0.630925 0.500000 0.914678
O O6 0.565717 0.759923 0.890385
O O7 0.647745 0.747581 0.000000
O O8 0.910569 0.269414 0.578646
O O9 0.000000 0.177259 0.500000
O O10 0.901973 0.000000 0.500000
O O11 0.500000 0.743720 0.678548
O O12 0.432817 0.000000 0.674221
O O13 0.500000 0.500000 0.121999
O O14 0.500000 0.672228 0.000000
#
# Coordination Sequence:
#
# PCOD9494047 Si02
#       5
#    16  16   8  16   8
#     4  11  24  39  56  79 112 150 189 233 280 332
#     4   9  18  34  56  80 108 144 186 231 281 335
#     4   9  17  31  56  91 120 141 175 223 270 321
#     4   9  19  37  60  84 112 147 183 222 273 330
#     4   7  12  26  49  77 105 132 167 216 273 329
#
# _framework density 20.16168
#
# number of rings (size 3 to 8) (size 9 to 14) (size 15 to 20)
#    0.000    2.750    0.000    2.625    1.750    4.500 
#    0.000    0.625    0.000    2.250    0.000    0.000 
#    0.000    0.000    0.000    0.000    0.000    0.000 
#
# Total GULP energy -178345.637737 kJ/mol
# GULP energy per Si atom -5573.301179 kJ/mol
# Density = 2.011579 g / cm^3
# Si number density = 20.161680 Si / 1000 Ang^3
#
#
#
# Elastic Constant Matrix: (Units=GPa)
#
#
# Indices 1 2 3 4 5 6 
#
# 1 129.6224 16.2823 67.9593 0.0000 0.0000 0.0000
# 2 16.2823 16.8352 5.7312 0.0000 0.0000 0.0000
# 3 67.9593 5.7312 99.6515 0.0000 0.0000 0.0000
# 4 0.0000 0.0000 0.0000 3.4696 0.0000 0.0000
# 5 0.0000 0.0000 0.0000 0.0000 7.8419 0.0000
# 6 0.0000 0.0000 0.0000 0.0000 0.0000 14.5897
#
#
#
# Elastic Compliance Matrix: (Units=1/GPa)
#
#
# Indices 1 2 3 4 5 6 
#
# 1 0.013514 -0.010131 -0.008633 0.000000 0.000000 0.000000
# 2 -0.010131 0.068180 0.002988 0.000000 0.000000 0.000000
# 3 -0.008633 0.002988 0.015751 0.000000 0.000000 0.000000
# 4 0.000000 0.000000 0.000000 0.288214 0.000000 0.000000
# 5 0.000000 0.000000 0.000000 0.000000 0.127521 0.000000
# 6 0.000000 0.000000 0.000000 0.000000 0.000000 0.068541
#
#
# Mechanical properties :
#
#
# Convention : Reuss Voigt Hill
#
# Bulk Modulus (GPa) = 15.17639 47.33943 31.25791
# Shear Modulus (GPa) = 7.87108 15.58934 11.73021
#
# Velocity S-wave (km/s) = 1.97799 2.78369 2.41468
# Velocity P-wave (km/s) = 3.57216 5.81918 4.82820
#
# Compressibility (1/GPa) = 0.06589181
#
# Stress axis : x y z
#
# Youngs Moduli (GPa) = 73.99997 14.66703 63.48929
#
# Poissons Ratio (x) = 0.14859 0.54811
# Poissons Ratio (y) = 0.74967 -0.18968
# Poissons Ratio (z) = 0.63885 -0.04382
#
# Static dielectric constant tensor:
#      x y z
#    x 1.763950 0.000000 0.000000 
#    y 0.000000 1.709170 0.000000 
#    z 0.000000 0.000000 1.707820 
# 
# From -- ./inp_files/49424.got.cif
#   From: 2010.05.17/outbox.cif.g08.bks.cpg/sg65_25_cif.got.tgz:49424.got - 2010.06.03 17:01:31.
