data_PCOD9494676
_publ_section_title
;
Structure prediction by ZEFSAII (Michael W. Deem and Ramdas Pophale) SiO2 
 PCOD9494676
Probable space group: C M M M
;
_chemical_formula_sum "Si O2"
_cell_formula_units_Z 40
_cell_length_a 27.000000
_cell_length_b 18.000000
_cell_length_c 9.000000
_cell_angle_alpha 90.000000
_cell_angle_beta 90.000000
_cell_angle_gamma 90.000000
_cell_volume 4374.000000
_symmetry_space_group_name_H-M "C M M M"
_symmetry_group_IT_number 65
_symmetry_cell_setting 'orthorhombic'
loop_
_space_group_symop_operation_xyz
x,y,z
-x,-y,z
x,-y,-z
-x,y,-z
-x,-y,-z
x,y,-z
-x,y,z
x,-y,z
1/2+x,1/2+y,z
1/2-x,1/2-y,z
1/2+x,1/2-y,-z
1/2-x,1/2+y,-z
1/2-x,1/2-y,-z
1/2+x,1/2+y,-z
1/2-x,1/2+y,z
1/2+x,1/2-y,z
loop_
_atom_site_type_symbol
_atom_site_label
_atom_site_fract_x
_atom_site_fract_y
_atom_site_fract_z
Si Si1 0.446078 0.409850 0.174378
Si Si2 0.746417 0.661915 0.173756
Si Si3 0.946447 0.589939 0.675610
Si Si4 0.846924 0.587302 0.822202
Si Si5 0.653853 0.586587 0.323453
O O1 0.500000 0.383421 0.227745
O O2 0.446628 0.500000 0.186441
O O3 0.398167 0.383663 0.261317
O O4 0.441427 0.392435 0.000000
O O5 0.750000 0.750000 0.182196
O O6 0.797587 0.627383 0.231173
O O7 0.699674 0.631343 0.260215
O O8 0.741157 0.640451 0.000000
O O9 0.943425 0.603920 0.500000
O O10 0.946593 0.500000 0.694546
O O11 0.897628 0.618338 0.755281
O O12 0.000000 0.617104 0.730986
O O13 0.842986 0.500000 0.784985
O O14 0.849475 0.593825 0.000000
O O15 0.653121 0.588716 0.500000
O O16 0.658993 0.500000 0.276535
#
# Coordination Sequence:
#
# PCOD9494676 Si02
#       5
#    16  16  16  16  16
#     4   8  14  26  46  72 100 129 160 195 238 287
#     4  10  21  36  52  69  93 128 168 207 246 289
#     4   8  14  25  42  66  95 123 149 180 223 276
#     4   9  17  29  47  71  95 119 151 193 237 277
#     4  10  20  32  49  75 103 130 161 199 245 295
#
# _framework density 9.1449470000000002
#
# number of rings (size 3 to 8) (size 9 to 14) (size 15 to 20)
#    0.000    3.000    0.000    2.400    0.000    4.000 
#    0.000    6.000    0.000    1.200    0.000    2.800 
#    0.000    0.000    0.000    0.000    0.000    0.000 
#
# Total GULP energy -222800.153792 kJ/mol
# GULP energy per Si atom -5570.003845 kJ/mol
# Density = 0.912413 g / cm^3
# Si number density = 9.144947 Si / 1000 Ang^3
#
#
#
# Elastic Constant Matrix: (Units=GPa)
#
#
# Indices 1 2 3 4 5 6 
#
# 1 215.6723 37.9165 63.8653 0.0000 0.0000 0.0000
# 2 37.9165 1.8579 21.8109 0.0000 0.0000 0.0000
# 3 63.8653 21.8109 15.8035 0.0000 0.0000 0.0000
# 4 0.0000 0.0000 0.0000 9.9974 0.0000 0.0000
# 5 0.0000 0.0000 0.0000 0.0000 49.8617 0.0000
# 6 0.0000 0.0000 0.0000 0.0000 0.0000 -21.6859
#
#
#
# Elastic Compliance Matrix: (Units=1/GPa)
#
#
# Indices 1 2 3 4 5 6 
#
# 1 0.021324 -0.037920 -0.033840 0.000000 0.000000 0.000000
# 2 -0.037920 0.032027 0.109042 0.000000 0.000000 0.000000
# 3 -0.033840 0.109042 0.049540 0.000000 0.000000 0.000000
# 4 0.000000 0.000000 0.000000 0.100026 0.000000 0.000000
# 5 0.000000 0.000000 0.000000 0.000000 0.020055 0.000000
# 6 0.000000 0.000000 0.000000 0.000000 0.000000 -0.046113
#
#
# Mechanical properties :
#
#
# Convention : Reuss Voigt Hill
#
# Bulk Modulus (GPa) = 5.63525 53.39100 29.51313
# Shear Modulus (GPa) = 30.96986 14.95073 22.96029
#
# Velocity S-wave (km/s) = 4.11941 2.86218 3.54694
# Velocity P-wave (km/s) = 5.07088 6.33858 5.73984
#
# Compressibility (1/GPa) = 0.17745430
#
# Stress axis : x y z
#
# Youngs Moduli (GPa) = 46.89541 31.22347 20.18580
#
# Poissons Ratio (x) = 1.18400 0.68309
# Poissons Ratio (y) = 1.77829 -2.20110
# Poissons Ratio (z) = 1.58694 -3.40467
#
# Static dielectric constant tensor:
#      x y z
#    x 1.652000 0.000000 0.000000 
#    y 0.000000 1.606610 0.000000 
#    z 0.000000 0.000000 1.611600 
# 
# From -- ./inp_files/16049.got.cif
#   From: 2010.05.17/outbox.ucp.g08.bks.cvg/sg65_9_cif.got.tgz:16049.got - 2010.06.11 16:39:57.
