data_PCOD9494672
_publ_section_title
;
Structure prediction by ZEFSAII (Michael W. Deem and Ramdas Pophale) SiO2 
 PCOD9494672
Probable space group: C M M M
;
_chemical_formula_sum "Si O2"
_cell_formula_units_Z 60
_cell_length_a 27.000000
_cell_length_b 9.000000
_cell_length_c 27.000000
_cell_angle_alpha 90.000000
_cell_angle_beta 90.000000
_cell_angle_gamma 90.000000
_cell_volume 6561.000000
_symmetry_space_group_name_H-M "C M M M"
_symmetry_group_IT_number 65
_symmetry_cell_setting 'orthorhombic'
loop_
_space_group_symop_operation_xyz
x,y,z
-x,-y,z
x,-y,-z
-x,y,-z
-x,-y,-z
x,y,-z
-x,y,z
x,-y,z
1/2+x,1/2+y,z
1/2-x,1/2-y,z
1/2+x,1/2-y,-z
1/2-x,1/2+y,-z
1/2-x,1/2-y,-z
1/2+x,1/2+y,-z
1/2-x,1/2+y,z
1/2+x,1/2-y,z
loop_
_atom_site_type_symbol
_atom_site_label
_atom_site_fract_x
_atom_site_fract_y
_atom_site_fract_z
Si Si1 0.695997 0.179266 0.343070
Si Si2 0.631329 0.177570 0.253329
Si Si3 0.560167 0.166170 0.099317
Si Si4 0.439271 0.668127 0.000000
Si Si5 0.304840 0.820667 0.052642
Si Si6 0.195493 0.321660 0.448578
Si Si7 0.804055 0.320994 0.159554
Si Si8 0.058644 0.164374 0.800621
O O1 0.750000 0.250000 0.338364
O O2 0.660414 0.231994 0.300467
O O3 0.673119 0.219165 0.396255
O O4 0.701125 0.000000 0.339602
O O5 0.662833 0.224264 0.205469
O O6 0.578062 0.245850 0.245891
O O7 0.628463 0.000000 0.254064
O O8 0.500000 0.157169 0.097440
O O9 0.571654 0.250251 0.149328
O O10 0.580469 0.000000 0.100424
O O11 0.575147 0.247789 0.049618
O O12 0.421529 0.500000 0.000000
O O13 0.500000 0.664040 0.000000
O O14 0.250000 0.750000 0.053011
O O15 0.326029 0.777975 0.105927
O O16 0.301095 0.000000 0.052304
O O17 0.327532 0.774554 0.000000
O O18 0.170375 0.277603 0.500000
O O19 0.201155 0.500000 0.448507
O O20 0.250000 0.250000 0.448537
O O21 0.799316 0.500000 0.161021
O O22 0.750000 0.250000 0.164122
O O23 0.000000 0.155415 0.799799
O O24 0.079995 0.000000 0.801260
#
# Coordination Sequence:
#
# PCOD9494672 Si02
#       8
#    16  16  16   8  16  16  16  16
#     4   9  17  28  43  66  96 129 162 193 226 266
#     4  10  20  32  46  65  91 120 150 185 227 277
#     4   9  16  27  45  67  88 110 138 173 218 274
#     4   9  15  23  39  65  93 115 136 167 210 265
#     4   8  13  22  37  56  77 102 133 167 203 242
#     4   8  13  22  37  58  87 124 162 194 222 255
#     4   9  17  28  43  64  88 114 143 174 211 258
#     4  10  21  36  52  68  85 110 148 192 239 287
#
# _framework density 9.1449470000000002
#
# number of rings (size 3 to 8) (size 9 to 14) (size 15 to 20)
#    0.000    3.000    0.000    1.400    0.000    4.267 
#    0.000    0.000    1.467    0.000    0.000    0.000 
#    0.000    0.533    0.000    6.667    0.000    1.067 
#
# Total GULP energy -334035.116421 kJ/mol
# GULP energy per Si atom -5567.251940 kJ/mol
# Density = 0.912413 g / cm^3
# Si number density = 9.144947 Si / 1000 Ang^3
#
#
#
# Elastic Constant Matrix: (Units=GPa)
#
#
# Indices 1 2 3 4 5 6 
#
# 1 49.0616 24.4909 43.8502 0.0000 0.0000 0.0000
# 2 24.4909 4.9494 43.8195 0.0000 0.0000 0.0000
# 3 43.8502 43.8195 166.1626 0.0000 0.0000 0.0000
# 4 0.0000 0.0000 0.0000 7.7158 0.0000 0.0000
# 5 0.0000 0.0000 0.0000 0.0000 97.0748 0.0000
# 6 0.0000 0.0000 0.0000 0.0000 0.0000 12.6040
#
#
#
# Elastic Compliance Matrix: (Units=1/GPa)
#
#
# Indices 1 2 3 4 5 6 
#
# 1 0.015928 0.031166 -0.012422 0.000000 0.000000 0.000000
# 2 0.031166 -0.090385 0.015611 0.000000 0.000000 0.000000
# 3 -0.012422 0.015611 0.005180 0.000000 0.000000 0.000000
# 4 0.000000 0.000000 0.000000 0.129605 0.000000 0.000000
# 5 0.000000 0.000000 0.000000 0.000000 0.010301 0.000000
# 6 0.000000 0.000000 0.000000 0.000000 0.000000 0.079340
#
#
# Mechanical properties :
#
#
# Convention : Reuss Voigt Hill
#
# Bulk Modulus (GPa) = -1760.81849 49.38830 -855.71510
# Shear Modulus (GPa) = 61.67526 30.67978 46.17752
#
# Velocity S-wave (km/s) = 5.81327 4.10007 5.03015
# Velocity P-wave (km/s) = 30.32752 7.03390 20.86004
#
# Compressibility (1/GPa) = -0.00056792
#
# Stress axis : x y z
#
# Youngs Moduli (GPa) = 62.78390 -11.06382 193.06700
#
# Poissons Ratio (x) = 0.34481 2.39832
# Poissons Ratio (y) = -1.95672 -3.01398
# Poissons Ratio (z) = 0.77991 0.17272
#
# Static dielectric constant tensor:
#      x y z
#    x 1.626980 0.000000 0.000000 
#    y 0.000000 1.622280 0.000000 
#    z 0.000000 0.000000 1.676510 
# 
# From -- ./inp_files/76088.got.cif
#   From: 2010.05.17/outbox.ucp.g08.bks.cvg/sg65_39_cif.got.tgz:76088.got - 2010.06.11 16:39:57.
