data_PCOD9494029
_publ_section_title
;
Structure prediction by ZEFSAII (Michael W. Deem and Ramdas Pophale) SiO2 
 PCOD9494029
Probable space group: C M M M
;
_chemical_formula_sum "Si O2"
_cell_formula_units_Z 48
_cell_length_a 38.654759
_cell_length_b 9.078635
_cell_length_c 7.613329
_cell_angle_alpha 90.000000
_cell_angle_beta 90.000000
_cell_angle_gamma 90.000000
_cell_volume 2671.764183
_symmetry_space_group_name_H-M "C M M M"
_symmetry_group_IT_number 65
_symmetry_cell_setting 'orthorhombic'
loop_
_space_group_symop_operation_xyz
x,y,z
-x,-y,z
x,-y,-z
-x,y,-z
-x,-y,-z
x,y,-z
-x,y,z
x,-y,z
1/2+x,1/2+y,z
1/2-x,1/2-y,z
1/2+x,1/2-y,-z
1/2-x,1/2+y,-z
1/2-x,1/2-y,-z
1/2+x,1/2+y,-z
1/2-x,1/2+y,z
1/2+x,1/2-y,z
loop_
_atom_site_type_symbol
_atom_site_label
_atom_site_fract_x
_atom_site_fract_y
_atom_site_fract_z
Si Si1 0.287514 0.324429 0.000000
Si Si2 0.540146 0.676155 0.000000
Si Si3 0.085780 0.675743 0.705564
Si Si4 0.333653 0.175131 0.707791
O O1 0.250000 0.250000 0.000000
O O2 0.308745 0.267965 0.830745
O O3 0.215451 0.000000 0.000000
O O4 0.560070 0.738961 0.168709
O O5 0.541712 0.500000 0.000000
O O6 0.500000 0.721672 0.000000
O O7 0.079946 0.708114 0.500000
O O8 0.081564 0.500000 0.730311
O O9 0.126033 0.709591 0.745713
O O10 0.327863 0.199957 0.500000
O O11 0.328769 0.000000 0.740934
#
# Coordination Sequence:
#
# PCOD9494029 Si02
#       4
#     8   8  16  16
#     4  12  25  38  55  81 114 150 185 222 267 321
#     4  11  24  37  50  76 115 153 184 221 274 327
#     4   9  19  37  61  85 107 138 182 228 273 323
#     4   9  19  38  62  85 110 140 177 225 277 326
#
# _framework density 17.965658000000001
#
# number of rings (size 3 to 8) (size 9 to 14) (size 15 to 20)
#    0.000    2.167    0.000    5.000    0.000    9.333 
#    0.000    6.667    0.000    0.000    0.000    0.000 
#    0.000    0.000    0.000    0.000    0.000    0.000 
#
# Total GULP energy -134072.087053 kJ/mol
# GULP energy per Si atom -5586.336961 kJ/mol
# Density = 1.792477 g / cm^3
# Si number density = 17.965658 Si / 1000 Ang^3
#
#
#
# Elastic Constant Matrix: (Units=GPa)
#
#
# Indices 1 2 3 4 5 6 
#
# 1 165.7806 101.6933 110.2210 0.0000 0.0000 0.0000
# 2 101.6933 93.4730 79.8279 0.0000 0.0000 0.0000
# 3 110.2210 79.8279 105.2906 0.0000 0.0000 0.0000
# 4 0.0000 0.0000 0.0000 1.8170 0.0000 0.0000
# 5 0.0000 0.0000 0.0000 0.0000 -68.8248 0.0000
# 6 0.0000 0.0000 0.0000 0.0000 0.0000 34.9988
#
#
#
# Elastic Compliance Matrix: (Units=1/GPa)
#
#
# Indices 1 2 3 4 5 6 
#
# 1 0.024737 -0.013609 -0.015577 0.000000 0.000000 0.000000
# 2 -0.013609 0.037836 -0.014440 0.000000 0.000000 0.000000
# 3 -0.015577 -0.014440 0.036752 0.000000 0.000000 0.000000
# 4 0.000000 0.000000 0.000000 0.550362 0.000000 0.000000
# 5 0.000000 0.000000 0.000000 0.000000 -0.014530 0.000000
# 6 0.000000 0.000000 0.000000 0.000000 0.000000 0.028572
#
#
# Mechanical properties :
#
#
# Convention : Reuss Voigt Hill
#
# Bulk Modulus (GPa) = 82.83128 105.33650 94.08389
# Shear Modulus (GPa) = 6.62247 -1.54834 2.53707
#
# Velocity S-wave (km/s) = 1.92203 -0.92936 1.18964
# Velocity P-wave (km/s) = 7.15059 7.58998 7.37356
#
# Compressibility (1/GPa) = 0.01207273
#
# Stress axis : x y z
#
# Youngs Moduli (GPa) = 40.42560 26.43011 27.20934
#
# Poissons Ratio (x) = 0.35968 0.42385
# Poissons Ratio (y) = 0.55014 0.39289
# Poissons Ratio (z) = 0.62973 0.38164
#
# Static dielectric constant tensor:
#      x y z
#    x 1.589840 0.000000 0.000000 
#    y 0.000000 1.591590 0.000000 
#    z 0.000000 0.000000 1.605720 
# 
# From -- ./inp_files/3090.got.cif
#   From: 2010.05.17/outbox.cif.g08.bks.cpg/sg65_2_cif.got.tgz:3090.got - 2010.06.03 17:01:31.
