data_PCOD9494642
_publ_section_title
;
Structure prediction by ZEFSAII (Michael W. Deem and Ramdas Pophale) SiO2 
 PCOD9494642
Probable space group: C M M M
;
_chemical_formula_sum "Si O2"
_cell_formula_units_Z 56
_cell_length_a 15.000000
_cell_length_b 30.000000
_cell_length_c 15.000000
_cell_angle_alpha 90.000000
_cell_angle_beta 90.000000
_cell_angle_gamma 90.000000
_cell_volume 6750.000000
_symmetry_space_group_name_H-M "C M M M"
_symmetry_group_IT_number 65
_symmetry_cell_setting 'orthorhombic'
loop_
_space_group_symop_operation_xyz
x,y,z
-x,-y,z
x,-y,-z
-x,y,-z
-x,-y,-z
x,y,-z
-x,y,z
x,-y,z
1/2+x,1/2+y,z
1/2-x,1/2-y,z
1/2+x,1/2-y,-z
1/2-x,1/2+y,-z
1/2-x,1/2-y,-z
1/2+x,1/2+y,-z
1/2-x,1/2+y,z
1/2+x,1/2-y,z
loop_
_atom_site_type_symbol
_atom_site_label
_atom_site_fract_x
_atom_site_fract_y
_atom_site_fract_z
Si Si1 0.149323 0.232472 0.603134
Si Si2 0.894545 0.737602 0.198904
Si Si3 0.392686 0.550234 0.734029
Si Si4 0.713067 0.413786 0.895221
Si Si5 0.404087 0.052485 0.892278
Si Si6 0.107386 0.129717 0.602878
Si Si7 0.232694 0.190122 0.106868
O O1 0.112934 0.239226 0.500000
O O2 0.250000 0.250000 0.600359
O O3 0.109597 0.255413 0.693051
O O4 0.145152 0.179175 0.620080
O O5 0.845110 0.779874 0.151502
O O6 0.825778 0.699814 0.160346
O O7 0.000000 0.732818 0.174911
O O8 0.500000 0.551428 0.735690
O O9 0.366057 0.500000 0.706075
O O10 0.354177 0.560549 0.831473
O O11 0.362742 0.590176 0.668337
O O12 0.813566 0.424652 0.863464
O O13 0.703282 0.360900 0.886676
O O14 0.704378 0.426087 0.000000
O O15 0.500000 0.069876 0.859344
O O16 0.399092 0.000000 0.871539
O O17 0.405544 0.056266 0.000000
O O18 0.127216 0.118105 0.500000
O O19 0.000000 0.133882 0.611303
O O20 0.244268 0.199594 0.000000
#
# Coordination Sequence:
#
# PCOD9494642 Si02
#       7
#    16  16  16  16  16  16  16
#     4  10  19  32  53  80 107 135 170 213 262 320
#     4  11  21  35  54  73 101 137 170 215 268 313
#     4  10  21  34  50  76 107 139 175 212 252 305
#     4  10  20  33  50  69  98 136 170 211 257 302
#     4   8  14  26  45  67  88 113 150 196 246 295
#     4   9  18  33  53  76 102 135 174 213 255 304
#     4  10  22  37  50  72 100 132 183 226 257 311
#
# _framework density 8.2962959999999999
#
# number of rings (size 3 to 8) (size 9 to 14) (size 15 to 20)
#    0.000    2.286    1.429    3.000    0.000    5.714 
#    0.000    5.000    0.000    0.000    0.000    0.000 
#    0.000    0.571    0.000    3.000    0.000    0.286 
#
# Total GULP energy -311761.430079 kJ/mol
# GULP energy per Si atom -5567.168394 kJ/mol
# Density = 0.827741 g / cm^3
# Si number density = 8.296296 Si / 1000 Ang^3
#
#
#
# Elastic Constant Matrix: (Units=GPa)
#
#
# Indices 1 2 3 4 5 6 
#
# 1 55.9471 10.9455 17.1930 0.0000 0.0000 0.0000
# 2 10.9455 54.3029 22.3902 0.0000 0.0000 0.0000
# 3 17.1930 22.3902 89.9147 0.0000 0.0000 0.0000
# 4 0.0000 0.0000 0.0000 21.9214 0.0000 0.0000
# 5 0.0000 0.0000 0.0000 0.0000 22.2074 0.0000
# 6 0.0000 0.0000 0.0000 0.0000 0.0000 22.9796
#
#
#
# Elastic Compliance Matrix: (Units=1/GPa)
#
#
# Indices 1 2 3 4 5 6 
#
# 1 0.019324 -0.002643 -0.003037 0.000000 0.000000 0.000000
# 2 -0.002643 0.020884 -0.004695 0.000000 0.000000 0.000000
# 3 -0.003037 -0.004695 0.012872 0.000000 0.000000 0.000000
# 4 0.000000 0.000000 0.000000 0.045618 0.000000 0.000000
# 5 0.000000 0.000000 0.000000 0.000000 0.045030 0.000000
# 6 0.000000 0.000000 0.000000 0.000000 0.000000 0.043517
#
#
# Mechanical properties :
#
#
# Convention : Reuss Voigt Hill
#
# Bulk Modulus (GPa) = 30.93115 33.46911 32.20013
# Shear Modulus (GPa) = 22.85501 23.39743 23.12622
#
# Velocity S-wave (km/s) = 3.71539 3.75922 3.73737
# Velocity P-wave (km/s) = 6.08995 6.24958 6.17028
#
# Compressibility (1/GPa) = 0.03232987
#
# Stress axis : x y z
#
# Youngs Moduli (GPa) = 51.74813 47.88405 77.69098
#
# Poissons Ratio (x) = 0.12655 0.23595
# Poissons Ratio (y) = 0.13676 0.36476
# Poissons Ratio (z) = 0.15716 0.22482
#
# Static dielectric constant tensor:
#      x y z
#    x 1.562640 0.000000 0.000000 
#    y 0.000000 1.579730 0.000000 
#    z 0.000000 0.000000 1.576310 
# 
# From -- ./inp_files/41344.got.cif
#   From: 2010.05.17/outbox.ucp.g08.bks.cvg/sg65_21_cif.got.tgz:41344.got - 2010.06.11 16:39:57.
