data_PCOD9494459
_publ_section_title
;
Structure prediction by ZEFSAII (Michael W. Deem and Ramdas Pophale) SiO2 
 PCOD9494459
Probable space group: C M M M
;
_chemical_formula_sum "Si O2"
_cell_formula_units_Z 88
_cell_length_a 14.681573
_cell_length_b 28.180529
_cell_length_c 10.144533
_cell_angle_alpha 90.000000
_cell_angle_beta 90.000000
_cell_angle_gamma 90.000000
_cell_volume 4197.143224
_symmetry_space_group_name_H-M "C M M M"
_symmetry_group_IT_number 65
_symmetry_cell_setting 'orthorhombic'
loop_
_space_group_symop_operation_xyz
x,y,z
-x,-y,z
x,-y,-z
-x,y,-z
-x,-y,-z
x,y,-z
-x,y,z
x,-y,z
1/2+x,1/2+y,z
1/2-x,1/2-y,z
1/2+x,1/2-y,-z
1/2-x,1/2+y,-z
1/2-x,1/2-y,-z
1/2+x,1/2+y,-z
1/2-x,1/2+y,z
1/2+x,1/2-y,z
loop_
_atom_site_type_symbol
_atom_site_label
_atom_site_fract_x
_atom_site_fract_y
_atom_site_fract_z
Si Si1 0.345265 0.658149 0.151410
Si Si2 0.388123 0.000000 0.352210
Si Si3 0.140003 0.760211 0.651689
Si Si4 0.895400 0.572612 0.142424
Si Si5 0.867282 0.317546 0.854846
Si Si6 0.892310 0.052116 0.158890
O O1 0.384263 0.693035 0.263005
O O2 0.241748 0.676512 0.142592
O O3 0.348121 0.602852 0.194241
O O4 0.382773 0.661462 0.000000
O O5 0.357310 0.954974 0.266423
O O6 0.500000 0.000000 0.361395
O O7 0.353451 0.000000 0.500000
O O8 0.110481 0.762753 0.500000
O O9 0.250000 0.750000 0.648299
O O10 0.104192 0.716160 0.737261
O O11 0.898690 0.628607 0.160432
O O12 0.000000 0.556398 0.132319
O O13 0.850086 0.562680 0.000000
O O14 0.894642 0.299445 0.000000
O O15 0.000000 0.055489 0.191729
O O16 0.859341 0.000000 0.207391
O O17 0.885854 0.050473 0.000000
#
# Coordination Sequence:
#
# PCOD9494459 Si02
#       6
#    16   8  16  16  16  16
#     4   9  16  28  47  70  91 114 147 188 224 261
#     4   9  17  29  45  63  83 113 152 185 214 256
#     4   9  17  29  46  66  89 121 152 181 222 273
#     4   9  17  30  46  63  87 119 151 183 223 267
#     4   9  17  29  45  68  91 115 149 190 228 262
#     4   8  14  26  45  69  95 120 146 180 226 276
#
# _framework density 20.966643000000001
#
# number of rings (size 3 to 8) (size 9 to 14) (size 15 to 20)
#    0.000    3.182    0.000    1.364    0.000    4.000 
#    1.636    0.909    0.000    6.545    0.000    1.273 
#    0.000    0.000    0.000    0.000    0.000    0.000 
#
# Total GULP energy -245107.342471 kJ/mol
# GULP energy per Si atom -5570.621420 kJ/mol
# Density = 2.091892 g / cm^3
# Si number density = 20.966643 Si / 1000 Ang^3
#
#
#
# Elastic Constant Matrix: (Units=GPa)
#
#
# Indices 1 2 3 4 5 6 
#
# 1 48.4400 0.9976 13.2183 0.0000 0.0000 0.0000
# 2 0.9976 154.4849 113.8863 0.0000 0.0000 0.0000
# 3 13.2183 113.8863 191.9673 0.0000 0.0000 0.0000
# 4 0.0000 0.0000 0.0000 -16.4576 0.0000 0.0000
# 5 0.0000 0.0000 0.0000 0.0000 -1.2815 0.0000
# 6 0.0000 0.0000 0.0000 0.0000 0.0000 11.0710
#
#
#
# Elastic Compliance Matrix: (Units=1/GPa)
#
#
# Indices 1 2 3 4 5 6 
#
# 1 0.021281 0.001676 -0.002459 0.000000 0.000000 0.000000
# 2 0.001676 0.011637 -0.007019 0.000000 0.000000 0.000000
# 3 -0.002459 -0.007019 0.009543 0.000000 0.000000 0.000000
# 4 0.000000 0.000000 0.000000 -0.060762 0.000000 0.000000
# 5 0.000000 0.000000 0.000000 0.000000 -0.780340 0.000000
# 6 0.000000 0.000000 0.000000 0.000000 0.000000 0.090326
#
#
# Mechanical properties :
#
#
# Convention : Reuss Voigt Hill
#
# Bulk Modulus (GPa) = 37.23758 72.34407 54.79083
# Shear Modulus (GPa) = -7.31252 16.45238 4.56993
#
# Velocity S-wave (km/s) = -1.86956 2.80428 1.47796
# Velocity P-wave (km/s) = 3.62472 6.71301 5.39459
#
# Compressibility (1/GPa) = 0.02685459
#
# Stress axis : x y z
#
# Youngs Moduli (GPa) = 46.99092 85.93525 104.79305
#
# Poissons Ratio (x) = -0.14400 0.25773
# Poissons Ratio (y) = -0.07874 0.73554
# Poissons Ratio (z) = 0.11557 0.60317
#
# Static dielectric constant tensor:
#      x y z
#    x 1.867950 0.000000 0.000000 
#    y 0.000000 1.752370 0.000000 
#    z 0.000000 0.000000 1.738000 
# 
# From -- ./inp_files/10156.got.cif
#   From: 2010.05.17/outbox.cif.g08.bks.cpg/sg65_6_cif.got.tgz:10156.got - 2010.06.03 17:01:31.
