data_PCOD9494854
_publ_section_title
;
Structure prediction by ZEFSAII (Michael W. Deem and Ramdas Pophale) SiO2 
 PCOD9494854
Probable space group: C M M M
;
_chemical_formula_sum "Si O2"
_cell_formula_units_Z 48
_cell_length_a 27.000000
_cell_length_b 24.000000
_cell_length_c 9.000000
_cell_angle_alpha 90.000000
_cell_angle_beta 90.000000
_cell_angle_gamma 90.000000
_cell_volume 5832.000000
_symmetry_space_group_name_H-M "C M M M"
_symmetry_group_IT_number 65
_symmetry_cell_setting 'orthorhombic'
loop_
_space_group_symop_operation_xyz
x,y,z
-x,-y,z
x,-y,-z
-x,y,-z
-x,-y,-z
x,y,-z
-x,y,z
x,-y,z
1/2+x,1/2+y,z
1/2-x,1/2-y,z
1/2+x,1/2-y,-z
1/2-x,1/2+y,-z
1/2-x,1/2-y,-z
1/2+x,1/2+y,-z
1/2-x,1/2+y,z
1/2+x,1/2-y,z
loop_
_atom_site_type_symbol
_atom_site_label
_atom_site_fract_x
_atom_site_fract_y
_atom_site_fract_z
Si Si1 0.352619 0.291941 0.822512
Si Si2 0.362334 0.000000 0.322825
Si Si3 0.207085 0.118102 0.324234
Si Si4 0.554811 0.220994 0.181476
Si Si5 0.247127 0.000000 0.681332
Si Si6 0.894471 0.388763 0.828695
Si Si7 0.206983 0.682405 0.829970
O O1 0.338321 0.349916 0.750057
O O2 0.403406 0.264007 0.768384
O O3 0.310786 0.244704 0.793313
O O4 0.355176 0.297914 0.000000
O O5 0.388389 0.055408 0.263250
O O6 0.361859 0.000000 0.500000
O O7 0.304640 0.000000 0.270467
O O8 0.200697 0.116498 0.500000
O O9 0.254566 0.155206 0.280807
O O10 0.219510 0.055980 0.269759
O O11 0.500000 0.237250 0.225764
O O12 0.567585 0.157984 0.228621
O O13 0.557681 0.219661 0.000000
O O14 0.247895 0.000000 0.500000
O O15 0.842249 0.355592 0.828870
O O16 0.906343 0.402687 0.000000
O O17 0.226626 0.681752 0.000000
#
# Coordination Sequence:
#
# PCOD9494854 Si02
#       7
#    16   8  16  16   8  16  16
#     4   9  18  31  47  70  96 118 146 187 234 279
#     4  11  19  31  46  62  91 131 167 196 233 271
#     4  11  20  31  45  64  92 125 160 189 220 267
#     4   8  15  31  54  74  92 117 150 192 242 289
#     4   9  20  33  43  60  91 130 164 193 219 257
#     4   9  17  29  47  70  91 118 161 201 230 270
#     4   9  17  29  44  64  94 124 148 185 231 271
#
# _framework density 8.2304530000000007
#
# number of rings (size 3 to 8) (size 9 to 14) (size 15 to 20)
#    0.000    2.667    1.667    3.250    0.000    2.667 
#    0.000    4.583    0.000    4.500    0.000    0.583 
#    0.000    4.667    0.000    0.000    0.000    0.000 
#
# Total GULP energy -267480.784667 kJ/mol
# GULP energy per Si atom -5572.516347 kJ/mol
# Density = 0.821172 g / cm^3
# Si number density = 8.230453 Si / 1000 Ang^3
#
#
#
# Elastic Constant Matrix: (Units=GPa)
#
#
# Indices 1 2 3 4 5 6 
#
# 1 78.8240 53.0877 18.0911 0.0000 0.0000 0.0000
# 2 53.0877 78.8232 30.6144 0.0000 0.0000 0.0000
# 3 18.0911 30.6144 18.8010 0.0000 0.0000 0.0000
# 4 0.0000 0.0000 0.0000 20.6768 0.0000 0.0000
# 5 0.0000 0.0000 0.0000 0.0000 0.8356 0.0000
# 6 0.0000 0.0000 0.0000 0.0000 0.0000 8.2700
#
#
#
# Elastic Compliance Matrix: (Units=1/GPa)
#
#
# Indices 1 2 3 4 5 6 
#
# 1 0.023728 -0.019352 0.008679 0.000000 0.000000 0.000000
# 2 -0.019352 0.050298 -0.063281 0.000000 0.000000 0.000000
# 3 0.008679 -0.063281 0.147880 0.000000 0.000000 0.000000
# 4 0.000000 0.000000 0.000000 0.048363 0.000000 0.000000
# 5 0.000000 0.000000 0.000000 0.000000 1.196812 0.000000
# 6 0.000000 0.000000 0.000000 0.000000 0.000000 0.120919
#
#
# Mechanical properties :
#
#
# Convention : Reuss Voigt Hill
#
# Bulk Modulus (GPa) = 13.51374 42.22609 27.86991
# Shear Modulus (GPa) = 2.83998 10.93346 6.88672
#
# Velocity S-wave (km/s) = 1.31493 2.58002 2.04762
# Velocity P-wave (km/s) = 3.24543 5.88076 4.74953
#
# Compressibility (1/GPa) = 0.07399878
#
# Stress axis : x y z
#
# Youngs Moduli (GPa) = 42.14459 19.88144 6.76223
#
# Poissons Ratio (x) = 0.38474 -0.05869
# Poissons Ratio (y) = 0.81557 0.42792
# Poissons Ratio (z) = -0.36579 1.25812
#
# Static dielectric constant tensor:
#      x y z
#    x 1.576200 0.000000 0.000000 
#    y 0.000000 1.551240 0.000000 
#    z 0.000000 0.000000 1.555110 
# 
# From -- ./inp_files/16681.got.cif
#   From: 2010.05.17/outbox.ucp.g08.bks.cvg/sg65_9_cif.got.tgz:16681.got - 2010.06.11 16:39:57.
