data_PCOD9494897
_publ_section_title
;
Structure prediction by ZEFSAII (Michael W. Deem and Ramdas Pophale) SiO2 
 PCOD9494897
Probable space group: C C C M
;
_chemical_formula_sum "Si O2"
_cell_formula_units_Z 64
_cell_length_a 7.957895
_cell_length_b 22.686186
_cell_length_c 15.106923
_cell_angle_alpha 90.000000
_cell_angle_beta 90.000000
_cell_angle_gamma 90.000000
_cell_volume 2727.317560
_symmetry_space_group_name_H-M "C C C M"
_symmetry_group_IT_number 66
_symmetry_cell_setting 'orthorhombic'
loop_
_space_group_symop_operation_xyz
x,y,z
-x,-y,z
x,-y,1/2-z
-x,y,1/2-z
-x,-y,-z
x,y,-z
-x,y,1/2+z
x,-y,1/2+z
1/2+x,1/2+y,z
1/2-x,1/2-y,z
1/2+x,1/2-y,1/2-z
1/2-x,1/2+y,1/2-z
1/2-x,1/2-y,-z
1/2+x,1/2+y,-z
1/2-x,1/2+y,1/2+z
1/2+x,1/2-y,1/2+z
loop_
_atom_site_type_symbol
_atom_site_label
_atom_site_fract_x
_atom_site_fract_y
_atom_site_fract_z
Si Si1 0.667197 0.651626 0.359482
Si Si2 0.662094 0.867890 0.808765
Si Si3 0.250264 0.442095 0.500000
Si Si4 0.656792 0.927169 0.000000
Si Si5 0.502378 0.768454 0.898285
O O1 0.687584 0.631109 0.259503
O O2 0.671682 0.593398 0.418253
O O3 0.527414 0.700152 0.379277
O O4 0.833894 0.690947 0.386516
O O5 0.500000 0.890768 0.750000
O O6 0.624925 0.799913 0.830879
O O7 0.688120 0.897112 0.904349
O O8 0.261518 0.512166 0.500000
O O9 0.047018 0.433600 0.500000
O O10 0.555124 0.775202 0.000000
#
# Coordination Sequence:
#
# PCOD9494897 Si02
#       5
#    16  16   8   8  16
#     4  10  17  28  46  68  92 124 170 205 236 283
#     4  10  18  30  44  68  95 129 163 199 249 284
#     4  11  18  28  43  65  91 134 170 190 228 288
#     4  11  20  29  40  61  99 133 164 186 235 304
#     4  10  15  28  49  64  85 130 171 203 237 289
#
# _framework density 23.466280000000001
#
# number of rings (size 3 to 8) (size 9 to 14) (size 15 to 20)
#    0.000    1.750    8.750    0.750    0.000    1.000 
#    0.000    0.000    0.000   13.500    0.000    0.000 
#    0.000    0.000    0.000  254.250    0.000    0.000 
#
# Total GULP energy -178823.294753 kJ/mol
# GULP energy per Si atom -5588.227961 kJ/mol
# Density = 2.341287 g / cm^3
# Si number density = 23.466280 Si / 1000 Ang^3
#
#
#
# Elastic Constant Matrix: (Units=GPa)
#
#
# Indices 1 2 3 4 5 6 
#
# 1 53.6757 23.2524 26.3067 0.0000 0.0000 0.0000
# 2 23.2524 162.4263 84.7042 0.0000 0.0000 0.0000
# 3 26.3067 84.7042 240.5410 0.0000 0.0000 0.0000
# 4 0.0000 0.0000 0.0000 6.8605 0.0000 0.0000
# 5 0.0000 0.0000 0.0000 0.0000 0.6212 0.0000
# 6 0.0000 0.0000 0.0000 0.0000 0.0000 26.1590
#
#
#
# Elastic Compliance Matrix: (Units=1/GPa)
#
#
# Indices 1 2 3 4 5 6 
#
# 1 0.020275 -0.002139 -0.001464 0.000000 0.000000 0.000000
# 2 -0.002139 0.007767 -0.002501 0.000000 0.000000 0.000000
# 3 -0.001464 -0.002501 0.005198 0.000000 0.000000 0.000000
# 4 0.000000 0.000000 0.000000 0.145761 0.000000 0.000000
# 5 0.000000 0.000000 0.000000 0.000000 1.609777 0.000000
# 6 0.000000 0.000000 0.000000 0.000000 0.000000 0.038228
#
#
# Mechanical properties :
#
#
# Convention : Reuss Voigt Hill
#
# Bulk Modulus (GPa) = 47.54781 80.57439 64.06110
# Shear Modulus (GPa) = 2.70823 28.22014 15.46418
#
# Velocity S-wave (km/s) = 1.07545 3.47159 2.56988
# Velocity P-wave (km/s) = 4.67422 7.10493 6.01366
#
# Compressibility (1/GPa) = 0.02103146
#
# Stress axis : x y z
#
# Youngs Moduli (GPa) = 49.32289 128.74642 192.37417
#
# Poissons Ratio (x) = 0.27538 0.28166
# Poissons Ratio (y) = 0.10550 0.48117
# Poissons Ratio (z) = 0.07222 0.32202
#
# Static dielectric constant tensor:
#      x y z
#    x 2.097570 0.000000 0.000000 
#    y 0.000000 1.842560 0.000000 
#    z 0.000000 0.000000 1.871520 
# 
# From -- ./inp_files/24220.got.cif
#   From: 2010.05.17/outbox.cif.g08.bks.cpg/sg66_13_cif.got.tgz:24220.got - 2010.06.03 17:51:23.
