data_PCOD9494349
_publ_section_title
;
Structure prediction by ZEFSAII (Michael W. Deem and Ramdas Pophale) SiO2 
 PCOD9494349
Probable space group: C M M M
;
_chemical_formula_sum "Si O2"
_cell_formula_units_Z 112
_cell_length_a 30.715124
_cell_length_b 7.348694
_cell_length_c 23.872973
_cell_angle_alpha 90.000000
_cell_angle_beta 90.000000
_cell_angle_gamma 90.000000
_cell_volume 5388.513106
_symmetry_space_group_name_H-M "C M M M"
_symmetry_group_IT_number 65
_symmetry_cell_setting 'orthorhombic'
loop_
_space_group_symop_operation_xyz
x,y,z
-x,-y,z
x,-y,-z
-x,y,-z
-x,-y,-z
x,y,-z
-x,y,z
x,-y,z
1/2+x,1/2+y,z
1/2-x,1/2-y,z
1/2+x,1/2-y,-z
1/2-x,1/2+y,-z
1/2-x,1/2-y,-z
1/2+x,1/2+y,-z
1/2-x,1/2+y,z
1/2+x,1/2-y,z
loop_
_atom_site_type_symbol
_atom_site_label
_atom_site_fract_x
_atom_site_fract_y
_atom_site_fract_z
Si Si1 0.049407 0.278417 0.710239
Si Si2 0.798927 0.716956 0.110586
Si Si3 0.361382 0.222853 0.662432
Si Si4 0.799492 0.716803 0.237982
Si Si5 0.388405 0.222393 0.061677
Si Si6 0.950186 0.721201 0.838021
Si Si7 0.200299 0.717267 0.436453
O O1 0.048757 0.500000 0.710000
O O2 0.088560 0.221010 0.669997
O O3 0.060192 0.223328 0.774339
O O4 0.000000 0.219512 0.697220
O O5 0.803499 0.500000 0.114062
O O6 0.750000 0.750000 0.090176
O O7 0.803105 0.788428 0.174468
O O8 0.838818 0.780966 0.073156
O O9 0.334116 0.283098 0.716994
O O10 0.335299 0.284585 0.607597
O O11 0.360808 0.000000 0.662052
O O12 0.805751 0.500000 0.234585
O O13 0.750000 0.750000 0.257155
O O14 0.417927 0.283177 0.113546
O O15 0.389506 0.000000 0.061922
O O16 0.403130 0.280025 0.000000
O O17 0.948639 0.500000 0.837834
O O18 0.000000 0.773774 0.849738
O O19 0.196117 0.788494 0.500000
O O20 0.195129 0.500000 0.439209
O O21 0.250000 0.750000 0.417323
#
# Coordination Sequence:
#
# PCOD9494349 Si02
#       7
#    16  16  16  16  16  16  16
#     4   8  13  21  34  52  73  98 128 159 190 228
#     4   9  17  28  40  54  74 100 128 157 189 225
#     4   9  15  23  37  55  76 103 131 159 193 229
#     4   9  16  25  38  56  77  99 124 156 192 229
#     4   9  16  24  34  49  70  97 127 156 188 228
#     4   8  13  21  33  50  73  99 125 154 190 232
#     4   9  17  28  41  58  82 110 137 164 193 227
#
# _framework density 20.784953999999999
#
# number of rings (size 3 to 8) (size 9 to 14) (size 15 to 20)
#    0.000    3.286    0.000    2.143    0.000    4.000 
#    0.000    1.429    0.000    0.429    0.000    3.000 
#    0.000    2.857    0.000   18.714    0.000   20.714 
#
# Total GULP energy -312464.244932 kJ/mol
# GULP energy per Si atom -5579.718659 kJ/mol
# Density = 2.073765 g / cm^3
# Si number density = 20.784954 Si / 1000 Ang^3
#
#
#
# Elastic Constant Matrix: (Units=GPa)
#
#
# Indices 1 2 3 4 5 6 
#
# 1 156.2712 -2.0341 94.2319 0.0000 0.0000 0.0000
# 2 -2.0341 77.5692 2.9250 0.0000 0.0000 0.0000
# 3 94.2319 2.9250 91.6007 0.0000 0.0000 0.0000
# 4 0.0000 0.0000 0.0000 -9.0784 0.0000 0.0000
# 5 0.0000 0.0000 0.0000 0.0000 27.6135 0.0000
# 6 0.0000 0.0000 0.0000 0.0000 0.0000 7.7871
#
#
#
# Elastic Compliance Matrix: (Units=1/GPa)
#
#
# Indices 1 2 3 4 5 6 
#
# 1 0.016948 0.001103 -0.017470 0.000000 0.000000 0.000000
# 2 0.001103 0.012979 -0.001549 0.000000 0.000000 0.000000
# 3 -0.017470 -0.001549 0.028938 0.000000 0.000000 0.000000
# 4 0.000000 0.000000 0.000000 -0.110152 0.000000 0.000000
# 5 0.000000 0.000000 0.000000 0.000000 0.036214 0.000000
# 6 0.000000 0.000000 0.000000 0.000000 0.000000 0.128418
#
#
# Mechanical properties :
#
#
# Convention : Reuss Voigt Hill
#
# Bulk Modulus (GPa) = 43.41598 57.29851 50.35725
# Shear Modulus (GPa) = 31.87654 20.61901 26.24778
#
# Velocity S-wave (km/s) = 3.92041 3.15305 3.55748
# Velocity P-wave (km/s) = 6.43633 6.39396 6.41518
#
# Compressibility (1/GPa) = 0.02303299
#
# Stress axis : x y z
#
# Youngs Moduli (GPa) = 59.00442 77.04715 34.55648
#
# Poissons Ratio (x) = -0.08500 0.60370
# Poissons Ratio (y) = -0.06509 0.05354
# Poissons Ratio (z) = 1.03080 0.11937
#
# Static dielectric constant tensor:
#      x y z
#    x 1.725960 0.000000 0.000000 
#    y 0.000000 1.889620 0.000000 
#    z 0.000000 0.000000 1.725280 
# 
# From -- ./inp_files/69243.got.cif
#   From: 2010.05.17/outbox.cif.g08.bks.cpg/sg65_35_cif.got.tgz:69243.got - 2010.06.03 17:01:31.
