data_PCOD9494548
_publ_section_title
;
Structure prediction by ZEFSAII (Michael W. Deem and Ramdas Pophale) SiO2 
 PCOD9494548
Probable space group: C M M M
;
_chemical_formula_sum "Si O2"
_cell_formula_units_Z 104
_cell_length_a 27.623306
_cell_length_b 24.473104
_cell_length_c 7.672292
_cell_angle_alpha 90.000000
_cell_angle_beta 90.000000
_cell_angle_gamma 90.000000
_cell_volume 5186.684527
_symmetry_space_group_name_H-M "C M M M"
_symmetry_group_IT_number 65
_symmetry_cell_setting 'orthorhombic'
loop_
_space_group_symop_operation_xyz
x,y,z
-x,-y,z
x,-y,-z
-x,y,-z
-x,-y,-z
x,y,-z
-x,y,z
x,-y,z
1/2+x,1/2+y,z
1/2-x,1/2-y,z
1/2+x,1/2-y,-z
1/2-x,1/2+y,-z
1/2-x,1/2-y,-z
1/2+x,1/2+y,-z
1/2-x,1/2+y,z
1/2+x,1/2-y,z
loop_
_atom_site_type_symbol
_atom_site_label
_atom_site_fract_x
_atom_site_fract_y
_atom_site_fract_z
Si Si1 0.119538 0.561301 0.291880
Si Si2 0.000000 0.062474 0.707261
Si Si3 0.395744 0.561792 0.792651
Si Si4 0.317579 0.352612 0.214320
Si Si5 0.792666 0.366077 0.210427
Si Si6 0.643074 0.235480 0.790785
Si Si7 0.444878 0.163112 0.290385
O O1 0.112318 0.559154 0.500000
O O2 0.111877 0.500000 0.222780
O O3 0.174080 0.582628 0.260593
O O4 0.083510 0.608847 0.224032
O O5 0.051026 0.086922 0.763307
O O6 0.000000 0.059984 0.500000
O O7 0.000000 0.000000 0.779386
O O8 0.395064 0.500000 0.719925
O O9 0.353460 0.599958 0.724896
O O10 0.389235 0.557718 0.000000
O O11 0.262618 0.363771 0.270227
O O12 0.338930 0.294259 0.271801
O O13 0.317524 0.352258 0.000000
O O14 0.821356 0.312415 0.274235
O O15 0.791871 0.364364 0.000000
O O16 0.588999 0.215117 0.749626
O O17 0.647135 0.236577 0.000000
O O18 0.446794 0.158776 0.500000
O O19 0.500000 0.166730 0.225888
#
# Coordination Sequence:
#
# PCOD9494548 Si02
#       7
#    16   8  16  16  16  16  16
#     4   9  18  32  49  71  99 130 164 199 238 287
#     4   9  17  31  49  65  85 115 147 181 226 275
#     4   9  17  30  48  68  90 118 153 191 229 273
#     4   9  17  30  49  73  96 122 159 197 233 280
#     4   9  17  30  50  72  96 126 159 196 237 280
#     4   9  17  31  50  71  95 125 160 197 238 284
#     4   9  18  33  51  70  96 129 163 202 245 286
#
# _framework density 20.051345000000001
#
# number of rings (size 3 to 8) (size 9 to 14) (size 15 to 20)
#    0.000    3.000    0.000    0.692    0.000    4.308 
#    1.385    5.385    0.000    5.538    0.000    4.308 
#    0.000    0.000    0.000    0.000    0.000    0.000 
#
# Total GULP energy -289904.555641 kJ/mol
# GULP energy per Si atom -5575.087608 kJ/mol
# Density = 2.000571 g / cm^3
# Si number density = 20.051345 Si / 1000 Ang^3
#
#
#
# Elastic Constant Matrix: (Units=GPa)
#
#
# Indices 1 2 3 4 5 6 
#
# 1 168.7142 30.8160 -3.7152 0.0000 0.0000 0.0000
# 2 30.8160 19.8244 -0.6805 0.0000 0.0000 0.0000
# 3 -3.7152 -0.6805 34.3625 0.0000 0.0000 0.0000
# 4 0.0000 0.0000 0.0000 12.2570 0.0000 0.0000
# 5 0.0000 0.0000 0.0000 0.0000 18.5964 0.0000
# 6 0.0000 0.0000 0.0000 0.0000 0.0000 12.8678
#
#
#
# Elastic Compliance Matrix: (Units=1/GPa)
#
#
# Indices 1 2 3 4 5 6 
#
# 1 0.008291 -0.012866 0.000642 0.000000 0.000000 0.000000
# 2 -0.012866 0.070443 0.000004 0.000000 0.000000 0.000000
# 3 0.000642 0.000004 0.029171 0.000000 0.000000 0.000000
# 4 0.000000 0.000000 0.000000 0.081586 0.000000 0.000000
# 5 0.000000 0.000000 0.000000 0.000000 0.053774 0.000000
# 6 0.000000 0.000000 0.000000 0.000000 0.000000 0.077714
#
#
# Mechanical properties :
#
#
# Convention : Reuss Voigt Hill
#
# Bulk Modulus (GPa) = 11.98124 30.63797 21.30961
# Shear Modulus (GPa) = 13.39614 21.84296 17.61955
#
# Velocity S-wave (km/s) = 2.58755 3.30411 2.96754
# Velocity P-wave (km/s) = 3.86206 5.46527 4.73205
#
# Compressibility (1/GPa) = 0.08346378
#
# Stress axis : x y z
#
# Youngs Moduli (GPa) = 120.60683 14.19584 34.28071
#
# Poissons Ratio (x) = 0.18265 -0.02200
# Poissons Ratio (y) = 1.55179 -0.00014
# Poissons Ratio (z) = -0.07738 -0.00006
#
# Static dielectric constant tensor:
#      x y z
#    x 1.699160 0.000000 0.000000 
#    y 0.000000 1.706460 0.000000 
#    z 0.000000 0.000000 1.744380 
# 
# From -- ./inp_files/14761.got.cif
#   From: 2010.05.17/outbox.cif.g08.bks.cpg/sg65_8_cif.got.tgz:14761.got - 2010.06.03 17:01:31.
