data_PCOD9494058
_publ_section_title
;
Structure prediction by ZEFSAII (Michael W. Deem and Ramdas Pophale) SiO2 
 PCOD9494058
Probable space group: C M M M
;
_chemical_formula_sum "Si O2"
_cell_formula_units_Z 96
_cell_length_a 16.706491
_cell_length_b 22.312492
_cell_length_c 13.861223
_cell_angle_alpha 90.000000
_cell_angle_beta 90.000000
_cell_angle_gamma 90.000000
_cell_volume 5166.957262
_symmetry_space_group_name_H-M "C M M M"
_symmetry_group_IT_number 65
_symmetry_cell_setting 'orthorhombic'
loop_
_space_group_symop_operation_xyz
x,y,z
-x,-y,z
x,-y,-z
-x,y,-z
-x,-y,-z
x,y,-z
-x,y,z
x,-y,z
1/2+x,1/2+y,z
1/2-x,1/2-y,z
1/2+x,1/2-y,-z
1/2-x,1/2+y,-z
1/2-x,1/2-y,-z
1/2+x,1/2+y,-z
1/2-x,1/2+y,z
1/2+x,1/2-y,z
loop_
_atom_site_type_symbol
_atom_site_label
_atom_site_fract_x
_atom_site_fract_y
_atom_site_fract_z
Si Si1 0.646726 0.138925 0.709437
Si Si2 0.903660 0.760099 0.613061
Si Si3 0.000000 0.568740 0.384981
Si Si4 0.831820 0.881381 0.300945
Si Si5 0.903286 0.431998 0.112424
Si Si6 0.404227 0.428948 0.887908
Si Si7 0.090641 0.000000 0.614770
O O1 0.631331 0.207323 0.679467
O O2 0.579169 0.101370 0.652833
O O3 0.737152 0.122423 0.684652
O O4 0.632684 0.118821 0.819766
O O5 0.881279 0.751546 0.500000
O O6 0.872531 0.823400 0.651901
O O7 0.000000 0.757942 0.618276
O O8 0.000000 0.500000 0.351724
O O9 0.000000 0.570509 0.500000
O O10 0.856117 0.889566 0.188708
O O11 0.865842 0.940684 0.350421
O O12 0.878444 0.500000 0.141767
O O13 0.000000 0.429660 0.120279
O O14 0.882747 0.424677 0.000000
O O15 0.500000 0.420424 0.874613
O O16 0.387706 0.500000 0.871728
O O17 0.385617 0.416016 0.000000
O O18 0.087487 0.000000 0.500000
O O19 0.000000 0.000000 0.653713
#
# Coordination Sequence:
#
# PCOD9494058 Si02
#       7
#    16  16   8  16  16  16   8
#     4  12  24  40  62  92 128 163 209 263 312 374
#     4  11  24  45  68  87 117 169 219 259 315 385
#     4  11  24  40  61  87 123 168 211 258 314 375
#     4  12  25  38  63  96 127 160 207 269 316 374
#     4   9  18  35  62  91 123 165 209 252 306 371
#     4   9  18  36  63  93 127 166 206 252 312 380
#     4  11  24  42  61  88 126 163 203 258 319 380
#
# _framework density 18.579601
#
# number of rings (size 3 to 8) (size 9 to 14) (size 15 to 20)
#    0.000    1.333    2.500    4.500    2.333    5.333 
#    0.000    2.500    0.000    5.000    0.000    0.000 
#    0.000    0.000    0.000    0.000    0.000    0.000 
#
# Total GULP energy -268252.598599 kJ/mol
# GULP energy per Si atom -5588.595804 kJ/mol
# Density = 1.853731 g / cm^3
# Si number density = 18.579601 Si / 1000 Ang^3
#
#
#
# Elastic Constant Matrix: (Units=GPa)
#
#
# Indices 1 2 3 4 5 6 
#
# 1 111.4959 61.7999 41.3814 0.0000 0.0000 0.0000
# 2 61.7999 158.9448 66.0301 0.0000 0.0000 0.0000
# 3 41.3814 66.0301 111.6315 0.0000 0.0000 0.0000
# 4 0.0000 0.0000 0.0000 -8.6823 0.0000 0.0000
# 5 0.0000 0.0000 0.0000 0.0000 -30.2426 0.0000
# 6 0.0000 0.0000 0.0000 0.0000 0.0000 42.8828
#
#
#
# Elastic Compliance Matrix: (Units=1/GPa)
#
#
# Indices 1 2 3 4 5 6 
#
# 1 0.011829 -0.003683 -0.002207 0.000000 0.000000 0.000000
# 2 -0.003683 0.009488 -0.004247 0.000000 0.000000 0.000000
# 3 -0.002207 -0.004247 0.012288 0.000000 0.000000 0.000000
# 4 0.000000 0.000000 0.000000 -0.115177 0.000000 0.000000
# 5 0.000000 0.000000 0.000000 0.000000 -0.033066 0.000000
# 6 0.000000 0.000000 0.000000 0.000000 0.000000 0.023319
#
#
# Mechanical properties :
#
#
# Convention : Reuss Voigt Hill
#
# Bulk Modulus (GPa) = 75.00463 80.05499 77.52981
# Shear Modulus (GPa) = -75.07288 14.98230 -30.04529
#
# Velocity S-wave (km/s) = -6.36347 2.84277 -4.02570
# Velocity P-wave (km/s) = 3.67896 7.34549 4.49564
#
# Compressibility (1/GPa) = 0.01333251
#
# Stress axis : x y z
#
# Youngs Moduli (GPa) = 84.53696 105.40116 81.37977
#
# Poissons Ratio (x) = 0.38815 0.17959
# Poissons Ratio (y) = 0.31131 0.34560
# Poissons Ratio (z) = 0.18655 0.44762
#
# Static dielectric constant tensor:
#      x y z
#    x 1.587690 0.000000 0.000000 
#    y 0.000000 1.609800 0.000000 
#    z 0.000000 0.000000 1.666400 
# 
# From -- ./inp_files/40426.got.cif
#   From: 2010.05.17/outbox.cif.g08.bks.cpg/sg65_21_cif.got.tgz:40426.got - 2010.06.03 17:01:31.
