data_PCOD9494015
_publ_section_title
;
Structure prediction by ZEFSAII (Michael W. Deem and Ramdas Pophale) SiO2 
 PCOD9494015
Probable space group: C M M M
;
_chemical_formula_sum "Si O2"
_cell_formula_units_Z 96
_cell_length_a 15.829634
_cell_length_b 23.398283
_cell_length_c 13.678927
_cell_angle_alpha 90.000000
_cell_angle_beta 90.000000
_cell_angle_gamma 90.000000
_cell_volume 5066.486559
_symmetry_space_group_name_H-M "C M M M"
_symmetry_group_IT_number 65
_symmetry_cell_setting 'orthorhombic'
loop_
_space_group_symop_operation_xyz
x,y,z
-x,-y,z
x,-y,-z
-x,y,-z
-x,-y,-z
x,y,-z
-x,y,z
x,-y,z
1/2+x,1/2+y,z
1/2-x,1/2-y,z
1/2+x,1/2-y,-z
1/2-x,1/2+y,-z
1/2-x,1/2-y,-z
1/2+x,1/2+y,-z
1/2-x,1/2+y,z
1/2+x,1/2-y,z
loop_
_atom_site_type_symbol
_atom_site_label
_atom_site_fract_x
_atom_site_fract_y
_atom_site_fract_z
Si Si1 0.742673 0.437211 0.884269
Si Si2 0.093848 0.136159 0.204197
Si Si3 0.644048 0.434029 0.385990
Si Si4 0.647918 0.753701 0.883837
Si Si5 0.651581 0.934030 0.386234
Si Si6 0.095735 0.623015 0.197822
O O1 0.725046 0.500000 0.843550
O O2 0.669463 0.395338 0.850947
O O3 0.834002 0.416934 0.850602
O O4 0.742238 0.438823 0.000000
O O5 0.104061 0.112843 0.314679
O O6 0.108491 0.202491 0.179661
O O7 0.000000 0.120218 0.169826
O O8 0.623466 0.424828 0.500000
O O9 0.619666 0.500000 0.361952
O O10 0.746312 0.430233 0.376336
O O11 0.750000 0.750000 0.878059
O O12 0.617272 0.813432 0.838764
O O13 0.625689 0.749399 0.000000
O O14 0.631045 0.924345 0.500000
O O15 0.609141 0.889524 0.312865
O O16 0.627789 0.000000 0.362274
O O17 0.000000 0.609138 0.170610
#
# Coordination Sequence:
#
# PCOD9494015 Si02
#       6
#    16  16  16  16  16  16
#     4  11  24  41  60  86 123 163 205 254 310 374
#     4  12  24  39  63  93 125 161 206 259 311 367
#     4   9  18  36  63  92 125 166 208 251 304 368
#     4  11  23  43  68  88 116 165 216 262 312 366
#     4   9  18  36  63  92 125 166 208 251 304 368
#     4  12  24  39  63  93 125 161 206 259 311 367
#
# _framework density 18.948042000000001
#
# number of rings (size 3 to 8) (size 9 to 14) (size 15 to 20)
#    0.000    1.333    3.333    3.500    0.000    6.667 
#    0.000    4.167    0.000    5.000    0.000    0.000 
#    0.000    0.000    0.000    0.000    0.000    0.000 
#
# Total GULP energy -268082.702702 kJ/mol
# GULP energy per Si atom -5585.056306 kJ/mol
# Density = 1.890492 g / cm^3
# Si number density = 18.948042 Si / 1000 Ang^3
#
#
#
# Elastic Constant Matrix: (Units=GPa)
#
#
# Indices 1 2 3 4 5 6 
#
# 1 77.4638 -12.7760 15.6486 0.0000 0.0000 0.0000
# 2 -12.7760 49.8020 37.3506 0.0000 0.0000 0.0000
# 3 15.6486 37.3506 111.2805 0.0000 0.0000 0.0000
# 4 0.0000 0.0000 0.0000 51.8614 0.0000 0.0000
# 5 0.0000 0.0000 0.0000 0.0000 -8.0757 0.0000
# 6 0.0000 0.0000 0.0000 0.0000 0.0000 -327.5210
#
#
#
# Elastic Compliance Matrix: (Units=1/GPa)
#
#
# Indices 1 2 3 4 5 6 
#
# 1 0.015028 0.007270 -0.004554 0.000000 0.000000 0.000000
# 2 0.007270 0.030352 -0.011210 0.000000 0.000000 0.000000
# 3 -0.004554 -0.011210 0.013389 0.000000 0.000000 0.000000
# 4 0.000000 0.000000 0.000000 0.019282 0.000000 0.000000
# 5 0.000000 0.000000 0.000000 0.000000 -0.123828 0.000000
# 6 0.000000 0.000000 0.000000 0.000000 0.000000 -0.003053
#
#
# Mechanical properties :
#
#
# Convention : Reuss Voigt Hill
#
# Bulk Modulus (GPa) = 23.93308 35.44363 29.68836
# Shear Modulus (GPa) = -279.06594 -43.52550 -161.29572
#
# Velocity S-wave (km/s) = -12.14905 -4.79800 -9.23635
# Velocity P-wave (km/s) = 13.56985 3.45661 9.90174
#
# Compressibility (1/GPa) = 0.04178318
#
# Stress axis : x y z
#
# Youngs Moduli (GPa) = 66.54148 32.94708 74.68755
#
# Poissons Ratio (x) = -0.23954 0.34009
# Poissons Ratio (y) = -0.48378 0.83723
# Poissons Ratio (z) = 0.30300 0.36933
#
# Static dielectric constant tensor:
#      x y z
#    x 1.666720 0.000000 0.000000 
#    y 0.000000 1.640370 0.000000 
#    z 0.000000 0.000000 1.681430 
# 
# From -- ./inp_files/40343.got.cif
#   From: 2010.05.17/outbox.cif.g08.bks.cpg/sg65_21_cif.got.tgz:40343.got - 2010.06.03 17:01:31.
