data_PCOD9494391
_publ_section_title
;
Structure prediction by ZEFSAII (Michael W. Deem and Ramdas Pophale) SiO2 
 PCOD9494391
Probable space group: C M M M
;
_chemical_formula_sum "Si O2"
_cell_formula_units_Z 80
_cell_length_a 19.432392
_cell_length_b 27.814765
_cell_length_c 7.498118
_cell_angle_alpha 90.000000
_cell_angle_beta 90.000000
_cell_angle_gamma 90.000000
_cell_volume 4052.788392
_symmetry_space_group_name_H-M "C M M M"
_symmetry_group_IT_number 65
_symmetry_cell_setting 'orthorhombic'
loop_
_space_group_symop_operation_xyz
x,y,z
-x,-y,z
x,-y,-z
-x,y,-z
-x,-y,-z
x,y,-z
-x,y,z
x,-y,z
1/2+x,1/2+y,z
1/2-x,1/2-y,z
1/2+x,1/2-y,-z
1/2-x,1/2+y,-z
1/2-x,1/2-y,-z
1/2+x,1/2+y,-z
1/2-x,1/2+y,z
1/2+x,1/2-y,z
loop_
_atom_site_type_symbol
_atom_site_label
_atom_site_fract_x
_atom_site_fract_y
_atom_site_fract_z
Si Si1 0.785977 0.797595 0.210905
Si Si2 0.076041 0.444054 0.282593
Si Si3 0.215826 0.602969 0.715427
Si Si4 0.423997 0.653827 0.211820
Si Si5 0.644399 0.446506 0.715231
O O1 0.750000 0.750000 0.286048
O O2 0.736304 0.843357 0.231553
O O3 0.860101 0.814881 0.284941
O O4 0.796416 0.789233 0.000000
O O5 0.076328 0.442781 0.500000
O O6 0.083982 0.500000 0.232619
O O7 0.141587 0.414199 0.220060
O O8 0.000000 0.427645 0.224967
O O9 0.215108 0.601000 0.500000
O O10 0.278561 0.568525 0.774464
O O11 0.500000 0.663558 0.285401
O O12 0.404445 0.597678 0.233766
O O13 0.426333 0.662657 0.000000
O O14 0.644888 0.447692 0.500000
O O15 0.625924 0.500000 0.778323
#
# Coordination Sequence:
#
# PCOD9494391 Si02
#       5
#    16  16  16  16  16
#     4   9  18  33  50  65  83 110 144 180 219 262
#     4   8  13  22  39  64  92 120 147 174 207 250
#     4   9  16  27  45  67  89 113 145 183 216 250
#     4   9  18  32  48  65  86 113 145 179 213 252
#     4   9  17  28  43  65  92 120 147 175 210 252
#
# _framework density 19.739497
#
# number of rings (size 3 to 8) (size 9 to 14) (size 15 to 20)
#    0.000    3.200    0.000    1.200    0.000    4.000 
#    0.000    3.000    0.000    3.600    0.000    1.400 
#    0.000    0.000    0.000    0.000    0.000    0.000 
#
# Total GULP energy -222983.469303 kJ/mol
# GULP energy per Si atom -5574.586733 kJ/mol
# Density = 1.969457 g / cm^3
# Si number density = 19.739497 Si / 1000 Ang^3
#
#
#
# Elastic Constant Matrix: (Units=GPa)
#
#
# Indices 1 2 3 4 5 6 
#
# 1 188.6911 85.3665 5.9602 0.0000 0.0000 0.0000
# 2 85.3665 113.4019 1.7937 0.0000 0.0000 0.0000
# 3 5.9602 1.7937 53.1300 0.0000 0.0000 0.0000
# 4 0.0000 0.0000 0.0000 12.7024 0.0000 0.0000
# 5 0.0000 0.0000 0.0000 0.0000 5.4043 0.0000
# 6 0.0000 0.0000 0.0000 0.0000 0.0000 6.6881
#
#
#
# Elastic Compliance Matrix: (Units=1/GPa)
#
#
# Indices 1 2 3 4 5 6 
#
# 1 0.008063 -0.006058 -0.000700 0.000000 0.000000 0.000000
# 2 -0.006058 0.013375 0.000228 0.000000 0.000000 0.000000
# 3 -0.000700 0.000228 0.018893 0.000000 0.000000 0.000000
# 4 0.000000 0.000000 0.000000 0.078725 0.000000 0.000000
# 5 0.000000 0.000000 0.000000 0.000000 0.185039 0.000000
# 6 0.000000 0.000000 0.000000 0.000000 0.000000 0.149520
#
#
# Mechanical properties :
#
#
# Convention : Reuss Voigt Hill
#
# Bulk Modulus (GPa) = 36.67035 60.16267 48.41651
# Shear Modulus (GPa) = 10.50938 22.43246 16.47092
#
# Velocity S-wave (km/s) = 2.30989 3.37475 2.89176
# Velocity P-wave (km/s) = 5.07263 6.76238 5.97751
#
# Compressibility (1/GPa) = 0.02726998
#
# Stress axis : x y z
#
# Youngs Moduli (GPa) = 124.02894 74.76557 52.93088
#
# Poissons Ratio (x) = 0.45295 0.03705
# Poissons Ratio (y) = 0.75140 -0.01207
# Poissons Ratio (z) = 0.08681 -0.01705
#
# Static dielectric constant tensor:
#      x y z
#    x 1.714540 0.000000 0.000000 
#    y 0.000000 1.657460 0.000000 
#    z 0.000000 0.000000 1.770640 
# 
# From -- ./inp_files/9622.got.cif
#   From: 2010.05.17/outbox.cif.g08.bks.cpg/sg65_5_cif.got.tgz:9622.got - 2010.06.03 17:01:31.
