data_PCOD9494336
_publ_section_title
;
Structure prediction by ZEFSAII (Michael W. Deem and Ramdas Pophale) SiO2 
 PCOD9494336
Probable space group: C M M M
;
_chemical_formula_sum "Si O2"
_cell_formula_units_Z 72
_cell_length_a 7.449075
_cell_length_b 32.363653
_cell_length_c 14.823541
_cell_angle_alpha 90.000000
_cell_angle_beta 90.000000
_cell_angle_gamma 90.000000
_cell_volume 3573.648569
_symmetry_space_group_name_H-M "C M M M"
_symmetry_group_IT_number 65
_symmetry_cell_setting 'orthorhombic'
loop_
_space_group_symop_operation_xyz
x,y,z
-x,-y,z
x,-y,-z
-x,y,-z
-x,-y,-z
x,y,-z
-x,y,z
x,-y,z
1/2+x,1/2+y,z
1/2-x,1/2-y,z
1/2+x,1/2-y,-z
1/2-x,1/2+y,-z
1/2-x,1/2-y,-z
1/2+x,1/2+y,-z
1/2-x,1/2+y,z
1/2+x,1/2-y,z
loop_
_atom_site_type_symbol
_atom_site_label
_atom_site_fract_x
_atom_site_fract_y
_atom_site_fract_z
Si Si1 0.720612 0.874335 0.782319
Si Si2 0.710163 0.909008 0.601780
Si Si3 0.218279 0.545669 0.105339
Si Si4 0.285354 0.796740 0.897324
Si Si5 0.285963 0.500000 0.604507
O O1 0.500000 0.874481 0.781543
O O2 0.783004 0.879410 0.679272
O O3 0.777917 0.914928 0.837967
O O4 0.780584 0.832900 0.832379
O O5 0.788017 0.907783 0.500000
O O6 0.500000 0.899998 0.592974
O O7 0.723431 0.955923 0.640043
O O8 0.277145 0.500000 0.137412
O O9 0.000000 0.545654 0.107845
O O10 0.268894 0.549857 0.000000
O O11 0.500000 0.801540 0.902197
O O12 0.250000 0.750000 0.866388
O O13 0.215470 0.800850 0.000000
O O14 0.500000 0.500000 0.606163
O O15 0.222897 0.500000 0.500000
#
# Coordination Sequence:
#
# PCOD9494336 Si02
#       5
#    16  16  16  16   8
#     4   9  16  25  41  63  87 114 143 178 219 260
#     4   9  17  28  43  64  88 114 146 184 222 258
#     4   8  13  20  31  52  83 113 138 167 206 251
#     4   9  17  30  48  69  91 113 141 180 224 267
#     4   9  17  29  43  59  84 119 154 186 219 253
#
# _framework density 20.147476999999999
#
# number of rings (size 3 to 8) (size 9 to 14) (size 15 to 20)
#    0.000    3.222    0.000    1.667    1.556    4.000 
#    0.000    1.111    0.000    0.667    0.000    0.000 
#    0.000    1.778    0.000    0.000    0.000    0.000 
#
# Total GULP energy -200767.873945 kJ/mol
# GULP energy per Si atom -5576.885387 kJ/mol
# Density = 2.010162 g / cm^3
# Si number density = 20.147477 Si / 1000 Ang^3
#
#
#
# Elastic Constant Matrix: (Units=GPa)
#
#
# Indices 1 2 3 4 5 6 
#
# 1 61.7128 1.0403 5.1924 0.0000 0.0000 0.0000
# 2 1.0403 169.4516 110.4106 0.0000 0.0000 0.0000
# 3 5.1924 110.4106 120.5408 0.0000 0.0000 0.0000
# 4 0.0000 0.0000 0.0000 30.7928 0.0000 0.0000
# 5 0.0000 0.0000 0.0000 0.0000 -6.2042 0.0000
# 6 0.0000 0.0000 0.0000 0.0000 0.0000 3.8161
#
#
#
# Elastic Compliance Matrix: (Units=1/GPa)
#
#
# Indices 1 2 3 4 5 6 
#
# 1 0.016317 0.000887 -0.001516 0.000000 0.000000 0.000000
# 2 0.000887 0.014685 -0.013489 0.000000 0.000000 0.000000
# 3 -0.001516 -0.013489 0.020717 0.000000 0.000000 0.000000
# 4 0.000000 0.000000 0.000000 0.032475 0.000000 0.000000
# 5 0.000000 0.000000 0.000000 0.000000 -0.161180 0.000000
# 6 0.000000 0.000000 0.000000 0.000000 0.000000 0.262049
#
#
# Mechanical properties :
#
#
# Convention : Reuss Voigt Hill
#
# Bulk Modulus (GPa) = 42.58286 64.99908 53.79097
# Shear Modulus (GPa) = 22.61159 21.35174 21.98166
#
# Velocity S-wave (km/s) = 3.35371 3.25895 3.30667
# Velocity P-wave (km/s) = 6.01482 6.81855 6.42926
#
# Compressibility (1/GPa) = 0.02348363
#
# Stress axis : x y z
#
# Youngs Moduli (GPa) = 61.28707 68.09534 48.26965
#
# Poissons Ratio (x) = -0.06043 0.07316
# Poissons Ratio (y) = -0.05439 0.65113
# Poissons Ratio (z) = 0.09289 0.91856
#
# Static dielectric constant tensor:
#      x y z
#    x 1.785340 0.000000 0.000000 
#    y 0.000000 1.693930 0.000000 
#    z 0.000000 0.000000 1.746040 
# 
# From -- ./inp_files/36985.got.cif
#   From: 2010.05.17/outbox.cif.g08.bks.cpg/sg65_19_cif.got.tgz:36985.got - 2010.06.03 17:01:31.
