data_PCOD9494380
_publ_section_title
;
Structure prediction by ZEFSAII (Michael W. Deem and Ramdas Pophale) SiO2 
 PCOD9494380
Probable space group: C M M M
;
_chemical_formula_sum "Si O2"
_cell_formula_units_Z 72
_cell_length_a 28.024837
_cell_length_b 7.503393
_cell_length_c 14.164504
_cell_angle_alpha 90.000000
_cell_angle_beta 90.000000
_cell_angle_gamma 90.000000
_cell_volume 2978.531247
_symmetry_space_group_name_H-M "C M M M"
_symmetry_group_IT_number 65
_symmetry_cell_setting 'orthorhombic'
loop_
_space_group_symop_operation_xyz
x,y,z
-x,-y,z
x,-y,-z
-x,y,-z
-x,-y,-z
x,y,-z
-x,y,z
x,-y,z
1/2+x,1/2+y,z
1/2-x,1/2-y,z
1/2+x,1/2-y,-z
1/2-x,1/2+y,-z
1/2-x,1/2-y,-z
1/2+x,1/2+y,-z
1/2-x,1/2+y,z
1/2+x,1/2-y,z
loop_
_atom_site_type_symbol
_atom_site_label
_atom_site_fract_x
_atom_site_fract_y
_atom_site_fract_z
Si Si1 0.945133 0.789458 0.000000
Si Si2 0.305346 0.213137 0.692167
Si Si3 0.601392 0.217923 0.398046
Si Si4 0.053922 0.287342 0.795498
Si Si5 0.307101 0.213806 0.899154
O O1 0.922767 0.739840 0.898777
O O2 0.000000 0.712843 0.000000
O O3 0.948517 0.000000 0.000000
O O4 0.250000 0.250000 0.674273
O O5 0.343308 0.270912 0.614910
O O6 0.321229 0.282754 0.795878
O O7 0.309317 0.000000 0.698192
O O8 0.582654 0.277337 0.500000
O O9 0.576372 0.279836 0.301782
O O10 0.598701 0.000000 0.398401
O O11 0.052062 0.500000 0.785165
O O12 0.000000 0.216296 0.802737
O O13 0.250000 0.250000 0.899750
O O14 0.314518 0.000000 0.899751
O O15 0.325307 0.285139 0.000000
#
# Coordination Sequence:
#
# PCOD9494380 Si02
#       5
#     8  16  16  16  16
#     4   9  17  31  53  79 108 139 166 201 254 311
#     4   9  17  30  47  67  92 127 168 209 254 301
#     4   9  18  32  49  73 104 135 171 216 261 303
#     4   9  17  31  53  80 106 134 171 211 251 301
#     4   8  13  22  37  57  80 107 143 186 232 282
#
# _framework density 24.172986999999999
#
# number of rings (size 3 to 8) (size 9 to 14) (size 15 to 20)
#    0.000    3.222    0.000    0.333    0.000    2.222 
#    2.000    3.333    0.000    2.000    0.000    3.111 
#    0.000    0.000    0.000    0.000    0.000    0.000 
#
# Total GULP energy -200764.447902 kJ/mol
# GULP energy per Si atom -5576.790220 kJ/mol
# Density = 2.411797 g / cm^3
# Si number density = 24.172987 Si / 1000 Ang^3
#
#
#
# Elastic Constant Matrix: (Units=GPa)
#
#
# Indices 1 2 3 4 5 6 
#
# 1 59.8300 -4.7253 66.1287 0.0000 0.0000 0.0000
# 2 -4.7253 72.2950 5.7001 0.0000 0.0000 0.0000
# 3 66.1287 5.7001 237.4094 0.0000 0.0000 0.0000
# 4 0.0000 0.0000 0.0000 -20.7535 0.0000 0.0000
# 5 0.0000 0.0000 0.0000 0.0000 28.9316 0.0000
# 6 0.0000 0.0000 0.0000 0.0000 0.0000 7.5327
#
#
#
# Elastic Compliance Matrix: (Units=1/GPa)
#
#
# Indices 1 2 3 4 5 6 
#
# 1 0.024475 0.002141 -0.006869 0.000000 0.000000 0.000000
# 2 0.002141 0.014046 -0.000934 0.000000 0.000000 0.000000
# 3 -0.006869 -0.000934 0.006148 0.000000 0.000000 0.000000
# 4 0.000000 0.000000 0.000000 -0.048185 0.000000 0.000000
# 5 0.000000 0.000000 0.000000 0.000000 0.034564 0.000000
# 6 0.000000 0.000000 0.000000 0.000000 0.000000 0.132755
#
#
# Mechanical properties :
#
#
# Convention : Reuss Voigt Hill
#
# Bulk Modulus (GPa) = 29.98835 55.97127 42.97981
# Shear Modulus (GPa) = 26.84702 23.30423 25.07563
#
# Velocity S-wave (km/s) = 3.33621 3.10830 3.22427
# Velocity P-wave (km/s) = 5.22236 6.00723 5.62849
#
# Compressibility (1/GPa) = 0.03334628
#
# Stress axis : x y z
#
# Youngs Moduli (GPa) = 40.85809 71.19577 162.66025
#
# Poissons Ratio (x) = -0.15245 1.11727
# Poissons Ratio (y) = -0.08749 0.15187
# Poissons Ratio (z) = 0.28064 0.06647
#
# Static dielectric constant tensor:
#      x y z
#    x 1.995220 0.000000 0.000000 
#    y 0.000000 1.899820 0.000000 
#    z 0.000000 0.000000 1.964620 
# 
# From -- ./inp_files/46513.got.cif
#   From: 2010.05.17/outbox.cif.g08.bks.cpg/sg65_24_cif.got.tgz:46513.got - 2010.06.03 17:01:31.
