data_PCOD9494732
_publ_section_title
;
Structure prediction by ZEFSAII (Michael W. Deem and Ramdas Pophale) SiO2 
 PCOD9494732
Probable space group: C M M M
;
_chemical_formula_sum "Si O2"
_cell_formula_units_Z 52
_cell_length_a 9.000000
_cell_length_b 27.000000
_cell_length_c 27.000000
_cell_angle_alpha 90.000000
_cell_angle_beta 90.000000
_cell_angle_gamma 90.000000
_cell_volume 6561.000000
_symmetry_space_group_name_H-M "C M M M"
_symmetry_group_IT_number 65
_symmetry_cell_setting 'orthorhombic'
loop_
_space_group_symop_operation_xyz
x,y,z
-x,-y,z
x,-y,-z
-x,y,-z
-x,-y,-z
x,y,-z
-x,y,z
x,-y,z
1/2+x,1/2+y,z
1/2-x,1/2-y,z
1/2+x,1/2-y,-z
1/2-x,1/2+y,-z
1/2-x,1/2-y,-z
1/2+x,1/2+y,-z
1/2-x,1/2+y,z
1/2+x,1/2-y,z
loop_
_atom_site_type_symbol
_atom_site_label
_atom_site_fract_x
_atom_site_fract_y
_atom_site_fract_z
Si Si1 0.671585 0.060271 0.151986
Si Si2 0.826124 0.939854 0.053639
Si Si3 0.822667 0.304133 0.500000
Si Si4 0.177921 0.942718 0.250087
Si Si5 0.177167 0.107402 0.350863
Si Si6 0.671648 0.059637 0.555553
Si Si7 0.323216 0.803383 0.392239
O O1 0.500000 0.071724 0.155776
O O2 0.738644 0.078877 0.100758
O O3 0.756428 0.079093 0.200061
O O4 0.687575 0.000000 0.151211
O O5 0.000000 0.927968 0.058031
O O6 0.816835 0.000000 0.053619
O O7 0.770536 0.922946 0.000000
O O8 0.750000 0.250000 0.500000
O O9 0.783889 0.325882 0.446766
O O10 0.000000 0.298458 0.500000
O O11 0.227322 0.918200 0.300608
O O12 0.000000 0.940622 0.247513
O O13 0.222455 0.000000 0.252534
O O14 0.232234 0.077542 0.398683
O O15 0.250892 0.160824 0.353149
O O16 0.000000 0.110652 0.351753
O O17 0.720934 0.074229 0.500000
O O18 0.500000 0.076823 0.561487
O O19 0.669570 0.000000 0.556215
O O20 0.500000 0.800236 0.388061
O O21 0.250000 0.750000 0.389785
#
# Coordination Sequence:
#
# PCOD9494732 Si02
#       7
#    16  16   8  16  16  16  16
#     4   9  16  24  36  55  77 102 136 179 221 254
#     4   8  13  21  33  49  71 102 138 172 209 254
#     4   8  16  30  48  66  83 104 127 154 192 241
#     4   9  18  32  46  59  81 113 147 182 217 255
#     4  11  22  33  48  70  90 112 143 178 217 261
#     4   9  19  35  51  66  87 115 144 175 214 259
#     4  10  20  35  52  70  91 114 138 169 209 258
#
# _framework density 7.9256209999999996
#
# number of rings (size 3 to 8) (size 9 to 14) (size 15 to 20)
#    0.000    2.769    0.000    2.769    1.077    5.231 
#    0.000    3.846    0.000    0.000    0.000    0.000 
#    0.000    0.000    0.000    0.000    0.000    0.769 
#
# Total GULP energy -289480.066869 kJ/mol
# GULP energy per Si atom -5566.924363 kJ/mol
# Density = 0.790758 g / cm^3
# Si number density = 7.925621 Si / 1000 Ang^3
#
#
#
# Elastic Constant Matrix: (Units=GPa)
#
#
# Indices 1 2 3 4 5 6 
#
# 1 14.6766 23.9847 50.0758 0.0000 0.0000 0.0000
# 2 23.9847 39.1274 45.2699 0.0000 0.0000 0.0000
# 3 50.0758 45.2699 139.0944 0.0000 0.0000 0.0000
# 4 0.0000 0.0000 0.0000 11.0036 0.0000 0.0000
# 5 0.0000 0.0000 0.0000 0.0000 37.2316 0.0000
# 6 0.0000 0.0000 0.0000 0.0000 0.0000 14.5024
#
#
#
# Elastic Compliance Matrix: (Units=1/GPa)
#
#
# Indices 1 2 3 4 5 6 
#
# 1 -0.173201 0.054579 0.044591 0.000000 0.000000 0.000000
# 2 0.054579 0.023795 -0.027393 0.000000 0.000000 0.000000
# 3 0.044591 -0.027393 0.000051 0.000000 0.000000 0.000000
# 4 0.000000 0.000000 0.000000 0.090879 0.000000 0.000000
# 5 0.000000 0.000000 0.000000 0.000000 0.026859 0.000000
# 6 0.000000 0.000000 0.000000 0.000000 0.000000 0.068954
#
#
# Mechanical properties :
#
#
# Convention : Reuss Voigt Hill
#
# Bulk Modulus (GPa) = -172.37572 47.95103 -62.21235
# Shear Modulus (GPa) = -46.23274 17.45206 -14.39034
#
# Velocity S-wave (km/s) = -5.40647 3.32172 -3.01630
# Velocity P-wave (km/s) = 12.16368 6.71029 7.17381
#
# Compressibility (1/GPa) = -0.00580128
#
# Stress axis : x y z
#
# Youngs Moduli (GPa) = -5.77364 42.02489 19446.72045
#
# Poissons Ratio (x) = -2.29366 -867.15606
# Poissons Ratio (y) = 0.31512 532.71362
# Poissons Ratio (z) = 0.25745 1.15121
#
# Static dielectric constant tensor:
#      x y z
#    x 1.574130 0.000000 0.000000 
#    y 0.000000 1.775210 0.000000 
#    z 0.000000 0.000000 1.557840 
# 
# From -- ./inp_files/73756.got.cif
#   From: 2010.05.17/outbox.ucp.g08.bks.cvg/sg65_37_cif.got.tgz:73756.got - 2010.06.11 16:39:57.
