data_PCOD9494711
_publ_section_title
;
Structure prediction by ZEFSAII (Michael W. Deem and Ramdas Pophale) SiO2 
 PCOD9494711
Probable space group: C M M M
;
_chemical_formula_sum "Si O2"
_cell_formula_units_Z 48
_cell_length_a 24.000000
_cell_length_b 24.000000
_cell_length_c 9.000000
_cell_angle_alpha 90.000000
_cell_angle_beta 90.000000
_cell_angle_gamma 90.000000
_cell_volume 5184.000000
_symmetry_space_group_name_H-M "C M M M"
_symmetry_group_IT_number 65
_symmetry_cell_setting 'orthorhombic'
loop_
_space_group_symop_operation_xyz
x,y,z
-x,-y,z
x,-y,-z
-x,y,-z
-x,-y,-z
x,y,-z
-x,y,z
x,-y,z
1/2+x,1/2+y,z
1/2-x,1/2-y,z
1/2+x,1/2-y,-z
1/2-x,1/2+y,-z
1/2-x,1/2-y,-z
1/2+x,1/2+y,-z
1/2-x,1/2+y,z
1/2+x,1/2-y,z
loop_
_atom_site_type_symbol
_atom_site_label
_atom_site_fract_x
_atom_site_fract_y
_atom_site_fract_z
Si Si1 0.754966 0.937845 0.179470
Si Si2 0.148866 0.373857 0.176545
Si Si3 0.843550 0.857102 0.322831
Si Si4 0.683494 0.754209 0.173568
Si Si5 0.063341 0.060742 0.680632
Si Si6 0.066089 0.560872 0.668661
O O1 0.692319 0.921436 0.222629
O O2 0.793510 0.891173 0.249470
O O3 0.769384 0.000000 0.229149
O O4 0.759464 0.935614 0.000000
O O5 0.167003 0.314202 0.234027
O O6 0.089114 0.390953 0.231035
O O7 0.151634 0.370912 0.000000
O O8 0.839189 0.860038 0.500000
O O9 0.842614 0.794699 0.267503
O O10 0.898542 0.889220 0.270953
O O11 0.750000 0.750000 0.179273
O O12 0.667410 0.748661 0.000000
O O13 0.062782 0.060800 0.500000
O O14 0.000000 0.065767 0.730704
O O15 0.085343 0.000000 0.727259
O O16 0.087000 0.566557 0.500000
O O17 0.082766 0.500000 0.727096
O O18 0.000000 0.561878 0.663083
#
# Coordination Sequence:
#
# PCOD9494711 Si02
#       6
#    16  16  16  16  16  16
#     4  10  20  34  52  75 106 141 173 211 266 324
#     4  10  20  35  56  78 100 135 183 224 256 305
#     4  11  21  32  52  81 108 133 173 223 266 312
#     4  10  20  38  57  71 100 145 182 214 259 313
#     4   8  15  30  51  74 103 138 171 206 254 309
#     4   9  19  36  56  79 110 144 172 208 267 325
#
# _framework density 9.2592590000000001
#
# number of rings (size 3 to 8) (size 9 to 14) (size 15 to 20)
#    0.000    2.333    1.667    2.500    0.000    4.000 
#    0.000    1.667    0.000    5.000    0.000    5.833 
#    0.000    0.000    0.000    0.000    0.000    0.000 
#
# Total GULP energy -267315.266908 kJ/mol
# GULP energy per Si atom -5569.068061 kJ/mol
# Density = 0.923818 g / cm^3
# Si number density = 9.259259 Si / 1000 Ang^3
#
#
#
# Elastic Constant Matrix: (Units=GPa)
#
#
# Indices 1 2 3 4 5 6 
#
# 1 48.0792 39.4320 12.0220 0.0000 0.0000 0.0000
# 2 39.4320 86.6135 20.1519 0.0000 0.0000 0.0000
# 3 12.0220 20.1519 -8.0967 0.0000 0.0000 0.0000
# 4 0.0000 0.0000 0.0000 21.5932 0.0000 0.0000
# 5 0.0000 0.0000 0.0000 0.0000 18.7937 0.0000
# 6 0.0000 0.0000 0.0000 0.0000 0.0000 36.6967
#
#
#
# Elastic Compliance Matrix: (Units=1/GPa)
#
#
# Indices 1 2 3 4 5 6 
#
# 1 0.032508 -0.016484 0.007240 0.000000 0.000000 0.000000
# 2 -0.016484 0.015670 0.014526 0.000000 0.000000 0.000000
# 3 0.007240 0.014526 -0.076602 0.000000 0.000000 0.000000
# 4 0.000000 0.000000 0.000000 0.046311 0.000000 0.000000
# 5 0.000000 0.000000 0.000000 0.000000 0.053209 0.000000
# 6 0.000000 0.000000 0.000000 0.000000 0.000000 0.027250
#
#
# Mechanical properties :
#
#
# Convention : Reuss Voigt Hill
#
# Bulk Modulus (GPa) = -55.99493 29.97865 -13.00814
# Shear Modulus (GPa) = 61.10246 19.08273 40.09259
#
# Velocity S-wave (km/s) = 5.75039 3.21357 4.65800
# Velocity P-wave (km/s) = 3.71300 5.47659 4.67864
#
# Compressibility (1/GPa) = -0.01785876
#
# Stress axis : x y z
#
# Youngs Moduli (GPa) = 30.76151 63.81424 -13.05450
#
# Poissons Ratio (x) = 1.05193 0.09452
# Poissons Ratio (y) = 0.50708 0.18963
# Poissons Ratio (z) = -0.22272 -0.92699
#
# Static dielectric constant tensor:
#      x y z
#    x 1.671410 0.000000 0.000000 
#    y 0.000000 1.597350 0.000000 
#    z 0.000000 0.000000 1.625370 
# 
# From -- ./inp_files/14315.got.cif
#   From: 2010.05.17/outbox.ucp.g08.bks.cvg/sg65_8_cif.got.tgz:14315.got - 2010.06.11 16:39:57.
