data_PCOD9494822
_publ_section_title
;
Structure prediction by ZEFSAII (Michael W. Deem and Ramdas Pophale) SiO2 
 PCOD9494822
Probable space group: C M M M
;
_chemical_formula_sum "Si O2"
_cell_formula_units_Z 52
_cell_length_a 9.000000
_cell_length_b 27.000000
_cell_length_c 21.000000
_cell_angle_alpha 90.000000
_cell_angle_beta 90.000000
_cell_angle_gamma 90.000000
_cell_volume 5103.000000
_symmetry_space_group_name_H-M "C M M M"
_symmetry_group_IT_number 65
_symmetry_cell_setting 'orthorhombic'
loop_
_space_group_symop_operation_xyz
x,y,z
-x,-y,z
x,-y,-z
-x,y,-z
-x,-y,-z
x,y,-z
-x,y,z
x,-y,z
1/2+x,1/2+y,z
1/2-x,1/2-y,z
1/2+x,1/2-y,-z
1/2-x,1/2+y,-z
1/2-x,1/2-y,-z
1/2+x,1/2+y,-z
1/2-x,1/2+y,z
1/2+x,1/2-y,z
loop_
_atom_site_type_symbol
_atom_site_label
_atom_site_fract_x
_atom_site_fract_y
_atom_site_fract_z
Si Si1 0.676866 0.803302 0.000000
Si Si2 0.823189 0.055897 0.698369
Si Si3 0.676636 0.800904 0.387197
Si Si4 0.177215 0.654794 0.251145
Si Si5 0.177488 0.410801 0.428025
Si Si6 0.828090 0.558173 0.076174
Si Si7 0.174640 0.851287 0.122447
O O1 0.750000 0.750000 0.000000
O O2 0.736974 0.829585 0.937093
O O3 0.500000 0.801795 0.000000
O O4 0.732214 0.099172 0.732955
O O5 0.771879 0.061108 0.624874
O O6 0.000000 0.064876 0.704301
O O7 0.791078 0.000000 0.720540
O O8 0.500000 0.795297 0.392426
O O9 0.750000 0.750000 0.408880
O O10 0.713720 0.812343 0.313101
O O11 0.715477 0.852151 0.422604
O O12 0.262129 0.670448 0.187751
O O13 0.000000 0.655324 0.242098
O O14 0.201343 0.427872 0.500000
O O15 0.000000 0.415088 0.413363
O O16 0.813912 0.500000 0.088869
O O17 0.716009 0.590663 0.117053
O O18 0.000000 0.572848 0.089023
O O19 0.803205 0.565077 0.000000
O O20 0.000000 0.843154 0.116543
#
# Coordination Sequence:
#
# PCOD9494822 Si02
#       7
#     8  16  16  16  16  16  16
#     4  12  26  46  67  88 117 152 194 241 291 349
#     4  10  21  37  57  84 118 152 191 242 293 339
#     4   9  19  35  56  81 109 143 185 233 284 335
#     4  10  22  40  60  82 111 151 195 237 282 341
#     4   9  19  36  56  81 115 154 196 235 275 337
#     4   9  18  34  57  83 112 149 188 224 270 333
#     4  12  24  39  61  90 120 151 189 237 295 350
#
# _framework density 10.190084000000001
#
# number of rings (size 3 to 8) (size 9 to 14) (size 15 to 20)
#    0.000    2.000    0.769    4.385    0.000    6.769 
#    0.000    3.846    0.000    0.000    0.000    0.000 
#    0.000    0.000    0.000    0.000    0.000    0.000 
#
# Total GULP energy -290520.223460 kJ/mol
# GULP energy per Si atom -5586.927374 kJ/mol
# Density = 1.016689 g / cm^3
# Si number density = 10.190084 Si / 1000 Ang^3
#
#
#
# Elastic Constant Matrix: (Units=GPa)
#
#
# Indices 1 2 3 4 5 6 
#
# 1 80.6935 6.6173 22.2154 0.0000 0.0000 0.0000
# 2 6.6173 50.3579 -13.0868 0.0000 0.0000 0.0000
# 3 22.2154 -13.0868 65.7477 0.0000 0.0000 0.0000
# 4 0.0000 0.0000 0.0000 -1.6855 0.0000 0.0000
# 5 0.0000 0.0000 0.0000 0.0000 23.5917 0.0000
# 6 0.0000 0.0000 0.0000 0.0000 0.0000 33.2847
#
#
#
# Elastic Compliance Matrix: (Units=1/GPa)
#
#
# Indices 1 2 3 4 5 6 
#
# 1 0.014157 -0.003273 -0.005435 0.000000 0.000000 0.000000
# 2 -0.003273 0.021698 0.005425 0.000000 0.000000 0.000000
# 3 -0.005435 0.005425 0.018126 0.000000 0.000000 0.000000
# 4 0.000000 0.000000 0.000000 -0.593300 0.000000 0.000000
# 5 0.000000 0.000000 0.000000 0.000000 0.042388 0.000000
# 6 0.000000 0.000000 0.000000 0.000000 0.000000 0.030044
#
#
# Mechanical properties :
#
#
# Convention : Reuss Voigt Hill
#
# Bulk Modulus (GPa) = 21.09059 25.36565 23.22812
# Shear Modulus (GPa) = -11.24816 23.10840 5.93012
#
# Velocity S-wave (km/s) = -2.35184 3.37095 1.70765
# Velocity P-wave (km/s) = 1.73095 5.25588 3.91283
#
# Compressibility (1/GPa) = 0.04741452
#
# Stress axis : x y z
#
# Youngs Moduli (GPa) = 70.63515 46.08794 55.16985
#
# Poissons Ratio (x) = 0.15084 0.29985
# Poissons Ratio (y) = 0.23117 -0.29928
# Poissons Ratio (z) = 0.38390 -0.25001
#
# Static dielectric constant tensor:
#      x y z
#    x 1.675970 0.000000 0.000000 
#    y 0.000000 1.615790 0.000000 
#    z 0.000000 0.000000 1.788920 
# 
# From -- ./inp_files/60425.got.cif
#   From: 2010.05.17/outbox.ucp.g08.bks.cvg/sg65_31_cif.got.tgz:60425.got - 2010.06.11 16:39:57.
