data_PCOD9494217
_publ_section_title
;
Structure prediction by ZEFSAII (Michael W. Deem and Ramdas Pophale) SiO2 
 PCOD9494217
Probable space group: C M M M
;
_chemical_formula_sum "Si O2"
_cell_formula_units_Z 80
_cell_length_a 14.924954
_cell_length_b 7.266824
_cell_length_c 30.370413
_cell_angle_alpha 90.000000
_cell_angle_beta 90.000000
_cell_angle_gamma 90.000000
_cell_volume 3293.884306
_symmetry_space_group_name_H-M "C M M M"
_symmetry_group_IT_number 65
_symmetry_cell_setting 'orthorhombic'
loop_
_space_group_symop_operation_xyz
x,y,z
-x,-y,z
x,-y,-z
-x,y,-z
-x,-y,-z
x,y,-z
-x,y,z
x,-y,z
1/2+x,1/2+y,z
1/2-x,1/2-y,z
1/2+x,1/2-y,-z
1/2-x,1/2+y,-z
1/2-x,1/2-y,-z
1/2+x,1/2+y,-z
1/2-x,1/2+y,z
1/2+x,1/2-y,z
loop_
_atom_site_type_symbol
_atom_site_label
_atom_site_fract_x
_atom_site_fract_y
_atom_site_fract_z
Si Si1 0.607093 0.290689 0.906308
Si Si2 0.394998 0.725225 0.000000
Si Si3 0.642336 0.719337 0.715731
Si Si4 0.356005 0.719212 0.380163
Si Si5 0.855951 0.781306 0.810230
Si Si6 0.000000 0.224795 0.550318
O O1 0.500000 0.301756 0.911764
O O2 0.643311 0.500000 0.903384
O O3 0.619556 0.205347 0.858206
O O4 0.642363 0.212135 0.952673
O O5 0.391910 0.500000 0.000000
O O6 0.500000 0.221834 0.000000
O O7 0.626297 0.500000 0.716294
O O8 0.750000 0.750000 0.715291
O O9 0.612918 0.790092 0.667967
O O10 0.608231 0.789163 0.763109
O O11 0.368973 0.500000 0.378209
O O12 0.250000 0.750000 0.385403
O O13 0.414147 0.784658 0.421142
O O14 0.750000 0.750000 0.807617
O O15 0.877398 0.000000 0.811345
O O16 0.000000 0.286878 0.500000
O O17 0.000000 0.000000 0.548983
#
# Coordination Sequence:
#
# PCOD9494217 Si02
#       6
#    16   8  16  16  16   8
#     4   8  13  22  36  55  76  99 131 169 204 239
#     4   7  10  18  33  50  71  99 128 161 202 242
#     4   8  14  25  41  61  83 110 141 171 206 252
#     4   9  17  31  50  70  93 124 159 191 228 274
#     4   9  16  26  40  59  83 108 132 164 208 251
#     4   9  18  32  49  71  99 127 155 190 234 280
#
# _framework density 24.287434000000001
#
# number of rings (size 3 to 8) (size 9 to 14) (size 15 to 20)
#    0.000    3.600    0.000    1.200    0.000    0.400 
#    1.800    1.000    0.000    1.200    0.000    0.000 
#    0.000    2.400    0.000    0.000    0.000    0.000 
#
# Total GULP energy -222859.586082 kJ/mol
# GULP energy per Si atom -5571.489652 kJ/mol
# Density = 2.423216 g / cm^3
# Si number density = 24.287434 Si / 1000 Ang^3
#
#
#
# Elastic Constant Matrix: (Units=GPa)
#
#
# Indices 1 2 3 4 5 6 
#
# 1 73.1450 -8.1274 68.1486 0.0000 0.0000 0.0000
# 2 -8.1274 114.6414 19.7944 0.0000 0.0000 0.0000
# 3 68.1486 19.7944 367.2111 0.0000 0.0000 0.0000
# 4 0.0000 0.0000 0.0000 -5.2118 0.0000 0.0000
# 5 0.0000 0.0000 0.0000 0.0000 33.8042 0.0000
# 6 0.0000 0.0000 0.0000 0.0000 0.0000 -0.7766
#
#
#
# Elastic Compliance Matrix: (Units=1/GPa)
#
#
# Indices 1 2 3 4 5 6 
#
# 1 0.016872 0.001753 -0.003226 0.000000 0.000000 0.000000
# 2 0.001753 0.008987 -0.000810 0.000000 0.000000 0.000000
# 3 -0.003226 -0.000810 0.003365 0.000000 0.000000 0.000000
# 4 0.000000 0.000000 0.000000 -0.191874 0.000000 0.000000
# 5 0.000000 0.000000 0.000000 0.000000 0.029582 0.000000
# 6 0.000000 0.000000 0.000000 0.000000 0.000000 -1.287609
#
#
# Mechanical properties :
#
#
# Convention : Reuss Voigt Hill
#
# Bulk Modulus (GPa) = 40.55261 79.40320 59.97790
# Shear Modulus (GPa) = -3.55141 37.24196 16.84528
#
# Velocity S-wave (km/s) = -1.21054 3.92009 2.63645
# Velocity P-wave (km/s) = 3.84439 7.29751 5.83236
#
# Compressibility (1/GPa) = 0.02465933
#
# Stress axis : x y z
#
# Youngs Moduli (GPa) = 59.27146 111.27245 297.13279
#
# Poissons Ratio (x) = -0.19507 0.95843
# Poissons Ratio (y) = -0.10391 0.24061
# Poissons Ratio (z) = 0.19119 0.09011
#
# Static dielectric constant tensor:
#      x y z
#    x 1.898470 0.000000 0.000000 
#    y 0.000000 0.769460 0.000000 
#    z 0.000000 0.000000 2.001850 
# 
# From -- ./inp_files/74736.got.cif
#   From: 2010.05.17/outbox.cif.g08.bks.cpg/sg65_38_cif.got.tgz:74736.got - 2010.06.03 17:01:31.
