data_PCOD9494166
_publ_section_title
;
Structure prediction by ZEFSAII (Michael W. Deem and Ramdas Pophale) SiO2 
 PCOD9494166
Probable space group: C M M M
;
_chemical_formula_sum "Si O2"
_cell_formula_units_Z 72
_cell_length_a 9.581319
_cell_length_b 14.834040
_cell_length_c 24.045569
_cell_angle_alpha 90.000000
_cell_angle_beta 90.000000
_cell_angle_gamma 90.000000
_cell_volume 3417.588770
_symmetry_space_group_name_H-M "C M M M"
_symmetry_group_IT_number 65
_symmetry_cell_setting 'orthorhombic'
loop_
_space_group_symop_operation_xyz
x,y,z
-x,-y,z
x,-y,-z
-x,y,-z
-x,-y,-z
x,y,-z
-x,y,z
x,-y,z
1/2+x,1/2+y,z
1/2-x,1/2-y,z
1/2+x,1/2-y,-z
1/2-x,1/2+y,-z
1/2-x,1/2-y,-z
1/2+x,1/2+y,-z
1/2-x,1/2+y,z
1/2+x,1/2-y,z
loop_
_atom_site_type_symbol
_atom_site_label
_atom_site_fract_x
_atom_site_fract_y
_atom_site_fract_z
Si Si1 0.156439 0.106453 0.396224
Si Si2 0.340755 0.889451 0.832582
Si Si3 0.333402 0.157489 0.500000
Si Si4 0.339061 0.390012 0.062186
Si Si5 0.160998 0.109940 0.272097
O O1 0.272357 0.115978 0.443332
O O2 0.195221 0.141386 0.334842
O O3 0.000000 0.142110 0.412124
O O4 0.139590 0.000000 0.389440
O O5 0.500000 0.859367 0.833343
O O6 0.258580 0.860338 0.887673
O O7 0.262324 0.859665 0.776702
O O8 0.340377 0.000000 0.832586
O O9 0.500000 0.160958 0.500000
O O10 0.250000 0.250000 0.500000
O O11 0.500000 0.362620 0.070780
O O12 0.338322 0.500000 0.062692
O O13 0.294493 0.362454 0.000000
O O14 0.000000 0.134166 0.260689
O O15 0.167171 0.000000 0.271761
#
# Coordination Sequence:
#
# PCOD9494166 Si02
#       5
#    16  16   8  16  16
#     4   9  18  34  55  76  98 124 155 193 236 281
#     4   9  15  20  28  45  69  95 125 168 217 258
#     4  12  25  38  53  73  99 129 159 192 231 278
#     4   8  13  20  28  37  53  84 127 170 210 256
#     4   8  14  25  41  59  79 106 138 172 214 264
#
# _framework density 21.067484
#
# number of rings (size 3 to 8) (size 9 to 14) (size 15 to 20)
#    0.000    3.111    0.000    4.000    0.000    5.778 
#    0.000    4.444    0.000    0.000    0.000    0.000 
#    0.000    0.000    0.000    0.000    0.000    1.111 
#
# Total GULP energy -200745.995304 kJ/mol
# GULP energy per Si atom -5576.277647 kJ/mol
# Density = 2.101953 g / cm^3
# Si number density = 21.067484 Si / 1000 Ang^3
#
#
#
# Elastic Constant Matrix: (Units=GPa)
#
#
# Indices 1 2 3 4 5 6 
#
# 1 181.0257 10.6911 163.0742 0.0000 0.0000 0.0000
# 2 10.6911 32.9002 7.8085 0.0000 0.0000 0.0000
# 3 163.0742 7.8085 220.6238 0.0000 0.0000 0.0000
# 4 0.0000 0.0000 0.0000 -48.4585 0.0000 0.0000
# 5 0.0000 0.0000 0.0000 0.0000 -197.7362 0.0000
# 6 0.0000 0.0000 0.0000 0.0000 0.0000 5.0704
#
#
#
# Elastic Compliance Matrix: (Units=1/GPa)
#
#
# Indices 1 2 3 4 5 6 
#
# 1 0.016737 -0.002524 -0.012282 0.000000 0.000000 0.000000
# 2 -0.002524 0.031033 0.000767 0.000000 0.000000 0.000000
# 3 -0.012282 0.000767 0.013584 0.000000 0.000000 0.000000
# 4 0.000000 0.000000 0.000000 -0.020636 0.000000 0.000000
# 5 0.000000 0.000000 0.000000 0.000000 -0.005057 0.000000
# 6 0.000000 0.000000 0.000000 0.000000 0.000000 0.197225
#
#
# Mechanical properties :
#
#
# Convention : Reuss Voigt Hill
#
# Bulk Modulus (GPa) = 30.05118 88.63303 59.34211
# Shear Modulus (GPa) = 18.37867 -31.35981 -6.49057
#
# Velocity S-wave (km/s) = 2.95680 -3.86235 -1.75714
# Velocity P-wave (km/s) = 5.09432 4.71933 4.91040
#
# Compressibility (1/GPa) = 0.03327656
#
# Stress axis : x y z
#
# Youngs Moduli (GPa) = 59.74757 32.22374 73.61810
#
# Poissons Ratio (x) = 0.08133 0.90417
# Poissons Ratio (y) = 0.15079 -0.05648
# Poissons Ratio (z) = 0.73381 -0.02472
#
# Static dielectric constant tensor:
#      x y z
#    x 1.685150 0.000000 0.000000 
#    y 0.000000 1.949640 0.000000 
#    z 0.000000 0.000000 1.948560 
# 
# From -- ./inp_files/67115.got.cif
#   From: 2010.05.17/outbox.cif.g08.bks.cpg/sg65_34_cif.got.tgz:67115.got - 2010.06.03 17:01:31.
