data_PCOD9494146
_publ_section_title
;
Structure prediction by ZEFSAII (Michael W. Deem and Ramdas Pophale) SiO2 
 PCOD9494146
Probable space group: C M M M
;
_chemical_formula_sum "Si O2"
_cell_formula_units_Z 72
_cell_length_a 15.757863
_cell_length_b 18.210464
_cell_length_c 14.397512
_cell_angle_alpha 90.000000
_cell_angle_beta 90.000000
_cell_angle_gamma 90.000000
_cell_volume 4131.481204
_symmetry_space_group_name_H-M "C M M M"
_symmetry_group_IT_number 65
_symmetry_cell_setting 'orthorhombic'
loop_
_space_group_symop_operation_xyz
x,y,z
-x,-y,z
x,-y,-z
-x,y,-z
-x,-y,-z
x,y,-z
-x,y,z
x,-y,z
1/2+x,1/2+y,z
1/2-x,1/2-y,z
1/2+x,1/2-y,-z
1/2-x,1/2+y,-z
1/2-x,1/2-y,-z
1/2+x,1/2+y,-z
1/2-x,1/2+y,z
1/2+x,1/2-y,z
loop_
_atom_site_type_symbol
_atom_site_label
_atom_site_fract_x
_atom_site_fract_y
_atom_site_fract_z
Si Si1 0.000000 0.416606 0.112673
Si Si2 0.901860 0.913724 0.610786
Si Si3 0.252168 0.662809 0.282123
Si Si4 0.097289 0.586924 0.388308
Si Si5 0.687157 0.911112 0.891532
O O1 0.091589 0.384611 0.135666
O O2 0.000000 0.500000 0.149428
O O3 0.000000 0.421440 0.000000
O O4 0.892108 0.904007 0.500000
O O5 0.835178 0.864606 0.664276
O O6 0.000000 0.897942 0.634121
O O7 0.885708 0.000000 0.630533
O O8 0.250000 0.750000 0.276573
O O9 0.169945 0.632185 0.337351
O O10 0.249503 0.626497 0.180265
O O11 0.104029 0.596046 0.500000
O O12 0.109405 0.500000 0.368667
O O13 0.000000 0.605939 0.361490
O O14 0.688498 0.000000 0.882791
O O15 0.702043 0.894353 0.000000
#
# Coordination Sequence:
#
# PCOD9494146 Si02
#       5
#     8  16  16  16  16
#     4   7  12  26  50  78  99 119 160 213 257 301
#     4   9  19  38  61  78  96 134 191 242 266 287
#     4  12  24  33  49  81 116 149 172 209 268 336
#     4   9  19  36  57  81 109 141 179 223 269 320
#     4   9  18  34  56  79 103 136 180 225 264 309
#
# _framework density 17.427164000000001
#
# number of rings (size 3 to 8) (size 9 to 14) (size 15 to 20)
#    0.000    2.556    0.000    5.333    1.556    4.889 
#    0.000    2.222    0.000    0.667    0.000    3.111 
#    0.000    0.000    0.000    0.000    0.000    0.000 
#
# Total GULP energy -200838.210664 kJ/mol
# GULP energy per Si atom -5578.839185 kJ/mol
# Density = 1.738750 g / cm^3
# Si number density = 17.427164 Si / 1000 Ang^3
#
#
#
# Elastic Constant Matrix: (Units=GPa)
#
#
# Indices 1 2 3 4 5 6 
#
# 1 79.9027 63.0232 55.0569 0.0000 0.0000 0.0000
# 2 63.0232 78.4227 57.5113 0.0000 0.0000 0.0000
# 3 55.0569 57.5113 75.5810 0.0000 0.0000 0.0000
# 4 0.0000 0.0000 0.0000 -93.1482 0.0000 0.0000
# 5 0.0000 0.0000 0.0000 0.0000 22.9591 0.0000
# 6 0.0000 0.0000 0.0000 0.0000 0.0000 -0.3021
#
#
#
# Elastic Compliance Matrix: (Units=1/GPa)
#
#
# Indices 1 2 3 4 5 6 
#
# 1 0.037152 -0.022648 -0.009830 0.000000 0.000000 0.000000
# 2 -0.022648 0.042657 -0.015961 0.000000 0.000000 0.000000
# 3 -0.009830 -0.015961 0.032537 0.000000 0.000000 0.000000
# 4 0.000000 0.000000 0.000000 -0.010736 0.000000 0.000000
# 5 0.000000 0.000000 0.000000 0.000000 0.043556 0.000000
# 6 0.000000 0.000000 0.000000 0.000000 0.000000 -3.310307
#
#
# Mechanical properties :
#
#
# Convention : Reuss Voigt Hill
#
# Bulk Modulus (GPa) = 64.64981 65.00993 64.82987
# Shear Modulus (GPa) = -1.63233 -10.21058 -5.92145
#
# Velocity S-wave (km/s) = -0.96886 -2.42316 -1.84532
# Velocity P-wave (km/s) = 5.99384 5.43653 5.72197
#
# Compressibility (1/GPa) = 0.01546795
#
# Stress axis : x y z
#
# Youngs Moduli (GPa) = 26.91635 23.44297 30.73458
#
# Poissons Ratio (x) = 0.53093 0.30213
# Poissons Ratio (y) = 0.60959 0.49055
# Poissons Ratio (z) = 0.26460 0.37417
#
# Static dielectric constant tensor:
#      x y z
#    x 1.602330 0.000000 0.000000 
#    y 0.000000 1.554300 0.000000 
#    z 0.000000 0.000000 1.611510 
# 
# From -- ./inp_files/39758.got.cif
#   From: 2010.05.17/outbox.cif.g08.bks.cpg/sg65_20_cif.got.tgz:39758.got - 2010.06.03 17:01:31.
