data_PCOD9494673
_publ_section_title
;
Structure prediction by ZEFSAII (Michael W. Deem and Ramdas Pophale) SiO2 
 PCOD9494673
Probable space group: C M M M
;
_chemical_formula_sum "Si O2"
_cell_formula_units_Z 52
_cell_length_a 27.000000
_cell_length_b 9.000000
_cell_length_c 24.000000
_cell_angle_alpha 90.000000
_cell_angle_beta 90.000000
_cell_angle_gamma 90.000000
_cell_volume 5832.000000
_symmetry_space_group_name_H-M "C M M M"
_symmetry_group_IT_number 65
_symmetry_cell_setting 'orthorhombic'
loop_
_space_group_symop_operation_xyz
x,y,z
-x,-y,z
x,-y,-z
-x,y,-z
-x,-y,-z
x,y,-z
-x,y,z
x,-y,z
1/2+x,1/2+y,z
1/2-x,1/2-y,z
1/2+x,1/2-y,-z
1/2-x,1/2+y,-z
1/2-x,1/2-y,-z
1/2+x,1/2+y,-z
1/2-x,1/2+y,z
1/2+x,1/2-y,z
loop_
_atom_site_type_symbol
_atom_site_label
_atom_site_fract_x
_atom_site_fract_y
_atom_site_fract_z
Si Si1 0.700410 0.676623 0.285104
Si Si2 0.641995 0.174445 0.061341
Si Si3 0.846206 0.822234 0.170313
Si Si4 0.442170 0.321942 0.000000
Si Si5 0.059620 0.670874 0.562637
Si Si6 0.092796 0.175620 0.328145
Si Si7 0.944212 0.677488 0.218438
O O1 0.706417 0.500000 0.285276
O O2 0.750000 0.750000 0.306504
O O3 0.688757 0.723814 0.221485
O O4 0.650479 0.711859 0.318276
O O5 0.668948 0.254416 0.111523
O O6 0.588141 0.250923 0.051581
O O7 0.635992 0.000000 0.072398
O O8 0.665904 0.191825 0.000000
O O9 0.900660 0.758861 0.185041
O O10 0.848182 0.000000 0.168426
O O11 0.436649 0.500000 0.000000
O O12 0.500000 0.285035 0.000000
O O13 0.076032 0.709396 0.500000
O O14 0.074650 0.500000 0.574409
O O15 0.077995 0.779005 0.610253
O O16 0.000000 0.673414 0.562909
O O17 0.062374 0.267356 0.282116
O O18 0.085793 0.000000 0.317671
O O19 0.937431 0.500000 0.215471
O O20 0.000000 0.713220 0.199452
#
# Coordination Sequence:
#
# PCOD9494673 Si02
#       7
#    16  16  16   8  16  16  16
#     4   9  20  36  54  78 101 126 162 208 259 310
#     4   9  19  32  48  69  93 125 163 199 240 294
#     4  10  20  34  52  74 100 128 163 206 255 304
#     4   9  17  29  45  65  90 125 166 203 241 283
#     4   9  18  32  50  75 108 145 183 216 246 289
#     4  10  20  33  50  75 105 133 168 211 256 303
#     4  10  20  32  47  69  98 133 170 205 246 297
#
# _framework density 8.9163239999999995
#
# number of rings (size 3 to 8) (size 9 to 14) (size 15 to 20)
#    0.462    2.077    0.000    3.692    0.000    8.615 
#    0.000    0.769    0.000    0.923    0.000    0.000 
#    0.000    0.000    0.000    0.000    0.000    0.000 
#
# Total GULP energy -289756.838011 kJ/mol
# GULP energy per Si atom -5572.246885 kJ/mol
# Density = 0.889603 g / cm^3
# Si number density = 8.916324 Si / 1000 Ang^3
#
#
#
# Elastic Constant Matrix: (Units=GPa)
#
#
# Indices 1 2 3 4 5 6 
#
# 1 34.0873 8.9837 -1.1526 0.0000 0.0000 0.0000
# 2 8.9837 39.6543 17.9258 0.0000 0.0000 0.0000
# 3 -1.1526 17.9258 61.6721 0.0000 0.0000 0.0000
# 4 0.0000 0.0000 0.0000 25.9594 0.0000 0.0000
# 5 0.0000 0.0000 0.0000 0.0000 3.1061 0.0000
# 6 0.0000 0.0000 0.0000 0.0000 0.0000 5.2696
#
#
#
# Elastic Compliance Matrix: (Units=1/GPa)
#
#
# Indices 1 2 3 4 5 6 
#
# 1 0.031701 -0.008577 0.003085 0.000000 0.000000 0.000000
# 2 -0.008577 0.031353 -0.009274 0.000000 0.000000 0.000000
# 3 0.003085 -0.009274 0.018968 0.000000 0.000000 0.000000
# 4 0.000000 0.000000 0.000000 0.038522 0.000000 0.000000
# 5 0.000000 0.000000 0.000000 0.000000 0.321949 0.000000
# 6 0.000000 0.000000 0.000000 0.000000 0.000000 0.189769
#
#
# Mechanical properties :
#
#
# Convention : Reuss Voigt Hill
#
# Bulk Modulus (GPa) = 19.05029 20.76972 19.91001
# Shear Modulus (GPa) = 7.36064 14.17747 10.76905
#
# Velocity S-wave (km/s) = 2.03386 2.82268 2.46009
# Velocity P-wave (km/s) = 4.02759 4.72183 4.38846
#
# Compressibility (1/GPa) = 0.05249263
#
# Stress axis : x y z
#
# Youngs Moduli (GPa) = 31.54465 31.89476 52.72056
#
# Poissons Ratio (x) = 0.27355 -0.16266
# Poissons Ratio (y) = 0.27055 0.48890
# Poissons Ratio (z) = -0.09733 0.29578
#
# Static dielectric constant tensor:
#      x y z
#    x 1.590610 0.000000 0.000000 
#    y 0.000000 1.597080 0.000000 
#    z 0.000000 0.000000 1.639960 
# 
# From -- ./inp_files/71858.got.cif
#   From: 2010.05.17/outbox.ucp.g08.bks.cvg/sg65_36_cif.got.tgz:71858.got - 2010.06.11 16:39:57.
