data_PCOD9494616
_publ_section_title
;
Structure prediction by ZEFSAII (Michael W. Deem and Ramdas Pophale) SiO2 
 PCOD9494616
Probable space group: C M M M
;
_chemical_formula_sum "Si O2"
_cell_formula_units_Z 36
_cell_length_a 18.000000
_cell_length_b 9.000000
_cell_length_c 24.000000
_cell_angle_alpha 90.000000
_cell_angle_beta 90.000000
_cell_angle_gamma 90.000000
_cell_volume 3888.000000
_symmetry_space_group_name_H-M "C M M M"
_symmetry_group_IT_number 65
_symmetry_cell_setting 'orthorhombic'
loop_
_space_group_symop_operation_xyz
x,y,z
-x,-y,z
x,-y,-z
-x,y,-z
-x,-y,-z
x,y,-z
-x,y,z
x,-y,z
1/2+x,1/2+y,z
1/2-x,1/2-y,z
1/2+x,1/2-y,-z
1/2-x,1/2+y,-z
1/2-x,1/2-y,-z
1/2+x,1/2+y,-z
1/2-x,1/2+y,z
1/2+x,1/2-y,z
loop_
_atom_site_type_symbol
_atom_site_label
_atom_site_fract_x
_atom_site_fract_y
_atom_site_fract_z
Si Si1 0.910413 0.327400 0.102627
Si Si2 0.832035 0.678564 0.680210
Si Si3 0.830531 0.176254 0.000000
Si Si4 0.910615 0.828912 0.783054
Si Si5 0.831952 0.678525 0.559200
O O1 0.888877 0.500000 0.098008
O O2 0.887384 0.259383 0.161747
O O3 0.000000 0.319544 0.098779
O O4 0.874632 0.233272 0.053732
O O5 0.827175 0.500000 0.685219
O O6 0.750000 0.750000 0.682832
O O7 0.879617 0.747385 0.729242
O O8 0.865499 0.717098 0.619093
O O9 0.750000 0.250000 0.000000
O O10 0.824478 0.000000 0.000000
O O11 0.000000 0.828279 0.781638
O O12 0.885439 0.000000 0.785197
O O13 0.868356 0.721116 0.500000
O O14 0.824002 0.500000 0.559247
O O15 0.750000 0.750000 0.559037
#
# Coordination Sequence:
#
# PCOD9494616 Si02
#       5
#    16  16   8  16  16
#     4  10  21  39  62  85 109 139 177 217 258 309
#     4  10  19  31  50  76 105 136 172 215 264 316
#     4  12  25  40  59  85 117 147 177 214 259 306
#     4  10  21  37  56  78 105 138 177 219 262 309
#     4   8  14  25  42  66  96 129 166 209 256 307
#
# _framework density 9.2592590000000001
#
# number of rings (size 3 to 8) (size 9 to 14) (size 15 to 20)
#    0.000    2.222    0.000    3.333    0.000    5.778 
#    0.000    4.444    0.000    0.667    0.000    4.667 
#    0.000    0.000    0.000    0.000    0.000    0.000 
#
# Total GULP energy -200717.637433 kJ/mol
# GULP energy per Si atom -5575.489929 kJ/mol
# Density = 0.923818 g / cm^3
# Si number density = 9.259259 Si / 1000 Ang^3
#
#
#
# Elastic Constant Matrix: (Units=GPa)
#
#
# Indices 1 2 3 4 5 6 
#
# 1 3.7904 27.4135 34.7146 0.0000 0.0000 0.0000
# 2 27.4135 132.7820 81.7482 0.0000 0.0000 0.0000
# 3 34.7146 81.7482 202.6103 0.0000 0.0000 0.0000
# 4 0.0000 0.0000 0.0000 24.6477 0.0000 0.0000
# 5 0.0000 0.0000 0.0000 0.0000 15.8006 0.0000
# 6 0.0000 0.0000 0.0000 0.0000 0.0000 24.8180
#
#
#
# Elastic Compliance Matrix: (Units=1/GPa)
#
#
# Indices 1 2 3 4 5 6 
#
# 1 -0.252612 0.033936 0.029589 0.000000 0.000000 0.000000
# 2 0.033936 0.005461 -0.008018 0.000000 0.000000 0.000000
# 3 0.029589 -0.008018 0.003101 0.000000 0.000000 0.000000
# 4 0.000000 0.000000 0.000000 0.040572 0.000000 0.000000
# 5 0.000000 0.000000 0.000000 0.000000 0.063289 0.000000
# 6 0.000000 0.000000 0.000000 0.000000 0.000000 0.040293
#
#
# Mechanical properties :
#
#
# Convention : Reuss Voigt Hill
#
# Bulk Modulus (GPa) = -7.51681 69.65947 31.07133
# Shear Modulus (GPa) = -19.58812 26.07369 3.24278
#
# Velocity S-wave (km/s) = -3.25585 3.75638 1.32473
# Velocity P-wave (km/s) = 4.26637 7.51742 4.37662
#
# Compressibility (1/GPa) = -0.13303509
#
# Stress axis : x y z
#
# Youngs Moduli (GPa) = -3.95863 183.11192 322.48739
#
# Poissons Ratio (x) = -6.21413 -9.54218
# Poissons Ratio (y) = 0.13434 2.58569
# Poissons Ratio (z) = 0.11713 1.46818
#
# Static dielectric constant tensor:
#      x y z
#    x 1.612120 0.000000 0.000000 
#    y 0.000000 1.618020 0.000000 
#    z 0.000000 0.000000 1.676130 
# 
# From -- ./inp_files/66994.got.cif
#   From: 2010.05.17/outbox.ucp.g08.bks.cvg/sg65_34_cif.got.tgz:66994.got - 2010.06.11 16:39:57.
