data_PCOD9494996
_publ_section_title
;
Structure prediction by ZEFSAII (Michael W. Deem and Ramdas Pophale) SiO2 
 PCOD9494996
Probable space group: C C C M
;
_chemical_formula_sum "Si O2"
_cell_formula_units_Z 80
_cell_length_a 13.266807
_cell_length_b 28.870078
_cell_length_c 8.424022
_cell_angle_alpha 90.000000
_cell_angle_beta 90.000000
_cell_angle_gamma 90.000000
_cell_volume 3226.516281
_symmetry_space_group_name_H-M "C C C M"
_symmetry_group_IT_number 66
_symmetry_cell_setting 'orthorhombic'
loop_
_space_group_symop_operation_xyz
x,y,z
-x,-y,z
x,-y,1/2-z
-x,y,1/2-z
-x,-y,-z
x,y,-z
-x,y,1/2+z
x,-y,1/2+z
1/2+x,1/2+y,z
1/2-x,1/2-y,z
1/2+x,1/2-y,1/2-z
1/2-x,1/2+y,1/2-z
1/2-x,1/2-y,-z
1/2+x,1/2+y,-z
1/2-x,1/2+y,1/2+z
1/2+x,1/2-y,1/2+z
loop_
_atom_site_type_symbol
_atom_site_label
_atom_site_fract_x
_atom_site_fract_y
_atom_site_fract_z
Si Si1 0.369940 0.202557 0.500000
Si Si2 0.322922 0.552460 0.187840
Si Si3 0.894717 0.553483 0.808109
Si Si4 0.681851 0.797639 0.173026
Si Si5 0.621948 0.643478 0.826273
Si Si6 0.876791 0.191175 0.000000
O O1 0.390539 0.189558 0.318281
O O2 0.247100 0.193002 0.500000
O O3 0.404332 0.255648 0.500000
O O4 0.334667 0.500000 0.250000
O O5 0.207265 0.568276 0.220529
O O6 0.384972 0.589005 0.291393
O O7 0.343784 0.555388 0.000000
O O8 0.899911 0.500000 0.750000
O O9 0.000000 0.575262 0.750000
O O10 0.885251 0.555786 0.000000
O O11 0.750000 0.750000 0.199577
O O12 0.762979 0.838407 0.162771
O O13 0.632750 0.791885 0.000000
O O14 0.590221 0.667650 0.663249
O O15 0.581978 0.655351 0.000000
#
# Coordination Sequence:
#
# PCOD9494996 Si02
#       6
#     8  16  16  16  16   8
#     4   9  12  20  32  44  64  72  94 108 130 150
#     4  11  20  29  37  47  60  75  94 116 144 175
#     4  10  17  27  39  49  57  68  86 111 141 171
#     4   9  14  20  32  46  60  76  92 110 130 154
#     4  10  17  25  34  46  61  76  93 112 135 162
#     4   9  14  22  32  48  58  79  90 112 129 159
#
# _framework density 24.794543000000001
#
# number of rings (size 3 to 8) (size 9 to 14) (size 15 to 20)
#    0.000    2.200    5.000    5.400    0.000    0.000 
#    0.000    0.000    0.000    0.000    0.000    0.000 
#    0.000    0.000    0.000    0.000    0.000    0.000 
#
# Total GULP energy -223048.513286 kJ/mol
# GULP energy per Si atom -5576.212832 kJ/mol
# Density = 2.473811 g / cm^3
# Si number density = 24.794543 Si / 1000 Ang^3
#
#
#
# Elastic Constant Matrix: (Units=GPa)
#
#
# Indices 1 2 3 4 5 6 
#
# 1 44.5373 13.4092 25.1281 0.0000 0.0000 0.0000
# 2 13.4092 104.1885 27.2873 0.0000 0.0000 0.0000
# 3 25.1281 27.2873 269.3206 0.0000 0.0000 0.0000
# 4 0.0000 0.0000 0.0000 26.5998 0.0000 0.0000
# 5 0.0000 0.0000 0.0000 0.0000 17.8857 0.0000
# 6 0.0000 0.0000 0.0000 0.0000 0.0000 -54.2788
#
#
#
# Elastic Compliance Matrix: (Units=1/GPa)
#
#
# Indices 1 2 3 4 5 6 
#
# 1 0.024373 -0.002611 -0.002010 0.000000 0.000000 0.000000
# 2 -0.002611 0.010139 -0.000784 0.000000 0.000000 0.000000
# 3 -0.002010 -0.000784 0.003980 0.000000 0.000000 0.000000
# 4 0.000000 0.000000 0.000000 0.037594 0.000000 0.000000
# 5 0.000000 0.000000 0.000000 0.000000 0.055911 0.000000
# 6 0.000000 0.000000 0.000000 0.000000 0.000000 -0.018423
#
#
# Mechanical properties :
#
#
# Convention : Reuss Voigt Hill
#
# Bulk Modulus (GPa) = 36.12137 61.07729 48.59933
# Shear Modulus (GPa) = 37.42259 21.52280 29.47269
#
# Velocity S-wave (km/s) = 3.88920 2.94946 3.45146
# Velocity P-wave (km/s) = 5.89641 6.02378 5.96044
#
# Compressibility (1/GPa) = 0.02768444
#
# Stress axis : x y z
#
# Youngs Moduli (GPa) = 41.02930 98.62681 251.25962
#
# Poissons Ratio (x) = 0.25747 0.50491
# Poissons Ratio (y) = 0.10711 0.19692
# Poissons Ratio (z) = 0.08245 0.07730
#
# Static dielectric constant tensor:
#      x y z
#    x 2.021240 0.000000 0.000000 
#    y 0.000000 1.648670 0.000000 
#    z 0.000000 0.000000 2.076900 
# 
# From -- ./inp_files/9243.got.cif
#   From: 2010.05.17/outbox.cif.g08.bks.cpg/sg66_5_cif.got.tgz:9243.got - 2010.06.03 17:51:23.
