data_PCOD9494495
_publ_section_title
;
Structure prediction by ZEFSAII (Michael W. Deem and Ramdas Pophale) SiO2 
 PCOD9494495
Probable space group: C M M M
;
_chemical_formula_sum "Si O2"
_cell_formula_units_Z 72
_cell_length_a 14.405973
_cell_length_b 8.261810
_cell_length_c 25.951016
_cell_angle_alpha 90.000000
_cell_angle_beta 90.000000
_cell_angle_gamma 90.000000
_cell_volume 3088.674660
_symmetry_space_group_name_H-M "C M M M"
_symmetry_group_IT_number 65
_symmetry_cell_setting 'orthorhombic'
loop_
_space_group_symop_operation_xyz
x,y,z
-x,-y,z
x,-y,-z
-x,y,-z
-x,-y,-z
x,y,-z
-x,y,z
x,-y,z
1/2+x,1/2+y,z
1/2-x,1/2-y,z
1/2+x,1/2-y,-z
1/2-x,1/2+y,-z
1/2-x,1/2-y,-z
1/2+x,1/2+y,-z
1/2-x,1/2+y,z
1/2+x,1/2-y,z
loop_
_atom_site_type_symbol
_atom_site_label
_atom_site_fract_x
_atom_site_fract_y
_atom_site_fract_z
Si Si1 0.113412 0.176093 0.118545
Si Si2 0.143926 0.195957 0.555338
Si Si3 0.386770 0.819516 0.223944
Si Si4 0.609257 0.318747 0.669046
Si Si5 0.886195 0.500000 0.059566
O O1 0.140353 0.199128 0.178425
O O2 0.143983 0.334856 0.087660
O O3 0.000000 0.176906 0.116780
O O4 0.143874 0.000000 0.099154
O O5 0.102826 0.249913 0.500000
O O6 0.250000 0.250000 0.552997
O O7 0.114516 0.255453 0.611794
O O8 0.132904 0.000000 0.556402
O O9 0.500000 0.820482 0.224207
O O10 0.355082 0.776063 0.281451
O O11 0.356878 0.000000 0.210182
O O12 0.500000 0.336015 0.678388
O O13 0.650959 0.500000 0.667692
O O14 0.000000 0.500000 0.061623
O O15 0.858797 0.500000 0.000000
#
# Coordination Sequence:
#
# PCOD9494495 Si02
#       5
#    16  16  16  16   8
#     4   9  15  23  35  49  69 101 138 178 224 269
#     4   9  18  32  48  64  85 116 150 183 221 273
#     4   9  15  24  38  56  79 104 133 174 223 271
#     4   9  17  28  43  65  88 109 141 187 232 274
#     4   9  16  24  32  46  70 100 141 187 221 259
#
# _framework density 23.310969
#
# number of rings (size 3 to 8) (size 9 to 14) (size 15 to 20)
#    0.000    3.000    1.111    0.667    0.000    4.444 
#    0.000    4.444    0.000    0.000    0.000    6.222 
#    0.000    0.000    0.000    0.000    0.000    1.111 
#
# Total GULP energy -200750.481861 kJ/mol
# GULP energy per Si atom -5576.402274 kJ/mol
# Density = 2.325791 g / cm^3
# Si number density = 23.310969 Si / 1000 Ang^3
#
#
#
# Elastic Constant Matrix: (Units=GPa)
#
#
# Indices 1 2 3 4 5 6 
#
# 1 58.0645 7.6625 -3.7173 0.0000 0.0000 0.0000
# 2 7.6625 128.0933 84.2440 0.0000 0.0000 0.0000
# 3 -3.7173 84.2440 174.6315 0.0000 0.0000 0.0000
# 4 0.0000 0.0000 0.0000 -19.3506 0.0000 0.0000
# 5 0.0000 0.0000 0.0000 0.0000 30.9607 0.0000
# 6 0.0000 0.0000 0.0000 0.0000 0.0000 9.8635
#
#
#
# Elastic Compliance Matrix: (Units=1/GPa)
#
#
# Indices 1 2 3 4 5 6 
#
# 1 0.017555 -0.001898 0.001289 0.000000 0.000000 0.000000
# 2 -0.001898 0.011640 -0.005656 0.000000 0.000000 0.000000
# 3 0.001289 -0.005656 0.008482 0.000000 0.000000 0.000000
# 4 0.000000 0.000000 0.000000 -0.051678 0.000000 0.000000
# 5 0.000000 0.000000 0.000000 0.000000 0.032299 0.000000
# 6 0.000000 0.000000 0.000000 0.000000 0.000000 0.101384
#
#
# Mechanical properties :
#
#
# Convention : Reuss Voigt Hill
#
# Bulk Modulus (GPa) = 39.76373 59.68529 49.72451
# Shear Modulus (GPa) = 35.56344 22.46807 29.01576
#
# Velocity S-wave (km/s) = 3.91014 3.10795 3.53189
# Velocity P-wave (km/s) = 6.12214 6.20795 6.16519
#
# Compressibility (1/GPa) = 0.02514855
#
# Stress axis : x y z
#
# Youngs Moduli (GPa) = 56.96294 85.91117 117.89502
#
# Poissons Ratio (x) = 0.16307 -0.15201
# Poissons Ratio (y) = 0.10812 0.66677
# Poissons Ratio (z) = -0.07345 0.48588
#
# Static dielectric constant tensor:
#      x y z
#    x 1.907970 0.000000 0.000000 
#    y 0.000000 1.863910 0.000000 
#    z 0.000000 0.000000 1.887810 
# 
# From -- ./inp_files/65002.got.cif
#   From: 2010.05.17/outbox.cif.g08.bks.cpg/sg65_33_cif.got.tgz:65002.got - 2010.06.03 17:01:31.
