data_PCOD9494608
_publ_section_title
;
Structure prediction by ZEFSAII (Michael W. Deem and Ramdas Pophale) SiO2 
 PCOD9494608
Probable space group: C M M M
;
_chemical_formula_sum "Si O2"
_cell_formula_units_Z 44
_cell_length_a 18.000000
_cell_length_b 30.000000
_cell_length_c 9.000000
_cell_angle_alpha 90.000000
_cell_angle_beta 90.000000
_cell_angle_gamma 90.000000
_cell_volume 4860.000000
_symmetry_space_group_name_H-M "C M M M"
_symmetry_group_IT_number 65
_symmetry_cell_setting 'orthorhombic'
loop_
_space_group_symop_operation_xyz
x,y,z
-x,-y,z
x,-y,-z
-x,y,-z
-x,-y,-z
x,y,-z
-x,y,z
x,-y,z
1/2+x,1/2+y,z
1/2-x,1/2-y,z
1/2+x,1/2-y,-z
1/2-x,1/2+y,-z
1/2-x,1/2-y,-z
1/2+x,1/2+y,-z
1/2-x,1/2+y,z
1/2+x,1/2-y,z
loop_
_atom_site_type_symbol
_atom_site_label
_atom_site_fract_x
_atom_site_fract_y
_atom_site_fract_z
Si Si1 0.816965 0.914355 0.817657
Si Si2 0.641291 0.780483 0.819837
Si Si3 0.500000 0.921038 0.820389
Si Si4 0.160506 0.552186 0.826865
Si Si5 0.586214 0.500000 0.818717
Si Si6 0.500000 0.174982 0.676590
Si Si7 0.302606 0.683654 0.820695
O O1 0.732545 0.923385 0.764380
O O2 0.834810 0.863787 0.770330
O O3 0.870384 0.954969 0.771390
O O4 0.816665 0.915581 0.000000
O O5 0.572480 0.798849 0.730037
O O6 0.655787 0.728945 0.778298
O O7 0.715892 0.808421 0.783779
O O8 0.630014 0.783305 0.000000
O O9 0.421865 0.940815 0.763825
O O10 0.500000 0.870373 0.770587
O O11 0.500000 0.927041 0.000000
O O12 0.177881 0.500000 0.825016
O O13 0.155923 0.566661 0.000000
O O14 0.500000 0.500000 0.772469
O O15 0.587180 0.500000 0.000000
O O16 0.500000 0.167140 0.500000
O O17 0.304838 0.682925 0.000000
#
# Coordination Sequence:
#
# PCOD9494608 Si02
#       7
#    16  16   8  16   8   8  16
#     4   9  14  23  38  60  92 128 159 189 235 291
#     4   9  17  33  53  73  97 125 162 206 251 297
#     4  10  19  30  48  72  96 128 171 209 244 287
#     4   9  15  24  42  70 100 126 157 202 245 284
#     4   9  16  24  32  49  89 135 162 180 222 290
#     4  12  24  35  47  69 102 135 167 204 249 299
#     4   8  15  28  50  74  94 122 162 206 249 295
#
# _framework density 9.0534979999999994
#
# number of rings (size 3 to 8) (size 9 to 14) (size 15 to 20)
#    0.000    2.818    0.909    3.273    0.000    4.000 
#    1.636    1.818    0.000    1.091    0.000    0.000 
#    0.000    0.000    0.000    0.818    0.000    1.273 
#
# Total GULP energy -244948.333641 kJ/mol
# GULP energy per Si atom -5567.007583 kJ/mol
# Density = 0.903289 g / cm^3
# Si number density = 9.053498 Si / 1000 Ang^3
#
#
#
# Elastic Constant Matrix: (Units=GPa)
#
#
# Indices 1 2 3 4 5 6 
#
# 1 23.9482 16.4449 -12.0894 0.0000 0.0000 0.0000
# 2 16.4449 84.7084 -22.4208 0.0000 0.0000 0.0000
# 3 -12.0894 -22.4208 -13.2304 0.0000 0.0000 0.0000
# 4 0.0000 0.0000 0.0000 -1.7915 0.0000 0.0000
# 5 0.0000 0.0000 0.0000 0.0000 -2.1273 0.0000
# 6 0.0000 0.0000 0.0000 0.0000 0.0000 13.4830
#
#
#
# Elastic Compliance Matrix: (Units=1/GPa)
#
#
# Indices 1 2 3 4 5 6 
#
# 1 0.041878 -0.012605 -0.016906 0.000000 0.000000 0.000000
# 2 -0.012605 0.011944 -0.008722 0.000000 0.000000 0.000000
# 3 -0.016906 -0.008722 -0.045354 0.000000 0.000000 0.000000
# 4 0.000000 0.000000 0.000000 -0.558196 0.000000 0.000000
# 5 0.000000 0.000000 0.000000 0.000000 -0.470073 0.000000
# 6 0.000000 0.000000 0.000000 0.000000 0.000000 0.074168
#
#
# Mechanical properties :
#
#
# Convention : Reuss Voigt Hill
#
# Bulk Modulus (GPa) = -14.70615 6.58838 -4.05888
# Shear Modulus (GPa) = -5.60642 9.47894 1.93626
#
# Velocity S-wave (km/s) = -1.76153 2.29049 1.03521
# Velocity P-wave (km/s) = 3.50382 3.26214 0.90421
#
# Compressibility (1/GPa) = -0.06799877
#
# Stress axis : x y z
#
# Youngs Moduli (GPa) = 23.87893 83.72729 -22.04868
#
# Poissons Ratio (x) = 1.05535 -0.37275
# Poissons Ratio (y) = 0.30099 -0.19232
# Poissons Ratio (z) = 0.40370 0.73031
#
# Static dielectric constant tensor:
#      x y z
#    x 1.660400 0.000000 0.000000 
#    y 0.000000 1.655620 0.000000 
#    z 0.000000 0.000000 1.598380 
# 
# From -- ./inp_files/10179.got.cif
#   From: 2010.05.17/outbox.ucp.g08.bks.cvg/sg65_6_cif.got.tgz:10179.got - 2010.06.11 16:39:57.
