data_PCOD9494772
_publ_section_title
;
Structure prediction by ZEFSAII (Michael W. Deem and Ramdas Pophale) SiO2 
 PCOD9494772
Probable space group: C M M M
;
_chemical_formula_sum "Si O2"
_cell_formula_units_Z 44
_cell_length_a 18.000000
_cell_length_b 21.000000
_cell_length_c 12.000000
_cell_angle_alpha 90.000000
_cell_angle_beta 90.000000
_cell_angle_gamma 90.000000
_cell_volume 4536.000000
_symmetry_space_group_name_H-M "C M M M"
_symmetry_group_IT_number 65
_symmetry_cell_setting 'orthorhombic'
loop_
_space_group_symop_operation_xyz
x,y,z
-x,-y,z
x,-y,-z
-x,y,-z
-x,-y,-z
x,y,-z
-x,y,z
x,-y,z
1/2+x,1/2+y,z
1/2-x,1/2-y,z
1/2+x,1/2-y,-z
1/2-x,1/2+y,-z
1/2-x,1/2-y,-z
1/2+x,1/2+y,-z
1/2-x,1/2+y,z
1/2+x,1/2-y,z
loop_
_atom_site_type_symbol
_atom_site_label
_atom_site_fract_x
_atom_site_fract_y
_atom_site_fract_z
Si Si1 0.183655 0.927605 0.000000
Si Si2 0.410528 0.697544 0.748720
Si Si3 0.587565 0.311409 0.000000
Si Si4 0.411224 0.928144 0.500000
Si Si5 0.088171 0.339533 0.712250
Si Si6 0.296159 0.072966 0.203578
Si Si7 0.664310 0.426213 0.633795
O O1 0.235834 0.916969 0.893427
O O2 0.111450 0.884712 0.000000
O O3 0.159951 0.000000 0.000000
O O4 0.500000 0.689827 0.749126
O O5 0.393323 0.765382 0.690291
O O6 0.377814 0.633434 0.692688
O O7 0.385096 0.709635 0.877466
O O8 0.500000 0.299845 0.000000
O O9 0.500000 0.936268 0.500000
O O10 0.396606 0.884905 0.392997
O O11 0.378535 0.000000 0.500000
O O12 0.140424 0.373794 0.802548
O O13 0.000000 0.341999 0.739219
O O14 0.247288 0.077150 0.316216
O O15 0.325229 0.000000 0.194429
O O16 0.662007 0.418969 0.500000
O O17 0.638253 0.500000 0.659396
#
# Coordination Sequence:
#
# PCOD9494772 Si02
#       7
#     8  16   8   8  16  16  16
#     4  10  20  38  60  87 117 151 201 254 300 352
#     4  10  22  39  60  87 120 156 198 248 297 350
#     4  10  20  38  61  84 115 159 203 244 293 352
#     4   9  18  34  58  85 113 153 204 247 287 341
#     4  10  22  38  57  86 120 156 196 243 297 352
#     4  10  21  38  60  85 117 154 195 247 300 350
#     4  10  22  39  59  85 119 160 200 241 298 364
#
# _framework density 9.7001760000000008
#
# number of rings (size 3 to 8) (size 9 to 14) (size 15 to 20)
#    0.000    2.091    1.818    0.545    2.545    3.455 
#    0.000    5.909    0.000    1.636    0.000    0.000 
#    0.000    0.000    0.000    0.000    0.000    0.000 
#
# Total GULP energy -245036.709680 kJ/mol
# GULP energy per Si atom -5569.016129 kJ/mol
# Density = 0.967810 g / cm^3
# Si number density = 9.700176 Si / 1000 Ang^3
#
#
#
# Elastic Constant Matrix: (Units=GPa)
#
#
# Indices 1 2 3 4 5 6 
#
# 1 14.5504 27.9222 1.5181 0.0000 0.0000 0.0000
# 2 27.9222 146.6554 38.6135 0.0000 0.0000 0.0000
# 3 1.5181 38.6135 80.1917 0.0000 0.0000 0.0000
# 4 0.0000 0.0000 0.0000 38.2648 0.0000 0.0000
# 5 0.0000 0.0000 0.0000 0.0000 -22.0543 0.0000
# 6 0.0000 0.0000 0.0000 0.0000 0.0000 34.3725
#
#
#
# Elastic Compliance Matrix: (Units=1/GPa)
#
#
# Indices 1 2 3 4 5 6 
#
# 1 0.114308 -0.024271 0.009523 0.000000 0.000000 0.000000
# 2 -0.024271 0.012962 -0.005782 0.000000 0.000000 0.000000
# 3 0.009523 -0.005782 0.015074 0.000000 0.000000 0.000000
# 4 0.000000 0.000000 0.000000 0.026134 0.000000 0.000000
# 5 0.000000 0.000000 0.000000 0.000000 -0.045343 0.000000
# 6 0.000000 0.000000 0.000000 0.000000 0.000000 0.029093
#
#
# Mechanical properties :
#
#
# Convention : Reuss Voigt Hill
#
# Bulk Modulus (GPa) = 9.87317 41.94499 25.90908
# Shear Modulus (GPa) = 22.02158 21.67285 21.84722
#
# Velocity S-wave (km/s) = 3.37280 3.34599 3.35942
# Velocity P-wave (km/s) = 4.50199 6.04939 5.33212
#
# Compressibility (1/GPa) = 0.10128455
#
# Stress axis : x y z
#
# Youngs Moduli (GPa) = 8.74826 77.14824 66.33964
#
# Poissons Ratio (x) = 1.87245 -0.63174
# Poissons Ratio (y) = 0.21233 0.38357
# Poissons Ratio (z) = -0.08331 0.44607
#
# Static dielectric constant tensor:
#      x y z
#    x 1.664260 0.000000 0.000000 
#    y 0.000000 1.670890 0.000000 
#    z 0.000000 0.000000 1.762230 
# 
# From -- ./inp_files/26840.got.cif
#   From: 2010.05.17/outbox.ucp.g08.bks.cvg/sg65_14_cif.got.tgz:26840.got - 2010.06.11 16:39:57.
