data_PCOD9494813
_publ_section_title
;
Structure prediction by ZEFSAII (Michael W. Deem and Ramdas Pophale) SiO2 
 PCOD9494813
Probable space group: C M M M
;
_chemical_formula_sum "Si O2"
_cell_formula_units_Z 52
_cell_length_a 27.000000
_cell_length_b 21.000000
_cell_length_c 9.000000
_cell_angle_alpha 90.000000
_cell_angle_beta 90.000000
_cell_angle_gamma 90.000000
_cell_volume 5103.000000
_symmetry_space_group_name_H-M "C M M M"
_symmetry_group_IT_number 65
_symmetry_cell_setting 'orthorhombic'
loop_
_space_group_symop_operation_xyz
x,y,z
-x,-y,z
x,-y,-z
-x,y,-z
-x,-y,-z
x,y,-z
-x,y,z
x,-y,z
1/2+x,1/2+y,z
1/2-x,1/2-y,z
1/2+x,1/2-y,-z
1/2-x,1/2+y,-z
1/2-x,1/2-y,-z
1/2+x,1/2+y,-z
1/2-x,1/2+y,z
1/2+x,1/2-y,z
loop_
_atom_site_type_symbol
_atom_site_label
_atom_site_fract_x
_atom_site_fract_y
_atom_site_fract_z
Si Si1 0.057877 0.571138 0.821641
Si Si2 0.864475 0.806604 0.673763
Si Si3 0.280109 0.929712 0.664378
Si Si4 0.631182 0.167167 0.672419
Si Si5 0.560220 0.500000 0.671561
Si Si6 0.558505 0.631210 0.831011
Si Si7 0.681746 0.429812 0.825601
O O1 0.074277 0.500000 0.771496
O O2 0.088793 0.628913 0.755996
O O3 0.000000 0.577195 0.783748
O O4 0.062054 0.572254 0.000000
O O5 0.854284 0.811394 0.500000
O O6 0.853032 0.736350 0.730270
O O7 0.921645 0.817376 0.715886
O O8 0.839533 0.865963 0.754489
O O9 0.255655 0.923761 0.500000
O O10 0.321170 0.877166 0.676493
O O11 0.239877 0.925315 0.791295
O O12 0.303002 0.000000 0.669935
O O13 0.616199 0.176120 0.500000
O O14 0.500000 0.500000 0.662263
O O15 0.578180 0.500000 0.500000
O O16 0.573125 0.562484 0.765421
O O17 0.500000 0.632431 0.836074
O O18 0.576319 0.640943 0.000000
O O19 0.667648 0.500000 0.761751
O O20 0.672214 0.430975 0.000000
#
# Coordination Sequence:
#
# PCOD9494813 Si02
#       7
#    16  16  16  16   8  16  16
#     4   9  19  36  58  86 120 157 196 238 285 337
#     4  11  24  39  56  81 115 154 193 235 288 344
#     4   9  18  36  62  87 112 144 183 229 283 342
#     4  10  22  38  57  85 118 153 194 238 283 337
#     4   9  17  31  53  79 103 131 173 225 279 331
#     4  10  21  37  56  78 107 144 187 234 282 333
#     4  10  22  40  61  85 112 143 185 236 288 345
#
# _framework density 10.190084000000001
#
# number of rings (size 3 to 8) (size 9 to 14) (size 15 to 20)
#    0.000    2.231    0.000    2.538    1.077    7.077 
#    0.000    8.462    0.000    0.000    0.000    0.000 
#    0.000    0.000    0.000    0.000    0.000    0.000 
#
# Total GULP energy -289771.068400 kJ/mol
# GULP energy per Si atom -5572.520546 kJ/mol
# Density = 1.016689 g / cm^3
# Si number density = 10.190084 Si / 1000 Ang^3
#
#
#
# Elastic Constant Matrix: (Units=GPa)
#
#
# Indices 1 2 3 4 5 6 
#
# 1 48.1410 48.8966 16.6894 0.0000 0.0000 0.0000
# 2 48.8966 174.7851 51.3799 0.0000 0.0000 0.0000
# 3 16.6894 51.3799 28.5725 0.0000 0.0000 0.0000
# 4 0.0000 0.0000 0.0000 23.3572 0.0000 0.0000
# 5 0.0000 0.0000 0.0000 0.0000 27.5851 0.0000
# 6 0.0000 0.0000 0.0000 0.0000 0.0000 17.8314
#
#
#
# Elastic Compliance Matrix: (Units=1/GPa)
#
#
# Indices 1 2 3 4 5 6 
#
# 1 0.029357 -0.006729 -0.005047 0.000000 0.000000 0.000000
# 2 -0.006729 0.013679 -0.020668 0.000000 0.000000 0.000000
# 3 -0.005047 -0.020668 0.075113 0.000000 0.000000 0.000000
# 4 0.000000 0.000000 0.000000 0.042813 0.000000 0.000000
# 5 0.000000 0.000000 0.000000 0.000000 0.036251 0.000000
# 6 0.000000 0.000000 0.000000 0.000000 0.000000 0.056081
#
#
# Mechanical properties :
#
#
# Convention : Reuss Voigt Hill
#
# Bulk Modulus (GPa) = 18.77579 53.93673 36.35626
# Shear Modulus (GPa) = 14.88373 22.72357 18.80365
#
# Velocity S-wave (km/s) = 2.70535 3.34276 3.04080
# Velocity P-wave (km/s) = 4.35790 6.43595 5.49603
#
# Compressibility (1/GPa) = 0.05326007
#
# Stress axis : x y z
#
# Youngs Moduli (GPa) = 34.06389 73.10268 13.31324
#
# Poissons Ratio (x) = 0.49190 0.06720
# Poissons Ratio (y) = 0.22921 0.27516
# Poissons Ratio (z) = 0.17193 1.51091
#
# Static dielectric constant tensor:
#      x y z
#    x 1.783820 0.000000 0.000000 
#    y 0.000000 1.745640 0.000000 
#    z 0.000000 0.000000 1.724520 
# 
# From -- ./inp_files/16501.got.cif
#   From: 2010.05.17/outbox.ucp.g08.bks.cvg/sg65_9_cif.got.tgz:16501.got - 2010.06.11 16:39:57.
