data_PCOD9494700
_publ_section_title
;
Structure prediction by ZEFSAII (Michael W. Deem and Ramdas Pophale) SiO2 
 PCOD9494700
Probable space group: C M M M
;
_chemical_formula_sum "Si O2"
_cell_formula_units_Z 52
_cell_length_a 9.000000
_cell_length_b 30.000000
_cell_length_c 21.000000
_cell_angle_alpha 90.000000
_cell_angle_beta 90.000000
_cell_angle_gamma 90.000000
_cell_volume 5670.000000
_symmetry_space_group_name_H-M "C M M M"
_symmetry_group_IT_number 65
_symmetry_cell_setting 'orthorhombic'
loop_
_space_group_symop_operation_xyz
x,y,z
-x,-y,z
x,-y,-z
-x,y,-z
-x,-y,-z
x,y,-z
-x,y,z
x,-y,z
1/2+x,1/2+y,z
1/2-x,1/2-y,z
1/2+x,1/2-y,-z
1/2-x,1/2+y,-z
1/2-x,1/2-y,-z
1/2+x,1/2+y,-z
1/2-x,1/2+y,z
1/2+x,1/2-y,z
loop_
_atom_site_type_symbol
_atom_site_label
_atom_site_fract_x
_atom_site_fract_y
_atom_site_fract_z
Si Si1 0.822740 0.951481 0.153038
Si Si2 0.822271 0.146183 0.877007
Si Si3 0.827910 0.863079 0.665660
Si Si4 0.173738 0.791480 0.429905
Si Si5 0.823586 0.450191 0.708137
Si Si6 0.676395 0.201356 0.765410
Si Si7 0.324479 0.297390 0.000000
O O1 0.789780 0.906240 0.115823
O O2 0.737695 0.948125 0.219844
O O3 0.000000 0.951115 0.165783
O O4 0.787268 0.000000 0.123889
O O5 0.726868 0.169672 0.823033
O O6 0.000000 0.150469 0.862849
O O7 0.787163 0.173442 0.939431
O O8 0.817786 0.840625 0.597466
O O9 0.756600 0.911079 0.670973
O O10 0.740066 0.826888 0.707039
O O11 0.000000 0.864676 0.686624
O O12 0.240478 0.793234 0.500000
O O13 0.250000 0.750000 0.394401
O O14 0.000000 0.780282 0.431348
O O15 0.791699 0.500000 0.683929
O O16 0.000000 0.443423 0.708659
O O17 0.500000 0.206307 0.762181
O O18 0.750000 0.250000 0.771133
O O19 0.250000 0.250000 0.000000
O O20 0.500000 0.290073 0.000000
#
# Coordination Sequence:
#
# PCOD9494700 Si02
#       7
#    16  16  16  16  16  16   8
#     4   9  17  31  53  78 105 138 173 211 261 320
#     4  10  20  36  55  77 106 138 177 220 266 318
#     4  11  21  34  54  80 109 140 176 218 266 319
#     4   9  19  35  54  77 106 141 180 219 260 311
#     4  10  20  33  51  78 110 141 176 218 264 316
#     4  12  24  36  52  76 107 139 174 219 270 319
#     4  10  22  38  55  75 101 139 182 226 266 317
#
# _framework density 9.1710759999999993
#
# number of rings (size 3 to 8) (size 9 to 14) (size 15 to 20)
#    0.000    1.846    1.538    3.231    0.000    5.231 
#    0.000    0.385    0.000    2.769    0.000    3.231 
#    0.000    4.308    0.000    0.000    0.000    0.000 
#
# Total GULP energy -289664.277314 kJ/mol
# GULP energy per Si atom -5570.466871 kJ/mol
# Density = 0.915020 g / cm^3
# Si number density = 9.171076 Si / 1000 Ang^3
#
#
#
# Elastic Constant Matrix: (Units=GPa)
#
#
# Indices 1 2 3 4 5 6 
#
# 1 33.8352 70.2286 21.6976 0.0000 0.0000 0.0000
# 2 70.2286 189.1081 45.6846 0.0000 0.0000 0.0000
# 3 21.6976 45.6846 38.4303 0.0000 0.0000 0.0000
# 4 0.0000 0.0000 0.0000 3.3850 0.0000 0.0000
# 5 0.0000 0.0000 0.0000 0.0000 5.0961 0.0000
# 6 0.0000 0.0000 0.0000 0.0000 0.0000 43.9632
#
#
#
# Elastic Compliance Matrix: (Units=1/GPa)
#
#
# Indices 1 2 3 4 5 6 
#
# 1 0.144149 -0.047517 -0.024899 0.000000 0.000000 0.000000
# 2 -0.047517 0.023082 -0.000611 0.000000 0.000000 0.000000
# 3 -0.024899 -0.000611 0.040805 0.000000 0.000000 0.000000
# 4 0.000000 0.000000 0.000000 0.295421 0.000000 0.000000
# 5 0.000000 0.000000 0.000000 0.000000 0.196228 0.000000
# 6 0.000000 0.000000 0.000000 0.000000 0.000000 0.022746
#
#
# Mechanical properties :
#
#
# Convention : Reuss Voigt Hill
#
# Bulk Modulus (GPa) = 16.13377 59.62169 37.87773
# Shear Modulus (GPa) = 5.62337 18.73974 12.18155
#
# Velocity S-wave (km/s) = 1.75285 3.19983 2.57987
# Velocity P-wave (km/s) = 3.59329 6.79910 5.43781
#
# Compressibility (1/GPa) = 0.06198178
#
# Stress axis : x y z
#
# Youngs Moduli (GPa) = 6.93726 43.32392 24.50657
#
# Poissons Ratio (x) = 2.05863 0.61019
# Poissons Ratio (y) = 0.32964 0.01497
# Poissons Ratio (z) = 0.17273 0.02647
#
# Static dielectric constant tensor:
#      x y z
#    x 1.623500 0.000000 0.000000 
#    y 0.000000 1.641650 0.000000 
#    z 0.000000 0.000000 1.578270 
# 
# From -- ./inp_files/60823.got.cif
#   From: 2010.05.17/outbox.ucp.g08.bks.cvg/sg65_31_cif.got.tgz:60823.got - 2010.06.11 16:39:57.
