data_PCOD9494780
_publ_section_title
;
Structure prediction by ZEFSAII (Michael W. Deem and Ramdas Pophale) SiO2 
 PCOD9494780
Probable space group: C M M M
;
_chemical_formula_sum "Si O2"
_cell_formula_units_Z 36
_cell_length_a 21.000000
_cell_length_b 21.000000
_cell_length_c 9.000000
_cell_angle_alpha 90.000000
_cell_angle_beta 90.000000
_cell_angle_gamma 90.000000
_cell_volume 3969.000000
_symmetry_space_group_name_H-M "C M M M"
_symmetry_group_IT_number 65
_symmetry_cell_setting 'orthorhombic'
loop_
_space_group_symop_operation_xyz
x,y,z
-x,-y,z
x,-y,-z
-x,y,-z
-x,-y,-z
x,y,-z
-x,y,z
x,-y,z
1/2+x,1/2+y,z
1/2-x,1/2-y,z
1/2+x,1/2-y,-z
1/2-x,1/2+y,-z
1/2-x,1/2-y,-z
1/2+x,1/2+y,-z
1/2-x,1/2+y,z
1/2+x,1/2-y,z
loop_
_atom_site_type_symbol
_atom_site_label
_atom_site_fract_x
_atom_site_fract_y
_atom_site_fract_z
Si Si1 0.607392 0.500000 0.323009
Si Si2 0.674873 0.250629 0.819198
Si Si3 0.757453 0.000000 0.823993
Si Si4 0.926227 0.137104 0.179043
Si Si5 0.651577 0.893731 0.177189
Si Si6 0.575026 0.000000 0.665752
O O1 0.596499 0.500000 0.500000
O O2 0.681754 0.500000 0.279706
O O3 0.582260 0.432950 0.253190
O O4 0.750000 0.250000 0.774325
O O5 0.627585 0.309520 0.774198
O O6 0.651837 0.179709 0.773361
O O7 0.674766 0.252827 0.000000
O O8 0.715596 0.936103 0.797171
O O9 0.775182 0.000000 0.000000
O O10 0.000000 0.158247 0.207121
O O11 0.919295 0.129450 0.000000
O O12 0.598329 0.936957 0.251587
O O13 0.642822 0.893512 0.000000
O O14 0.500000 0.000000 0.658703
O O15 0.602881 0.000000 0.500000
#
# Coordination Sequence:
#
# PCOD9494780 Si02
#       6
#     8  16   8  16  16   8
#     4  12  24  36  54  78 105 141 182 222 264 313
#     4   9  17  32  56  84 110 135 169 218 273 324
#     4   9  17  32  55  82 110 140 174 215 266 317
#     4  10  21  37  57  80 106 139 178 220 270 325
#     4   9  18  33  56  83 107 135 175 223 269 314
#     4  10  21  35  50  72 107 150 186 217 263 319
#
# _framework density 9.0702949999999998
#
# number of rings (size 3 to 8) (size 9 to 14) (size 15 to 20)
#    0.000    2.333    0.000    3.667    0.000    8.889 
#    0.000    3.333    0.000    2.667    0.000    0.000 
#    0.000    0.000    0.000    0.000    0.000    0.000 
#
# Total GULP energy -200581.182761 kJ/mol
# GULP energy per Si atom -5571.699521 kJ/mol
# Density = 0.904965 g / cm^3
# Si number density = 9.070295 Si / 1000 Ang^3
#
#
#
# Elastic Constant Matrix: (Units=GPa)
#
#
# Indices 1 2 3 4 5 6 
#
# 1 112.6763 71.3374 35.2965 0.0000 0.0000 0.0000
# 2 71.3374 183.0117 35.9046 0.0000 0.0000 0.0000
# 3 35.2965 35.9046 26.0632 0.0000 0.0000 0.0000
# 4 0.0000 0.0000 0.0000 2.4349 0.0000 0.0000
# 5 0.0000 0.0000 0.0000 0.0000 6.5312 0.0000
# 6 0.0000 0.0000 0.0000 0.0000 0.0000 13.4013
#
#
#
# Elastic Compliance Matrix: (Units=1/GPa)
#
#
# Indices 1 2 3 4 5 6 
#
# 1 0.016390 -0.002787 -0.018356 0.000000 0.000000 0.000000
# 2 -0.002787 0.007962 -0.007193 0.000000 0.000000 0.000000
# 3 -0.018356 -0.007193 0.073137 0.000000 0.000000 0.000000
# 4 0.000000 0.000000 0.000000 0.410687 0.000000 0.000000
# 5 0.000000 0.000000 0.000000 0.000000 0.153112 0.000000
# 6 0.000000 0.000000 0.000000 0.000000 0.000000 0.074620
#
#
# Mechanical properties :
#
#
# Convention : Reuss Voigt Hill
#
# Bulk Modulus (GPa) = 24.50101 67.42536 45.96318
# Shear Modulus (GPa) = 6.20204 16.42100 11.31152
#
# Velocity S-wave (km/s) = 1.85103 3.01193 2.49980
# Velocity P-wave (km/s) = 4.25487 7.02457 5.80726
#
# Compressibility (1/GPa) = 0.04081464
#
# Stress axis : x y z
#
# Youngs Moduli (GPa) = 61.01263 125.59781 13.67296
#
# Poissons Ratio (x) = 0.35010 0.25099
# Poissons Ratio (y) = 0.17007 0.09835
# Poissons Ratio (z) = 1.11997 0.90346
#
# Static dielectric constant tensor:
#      x y z
#    x 1.654360 0.000000 0.000000 
#    y 0.000000 1.617220 0.000000 
#    z 0.000000 0.000000 1.610310 
# 
# From -- ./inp_files/11308.got.cif
#   From: 2010.05.17/outbox.ucp.g08.bks.cvg/sg65_6_cif.got.tgz:11308.got - 2010.06.11 16:39:57.
