data_PCOD9494365
_publ_section_title
;
Structure prediction by ZEFSAII (Michael W. Deem and Ramdas Pophale) SiO2 
 PCOD9494365
Probable space group: C M M M
;
_chemical_formula_sum "Si O2"
_cell_formula_units_Z 80
_cell_length_a 19.209460
_cell_length_b 27.896849
_cell_length_c 7.478144
_cell_angle_alpha 90.000000
_cell_angle_beta 90.000000
_cell_angle_gamma 90.000000
_cell_volume 4007.413270
_symmetry_space_group_name_H-M "C M M M"
_symmetry_group_IT_number 65
_symmetry_cell_setting 'orthorhombic'
loop_
_space_group_symop_operation_xyz
x,y,z
-x,-y,z
x,-y,-z
-x,y,-z
-x,-y,-z
x,y,-z
-x,y,z
x,-y,z
1/2+x,1/2+y,z
1/2-x,1/2-y,z
1/2+x,1/2-y,-z
1/2-x,1/2+y,-z
1/2-x,1/2-y,-z
1/2+x,1/2+y,-z
1/2-x,1/2+y,z
1/2+x,1/2-y,z
loop_
_atom_site_type_symbol
_atom_site_label
_atom_site_fract_x
_atom_site_fract_y
_atom_site_fract_z
Si Si1 0.922192 0.153996 0.216033
Si Si2 0.779289 0.799810 0.711457
Si Si3 0.779729 0.400415 0.283092
Si Si4 0.863685 0.947389 0.210602
Si Si5 0.423518 0.055789 0.717800
O O1 0.861542 0.190864 0.267224
O O2 0.900871 0.100578 0.282482
O O3 0.000000 0.166225 0.275637
O O4 0.922056 0.152166 0.000000
O O5 0.764397 0.799442 0.500000
O O6 0.750000 0.750000 0.785671
O O7 0.742712 0.847890 0.783275
O O8 0.779934 0.400008 0.500000
O O9 0.718608 0.436924 0.229532
O O10 0.855840 0.415867 0.220874
O O11 0.880897 0.000000 0.285523
O O12 0.880466 0.948899 0.000000
O O13 0.423120 0.057079 0.500000
O O14 0.500000 0.073160 0.775477
O O15 0.417071 0.000000 0.768532
#
# Coordination Sequence:
#
# PCOD9494365 Si02
#       5
#    16  16  16  16  16
#     4   9  18  32  49  69  92 119 152 186 221 266
#     4   9  18  32  48  67  90 115 146 185 229 271
#     4   9  16  27  44  63  84 112 147 184 218 260
#     4   9  17  28  43  65  92 120 148 180 220 264
#     4   8  13  21  35  57  82 105 132 169 210 249
#
# _framework density 19.963003
#
# number of rings (size 3 to 8) (size 9 to 14) (size 15 to 20)
#    0.000    3.200    0.000    1.200    0.000    2.400 
#    0.000    3.000    0.000    4.200    0.000    8.400 
#    0.000    0.000    0.000    0.000    0.000    0.000 
#
# Total GULP energy -222995.589153 kJ/mol
# GULP energy per Si atom -5574.889729 kJ/mol
# Density = 1.991757 g / cm^3
# Si number density = 19.963003 Si / 1000 Ang^3
#
#
#
# Elastic Constant Matrix: (Units=GPa)
#
#
# Indices 1 2 3 4 5 6 
#
# 1 119.0516 45.2294 -18.4284 0.0000 0.0000 0.0000
# 2 45.2294 105.3832 -1.7682 0.0000 0.0000 0.0000
# 3 -18.4284 -1.7682 54.6253 0.0000 0.0000 0.0000
# 4 0.0000 0.0000 0.0000 -6.8478 0.0000 0.0000
# 5 0.0000 0.0000 0.0000 0.0000 17.9404 0.0000
# 6 0.0000 0.0000 0.0000 0.0000 0.0000 12.0229
#
#
#
# Elastic Compliance Matrix: (Units=1/GPa)
#
#
# Indices 1 2 3 4 5 6 
#
# 1 0.010647 -0.004512 0.003446 0.000000 0.000000 0.000000
# 2 -0.004512 0.011406 -0.001153 0.000000 0.000000 0.000000
# 3 0.003446 -0.001153 0.019432 0.000000 0.000000 0.000000
# 4 0.000000 0.000000 0.000000 -0.146031 0.000000 0.000000
# 5 0.000000 0.000000 0.000000 0.000000 0.055740 0.000000
# 6 0.000000 0.000000 0.000000 0.000000 0.000000 0.083175
#
#
# Mechanical properties :
#
#
# Convention : Reuss Voigt Hill
#
# Bulk Modulus (GPa) = 26.99239 36.56953 31.78096
# Shear Modulus (GPa) = 97.74094 21.55824 59.64959
#
# Velocity S-wave (km/s) = 7.00481 3.28976 5.47220
# Velocity P-wave (km/s) = 8.88671 5.72612 7.47536
#
# Compressibility (1/GPa) = 0.03704748
#
# Stress axis : x y z
#
# Youngs Moduli (GPa) = 93.92106 87.67097 51.46229
#
# Poissons Ratio (x) = 0.39556 -0.17733
# Poissons Ratio (y) = 0.42376 0.05933
# Poissons Ratio (z) = -0.32364 0.10108
#
# Static dielectric constant tensor:
#      x y z
#    x 1.696670 0.000000 0.000000 
#    y 0.000000 1.701220 0.000000 
#    z 0.000000 0.000000 1.762990 
# 
# From -- ./inp_files/9657.got.cif
#   From: 2010.05.17/outbox.cif.g08.bks.cpg/sg65_5_cif.got.tgz:9657.got - 2010.06.03 17:01:31.
