data_PCOD9494114
_publ_section_title
;
Structure prediction by ZEFSAII (Michael W. Deem and Ramdas Pophale) SiO2 
 PCOD9494114
Probable space group: C M M M
;
_chemical_formula_sum "Si O2"
_cell_formula_units_Z 48
_cell_length_a 17.245736
_cell_length_b 19.131449
_cell_length_c 7.452543
_cell_angle_alpha 90.000000
_cell_angle_beta 90.000000
_cell_angle_gamma 90.000000
_cell_volume 2458.861622
_symmetry_space_group_name_H-M "C M M M"
_symmetry_group_IT_number 65
_symmetry_cell_setting 'orthorhombic'
loop_
_space_group_symop_operation_xyz
x,y,z
-x,-y,z
x,-y,-z
-x,y,-z
-x,-y,-z
x,y,-z
-x,y,z
x,-y,z
1/2+x,1/2+y,z
1/2-x,1/2-y,z
1/2+x,1/2-y,-z
1/2-x,1/2+y,-z
1/2-x,1/2-y,-z
1/2+x,1/2+y,-z
1/2-x,1/2+y,z
1/2+x,1/2-y,z
loop_
_atom_site_type_symbol
_atom_site_label
_atom_site_fract_x
_atom_site_fract_y
_atom_site_fract_z
Si Si1 0.414117 0.082384 0.500000
Si Si2 0.145223 0.822636 0.782880
Si Si3 0.824301 0.664557 0.215274
Si Si4 0.500000 0.582042 0.780423
O O1 0.500000 0.112932 0.500000
O O2 0.370675 0.107816 0.323464
O O3 0.417755 0.000000 0.500000
O O4 0.141530 0.740833 0.732024
O O5 0.233455 0.842156 0.734529
O O6 0.076636 0.874211 0.722161
O O7 0.142073 0.823743 0.000000
O O8 0.829699 0.658849 0.000000
O O9 0.500000 0.500000 0.725651
O O10 0.500000 0.581703 0.000000
#
# Coordination Sequence:
#
# PCOD9494114 Si02
#       4
#     8  16  16   8
#     4  11  26  41  54  83 115 144 195 248 294 344
#     4   8  16  31  55  88 114 144 195 232 270 342
#     4   9  19  38  62  83 109 150 195 239 282 333
#     4   9  16  26  46  83 125 150 173 225 288 346
#
# _framework density 19.521229999999999
#
# number of rings (size 3 to 8) (size 9 to 14) (size 15 to 20)
#    0.000    3.000    0.000    2.000    2.333    5.333 
#    0.000    5.000    0.000    0.000    0.000    3.500 
#    0.000    0.000    0.000    0.000    0.000    0.000 
#
# Total GULP energy -133805.752155 kJ/mol
# GULP energy per Si atom -5575.239673 kJ/mol
# Density = 1.947680 g / cm^3
# Si number density = 19.521230 Si / 1000 Ang^3
#
#
#
# Elastic Constant Matrix: (Units=GPa)
#
#
# Indices 1 2 3 4 5 6 
#
# 1 133.1639 104.6201 31.8434 0.0000 0.0000 0.0000
# 2 104.6201 119.8767 29.2247 0.0000 0.0000 0.0000
# 3 31.8434 29.2247 64.3090 0.0000 0.0000 0.0000
# 4 0.0000 0.0000 0.0000 26.7650 0.0000 0.0000
# 5 0.0000 0.0000 0.0000 0.0000 20.4000 0.0000
# 6 0.0000 0.0000 0.0000 0.0000 0.0000 63.1810
#
#
#
# Elastic Compliance Matrix: (Units=1/GPa)
#
#
# Indices 1 2 3 4 5 6 
#
# 1 0.024298 -0.020549 -0.002693 0.000000 0.000000 0.000000
# 2 -0.020549 0.026760 -0.001986 0.000000 0.000000 0.000000
# 3 -0.002693 -0.001986 0.017786 0.000000 0.000000 0.000000
# 4 0.000000 0.000000 0.000000 0.037362 0.000000 0.000000
# 5 0.000000 0.000000 0.000000 0.000000 0.049019 0.000000
# 6 0.000000 0.000000 0.000000 0.000000 0.000000 0.015828
#
#
# Mechanical properties :
#
#
# Convention : Reuss Voigt Hill
#
# Bulk Modulus (GPa) = 54.38335 72.08065 63.23200
# Shear Modulus (GPa) = 21.96482 32.17996 27.07239
#
# Velocity S-wave (km/s) = 3.35800 4.06453 3.72804
# Velocity P-wave (km/s) = 6.55393 7.68320 7.14092
#
# Compressibility (1/GPa) = 0.01838798
#
# Stress axis : x y z
#
# Youngs Moduli (GPa) = 41.15616 37.36980 56.22460
#
# Poissons Ratio (x) = 0.76791 0.15142
# Poissons Ratio (y) = 0.84571 0.11164
# Poissons Ratio (z) = 0.11084 0.07420
#
# Static dielectric constant tensor:
#      x y z
#    x 1.686050 0.000000 0.000000 
#    y 0.000000 1.659170 0.000000 
#    z 0.000000 0.000000 1.683380 
# 
# From -- ./inp_files/5797.got.cif
#   From: 2010.05.17/outbox.cif.g08.bks.cpg/sg65_3_cif.got.tgz:5797.got - 2010.06.03 17:01:31.
