data_PCOD9494762
_publ_section_title
;
Structure prediction by ZEFSAII (Michael W. Deem and Ramdas Pophale) SiO2 
 PCOD9494762
Probable space group: C M M M
;
_chemical_formula_sum "Si O2"
_cell_formula_units_Z 44
_cell_length_a 9.000000
_cell_length_b 18.000000
_cell_length_c 30.000000
_cell_angle_alpha 90.000000
_cell_angle_beta 90.000000
_cell_angle_gamma 90.000000
_cell_volume 4860.000000
_symmetry_space_group_name_H-M "C M M M"
_symmetry_group_IT_number 65
_symmetry_cell_setting 'orthorhombic'
loop_
_space_group_symop_operation_xyz
x,y,z
-x,-y,z
x,-y,-z
-x,y,-z
-x,-y,-z
x,y,-z
-x,y,z
x,-y,z
1/2+x,1/2+y,z
1/2-x,1/2-y,z
1/2+x,1/2-y,-z
1/2-x,1/2+y,-z
1/2-x,1/2-y,-z
1/2+x,1/2+y,-z
1/2-x,1/2+y,z
1/2+x,1/2-y,z
loop_
_atom_site_type_symbol
_atom_site_label
_atom_site_fract_x
_atom_site_fract_y
_atom_site_fract_z
Si Si1 0.672635 0.090401 0.314824
Si Si2 0.176585 0.089217 0.051076
Si Si3 0.179921 0.168819 0.500000
Si Si4 0.675260 0.589712 0.221530
Si Si5 0.677608 0.411663 0.407662
Si Si6 0.321454 0.831713 0.864020
O O1 0.500000 0.112173 0.312315
O O2 0.758253 0.113446 0.269676
O O3 0.743697 0.114837 0.362016
O O4 0.679496 0.000000 0.315358
O O5 0.266446 0.128141 0.090576
O O6 0.000000 0.104757 0.056602
O O7 0.195018 0.000000 0.054356
O O8 0.217730 0.110871 0.000000
O O9 0.250000 0.250000 0.500000
O O10 0.223552 0.127313 0.546043
O O11 0.000000 0.172315 0.500000
O O12 0.500000 0.607862 0.219275
O O13 0.689491 0.500000 0.218776
O O14 0.760394 0.625343 0.179696
O O15 0.500000 0.401782 0.402337
O O16 0.705658 0.500000 0.412179
O O17 0.500000 0.828497 0.862922
O O18 0.250000 0.750000 0.863511
#
# Coordination Sequence:
#
# PCOD9494762 Si02
#       6
#    16  16   8  16  16  16
#     4   9  17  30  51  81 111 136 170 219 270 317
#     4   9  19  38  63  88 114 145 182 225 273 325
#     4  10  21  35  51  73 103 138 174 214 260 314
#     4  10  20  36  59  84 111 144 181 222 270 324
#     4   9  17  32  54  77 101 133 175 219 263 312
#     4  12  25  39  56  80 113 150 187 228 273 323
#
# _framework density 9.0534979999999994
#
# number of rings (size 3 to 8) (size 9 to 14) (size 15 to 20)
#    0.000    2.182    0.000    4.091    0.000    8.364 
#    0.000    1.818    0.000    4.909    0.000    0.000 
#    0.000    0.000    0.000    0.000    0.000    0.000 
#
# Total GULP energy -245603.301370 kJ/mol
# GULP energy per Si atom -5581.893213 kJ/mol
# Density = 0.903289 g / cm^3
# Si number density = 9.053498 Si / 1000 Ang^3
#
#
#
# Elastic Constant Matrix: (Units=GPa)
#
#
# Indices 1 2 3 4 5 6 
#
# 1 129.4684 50.1117 107.1077 0.0000 0.0000 0.0000
# 2 50.1117 48.5908 63.9962 0.0000 0.0000 0.0000
# 3 107.1077 63.9962 222.3796 0.0000 0.0000 0.0000
# 4 0.0000 0.0000 0.0000 6.8035 0.0000 0.0000
# 5 0.0000 0.0000 0.0000 0.0000 36.3061 0.0000
# 6 0.0000 0.0000 0.0000 0.0000 0.0000 25.6619
#
#
#
# Elastic Compliance Matrix: (Units=1/GPa)
#
#
# Indices 1 2 3 4 5 6 
#
# 1 0.015255 -0.009752 -0.004541 0.000000 0.000000 0.000000
# 2 -0.009752 0.039375 -0.006634 0.000000 0.000000 0.000000
# 3 -0.004541 -0.006634 0.008593 0.000000 0.000000 0.000000
# 4 0.000000 0.000000 0.000000 0.146983 0.000000 0.000000
# 5 0.000000 0.000000 0.000000 0.000000 0.027544 0.000000
# 6 0.000000 0.000000 0.000000 0.000000 0.000000 0.038968
#
#
# Mechanical properties :
#
#
# Convention : Reuss Voigt Hill
#
# Bulk Modulus (GPa) = 46.79756 93.65222 70.22489
# Shear Modulus (GPa) = 15.35173 25.70252 20.52713
#
# Velocity S-wave (km/s) = 2.91492 3.77169 3.37064
# Velocity P-wave (km/s) = 6.10165 8.41435 7.34954
#
# Compressibility (1/GPa) = 0.02136864
#
# Stress axis : x y z
#
# Youngs Moduli (GPa) = 65.55081 25.39695 116.36934
#
# Poissons Ratio (x) = 0.24767 0.52847
# Poissons Ratio (y) = 0.63924 0.77204
# Poissons Ratio (z) = 0.29768 0.16849
#
# Static dielectric constant tensor:
#      x y z
#    x 1.610100 0.000000 0.000000 
#    y 0.000000 1.609020 0.000000 
#    z 0.000000 0.000000 1.608620 
# 
# From -- ./inp_files/76493.got.cif
#   From: 2010.05.17/outbox.ucp.g08.bks.cvg/sg65_39_cif.got.tgz:76493.got - 2010.06.11 16:39:57.
