data_PCOD9494161
_publ_section_title
;
Structure prediction by ZEFSAII (Michael W. Deem and Ramdas Pophale) SiO2 
 PCOD9494161
Probable space group: C M M M
;
_chemical_formula_sum "Si O2"
_cell_formula_units_Z 72
_cell_length_a 7.978125
_cell_length_b 17.758368
_cell_length_c 27.901706
_cell_angle_alpha 90.000000
_cell_angle_beta 90.000000
_cell_angle_gamma 90.000000
_cell_volume 3953.071287
_symmetry_space_group_name_H-M "C M M M"
_symmetry_group_IT_number 65
_symmetry_cell_setting 'orthorhombic'
loop_
_space_group_symop_operation_xyz
x,y,z
-x,-y,z
x,-y,-z
-x,y,-z
-x,-y,-z
x,y,-z
-x,y,z
x,-y,z
1/2+x,1/2+y,z
1/2-x,1/2-y,z
1/2+x,1/2-y,-z
1/2-x,1/2+y,-z
1/2-x,1/2-y,-z
1/2+x,1/2+y,-z
1/2-x,1/2+y,z
1/2+x,1/2-y,z
loop_
_atom_site_type_symbol
_atom_site_label
_atom_site_fract_x
_atom_site_fract_y
_atom_site_fract_z
Si Si1 0.802635 0.335869 0.000000
Si Si2 0.500000 0.908146 0.730345
Si Si3 0.805907 0.907873 0.202533
Si Si4 0.500000 0.907847 0.619987
Si Si5 0.700665 0.584551 0.902481
Si Si6 0.810073 0.091720 0.444866
O O1 0.750000 0.250000 0.000000
O O2 0.739087 0.372490 0.049063
O O3 0.000000 0.343194 0.000000
O O4 0.331581 0.884657 0.758516
O O5 0.500000 0.883791 0.675169
O O6 0.500000 0.000000 0.730613
O O7 0.748039 0.882825 0.149211
O O8 0.000000 0.885098 0.211712
O O9 0.807170 0.000000 0.200920
O O10 0.665755 0.883202 0.591231
O O11 0.500000 0.000000 0.619725
O O12 0.500000 0.579446 0.898618
O O13 0.770496 0.500000 0.906803
O O14 0.774802 0.113869 0.500000
O O15 0.000000 0.115323 0.432474
O O16 0.809347 0.000000 0.444271
#
# Coordination Sequence:
#
# PCOD9494161 Si02
#       6
#     8   8  16   8  16  16
#     4  12  25  36  49  71  99 125 147 182 229 276
#     4   9  16  23  34  52  76  97 124 169 211 259
#     4   8  15  27  42  59  79 104 132 167 209 253
#     4   9  15  20  27  42  61  86 113 153 213 257
#     4   9  18  34  54  72  92 119 150 184 222 272
#     4   8  13  20  28  37  52  79 118 160 200 250
#
# _framework density 18.213685999999999
#
# number of rings (size 3 to 8) (size 9 to 14) (size 15 to 20)
#    0.000    3.111    0.000    3.667    1.556    4.000 
#    0.000    4.444    0.000    0.000    0.000    0.000 
#    0.000    0.000    0.000    0.000    0.000    0.000 
#
# Total GULP energy -200469.610419 kJ/mol
# GULP energy per Si atom -5568.600289 kJ/mol
# Density = 1.817223 g / cm^3
# Si number density = 18.213686 Si / 1000 Ang^3
#
#
#
# Elastic Constant Matrix: (Units=GPa)
#
#
# Indices 1 2 3 4 5 6 
#
# 1 116.8307 9.9002 113.2974 0.0000 0.0000 0.0000
# 2 9.9002 6.6519 22.0454 0.0000 0.0000 0.0000
# 3 113.2974 22.0454 198.4166 0.0000 0.0000 0.0000
# 4 0.0000 0.0000 0.0000 -5.7036 0.0000 0.0000
# 5 0.0000 0.0000 0.0000 0.0000 11.6266 0.0000
# 6 0.0000 0.0000 0.0000 0.0000 0.0000 7.7952
#
#
#
# Elastic Compliance Matrix: (Units=1/GPa)
#
#
# Indices 1 2 3 4 5 6 
#
# 1 0.019834 0.012686 -0.012735 0.000000 0.000000 0.000000
# 2 0.012686 0.246065 -0.034583 0.000000 0.000000 0.000000
# 3 -0.012735 -0.034583 0.016154 0.000000 0.000000 0.000000
# 4 0.000000 0.000000 0.000000 -0.175328 0.000000 0.000000
# 5 0.000000 0.000000 0.000000 0.000000 0.086010 0.000000
# 6 0.000000 0.000000 0.000000 0.000000 0.000000 0.128283
#
#
# Mechanical properties :
#
#
# Convention : Reuss Voigt Hill
#
# Bulk Modulus (GPa) = 4.69951 68.04281 36.37116
# Shear Modulus (GPa) = 10.84100 14.52072 12.68086
#
# Velocity S-wave (km/s) = 2.44234 2.82661 2.64147
# Velocity P-wave (km/s) = 3.24641 6.93485 5.41439
#
# Compressibility (1/GPa) = 0.21278825
#
# Stress axis : x y z
#
# Youngs Moduli (GPa) = 50.41778 4.06397 61.90379
#
# Poissons Ratio (x) = -0.05155 0.78834
# Poissons Ratio (y) = -0.63959 2.14082
# Poissons Ratio (z) = 0.64207 0.14054
#
# Static dielectric constant tensor:
#      x y z
#    x 1.635640 0.000000 0.000000 
#    y 0.000000 1.593530 0.000000 
#    z 0.000000 0.000000 1.687970 
# 
# From -- ./inp_files/67145.got.cif
#   From: 2010.05.17/outbox.cif.g08.bks.cpg/sg65_34_cif.got.tgz:67145.got - 2010.06.03 17:01:31.
