data_PCOD9494241
_publ_section_title
;
Structure prediction by ZEFSAII (Michael W. Deem and Ramdas Pophale) SiO2 
 PCOD9494241
Probable space group: C M M M
;
_chemical_formula_sum "Si O2"
_cell_formula_units_Z 72
_cell_length_a 14.583610
_cell_length_b 7.189793
_cell_length_c 25.916257
_cell_angle_alpha 90.000000
_cell_angle_beta 90.000000
_cell_angle_gamma 90.000000
_cell_volume 2717.400848
_symmetry_space_group_name_H-M "C M M M"
_symmetry_group_IT_number 65
_symmetry_cell_setting 'orthorhombic'
loop_
_space_group_symop_operation_xyz
x,y,z
-x,-y,z
x,-y,-z
-x,y,-z
-x,-y,-z
x,y,-z
-x,y,z
x,-y,z
1/2+x,1/2+y,z
1/2-x,1/2-y,z
1/2+x,1/2-y,-z
1/2-x,1/2+y,-z
1/2-x,1/2-y,-z
1/2+x,1/2+y,-z
1/2-x,1/2+y,z
1/2+x,1/2-y,z
loop_
_atom_site_type_symbol
_atom_site_label
_atom_site_fract_x
_atom_site_fract_y
_atom_site_fract_z
Si Si1 0.860431 0.778513 0.555631
Si Si2 0.108466 0.774170 0.889397
Si Si3 0.641640 0.279815 0.666549
Si Si4 0.609822 0.275878 0.000000
Si Si5 0.609140 0.710269 0.779686
O O1 0.893724 0.707793 0.500000
O O2 0.750000 0.750000 0.555210
O O3 0.894400 0.708591 0.611307
O O4 0.876858 0.000000 0.555873
O O5 0.144449 0.707587 0.833778
O O6 0.000000 0.728427 0.891424
O O7 0.114454 0.000000 0.887884
O O8 0.146828 0.709835 0.944623
O O9 0.618405 0.500000 0.667983
O O10 0.750000 0.250000 0.663156
O O11 0.618587 0.203572 0.723082
O O12 0.618375 0.500000 0.000000
O O13 0.500000 0.238001 0.000000
O O14 0.500000 0.696324 0.787193
O O15 0.647945 0.500000 0.775572
#
# Coordination Sequence:
#
# PCOD9494241 Si02
#       5
#    16  16  16   8  16
#     4   8  13  21  33  49  68  88 111 141 174 204
#     4   7   9  13  22  38  60  84 109 137 169 203
#     4   9  16  25  38  55  73  93 118 147 176 207
#     4   7   8  10  18  34  57  82 105 133 170 203
#     4   8  13  21  33  49  69  93 119 144 172 209
#
# _framework density 26.495906000000002
#
# number of rings (size 3 to 8) (size 9 to 14) (size 15 to 20)
#    0.000    4.111    0.000    2.667    0.000    0.000 
#    0.000    0.000    0.000    1.333    0.000    5.444 
#    0.000    0.000    0.000   36.000    0.000   29.778 
#
# Total GULP energy -200529.067336 kJ/mol
# GULP energy per Si atom -5570.251870 kJ/mol
# Density = 2.643560 g / cm^3
# Si number density = 26.495906 Si / 1000 Ang^3
#
#
#
# Elastic Constant Matrix: (Units=GPa)
#
#
# Indices 1 2 3 4 5 6 
#
# 1 83.9365 -10.4071 16.1733 0.0000 0.0000 0.0000
# 2 -10.4071 141.9587 25.5197 0.0000 0.0000 0.0000
# 3 16.1733 25.5197 446.2682 0.0000 0.0000 0.0000
# 4 0.0000 0.0000 0.0000 -40.2235 0.0000 0.0000
# 5 0.0000 0.0000 0.0000 0.0000 16.9226 0.0000
# 6 0.0000 0.0000 0.0000 0.0000 0.0000 -11.6758
#
#
#
# Elastic Compliance Matrix: (Units=1/GPa)
#
#
# Indices 1 2 3 4 5 6 
#
# 1 0.012131 0.000978 -0.000496 0.000000 0.000000 0.000000
# 2 0.000978 0.007196 -0.000447 0.000000 0.000000 0.000000
# 3 -0.000496 -0.000447 0.002284 0.000000 0.000000 0.000000
# 4 0.000000 0.000000 0.000000 -0.024861 0.000000 0.000000
# 5 0.000000 0.000000 0.000000 0.000000 0.059092 0.000000
# 6 0.000000 0.000000 0.000000 0.000000 0.000000 -0.085648
#
#
# Mechanical properties :
#
#
# Convention : Reuss Voigt Hill
#
# Bulk Modulus (GPa) = 46.11923 81.63727 63.87825
# Shear Modulus (GPa) = -220.76090 35.72984 -92.51553
#
# Velocity S-wave (km/s) = -9.13782 3.67618 -5.91546
# Velocity P-wave (km/s) = 9.68964 6.99266 4.74298
#
# Compressibility (1/GPa) = 0.02168293
#
# Stress axis : x y z
#
# Youngs Moduli (GPa) = 82.43641 138.95876 437.76597
#
# Poissons Ratio (x) = -0.13596 0.21695
# Poissons Ratio (y) = -0.08065 0.19567
# Poissons Ratio (z) = 0.04085 0.06211
#
# Static dielectric constant tensor:
#      x y z
#    x 2.076690 0.000000 0.000000 
#    y 0.000000 2.007450 0.000000 
#    z 0.000000 0.000000 2.184170 
# 
# From -- ./inp_files/67236.got.cif
#   From: 2010.05.17/outbox.cif.g08.bks.cpg/sg65_34_cif.got.tgz:67236.got - 2010.06.03 17:01:31.
