data_PCOD9494258
_publ_section_title
;
Structure prediction by ZEFSAII (Michael W. Deem and Ramdas Pophale) SiO2 
 PCOD9494258
Probable space group: C M M M
;
_chemical_formula_sum "Si O2"
_cell_formula_units_Z 88
_cell_length_a 14.562860
_cell_length_b 7.325334
_cell_length_c 31.602148
_cell_angle_alpha 90.000000
_cell_angle_beta 90.000000
_cell_angle_gamma 90.000000
_cell_volume 3371.248050
_symmetry_space_group_name_H-M "C M M M"
_symmetry_group_IT_number 65
_symmetry_cell_setting 'orthorhombic'
loop_
_space_group_symop_operation_xyz
x,y,z
-x,-y,z
x,-y,-z
-x,y,-z
-x,-y,-z
x,y,-z
-x,y,z
x,-y,z
1/2+x,1/2+y,z
1/2-x,1/2-y,z
1/2+x,1/2-y,-z
1/2-x,1/2+y,-z
1/2-x,1/2-y,-z
1/2+x,1/2+y,-z
1/2-x,1/2+y,z
1/2+x,1/2-y,z
loop_
_atom_site_type_symbol
_atom_site_label
_atom_site_fract_x
_atom_site_fract_y
_atom_site_fract_z
Si Si1 0.390776 0.206497 0.683586
Si Si2 0.604951 0.217784 0.227546
Si Si3 0.139679 0.281511 0.500000
Si Si4 0.358262 0.782801 0.590906
Si Si5 0.605715 0.718182 0.135522
Si Si6 0.388612 0.717796 0.045374
O O1 0.500000 0.193231 0.690382
O O2 0.355418 0.289280 0.727849
O O3 0.382318 0.292318 0.637200
O O4 0.351758 0.000000 0.679571
O O5 0.500000 0.289060 0.223822
O O6 0.647984 0.246251 0.181477
O O7 0.601119 0.000000 0.233152
O O8 0.125100 0.500000 0.500000
O O9 0.250000 0.250000 0.500000
O O10 0.105155 0.213099 0.454379
O O11 0.250000 0.750000 0.588399
O O12 0.380233 0.000000 0.591847
O O13 0.500000 0.786612 0.137578
O O14 0.602157 0.500000 0.131614
O O15 0.645344 0.788582 0.090901
O O16 0.500000 0.740189 0.046215
O O17 0.371871 0.500000 0.044341
O O18 0.356388 0.792783 0.000000
#
# Coordination Sequence:
#
# PCOD9494258 Si02
#       6
#    16  16   8  16  16  16
#     4   8  14  25  40  56  75 101 130 157 186 223
#     4   8  13  21  32  44  59  83 114 143 172 209
#     4   8  14  24  39  59  79  99 123 152 186 222
#     4   9  16  27  43  61  80 101 127 157 188 224
#     4   8  12  17  26  40  56  75 103 140 177 208
#     4   7   9  13  21  33  49  70  98 132 168 205
#
# _framework density 26.103093999999999
#
# number of rings (size 3 to 8) (size 9 to 14) (size 15 to 20)
#    0.000    4.000    0.000    2.727    0.000    0.000 
#    0.000    1.364    0.000    4.909    0.000    3.818 
#    0.000    7.273    0.000    0.000    0.000    0.909 
#
# Total GULP energy -245011.724579 kJ/mol
# GULP energy per Si atom -5568.448286 kJ/mol
# Density = 2.604368 g / cm^3
# Si number density = 26.103094 Si / 1000 Ang^3
#
#
#
# Elastic Constant Matrix: (Units=GPa)
#
#
# Indices 1 2 3 4 5 6 
#
# 1 85.6447 -8.4586 17.1972 0.0000 0.0000 0.0000
# 2 -8.4586 111.7073 19.4753 0.0000 0.0000 0.0000
# 3 17.1972 19.4753 428.4299 0.0000 0.0000 0.0000
# 4 0.0000 0.0000 0.0000 0.0928 0.0000 0.0000
# 5 0.0000 0.0000 0.0000 0.0000 15.9956 0.0000
# 6 0.0000 0.0000 0.0000 0.0000 0.0000 -8.6276
#
#
#
# Elastic Compliance Matrix: (Units=1/GPa)
#
#
# Indices 1 2 3 4 5 6 
#
# 1 0.011879 0.000990 -0.000522 0.000000 0.000000 0.000000
# 2 0.000990 0.009106 -0.000454 0.000000 0.000000 0.000000
# 3 -0.000522 -0.000454 0.002376 0.000000 0.000000 0.000000
# 4 0.000000 0.000000 0.000000 10.780707 0.000000 0.000000
# 5 0.000000 0.000000 0.000000 0.000000 0.062517 0.000000
# 6 0.000000 0.000000 0.000000 0.000000 0.000000 -0.115907
#
#
# Mechanical properties :
#
#
# Convention : Reuss Voigt Hill
#
# Bulk Modulus (GPa) = 42.75274 75.80109 59.27692
# Shear Modulus (GPa) = 0.46475 41.33003 20.89739
#
# Velocity S-wave (km/s) = 0.42241 3.98344 2.83251
# Velocity P-wave (km/s) = 4.08067 7.08937 5.78408
#
# Compressibility (1/GPa) = 0.02339031
#
# Stress axis : x y z
#
# Youngs Moduli (GPa) = 84.18397 109.81699 420.93310
#
# Poissons Ratio (x) = -0.10877 0.21966
# Poissons Ratio (y) = -0.08338 0.19097
# Poissons Ratio (z) = 0.04393 0.04982
#
# Static dielectric constant tensor:
#      x y z
#    x 2.166380 0.000000 0.000000 
#    y 0.000000 3.302400 0.000000 
#    z 0.000000 0.000000 2.195910 
# 
# From -- ./inp_files/74747.got.cif
#   From: 2010.05.17/outbox.cif.g08.bks.cpg/sg65_38_cif.got.tgz:74747.got - 2010.06.03 17:01:31.
