data_PCOD9494247
_publ_section_title
;
Structure prediction by ZEFSAII (Michael W. Deem and Ramdas Pophale) SiO2 
 PCOD9494247
Probable space group: C M M M
;
_chemical_formula_sum "Si O2"
_cell_formula_units_Z 112
_cell_length_a 25.045160
_cell_length_b 13.302426
_cell_length_c 14.396949
_cell_angle_alpha 90.000000
_cell_angle_beta 90.000000
_cell_angle_gamma 90.000000
_cell_volume 4796.507505
_symmetry_space_group_name_H-M "C M M M"
_symmetry_group_IT_number 65
_symmetry_cell_setting 'orthorhombic'
loop_
_space_group_symop_operation_xyz
x,y,z
-x,-y,z
x,-y,-z
-x,y,-z
-x,-y,-z
x,y,-z
-x,y,z
x,-y,z
1/2+x,1/2+y,z
1/2-x,1/2-y,z
1/2+x,1/2-y,-z
1/2-x,1/2+y,-z
1/2-x,1/2-y,-z
1/2+x,1/2+y,-z
1/2-x,1/2+y,z
1/2+x,1/2-y,z
loop_
_atom_site_type_symbol
_atom_site_label
_atom_site_fract_x
_atom_site_fract_y
_atom_site_fract_z
Si Si1 0.941594 0.183233 0.113172
Si Si2 0.212974 0.621980 0.803323
Si Si3 0.823466 0.119540 0.893600
Si Si4 0.396624 0.112396 0.889963
Si Si5 0.556150 0.377744 0.610343
Si Si6 0.833124 0.112031 0.610917
Si Si7 0.287871 0.877160 0.398104
O O1 0.884426 0.135880 0.139914
O O2 0.935248 0.299444 0.143124
O O3 0.000000 0.141839 0.141218
O O4 0.941339 0.178218 0.000000
O O5 0.216491 0.500000 0.801550
O O6 0.273163 0.655172 0.831152
O O7 0.164983 0.645238 0.873588
O O8 0.190010 0.651777 0.701925
O O9 0.817165 0.000000 0.898977
O O10 0.817997 0.158018 0.000000
O O11 0.404310 0.000000 0.850465
O O12 0.404743 0.105817 0.000000
O O13 0.553759 0.357333 0.500000
O O14 0.500000 0.341901 0.650709
O O15 0.558044 0.500000 0.619539
O O16 0.612715 0.337949 0.646085
O O17 0.841556 0.100549 0.500000
O O18 0.774120 0.153357 0.614275
O O19 0.829580 0.000000 0.653341
O O20 0.307896 0.842508 0.500000
O O21 0.288935 0.000000 0.402923
#
# Coordination Sequence:
#
# PCOD9494247 Si02
#       7
#    16  16  16  16  16  16  16
#     4   9  18  31  47  70  98 129 166 200 235 286
#     4   9  16  26  41  63  93 127 162 198 241 294
#     4   9  17  29  46  69  98 131 165 201 237 276
#     4   9  17  29  46  70 101 132 159 193 238 289
#     4   7   8   9  14  25  41  63  95 136 181 230
#     4   7   9  13  21  34  54  82 116 155 203 254
#     4   8  13  21  34  53  79 112 149 191 237 284
#
# _framework density 23.350322999999999
#
# number of rings (size 3 to 8) (size 9 to 14) (size 15 to 20)
#    0.000    3.714    0.000    2.571    0.000    2.857 
#    0.000    5.000    0.000    0.857    0.000    6.000 
#    0.000    1.714    0.000    5.571    0.000    0.143 
#
# Total GULP energy -311872.089501 kJ/mol
# GULP energy per Si atom -5569.144455 kJ/mol
# Density = 2.329718 g / cm^3
# Si number density = 23.350323 Si / 1000 Ang^3
#
#
#
# Elastic Constant Matrix: (Units=GPa)
#
#
# Indices 1 2 3 4 5 6 
#
# 1 93.5532 24.2144 5.6973 0.0000 0.0000 0.0000
# 2 24.2144 56.8328 12.2750 0.0000 0.0000 0.0000
# 3 5.6973 12.2750 91.6427 0.0000 0.0000 0.0000
# 4 0.0000 0.0000 0.0000 12.8182 0.0000 0.0000
# 5 0.0000 0.0000 0.0000 0.0000 -14.7727 0.0000
# 6 0.0000 0.0000 0.0000 0.0000 0.0000 19.4332
#
#
#
# Elastic Compliance Matrix: (Units=1/GPa)
#
#
# Indices 1 2 3 4 5 6 
#
# 1 0.012014 -0.005105 -0.000063 0.000000 0.000000 0.000000
# 2 -0.005105 0.020289 -0.002400 0.000000 0.000000 0.000000
# 3 -0.000063 -0.002400 0.011237 0.000000 0.000000 0.000000
# 4 0.000000 0.000000 0.000000 0.078014 0.000000 0.000000
# 5 0.000000 0.000000 0.000000 0.000000 -0.067692 0.000000
# 6 0.000000 0.000000 0.000000 0.000000 0.000000 0.051458
#
#
# Mechanical properties :
#
#
# Convention : Reuss Voigt Hill
#
# Bulk Modulus (GPa) = 35.20677 36.26690 35.73684
# Shear Modulus (GPa) = 38.48352 16.81854 27.65103
#
# Velocity S-wave (km/s) = 4.06408 2.68670 3.44493
# Velocity P-wave (km/s) = 6.09366 5.01895 5.58222
#
# Compressibility (1/GPa) = 0.02840363
#
# Stress axis : x y z
#
# Youngs Moduli (GPa) = 83.23385 49.28771 88.98884
#
# Poissons Ratio (x) = 0.25163 0.00562
# Poissons Ratio (y) = 0.42493 0.21359
# Poissons Ratio (z) = 0.00525 0.11830
#
# Static dielectric constant tensor:
#      x y z
#    x 1.914410 0.000000 0.000000 
#    y 0.000000 2.017630 0.000000 
#    z 0.000000 0.000000 1.922890 
# 
# From -- ./inp_files/45772.got.cif
#   From: 2010.05.17/outbox.cif.g08.bks.cpg/sg65_23_cif.got.tgz:45772.got - 2010.06.03 17:01:31.
