data_PCOD9494874
_publ_section_title
;
Structure prediction by ZEFSAII (Michael W. Deem and Ramdas Pophale) SiO2 
 PCOD9494874
Probable space group: C M M M
;
_chemical_formula_sum "Si O2"
_cell_formula_units_Z 32
_cell_length_a 9.000000
_cell_length_b 15.000000
_cell_length_c 24.000000
_cell_angle_alpha 90.000000
_cell_angle_beta 90.000000
_cell_angle_gamma 90.000000
_cell_volume 3240.000000
_symmetry_space_group_name_H-M "C M M M"
_symmetry_group_IT_number 65
_symmetry_cell_setting 'orthorhombic'
loop_
_space_group_symop_operation_xyz
x,y,z
-x,-y,z
x,-y,-z
-x,y,-z
-x,-y,-z
x,y,-z
-x,y,z
x,-y,z
1/2+x,1/2+y,z
1/2-x,1/2-y,z
1/2+x,1/2-y,-z
1/2-x,1/2+y,-z
1/2-x,1/2-y,-z
1/2+x,1/2+y,-z
1/2-x,1/2+y,z
1/2+x,1/2-y,z
loop_
_atom_site_type_symbol
_atom_site_label
_atom_site_fract_x
_atom_site_fract_y
_atom_site_fract_z
Si Si1 0.821997 0.839699 0.622151
Si Si2 0.319768 0.602614 0.500000
Si Si3 0.827733 0.607313 0.000000
Si Si4 0.673304 0.000000 0.181837
Si Si5 0.672559 0.000000 0.314650
Si Si6 0.322215 0.658317 0.116248
O O1 0.750000 0.750000 0.643176
O O2 0.772298 0.854084 0.557853
O O3 0.000000 0.838353 0.623415
O O4 0.757678 0.917142 0.659533
O O5 0.271598 0.500000 0.500000
O O6 0.500000 0.603289 0.500000
O O7 0.742126 0.639074 0.054700
O O8 0.829243 0.500000 0.000000
O O9 0.000000 0.638370 0.000000
O O10 0.677558 0.000000 0.248198
O O11 0.758730 0.916545 0.156571
O O12 0.500000 0.000000 0.163454
O O13 0.500000 0.000000 0.332000
O O14 0.500000 0.660519 0.115319
O O15 0.250000 0.750000 0.135231
#
# Coordination Sequence:
#
# PCOD9494874 Si02
#       6
#    16   8   8   8   8  16
#     4  11  22  39  64  92 127 164 205 254 309 371
#     4   9  17  34  60  91 124 162 202 249 308 369
#     4  11  22  39  66  96 133 171 205 251 310 370
#     4  11  25  46  67  90 123 162 210 265 314 367
#     4  11  25  44  65  90 122 162 211 261 312 369
#     4  12  25  42  67  97 130 166 209 256 310 372
#
# _framework density 9.8765429999999999
#
# number of rings (size 3 to 8) (size 9 to 14) (size 15 to 20)
#    0.000    1.000    2.500    4.875    0.000    3.500 
#    0.000    2.500    0.000    0.000    0.000    0.000 
#    0.000    0.000    0.000    0.000    0.000    0.000 
#
# Total GULP energy -178877.865114 kJ/mol
# GULP energy per Si atom -5589.933285 kJ/mol
# Density = 0.985406 g / cm^3
# Si number density = 9.876543 Si / 1000 Ang^3
#
#
#
# Elastic Constant Matrix: (Units=GPa)
#
#
# Indices 1 2 3 4 5 6 
#
# 1 175.0183 77.4254 58.4102 0.0000 0.0000 0.0000
# 2 77.4254 185.9469 54.3508 0.0000 0.0000 0.0000
# 3 58.4102 54.3508 75.2762 0.0000 0.0000 0.0000
# 4 0.0000 0.0000 0.0000 131.7488 0.0000 0.0000
# 5 0.0000 0.0000 0.0000 0.0000 35.0816 0.0000
# 6 0.0000 0.0000 0.0000 0.0000 0.0000 22.7850
#
#
#
# Elastic Compliance Matrix: (Units=1/GPa)
#
#
# Indices 1 2 3 4 5 6 
#
# 1 0.008249 -0.001982 -0.004970 0.000000 0.000000 0.000000
# 2 -0.001982 0.007293 -0.003727 0.000000 0.000000 0.000000
# 3 -0.004970 -0.003727 0.019832 0.000000 0.000000 0.000000
# 4 0.000000 0.000000 0.000000 0.007590 0.000000 0.000000
# 5 0.000000 0.000000 0.000000 0.000000 0.028505 0.000000
# 6 0.000000 0.000000 0.000000 0.000000 0.000000 0.043888
#
#
# Mechanical properties :
#
#
# Convention : Reuss Voigt Hill
#
# Bulk Modulus (GPa) = 71.35137 90.73492 81.04315
# Shear Modulus (GPa) = 35.36373 54.32674 44.84524
#
# Velocity S-wave (km/s) = 4.23577 5.25001 4.76993
# Velocity P-wave (km/s) = 7.75386 9.09860 8.45301
#
# Compressibility (1/GPa) = 0.01401515
#
# Stress axis : x y z
#
# Youngs Moduli (GPa) = 121.22427 137.12277 50.42382
#
# Poissons Ratio (x) = 0.27181 0.25059
# Poissons Ratio (y) = 0.24029 0.18795
# Poissons Ratio (z) = 0.60245 0.51111
#
# Static dielectric constant tensor:
#      x y z
#    x 1.639300 0.000000 0.000000 
#    y 0.000000 1.649240 0.000000 
#    z 0.000000 0.000000 1.677040 
# 
# From -- ./inp_files/66898.got.cif
#   From: 2010.05.17/outbox.ucp.g08.bks.cvg/sg65_34_cif.got.tgz:66898.got - 2010.06.11 16:39:57.
