data_PCOD9494280
_publ_section_title
;
Structure prediction by ZEFSAII (Michael W. Deem and Ramdas Pophale) SiO2 
 PCOD9494280
Probable space group: C M M M
;
_chemical_formula_sum "Si O2"
_cell_formula_units_Z 56
_cell_length_a 7.242820
_cell_length_b 15.036566
_cell_length_c 20.180390
_cell_angle_alpha 90.000000
_cell_angle_beta 90.000000
_cell_angle_gamma 90.000000
_cell_volume 2197.788578
_symmetry_space_group_name_H-M "C M M M"
_symmetry_group_IT_number 65
_symmetry_cell_setting 'orthorhombic'
loop_
_space_group_symop_operation_xyz
x,y,z
-x,-y,z
x,-y,-z
-x,y,-z
-x,-y,-z
x,y,-z
-x,y,z
x,-y,z
1/2+x,1/2+y,z
1/2-x,1/2-y,z
1/2+x,1/2-y,-z
1/2-x,1/2+y,-z
1/2-x,1/2-y,-z
1/2+x,1/2+y,-z
1/2-x,1/2+y,z
1/2+x,1/2-y,z
loop_
_atom_site_type_symbol
_atom_site_label
_atom_site_fract_x
_atom_site_fract_y
_atom_site_fract_z
Si Si1 0.779851 0.642875 0.928613
Si Si2 0.719086 0.145214 0.643774
Si Si3 0.794134 0.395588 0.500000
Si Si4 0.220320 0.642776 0.214120
O O1 0.750000 0.750000 0.928733
O O2 0.709576 0.609852 0.857251
O O3 0.000000 0.627359 0.928509
O O4 0.709444 0.610087 0.000000
O O5 0.500000 0.123352 0.640898
O O6 0.750000 0.250000 0.649558
O O7 0.794604 0.123694 0.571059
O O8 0.789088 0.108606 0.714476
O O9 0.817189 0.500000 0.500000
O O10 0.000000 0.351118 0.500000
O O11 0.250000 0.750000 0.213205
O O12 0.000000 0.627953 0.214715
#
# Coordination Sequence:
#
# PCOD9494280 Si02
#       4
#    16  16   8  16
#     4   8  12  17  25  38  59  86 111 134 163 200
#     4   9  16  26  41  58  75  96 122 152 183 216
#     4   9  17  28  41  57  76  97 122 152 184 217
#     4   8  13  20  30  46  66  87 113 142 171 204
#
# _framework density 25.480159
#
# number of rings (size 3 to 8) (size 9 to 14) (size 15 to 20)
#    0.000    3.571    0.000    0.429    0.000    0.000 
#    0.000    0.000    0.000    1.714    0.000    0.000 
#    0.000    1.143    0.000   16.000    0.000    5.429 
#
# Total GULP energy -155911.764022 kJ/mol
# GULP energy per Si atom -5568.277286 kJ/mol
# Density = 2.542217 g / cm^3
# Si number density = 25.480159 Si / 1000 Ang^3
#
#
#
# Elastic Constant Matrix: (Units=GPa)
#
#
# Indices 1 2 3 4 5 6 
#
# 1 129.0185 -11.2506 24.3163 0.0000 0.0000 0.0000
# 2 -11.2506 52.8446 25.4678 0.0000 0.0000 0.0000
# 3 24.3163 25.4678 434.6921 0.0000 0.0000 0.0000
# 4 0.0000 0.0000 0.0000 -73.3882 0.0000 0.0000
# 5 0.0000 0.0000 0.0000 0.0000 1.6798 0.0000
# 6 0.0000 0.0000 0.0000 0.0000 0.0000 -10.4234
#
#
#
# Elastic Compliance Matrix: (Units=1/GPa)
#
#
# Indices 1 2 3 4 5 6 
#
# 1 0.008030 0.001982 -0.000565 0.000000 0.000000 0.000000
# 2 0.001982 0.019963 -0.001280 0.000000 0.000000 0.000000
# 3 -0.000565 -0.001280 0.002407 0.000000 0.000000 0.000000
# 4 0.000000 0.000000 0.000000 -0.013626 0.000000 0.000000
# 5 0.000000 0.000000 0.000000 0.000000 0.595312 0.000000
# 6 0.000000 0.000000 0.000000 0.000000 0.000000 -0.095938
#
#
# Mechanical properties :
#
#
# Convention : Reuss Voigt Hill
#
# Bulk Modulus (GPa) = 32.60254 77.06914 54.83584
# Shear Modulus (GPa) = 9.50391 22.10842 15.80616
#
# Velocity S-wave (km/s) = 1.93340 2.94882 2.49335
# Velocity P-wave (km/s) = 4.21984 6.47352 5.46413
#
# Compressibility (1/GPa) = 0.03067245
#
# Stress axis : x y z
#
# Youngs Moduli (GPa) = 124.52969 50.09392 415.43388
#
# Poissons Ratio (x) = -0.09929 0.23486
# Poissons Ratio (y) = -0.24683 0.53194
# Poissons Ratio (z) = 0.07040 0.06414
#
# Static dielectric constant tensor:
#      x y z
#    x 2.206470 0.000000 0.000000 
#    y 0.000000 1.918210 0.000000 
#    z 0.000000 0.000000 2.146500 
# 
# From -- ./inp_files/52445.got.cif
#   From: 2010.05.17/outbox.cif.g08.bks.cpg/sg65_27_cif.got.tgz:52445.got - 2010.06.03 17:01:31.
