data_PCOD9494945
_publ_section_title
;
Structure prediction by ZEFSAII (Michael W. Deem and Ramdas Pophale) SiO2 
 PCOD9494945
Probable space group: C C C M
;
_chemical_formula_sum "Si O2"
_cell_formula_units_Z 72
_cell_length_a 14.916170
_cell_length_b 17.371258
_cell_length_c 14.335541
_cell_angle_alpha 90.000000
_cell_angle_beta 90.000000
_cell_angle_gamma 90.000000
_cell_volume 3714.519838
_symmetry_space_group_name_H-M "C C C M"
_symmetry_group_IT_number 66
_symmetry_cell_setting 'orthorhombic'
loop_
_space_group_symop_operation_xyz
x,y,z
-x,-y,z
x,-y,1/2-z
-x,y,1/2-z
-x,-y,-z
x,y,-z
-x,y,1/2+z
x,-y,1/2+z
1/2+x,1/2+y,z
1/2-x,1/2-y,z
1/2+x,1/2-y,1/2-z
1/2-x,1/2+y,1/2-z
1/2-x,1/2-y,-z
1/2+x,1/2+y,-z
1/2-x,1/2+y,1/2+z
1/2+x,1/2-y,1/2+z
loop_
_atom_site_type_symbol
_atom_site_label
_atom_site_fract_x
_atom_site_fract_y
_atom_site_fract_z
Si Si1 0.272482 0.507076 0.000000
Si Si2 0.789954 0.924853 0.301487
Si Si3 0.594368 0.114192 0.289941
Si Si4 0.087621 0.448640 0.000000
Si Si5 0.852019 0.218800 0.699550
Si Si6 0.322261 0.677028 0.500000
O O1 0.299890 0.552518 0.908375
O O2 0.165958 0.510241 0.000000
O O3 0.289933 0.413315 0.000000
O O4 0.685968 0.913951 0.262821
O O5 0.845773 0.850376 0.271890
O O6 0.824994 0.000000 0.250000
O O7 0.500000 0.083575 0.250000
O O8 0.597958 0.097298 0.401726
O O9 0.593989 0.205781 0.275839
O O10 0.000000 0.500000 0.000000
O O11 0.750000 0.250000 0.693801
O O12 0.874345 0.188170 0.596496
O O13 0.250000 0.750000 0.500000
#
# Coordination Sequence:
#
# PCOD9494945 Si02
#       6
#     8  16  16   8  16   8
#     4  12  20  32  52  87 109 139 179 232 277 325
#     4  11  20  34  55  82 110 139 184 233 279 320
#     4  11  23  37  53  79 116 153 180 217 278 346
#     4  12  22  32  53  82 118 147 181 223 277 342
#     4   9  18  34  52  75 106 144 184 226 267 327
#     4  10  16  28  54  77 102 133 181 230 271 316
#
# _framework density 19.383393000000002
#
# number of rings (size 3 to 8) (size 9 to 14) (size 15 to 20)
#    0.000    1.333    4.444    4.667    0.000    0.000 
#    0.000    6.111    0.000    0.667    0.000    1.556 
#    0.000    0.000    0.000    0.000    0.000    0.000 
#
# Total GULP energy -200441.144281 kJ/mol
# GULP energy per Si atom -5567.809563 kJ/mol
# Density = 1.933928 g / cm^3
# Si number density = 19.383393 Si / 1000 Ang^3
#
#
#
# Elastic Constant Matrix: (Units=GPa)
#
#
# Indices 1 2 3 4 5 6 
#
# 1 18.8725 14.3373 4.4659 0.0000 0.0000 0.0000
# 2 14.3373 159.1315 77.3692 0.0000 0.0000 0.0000
# 3 4.4659 77.3692 156.5780 0.0000 0.0000 0.0000
# 4 0.0000 0.0000 0.0000 53.9298 0.0000 0.0000
# 5 0.0000 0.0000 0.0000 0.0000 -1.5243 0.0000
# 6 0.0000 0.0000 0.0000 0.0000 0.0000 14.1138
#
#
#
# Elastic Compliance Matrix: (Units=1/GPa)
#
#
# Indices 1 2 3 4 5 6 
#
# 1 0.057052 -0.005724 0.001201 0.000000 0.000000 0.000000
# 2 -0.005724 0.008846 -0.004208 0.000000 0.000000 0.000000
# 3 0.001201 -0.004208 0.008431 0.000000 0.000000 0.000000
# 4 0.000000 0.000000 0.000000 0.018543 0.000000 0.000000
# 5 0.000000 0.000000 0.000000 0.000000 -0.656051 0.000000
# 6 0.000000 0.000000 0.000000 0.000000 0.000000 0.070853
#
#
# Mechanical properties :
#
#
# Convention : Reuss Voigt Hill
#
# Bulk Modulus (GPa) = 17.58474 58.54743 38.06609
# Shear Modulus (GPa) = -10.96706 29.19784 9.11539
#
# Velocity S-wave (km/s) = -2.38123 3.88536 2.17092
# Velocity P-wave (km/s) = 1.23751 7.09919 5.09559
#
# Compressibility (1/GPa) = 0.05686748
#
# Stress axis : x y z
#
# Youngs Moduli (GPa) = 17.52800 113.05127 118.60444
#
# Poissons Ratio (x) = 0.64714 -0.14248
# Poissons Ratio (y) = 0.10033 0.49903
# Poissons Ratio (z) = -0.02106 0.47567
#
# Static dielectric constant tensor:
#      x y z
#    x 1.735960 0.000000 0.000000 
#    y 0.000000 1.701990 0.000000 
#    z 0.000000 0.000000 1.858220 
# 
# From -- ./inp_files/17488.got.cif
#   From: 2010.05.17/outbox.cif.g08.bks.cpg/sg66_9_cif.got.tgz:17488.got - 2010.06.03 17:51:23.
