data_PCOD9494144
_publ_section_title
;
Structure prediction by ZEFSAII (Michael W. Deem and Ramdas Pophale) SiO2 
 PCOD9494144
Probable space group: C M M M
;
_chemical_formula_sum "Si O2"
_cell_formula_units_Z 50
_cell_length_a 21.476866
_cell_length_b 16.174059
_cell_length_c 7.690494
_cell_angle_alpha 90.000000
_cell_angle_beta 90.000000
_cell_angle_gamma 90.000000
_cell_volume 2671.432272
_symmetry_space_group_name_H-M "C M M M"
_symmetry_group_IT_number 65
_symmetry_cell_setting 'orthorhombic'
loop_
_space_group_symop_operation_xyz
x,y,z
-x,-y,z
x,-y,-z
-x,y,-z
-x,-y,-z
x,y,-z
-x,y,z
x,-y,z
1/2+x,1/2+y,z
1/2-x,1/2-y,z
1/2+x,1/2-y,-z
1/2-x,1/2+y,-z
1/2-x,1/2-y,-z
1/2+x,1/2+y,-z
1/2-x,1/2+y,z
1/2+x,1/2-y,z
loop_
_atom_site_type_symbol
_atom_site_label
_atom_site_fract_x
_atom_site_fract_y
_atom_site_fract_z
Si Si1 0.658297 0.599822 0.200870
Si Si2 0.395151 0.854906 0.500000
Si Si3 0.699654 0.100135 0.202242
Si Si4 0.500000 0.000000 0.500000
Si Si5 0.428989 0.332622 0.500000
O O1 0.656517 0.500000 0.210559
O O2 0.729337 0.624876 0.246166
O O3 0.608659 0.636003 0.332337
O O4 0.646997 0.623206 0.000000
O O5 0.350487 0.863185 0.332189
O O6 0.445378 0.927772 0.500000
O O7 0.426851 0.766156 0.500000
O O8 0.696670 0.000000 0.216223
O O9 0.688244 0.121315 0.000000
O O10 0.500000 0.362407 0.500000
#
# Coordination Sequence:
#
# PCOD9494144 Si02
#       5
#    16   8  16   2   8
#     4   9  20  40  64  90 119 150 189 240 296 354
#     4  12  23  40  60  83 120 159 199 247 287 334
#     4   9  18  36  64  90 111 147 198 246 294 346
#     4  12  24  44  62  80 122 170 202 228 282 352
#     4  12  26  38  54  86 123 159 198 240 289 345
#
# _framework density 18.716550999999999
#
# number of rings (size 3 to 8) (size 9 to 14) (size 15 to 20)
#    0.000    1.920    2.400    3.360    0.000    8.320 
#    0.000    6.400    0.000    0.000    0.000    0.000 
#    0.000    0.000    0.000    0.000    0.000    0.000 
#
# Total GULP energy -139393.880935 kJ/mol
# GULP energy per Si atom -5575.755237 kJ/mol
# Density = 1.867395 g / cm^3
# Si number density = 18.716551 Si / 1000 Ang^3
#
#
#
# Elastic Constant Matrix: (Units=GPa)
#
#
# Indices 1 2 3 4 5 6 
#
# 1 160.8632 29.6783 91.0039 0.0000 0.0000 0.0000
# 2 29.6783 30.9733 23.1804 0.0000 0.0000 0.0000
# 3 91.0039 23.1804 92.4429 0.0000 0.0000 0.0000
# 4 0.0000 0.0000 0.0000 71.6736 0.0000 0.0000
# 5 0.0000 0.0000 0.0000 0.0000 -24.1881 0.0000
# 6 0.0000 0.0000 0.0000 0.0000 0.0000 81.4177
#
#
#
# Elastic Compliance Matrix: (Units=1/GPa)
#
#
# Indices 1 2 3 4 5 6 
#
# 1 0.014408 -0.003928 -0.013199 0.000000 0.000000 0.000000
# 2 -0.003928 0.040815 -0.006368 0.000000 0.000000 0.000000
# 3 -0.013199 -0.006368 0.025408 0.000000 0.000000 0.000000
# 4 0.000000 0.000000 0.000000 0.013952 0.000000 0.000000
# 5 0.000000 0.000000 0.000000 0.000000 -0.041343 0.000000
# 6 0.000000 0.000000 0.000000 0.000000 0.000000 0.012282
#
#
# Mechanical properties :
#
#
# Convention : Reuss Voigt Hill
#
# Bulk Modulus (GPa) = 29.72500 63.55609 46.64054
# Shear Modulus (GPa) = 40.41205 35.14175 37.77690
#
# Velocity S-wave (km/s) = 4.65172 4.33780 4.49750
# Velocity P-wave (km/s) = 6.69085 7.68893 7.20718
#
# Compressibility (1/GPa) = 0.03364172
#
# Stress axis : x y z
#
# Youngs Moduli (GPa) = 69.40628 24.50073 39.35820
#
# Poissons Ratio (x) = 0.09623 0.51948
# Poissons Ratio (y) = 0.27260 0.25064
# Poissons Ratio (z) = 0.91608 0.15602
#
# Static dielectric constant tensor:
#      x y z
#    x 1.617160 0.000000 0.000000 
#    y 0.000000 1.651860 0.000000 
#    z 0.000000 0.000000 1.634170 
# 
# From -- ./inp_files/8211.got.cif
#   From: 2010.05.17/outbox.cif.g08.bks.cpg/sg65_5_cif.got.tgz:8211.got - 2010.06.03 17:01:31.
