data_PCOD9494590
_publ_section_title
;
Structure prediction by ZEFSAII (Michael W. Deem and Ramdas Pophale) SiO2 
 PCOD9494590
Probable space group: C M M M
;
_chemical_formula_sum "Si O2"
_cell_formula_units_Z 40
_cell_length_a 9.000000
_cell_length_b 21.000000
_cell_length_c 24.000000
_cell_angle_alpha 90.000000
_cell_angle_beta 90.000000
_cell_angle_gamma 90.000000
_cell_volume 4536.000000
_symmetry_space_group_name_H-M "C M M M"
_symmetry_group_IT_number 65
_symmetry_cell_setting 'orthorhombic'
loop_
_space_group_symop_operation_xyz
x,y,z
-x,-y,z
x,-y,-z
-x,y,-z
-x,-y,-z
x,y,-z
-x,y,z
x,-y,z
1/2+x,1/2+y,z
1/2-x,1/2-y,z
1/2+x,1/2-y,-z
1/2-x,1/2+y,-z
1/2-x,1/2-y,-z
1/2+x,1/2+y,-z
1/2-x,1/2+y,z
1/2+x,1/2-y,z
loop_
_atom_site_type_symbol
_atom_site_label
_atom_site_fract_x
_atom_site_fract_y
_atom_site_fract_z
Si Si1 0.823533 0.429487 0.195803
Si Si2 0.320465 0.679076 0.877920
Si Si3 0.821577 0.320320 0.612787
Si Si4 0.324269 0.681416 0.000000
Si Si5 0.679046 0.320673 0.500000
Si Si6 0.323138 0.571396 0.684069
O O1 0.805287 0.500000 0.168995
O O2 0.758247 0.370533 0.162223
O O3 0.730521 0.431299 0.252551
O O4 0.000000 0.421287 0.206474
O O5 0.500000 0.682340 0.869959
O O6 0.250000 0.750000 0.872712
O O7 0.287733 0.652747 0.940363
O O8 0.750000 0.250000 0.622876
O O9 0.747125 0.347762 0.556297
O O10 0.770976 0.371572 0.657776
O O11 0.000000 0.314099 0.608068
O O12 0.250000 0.750000 0.000000
O O13 0.500000 0.691186 0.000000
O O14 0.500000 0.319312 0.500000
O O15 0.750000 0.250000 0.500000
O O16 0.500000 0.583828 0.679697
O O17 0.295199 0.500000 0.660117
#
# Coordination Sequence:
#
# PCOD9494590 Si02
#       6
#    16  16  16   8   8  16
#     4  10  21  37  55  76 104 138 175 215 261 312
#     4  10  19  33  54  79 106 136 173 215 260 309
#     4  11  21  35  56  82 111 141 177 218 261 309
#     4   8  16  30  49  74 103 135 169 209 257 308
#     4  10  18  32  53  78 109 142 177 215 261 311
#     4  10  21  38  58  79 105 138 175 216 265 317
#
# _framework density 8.8183419999999995
#
# number of rings (size 3 to 8) (size 9 to 14) (size 15 to 20)
#    0.000    2.000    0.000    5.700    0.000    4.000 
#    0.000    5.000    0.000    6.000    0.000    0.000 
#    0.000    0.000    0.000    0.000    0.000    0.000 
#
# Total GULP energy -222709.814671 kJ/mol
# GULP energy per Si atom -5567.745367 kJ/mol
# Density = 0.879827 g / cm^3
# Si number density = 8.818342 Si / 1000 Ang^3
#
#
#
# Elastic Constant Matrix: (Units=GPa)
#
#
# Indices 1 2 3 4 5 6 
#
# 1 124.8630 45.8255 25.4434 0.0000 0.0000 0.0000
# 2 45.8255 91.5012 44.6582 0.0000 0.0000 0.0000
# 3 25.4434 44.6582 62.7476 0.0000 0.0000 0.0000
# 4 0.0000 0.0000 0.0000 105.3719 0.0000 0.0000
# 5 0.0000 0.0000 0.0000 0.0000 24.2063 0.0000
# 6 0.0000 0.0000 0.0000 0.0000 0.0000 28.2689
#
#
#
# Elastic Compliance Matrix: (Units=1/GPa)
#
#
# Indices 1 2 3 4 5 6 
#
# 1 0.009835 -0.004565 -0.000739 0.000000 0.000000 0.000000
# 2 -0.004565 0.018864 -0.011575 0.000000 0.000000 0.000000
# 3 -0.000739 -0.011575 0.024475 0.000000 0.000000 0.000000
# 4 0.000000 0.000000 0.000000 0.009490 0.000000 0.000000
# 5 0.000000 0.000000 0.000000 0.000000 0.041312 0.000000
# 6 0.000000 0.000000 0.000000 0.000000 0.000000 0.035375
#
#
# Mechanical properties :
#
#
# Convention : Reuss Voigt Hill
#
# Bulk Modulus (GPa) = 51.50393 56.77398 54.13896
# Shear Modulus (GPa) = 27.84289 42.44839 35.14564
#
# Velocity S-wave (km/s) = 3.97759 4.91126 4.46887
# Velocity P-wave (km/s) = 7.09655 8.02629 7.57570
#
# Compressibility (1/GPa) = 0.01941599
#
# Stress axis : x y z
#
# Youngs Moduli (GPa) = 101.68139 53.01060 40.85875
#
# Poissons Ratio (x) = 0.24197 0.03020
# Poissons Ratio (y) = 0.46414 0.47294
# Poissons Ratio (z) = 0.07515 0.61359
#
# Static dielectric constant tensor:
#      x y z
#    x 1.335700 0.000000 0.000000 
#    y 0.000000 1.597690 0.000000 
#    z 0.000000 0.000000 1.704110 
# 
# From -- ./inp_files/67321.got.cif
#   From: 2010.05.17/outbox.ucp.g08.bks.cvg/sg65_34_cif.got.tgz:67321.got - 2010.06.11 16:39:57.
