data_PCOD9494958
_publ_section_title
;
Structure prediction by ZEFSAII (Michael W. Deem and Ramdas Pophale) SiO2 
 PCOD9494958
Probable space group: C C C M
;
_chemical_formula_sum "Si O2"
_cell_formula_units_Z 76
_cell_length_a 15.638181
_cell_length_b 19.018785
_cell_length_c 15.493731
_cell_angle_alpha 90.000000
_cell_angle_beta 90.000000
_cell_angle_gamma 90.000000
_cell_volume 4608.133114
_symmetry_space_group_name_H-M "C C C M"
_symmetry_group_IT_number 66
_symmetry_cell_setting 'orthorhombic'
loop_
_space_group_symop_operation_xyz
x,y,z
-x,-y,z
x,-y,1/2-z
-x,y,1/2-z
-x,-y,-z
x,y,-z
-x,y,1/2+z
x,-y,1/2+z
1/2+x,1/2+y,z
1/2-x,1/2-y,z
1/2+x,1/2-y,1/2-z
1/2-x,1/2+y,1/2-z
1/2-x,1/2-y,-z
1/2+x,1/2+y,-z
1/2-x,1/2+y,1/2+z
1/2+x,1/2-y,1/2+z
loop_
_atom_site_type_symbol
_atom_site_label
_atom_site_fract_x
_atom_site_fract_y
_atom_site_fract_z
Si Si1 0.619089 0.375369 0.314403
Si Si2 0.000000 0.250090 0.250000
Si Si3 0.908489 0.902752 0.000000
Si Si4 0.617325 0.791994 0.600692
Si Si5 0.000000 0.000000 0.750000
Si Si6 0.790631 0.142840 0.143068
Si Si7 0.897474 0.069492 0.000000
O O1 0.566791 0.304690 0.292319
O O2 0.637415 0.374730 0.414976
O O3 0.559726 0.445081 0.301530
O O4 0.693159 0.375759 0.242869
O O5 0.043827 0.293824 0.326947
O O6 0.011727 0.888728 0.000000
O O7 0.908158 0.986742 0.000000
O O8 0.591171 0.794557 0.500000
O O9 0.691987 0.848700 0.618217
O O10 0.663793 0.716943 0.618795
O O11 0.843166 0.089404 0.084071
#
# Coordination Sequence:
#
# PCOD9494958 Si02
#       7
#    16   8   8  16   4  16   8
#     4  10  19  28  41  63  98 133 155 184 220 275
#     4   9  20  29  48  68  92 115 162 191 236 268
#     4  11  20  26  40  63 101 131 159 176 219 271
#     4  10  17  31  50  68  86 119 155 204 232 274
#     4  10  16  30  40  64  96 132 156 188 216 258
#     4  10  18  29  46  65  92 123 163 193 228 260
#     4  11  18  27  44  68  89 132 163 185 213 271
#
# _framework density 16.49258
#
# number of rings (size 3 to 8) (size 9 to 14) (size 15 to 20)
#    0.000    1.895    2.105    6.947    1.474    0.000 
#    0.000    0.000    2.316    2.526    0.000    0.000 
#    0.000    9.263    0.000    0.000    0.000    0.000 
#
# Total GULP energy -211731.588491 kJ/mol
# GULP energy per Si atom -5571.883908 kJ/mol
# Density = 1.645504 g / cm^3
# Si number density = 16.492580 Si / 1000 Ang^3
#
#
#
# Elastic Constant Matrix: (Units=GPa)
#
#
# Indices 1 2 3 4 5 6 
#
# 1 55.6090 17.8490 47.8678 0.0000 0.0000 0.0000
# 2 17.8490 26.8036 22.6615 0.0000 0.0000 0.0000
# 3 47.8678 22.6615 185.0467 0.0000 0.0000 0.0000
# 4 0.0000 0.0000 0.0000 1.8444 0.0000 0.0000
# 5 0.0000 0.0000 0.0000 0.0000 11.4074 0.0000
# 6 0.0000 0.0000 0.0000 0.0000 0.0000 17.8708
#
#
#
# Elastic Compliance Matrix: (Units=1/GPa)
#
#
# Indices 1 2 3 4 5 6 
#
# 1 0.026848 -0.013394 -0.005305 0.000000 0.000000 0.000000
# 2 -0.013394 0.048299 -0.002450 0.000000 0.000000 0.000000
# 3 -0.005305 -0.002450 0.007076 0.000000 0.000000 0.000000
# 4 0.000000 0.000000 0.000000 0.542191 0.000000 0.000000
# 5 0.000000 0.000000 0.000000 0.000000 0.087662 0.000000
# 6 0.000000 0.000000 0.000000 0.000000 0.000000 0.055957
#
#
# Mechanical properties :
#
#
# Convention : Reuss Voigt Hill
#
# Bulk Modulus (GPa) = 25.04622 49.35733 37.20177
# Shear Modulus (GPa) = 6.07062 18.16326 12.11694
#
# Velocity S-wave (km/s) = 1.92063 3.32218 2.71346
# Velocity P-wave (km/s) = 4.48751 6.68639 5.69410
#
# Compressibility (1/GPa) = 0.03992619
#
# Stress axis : x y z
#
# Youngs Moduli (GPa) = 37.24672 20.70437 141.31569
#
# Poissons Ratio (x) = 0.27730 0.74965
# Poissons Ratio (y) = 0.49886 0.34626
# Poissons Ratio (z) = 0.19759 0.05073
#
# Static dielectric constant tensor:
#      x y z
#    x 1.575730 0.000000 0.000000 
#    y 0.000000 1.548680 0.000000 
#    z 0.000000 0.000000 1.606980 
# 
# From -- ./inp_files/28170.got.cif
#   From: 2010.05.17/outbox.cif.g08.bks.cpg/sg66_15_cif.got.tgz:28170.got - 2010.06.03 17:51:23.
