data_PCOD9494570
_publ_section_title
;
Structure prediction by ZEFSAII (Michael W. Deem and Ramdas Pophale) SiO2 
 PCOD9494570
Probable space group: C M M M
;
_chemical_formula_sum "Si O2"
_cell_formula_units_Z 32
_cell_length_a 9.000000
_cell_length_b 15.000000
_cell_length_c 24.000000
_cell_angle_alpha 90.000000
_cell_angle_beta 90.000000
_cell_angle_gamma 90.000000
_cell_volume 3240.000000
_symmetry_space_group_name_H-M "C M M M"
_symmetry_group_IT_number 65
_symmetry_cell_setting 'orthorhombic'
loop_
_space_group_symop_operation_xyz
x,y,z
-x,-y,z
x,-y,-z
-x,y,-z
-x,-y,-z
x,y,-z
-x,y,z
x,-y,z
1/2+x,1/2+y,z
1/2-x,1/2-y,z
1/2+x,1/2-y,-z
1/2-x,1/2+y,-z
1/2-x,1/2-y,-z
1/2+x,1/2+y,-z
1/2-x,1/2+y,z
1/2+x,1/2-y,z
loop_
_atom_site_type_symbol
_atom_site_label
_atom_site_fract_x
_atom_site_fract_y
_atom_site_fract_z
Si Si1 0.820632 0.000000 0.433345
Si Si2 0.181097 0.342911 0.639898
Si Si3 0.681476 0.151140 0.113718
Si Si4 0.180806 0.850874 0.000000
Si Si5 0.832067 0.395226 0.761831
O O1 0.747649 0.916955 0.400951
O O2 0.789641 0.000000 0.500000
O O3 0.000000 0.000000 0.426554
O O4 0.250000 0.250000 0.621294
O O5 0.233471 0.356347 0.704746
O O6 0.000000 0.345691 0.639285
O O7 0.500000 0.149233 0.108419
O O8 0.750000 0.250000 0.114962
O O9 0.726295 0.114865 0.175002
O O10 0.754648 0.109242 0.057883
O O11 0.250000 0.750000 0.000000
O O12 0.000000 0.848996 0.000000
O O13 0.839435 0.500000 0.750895
O O14 0.000000 0.357798 0.765488
#
# Coordination Sequence:
#
# PCOD9494570 Si02
#       5
#     8  16  16   8  16
#     4  11  25  45  67  95 131 168 211 258 303 359
#     4  11  22  40  67  96 130 167 209 256 310 368
#     4  10  18  30  51  75 103 138 183 234 289 353
#     4  10  18  30  47  68 101 137 181 235 289 349
#     4   9  18  34  56  83 114 150 192 243 298 357
#
# _framework density 9.8765429999999999
#
# number of rings (size 3 to 8) (size 9 to 14) (size 15 to 20)
#    0.000    1.875    1.250    5.250    0.000    1.500 
#    0.000    4.375    0.000    3.750    0.000    0.000 
#    0.000    0.000    0.000    0.000    0.000    0.000 
#
# Total GULP energy -178251.683244 kJ/mol
# GULP energy per Si atom -5570.365101 kJ/mol
# Density = 0.985406 g / cm^3
# Si number density = 9.876543 Si / 1000 Ang^3
#
#
#
# Elastic Constant Matrix: (Units=GPa)
#
#
# Indices 1 2 3 4 5 6 
#
# 1 106.3616 30.0769 55.4474 0.0000 0.0000 0.0000
# 2 30.0769 113.4230 65.9105 0.0000 0.0000 0.0000
# 3 55.4474 65.9105 185.6331 0.0000 0.0000 0.0000
# 4 0.0000 0.0000 0.0000 30.0016 0.0000 0.0000
# 5 0.0000 0.0000 0.0000 0.0000 26.8826 0.0000
# 6 0.0000 0.0000 0.0000 0.0000 0.0000 18.6839
#
#
#
# Elastic Compliance Matrix: (Units=1/GPa)
#
#
# Indices 1 2 3 4 5 6 
#
# 1 0.011287 -0.001303 -0.002909 0.000000 0.000000 0.000000
# 2 -0.001303 0.011259 -0.003608 0.000000 0.000000 0.000000
# 3 -0.002909 -0.003608 0.007537 0.000000 0.000000 0.000000
# 4 0.000000 0.000000 0.000000 0.033332 0.000000 0.000000
# 5 0.000000 0.000000 0.000000 0.000000 0.037199 0.000000
# 6 0.000000 0.000000 0.000000 0.000000 0.000000 0.053522
#
#
# Mechanical properties :
#
#
# Convention : Reuss Voigt Hill
#
# Bulk Modulus (GPa) = 69.23859 78.69858 73.96859
# Shear Modulus (GPa) = 28.63874 32.04582 30.34228
#
# Velocity S-wave (km/s) = 3.81180 4.03217 3.92353
# Velocity P-wave (km/s) = 7.38250 7.84892 7.61928
#
# Compressibility (1/GPa) = 0.01444281
#
# Stress axis : x y z
#
# Youngs Moduli (GPa) = 88.60067 88.81886 132.67880
#
# Poissons Ratio (x) = 0.11570 0.38593
# Poissons Ratio (y) = 0.11542 0.47877
# Poissons Ratio (z) = 0.25771 0.32050
#
# Static dielectric constant tensor:
#      x y z
#    x 1.679490 0.000000 0.000000 
#    y 0.000000 1.778680 0.000000 
#    z 0.000000 0.000000 1.751080 
# 
# From -- ./inp_files/66829.got.cif
#   From: 2010.05.17/outbox.ucp.g08.bks.cvg/sg65_34_cif.got.tgz:66829.got - 2010.06.11 16:39:57.
