data_PCOD9494417
_publ_section_title
;
Structure prediction by ZEFSAII (Michael W. Deem and Ramdas Pophale) SiO2 
 PCOD9494417
Probable space group: C M M M
;
_chemical_formula_sum "Si O2"
_cell_formula_units_Z 104
_cell_length_a 9.348916
_cell_length_b 30.878807
_cell_length_c 23.235099
_cell_angle_alpha 90.000000
_cell_angle_beta 90.000000
_cell_angle_gamma 90.000000
_cell_volume 6707.586747
_symmetry_space_group_name_H-M "C M M M"
_symmetry_group_IT_number 65
_symmetry_cell_setting 'orthorhombic'
loop_
_space_group_symop_operation_xyz
x,y,z
-x,-y,z
x,-y,-z
-x,y,-z
-x,-y,-z
x,y,-z
-x,y,z
x,-y,z
1/2+x,1/2+y,z
1/2-x,1/2-y,z
1/2+x,1/2-y,-z
1/2-x,1/2+y,-z
1/2-x,1/2-y,-z
1/2+x,1/2+y,-z
1/2-x,1/2+y,z
1/2+x,1/2-y,z
loop_
_atom_site_type_symbol
_atom_site_label
_atom_site_fract_x
_atom_site_fract_y
_atom_site_fract_z
Si Si1 0.334992 0.207209 0.911837
Si Si2 0.164339 0.292388 0.228313
Si Si3 0.326395 0.549277 0.000000
Si Si4 0.171134 0.880257 0.092551
Si Si5 0.333034 0.947458 0.436375
Si Si6 0.328419 0.550233 0.322020
Si Si7 0.829384 0.120758 0.227926
O O1 0.500000 0.207569 0.930488
O O2 0.250000 0.250000 0.930984
O O3 0.335161 0.208307 0.841754
O O4 0.253969 0.162858 0.927082
O O5 0.250000 0.250000 0.247667
O O6 0.244211 0.336295 0.245348
O O7 0.000000 0.291572 0.247070
O O8 0.286360 0.578103 0.944755
O O9 0.272628 0.500000 0.000000
O O10 0.500000 0.546975 0.000000
O O11 0.198820 0.887573 0.160309
O O12 0.000000 0.873238 0.085476
O O13 0.284068 0.932759 0.500000
O O14 0.500000 0.935923 0.429864
O O15 0.243003 0.933684 0.381159
O O16 0.325683 0.000000 0.437045
O O17 0.500000 0.551135 0.328345
O O18 0.286350 0.500000 0.312311
O O19 0.290184 0.580623 0.268444
O O20 0.000000 0.128439 0.233193
#
# Coordination Sequence:
#
# PCOD9494417 Si02
#       7
#    16  16   8  16  16  16  16
#     4   9  16  27  45  68  91 112 135 165 207 261
#     4   9  16  26  42  63  86 112 141 173 211 257
#     4   9  18  32  50  69  84 105 146 193 226 255
#     4   9  17  30  47  65  86 112 143 180 220 260
#     4   8  14  25  40  57  79 110 146 180 214 252
#     4   9  17  27  39  59  87 117 148 180 214 252
#     4   9  17  28  42  62  89 117 143 176 218 260
#
# _framework density 15.50483
#
# number of rings (size 3 to 8) (size 9 to 14) (size 15 to 20)
#    0.000    3.154    0.000    1.385    0.000    5.231 
#    0.000    5.385    0.000    0.923    0.000    4.308 
#    0.000    0.615    0.000    2.000    0.000    2.923 
#
# Total GULP energy -289604.575035 kJ/mol
# GULP energy per Si atom -5569.318751 kJ/mol
# Density = 1.546954 g / cm^3
# Si number density = 15.504830 Si / 1000 Ang^3
#
#
#
# Elastic Constant Matrix: (Units=GPa)
#
#
# Indices 1 2 3 4 5 6 
#
# 1 54.1379 57.5338 41.8943 0.0000 0.0000 0.0000
# 2 57.5338 131.0576 61.5388 0.0000 0.0000 0.0000
# 3 41.8943 61.5388 82.0740 0.0000 0.0000 0.0000
# 4 0.0000 0.0000 0.0000 -4.9780 0.0000 0.0000
# 5 0.0000 0.0000 0.0000 0.0000 -3.7851 0.0000
# 6 0.0000 0.0000 0.0000 0.0000 0.0000 22.0469
#
#
#
# Elastic Compliance Matrix: (Units=1/GPa)
#
#
# Indices 1 2 3 4 5 6 
#
# 1 0.040457 -0.012445 -0.011320 0.000000 0.000000 0.000000
# 2 -0.012445 0.015605 -0.005348 0.000000 0.000000 0.000000
# 3 -0.011320 -0.005348 0.021972 0.000000 0.000000 0.000000
# 4 0.000000 0.000000 0.000000 -0.200885 0.000000 0.000000
# 5 0.000000 0.000000 0.000000 0.000000 -0.264196 0.000000
# 6 0.000000 0.000000 0.000000 0.000000 0.000000 0.045358
#
#
# Mechanical properties :
#
#
# Convention : Reuss Voigt Hill
#
# Bulk Modulus (GPa) = 50.48399 65.46702 57.97551
# Shear Modulus (GPa) = -18.05956 9.74361 -4.15797
#
# Velocity S-wave (km/s) = -3.41657 2.50956 -1.63937
# Velocity P-wave (km/s) = 4.13121 7.12127 5.82148
#
# Compressibility (1/GPa) = 0.01980826
#
# Stress axis : x y z
#
# Youngs Moduli (GPa) = 24.71773 64.08332 45.51266
#
# Poissons Ratio (x) = 0.79753 0.51519
# Poissons Ratio (y) = 0.30762 0.24339
# Poissons Ratio (z) = 0.27980 0.34270
#
# Static dielectric constant tensor:
#      x y z
#    x 1.519260 0.000000 0.000000 
#    y 0.000000 1.499460 0.000000 
#    z 0.000000 0.000000 1.520460 
# 
# From -- ./inp_files/68552.got.cif
#   From: 2010.05.17/outbox.cif.g08.bks.cpg/sg65_35_cif.got.tgz:68552.got - 2010.06.03 17:01:31.
