data_PCOD9494835
_publ_section_title
;
Structure prediction by ZEFSAII (Michael W. Deem and Ramdas Pophale) SiO2 
 PCOD9494835
Probable space group: C M M M
;
_chemical_formula_sum "Si O2"
_cell_formula_units_Z 52
_cell_length_a 21.000000
_cell_length_b 9.000000
_cell_length_c 30.000000
_cell_angle_alpha 90.000000
_cell_angle_beta 90.000000
_cell_angle_gamma 90.000000
_cell_volume 5670.000000
_symmetry_space_group_name_H-M "C M M M"
_symmetry_group_IT_number 65
_symmetry_cell_setting 'orthorhombic'
loop_
_space_group_symop_operation_xyz
x,y,z
-x,-y,z
x,-y,-z
-x,y,-z
-x,-y,-z
x,y,-z
-x,y,z
x,-y,z
1/2+x,1/2+y,z
1/2-x,1/2-y,z
1/2+x,1/2-y,-z
1/2-x,1/2+y,-z
1/2-x,1/2-y,-z
1/2+x,1/2+y,-z
1/2-x,1/2+y,z
1/2+x,1/2-y,z
loop_
_atom_site_type_symbol
_atom_site_label
_atom_site_fract_x
_atom_site_fract_y
_atom_site_fract_z
Si Si1 0.867113 0.675529 0.447155
Si Si2 0.925432 0.323429 0.690098
Si Si3 0.576890 0.669469 0.781790
Si Si4 0.500000 0.669500 0.446258
Si Si5 0.186216 0.176054 0.365429
Si Si6 0.682800 0.679070 0.051949
Si Si7 0.073124 0.181124 0.119267
O O1 0.856992 0.696773 0.500000
O O2 0.862744 0.500000 0.437495
O O3 0.820629 0.769079 0.416326
O O4 0.937276 0.737497 0.435429
O O5 0.919292 0.500000 0.684027
O O6 0.908747 0.275491 0.740631
O O7 0.876285 0.237446 0.659079
O O8 0.000000 0.283423 0.682067
O O9 0.500000 0.661208 0.784249
O O10 0.599904 0.500000 0.773719
O O11 0.596072 0.722575 0.830968
O O12 0.500000 0.500000 0.428288
O O13 0.500000 0.656860 0.500000
O O14 0.250000 0.250000 0.346239
O O15 0.189609 0.000000 0.362873
O O16 0.687537 0.500000 0.055064
O O17 0.750000 0.750000 0.065749
O O18 0.623651 0.728400 0.082273
O O19 0.671992 0.717166 0.000000
O O20 0.000000 0.231263 0.111873
O O21 0.071213 0.000000 0.119168
#
# Coordination Sequence:
#
# PCOD9494835 Si02
#       7
#    16  16  16   8  16  16  16
#     4  10  21  38  60  85 115 150 186 226 273 322
#     4  10  21  38  61  87 114 144 181 223 269 325
#     4   8  14  28  51  77 104 134 171 216 267 320
#     4   9  17  31  53  83 115 145 181 225 269 311
#     4  12  26  43  62  84 115 149 186 228 275 329
#     4   9  17  29  45  66  96 135 176 217 263 316
#     4   8  14  26  47  74 100 128 169 222 270 310
#
# _framework density 9.1710759999999993
#
# number of rings (size 3 to 8) (size 9 to 14) (size 15 to 20)
#    0.000    2.538    0.000    3.462    1.077    3.385 
#    0.000    3.077    0.000    3.231    0.000    2.154 
#    0.000    0.000    0.000    0.000    0.000    0.000 
#
# Total GULP energy -289995.746663 kJ/mol
# GULP energy per Si atom -5576.841282 kJ/mol
# Density = 0.915020 g / cm^3
# Si number density = 9.171076 Si / 1000 Ang^3
#
#
#
# Elastic Constant Matrix: (Units=GPa)
#
#
# Indices 1 2 3 4 5 6 
#
# 1 108.8963 51.0901 63.8373 0.0000 0.0000 0.0000
# 2 51.0901 90.7260 42.3520 0.0000 0.0000 0.0000
# 3 63.8373 42.3520 90.4697 0.0000 0.0000 0.0000
# 4 0.0000 0.0000 0.0000 18.5136 0.0000 0.0000
# 5 0.0000 0.0000 0.0000 0.0000 3.9605 0.0000
# 6 0.0000 0.0000 0.0000 0.0000 0.0000 24.9027
#
#
#
# Elastic Compliance Matrix: (Units=1/GPa)
#
#
# Indices 1 2 3 4 5 6 
#
# 1 0.017389 -0.005201 -0.009835 0.000000 0.000000 0.000000
# 2 -0.005201 0.015660 -0.003661 0.000000 0.000000 0.000000
# 3 -0.009835 -0.003661 0.019707 0.000000 0.000000 0.000000
# 4 0.000000 0.000000 0.000000 0.054014 0.000000 0.000000
# 5 0.000000 0.000000 0.000000 0.000000 0.252494 0.000000
# 6 0.000000 0.000000 0.000000 0.000000 0.000000 0.040156
#
#
# Mechanical properties :
#
#
# Convention : Reuss Voigt Hill
#
# Bulk Modulus (GPa) = 65.09727 67.18343 66.14035
# Shear Modulus (GPa) = 11.31388 18.32954 14.82171
#
# Velocity S-wave (km/s) = 2.48629 3.16462 2.84574
# Velocity P-wave (km/s) = 6.61889 7.07534 6.85092
#
# Compressibility (1/GPa) = 0.01536163
#
# Stress axis : x y z
#
# Youngs Moduli (GPa) = 57.50885 63.85698 50.74287
#
# Poissons Ratio (x) = 0.33211 0.49906
# Poissons Ratio (y) = 0.29909 0.18578
# Poissons Ratio (z) = 0.56561 0.23379
#
# Static dielectric constant tensor:
#      x y z
#    x 1.645830 0.000000 0.000000 
#    y 0.000000 1.613470 0.000000 
#    z 0.000000 0.000000 1.667990 
# 
# From -- ./inp_files/78262.got.cif
#   From: 2010.05.17/outbox.ucp.g08.bks.cvg/sg65_40_cif.got.tgz:78262.got - 2010.06.11 16:39:57.
