data_PCOD9494955
_publ_section_title
;
Structure prediction by ZEFSAII (Michael W. Deem and Ramdas Pophale) SiO2 
 PCOD9494955
Probable space group: C C C M
;
_chemical_formula_sum "Si O2"
_cell_formula_units_Z 72
_cell_length_a 21.038531
_cell_length_b 10.781690
_cell_length_c 18.733051
_cell_angle_alpha 90.000000
_cell_angle_beta 90.000000
_cell_angle_gamma 90.000000
_cell_volume 4249.235180
_symmetry_space_group_name_H-M "C C C M"
_symmetry_group_IT_number 66
_symmetry_cell_setting 'orthorhombic'
loop_
_space_group_symop_operation_xyz
x,y,z
-x,-y,z
x,-y,1/2-z
-x,y,1/2-z
-x,-y,-z
x,y,-z
-x,y,1/2+z
x,-y,1/2+z
1/2+x,1/2+y,z
1/2-x,1/2-y,z
1/2+x,1/2-y,1/2-z
1/2-x,1/2+y,1/2-z
1/2-x,1/2-y,-z
1/2+x,1/2+y,-z
1/2-x,1/2+y,1/2+z
1/2+x,1/2-y,1/2+z
loop_
_atom_site_type_symbol
_atom_site_label
_atom_site_fract_x
_atom_site_fract_y
_atom_site_fract_z
Si Si1 0.701794 0.140324 0.877464
Si Si2 0.138443 0.500000 0.250000
Si Si3 0.568624 0.140638 0.626882
Si Si4 0.144453 0.239984 0.000000
Si Si5 0.750781 0.457703 0.500000
Si Si6 0.936725 0.358126 0.920543
O O1 0.750000 0.250000 0.864867
O O2 0.681813 0.070757 0.806067
O O3 0.634019 0.190001 0.907194
O O4 0.733546 0.043942 0.932314
O O5 0.097921 0.599961 0.296746
O O6 0.605063 0.234373 0.573483
O O7 0.494362 0.176857 0.631573
O O8 0.570355 0.007374 0.586016
O O9 0.197868 0.347315 0.000000
O O10 0.182176 0.109333 0.000000
O O11 0.957698 0.325507 0.000000
#
# Coordination Sequence:
#
# PCOD9494955 Si02
#       6
#    16   8  16   8   8  16
#     4  11  22  37  54  77 110 144 176 216 262 323
#     4  10  22  33  50  82 108 141 172 212 272 325
#     4  10  17  31  51  79 108 132 169 224 273 309
#     4  11  18  32  56  77 107 138 172 227 264 308
#     4  11  21  33  53  80 104 141 182 213 265 314
#     4  10  16  29  55  80 103 132 174 223 273 308
#
# _framework density 16.944226
#
# number of rings (size 3 to 8) (size 9 to 14) (size 15 to 20)
#    0.000    1.556    7.778    1.000    0.000    8.889 
#    0.000    0.000    0.000    2.667    0.000    0.000 
#    0.000    0.000    0.000    0.000    0.000    0.000 
#
# Total GULP energy -200430.078224 kJ/mol
# GULP energy per Si atom -5567.502173 kJ/mol
# Density = 1.690566 g / cm^3
# Si number density = 16.944226 Si / 1000 Ang^3
#
#
#
# Elastic Constant Matrix: (Units=GPa)
#
#
# Indices 1 2 3 4 5 6 
#
# 1 128.7129 47.1636 50.9470 0.0000 0.0000 0.0000
# 2 47.1636 40.1844 41.5626 0.0000 0.0000 0.0000
# 3 50.9470 41.5626 129.5387 0.0000 0.0000 0.0000
# 4 0.0000 0.0000 0.0000 6.0636 0.0000 0.0000
# 5 0.0000 0.0000 0.0000 0.0000 -7.4605 0.0000
# 6 0.0000 0.0000 0.0000 0.0000 0.0000 23.2056
#
#
#
# Elastic Compliance Matrix: (Units=1/GPa)
#
#
# Indices 1 2 3 4 5 6 
#
# 1 0.013642 -0.015658 -0.000341 0.000000 0.000000 0.000000
# 2 -0.015658 0.055218 -0.011558 0.000000 0.000000 0.000000
# 3 -0.000341 -0.011558 0.011562 0.000000 0.000000 0.000000
# 4 0.000000 0.000000 0.000000 0.164920 0.000000 0.000000
# 5 0.000000 0.000000 0.000000 0.000000 -0.134039 0.000000
# 6 0.000000 0.000000 0.000000 0.000000 0.000000 0.043093
#
#
# Mechanical properties :
#
#
# Convention : Reuss Voigt Hill
#
# Bulk Modulus (GPa) = 39.51579 64.19803 51.85691
# Shear Modulus (GPa) = 22.94128 14.94591 18.94360
#
# Velocity S-wave (km/s) = 3.68357 2.97318 3.34727
# Velocity P-wave (km/s) = 6.43920 7.05383 6.75351
#
# Compressibility (1/GPa) = 0.02530634
#
# Stress axis : x y z
#
# Youngs Moduli (GPa) = 73.30363 18.11010 86.48666
#
# Poissons Ratio (x) = 0.28357 0.02952
# Poissons Ratio (y) = 1.14780 0.99965
# Poissons Ratio (z) = 0.02502 0.20932
#
# Static dielectric constant tensor:
#      x y z
#    x 1.634660 0.000000 0.000000 
#    y 0.000000 1.536910 0.000000 
#    z 0.000000 0.000000 1.619060 
# 
# From -- ./inp_files/42661.got.cif
#   From: 2010.05.17/outbox.cif.g08.bks.cpg/sg66_22_cif.got.tgz:42661.got - 2010.06.03 17:51:23.
