data_PCOD9494719
_publ_section_title
;
Structure prediction by ZEFSAII (Michael W. Deem and Ramdas Pophale) SiO2 
 PCOD9494719
Probable space group: C M M M
;
_chemical_formula_sum "Si O2"
_cell_formula_units_Z 44
_cell_length_a 9.000000
_cell_length_b 18.000000
_cell_length_c 30.000000
_cell_angle_alpha 90.000000
_cell_angle_beta 90.000000
_cell_angle_gamma 90.000000
_cell_volume 4860.000000
_symmetry_space_group_name_H-M "C M M M"
_symmetry_group_IT_number 65
_symmetry_cell_setting 'orthorhombic'
loop_
_space_group_symop_operation_xyz
x,y,z
-x,-y,z
x,-y,-z
-x,y,-z
-x,-y,-z
x,y,-z
-x,y,z
x,-y,z
1/2+x,1/2+y,z
1/2-x,1/2-y,z
1/2+x,1/2-y,-z
1/2-x,1/2+y,-z
1/2-x,1/2-y,-z
1/2+x,1/2+y,-z
1/2-x,1/2+y,z
1/2+x,1/2-y,z
loop_
_atom_site_type_symbol
_atom_site_label
_atom_site_fract_x
_atom_site_fract_y
_atom_site_fract_z
Si Si1 0.324060 0.588655 0.686919
Si Si2 0.320284 0.331622 0.403255
Si Si3 0.678854 0.332072 0.500000
Si Si4 0.828882 0.409358 0.222205
Si Si5 0.670578 0.410445 0.131517
Si Si6 0.677193 0.168894 0.950067
O O1 0.500000 0.603021 0.692261
O O2 0.304693 0.500000 0.684056
O O3 0.272484 0.623986 0.640503
O O4 0.240651 0.616022 0.731071
O O5 0.500000 0.326447 0.401864
O O6 0.250000 0.250000 0.401439
O O7 0.280115 0.365979 0.451855
O O8 0.500000 0.325215 0.500000
O O9 0.750000 0.250000 0.500000
O O10 0.822772 0.500000 0.222700
O O11 0.739835 0.384916 0.178473
O O12 0.000000 0.387361 0.218680
O O13 0.500000 0.386150 0.128159
O O14 0.674203 0.500000 0.131520
O O15 0.760906 0.380993 0.089488
O O16 0.500000 0.175232 0.946697
O O17 0.750000 0.250000 0.946217
O O18 0.713209 0.140113 0.000000
#
# Coordination Sequence:
#
# PCOD9494719 Si02
#       6
#    16  16   8  16  16  16
#     4   9  17  30  47  67  93 124 156 191 236 288
#     4   9  17  29  46  67  91 120 154 193 234 278
#     4   8  14  26  43  63  87 117 153 188 228 278
#     4   9  17  30  49  72  97 126 161 200 242 289
#     4  10  20  34  54  79 105 133 167 208 250 292
#     4  10  21  37  56  77 104 138 172 206 247 296
#
# _framework density 9.0534979999999994
#
# number of rings (size 3 to 8) (size 9 to 14) (size 15 to 20)
#    0.000    2.727    0.000    1.636    0.000    5.455 
#    0.000    3.182    0.000    4.909    0.000    0.000 
#    0.000   10.182    0.000    0.000    0.000    0.000 
#
# Total GULP energy -245142.979183 kJ/mol
# GULP energy per Si atom -5571.431345 kJ/mol
# Density = 0.903289 g / cm^3
# Si number density = 9.053498 Si / 1000 Ang^3
#
#
#
# Elastic Constant Matrix: (Units=GPa)
#
#
# Indices 1 2 3 4 5 6 
#
# 1 67.2885 20.4647 75.8062 0.0000 0.0000 0.0000
# 2 20.4647 3.1955 29.9532 0.0000 0.0000 0.0000
# 3 75.8062 29.9532 198.2383 0.0000 0.0000 0.0000
# 4 0.0000 0.0000 0.0000 32.8107 0.0000 0.0000
# 5 0.0000 0.0000 0.0000 0.0000 26.8155 0.0000
# 6 0.0000 0.0000 0.0000 0.0000 0.0000 19.6442
#
#
#
# Elastic Compliance Matrix: (Units=1/GPa)
#
#
# Indices 1 2 3 4 5 6 
#
# 1 0.010068 0.068188 -0.014153 0.000000 0.000000 0.000000
# 2 0.068188 -0.289838 0.017719 0.000000 0.000000 0.000000
# 3 -0.014153 0.017719 0.007779 0.000000 0.000000 0.000000
# 4 0.000000 0.000000 0.000000 0.030478 0.000000 0.000000
# 5 0.000000 0.000000 0.000000 0.000000 0.037292 0.000000
# 6 0.000000 0.000000 0.000000 0.000000 0.000000 0.050906
#
#
# Mechanical properties :
#
#
# Convention : Reuss Voigt Hill
#
# Bulk Modulus (GPa) = -7.78308 57.90780 25.06236
# Shear Modulus (GPa) = -14.72101 25.35395 5.31647
#
# Velocity S-wave (km/s) = -2.85441 3.74602 1.71538
# Velocity P-wave (km/s) = 3.89503 7.12465 4.21837
#
# Compressibility (1/GPa) = -0.12848381
#
# Stress axis : x y z
#
# Youngs Moduli (GPa) = 99.32909 -3.45021 128.54785
#
# Poissons Ratio (x) = 0.23526 1.81931
# Poissons Ratio (y) = -6.77302 -2.27770
# Poissons Ratio (z) = 1.40578 0.06113
#
# Static dielectric constant tensor:
#      x y z
#    x 1.610630 0.000000 0.000000 
#    y 0.000000 1.601870 0.000000 
#    z 0.000000 0.000000 1.645010 
# 
# From -- ./inp_files/76532.got.cif
#   From: 2010.05.17/outbox.ucp.g08.bks.cvg/sg65_39_cif.got.tgz:76532.got - 2010.06.11 16:39:57.
