data_PCOD9494489
_publ_section_title
;
Structure prediction by ZEFSAII (Michael W. Deem and Ramdas Pophale) SiO2 
 PCOD9494489
Probable space group: C M M M
;
_chemical_formula_sum "Si O2"
_cell_formula_units_Z 88
_cell_length_a 31.073697
_cell_length_b 9.330135
_cell_length_c 23.560990
_cell_angle_alpha 90.000000
_cell_angle_beta 90.000000
_cell_angle_gamma 90.000000
_cell_volume 6830.844347
_symmetry_space_group_name_H-M "C M M M"
_symmetry_group_IT_number 65
_symmetry_cell_setting 'orthorhombic'
loop_
_space_group_symop_operation_xyz
x,y,z
-x,-y,z
x,-y,-z
-x,y,-z
-x,-y,-z
x,y,-z
-x,y,z
x,-y,z
1/2+x,1/2+y,z
1/2-x,1/2-y,z
1/2+x,1/2-y,-z
1/2-x,1/2+y,-z
1/2-x,1/2-y,-z
1/2+x,1/2+y,-z
1/2-x,1/2+y,z
1/2+x,1/2-y,z
loop_
_atom_site_type_symbol
_atom_site_label
_atom_site_fract_x
_atom_site_fract_y
_atom_site_fract_z
Si Si1 0.792354 0.835146 0.430942
Si Si2 0.550286 0.171092 0.659802
Si Si3 0.447534 0.834279 0.886841
Si Si4 0.947573 0.165706 0.000000
Si Si5 0.052338 0.834959 0.225604
Si Si6 0.120741 0.328824 0.566192
O O1 0.791175 0.835280 0.500000
O O2 0.750000 0.750000 0.411608
O O3 0.836401 0.754929 0.415569
O O4 0.791893 0.000000 0.412214
O O5 0.500000 0.203712 0.648080
O O6 0.564111 0.256317 0.716001
O O7 0.580803 0.205322 0.606835
O O8 0.553048 0.000000 0.670639
O O9 0.500000 0.834259 0.886655
O O10 0.433481 0.752882 0.829823
O O11 0.433939 0.000000 0.887746
O O12 0.434057 0.749205 0.943253
O O13 0.000000 0.165209 0.000000
O O14 0.933832 0.000000 0.000000
O O15 0.000000 0.835416 0.224212
O O16 0.066548 0.000000 0.223983
O O17 0.111727 0.294899 0.500000
O O18 0.128701 0.500000 0.569393
#
# Coordination Sequence:
#
# PCOD9494489 Si02
#       6
#    16  16  16   8  16  16
#     4   9  16  26  41  59  77  95 114 138 172 216
#     4   9  17  28  40  53  70  94 124 156 188 221
#     4   9  15  22  32  45  61  81 106 137 174 214
#     4   9  15  21  29  43  63  83 103 131 170 213
#     4   9  16  25  36  48  62  83 113 148 183 216
#     4   9  17  28  41  57  76  96 119 149 185 224
#
# _framework density 12.882740999999999
#
# number of rings (size 3 to 8) (size 9 to 14) (size 15 to 20)
#    0.000    3.000    0.000    1.909    0.000    8.727 
#    0.000    1.818    0.000    0.000    0.000    5.091 
#    0.000    0.000    0.000    0.000    0.000    0.000 
#
# Total GULP energy -244936.201798 kJ/mol
# GULP energy per Si atom -5566.731859 kJ/mol
# Density = 1.285342 g / cm^3
# Si number density = 12.882741 Si / 1000 Ang^3
#
#
#
# Elastic Constant Matrix: (Units=GPa)
#
#
# Indices 1 2 3 4 5 6 
#
# 1 48.4377 41.7481 43.0541 0.0000 0.0000 0.0000
# 2 41.7481 96.7954 66.2683 0.0000 0.0000 0.0000
# 3 43.0541 66.2683 96.8783 0.0000 0.0000 0.0000
# 4 0.0000 0.0000 0.0000 17.0473 0.0000 0.0000
# 5 0.0000 0.0000 0.0000 0.0000 -0.0401 0.0000
# 6 0.0000 0.0000 0.0000 0.0000 0.0000 13.5174
#
#
#
# Elastic Compliance Matrix: (Units=1/GPa)
#
#
# Indices 1 2 3 4 5 6 
#
# 1 0.037928 -0.009063 -0.010657 0.000000 0.000000 0.000000
# 2 -0.009063 0.021596 -0.010745 0.000000 0.000000 0.000000
# 3 -0.010657 -0.010745 0.022408 0.000000 0.000000 0.000000
# 4 0.000000 0.000000 0.000000 0.058660 0.000000 0.000000
# 5 0.000000 0.000000 0.000000 0.000000-24.930429 0.000000
# 6 0.000000 0.000000 0.000000 0.000000 0.000000 0.073979
#
#
# Mechanical properties :
#
#
# Convention : Reuss Voigt Hill
#
# Bulk Modulus (GPa) = 47.61015 60.47250 54.04132
# Shear Modulus (GPa) = -0.20286 12.17431 5.98573
#
# Velocity S-wave (km/s) = -0.39725 3.07744 2.15787
# Velocity P-wave (km/s) = 6.06847 7.72464 6.94609
#
# Compressibility (1/GPa) = 0.02100392
#
# Stress axis : x y z
#
# Youngs Moduli (GPa) = 26.36542 46.30474 44.62682
#
# Poissons Ratio (x) = 0.41965 0.47557
# Poissons Ratio (y) = 0.23895 0.47951
# Poissons Ratio (z) = 0.28097 0.49754
#
# Static dielectric constant tensor:
#      x y z
#    x 1.384530 0.000000 0.000000 
#    y 0.000000 1.434800 0.000000 
#    z 0.000000 0.000000 1.411380 
# 
# From -- ./inp_files/68409.got.cif
#   From: 2010.05.17/outbox.cif.g08.bks.cpg/sg65_35_cif.got.tgz:68409.got - 2010.06.03 17:01:31.
