data_PCOD9494613
_publ_section_title
;
Structure prediction by ZEFSAII (Michael W. Deem and Ramdas Pophale) SiO2 
 PCOD9494613
Probable space group: C M M M
;
_chemical_formula_sum "Si O2"
_cell_formula_units_Z 52
_cell_length_a 9.000000
_cell_length_b 27.000000
_cell_length_c 24.000000
_cell_angle_alpha 90.000000
_cell_angle_beta 90.000000
_cell_angle_gamma 90.000000
_cell_volume 5832.000000
_symmetry_space_group_name_H-M "C M M M"
_symmetry_group_IT_number 65
_symmetry_cell_setting 'orthorhombic'
loop_
_space_group_symop_operation_xyz
x,y,z
-x,-y,z
x,-y,-z
-x,y,-z
-x,-y,-z
x,y,-z
-x,y,z
x,-y,z
1/2+x,1/2+y,z
1/2-x,1/2-y,z
1/2+x,1/2-y,-z
1/2-x,1/2+y,-z
1/2-x,1/2-y,-z
1/2+x,1/2+y,-z
1/2-x,1/2+y,z
1/2+x,1/2-y,z
loop_
_atom_site_type_symbol
_atom_site_label
_atom_site_fract_x
_atom_site_fract_y
_atom_site_fract_z
Si Si1 0.179244 0.657867 0.271751
Si Si2 0.678995 0.104730 0.065768
Si Si3 0.678051 0.594646 0.563323
Si Si4 0.323335 0.699887 0.382759
Si Si5 0.678700 0.054886 0.325272
Si Si6 0.172830 0.000000 0.067611
Si Si7 0.320259 0.195697 0.147745
O O1 0.254895 0.688116 0.321859
O O2 0.220558 0.600457 0.284736
O O3 0.220335 0.677102 0.210327
O O4 0.000000 0.662154 0.276691
O O5 0.500000 0.099848 0.069483
O O6 0.722182 0.152224 0.103633
O O7 0.749894 0.052046 0.084418
O O8 0.716320 0.112633 0.000000
O O9 0.726014 0.583188 0.500000
O O10 0.500000 0.586925 0.566344
O O11 0.706532 0.652334 0.578345
O O12 0.754657 0.564909 0.613394
O O13 0.500000 0.705660 0.377854
O O14 0.250000 0.750000 0.404419
O O15 0.500000 0.056016 0.329637
O O16 0.723625 0.000000 0.305896
O O17 0.000000 0.000000 0.084089
O O18 0.180419 0.000000 0.000000
O O19 0.500000 0.200255 0.145520
O O20 0.250000 0.250000 0.137200
#
# Coordination Sequence:
#
# PCOD9494613 Si02
#       7
#    16  16  16  16  16   8  16
#     4   9  18  34  52  72  98 128 166 206 250 302
#     4   9  18  34  54  77 107 142 179 217 260 312
#     4   9  19  34  49  68  96 128 161 196 238 294
#     4  10  19  31  49  71  94 125 162 201 246 293
#     4   9  18  33  52  73  97 125 159 203 250 295
#     4   9  17  31  53  79 105 135 173 215 258 303
#     4  10  21  35  52  77 105 139 177 216 260 310
#
# _framework density 8.9163239999999995
#
# number of rings (size 3 to 8) (size 9 to 14) (size 15 to 20)
#    0.000    2.692    0.000    1.154    0.000    5.538 
#    1.385    1.538    0.000    0.000    0.000    0.000 
#    0.000    0.000    0.000    0.000    0.000    0.000 
#
# Total GULP energy -289953.194052 kJ/mol
# GULP energy per Si atom -5576.022963 kJ/mol
# Density = 0.889603 g / cm^3
# Si number density = 8.916324 Si / 1000 Ang^3
#
#
#
# Elastic Constant Matrix: (Units=GPa)
#
#
# Indices 1 2 3 4 5 6 
#
# 1 22.8051 30.2169 14.4003 0.0000 0.0000 0.0000
# 2 30.2169 133.8560 31.6878 0.0000 0.0000 0.0000
# 3 14.4003 31.6878 67.3209 0.0000 0.0000 0.0000
# 4 0.0000 0.0000 0.0000 15.3178 0.0000 0.0000
# 5 0.0000 0.0000 0.0000 0.0000 19.9931 0.0000
# 6 0.0000 0.0000 0.0000 0.0000 0.0000 31.1715
#
#
#
# Elastic Compliance Matrix: (Units=1/GPa)
#
#
# Indices 1 2 3 4 5 6 
#
# 1 0.066199 -0.013045 -0.008020 0.000000 0.000000 0.000000
# 2 -0.013045 0.010978 -0.002377 0.000000 0.000000 0.000000
# 3 -0.008020 -0.002377 0.017689 0.000000 0.000000 0.000000
# 4 0.000000 0.000000 0.000000 0.065283 0.000000 0.000000
# 5 0.000000 0.000000 0.000000 0.000000 0.050017 0.000000
# 6 0.000000 0.000000 0.000000 0.000000 0.000000 0.032081
#
#
# Mechanical properties :
#
#
# Convention : Reuss Voigt Hill
#
# Bulk Modulus (GPa) = 20.84132 41.84355 31.34243
# Shear Modulus (GPa) = 16.38666 23.14161 19.76414
#
# Velocity S-wave (km/s) = 3.03465 3.60628 3.33274
# Velocity P-wave (km/s) = 4.89809 6.39186 5.69417
#
# Compressibility (1/GPa) = 0.04798161
#
# Stress axis : x y z
#
# Youngs Moduli (GPa) = 15.10588 91.08864 56.53365
#
# Poissons Ratio (x) = 1.18829 0.45340
# Poissons Ratio (y) = 0.19706 0.13438
# Poissons Ratio (z) = 0.12115 0.21652
#
# Static dielectric constant tensor:
#      x y z
#    x 1.600000 0.000000 0.000000 
#    y 0.000000 1.624880 0.000000 
#    z 0.000000 0.000000 1.591790 
# 
# From -- ./inp_files/65866.got.cif
#   From: 2010.05.17/outbox.ucp.g08.bks.cvg/sg65_33_cif.got.tgz:65866.got - 2010.06.11 16:39:57.
