data_PCOD9494416
_publ_section_title
;
Structure prediction by ZEFSAII (Michael W. Deem and Ramdas Pophale) SiO2 
 PCOD9494416
Probable space group: C M M M
;
_chemical_formula_sum "Si O2"
_cell_formula_units_Z 64
_cell_length_a 14.334111
_cell_length_b 11.102924
_cell_length_c 18.294164
_cell_angle_alpha 90.000000
_cell_angle_beta 90.000000
_cell_angle_gamma 90.000000
_cell_volume 2911.526172
_symmetry_space_group_name_H-M "C M M M"
_symmetry_group_IT_number 65
_symmetry_cell_setting 'orthorhombic'
loop_
_space_group_symop_operation_xyz
x,y,z
-x,-y,z
x,-y,-z
-x,y,-z
-x,-y,-z
x,y,-z
-x,y,z
x,-y,z
1/2+x,1/2+y,z
1/2-x,1/2-y,z
1/2+x,1/2-y,-z
1/2-x,1/2+y,-z
1/2-x,1/2-y,-z
1/2+x,1/2+y,-z
1/2-x,1/2+y,z
1/2+x,1/2-y,z
loop_
_atom_site_type_symbol
_atom_site_label
_atom_site_fract_x
_atom_site_fract_y
_atom_site_fract_z
Si Si1 0.612976 0.365306 0.178328
Si Si2 0.886426 0.366178 0.915360
Si Si3 0.148830 0.130645 0.346439
Si Si4 0.642899 0.130552 0.587383
O O1 0.500000 0.359433 0.186666
O O2 0.633531 0.500000 0.148176
O O3 0.642153 0.251004 0.130207
O O4 0.655531 0.357386 0.259196
O O5 0.857996 0.500000 0.887862
O O6 0.000000 0.365745 0.915027
O O7 0.857159 0.355752 0.000000
O O8 0.250599 0.127020 0.383692
O O9 0.101555 0.249805 0.377553
O O10 0.105155 0.000000 0.361392
O O11 0.641905 0.141389 0.500000
O O12 0.602469 0.000000 0.607062
#
# Coordination Sequence:
#
# PCOD9494416 Si02
#       4
#    16  16  16  16
#     4   9  17  27  39  59  87 114 136 159 193 241
#     4   8  14  25  40  57  78 106 140 173 200 228
#     4   9  16  26  41  61  84 107 131 163 202 240
#     4   9  17  29  46  65  80  98 131 174 212 240
#
# _framework density 21.981598000000002
#
# number of rings (size 3 to 8) (size 9 to 14) (size 15 to 20)
#    0.000    3.250    0.000    2.250    0.000    3.000 
#    0.000    2.500    0.000    3.000    0.000   21.000 
#    0.000    2.000    0.000    0.000    0.000    0.000 
#
# Total GULP energy -178416.981714 kJ/mol
# GULP energy per Si atom -5575.530679 kJ/mol
# Density = 2.193157 g / cm^3
# Si number density = 21.981598 Si / 1000 Ang^3
#
#
#
# Elastic Constant Matrix: (Units=GPa)
#
#
# Indices 1 2 3 4 5 6 
#
# 1 72.0438 11.9719 -1.1072 0.0000 0.0000 0.0000
# 2 11.9719 310.0887 103.1463 0.0000 0.0000 0.0000
# 3 -1.1072 103.1463 67.6338 0.0000 0.0000 0.0000
# 4 0.0000 0.0000 0.0000 42.8353 0.0000 0.0000
# 5 0.0000 0.0000 0.0000 0.0000 32.4484 0.0000
# 6 0.0000 0.0000 0.0000 0.0000 0.0000 -18.5209
#
#
#
# Elastic Compliance Matrix: (Units=1/GPa)
#
#
# Indices 1 2 3 4 5 6 
#
# 1 0.014123 -0.001263 0.002157 0.000000 0.000000 0.000000
# 2 -0.001263 0.006658 -0.010175 0.000000 0.000000 0.000000
# 3 0.002157 -0.010175 0.030338 0.000000 0.000000 0.000000
# 4 0.000000 0.000000 0.000000 0.023345 0.000000 0.000000
# 5 0.000000 0.000000 0.000000 0.000000 0.030818 0.000000
# 6 0.000000 0.000000 0.000000 0.000000 0.000000 -0.053993
#
#
# Mechanical properties :
#
#
# Convention : Reuss Voigt Hill
#
# Bulk Modulus (GPa) = 30.71386 75.30981 53.01184
# Shear Modulus (GPa) = 61.95483 33.73624 47.84554
#
# Velocity S-wave (km/s) = 5.31470 3.92184 4.67049
# Velocity P-wave (km/s) = 7.18779 7.40557 7.29749
#
# Compressibility (1/GPa) = 0.03255859
#
# Stress axis : x y z
#
# Youngs Moduli (GPa) = 70.80425 150.19252 32.96190
#
# Poissons Ratio (x) = 0.18966 -0.07110
# Poissons Ratio (y) = 0.08941 0.33538
# Poissons Ratio (z) = -0.15273 1.52818
#
# Static dielectric constant tensor:
#      x y z
#    x 1.794980 0.000000 0.000000 
#    y 0.000000 1.886210 0.000000 
#    z 0.000000 0.000000 1.732110 
# 
# From -- ./inp_files/37735.got.cif
#   From: 2010.05.17/outbox.cif.g08.bks.cpg/sg65_19_cif.got.tgz:37735.got - 2010.06.03 17:01:31.
