data_PCOD9494683
_publ_section_title
;
Structure prediction by ZEFSAII (Michael W. Deem and Ramdas Pophale) SiO2 
 PCOD9494683
Probable space group: C M M M
;
_chemical_formula_sum "Si O2"
_cell_formula_units_Z 56
_cell_length_a 15.000000
_cell_length_b 27.000000
_cell_length_c 15.000000
_cell_angle_alpha 90.000000
_cell_angle_beta 90.000000
_cell_angle_gamma 90.000000
_cell_volume 6075.000000
_symmetry_space_group_name_H-M "C M M M"
_symmetry_group_IT_number 65
_symmetry_cell_setting 'orthorhombic'
loop_
_space_group_symop_operation_xyz
x,y,z
-x,-y,z
x,-y,-z
-x,y,-z
-x,-y,-z
x,y,-z
-x,y,z
x,-y,z
1/2+x,1/2+y,z
1/2-x,1/2-y,z
1/2+x,1/2-y,-z
1/2-x,1/2+y,-z
1/2-x,1/2-y,-z
1/2+x,1/2+y,-z
1/2-x,1/2+y,z
1/2+x,1/2-y,z
loop_
_atom_site_type_symbol
_atom_site_label
_atom_site_fract_x
_atom_site_fract_y
_atom_site_fract_z
Si Si1 0.394373 0.856689 0.898481
Si Si2 0.396246 0.339510 0.768358
Si Si3 0.392840 0.943635 0.232567
Si Si4 0.222524 0.412994 0.399443
Si Si5 0.644261 0.747581 0.900198
Si Si6 0.605960 0.556918 0.296164
Si Si7 0.286539 0.694251 0.400393
O O1 0.500000 0.864739 0.905811
O O2 0.360826 0.900855 0.835714
O O3 0.382519 0.801087 0.860154
O O4 0.356805 0.857490 0.000000
O O5 0.500000 0.337662 0.752258
O O6 0.377512 0.302561 0.849041
O O7 0.374118 0.398262 0.773564
O O8 0.349644 0.316640 0.682010
O O9 0.500000 0.938629 0.244013
O O10 0.342302 0.935150 0.325372
O O11 0.375822 0.000000 0.200926
O O12 0.201523 0.428377 0.500000
O O13 0.323494 0.430218 0.374260
O O14 0.219228 0.352707 0.395557
O O15 0.750000 0.750000 0.905129
O O16 0.605963 0.746272 0.000000
O O17 0.500000 0.560089 0.320210
O O18 0.621578 0.500000 0.266925
O O19 0.327350 0.690537 0.500000
O O20 0.250000 0.750000 0.392010
#
# Coordination Sequence:
#
# PCOD9494683 Si02
#       7
#    16  16  16  16  16  16  16
#     4   9  19  36  57  80 106 137 176 224 273 319
#     4  10  20  32  53  80 105 140 175 215 271 319
#     4  10  22  37  54  80 111 144 183 225 269 321
#     4  10  21  36  55  79 109 147 186 223 268 319
#     4  10  21  35  54  81 110 139 175 219 265 321
#     4   9  19  35  54  79 108 139 182 229 271 318
#     4   9  19  35  53  75 105 140 178 219 264 318
#
# _framework density 9.2181069999999998
#
# number of rings (size 3 to 8) (size 9 to 14) (size 15 to 20)
#    0.000    2.429    0.000    1.286    6.000    3.143 
#    0.000    5.714    0.000    3.000    0.000    2.000 
#    0.000    0.000    0.000    0.000    0.000    0.143 
#
# Total GULP energy -311745.815418 kJ/mol
# GULP energy per Si atom -5566.889561 kJ/mol
# Density = 0.919713 g / cm^3
# Si number density = 9.218107 Si / 1000 Ang^3
#
#
#
# Elastic Constant Matrix: (Units=GPa)
#
#
# Indices 1 2 3 4 5 6 
#
# 1 35.5866 21.7435 16.6645 0.0000 0.0000 0.0000
# 2 21.7435 174.2002 67.2133 0.0000 0.0000 0.0000
# 3 16.6645 67.2133 75.5352 0.0000 0.0000 0.0000
# 4 0.0000 0.0000 0.0000 1.2111 0.0000 0.0000
# 5 0.0000 0.0000 0.0000 0.0000 0.6808 0.0000
# 6 0.0000 0.0000 0.0000 0.0000 0.0000 20.9008
#
#
#
# Elastic Compliance Matrix: (Units=1/GPa)
#
#
# Indices 1 2 3 4 5 6 
#
# 1 0.031754 -0.001920 -0.005297 0.000000 0.000000 0.000000
# 2 -0.001920 0.008858 -0.007459 0.000000 0.000000 0.000000
# 3 -0.005297 -0.007459 0.021044 0.000000 0.000000 0.000000
# 4 0.000000 0.000000 0.000000 0.825724 0.000000 0.000000
# 5 0.000000 0.000000 0.000000 0.000000 1.468809 0.000000
# 6 0.000000 0.000000 0.000000 0.000000 0.000000 0.047845
#
#
# Mechanical properties :
#
#
# Convention : Reuss Voigt Hill
#
# Bulk Modulus (GPa) = 30.95476 55.17385 43.06430
# Shear Modulus (GPa) = 2.04570 16.53859 9.29214
#
# Velocity S-wave (km/s) = 1.05452 2.99836 2.24747
# Velocity P-wave (km/s) = 4.27894 6.47910 5.49036
#
# Compressibility (1/GPa) = 0.03230521
#
# Stress axis : x y z
#
# Youngs Moduli (GPa) = 31.49211 112.89353 47.51865
#
# Poissons Ratio (x) = 0.21670 0.25173
# Poissons Ratio (y) = 0.06045 0.35442
# Poissons Ratio (z) = 0.16683 0.84202
#
# Static dielectric constant tensor:
#      x y z
#    x 1.643770 0.000000 0.000000 
#    y 0.000000 1.679480 0.000000 
#    z 0.000000 0.000000 1.655070 
# 
# From -- ./inp_files/40830.got.cif
#   From: 2010.05.17/outbox.ucp.g08.bks.cvg/sg65_21_cif.got.tgz:40830.got - 2010.06.11 16:39:57.
