data_PCOD9494800
_publ_section_title
;
Structure prediction by ZEFSAII (Michael W. Deem and Ramdas Pophale) SiO2 
 PCOD9494800
Probable space group: C M M M
;
_chemical_formula_sum "Si O2"
_cell_formula_units_Z 44
_cell_length_a 18.000000
_cell_length_b 9.000000
_cell_length_c 30.000000
_cell_angle_alpha 90.000000
_cell_angle_beta 90.000000
_cell_angle_gamma 90.000000
_cell_volume 4860.000000
_symmetry_space_group_name_H-M "C M M M"
_symmetry_group_IT_number 65
_symmetry_cell_setting 'orthorhombic'
loop_
_space_group_symop_operation_xyz
x,y,z
-x,-y,z
x,-y,-z
-x,y,-z
-x,-y,-z
x,y,-z
-x,y,z
x,-y,z
1/2+x,1/2+y,z
1/2-x,1/2-y,z
1/2+x,1/2-y,-z
1/2-x,1/2+y,-z
1/2-x,1/2-y,-z
1/2+x,1/2+y,-z
1/2-x,1/2+y,z
1/2+x,1/2-y,z
loop_
_atom_site_type_symbol
_atom_site_label
_atom_site_fract_x
_atom_site_fract_y
_atom_site_fract_z
Si Si1 0.589177 0.323279 0.084045
Si Si2 0.668691 0.177451 0.267419
Si Si3 0.910706 0.173982 0.184468
Si Si4 0.668632 0.177620 0.366898
Si Si5 0.589231 0.325004 0.549804
Si Si6 0.331034 0.177392 0.000000
O O1 0.500000 0.305686 0.081224
O O2 0.604684 0.500000 0.079189
O O3 0.612737 0.278174 0.134378
O O4 0.627072 0.234451 0.044304
O O5 0.750000 0.250000 0.264892
O O6 0.622383 0.236868 0.225692
O O7 0.637876 0.214491 0.317146
O O8 0.674909 0.000000 0.264835
O O9 0.000000 0.183659 0.185484
O O10 0.890532 0.000000 0.189217
O O11 0.750000 0.250000 0.369245
O O12 0.622672 0.238252 0.408604
O O13 0.674484 0.000000 0.369707
O O14 0.613813 0.275142 0.500000
O O15 0.500000 0.312986 0.550890
O O16 0.608008 0.500000 0.553847
O O17 0.250000 0.250000 0.000000
O O18 0.326633 0.000000 0.000000
#
# Coordination Sequence:
#
# PCOD9494800 Si02
#       6
#    16  16  16  16  16   8
#     4   9  19  38  61  82 108 142 177 216 264 316
#     4  10  21  36  54  77 107 142 178 219 265 312
#     4   9  19  36  58  83 109 140 178 216 259 315
#     4  10  21  36  54  77 105 139 179 219 262 313
#     4   9  19  36  56  78 105 137 173 214 262 315
#     4  12  25  38  55  81 111 143 181 222 265 314
#
# _framework density 9.0534979999999994
#
# number of rings (size 3 to 8) (size 9 to 14) (size 15 to 20)
#    0.000    2.364    0.000    3.818    0.000    7.273 
#    0.000    6.364    0.000    0.000    0.000    0.000 
#    0.000    0.000    0.000    0.000    0.000    0.000 
#
# Total GULP energy -245445.879197 kJ/mol
# GULP energy per Si atom -5578.315436 kJ/mol
# Density = 0.903289 g / cm^3
# Si number density = 9.053498 Si / 1000 Ang^3
#
#
#
# Elastic Constant Matrix: (Units=GPa)
#
#
# Indices 1 2 3 4 5 6 
#
# 1 36.4182 39.4637 64.7421 0.0000 0.0000 0.0000
# 2 39.4637 86.1844 98.7819 0.0000 0.0000 0.0000
# 3 64.7421 98.7819 220.3201 0.0000 0.0000 0.0000
# 4 0.0000 0.0000 0.0000 38.9462 0.0000 0.0000
# 5 0.0000 0.0000 0.0000 0.0000 53.2030 0.0000
# 6 0.0000 0.0000 0.0000 0.0000 0.0000 31.0159
#
#
#
# Elastic Compliance Matrix: (Units=1/GPa)
#
#
# Indices 1 2 3 4 5 6 
#
# 1 0.067596 -0.016839 -0.012314 0.000000 0.000000 0.000000
# 2 -0.016839 0.028064 -0.007635 0.000000 0.000000 0.000000
# 3 -0.012314 -0.007635 0.011580 0.000000 0.000000 0.000000
# 4 0.000000 0.000000 0.000000 0.025676 0.000000 0.000000
# 5 0.000000 0.000000 0.000000 0.000000 0.018796 0.000000
# 6 0.000000 0.000000 0.000000 0.000000 0.000000 0.032242
#
#
# Mechanical properties :
#
#
# Convention : Reuss Voigt Hill
#
# Bulk Modulus (GPa) = 29.70291 83.21091 56.45691
# Shear Modulus (GPa) = 18.60462 33.96202 26.28332
#
# Velocity S-wave (km/s) = 3.20891 4.33555 3.81406
# Velocity P-wave (km/s) = 5.49265 8.43312 7.11642
#
# Compressibility (1/GPa) = 0.03366673
#
# Stress axis : x y z
#
# Youngs Moduli (GPa) = 14.79368 35.63309 86.35341
#
# Poissons Ratio (x) = 0.60001 1.06334
# Poissons Ratio (y) = 0.24910 0.65927
# Poissons Ratio (z) = 0.18217 0.27204
#
# Static dielectric constant tensor:
#      x y z
#    x 1.602720 0.000000 0.000000 
#    y 0.000000 1.603660 0.000000 
#    z 0.000000 0.000000 1.630210 
# 
# From -- ./inp_files/67466.got.cif
#   From: 2010.05.17/outbox.ucp.g08.bks.cvg/sg65_34_cif.got.tgz:67466.got - 2010.06.11 16:39:57.
