data_PCOD9494728
_publ_section_title
;
Structure prediction by ZEFSAII (Michael W. Deem and Ramdas Pophale) SiO2 
 PCOD9494728
Probable space group: C M M M
;
_chemical_formula_sum "Si O2"
_cell_formula_units_Z 36
_cell_length_a 15.000000
_cell_length_b 27.000000
_cell_length_c 9.000000
_cell_angle_alpha 90.000000
_cell_angle_beta 90.000000
_cell_angle_gamma 90.000000
_cell_volume 3645.000000
_symmetry_space_group_name_H-M "C M M M"
_symmetry_group_IT_number 65
_symmetry_cell_setting 'orthorhombic'
loop_
_space_group_symop_operation_xyz
x,y,z
-x,-y,z
x,-y,-z
-x,y,-z
-x,-y,-z
x,y,-z
-x,y,z
x,-y,z
1/2+x,1/2+y,z
1/2-x,1/2-y,z
1/2+x,1/2-y,-z
1/2-x,1/2+y,-z
1/2-x,1/2-y,-z
1/2+x,1/2+y,-z
1/2-x,1/2+y,z
1/2+x,1/2-y,z
loop_
_atom_site_type_symbol
_atom_site_label
_atom_site_fract_x
_atom_site_fract_y
_atom_site_fract_z
Si Si1 0.904171 0.177021 0.670925
Si Si2 0.102772 0.000000 0.822387
Si Si3 0.599970 0.874120 0.320820
Si Si4 0.217408 0.914542 0.322677
Si Si5 0.847485 0.729536 0.175522
O O1 0.893508 0.194173 0.500000
O O2 0.825588 0.139285 0.704631
O O3 0.905573 0.223778 0.776792
O O4 0.000000 0.150403 0.680179
O O5 0.157284 0.953294 0.762378
O O6 0.000000 0.000000 0.770104
O O7 0.102095 0.000000 0.000000
O O8 0.602563 0.871124 0.500000
O O9 0.500000 0.888375 0.275267
O O10 0.679386 0.911180 0.276553
O O11 0.622828 0.819979 0.257697
O O12 0.212321 0.924177 0.500000
O O13 0.750000 0.750000 0.218774
O O14 0.849311 0.720582 0.000000
#
# Coordination Sequence:
#
# PCOD9494728 Si02
#       5
#    16   8  16  16  16
#     4  10  20  34  55  82 110 146 193 239 283 336
#     4  11  25  43  64  91 120 148 181 229 290 351
#     4  10  21  38  61  87 115 152 198 244 287 333
#     4  10  21  39  63  87 114 148 190 238 288 344
#     4  11  22  34  51  79 117 159 198 235 281 338
#
# _framework density 9.8765429999999999
#
# number of rings (size 3 to 8) (size 9 to 14) (size 15 to 20)
#    0.000    1.667    2.222    2.333    0.000    8.000 
#    0.000    0.556    0.000    3.333    0.000    0.000 
#    0.000    0.000    0.000    0.000    0.000    0.000 
#
# Total GULP energy -200858.871734 kJ/mol
# GULP energy per Si atom -5579.413104 kJ/mol
# Density = 0.985406 g / cm^3
# Si number density = 9.876543 Si / 1000 Ang^3
#
#
#
# Elastic Constant Matrix: (Units=GPa)
#
#
# Indices 1 2 3 4 5 6 
#
# 1 194.1993 50.1102 42.0674 0.0000 0.0000 0.0000
# 2 50.1102 54.5923 23.0527 0.0000 0.0000 0.0000
# 3 42.0674 23.0527 -7.6893 0.0000 0.0000 0.0000
# 4 0.0000 0.0000 0.0000 42.3829 0.0000 0.0000
# 5 0.0000 0.0000 0.0000 0.0000 16.8821 0.0000
# 6 0.0000 0.0000 0.0000 0.0000 0.0000 24.6354
#
#
#
# Elastic Compliance Matrix: (Units=1/GPa)
#
#
# Indices 1 2 3 4 5 6 
#
# 1 0.005771 -0.008221 0.006924 0.000000 0.000000 0.000000
# 2 -0.008221 0.019795 0.014371 0.000000 0.000000 0.000000
# 3 0.006924 0.014371 -0.049084 0.000000 0.000000 0.000000
# 4 0.000000 0.000000 0.000000 0.023594 0.000000 0.000000
# 5 0.000000 0.000000 0.000000 0.000000 0.059234 0.000000
# 6 0.000000 0.000000 0.000000 0.000000 0.000000 0.040592
#
#
# Mechanical properties :
#
#
# Convention : Reuss Voigt Hill
#
# Bulk Modulus (GPa) = 380.15558 52.39588 216.27573
# Shear Modulus (GPa) = 66.99674 25.17156 46.08415
#
# Velocity S-wave (km/s) = 5.83016 3.57362 4.83536
# Velocity P-wave (km/s) = 15.43349 6.60384 11.87020
#
# Compressibility (1/GPa) = 0.00263050
#
# Stress axis : x y z
#
# Youngs Moduli (GPa) = 173.29046 50.51749 -20.37324
#
# Poissons Ratio (x) = 0.41530 0.14107
# Poissons Ratio (y) = 1.42459 0.29278
# Poissons Ratio (z) = -1.19993 -0.72598
#
# Static dielectric constant tensor:
#      x y z
#    x 1.603930 0.000000 0.000000 
#    y 0.000000 1.667370 0.000000 
#    z 0.000000 0.000000 1.669620 
# 
# From -- ./inp_files/7264.got.cif
#   From: 2010.05.17/outbox.ucp.g08.bks.cvg/sg65_4_cif.got.tgz:7264.got - 2010.06.11 16:39:57.
