data_PCOD9494916
_publ_section_title
;
Structure prediction by ZEFSAII (Michael W. Deem and Ramdas Pophale) SiO2 
 PCOD9494916
Probable space group: C C C M
;
_chemical_formula_sum "Si O2"
_cell_formula_units_Z 80
_cell_length_a 7.800442
_cell_length_b 32.980014
_cell_length_c 14.313323
_cell_angle_alpha 90.000000
_cell_angle_beta 90.000000
_cell_angle_gamma 90.000000
_cell_volume 3682.226673
_symmetry_space_group_name_H-M "C C C M"
_symmetry_group_IT_number 66
_symmetry_cell_setting 'orthorhombic'
loop_
_space_group_symop_operation_xyz
x,y,z
-x,-y,z
x,-y,1/2-z
-x,y,1/2-z
-x,-y,-z
x,y,-z
-x,y,1/2+z
x,-y,1/2+z
1/2+x,1/2+y,z
1/2-x,1/2-y,z
1/2+x,1/2-y,1/2-z
1/2-x,1/2+y,1/2-z
1/2-x,1/2-y,-z
1/2+x,1/2+y,-z
1/2-x,1/2+y,1/2+z
1/2+x,1/2-y,1/2+z
loop_
_atom_site_type_symbol
_atom_site_label
_atom_site_fract_x
_atom_site_fract_y
_atom_site_fract_z
Si Si1 0.763985 0.158629 0.218120
Si Si2 0.573602 0.809536 0.887610
Si Si3 0.568293 0.274452 0.894024
Si Si4 0.708510 0.996663 0.894968
Si Si5 0.290889 0.932375 0.246128
O O1 0.595078 0.167854 0.153383
O O2 0.722398 0.173283 0.322983
O O3 0.902999 0.186543 0.168172
O O4 0.789803 0.110828 0.224511
O O5 0.557146 0.761671 0.864838
O O6 0.585249 0.814021 0.000000
O O7 0.750000 0.250000 0.895929
O O8 0.526029 0.286335 0.000000
O O9 0.759231 0.035130 0.832882
O O10 0.500000 0.000000 0.896027
O O11 0.754702 0.955057 0.842461
O O12 0.771840 0.998185 0.000000
O O13 0.500000 0.927136 0.250000
#
# Coordination Sequence:
#
# PCOD9494916 Si02
#       5
#    16  16  16  16  16
#     4  10  16  25  41  57  73 100 134 168 193 228
#     4   9  17  27  39  56  75  97 128 166 202 235
#     4   8  15  27  40  55  75  96 126 166 203 233
#     4   8  15  24  33  43  67  97 118 153 192 218
#     4   9  15  24  31  50  71  88 128 162 184 221
#
# _framework density 21.725985000000001
#
# number of rings (size 3 to 8) (size 9 to 14) (size 15 to 20)
#    0.000    3.200    2.000    3.000    0.000    2.400 
#    0.000    0.000    0.000   16.200    0.000    0.000 
#    0.000    0.000    0.000    0.000    0.000  152.000 
#
# Total GULP energy -223362.445273 kJ/mol
# GULP energy per Si atom -5584.061132 kJ/mol
# Density = 2.167654 g / cm^3
# Si number density = 21.725985 Si / 1000 Ang^3
#
#
#
# Elastic Constant Matrix: (Units=GPa)
#
#
# Indices 1 2 3 4 5 6 
#
# 1 56.9069 15.0634 13.1896 0.0000 0.0000 0.0000
# 2 15.0634 198.6475 84.0682 0.0000 0.0000 0.0000
# 3 13.1896 84.0682 164.8964 0.0000 0.0000 0.0000
# 4 0.0000 0.0000 0.0000 -8.2721 0.0000 0.0000
# 5 0.0000 0.0000 0.0000 0.0000 2.0855 0.0000
# 6 0.0000 0.0000 0.0000 0.0000 0.0000 -1.0779
#
#
#
# Elastic Compliance Matrix: (Units=1/GPa)
#
#
# Indices 1 2 3 4 5 6 
#
# 1 0.018049 -0.000966 -0.000951 0.000000 0.000000 0.000000
# 2 -0.000966 0.006471 -0.003222 0.000000 0.000000 0.000000
# 3 -0.000951 -0.003222 0.007783 0.000000 0.000000 0.000000
# 4 0.000000 0.000000 0.000000 -0.120889 0.000000 0.000000
# 5 0.000000 0.000000 0.000000 0.000000 0.479499 0.000000
# 6 0.000000 0.000000 0.000000 0.000000 0.000000 -0.927707
#
#
# Mechanical properties :
#
#
# Convention : Reuss Voigt Hill
#
# Bulk Modulus (GPa) = 45.40369 71.67702 58.54036
# Shear Modulus (GPa) = -9.63067 19.08908 4.72920
#
# Velocity S-wave (km/s) = -2.10770 2.96738 1.47698
# Velocity P-wave (km/s) = 3.87563 6.69354 5.46919
#
# Compressibility (1/GPa) = 0.02202464
#
# Stress axis : x y z
#
# Youngs Moduli (GPa) = 55.40556 154.54243 128.48568
#
# Poissons Ratio (x) = 0.14931 0.12221
# Poissons Ratio (y) = 0.05353 0.41394
# Poissons Ratio (z) = 0.05270 0.49788
#
# Static dielectric constant tensor:
#      x y z
#    x 1.374960 0.000000 0.000000 
#    y 0.000000 1.748520 0.000000 
#    z 0.000000 0.000000 1.764310 
# 
# From -- ./inp_files/26839.got.cif
#   From: 2010.05.17/outbox.cif.g08.bks.cpg/sg66_14_cif.got.tgz:26839.got - 2010.06.03 17:51:23.
