data_PCOD9494013
_publ_section_title
;
Structure prediction by ZEFSAII (Michael W. Deem and Ramdas Pophale) SiO2 
 PCOD9494013
Probable space group: C M M M
;
_chemical_formula_sum "Si O2"
_cell_formula_units_Z 44
_cell_length_a 10.038283
_cell_length_b 27.240445
_cell_length_c 7.377249
_cell_angle_alpha 90.000000
_cell_angle_beta 90.000000
_cell_angle_gamma 90.000000
_cell_volume 2017.288791
_symmetry_space_group_name_H-M "C M M M"
_symmetry_group_IT_number 65
_symmetry_cell_setting 'orthorhombic'
loop_
_space_group_symop_operation_xyz
x,y,z
-x,-y,z
x,-y,-z
-x,y,-z
-x,-y,-z
x,y,-z
-x,y,z
x,-y,z
1/2+x,1/2+y,z
1/2-x,1/2-y,z
1/2+x,1/2-y,-z
1/2-x,1/2+y,-z
1/2-x,1/2-y,-z
1/2+x,1/2+y,-z
1/2-x,1/2+y,z
1/2+x,1/2-y,z
loop_
_atom_site_type_symbol
_atom_site_label
_atom_site_fract_x
_atom_site_fract_y
_atom_site_fract_z
Si Si1 0.290868 0.595789 0.790365
Si Si2 0.500000 0.437943 0.500000
Si Si3 0.000000 0.556490 0.282556
Si Si4 0.349089 0.707798 0.220228
O O1 0.383289 0.564417 0.658104
O O2 0.136209 0.581714 0.779568
O O3 0.309557 0.652520 0.729591
O O4 0.333654 0.592017 0.000000
O O5 0.000000 0.500000 0.222075
O O6 0.000000 0.557449 0.500000
O O7 0.500000 0.716958 0.279533
O O8 0.250000 0.750000 0.284156
O O9 0.347436 0.709024 0.000000
#
# Coordination Sequence:
#
# PCOD9494013 Si02
#       4
#    16   4   8  16
#     4  11  23  42  70  97 131 180 225 274 337 398
#     4  12  22  42  67  96 136 170 214 280 331 398
#     4  11  25  47  72 100 135 175 223 283 343 401
#     4   9  18  33  57  91 129 172 221 268 324 393
#
# _framework density 21.811454000000001
#
# number of rings (size 3 to 8) (size 9 to 14) (size 15 to 20)
#    0.000    1.636    3.636    1.091    2.545    1.455 
#    0.000    2.727    4.000    2.182    0.000    0.000 
#    0.000    0.000    0.000    0.000    0.000    0.000 
#
# Total GULP energy -122524.778852 kJ/mol
# GULP energy per Si atom -5569.308130 kJ/mol
# Density = 2.176181 g / cm^3
# Si number density = 21.811454 Si / 1000 Ang^3
#
#
#
# Elastic Constant Matrix: (Units=GPa)
#
#
# Indices 1 2 3 4 5 6 
#
# 1 217.8174 65.0401 24.2456 0.0000 0.0000 0.0000
# 2 65.0401 83.1787 8.7787 0.0000 0.0000 0.0000
# 3 24.2456 8.7787 135.6026 0.0000 0.0000 0.0000
# 4 0.0000 0.0000 0.0000 -25.2060 0.0000 0.0000
# 5 0.0000 0.0000 0.0000 0.0000 -194.3350 0.0000
# 6 0.0000 0.0000 0.0000 0.0000 0.0000 48.8363
#
#
#
# Elastic Compliance Matrix: (Units=1/GPa)
#
#
# Indices 1 2 3 4 5 6 
#
# 1 0.006071 -0.004664 -0.000784 0.000000 0.000000 0.000000
# 2 -0.004664 0.015689 -0.000182 0.000000 0.000000 0.000000
# 3 -0.000784 -0.000182 0.007526 0.000000 0.000000 0.000000
# 4 0.000000 0.000000 0.000000 -0.039673 0.000000 0.000000
# 5 0.000000 0.000000 0.000000 0.000000 -0.005146 0.000000
# 6 0.000000 0.000000 0.000000 0.000000 0.000000 0.020477
#
#
# Mechanical properties :
#
#
# Convention : Reuss Voigt Hill
#
# Bulk Modulus (GPa) = 55.47279 70.30307 62.88793
# Shear Modulus (GPa) = 225.10382 -11.57198 106.76592
#
# Velocity S-wave (km/s) = 10.16998 -2.30586 7.00398
# Velocity P-wave (km/s) = 12.78252 5.02124 9.71096
#
# Compressibility (1/GPa) = 0.01802686
#
# Stress axis : x y z
#
# Youngs Moduli (GPa) = 164.71734 63.74000 132.86664
#
# Poissons Ratio (x) = 0.29731 0.10410
# Poissons Ratio (y) = 0.76831 0.02414
# Poissons Ratio (z) = 0.12906 0.01158
#
# Static dielectric constant tensor:
#      x y z
#    x 1.735310 0.000000 0.000000 
#    y 0.000000 1.807100 0.000000 
#    z 0.000000 0.000000 1.811660 
# 
# From -- ./inp_files/2870.got.cif
#   From: 2010.05.17/outbox.cif.g08.bks.cpg/sg65_2_cif.got.tgz:2870.got - 2010.06.03 17:01:31.
