data_PCOD9494123
_publ_section_title
;
Structure prediction by ZEFSAII (Michael W. Deem and Ramdas Pophale) SiO2 
 PCOD9494123
Probable space group: C M M M
;
_chemical_formula_sum "Si O2"
_cell_formula_units_Z 72
_cell_length_a 14.527936
_cell_length_b 32.816598
_cell_length_c 7.762236
_cell_angle_alpha 90.000000
_cell_angle_beta 90.000000
_cell_angle_gamma 90.000000
_cell_volume 3700.703729
_symmetry_space_group_name_H-M "C M M M"
_symmetry_group_IT_number 65
_symmetry_cell_setting 'orthorhombic'
loop_
_space_group_symop_operation_xyz
x,y,z
-x,-y,z
x,-y,-z
-x,y,-z
-x,-y,-z
x,y,-z
-x,y,z
x,-y,z
1/2+x,1/2+y,z
1/2-x,1/2-y,z
1/2+x,1/2-y,-z
1/2-x,1/2+y,-z
1/2-x,1/2-y,-z
1/2+x,1/2+y,-z
1/2-x,1/2+y,z
1/2+x,1/2-y,z
loop_
_atom_site_type_symbol
_atom_site_label
_atom_site_fract_x
_atom_site_fract_y
_atom_site_fract_z
Si Si1 0.390027 0.452570 0.500000
Si Si2 0.895247 0.547515 0.291554
Si Si3 0.287613 0.408490 0.190492
Si Si4 0.604187 0.760967 0.710007
Si Si5 0.226138 0.184403 0.709098
O O1 0.362160 0.500000 0.500000
O O2 0.500000 0.449978 0.500000
O O3 0.347849 0.430530 0.334472
O O4 0.889734 0.550315 0.500000
O O5 0.879504 0.500000 0.245997
O O6 0.816776 0.575665 0.214421
O O7 0.000000 0.558092 0.241653
O O8 0.289657 0.360064 0.217332
O O9 0.320142 0.419096 0.000000
O O10 0.603052 0.761438 0.500000
O O11 0.500000 0.766013 0.770801
O O12 0.675940 0.796029 0.761938
O O13 0.649058 0.717634 0.759002
O O14 0.225637 0.181406 0.500000
#
# Coordination Sequence:
#
# PCOD9494123 Si02
#       5
#     8  16  16  16  16
#     4  11  26  48  69  88 117 159 208 262 317 369
#     4   9  18  35  60  88 119 157 199 243 299 367
#     4  12  24  39  63  94 127 162 204 255 309 366
#     4   8  15  29  54  83 113 156 203 247 295 348
#     4   9  17  33  54  83 119 154 201 248 294 358
#
# _framework density 19.455759
#
# number of rings (size 3 to 8) (size 9 to 14) (size 15 to 20)
#    0.000    2.333    2.222    2.667    0.000    4.444 
#    0.000    6.667    0.000    1.333    0.000    0.000 
#    0.000    0.000    0.000    0.000    0.000    0.000 
#
# Total GULP energy -201081.372781 kJ/mol
# GULP energy per Si atom -5585.593688 kJ/mol
# Density = 1.941148 g / cm^3
# Si number density = 19.455759 Si / 1000 Ang^3
#
#
#
# Elastic Constant Matrix: (Units=GPa)
#
#
# Indices 1 2 3 4 5 6 
#
# 1 93.4283 45.6581 34.2264 0.0000 0.0000 0.0000
# 2 45.6581 120.7122 47.5918 0.0000 0.0000 0.0000
# 3 34.2264 47.5918 93.3272 0.0000 0.0000 0.0000
# 4 0.0000 0.0000 0.0000 -37.7308 0.0000 0.0000
# 5 0.0000 0.0000 0.0000 0.0000 -11.5438 0.0000
# 6 0.0000 0.0000 0.0000 0.0000 0.0000 -39.9627
#
#
#
# Elastic Compliance Matrix: (Units=1/GPa)
#
#
# Indices 1 2 3 4 5 6 
#
# 1 0.013769 -0.004027 -0.002996 0.000000 0.000000 0.000000
# 2 -0.004027 0.011546 -0.004411 0.000000 0.000000 0.000000
# 3 -0.002996 -0.004411 0.014063 0.000000 0.000000 0.000000
# 4 0.000000 0.000000 0.000000 -0.026504 0.000000 0.000000
# 5 0.000000 0.000000 0.000000 0.000000 -0.086627 0.000000
# 6 0.000000 0.000000 0.000000 0.000000 0.000000 -0.025023
#
#
# Mechanical properties :
#
#
# Convention : Reuss Voigt Hill
#
# Bulk Modulus (GPa) = 60.56823 62.49113 61.52968
# Shear Modulus (GPa) = -71.01943 -5.84803 -38.43373
#
# Velocity S-wave (km/s) = -6.04833 -1.73561 -4.44942
# Velocity P-wave (km/s) = 4.19256 5.30781 2.30167
#
# Compressibility (1/GPa) = 0.01651031
#
# Stress axis : x y z
#
# Youngs Moduli (GPa) = 72.62795 86.60712 71.10702
#
# Poissons Ratio (x) = 0.34874 0.21305
# Poissons Ratio (y) = 0.29245 0.31368
# Poissons Ratio (z) = 0.21760 0.38205
#
# Static dielectric constant tensor:
#      x y z
#    x 1.665580 0.000000 0.000000 
#    y 0.000000 1.638960 0.000000 
#    z 0.000000 0.000000 1.707370 
# 
# From -- ./inp_files/7660.got.cif
#   From: 2010.05.17/outbox.cif.g08.bks.cpg/sg65_4_cif.got.tgz:7660.got - 2010.06.03 17:01:31.
