data_PCOD9494811
_publ_section_title
;
Structure prediction by ZEFSAII (Michael W. Deem and Ramdas Pophale) SiO2 
 PCOD9494811
Probable space group: C M M M
;
_chemical_formula_sum "Si O2"
_cell_formula_units_Z 36
_cell_length_a 27.000000
_cell_length_b 9.000000
_cell_length_c 15.000000
_cell_angle_alpha 90.000000
_cell_angle_beta 90.000000
_cell_angle_gamma 90.000000
_cell_volume 3645.000000
_symmetry_space_group_name_H-M "C M M M"
_symmetry_group_IT_number 65
_symmetry_cell_setting 'orthorhombic'
loop_
_space_group_symop_operation_xyz
x,y,z
-x,-y,z
x,-y,-z
-x,y,-z
-x,-y,-z
x,y,-z
-x,y,z
x,-y,z
1/2+x,1/2+y,z
1/2-x,1/2-y,z
1/2+x,1/2-y,-z
1/2-x,1/2+y,-z
1/2-x,1/2-y,-z
1/2+x,1/2+y,-z
1/2-x,1/2+y,z
1/2+x,1/2-y,z
loop_
_atom_site_type_symbol
_atom_site_label
_atom_site_fract_x
_atom_site_fract_y
_atom_site_fract_z
Si Si1 0.558835 0.330839 0.600098
Si Si2 0.801994 0.830509 0.398898
Si Si3 0.397223 0.323365 0.898663
Si Si4 0.625351 0.173231 0.268577
Si Si5 0.500000 0.166568 0.107258
O O1 0.571605 0.277360 0.500000
O O2 0.500000 0.340394 0.602500
O O3 0.578816 0.500000 0.610926
O O4 0.576512 0.231001 0.680950
O O5 0.820808 0.836705 0.500000
O O6 0.750000 0.750000 0.401533
O O7 0.834939 0.726182 0.339274
O O8 0.798893 0.000000 0.365747
O O9 0.398648 0.500000 0.894541
O O10 0.363070 0.255569 0.823464
O O11 0.450810 0.257518 0.873455
O O12 0.385587 0.278585 0.000000
O O13 0.623342 0.000000 0.253229
O O14 0.500000 0.000000 0.145266
O O15 0.500000 0.152603 0.000000
#
# Coordination Sequence:
#
# PCOD9494811 Si02
#       5
#    16  16  16  16   8
#     4   9  19  36  55  75 105 147 191 232 275 327
#     4  10  21  39  63  89 117 147 183 229 280 334
#     4  10  21  37  56  77 105 146 193 238 283 332
#     4  12  24  35  54  83 115 149 186 231 282 336
#     4   9  17  31  51  75 104 137 178 231 285 331
#
# _framework density 9.8765429999999999
#
# number of rings (size 3 to 8) (size 9 to 14) (size 15 to 20)
#    0.000    1.889    0.000    5.000    1.556    7.556 
#    0.000    1.111    0.000    0.667    0.000    0.000 
#    0.000    0.000    0.000    0.000    0.000    0.000 
#
# Total GULP energy -200649.523241 kJ/mol
# GULP energy per Si atom -5573.597868 kJ/mol
# Density = 0.985406 g / cm^3
# Si number density = 9.876543 Si / 1000 Ang^3
#
#
#
# Elastic Constant Matrix: (Units=GPa)
#
#
# Indices 1 2 3 4 5 6 
#
# 1 45.7971 6.5916 17.4381 0.0000 0.0000 0.0000
# 2 6.5916 67.1692 49.8382 0.0000 0.0000 0.0000
# 3 17.4381 49.8382 120.1919 0.0000 0.0000 0.0000
# 4 0.0000 0.0000 0.0000 25.0037 0.0000 0.0000
# 5 0.0000 0.0000 0.0000 0.0000 101.5938 0.0000
# 6 0.0000 0.0000 0.0000 0.0000 0.0000 22.2113
#
#
#
# Elastic Compliance Matrix: (Units=1/GPa)
#
#
# Indices 1 2 3 4 5 6 
#
# 1 0.023117 0.000318 -0.003486 0.000000 0.000000 0.000000
# 2 0.000318 0.021508 -0.008965 0.000000 0.000000 0.000000
# 3 -0.003486 -0.008965 0.012543 0.000000 0.000000 0.000000
# 4 0.000000 0.000000 0.000000 0.039994 0.000000 0.000000
# 5 0.000000 0.000000 0.000000 0.000000 0.009843 0.000000
# 6 0.000000 0.000000 0.000000 0.000000 0.000000 0.045022
#
#
# Mechanical properties :
#
#
# Convention : Reuss Voigt Hill
#
# Bulk Modulus (GPa) = 30.39232 42.32155 36.35693
# Shear Modulus (GPa) = 26.70085 40.38113 33.54099
#
# Velocity S-wave (km/s) = 3.68058 4.52629 4.12517
# Velocity P-wave (km/s) = 5.78634 6.98486 6.41365
#
# Compressibility (1/GPa) = 0.03290305
#
# Stress axis : x y z
#
# Youngs Moduli (GPa) = 43.25831 46.49403 79.72606
#
# Poissons Ratio (x) = -0.01477 0.27790
# Poissons Ratio (y) = -0.01375 0.71471
# Poissons Ratio (z) = 0.15079 0.41680
#
# Static dielectric constant tensor:
#      x y z
#    x 1.808320 0.000000 0.000000 
#    y 0.000000 1.645800 0.000000 
#    z 0.000000 0.000000 1.757510 
# 
# From -- ./inp_files/36530.got.cif
#   From: 2010.05.17/outbox.ucp.g08.bks.cvg/sg65_19_cif.got.tgz:36530.got - 2010.06.11 16:39:57.
