data_PCOD9494775
_publ_section_title
;
Structure prediction by ZEFSAII (Michael W. Deem and Ramdas Pophale) SiO2 
 PCOD9494775
Probable space group: C M M M
;
_chemical_formula_sum "Si O2"
_cell_formula_units_Z 56
_cell_length_a 15.000000
_cell_length_b 24.000000
_cell_length_c 15.000000
_cell_angle_alpha 90.000000
_cell_angle_beta 90.000000
_cell_angle_gamma 90.000000
_cell_volume 5400.000000
_symmetry_space_group_name_H-M "C M M M"
_symmetry_group_IT_number 65
_symmetry_cell_setting 'orthorhombic'
loop_
_space_group_symop_operation_xyz
x,y,z
-x,-y,z
x,-y,-z
-x,y,-z
-x,-y,-z
x,y,-z
-x,y,z
x,-y,z
1/2+x,1/2+y,z
1/2-x,1/2-y,z
1/2+x,1/2-y,-z
1/2-x,1/2+y,-z
1/2-x,1/2-y,-z
1/2+x,1/2+y,-z
1/2-x,1/2+y,z
1/2+x,1/2-y,z
loop_
_atom_site_type_symbol
_atom_site_label
_atom_site_fract_x
_atom_site_fract_y
_atom_site_fract_z
Si Si1 0.902234 0.214881 0.393081
Si Si2 0.780845 0.938802 0.213535
Si Si3 0.599851 0.646186 0.105277
Si Si4 0.902228 0.622081 0.784354
Si Si5 0.329254 0.603049 0.601344
Si Si6 0.644315 0.831325 0.399545
Si Si7 0.353378 0.232355 0.895587
O O1 0.893612 0.207992 0.500000
O O2 0.892785 0.152004 0.361508
O O3 0.842090 0.267304 0.370080
O O4 0.000000 0.236109 0.370969
O O5 0.833371 0.891279 0.160743
O O6 0.677132 0.922091 0.207236
O O7 0.812267 0.938068 0.317202
O O8 0.797100 0.000000 0.175988
O O9 0.500000 0.623686 0.112909
O O10 0.599597 0.710709 0.134926
O O11 0.625111 0.646946 0.000000
O O12 0.905090 0.638270 0.679947
O O13 0.876448 0.678237 0.838355
O O14 0.000000 0.603028 0.813320
O O15 0.352738 0.583339 0.500000
O O16 0.237842 0.637687 0.593202
O O17 0.605126 0.831272 0.500000
O O18 0.250000 0.250000 0.890012
O O19 0.375093 0.221774 0.000000
#
# Coordination Sequence:
#
# PCOD9494775 Si02
#       7
#    16  16  16  16  16  16  16
#     4   9  16  26  44  73 107 140 175 222 285 354
#     4  11  25  42  60  84 117 158 208 260 300 344
#     4  10  22  42  68  95 122 153 191 240 298 358
#     4  11  23  37  60  90 121 162 203 244 298 358
#     4   9  19  35  54  75 106 152 200 244 293 344
#     4   9  18  32  50  78 117 155 192 236 289 352
#     4  10  20  38  65  96 129 159 186 229 293 364
#
# _framework density 10.370369999999999
#
# number of rings (size 3 to 8) (size 9 to 14) (size 15 to 20)
#    0.000    2.143    1.429    1.286    2.000    5.143 
#    0.000    0.714    0.000    0.000    0.000    9.000 
#    0.000    0.000    0.000    0.000    0.000    0.000 
#
# Total GULP energy -312031.157663 kJ/mol
# GULP energy per Si atom -5571.984958 kJ/mol
# Density = 1.034677 g / cm^3
# Si number density = 10.370370 Si / 1000 Ang^3
#
#
#
# Elastic Constant Matrix: (Units=GPa)
#
#
# Indices 1 2 3 4 5 6 
#
# 1 19.8355 -19.9118 0.4298 0.0000 0.0000 0.0000
# 2 -19.9118 46.0750 5.6594 0.0000 0.0000 0.0000
# 3 0.4298 5.6594 42.8152 0.0000 0.0000 0.0000
# 4 0.0000 0.0000 0.0000 9.2234 0.0000 0.0000
# 5 0.0000 0.0000 0.0000 0.0000 8.7582 0.0000
# 6 0.0000 0.0000 0.0000 0.0000 0.0000 -6.0740
#
#
#
# Elastic Compliance Matrix: (Units=1/GPa)
#
#
# Indices 1 2 3 4 5 6 
#
# 1 0.090628 0.039926 -0.006187 0.000000 0.000000 0.000000
# 2 0.039926 0.039651 -0.005642 0.000000 0.000000 0.000000
# 3 -0.006187 -0.005642 0.024164 0.000000 0.000000 0.000000
# 4 0.000000 0.000000 0.000000 0.108420 0.000000 0.000000
# 5 0.000000 0.000000 0.000000 0.000000 0.114179 0.000000
# 6 0.000000 0.000000 0.000000 0.000000 0.000000 -0.164637
#
#
# Mechanical properties :
#
#
# Convention : Reuss Voigt Hill
#
# Bulk Modulus (GPa) = 4.74751 9.00895 6.87823
# Shear Modulus (GPa) = 22.08240 10.55140 16.31690
#
# Velocity S-wave (km/s) = 3.26649 2.25795 2.80787
# Velocity P-wave (km/s) = 4.06455 3.33928 3.71964
#
# Compressibility (1/GPa) = 0.21063679
#
# Stress axis : x y z
#
# Youngs Moduli (GPa) = 11.03409 25.21997 41.38381
#
# Poissons Ratio (x) = -1.00693 0.25605
# Poissons Ratio (y) = -0.44055 0.23349
# Poissons Ratio (z) = 0.06827 0.14229
#
# Static dielectric constant tensor:
#      x y z
#    x 1.877920 0.000000 0.000000 
#    y 0.000000 1.722160 0.000000 
#    z 0.000000 0.000000 1.756810 
# 
# From -- ./inp_files/40817.got.cif
#   From: 2010.05.17/outbox.ucp.g08.bks.cvg/sg65_21_cif.got.tgz:40817.got - 2010.06.11 16:39:57.
