data_PCOD9494851
_publ_section_title
;
Structure prediction by ZEFSAII (Michael W. Deem and Ramdas Pophale) SiO2 
 PCOD9494851
Probable space group: C M M M
;
_chemical_formula_sum "Si O2"
_cell_formula_units_Z 29
_cell_length_a 18.000000
_cell_length_b 15.000000
_cell_length_c 12.000000
_cell_angle_alpha 90.000000
_cell_angle_beta 90.000000
_cell_angle_gamma 90.000000
_cell_volume 3240.000000
_symmetry_space_group_name_H-M "C M M M"
_symmetry_group_IT_number 65
_symmetry_cell_setting 'orthorhombic'
loop_
_space_group_symop_operation_xyz
x,y,z
-x,-y,z
x,-y,-z
-x,y,-z
-x,-y,-z
x,y,-z
-x,y,z
x,-y,z
1/2+x,1/2+y,z
1/2-x,1/2-y,z
1/2+x,1/2-y,-z
1/2-x,1/2+y,-z
1/2-x,1/2-y,-z
1/2+x,1/2+y,-z
1/2-x,1/2+y,z
1/2+x,1/2-y,z
loop_
_atom_site_type_symbol
_atom_site_label
_atom_site_fract_x
_atom_site_fract_y
_atom_site_fract_z
Si Si1 0.088863 0.596729 0.370163
Si Si2 0.344754 0.900726 0.000000
Si Si3 0.000000 0.500000 0.000000
Si Si4 0.086872 0.097425 0.866084
Si Si5 0.669186 0.226662 0.789226
O O1 0.108198 0.600370 0.500000
O O2 0.113201 0.500000 0.323847
O O3 0.122269 0.676256 0.302558
O O4 0.000000 0.598757 0.361767
O O5 0.325054 0.841076 0.106420
O O6 0.308780 0.000000 0.000000
O O7 0.433148 0.923529 0.000000
O O8 0.130648 0.181915 0.823782
O O9 0.000000 0.104878 0.835614
O O10 0.114259 0.000000 0.827621
O O11 0.090622 0.098260 0.000000
O O12 0.750000 0.250000 0.746319
#
# Coordination Sequence:
#
# PCOD9494851 Si02
#       5
#    16   8   2  16  16
#     4   9  20  39  63  86 107 139 186 240 290 337
#     4  10  23  35  53  86 115 148 184 230 284 330
#     4   8  24  36  56  84 112 156 190 232 292 326
#     4   9  19  34  52  72 101 145 193 229 256 306
#     4  12  23  34  53  83 117 151 181 222 285 345
#
# _framework density 8.9506169999999994
#
# number of rings (size 3 to 8) (size 9 to 14) (size 15 to 20)
#    0.414    1.655    1.379    3.724    3.862    2.759 
#    0.000    0.000    0.000    0.828    0.000    3.862 
#    0.000    0.000    0.000    0.000    0.000    0.000 
#
# Total GULP energy -161435.157396 kJ/mol
# GULP energy per Si atom -5566.729565 kJ/mol
# Density = 0.893025 g / cm^3
# Si number density = 8.950617 Si / 1000 Ang^3
#
#
#
# Elastic Constant Matrix: (Units=GPa)
#
#
# Indices 1 2 3 4 5 6 
#
# 1 -2.5543 30.9969 20.8842 0.0000 0.0000 0.0000
# 2 30.9969 166.9390 43.7153 0.0000 0.0000 0.0000
# 3 20.8842 43.7153 33.0871 0.0000 0.0000 0.0000
# 4 0.0000 0.0000 0.0000 28.5592 0.0000 0.0000
# 5 0.0000 0.0000 0.0000 0.0000 9.7421 0.0000
# 6 0.0000 0.0000 0.0000 0.0000 0.0000 185.9744
#
#
#
# Elastic Compliance Matrix: (Units=1/GPa)
#
#
# Indices 1 2 3 4 5 6 
#
# 1 -0.063122 0.001968 0.037241 0.000000 0.000000 0.000000
# 2 0.001968 0.009098 -0.013262 0.000000 0.000000 0.000000
# 3 0.037241 -0.013262 0.024239 0.000000 0.000000 0.000000
# 4 0.000000 0.000000 0.000000 0.035015 0.000000 0.000000
# 5 0.000000 0.000000 0.000000 0.000000 0.102648 0.000000
# 6 0.000000 0.000000 0.000000 0.000000 0.000000 0.005377
#
#
# Mechanical properties :
#
#
# Convention : Reuss Voigt Hill
#
# Bulk Modulus (GPa) = 45.22921 43.18494 44.20708
# Shear Modulus (GPa) = 72.74872 51.64683 62.19778
#
# Velocity S-wave (km/s) = 6.38178 5.37714 5.90088
# Velocity P-wave (km/s) = 8.92321 7.92009 8.43657
#
# Compressibility (1/GPa) = 0.02210960
#
# Stress axis : x y z
#
# Youngs Moduli (GPa) = -15.84234 109.91806 41.25542
#
# Poissons Ratio (x) = -0.21634 -1.53641
# Poissons Ratio (y) = 0.03118 0.54714
# Poissons Ratio (z) = 0.58999 1.45777
#
# Static dielectric constant tensor:
#      x y z
#    x 1.518170 0.000000 0.000000 
#    y 0.000000 1.599730 0.000000 
#    z 0.000000 0.000000 1.647350 
# 
# From -- ./inp_files/26021.got.cif
#   From: 2010.05.17/outbox.ucp.g08.bks.cvg/sg65_14_cif.got.tgz:26021.got - 2010.06.11 16:39:57.
