data_PCOD9494340
_publ_section_title
;
Structure prediction by ZEFSAII (Michael W. Deem and Ramdas Pophale) SiO2 
 PCOD9494340
Probable space group: C M M M
;
_chemical_formula_sum "Si O2"
_cell_formula_units_Z 88
_cell_length_a 7.767762
_cell_length_b 15.086855
_cell_length_c 32.887501
_cell_angle_alpha 90.000000
_cell_angle_beta 90.000000
_cell_angle_gamma 90.000000
_cell_volume 3854.122385
_symmetry_space_group_name_H-M "C M M M"
_symmetry_group_IT_number 65
_symmetry_cell_setting 'orthorhombic'
loop_
_space_group_symop_operation_xyz
x,y,z
-x,-y,z
x,-y,-z
-x,y,-z
-x,-y,-z
x,y,-z
-x,y,z
x,-y,z
1/2+x,1/2+y,z
1/2-x,1/2-y,z
1/2+x,1/2-y,-z
1/2-x,1/2+y,-z
1/2-x,1/2-y,-z
1/2+x,1/2+y,-z
1/2-x,1/2+y,z
1/2+x,1/2-y,z
loop_
_atom_site_type_symbol
_atom_site_label
_atom_site_fract_x
_atom_site_fract_y
_atom_site_fract_z
Si Si1 0.793055 0.147080 0.543328
Si Si2 0.706469 0.599750 0.367201
Si Si3 0.705888 0.398725 0.805503
Si Si4 0.000000 0.608466 0.046542
Si Si5 0.703739 0.101194 0.281161
Si Si6 0.698597 0.391213 0.893661
O O1 0.731099 0.106941 0.500000
O O2 0.750000 0.250000 0.540527
O O3 0.725246 0.123812 0.588132
O O4 0.000000 0.132656 0.543975
O O5 0.500000 0.601640 0.370350
O O6 0.769670 0.500000 0.361376
O O7 0.748091 0.645082 0.324253
O O8 0.500000 0.403636 0.808880
O O9 0.775840 0.500000 0.803384
O O10 0.745319 0.356624 0.761876
O O11 0.762701 0.360780 0.848892
O O12 0.830675 0.636027 0.071549
O O13 0.000000 0.500000 0.046151
O O14 0.000000 0.638589 0.000000
O O15 0.500000 0.094542 0.281055
O O16 0.780944 0.000000 0.280562
O O17 0.500000 0.364357 0.900519
O O18 0.698363 0.500000 0.892046
#
# Coordination Sequence:
#
# PCOD9494340 Si02
#       6
#    16  16  16   8  16  16
#     4   9  18  32  49  67  85 109 142 176 210 249
#     4   9  17  29  44  62  86 112 136 167 208 255
#     4   8  13  21  32  45  62  86 115 146 184 235
#     4   9  16  22  28  38  52  74 106 148 197 243
#     4   9  16  23  34  54  77 100 123 151 192 243
#     4   8  14  22  30  40  54  75 106 145 189 240
#
# _framework density 22.832695000000001
#
# number of rings (size 3 to 8) (size 9 to 14) (size 15 to 20)
#    0.000    3.364    0.000    1.636    1.273    3.636 
#    0.000    3.636    0.000    0.000    0.000    5.091 
#    0.000    0.000    0.000    0.000    0.000    0.000 
#
# Total GULP energy -244959.463039 kJ/mol
# GULP energy per Si atom -5567.260524 kJ/mol
# Density = 2.278073 g / cm^3
# Si number density = 22.832695 Si / 1000 Ang^3
#
#
#
# Elastic Constant Matrix: (Units=GPa)
#
#
# Indices 1 2 3 4 5 6 
#
# 1 65.3951 -1.9444 66.9341 0.0000 0.0000 0.0000
# 2 -1.9444 40.4198 19.4532 0.0000 0.0000 0.0000
# 3 66.9341 19.4532 316.3308 0.0000 0.0000 0.0000
# 4 0.0000 0.0000 0.0000 50.1769 0.0000 0.0000
# 5 0.0000 0.0000 0.0000 0.0000 63.1012 0.0000
# 6 0.0000 0.0000 0.0000 0.0000 0.0000 -0.3218
#
#
#
# Elastic Compliance Matrix: (Units=1/GPa)
#
#
# Indices 1 2 3 4 5 6 
#
# 1 0.019882 0.003072 -0.004396 0.000000 0.000000 0.000000
# 2 0.003072 0.025970 -0.002247 0.000000 0.000000 0.000000
# 3 -0.004396 -0.002247 0.004230 0.000000 0.000000 0.000000
# 4 0.000000 0.000000 0.000000 0.019929 0.000000 0.000000
# 5 0.000000 0.000000 0.000000 0.000000 0.015848 0.000000
# 6 0.000000 0.000000 0.000000 0.000000 0.000000 -3.107485
#
#
# Mechanical properties :
#
#
# Convention : Reuss Voigt Hill
#
# Bulk Modulus (GPa) = 23.28843 65.67017 44.47930
# Shear Modulus (GPa) = -1.66657 45.10479 21.71911
#
# Velocity S-wave (km/s) = -0.85527 4.44942 3.08755
# Velocity P-wave (km/s) = 3.04079 7.43104 5.67745
#
# Compressibility (1/GPa) = 0.04293977
#
# Stress axis : x y z
#
# Youngs Moduli (GPa) = 50.29574 38.50656 236.42918
#
# Poissons Ratio (x) = -0.11830 1.03933
# Poissons Ratio (y) = -0.15451 0.53128
# Poissons Ratio (z) = 0.22110 0.08653
#
# Static dielectric constant tensor:
#      x y z
#    x 1.897050 0.000000 0.000000 
#    y 0.000000 1.894770 0.000000 
#    z 0.000000 0.000000 1.965430 
# 
# From -- ./inp_files/76792.got.cif
#   From: 2010.05.17/outbox.cif.g08.bks.cpg/sg65_39_cif.got.tgz:76792.got - 2010.06.03 17:01:31.
