data_PCOD9494315
_publ_section_title
;
Structure prediction by ZEFSAII (Michael W. Deem and Ramdas Pophale) SiO2 
 PCOD9494315
Probable space group: C M M M
;
_chemical_formula_sum "Si O2"
_cell_formula_units_Z 96
_cell_length_a 14.215455
_cell_length_b 9.605910
_cell_length_c 31.906632
_cell_angle_alpha 90.000000
_cell_angle_beta 90.000000
_cell_angle_gamma 90.000000
_cell_volume 4356.926580
_symmetry_space_group_name_H-M "C M M M"
_symmetry_group_IT_number 65
_symmetry_cell_setting 'orthorhombic'
loop_
_space_group_symop_operation_xyz
x,y,z
-x,-y,z
x,-y,-z
-x,y,-z
-x,-y,-z
x,y,-z
-x,y,z
x,-y,z
1/2+x,1/2+y,z
1/2-x,1/2-y,z
1/2+x,1/2-y,-z
1/2-x,1/2+y,-z
1/2-x,1/2-y,-z
1/2+x,1/2+y,-z
1/2-x,1/2+y,z
1/2+x,1/2-y,z
loop_
_atom_site_type_symbol
_atom_site_label
_atom_site_fract_x
_atom_site_fract_y
_atom_site_fract_z
Si Si1 0.114646 0.658644 0.547669
Si Si2 0.385338 0.841222 0.705855
Si Si3 0.609132 0.844454 0.139190
Si Si4 0.885075 0.157496 0.214252
Si Si5 0.846509 0.666411 0.954820
Si Si6 0.885130 0.158463 0.374198
O O1 0.143038 0.691551 0.500000
O O2 0.144198 0.500000 0.557770
O O3 0.143734 0.769165 0.582435
O O4 0.000000 0.657466 0.548038
O O5 0.500000 0.846889 0.705683
O O6 0.358417 0.756858 0.747354
O O7 0.357789 0.755016 0.664767
O O8 0.351068 0.000000 0.705650
O O9 0.500000 0.858945 0.150949
O O10 0.645791 0.728353 0.170773
O O11 0.610035 0.801998 0.090372
O O12 0.651946 0.000000 0.143436
O O13 0.000000 0.149902 0.214642
O O14 0.850272 0.000000 0.218971
O O15 0.831769 0.500000 0.954559
O O16 0.750000 0.750000 0.955140
O O17 0.893726 0.697900 0.000000
O O18 0.000000 0.154220 0.373992
O O19 0.851766 0.000000 0.370192
#
# Coordination Sequence:
#
# PCOD9494315 Si02
#       6
#    16  16  16  16  16  16
#     4   8  13  20  27  33  43  62  90 126 170 220
#     4   9  15  22  32  44  60  84 112 141 177 225
#     4   9  17  29  45  65  88 113 142 175 211 252
#     4   9  16  25  37  54  76  99 123 154 194 238
#     4   9  18  32  49  68  90 117 147 178 212 250
#     4   9  15  20  26  37  52  70  96 132 174 221
#
# _framework density 22.033878999999999
#
# number of rings (size 3 to 8) (size 9 to 14) (size 15 to 20)
#    0.000    3.167    0.000    2.000    0.000    7.333 
#    0.000    3.333    0.000    0.000    0.000    4.667 
#    0.000    0.000    0.000    0.000    0.000    0.000 
#
# Total GULP energy -267880.412170 kJ/mol
# GULP energy per Si atom -5580.841920 kJ/mol
# Density = 2.198373 g / cm^3
# Si number density = 22.033879 Si / 1000 Ang^3
#
#
#
# Elastic Constant Matrix: (Units=GPa)
#
#
# Indices 1 2 3 4 5 6 
#
# 1 61.5003 13.9568 -3.5921 0.0000 0.0000 0.0000
# 2 13.9568 188.2122 141.5558 0.0000 0.0000 0.0000
# 3 -3.5921 141.5558 191.7653 0.0000 0.0000 0.0000
# 4 0.0000 0.0000 0.0000 89.7262 0.0000 0.0000
# 5 0.0000 0.0000 0.0000 0.0000 327.9963 0.0000
# 6 0.0000 0.0000 0.0000 0.0000 0.0000 1.8555
#
#
#
# Elastic Compliance Matrix: (Units=1/GPa)
#
#
# Indices 1 2 3 4 5 6 
#
# 1 0.017200 -0.003412 0.002841 0.000000 0.000000 0.000000
# 2 -0.003412 0.012622 -0.009381 0.000000 0.000000 0.000000
# 3 0.002841 -0.009381 0.012193 0.000000 0.000000 0.000000
# 4 0.000000 0.000000 0.000000 0.011145 0.000000 0.000000
# 5 0.000000 0.000000 0.000000 0.000000 0.003049 0.000000
# 6 0.000000 0.000000 0.000000 0.000000 0.000000 0.538941
#
#
# Mechanical properties :
#
#
# Convention : Reuss Voigt Hill
#
# Bulk Modulus (GPa) = 45.22743 82.81320 64.02031
# Shear Modulus (GPa) = 8.03311 103.21943 55.62627
#
# Velocity S-wave (km/s) = 1.91147 6.85182 5.02997
# Velocity P-wave (km/s) = 5.04406 10.01313 7.92796
#
# Compressibility (1/GPa) = 0.02211048
#
# Stress axis : x y z
#
# Youngs Moduli (GPa) = 58.13821 79.22962 82.01724
#
# Poissons Ratio (x) = 0.27035 -0.23301
# Poissons Ratio (y) = 0.19838 0.76939
# Poissons Ratio (z) = -0.16517 0.74324
#
# Static dielectric constant tensor:
#      x y z
#    x 1.888480 0.000000 0.000000 
#    y 0.000000 1.760690 0.000000 
#    z 0.000000 0.000000 1.796760 
# 
# From -- ./inp_files/75691.got.cif
#   From: 2010.05.17/outbox.cif.g08.bks.cpg/sg65_38_cif.got.tgz:75691.got - 2010.06.03 17:01:31.
