data_PCOD9494464
_publ_section_title
;
Structure prediction by ZEFSAII (Michael W. Deem and Ramdas Pophale) SiO2 
 PCOD9494464
Probable space group: C M M M
;
_chemical_formula_sum "Si O2"
_cell_formula_units_Z 72
_cell_length_a 7.980931
_cell_length_b 14.264537
_cell_length_c 27.743407
_cell_angle_alpha 90.000000
_cell_angle_beta 90.000000
_cell_angle_gamma 90.000000
_cell_volume 3158.428348
_symmetry_space_group_name_H-M "C M M M"
_symmetry_group_IT_number 65
_symmetry_cell_setting 'orthorhombic'
loop_
_space_group_symop_operation_xyz
x,y,z
-x,-y,z
x,-y,-z
-x,y,-z
-x,-y,-z
x,y,-z
-x,y,z
x,-y,z
1/2+x,1/2+y,z
1/2-x,1/2-y,z
1/2+x,1/2-y,-z
1/2-x,1/2+y,-z
1/2-x,1/2-y,-z
1/2+x,1/2+y,-z
1/2-x,1/2+y,z
1/2+x,1/2-y,z
loop_
_atom_site_type_symbol
_atom_site_label
_atom_site_fract_x
_atom_site_fract_y
_atom_site_fract_z
Si Si1 0.500000 0.884525 0.278592
Si Si2 0.189569 0.891774 0.659777
Si Si3 0.298724 0.358676 0.448255
Si Si4 0.193701 0.385788 0.000000
Si Si5 0.815852 0.114346 0.104643
Si Si6 0.000000 0.614825 0.167691
O O1 0.666605 0.851520 0.306343
O O2 0.500000 0.855326 0.223056
O O3 0.500000 0.000000 0.280070
O O4 0.253546 0.892771 0.604333
O O5 0.000000 0.851045 0.661115
O O6 0.172452 0.000000 0.674320
O O7 0.235588 0.396379 0.500000
O O8 0.500000 0.370974 0.448856
O O9 0.250000 0.250000 0.448340
O O10 0.282105 0.357305 0.049418
O O11 0.193187 0.500000 0.000000
O O12 0.000000 0.355973 0.000000
O O13 0.664926 0.144741 0.138679
O O14 0.000000 0.144645 0.120451
O O15 0.813998 0.000000 0.104995
O O16 0.000000 0.500000 0.167588
#
# Coordination Sequence:
#
# PCOD9494464 Si02
#       6
#     8  16  16   8  16   8
#     4   9  18  30  44  60  80 110 147 185 225 261
#     4   9  18  32  48  66  89 118 151 184 222 269
#     4   9  18  31  48  71  96 120 145 179 224 269
#     4   9  13  19  29  40  61  89 120 163 213 261
#     4   9  15  21  30  44  63  90 124 166 216 261
#     4   9  16  25  34  48  68  91 128 176 217 255
#
# _framework density 22.796149
#
# number of rings (size 3 to 8) (size 9 to 14) (size 15 to 20)
#    0.000    3.000    1.111    0.333    1.556    2.667 
#    0.000    6.667    0.000    2.000    0.000    0.000 
#    0.000    0.000    0.000    0.000    0.000    0.000 
#
# Total GULP energy -200945.272673 kJ/mol
# GULP energy per Si atom -5581.813130 kJ/mol
# Density = 2.274426 g / cm^3
# Si number density = 22.796149 Si / 1000 Ang^3
#
#
#
# Elastic Constant Matrix: (Units=GPa)
#
#
# Indices 1 2 3 4 5 6 
#
# 1 170.4330 13.6169 124.9461 0.0000 0.0000 0.0000
# 2 13.6169 67.5578 -0.4528 0.0000 0.0000 0.0000
# 3 124.9461 -0.4528 213.5012 0.0000 0.0000 0.0000
# 4 0.0000 0.0000 0.0000 30.2395 0.0000 0.0000
# 5 0.0000 0.0000 0.0000 0.0000 50.0976 0.0000
# 6 0.0000 0.0000 0.0000 0.0000 0.0000 12.8480
#
#
#
# Elastic Compliance Matrix: (Units=1/GPa)
#
#
# Indices 1 2 3 4 5 6 
#
# 1 0.010587 -0.002175 -0.006200 0.000000 0.000000 0.000000
# 2 -0.002175 0.015249 0.001305 0.000000 0.000000 0.000000
# 3 -0.006200 0.001305 0.008315 0.000000 0.000000 0.000000
# 4 0.000000 0.000000 0.000000 0.033069 0.000000 0.000000
# 5 0.000000 0.000000 0.000000 0.000000 0.019961 0.000000
# 6 0.000000 0.000000 0.000000 0.000000 0.000000 0.077833
#
#
# Mechanical properties :
#
#
# Convention : Reuss Voigt Hill
#
# Bulk Modulus (GPa) = 49.97302 80.85696 65.41499
# Shear Modulus (GPa) = 26.90703 39.52914 33.21809
#
# Velocity S-wave (km/s) = 3.43932 4.16868 3.82144
# Velocity P-wave (km/s) = 6.14339 7.66271 6.94472
#
# Compressibility (1/GPa) = 0.02001080
#
# Stress axis : x y z
#
# Youngs Moduli (GPa) = 94.45898 65.57659 120.26366
#
# Poissons Ratio (x) = 0.14265 0.74565
# Poissons Ratio (y) = 0.20548 -0.15699
# Poissons Ratio (z) = 0.58566 -0.08561
#
# Static dielectric constant tensor:
#      x y z
#    x 1.836000 0.000000 0.000000 
#    y 0.000000 1.905600 0.000000 
#    z 0.000000 0.000000 1.808840 
# 
# From -- ./inp_files/67268.got.cif
#   From: 2010.05.17/outbox.cif.g08.bks.cpg/sg65_34_cif.got.tgz:67268.got - 2010.06.03 17:01:31.
