data_PCOD9494857
_publ_section_title
;
Structure prediction by ZEFSAII (Michael W. Deem and Ramdas Pophale) SiO2 
 PCOD9494857
Probable space group: C M M M
;
_chemical_formula_sum "Si O2"
_cell_formula_units_Z 48
_cell_length_a 9.000000
_cell_length_b 27.000000
_cell_length_c 24.000000
_cell_angle_alpha 90.000000
_cell_angle_beta 90.000000
_cell_angle_gamma 90.000000
_cell_volume 5832.000000
_symmetry_space_group_name_H-M "C M M M"
_symmetry_group_IT_number 65
_symmetry_cell_setting 'orthorhombic'
loop_
_space_group_symop_operation_xyz
x,y,z
-x,-y,z
x,-y,-z
-x,y,-z
-x,-y,-z
x,y,-z
-x,y,z
x,-y,z
1/2+x,1/2+y,z
1/2-x,1/2-y,z
1/2+x,1/2-y,-z
1/2-x,1/2+y,-z
1/2-x,1/2-y,-z
1/2+x,1/2+y,-z
1/2-x,1/2+y,z
1/2+x,1/2-y,z
loop_
_atom_site_type_symbol
_atom_site_label
_atom_site_fract_x
_atom_site_fract_y
_atom_site_fract_z
Si Si1 0.321312 0.303682 0.274810
Si Si2 0.320824 0.604788 0.934318
Si Si3 0.178612 0.695941 0.500000
Si Si4 0.670748 0.058326 0.565927
Si Si5 0.675570 0.646479 0.390781
Si Si6 0.172480 0.500000 0.932460
Si Si7 0.179571 0.804655 0.147497
O O1 0.500000 0.300030 0.275771
O O2 0.250000 0.250000 0.282193
O O3 0.278162 0.335138 0.329351
O O4 0.281356 0.319920 0.211560
O O5 0.500000 0.600306 0.930988
O O6 0.250409 0.551988 0.916009
O O7 0.276589 0.651919 0.895981
O O8 0.282850 0.613024 0.000000
O O9 0.250000 0.750000 0.500000
O O10 0.237293 0.670964 0.557219
O O11 0.000000 0.696564 0.500000
O O12 0.697953 0.066743 0.500000
O O13 0.500000 0.073928 0.577001
O O14 0.784985 0.089059 0.602114
O O15 0.680748 0.000000 0.575459
O O16 0.500000 0.655989 0.397738
O O17 0.000000 0.500000 0.915355
O O18 0.178337 0.500000 0.000000
O O19 0.250000 0.750000 0.137068
O O20 0.000000 0.799616 0.144317
#
# Coordination Sequence:
#
# PCOD9494857 Si02
#       7
#    16  16   8  16  16   8  16
#     4   9  19  34  51  71  96 128 165 200 237 286
#     4   9  17  30  50  75 102 134 170 206 248 300
#     4  12  24  36  49  70 101 128 154 193 243 291
#     4   9  18  33  52  73  97 126 157 191 237 292
#     4  11  21  33  51  75  98 123 159 200 242 288
#     4   9  17  29  47  73 103 133 167 210 255 294
#     4   9  18  33  51  72 101 135 169 205 246 294
#
# _framework density 8.2304530000000007
#
# number of rings (size 3 to 8) (size 9 to 14) (size 15 to 20)
#    0.000    2.417    0.833    2.500    0.000    5.000 
#    0.000    0.833    1.833    0.000    0.000    0.000 
#    0.000    0.000    0.000    0.000    0.000    0.000 
#
# Total GULP energy -267404.811657 kJ/mol
# GULP energy per Si atom -5570.933576 kJ/mol
# Density = 0.821172 g / cm^3
# Si number density = 8.230453 Si / 1000 Ang^3
#
#
#
# Elastic Constant Matrix: (Units=GPa)
#
#
# Indices 1 2 3 4 5 6 
#
# 1 46.0269 39.7931 40.6918 0.0000 0.0000 0.0000
# 2 39.7931 111.1285 71.6407 0.0000 0.0000 0.0000
# 3 40.6918 71.6407 110.6010 0.0000 0.0000 0.0000
# 4 0.0000 0.0000 0.0000 28.0773 0.0000 0.0000
# 5 0.0000 0.0000 0.0000 0.0000 15.4995 0.0000
# 6 0.0000 0.0000 0.0000 0.0000 0.0000 31.8683
#
#
#
# Elastic Compliance Matrix: (Units=1/GPa)
#
#
# Indices 1 2 3 4 5 6 
#
# 1 0.035377 -0.007344 -0.008259 0.000000 0.000000 0.000000
# 2 -0.007344 0.016975 -0.008293 0.000000 0.000000 0.000000
# 3 -0.008259 -0.008293 0.017452 0.000000 0.000000 0.000000
# 4 0.000000 0.000000 0.000000 0.035616 0.000000 0.000000
# 5 0.000000 0.000000 0.000000 0.000000 0.064518 0.000000
# 6 0.000000 0.000000 0.000000 0.000000 0.000000 0.031379
#
#
# Mechanical properties :
#
#
# Convention : Reuss Voigt Hill
#
# Bulk Modulus (GPa) = 45.43001 63.55641 54.49321
# Shear Modulus (GPa) = 19.49727 22.79774 21.14750
#
# Velocity S-wave (km/s) = 3.44533 3.72555 3.58817
# Velocity P-wave (km/s) = 6.59437 7.56311 7.09529
#
# Compressibility (1/GPa) = 0.02201188
#
# Stress axis : x y z
#
# Youngs Moduli (GPa) = 28.26686 58.91145 57.29983
#
# Poissons Ratio (x) = 0.43262 0.47324
# Poissons Ratio (y) = 0.20758 0.47521
# Poissons Ratio (z) = 0.23346 0.48857
#
# Static dielectric constant tensor:
#      x y z
#    x 1.558650 0.000000 0.000000 
#    y 0.000000 1.573800 0.000000 
#    z 0.000000 0.000000 1.555580 
# 
# From -- ./inp_files/68119.got.cif
#   From: 2010.05.17/outbox.ucp.g08.bks.cvg/sg65_35_cif.got.tgz:68119.got - 2010.06.11 16:39:57.
