data_PCOD9494245
_publ_section_title
;
Structure prediction by ZEFSAII (Michael W. Deem and Ramdas Pophale) SiO2 
 PCOD9494245
Probable space group: C M M M
;
_chemical_formula_sum "Si O2"
_cell_formula_units_Z 72
_cell_length_a 7.167263
_cell_length_b 14.543227
_cell_length_c 25.891397
_cell_angle_alpha 90.000000
_cell_angle_beta 90.000000
_cell_angle_gamma 90.000000
_cell_volume 2698.793204
_symmetry_space_group_name_H-M "C M M M"
_symmetry_group_IT_number 65
_symmetry_cell_setting 'orthorhombic'
loop_
_space_group_symop_operation_xyz
x,y,z
-x,-y,z
x,-y,-z
-x,y,-z
-x,-y,-z
x,y,-z
-x,y,z
x,-y,z
1/2+x,1/2+y,z
1/2-x,1/2-y,z
1/2+x,1/2-y,-z
1/2-x,1/2+y,-z
1/2-x,1/2-y,-z
1/2+x,1/2+y,-z
1/2-x,1/2+y,z
1/2+x,1/2-y,z
loop_
_atom_site_type_symbol
_atom_site_label
_atom_site_fract_x
_atom_site_fract_y
_atom_site_fract_z
Si Si1 0.210556 0.609273 0.168694
Si Si2 0.720888 0.141173 0.944573
Si Si3 0.775297 0.389840 0.500000
Si Si4 0.224739 0.610122 0.610796
Si Si5 0.726449 0.108722 0.278470
O O1 0.195772 0.500000 0.176625
O O2 0.296929 0.617557 0.111964
O O3 0.293029 0.644820 0.222779
O O4 0.000000 0.648592 0.164301
O O5 0.500000 0.118177 0.943485
O O6 0.750000 0.250000 0.947177
O O7 0.791204 0.104748 0.000000
O O8 0.738715 0.500000 0.500000
O O9 0.706926 0.353725 0.555406
O O10 0.000000 0.380213 0.500000
O O11 0.262123 0.500000 0.610544
O O12 0.290942 0.647112 0.666248
O O13 0.000000 0.619173 0.610950
O O14 0.500000 0.114738 0.276884
O O15 0.772488 0.000000 0.280628
#
# Coordination Sequence:
#
# PCOD9494245 Si02
#       5
#    16  16   8  16  16
#     4   8  13  21  34  52  70  87 112 146 178 206
#     4   9  17  28  41  56  74  96 119 143 174 211
#     4   7   8   8  10  18  34  60  95 126 147 177
#     4   7   8   9  13  22  39  65  95 124 153 186
#     4   7   9  13  21  34  53  75  98 128 166 200
#
# _framework density 26.678592999999999
#
# number of rings (size 3 to 8) (size 9 to 14) (size 15 to 20)
#    0.000    4.333    0.000    4.000    0.000    0.444 
#    0.000    2.222    0.000    0.667    0.000    3.111 
#    0.000    0.000    0.000    1.000    0.000    6.000 
#
# Total GULP energy -200542.855732 kJ/mol
# GULP energy per Si atom -5570.634881 kJ/mol
# Density = 2.661787 g / cm^3
# Si number density = 26.678593 Si / 1000 Ang^3
#
#
#
# Elastic Constant Matrix: (Units=GPa)
#
#
# Indices 1 2 3 4 5 6 
#
# 1 144.8157 -8.9421 25.8604 0.0000 0.0000 0.0000
# 2 -8.9421 83.6878 13.7756 0.0000 0.0000 0.0000
# 3 25.8604 13.7756 443.4325 0.0000 0.0000 0.0000
# 4 0.0000 0.0000 0.0000 70.0540 0.0000 0.0000
# 5 0.0000 0.0000 0.0000 0.0000 -66.6624 0.0000
# 6 0.0000 0.0000 0.0000 0.0000 0.0000 -7.2160
#
#
#
# Elastic Compliance Matrix: (Units=1/GPa)
#
#
# Indices 1 2 3 4 5 6 
#
# 1 0.007034 0.000823 -0.000436 0.000000 0.000000 0.000000
# 2 0.000823 0.012107 -0.000424 0.000000 0.000000 0.000000
# 3 -0.000436 -0.000424 0.002294 0.000000 0.000000 0.000000
# 4 0.000000 0.000000 0.000000 0.014275 0.000000 0.000000
# 5 0.000000 0.000000 0.000000 0.000000 -0.015001 0.000000
# 6 0.000000 0.000000 0.000000 0.000000 0.000000 -0.138582
#
#
# Mechanical properties :
#
#
# Convention : Reuss Voigt Hill
#
# Bulk Modulus (GPa) = 46.81323 81.48042 64.14682
# Shear Modulus (GPa) = -45.17548 41.98460 -1.59544
#
# Velocity S-wave (km/s) = -4.11947 3.97132 -0.77416
# Velocity P-wave (km/s) = 2.24532 7.18584 4.82674
#
# Compressibility (1/GPa) = 0.02136148
#
# Stress axis : x y z
#
# Youngs Moduli (GPa) = 142.16685 82.59710 435.97202
#
# Poissons Ratio (x) = -0.06800 0.18999
# Poissons Ratio (y) = -0.11705 0.18491
# Poissons Ratio (z) = 0.06195 0.03503
#
# Static dielectric constant tensor:
#      x y z
#    x 2.049680 0.000000 0.000000 
#    y 0.000000 2.056010 0.000000 
#    z 0.000000 0.000000 2.197560 
# 
# From -- ./inp_files/63458.got.cif
#   From: 2010.05.17/outbox.cif.g08.bks.cpg/sg65_32_cif.got.tgz:63458.got - 2010.06.03 17:01:31.
