data_PCOD9494654
_publ_section_title
;
Structure prediction by ZEFSAII (Michael W. Deem and Ramdas Pophale) SiO2 
 PCOD9494654
Probable space group: C M M M
;
_chemical_formula_sum "Si O2"
_cell_formula_units_Z 32
_cell_length_a 9.000000
_cell_length_b 15.000000
_cell_length_c 24.000000
_cell_angle_alpha 90.000000
_cell_angle_beta 90.000000
_cell_angle_gamma 90.000000
_cell_volume 3240.000000
_symmetry_space_group_name_H-M "C M M M"
_symmetry_group_IT_number 65
_symmetry_cell_setting 'orthorhombic'
loop_
_space_group_symop_operation_xyz
x,y,z
-x,-y,z
x,-y,-z
-x,y,-z
-x,-y,-z
x,y,-z
-x,y,z
x,-y,z
1/2+x,1/2+y,z
1/2-x,1/2-y,z
1/2+x,1/2-y,-z
1/2-x,1/2+y,-z
1/2-x,1/2-y,-z
1/2+x,1/2+y,-z
1/2-x,1/2+y,z
1/2+x,1/2-y,z
loop_
_atom_site_type_symbol
_atom_site_label
_atom_site_fract_x
_atom_site_fract_y
_atom_site_fract_z
Si Si1 0.180788 0.396304 0.233024
Si Si2 0.319148 0.000000 0.436064
Si Si3 0.820733 0.339986 0.644417
Si Si4 0.176191 0.845902 0.000000
Si Si5 0.332414 0.105474 0.113128
O O1 0.223597 0.500000 0.237222
O O2 0.229407 0.354372 0.291334
O O3 0.229680 0.359491 0.172441
O O4 0.000000 0.392364 0.231020
O O5 0.275010 0.083537 0.398298
O O6 0.500000 0.000000 0.438249
O O7 0.266352 0.000000 0.500000
O O8 0.750000 0.250000 0.623739
O O9 0.000000 0.337439 0.645624
O O10 0.250000 0.750000 0.000000
O O11 0.235344 0.885880 0.942041
O O12 0.000000 0.845292 0.000000
O O13 0.500000 0.141820 0.102799
O O14 0.347719 0.000000 0.122804
#
# Coordination Sequence:
#
# PCOD9494654 Si02
#       5
#    16   8  16   8  16
#     4   8  14  29  54  79 102 136 178 218 261 319
#     4   9  18  34  57  81 109 150 193 226 262 325
#     4  10  19  33  55  82 112 145 186 230 274 323
#     4  12  25  38  51  69 101 139 177 220 271 322
#     4   9  18  34  57  80 102 132 173 216 264 323
#
# _framework density 9.8765429999999999
#
# number of rings (size 3 to 8) (size 9 to 14) (size 15 to 20)
#    0.000    2.625    1.250    3.000    0.000    3.500 
#    0.000    4.375    0.000    2.250    0.000    0.000 
#    0.000    0.000    0.000    0.000    0.000    0.000 
#
# Total GULP energy -178154.295504 kJ/mol
# GULP energy per Si atom -5567.321735 kJ/mol
# Density = 0.985406 g / cm^3
# Si number density = 9.876543 Si / 1000 Ang^3
#
#
#
# Elastic Constant Matrix: (Units=GPa)
#
#
# Indices 1 2 3 4 5 6 
#
# 1 29.9817 17.1678 41.4670 0.0000 0.0000 0.0000
# 2 17.1678 113.9648 73.7618 0.0000 0.0000 0.0000
# 3 41.4670 73.7618 198.6123 0.0000 0.0000 0.0000
# 4 0.0000 0.0000 0.0000 178.5718 0.0000 0.0000
# 5 0.0000 0.0000 0.0000 0.0000 3.2156 0.0000
# 6 0.0000 0.0000 0.0000 0.0000 0.0000 17.5015
#
#
#
# Elastic Compliance Matrix: (Units=1/GPa)
#
#
# Indices 1 2 3 4 5 6 
#
# 1 0.046975 -0.000959 -0.009451 0.000000 0.000000 0.000000
# 2 -0.000959 0.011571 -0.004097 0.000000 0.000000 0.000000
# 3 -0.009451 -0.004097 0.008530 0.000000 0.000000 0.000000
# 4 0.000000 0.000000 0.000000 0.005600 0.000000 0.000000
# 5 0.000000 0.000000 0.000000 0.000000 0.310987 0.000000
# 6 0.000000 0.000000 0.000000 0.000000 0.000000 0.057138
#
#
# Mechanical properties :
#
#
# Convention : Reuss Voigt Hill
#
# Bulk Modulus (GPa) = 26.27393 67.48357 46.87875
# Shear Modulus (GPa) = 10.36266 53.86859 32.11562
#
# Velocity S-wave (km/s) = 2.29292 5.22783 4.03656
# Velocity P-wave (km/s) = 4.50999 8.40702 6.74604
#
# Compressibility (1/GPa) = 0.03806055
#
# Stress axis : x y z
#
# Youngs Moduli (GPa) = 21.28797 86.42414 117.23599
#
# Poissons Ratio (x) = 0.08289 1.10804
# Poissons Ratio (y) = 0.02042 0.48032
# Poissons Ratio (z) = 0.20120 0.35408
#
# Static dielectric constant tensor:
#      x y z
#    x 1.674550 0.000000 0.000000 
#    y 0.000000 1.722420 0.000000 
#    z 0.000000 0.000000 1.792970 
# 
# From -- ./inp_files/66776.got.cif
#   From: 2010.05.17/outbox.ucp.g08.bks.cvg/sg65_34_cif.got.tgz:66776.got - 2010.06.11 16:39:57.
