data_PCOD9494680
_publ_section_title
;
Structure prediction by ZEFSAII (Michael W. Deem and Ramdas Pophale) SiO2 
 PCOD9494680
Probable space group: C M M M
;
_chemical_formula_sum "Si O2"
_cell_formula_units_Z 60
_cell_length_a 9.000000
_cell_length_b 27.000000
_cell_length_c 27.000000
_cell_angle_alpha 90.000000
_cell_angle_beta 90.000000
_cell_angle_gamma 90.000000
_cell_volume 6561.000000
_symmetry_space_group_name_H-M "C M M M"
_symmetry_group_IT_number 65
_symmetry_cell_setting 'orthorhombic'
loop_
_space_group_symop_operation_xyz
x,y,z
-x,-y,z
x,-y,-z
-x,y,-z
-x,-y,-z
x,y,-z
-x,y,z
x,-y,z
1/2+x,1/2+y,z
1/2-x,1/2-y,z
1/2+x,1/2-y,-z
1/2-x,1/2+y,-z
1/2-x,1/2-y,-z
1/2+x,1/2+y,-z
1/2-x,1/2+y,z
1/2+x,1/2-y,z
loop_
_atom_site_type_symbol
_atom_site_label
_atom_site_fract_x
_atom_site_fract_y
_atom_site_fract_z
Si Si1 0.821925 0.109979 0.740729
Si Si2 0.820517 0.946038 0.161721
Si Si3 0.822764 0.300334 0.200498
Si Si4 0.178882 0.303391 0.443673
Si Si5 0.821431 0.804292 0.000000
Si Si6 0.820069 0.153290 0.106633
Si Si7 0.165937 0.941291 0.444121
Si Si8 0.674616 0.885337 0.635122
O O1 0.787010 0.067152 0.780999
O O2 0.739806 0.156749 0.764679
O O3 0.763083 0.104467 0.685339
O O4 0.000000 0.116696 0.740941
O O5 0.774970 0.901480 0.125497
O O6 0.000000 0.947307 0.158467
O O7 0.761434 0.000000 0.148424
O O8 0.750000 0.250000 0.218608
O O9 0.760118 0.310740 0.145416
O O10 0.000000 0.298698 0.200392
O O11 0.219611 0.319792 0.500000
O O12 0.250000 0.250000 0.437125
O O13 0.224170 0.337876 0.397688
O O14 0.000000 0.300850 0.442547
O O15 0.750000 0.750000 0.000000
O O16 0.781516 0.833347 0.949630
O O17 0.000000 0.798861 0.000000
O O18 0.000000 0.157790 0.112393
O O19 0.201975 0.925271 0.500000
O O20 0.288357 0.927488 0.404456
O O21 0.000000 0.921670 0.431072
O O22 0.154542 0.000000 0.445219
O O23 0.500000 0.881280 0.646055
#
# Coordination Sequence:
#
# PCOD9494680 Si02
#       8
#    16  16  16  16   8  16  16  16
#     4  10  21  36  53  76 105 136 174 217 261 315
#     4   8  15  31  55  77  99 133 175 219 266 311
#     4  11  21  35  55  77 103 137 177 219 265 315
#     4   9  19  35  53  73  98 130 168 208 251 305
#     4  10  20  32  49  77 113 149 182 220 265 314
#     4   9  18  33  52  78 110 142 180 221 261 313
#     4   9  19  36  56  77 101 132 172 214 258 315
#     4  11  22  35  52  77 108 137 168 212 266 321
#
# _framework density 9.1449470000000002
#
# number of rings (size 3 to 8) (size 9 to 14) (size 15 to 20)
#    0.000    2.400    0.000    4.000    0.000    4.800 
#    0.000    5.000    0.000   11.600    0.000    0.000 
#    0.000    4.800    0.000    0.000    0.000    0.000 
#
# Total GULP energy -334287.568526 kJ/mol
# GULP energy per Si atom -5571.459475 kJ/mol
# Density = 0.912413 g / cm^3
# Si number density = 9.144947 Si / 1000 Ang^3
#
#
#
# Elastic Constant Matrix: (Units=GPa)
#
#
# Indices 1 2 3 4 5 6 
#
# 1 43.9303 20.8343 27.5120 0.0000 0.0000 0.0000
# 2 20.8343 94.7252 28.0048 0.0000 0.0000 0.0000
# 3 27.5120 28.0048 104.9646 0.0000 0.0000 0.0000
# 4 0.0000 0.0000 0.0000 4.0873 0.0000 0.0000
# 5 0.0000 0.0000 0.0000 0.0000 38.6069 0.0000
# 6 0.0000 0.0000 0.0000 0.0000 0.0000 20.3245
#
#
#
# Elastic Compliance Matrix: (Units=1/GPa)
#
#
# Indices 1 2 3 4 5 6 
#
# 1 0.028875 -0.004466 -0.006377 0.000000 0.000000 0.000000
# 2 -0.004466 0.012151 -0.002072 0.000000 0.000000 0.000000
# 3 -0.006377 -0.002072 0.011751 0.000000 0.000000 0.000000
# 4 0.000000 0.000000 0.000000 0.244660 0.000000 0.000000
# 5 0.000000 0.000000 0.000000 0.000000 0.025902 0.000000
# 6 0.000000 0.000000 0.000000 0.000000 0.000000 0.049202
#
#
# Mechanical properties :
#
#
# Convention : Reuss Voigt Hill
#
# Bulk Modulus (GPa) = 37.10665 44.03581 40.57123
# Shear Modulus (GPa) = 12.27439 23.75501 18.01470
#
# Velocity S-wave (km/s) = 2.59337 3.60780 3.14180
# Velocity P-wave (km/s) = 5.41291 6.44079 5.94909
#
# Compressibility (1/GPa) = 0.02694935
#
# Stress axis : x y z
#
# Youngs Moduli (GPa) = 34.63235 82.29457 85.09805
#
# Poissons Ratio (x) = 0.36749 0.54266
# Poissons Ratio (y) = 0.15465 0.17629
# Poissons Ratio (z) = 0.22085 0.17048
#
# Static dielectric constant tensor:
#      x y z
#    x 1.631510 0.000000 0.000000 
#    y 0.000000 1.702680 0.000000 
#    z 0.000000 0.000000 1.611500 
# 
# From -- ./inp_files/73896.got.cif
#   From: 2010.05.17/outbox.ucp.g08.bks.cvg/sg65_37_cif.got.tgz:73896.got - 2010.06.11 16:39:57.
