data_PCOD9494602
_publ_section_title
;
Structure prediction by ZEFSAII (Michael W. Deem and Ramdas Pophale) SiO2 
 PCOD9494602
Probable space group: C M M M
;
_chemical_formula_sum "Si O2"
_cell_formula_units_Z 48
_cell_length_a 27.000000
_cell_length_b 24.000000
_cell_length_c 9.000000
_cell_angle_alpha 90.000000
_cell_angle_beta 90.000000
_cell_angle_gamma 90.000000
_cell_volume 5832.000000
_symmetry_space_group_name_H-M "C M M M"
_symmetry_group_IT_number 65
_symmetry_cell_setting 'orthorhombic'
loop_
_space_group_symop_operation_xyz
x,y,z
-x,-y,z
x,-y,-z
-x,y,-z
-x,-y,-z
x,y,-z
-x,y,z
x,-y,z
1/2+x,1/2+y,z
1/2-x,1/2-y,z
1/2+x,1/2-y,-z
1/2-x,1/2+y,-z
1/2-x,1/2-y,-z
1/2+x,1/2+y,-z
1/2-x,1/2+y,z
1/2+x,1/2-y,z
loop_
_atom_site_type_symbol
_atom_site_label
_atom_site_fract_x
_atom_site_fract_y
_atom_site_fract_z
Si Si1 0.389372 0.122324 0.822057
Si Si2 0.246178 0.500000 0.181037
Si Si3 0.869289 0.500000 0.179431
Si Si4 0.702399 0.183080 0.675456
Si Si5 0.290519 0.618234 0.176964
Si Si6 0.555269 0.767701 0.177047
Si Si7 0.645689 0.704530 0.675892
O O1 0.395667 0.057837 0.779597
O O2 0.344718 0.146629 0.724876
O O3 0.433053 0.166660 0.799464
O O4 0.376715 0.124402 0.000000
O O5 0.188454 0.500000 0.230230
O O6 0.274467 0.556270 0.227013
O O7 0.244815 0.500000 0.000000
O O8 0.867388 0.500000 0.000000
O O9 0.713377 0.177166 0.500000
O O10 0.746193 0.158730 0.773260
O O11 0.686832 0.246944 0.703479
O O12 0.338165 0.646873 0.249806
O O13 0.295481 0.617661 0.000000
O O14 0.500000 0.754608 0.226033
O O15 0.595872 0.730577 0.258178
O O16 0.559507 0.758360 0.000000
O O17 0.641965 0.697963 0.500000
#
# Coordination Sequence:
#
# PCOD9494602 Si02
#       7
#    16   8   8  16  16  16  16
#     4   9  16  28  47  67  92 129 167 203 240 283
#     4   9  18  30  46  69  97 131 167 199 229 274
#     4   9  14  26  45  66  93 129 171 204 234 275
#     4  10  19  30  44  66  98 129 159 200 240 281
#     4  11  20  32  49  69  96 130 165 196 233 282
#     4   9  18  33  52  74  96 120 158 205 249 294
#     4  10  21  34  48  70  98 126 158 198 245 292
#
# _framework density 8.2304530000000007
#
# number of rings (size 3 to 8) (size 9 to 14) (size 15 to 20)
#    0.000    2.333    1.667    2.000    0.000    4.333 
#    0.000    3.333    0.000    2.500    0.000    0.583 
#    0.000   10.000    0.000    0.000    0.000    0.000 
#
# Total GULP energy -267469.691413 kJ/mol
# GULP energy per Si atom -5572.285238 kJ/mol
# Density = 0.821172 g / cm^3
# Si number density = 8.230453 Si / 1000 Ang^3
#
#
#
# Elastic Constant Matrix: (Units=GPa)
#
#
# Indices 1 2 3 4 5 6 
#
# 1 79.5947 51.5613 28.3654 0.0000 0.0000 0.0000
# 2 51.5613 63.8654 36.6971 0.0000 0.0000 0.0000
# 3 28.3654 36.6971 29.2232 0.0000 0.0000 0.0000
# 4 0.0000 0.0000 0.0000 11.6589 0.0000 0.0000
# 5 0.0000 0.0000 0.0000 0.0000 -5.6651 0.0000
# 6 0.0000 0.0000 0.0000 0.0000 0.0000 6.7393
#
#
#
# Elastic Compliance Matrix: (Units=1/GPa)
#
#
# Indices 1 2 3 4 5 6 
#
# 1 0.026475 -0.023733 0.004105 0.000000 0.000000 0.000000
# 2 -0.023733 0.077510 -0.074296 0.000000 0.000000 0.000000
# 3 0.004105 -0.074296 0.123532 0.000000 0.000000 0.000000
# 4 0.000000 0.000000 0.000000 0.085771 0.000000 0.000000
# 5 0.000000 0.000000 0.000000 0.000000 -0.176519 0.000000
# 6 0.000000 0.000000 0.000000 0.000000 0.000000 0.148382
#
#
# Mechanical properties :
#
#
# Convention : Reuss Voigt Hill
#
# Bulk Modulus (GPa) = 25.20898 45.10344 35.15621
# Shear Modulus (GPa) = 10.28337 6.28394 8.28365
#
# Velocity S-wave (km/s) = 2.50214 1.95596 2.24572
# Velocity P-wave (km/s) = 4.86778 5.70621 5.30359
#
# Compressibility (1/GPa) = 0.03966840
#
# Stress axis : x y z
#
# Youngs Moduli (GPa) = 37.77139 12.90164 8.09508
#
# Poissons Ratio (x) = 0.30620 -0.03323
# Poissons Ratio (y) = 0.89645 0.60143
# Poissons Ratio (z) = -0.15507 0.95854
#
# Static dielectric constant tensor:
#      x y z
#    x 1.560960 0.000000 0.000000 
#    y 0.000000 1.565920 0.000000 
#    z 0.000000 0.000000 1.542310 
# 
# From -- ./inp_files/16708.got.cif
#   From: 2010.05.17/outbox.ucp.g08.bks.cvg/sg65_9_cif.got.tgz:16708.got - 2010.06.11 16:39:57.
