data_PCOD9494741
_publ_section_title
;
Structure prediction by ZEFSAII (Michael W. Deem and Ramdas Pophale) SiO2 
 PCOD9494741
Probable space group: C M M M
;
_chemical_formula_sum "Si O2"
_cell_formula_units_Z 52
_cell_length_a 21.000000
_cell_length_b 9.000000
_cell_length_c 30.000000
_cell_angle_alpha 90.000000
_cell_angle_beta 90.000000
_cell_angle_gamma 90.000000
_cell_volume 5670.000000
_symmetry_space_group_name_H-M "C M M M"
_symmetry_group_IT_number 65
_symmetry_cell_setting 'orthorhombic'
loop_
_space_group_symop_operation_xyz
x,y,z
-x,-y,z
x,-y,-z
-x,y,-z
-x,-y,-z
x,y,-z
-x,y,z
x,-y,z
1/2+x,1/2+y,z
1/2-x,1/2-y,z
1/2+x,1/2-y,-z
1/2-x,1/2+y,-z
1/2-x,1/2-y,-z
1/2+x,1/2+y,-z
1/2-x,1/2+y,z
1/2+x,1/2-y,z
loop_
_atom_site_type_symbol
_atom_site_label
_atom_site_fract_x
_atom_site_fract_y
_atom_site_fract_z
Si Si1 0.810229 0.336034 0.947125
Si Si2 0.429576 0.323671 0.911303
Si Si3 0.928459 0.325966 0.816653
Si Si4 0.424428 0.177903 0.406837
Si Si5 0.683721 0.321299 0.652956
Si Si6 0.076809 0.169830 0.500000
Si Si7 0.313241 0.177694 0.249629
O O1 0.815019 0.500000 0.927508
O O2 0.750000 0.250000 0.927632
O O3 0.874352 0.248153 0.939495
O O4 0.800174 0.349047 0.000000
O O5 0.500000 0.272916 0.925365
O O6 0.426796 0.500000 0.914477
O O7 0.420637 0.272693 0.860398
O O8 0.924097 0.500000 0.829693
O O9 0.874427 0.296995 0.780795
O O10 0.000000 0.301645 0.798752
O O11 0.500000 0.208846 0.399043
O O12 0.377456 0.260307 0.373114
O O13 0.406765 0.240209 0.455622
O O14 0.416184 0.000000 0.404528
O O15 0.687070 0.500000 0.651899
O O16 0.750000 0.250000 0.635110
O O17 0.678556 0.259825 0.703288
O O18 0.000000 0.160525 0.500000
O O19 0.101394 0.000000 0.500000
O O20 0.250000 0.250000 0.228682
O O21 0.305137 0.000000 0.256240
#
# Coordination Sequence:
#
# PCOD9494741 Si02
#       7
#    16  16  16  16  16   8  16
#     4  10  21  37  57  80 107 140 178 221 267 315
#     4  10  21  36  55  80 110 143 178 218 264 314
#     4   9  19  36  56  77 104 139 178 220 264 311
#     4  10  20  35  56  81 109 142 180 220 264 316
#     4  11  22  37  56  78 108 143 179 221 269 318
#     4   9  17  31  52  79 110 141 176 219 265 313
#     4  10  20  35  55  78 104 137 176 217 264 316
#
# _framework density 9.1710759999999993
#
# number of rings (size 3 to 8) (size 9 to 14) (size 15 to 20)
#    0.000    2.077    0.000    4.385    0.000    6.462 
#    0.000    5.000    0.000    0.000    0.000    0.000 
#    0.000    0.000    0.000    0.000    0.000    0.000 
#
# Total GULP energy -290053.460266 kJ/mol
# GULP energy per Si atom -5577.951159 kJ/mol
# Density = 0.915020 g / cm^3
# Si number density = 9.171076 Si / 1000 Ang^3
#
#
#
# Elastic Constant Matrix: (Units=GPa)
#
#
# Indices 1 2 3 4 5 6 
#
# 1 101.4172 63.1742 26.7568 0.0000 0.0000 0.0000
# 2 63.1742 108.8628 18.8799 0.0000 0.0000 0.0000
# 3 26.7568 18.8799 0.7327 0.0000 0.0000 0.0000
# 4 0.0000 0.0000 0.0000 26.9197 0.0000 0.0000
# 5 0.0000 0.0000 0.0000 0.0000 60.4848 0.0000
# 6 0.0000 0.0000 0.0000 0.0000 0.0000 28.7346
#
#
#
# Elastic Compliance Matrix: (Units=1/GPa)
#
#
# Indices 1 2 3 4 5 6 
#
# 1 0.006136 -0.010176 0.038143 0.000000 0.000000 0.000000
# 2 -0.010176 0.014228 0.004976 0.000000 0.000000 0.000000
# 3 0.038143 0.004976 -0.156325 0.000000 0.000000 0.000000
# 4 0.000000 0.000000 0.000000 0.037148 0.000000 0.000000
# 5 0.000000 0.000000 0.000000 0.000000 0.016533 0.000000
# 6 0.000000 0.000000 0.000000 0.000000 0.000000 0.034801
#
#
# Mechanical properties :
#
#
# Convention : Reuss Voigt Hill
#
# Bulk Modulus (GPa) = -14.27069 47.62604 16.67767
# Shear Modulus (GPa) = -36.56983 30.04127 -3.26428
#
# Velocity S-wave (km/s) = -4.47000 4.05140 -1.33549
# Velocity P-wave (km/s) = 5.86842 6.92148 2.59504
#
# Compressibility (1/GPa) = -0.07007369
#
# Stress axis : x y z
#
# Youngs Moduli (GPa) = 162.98538 70.28461 -6.39695
#
# Poissons Ratio (x) = 0.71519 0.24400
# Poissons Ratio (y) = 1.65847 0.03183
# Poissons Ratio (z) = -6.21678 -0.34975
#
# Static dielectric constant tensor:
#      x y z
#    x 1.635830 0.000000 0.000000 
#    y 0.000000 1.630080 0.000000 
#    z 0.000000 0.000000 1.619170 
# 
# From -- ./inp_files/78191.got.cif
#   From: 2010.05.17/outbox.ucp.g08.bks.cvg/sg65_40_cif.got.tgz:78191.got - 2010.06.11 16:39:57.
