data_PCOD9494655
_publ_section_title
;
Structure prediction by ZEFSAII (Michael W. Deem and Ramdas Pophale) SiO2 
 PCOD9494655
Probable space group: C M M M
;
_chemical_formula_sum "Si O2"
_cell_formula_units_Z 52
_cell_length_a 21.000000
_cell_length_b 30.000000
_cell_length_c 9.000000
_cell_angle_alpha 90.000000
_cell_angle_beta 90.000000
_cell_angle_gamma 90.000000
_cell_volume 5670.000000
_symmetry_space_group_name_H-M "C M M M"
_symmetry_group_IT_number 65
_symmetry_cell_setting 'orthorhombic'
loop_
_space_group_symop_operation_xyz
x,y,z
-x,-y,z
x,-y,-z
-x,y,-z
-x,-y,-z
x,y,-z
-x,y,z
x,-y,z
1/2+x,1/2+y,z
1/2-x,1/2-y,z
1/2+x,1/2-y,-z
1/2-x,1/2+y,-z
1/2-x,1/2-y,-z
1/2+x,1/2+y,-z
1/2-x,1/2+y,z
1/2+x,1/2-y,z
loop_
_atom_site_type_symbol
_atom_site_label
_atom_site_fract_x
_atom_site_fract_y
_atom_site_fract_z
Si Si1 0.321467 0.201919 0.318891
Si Si2 0.823902 0.803550 0.319245
Si Si3 0.116850 0.105733 0.321598
Si Si4 0.753636 0.947415 0.670909
Si Si5 0.500000 0.447433 0.821460
Si Si6 0.069602 0.364281 0.321669
Si Si7 0.121179 0.550848 0.176384
O O1 0.321462 0.201856 0.500000
O O2 0.249783 0.188733 0.274036
O O3 0.337538 0.252669 0.273740
O O4 0.373943 0.167303 0.266596
O O5 0.824687 0.804628 0.500000
O O6 0.870881 0.843122 0.271896
O O7 0.104790 0.105264 0.500000
O O8 0.183926 0.080818 0.295971
O O9 0.061299 0.078712 0.241369
O O10 0.734278 0.937378 0.500000
O O11 0.693816 0.938903 0.775655
O O12 0.769199 0.000000 0.679434
O O13 0.500000 0.500000 0.776547
O O14 0.500000 0.446082 0.000000
O O15 0.074535 0.367144 0.500000
O O16 0.077815 0.413018 0.254767
O O17 0.000000 0.345846 0.284883
O O18 0.108056 0.500000 0.224354
O O19 0.114493 0.553309 0.000000
#
# Coordination Sequence:
#
# PCOD9494655 Si02
#       7
#    16  16  16  16   8  16  16
#     4   8  14  28  49  77 110 136 161 202 258 315
#     4   8  14  26  50  81 108 131 160 206 262 312
#     4  10  19  33  55  83 107 134 174 220 267 315
#     4   9  17  30  51  78 105 131 163 210 263 309
#     4  11  25  41  53  69 103 151 193 227 268 321
#     4  10  20  33  50  73 100 134 174 213 254 301
#     4  10  21  35  51  73 101 133 170 212 256 306
#
# _framework density 9.1710759999999993
#
# number of rings (size 3 to 8) (size 9 to 14) (size 15 to 20)
#    0.000    2.692    0.000    3.000    0.000    5.846 
#    1.385    3.077    0.000    0.923    0.000    3.231 
#    0.000    0.000    0.000    0.000    0.000    0.000 
#
# Total GULP energy -289940.058411 kJ/mol
# GULP energy per Si atom -5575.770354 kJ/mol
# Density = 0.915020 g / cm^3
# Si number density = 9.171076 Si / 1000 Ang^3
#
#
#
# Elastic Constant Matrix: (Units=GPa)
#
#
# Indices 1 2 3 4 5 6 
#
# 1 71.5656 72.9832 19.2142 0.0000 0.0000 0.0000
# 2 72.9832 116.1887 24.6964 0.0000 0.0000 0.0000
# 3 19.2142 24.6964 6.0922 0.0000 0.0000 0.0000
# 4 0.0000 0.0000 0.0000 8.3744 0.0000 0.0000
# 5 0.0000 0.0000 0.0000 0.0000 -2.9945 0.0000
# 6 0.0000 0.0000 0.0000 0.0000 0.0000 23.6004
#
#
#
# Elastic Compliance Matrix: (Units=1/GPa)
#
#
# Indices 1 2 3 4 5 6 
#
# 1 0.105607 0.032229 -0.463721 0.000000 0.000000 0.000000
# 2 0.032229 0.072039 -0.393676 0.000000 0.000000 0.000000
# 3 -0.463721 -0.393676 3.222518 0.000000 0.000000 0.000000
# 4 0.000000 0.000000 0.000000 0.119411 0.000000 0.000000
# 5 0.000000 0.000000 0.000000 0.000000 -0.333943 0.000000
# 6 0.000000 0.000000 0.000000 0.000000 0.000000 0.042372
#
#
# Mechanical properties :
#
#
# Convention : Reuss Voigt Hill
#
# Bulk Modulus (GPa) = 0.57148 47.51490 24.04319
# Shear Modulus (GPa) = 0.91548 10.92624 5.92086
#
# Velocity S-wave (km/s) = 0.70725 2.44332 1.79861
# Velocity P-wave (km/s) = 0.98953 5.82415 4.17732
#
# Compressibility (1/GPa) = 1.74983017
#
# Stress axis : x y z
#
# Youngs Moduli (GPa) = 9.46905 13.88128 0.31032
#
# Poissons Ratio (x) = -0.44738 0.14390
# Poissons Ratio (y) = -0.30518 0.12216
# Poissons Ratio (z) = 4.39099 5.46472
#
# Static dielectric constant tensor:
#      x y z
#    x 1.629150 0.000000 0.000000 
#    y 0.000000 1.647770 0.000000 
#    z 0.000000 0.000000 1.611750 
# 
# From -- ./inp_files/12771.got.cif
#   From: 2010.05.17/outbox.ucp.g08.bks.cvg/sg65_7_cif.got.tgz:12771.got - 2010.06.11 16:39:57.
