data_PCOD9494558
_publ_section_title
;
Structure prediction by ZEFSAII (Michael W. Deem and Ramdas Pophale) SiO2 
 PCOD9494558
Probable space group: C M M M
;
_chemical_formula_sum "Si O2"
_cell_formula_units_Z 36
_cell_length_a 24.000000
_cell_length_b 9.000000
_cell_length_c 21.000000
_cell_angle_alpha 90.000000
_cell_angle_beta 90.000000
_cell_angle_gamma 90.000000
_cell_volume 4536.000000
_symmetry_space_group_name_H-M "C M M M"
_symmetry_group_IT_number 65
_symmetry_cell_setting 'orthorhombic'
loop_
_space_group_symop_operation_xyz
x,y,z
-x,-y,z
x,-y,-z
-x,y,-z
-x,-y,-z
x,y,-z
-x,y,z
x,-y,z
1/2+x,1/2+y,z
1/2-x,1/2-y,z
1/2+x,1/2-y,-z
1/2-x,1/2+y,-z
1/2-x,1/2-y,-z
1/2+x,1/2+y,-z
1/2-x,1/2+y,z
1/2+x,1/2-y,z
loop_
_atom_site_type_symbol
_atom_site_label
_atom_site_fract_x
_atom_site_fract_y
_atom_site_fract_z
Si Si1 0.689301 0.177054 0.177397
Si Si2 0.812593 0.821173 0.695883
Si Si3 0.000000 0.670490 0.077053
Si Si4 0.688316 0.177507 0.570288
Si Si5 0.614785 0.325971 0.923757
O O1 0.750000 0.250000 0.172151
O O2 0.661837 0.253937 0.239672
O O3 0.657427 0.224419 0.114239
O O4 0.692668 0.000000 0.185531
O O5 0.750000 0.750000 0.695762
O O6 0.838964 0.758880 0.630630
O O7 0.809974 0.000000 0.696902
O O8 0.054380 0.763121 0.094523
O O9 0.000000 0.500000 0.100715
O O10 0.000000 0.661994 0.000000
O O11 0.662616 0.199209 0.500000
O O12 0.750000 0.250000 0.566306
O O13 0.693184 0.000000 0.581510
O O14 0.621097 0.500000 0.907409
O O15 0.621248 0.312566 0.000000
#
# Coordination Sequence:
#
# PCOD9494558 Si02
#       5
#    16  16   8  16  16
#     4  11  21  33  47  63  87 118 152 186 222 266
#     4  10  17  26  39  54  76 106 141 177 214 257
#     4   9  17  31  51  73  93 113 140 175 218 265
#     4   9  15  22  33  50  72  99 134 174 212 249
#     4  10  20  34  51  70  91 115 145 182 223 265
#
# _framework density 7.9365079999999999
#
# number of rings (size 3 to 8) (size 9 to 14) (size 15 to 20)
#    0.000    2.111    0.000    8.333    0.000    4.444 
#    0.000    0.000    0.000    0.000    0.000    0.000 
#    0.000    0.000    0.000    1.000    0.000   18.889 
#
# Total GULP energy -200416.487379 kJ/mol
# GULP energy per Si atom -5567.124649 kJ/mol
# Density = 0.791844 g / cm^3
# Si number density = 7.936508 Si / 1000 Ang^3
#
#
#
# Elastic Constant Matrix: (Units=GPa)
#
#
# Indices 1 2 3 4 5 6 
#
# 1 31.2477 19.6826 25.8113 0.0000 0.0000 0.0000
# 2 19.6826 159.1121 48.5016 0.0000 0.0000 0.0000
# 3 25.8113 48.5016 65.5602 0.0000 0.0000 0.0000
# 4 0.0000 0.0000 0.0000 23.2815 0.0000 0.0000
# 5 0.0000 0.0000 0.0000 0.0000 -12.0014 0.0000
# 6 0.0000 0.0000 0.0000 0.0000 0.0000 15.4114
#
#
#
# Elastic Compliance Matrix: (Units=1/GPa)
#
#
# Indices 1 2 3 4 5 6 
#
# 1 0.047432 -0.000226 -0.018507 0.000000 0.000000 0.000000
# 2 -0.000226 0.008116 -0.005915 0.000000 0.000000 0.000000
# 3 -0.018507 -0.005915 0.026915 0.000000 0.000000 0.000000
# 4 0.000000 0.000000 0.000000 0.042952 0.000000 0.000000
# 5 0.000000 0.000000 0.000000 0.000000 -0.083323 0.000000
# 6 0.000000 0.000000 0.000000 0.000000 0.000000 0.064887
#
#
# Mechanical properties :
#
#
# Convention : Reuss Voigt Hill
#
# Bulk Modulus (GPa) = 30.15046 49.32344 39.73695
# Shear Modulus (GPa) = 29.88087 16.13326 23.00707
#
# Velocity S-wave (km/s) = 4.34348 3.19155 3.81129
# Velocity P-wave (km/s) = 6.64759 6.68749 6.66757
#
# Compressibility (1/GPa) = 0.03316699
#
# Stress axis : x y z
#
# Youngs Moduli (GPa) = 21.08295 123.21409 37.15341
#
# Poissons Ratio (x) = 0.02785 0.68759
# Poissons Ratio (y) = 0.00477 0.21977
# Poissons Ratio (z) = 0.39018 0.72884
#
# Static dielectric constant tensor:
#      x y z
#    x 1.572580 0.000000 0.000000 
#    y 0.000000 1.524170 0.000000 
#    z 0.000000 0.000000 1.634350 
# 
# From -- ./inp_files/57136.got.cif
#   From: 2010.05.17/outbox.ucp.g08.bks.cvg/sg65_29_cif.got.tgz:57136.got - 2010.06.11 16:39:57.
