data_PCOD9494393
_publ_section_title
;
Structure prediction by ZEFSAII (Michael W. Deem and Ramdas Pophale) SiO2 
 PCOD9494393
Probable space group: C M M M
;
_chemical_formula_sum "Si O2"
_cell_formula_units_Z 80
_cell_length_a 14.164478
_cell_length_b 13.584389
_cell_length_c 19.599961
_cell_angle_alpha 90.000000
_cell_angle_beta 90.000000
_cell_angle_gamma 90.000000
_cell_volume 3771.341767
_symmetry_space_group_name_H-M "C M M M"
_symmetry_group_IT_number 65
_symmetry_cell_setting 'orthorhombic'
loop_
_space_group_symop_operation_xyz
x,y,z
-x,-y,z
x,-y,-z
-x,y,-z
-x,-y,-z
x,y,-z
-x,y,z
x,-y,z
1/2+x,1/2+y,z
1/2-x,1/2-y,z
1/2+x,1/2-y,-z
1/2-x,1/2+y,-z
1/2-x,1/2-y,-z
1/2+x,1/2+y,-z
1/2-x,1/2+y,z
1/2+x,1/2-y,z
loop_
_atom_site_type_symbol
_atom_site_label
_atom_site_fract_x
_atom_site_fract_y
_atom_site_fract_z
Si Si1 0.105946 0.382938 0.720396
Si Si2 0.610031 0.619785 0.924850
Si Si3 0.113811 0.889141 0.642977
Si Si4 0.207729 0.879885 0.786961
Si Si5 0.115133 0.692952 0.425753
O O1 0.099614 0.500000 0.729620
O O2 0.186019 0.345812 0.771271
O O3 0.140441 0.364945 0.642840
O O4 0.000000 0.341535 0.728590
O O5 0.500000 0.647320 0.918058
O O6 0.612748 0.500000 0.924922
O O7 0.666242 0.653881 0.858691
O O8 0.643824 0.652215 0.000000
O O9 0.147000 0.859498 0.718844
O O10 0.143495 0.805700 0.589679
O O11 0.000000 0.890798 0.642715
O O12 0.147276 0.000000 0.628269
O O13 0.209047 0.000000 0.790178
O O14 0.148227 0.659250 0.500000
O O15 0.000000 0.688985 0.427404
#
# Coordination Sequence:
#
# PCOD9494393 Si02
#       5
#    16  16  16  16  16
#     4   9  18  32  48  65  87 120 165 212 247 272
#     4   8  13  22  40  69 102 130 154 186 232 283
#     4   9  17  29  46  69  96 123 149 181 229 294
#     4   9  16  27  44  66  93 124 157 191 230 280
#     4   9  18  32  49  69  92 120 157 199 245 294
#
# _framework density 21.212610000000002
#
# number of rings (size 3 to 8) (size 9 to 14) (size 15 to 20)
#    0.000    3.200    0.000    1.200    0.000    4.000 
#    0.000    6.000    0.000    4.200    0.000    7.000 
#    0.000    4.800    0.000    0.400    0.000    0.000 
#
# Total GULP energy -223247.203977 kJ/mol
# GULP energy per Si atom -5581.180099 kJ/mol
# Density = 2.116433 g / cm^3
# Si number density = 21.212610 Si / 1000 Ang^3
#
#
#
# Elastic Constant Matrix: (Units=GPa)
#
#
# Indices 1 2 3 4 5 6 
#
# 1 75.7578 0.6636 59.3547 0.0000 0.0000 0.0000
# 2 0.6636 32.0605 -7.1832 0.0000 0.0000 0.0000
# 3 59.3547 -7.1832 152.1153 0.0000 0.0000 0.0000
# 4 0.0000 0.0000 0.0000 23.1003 0.0000 0.0000
# 5 0.0000 0.0000 0.0000 0.0000 30.1161 0.0000
# 6 0.0000 0.0000 0.0000 0.0000 0.0000 15.7796
#
#
#
# Elastic Compliance Matrix: (Units=1/GPa)
#
#
# Indices 1 2 3 4 5 6 
#
# 1 0.019150 -0.002093 -0.007571 0.000000 0.000000 0.000000
# 2 -0.002093 0.031753 0.002316 0.000000 0.000000 0.000000
# 3 -0.007571 0.002316 0.009638 0.000000 0.000000 0.000000
# 4 0.000000 0.000000 0.000000 0.043289 0.000000 0.000000
# 5 0.000000 0.000000 0.000000 0.000000 0.033205 0.000000
# 6 0.000000 0.000000 0.000000 0.000000 0.000000 0.063373
#
#
# Mechanical properties :
#
#
# Convention : Reuss Voigt Hill
#
# Bulk Modulus (GPa) = 21.81249 40.62265 31.21757
# Shear Modulus (GPa) = 21.70275 27.60576 24.65426
#
# Velocity S-wave (km/s) = 3.20207 3.61138 3.41287
# Velocity P-wave (km/s) = 4.89654 6.04825 5.50261
#
# Compressibility (1/GPa) = 0.04584530
#
# Stress axis : x y z
#
# Youngs Moduli (GPa) = 52.21899 31.49288 103.76086
#
# Poissons Ratio (x) = 0.06590 0.78559
# Poissons Ratio (y) = 0.10928 -0.24031
# Poissons Ratio (z) = 0.39536 -0.07294
#
# Static dielectric constant tensor:
#      x y z
#    x 1.809640 0.000000 0.000000 
#    y 0.000000 1.801550 0.000000 
#    z 0.000000 0.000000 1.726470 
# 
# From -- ./inp_files/52886.got.cif
#   From: 2010.05.17/outbox.cif.g08.bks.cpg/sg65_27_cif.got.tgz:52886.got - 2010.06.03 17:01:31.
