data_PCOD9494866
_publ_section_title
;
Structure prediction by ZEFSAII (Michael W. Deem and Ramdas Pophale) SiO2 
 PCOD9494866
Probable space group: C M M M
;
_chemical_formula_sum "Si O2"
_cell_formula_units_Z 44
_cell_length_a 21.000000
_cell_length_b 24.000000
_cell_length_c 9.000000
_cell_angle_alpha 90.000000
_cell_angle_beta 90.000000
_cell_angle_gamma 90.000000
_cell_volume 4536.000000
_symmetry_space_group_name_H-M "C M M M"
_symmetry_group_IT_number 65
_symmetry_cell_setting 'orthorhombic'
loop_
_space_group_symop_operation_xyz
x,y,z
-x,-y,z
x,-y,-z
-x,y,-z
-x,-y,-z
x,y,-z
-x,y,z
x,-y,z
1/2+x,1/2+y,z
1/2-x,1/2-y,z
1/2+x,1/2-y,-z
1/2-x,1/2+y,-z
1/2-x,1/2-y,-z
1/2+x,1/2+y,-z
1/2-x,1/2+y,z
1/2+x,1/2-y,z
loop_
_atom_site_type_symbol
_atom_site_label
_atom_site_fract_x
_atom_site_fract_y
_atom_site_fract_z
Si Si1 0.887210 0.564593 0.823504
Si Si2 0.571391 0.826035 0.677226
Si Si3 0.128329 0.868454 0.676644
Si Si4 0.736660 0.433816 0.168160
Si Si5 0.825433 0.754280 0.821501
Si Si6 0.500000 0.434967 0.319333
O O1 0.900782 0.500000 0.787156
O O2 0.923869 0.609929 0.728507
O O3 0.811385 0.574551 0.801195
O O4 0.899753 0.572007 0.000000
O O5 0.578455 0.821136 0.500000
O O6 0.500000 0.804745 0.716724
O O7 0.629433 0.794098 0.756436
O O8 0.123895 0.858503 0.500000
O O9 0.189148 0.906275 0.716621
O O10 0.142944 0.810905 0.760097
O O11 0.063889 0.901124 0.724320
O O12 0.726264 0.500000 0.166996
O O13 0.723895 0.412252 0.000000
O O14 0.750000 0.750000 0.778121
O O15 0.827390 0.752660 0.000000
O O16 0.500000 0.500000 0.268913
O O17 0.500000 0.436741 0.500000
#
# Coordination Sequence:
#
# PCOD9494866 Si02
#       6
#    16  16  16  16  16   8
#     4   9  19  37  61  88 119 157 199 242 294 357
#     4  11  25  42  61  88 123 158 197 247 301 358
#     4  11  22  36  59  87 118 156 202 252 304 366
#     4   9  18  34  56  84 119 155 195 247 300 351
#     4  11  25  44  65  89 119 157 204 256 310 370
#     4   9  20  38  57  83 123 165 200 241 300 367
#
# _framework density 9.7001760000000008
#
# number of rings (size 3 to 8) (size 9 to 14) (size 15 to 20)
#    0.000    1.909    0.000    4.364    1.273    9.818 
#    0.000    5.000    0.000    3.273    0.000    0.000 
#    0.000    0.000    0.000    0.000    0.000    0.000 
#
# Total GULP energy -245758.059611 kJ/mol
# GULP energy per Si atom -5585.410446 kJ/mol
# Density = 0.967810 g / cm^3
# Si number density = 9.700176 Si / 1000 Ang^3
#
#
#
# Elastic Constant Matrix: (Units=GPa)
#
#
# Indices 1 2 3 4 5 6 
#
# 1 105.4231 65.0305 50.6009 0.0000 0.0000 0.0000
# 2 65.0305 104.8429 36.1779 0.0000 0.0000 0.0000
# 3 50.6009 36.1779 57.7839 0.0000 0.0000 0.0000
# 4 0.0000 0.0000 0.0000 21.1305 0.0000 0.0000
# 5 0.0000 0.0000 0.0000 0.0000 -122.3170 0.0000
# 6 0.0000 0.0000 0.0000 0.0000 0.0000 34.8090
#
#
#
# Elastic Compliance Matrix: (Units=1/GPa)
#
#
# Indices 1 2 3 4 5 6 
#
# 1 0.021017 -0.008528 -0.013065 0.000000 0.000000 0.000000
# 2 -0.008528 0.015627 -0.002316 0.000000 0.000000 0.000000
# 3 -0.013065 -0.002316 0.030197 0.000000 0.000000 0.000000
# 4 0.000000 0.000000 0.000000 0.047325 0.000000 0.000000
# 5 0.000000 0.000000 0.000000 0.000000 -0.008175 0.000000
# 6 0.000000 0.000000 0.000000 0.000000 0.000000 0.028728
#
#
# Mechanical properties :
#
#
# Convention : Reuss Voigt Hill
#
# Bulk Modulus (GPa) = 52.56893 63.51874 58.04383
# Shear Modulus (GPa) = 26.47217 -5.52612 10.47302
#
# Velocity S-wave (km/s) = 3.69795 -1.68957 2.32596
# Velocity P-wave (km/s) = 6.73712 5.38571 6.09896
#
# Compressibility (1/GPa) = 0.01902265
#
# Stress axis : x y z
#
# Youngs Moduli (GPa) = 47.58049 63.99287 33.11575
#
# Poissons Ratio (x) = 0.54571 0.43267
# Poissons Ratio (y) = 0.40575 0.07670
# Poissons Ratio (z) = 0.62165 0.14821
#
# Static dielectric constant tensor:
#      x y z
#    x 1.674210 0.000000 0.000000 
#    y 0.000000 1.719220 0.000000 
#    z 0.000000 0.000000 1.655570 
# 
# From -- ./inp_files/11757.got.cif
#   From: 2010.05.17/outbox.ucp.g08.bks.cvg/sg65_6_cif.got.tgz:11757.got - 2010.06.11 16:39:57.
