data_PCOD9494052
_publ_section_title
;
Structure prediction by ZEFSAII (Michael W. Deem and Ramdas Pophale) SiO2 
 PCOD9494052
Probable space group: C M M M
;
_chemical_formula_sum "Si O2"
_cell_formula_units_Z 52
_cell_length_a 9.552724
_cell_length_b 18.695439
_cell_length_c 14.820358
_cell_angle_alpha 90.000000
_cell_angle_beta 90.000000
_cell_angle_gamma 90.000000
_cell_volume 2646.802842
_symmetry_space_group_name_H-M "C M M M"
_symmetry_group_IT_number 65
_symmetry_cell_setting 'orthorhombic'
loop_
_space_group_symop_operation_xyz
x,y,z
-x,-y,z
x,-y,-z
-x,y,-z
-x,-y,-z
x,y,-z
-x,y,z
x,-y,z
1/2+x,1/2+y,z
1/2-x,1/2-y,z
1/2+x,1/2-y,-z
1/2-x,1/2+y,-z
1/2-x,1/2-y,-z
1/2+x,1/2+y,-z
1/2-x,1/2+y,z
1/2+x,1/2-y,z
loop_
_atom_site_type_symbol
_atom_site_label
_atom_site_fract_x
_atom_site_fract_y
_atom_site_fract_z
Si Si1 0.500000 0.631135 0.000000
Si Si2 0.835361 0.585477 0.500000
Si Si3 0.663242 0.677221 0.362552
Si Si4 0.000000 0.415632 0.108419
Si Si5 0.277336 0.333375 0.153332
O O1 0.620278 0.634589 0.079198
O O2 0.832093 0.500000 0.500000
O O3 0.749947 0.616754 0.414952
O O4 0.000000 0.607800 0.500000
O O5 0.500000 0.681985 0.390497
O O6 0.750000 0.750000 0.380492
O O7 0.666376 0.664975 0.255058
O O8 0.865743 0.376859 0.148645
O O9 0.000000 0.500000 0.126672
O O10 0.000000 0.405367 0.000000
O O11 0.250000 0.250000 0.129990
#
# Coordination Sequence:
#
# PCOD9494052 Si02
#       5
#     4   8  16   8  16
#     4  12  20  40  63 100 133 172 236 288 320 394
#     4  11  26  47  72  99 131 177 228 281 346 419
#     4  11  24  43  68 102 138 176 223 282 344 405
#     4  11  25  43  60  90 136 185 224 276 353 410
#     4  11  24  39  68 100 135 180 234 285 335 403
#
# _framework density 19.646345
#
# number of rings (size 3 to 8) (size 9 to 14) (size 15 to 20)
#    0.000    0.923    3.077    3.231   10.769    2.462 
#    0.000    1.538    0.000    0.000    0.000    0.000 
#    0.000    0.000    0.000    0.000    0.000    0.000 
#
# Total GULP energy -144820.791850 kJ/mol
# GULP energy per Si atom -5570.030456 kJ/mol
# Density = 1.960163 g / cm^3
# Si number density = 19.646345 Si / 1000 Ang^3
#
#
#
# Elastic Constant Matrix: (Units=GPa)
#
#
# Indices 1 2 3 4 5 6 
#
# 1 221.9636 58.7539 48.6974 0.0000 0.0000 0.0000
# 2 58.7539 86.0749 23.5239 0.0000 0.0000 0.0000
# 3 48.6974 23.5239 79.8322 0.0000 0.0000 0.0000
# 4 0.0000 0.0000 0.0000-1221.8286 0.0000 0.0000
# 5 0.0000 0.0000 0.0000 0.0000 311.6984 0.0000
# 6 0.0000 0.0000 0.0000 0.0000 0.0000 27.9567
#
#
#
# Elastic Compliance Matrix: (Units=1/GPa)
#
#
# Indices 1 2 3 4 5 6 
#
# 1 0.005976 -0.003353 -0.002657 0.000000 0.000000 0.000000
# 2 -0.003353 0.014516 -0.002232 0.000000 0.000000 0.000000
# 3 -0.002657 -0.002232 0.014805 0.000000 0.000000 0.000000
# 4 0.000000 0.000000 0.000000 -0.000818 0.000000 0.000000
# 5 0.000000 0.000000 0.000000 0.000000 0.003208 0.000000
# 6 0.000000 0.000000 0.000000 0.000000 0.000000 0.035770
#
#
# Mechanical properties :
#
#
# Convention : Reuss Voigt Hill
#
# Bulk Modulus (GPa) = 53.15617 72.20232 62.67925
# Shear Modulus (GPa) = 51.96866 -159.30832 -53.66983
#
# Velocity S-wave (km/s) = 5.14874 -9.01466 -5.23233
# Velocity P-wave (km/s) = 7.90324 8.45702 2.12838
#
# Compressibility (1/GPa) = 0.01881249
#
# Stress axis : x y z
#
# Youngs Moduli (GPa) = 167.34469 68.88743 67.54493
#
# Poissons Ratio (x) = 0.23096 0.17948
# Poissons Ratio (y) = 0.56106 0.15078
# Poissons Ratio (z) = 0.44467 0.15378
#
# Static dielectric constant tensor:
#      x y z
#    x 1.651420 0.000000 0.000000 
#    y 0.000000 1.666530 0.000000 
#    z 0.000000 0.000000 1.684620 
# 
# From -- ./inp_files/35363.got.cif
#   From: 2010.05.17/outbox.cif.g08.bks.cpg/sg65_18_cif.got.tgz:35363.got - 2010.06.03 17:01:31.
