data_PCOD9494954
_publ_section_title
;
Structure prediction by ZEFSAII (Michael W. Deem and Ramdas Pophale) SiO2 
 PCOD9494954
Probable space group: C C C M
;
_chemical_formula_sum "Si O2"
_cell_formula_units_Z 80
_cell_length_a 15.216409
_cell_length_b 18.443173
_cell_length_c 18.169766
_cell_angle_alpha 90.000000
_cell_angle_beta 90.000000
_cell_angle_gamma 90.000000
_cell_volume 5099.142483
_symmetry_space_group_name_H-M "C C C M"
_symmetry_group_IT_number 66
_symmetry_cell_setting 'orthorhombic'
loop_
_space_group_symop_operation_xyz
x,y,z
-x,-y,z
x,-y,1/2-z
-x,y,1/2-z
-x,-y,-z
x,y,-z
-x,y,1/2+z
x,-y,1/2+z
1/2+x,1/2+y,z
1/2-x,1/2-y,z
1/2+x,1/2-y,1/2-z
1/2-x,1/2+y,1/2-z
1/2-x,1/2-y,-z
1/2+x,1/2+y,-z
1/2-x,1/2+y,1/2+z
1/2+x,1/2-y,1/2+z
loop_
_atom_site_type_symbol
_atom_site_label
_atom_site_fract_x
_atom_site_fract_y
_atom_site_fract_z
Si Si1 0.549848 0.926496 0.173190
Si Si2 0.258296 0.078245 0.765410
Si Si3 0.662745 0.713218 0.168578
Si Si4 0.509831 0.214517 0.587055
Si Si5 0.831045 0.704900 0.675587
O O1 0.500000 0.903838 0.250000
O O2 0.651945 0.938557 0.190401
O O3 0.545545 0.863489 0.113762
O O4 0.500000 0.000000 0.150964
O O5 0.192803 0.132935 0.807612
O O6 0.295226 0.124634 0.695483
O O7 0.217363 0.000000 0.750000
O O8 0.750000 0.750000 0.133388
O O9 0.576785 0.725882 0.120338
O O10 0.851173 0.740973 0.244325
O O11 0.504780 0.220562 0.500000
O O12 0.414658 0.214608 0.624983
O O13 0.750000 0.750000 0.643963
#
# Coordination Sequence:
#
# PCOD9494954 Si02
#       5
#    16  16  16  16  16
#     4  11  17  29  52  74 104 135 170 209 259 309
#     4  10  16  29  54  79  97 126 171 225 264 297
#     4   9  18  32  51  72 100 134 175 212 246 307
#     4  12  21  31  48  73 111 143 169 205 257 323
#     4   9  18  33  54  72  93 130 176 224 254 292
#
# _framework density 15.688912
#
# number of rings (size 3 to 8) (size 9 to 14) (size 15 to 20)
#    0.000    2.200    8.000    0.600    0.000    1.200 
#    0.000    0.000    0.000   10.800    0.000    5.600 
#    0.000    0.000    0.000    0.000    0.000    0.000 
#
# Total GULP energy -222684.384670 kJ/mol
# GULP energy per Si atom -5567.109617 kJ/mol
# Density = 1.565320 g / cm^3
# Si number density = 15.688912 Si / 1000 Ang^3
#
#
#
# Elastic Constant Matrix: (Units=GPa)
#
#
# Indices 1 2 3 4 5 6 
#
# 1 76.7434 47.0723 39.5775 0.0000 0.0000 0.0000
# 2 47.0723 122.1326 25.6543 0.0000 0.0000 0.0000
# 3 39.5775 25.6543 60.8538 0.0000 0.0000 0.0000
# 4 0.0000 0.0000 0.0000 12.6694 0.0000 0.0000
# 5 0.0000 0.0000 0.0000 0.0000 3.9113 0.0000
# 6 0.0000 0.0000 0.0000 0.0000 0.0000 24.8170
#
#
#
# Elastic Compliance Matrix: (Units=1/GPa)
#
#
# Indices 1 2 3 4 5 6 
#
# 1 0.023415 -0.006392 -0.012534 0.000000 0.000000 0.000000
# 2 -0.006392 0.010728 -0.000366 0.000000 0.000000 0.000000
# 3 -0.012534 -0.000366 0.024738 0.000000 0.000000 0.000000
# 4 0.000000 0.000000 0.000000 0.078930 0.000000 0.000000
# 5 0.000000 0.000000 0.000000 0.000000 0.255670 0.000000
# 6 0.000000 0.000000 0.000000 0.000000 0.000000 0.040295
#
#
# Mechanical properties :
#
#
# Convention : Reuss Voigt Hill
#
# Bulk Modulus (GPa) = 49.26306 53.81533 51.53920
# Shear Modulus (GPa) = 10.43568 18.10792 14.27180
#
# Velocity S-wave (km/s) = 2.58187 3.40102 3.01935
# Velocity P-wave (km/s) = 6.35265 7.05681 6.71397
#
# Compressibility (1/GPa) = 0.02029918
#
# Stress axis : x y z
#
# Youngs Moduli (GPa) = 42.70814 93.21274 40.42286
#
# Poissons Ratio (x) = 0.59579 0.50665
# Poissons Ratio (y) = 0.27298 0.01478
# Poissons Ratio (z) = 0.53529 0.03409
#
# Static dielectric constant tensor:
#      x y z
#    x 1.551120 0.000000 0.000000 
#    y 0.000000 1.564710 0.000000 
#    z 0.000000 0.000000 1.513540 
# 
# From -- ./inp_files/40433.got.cif
#   From: 2010.05.17/outbox.cif.g08.bks.cpg/sg66_21_cif.got.tgz:40433.got - 2010.06.03 17:51:23.
