data_PCOD9494959
_publ_section_title
;
Structure prediction by ZEFSAII (Michael W. Deem and Ramdas Pophale) SiO2 
 PCOD9494959
Probable space group: C C C M
;
_chemical_formula_sum "Si O2"
_cell_formula_units_Z 56
_cell_length_a 25.015934
_cell_length_b 17.713043
_cell_length_c 5.520557
_cell_angle_alpha 90.000000
_cell_angle_beta 90.000000
_cell_angle_gamma 90.000000
_cell_volume 2446.204708
_symmetry_space_group_name_H-M "C C C M"
_symmetry_group_IT_number 66
_symmetry_cell_setting 'orthorhombic'
loop_
_space_group_symop_operation_xyz
x,y,z
-x,-y,z
x,-y,1/2-z
-x,y,1/2-z
-x,-y,-z
x,y,-z
-x,y,1/2+z
x,-y,1/2+z
1/2+x,1/2+y,z
1/2-x,1/2-y,z
1/2+x,1/2-y,1/2-z
1/2-x,1/2+y,1/2-z
1/2-x,1/2-y,-z
1/2+x,1/2+y,-z
1/2-x,1/2+y,1/2+z
1/2+x,1/2-y,1/2+z
loop_
_atom_site_type_symbol
_atom_site_label
_atom_site_fract_x
_atom_site_fract_y
_atom_site_fract_z
Si Si1 0.030141 0.798705 0.500000
Si Si2 0.798287 0.370065 0.000000
Si Si3 0.475225 0.914771 0.500000
Si Si4 0.140690 0.220547 0.000000
Si Si5 0.180311 0.811914 0.000000
Si Si6 0.061838 0.029034 0.000000
Si Si7 0.653138 0.889623 0.000000
O O1 0.081102 0.746336 0.500000
O O2 0.055309 0.882060 0.500000
O O3 0.000000 0.791128 0.750000
O O4 0.821603 0.410322 0.760346
O O5 0.814567 0.280245 0.000000
O O6 0.734504 0.359659 0.000000
O O7 0.500000 0.880850 0.250000
O O8 0.410205 0.912408 0.500000
O O9 0.500000 0.000000 0.500000
O O10 0.151291 0.175223 0.754839
O O11 0.171511 0.299759 0.000000
O O12 0.086593 0.000000 0.250000
O O13 0.000000 0.000000 0.000000
#
# Coordination Sequence:
#
# PCOD9494959 Si02
#       7
#     8   8   8   8   8   8   8
#     4  12  21  31  46  68 100 134 177 200 244 296
#     4   9  17  30  55  75  99 136 170 215 256 315
#     4  10  21  36  54  75 109 138 178 226 265 313
#     4  10  21  31  46  73 110 142 166 210 263 326
#     4   9  17  33  48  72 106 135 168 210 265 312
#     4  10  16  30  47  63  84 110 162 219 227 252
#     4  10  19  33  51  78 105 135 177 207 260 322
#
# _framework density 22.892607999999999
#
# number of rings (size 3 to 8) (size 9 to 14) (size 15 to 20)
#    0.000    2.000    2.857    2.571    0.000    4.571 
#    0.000    0.000    0.000    0.000    0.000    0.000 
#   85.714    0.000    0.000    0.000    0.000    0.000 
#
# Total GULP energy -155975.600892 kJ/mol
# GULP energy per Si atom -5570.557175 kJ/mol
# Density = 2.284050 g / cm^3
# Si number density = 22.892608 Si / 1000 Ang^3
#
#
#
# Elastic Constant Matrix: (Units=GPa)
#
#
# Indices 1 2 3 4 5 6 
#
# 1 126.7624 5.5404 104.1704 0.0000 0.0000 0.0000
# 2 5.5404 81.1037 13.9993 0.0000 0.0000 0.0000
# 3 104.1704 13.9993 314.5258 0.0000 0.0000 0.0000
# 4 0.0000 0.0000 0.0000 -8.1004 0.0000 0.0000
# 5 0.0000 0.0000 0.0000 0.0000 43.8114 0.0000
# 6 0.0000 0.0000 0.0000 0.0000 0.0000 19.3705
#
#
#
# Elastic Compliance Matrix: (Units=1/GPa)
#
#
# Indices 1 2 3 4 5 6 
#
# 1 0.010840 -0.000122 -0.003585 0.000000 0.000000 0.000000
# 2 -0.000122 0.012427 -0.000513 0.000000 0.000000 0.000000
# 3 -0.003585 -0.000513 0.004389 0.000000 0.000000 0.000000
# 4 0.000000 0.000000 0.000000 -0.123451 0.000000 0.000000
# 5 0.000000 0.000000 0.000000 0.000000 0.022825 0.000000
# 6 0.000000 0.000000 0.000000 0.000000 0.000000 0.051625
#
#
# Mechanical properties :
#
#
# Convention : Reuss Voigt Hill
#
# Bulk Modulus (GPa) = 52.03562 85.53467 68.78515
# Shear Modulus (GPa) = -769.14170 37.59509 -365.77331
#
# Velocity S-wave (km/s) = -18.34959 4.05685 -12.65404
# Velocity P-wave (km/s) = 20.64373 7.70640 13.54207
#
# Compressibility (1/GPa) = 0.01921760
#
# Stress axis : x y z
#
# Youngs Moduli (GPa) = 92.25122 80.47174 227.81746
#
# Poissons Ratio (x) = 0.00980 0.81667
# Poissons Ratio (y) = 0.01123 0.11682
# Poissons Ratio (z) = 0.33070 0.04126
#
# Static dielectric constant tensor:
#      x y z
#    x 1.808140 0.000000 0.000000 
#    y 0.000000 1.922990 0.000000 
#    z 0.000000 0.000000 1.804890 
# 
# From -- ./inp_files/1195.got.cif
#   From: 2010.05.17/outbox.cif.g08.bks.cpg/sg66_1_cif.got.tgz:1195.got - 2010.06.03 17:51:23.
