data_PCOD9494068
_publ_section_title
;
Structure prediction by ZEFSAII (Michael W. Deem and Ramdas Pophale) SiO2 
 PCOD9494068
Probable space group: C M M M
;
_chemical_formula_sum "Si O2"
_cell_formula_units_Z 66
_cell_length_a 23.993593
_cell_length_b 9.117708
_cell_length_c 15.120961
_cell_angle_alpha 90.000000
_cell_angle_beta 90.000000
_cell_angle_gamma 90.000000
_cell_volume 3307.960846
_symmetry_space_group_name_H-M "C M M M"
_symmetry_group_IT_number 65
_symmetry_cell_setting 'orthorhombic'
loop_
_space_group_symop_operation_xyz
x,y,z
-x,-y,z
x,-y,-z
-x,y,-z
-x,-y,-z
x,y,-z
-x,y,z
x,-y,z
1/2+x,1/2+y,z
1/2-x,1/2-y,z
1/2+x,1/2-y,-z
1/2-x,1/2+y,-z
1/2-x,1/2-y,-z
1/2+x,1/2+y,-z
1/2-x,1/2+y,z
1/2+x,1/2-y,z
loop_
_atom_site_type_symbol
_atom_site_label
_atom_site_fract_x
_atom_site_fract_y
_atom_site_fract_z
Si Si1 0.878997 0.835528 0.104549
Si Si2 0.384258 0.326961 0.398342
Si Si3 0.500000 0.000000 0.000000
Si Si4 0.500000 0.247083 0.847289
Si Si5 0.500000 0.170892 0.357465
Si Si6 0.310135 0.825207 0.751023
O O1 0.844388 0.720032 0.161336
O O2 0.942574 0.833203 0.138198
O O3 0.856056 0.000000 0.118059
O O4 0.878278 0.803006 0.000000
O O5 0.365197 0.314412 0.500000
O O6 0.387323 0.500000 0.375649
O O7 0.445027 0.253927 0.390416
O O8 0.344029 0.243330 0.331019
O O9 0.500000 0.125382 0.077313
O O10 0.500000 0.181916 0.749040
O O11 0.500000 0.000000 0.383541
O O12 0.250000 0.750000 0.754843
O O13 0.306077 0.000000 0.743105
#
# Coordination Sequence:
#
# PCOD9494068 Si02
#       6
#    16  16   2   8   8  16
#     4  11  24  42  67  98 135 175 220 269 328 392
#     4  11  25  45  70  99 134 174 216 270 335 399
#     4  12  24  36  58 104 150 172 234 260 324 394
#     4  12  23  36  64  97 139 178 214 266 322 388
#     4  12  24  38  64 103 139 176 217 264 331 388
#     4  12  27  46  70  96 129 172 223 276 331 390
#
# _framework density 19.951868000000001
#
# number of rings (size 3 to 8) (size 9 to 14) (size 15 to 20)
#    0.000    0.485    4.242    4.000    1.697    6.788 
#    0.000    0.000    0.000    0.000    0.000    0.000 
#    0.000    0.000    0.000    0.000    0.000    0.000 
#
# Total GULP energy -184382.903665 kJ/mol
# GULP energy per Si atom -5587.360717 kJ/mol
# Density = 1.990646 g / cm^3
# Si number density = 19.951868 Si / 1000 Ang^3
#
#
#
# Elastic Constant Matrix: (Units=GPa)
#
#
# Indices 1 2 3 4 5 6 
#
# 1 133.0585 67.5282 36.7535 0.0000 0.0000 0.0000
# 2 67.5282 189.8183 59.2338 0.0000 0.0000 0.0000
# 3 36.7535 59.2338 105.8904 0.0000 0.0000 0.0000
# 4 0.0000 0.0000 0.0000 65.1704 0.0000 0.0000
# 5 0.0000 0.0000 0.0000 0.0000 -74.6999 0.0000
# 6 0.0000 0.0000 0.0000 0.0000 0.0000 -50.8171
#
#
#
# Elastic Compliance Matrix: (Units=1/GPa)
#
#
# Indices 1 2 3 4 5 6 
#
# 1 0.009414 -0.002822 -0.001689 0.000000 0.000000 0.000000
# 2 -0.002822 0.007228 -0.003064 0.000000 0.000000 0.000000
# 3 -0.001689 -0.003064 0.011744 0.000000 0.000000 0.000000
# 4 0.000000 0.000000 0.000000 0.015344 0.000000 0.000000
# 5 0.000000 0.000000 0.000000 0.000000 -0.013387 0.000000
# 6 0.000000 0.000000 0.000000 0.000000 0.000000 -0.019678
#
#
# Mechanical properties :
#
#
# Convention : Reuss Voigt Hill
#
# Bulk Modulus (GPa) = 75.54864 83.97759 79.76311
# Shear Modulus (GPa) = 165.41259 5.61412 85.51336
#
# Velocity S-wave (km/s) = 9.11514 1.67927 6.55384
# Velocity P-wave (km/s) = 12.19544 6.77801 9.86585
#
# Compressibility (1/GPa) = 0.01323651
#
# Stress axis : x y z
#
# Youngs Moduli (GPa) = 106.22199 138.34581 85.15100
#
# Poissons Ratio (x) = 0.39042 0.14382
# Poissons Ratio (y) = 0.29977 0.26089
# Poissons Ratio (z) = 0.17940 0.42388
#
# Static dielectric constant tensor:
#      x y z
#    x 1.685330 0.000000 0.000000 
#    y 0.000000 1.684470 0.000000 
#    z 0.000000 0.000000 1.689050 
# 
# From -- ./inp_files/45137.got.cif
#   From: 2010.05.17/outbox.cif.g08.bks.cpg/sg65_23_cif.got.tgz:45137.got - 2010.06.03 17:01:31.
