data_PCOD9494246
_publ_section_title
;
Structure prediction by ZEFSAII (Michael W. Deem and Ramdas Pophale) SiO2 
 PCOD9494246
Probable space group: C M M M
;
_chemical_formula_sum "Si O2"
_cell_formula_units_Z 80
_cell_length_a 14.485823
_cell_length_b 7.164228
_cell_length_c 28.764629
_cell_angle_alpha 90.000000
_cell_angle_beta 90.000000
_cell_angle_gamma 90.000000
_cell_volume 2985.185683
_symmetry_space_group_name_H-M "C M M M"
_symmetry_group_IT_number 65
_symmetry_cell_setting 'orthorhombic'
loop_
_space_group_symop_operation_xyz
x,y,z
-x,-y,z
x,-y,-z
-x,y,-z
-x,-y,-z
x,y,-z
-x,y,z
x,-y,z
1/2+x,1/2+y,z
1/2-x,1/2-y,z
1/2+x,1/2-y,-z
1/2-x,1/2+y,-z
1/2-x,1/2-y,-z
1/2+x,1/2+y,-z
1/2-x,1/2+y,z
1/2+x,1/2-y,z
loop_
_atom_site_type_symbol
_atom_site_label
_atom_site_fract_x
_atom_site_fract_y
_atom_site_fract_z
Si Si1 0.109127 0.273471 0.249289
Si Si2 0.140785 0.720934 0.549895
Si Si3 0.110564 0.724779 0.850389
Si Si4 0.889407 0.724748 0.049877
Si Si5 0.390374 0.789521 0.651911
O O1 0.115300 0.500000 0.250718
O O2 0.147553 0.208769 0.199527
O O3 0.145268 0.206817 0.299429
O O4 0.000000 0.227540 0.247325
O O5 0.104285 0.791279 0.500000
O O6 0.117606 0.500000 0.550903
O O7 0.250000 0.750000 0.547501
O O8 0.117412 0.796974 0.600830
O O9 0.119884 0.500000 0.850242
O O10 0.146699 0.793365 0.900250
O O11 0.000000 0.761766 0.850624
O O12 0.879545 0.500000 0.049905
O O13 0.000000 0.760995 0.049842
O O14 0.853384 0.793434 0.000000
O O15 0.500000 0.804803 0.659179
O O16 0.350676 0.000000 0.647868
#
# Coordination Sequence:
#
# PCOD9494246 Si02
#       5
#    16  16  16  16  16
#     4   7   9  13  21  34  52  71  91 120 159 196
#     4   9  17  28  41  56  74  96 119 142 170 206
#     4   7   8   9  13  21  35  57  83 111 146 184
#     4   7   8   8   9  14  26  47  78 113 142 169
#     4   8  13  21  34  52  70  86 109 143 176 202
#
# _framework density 26.799002000000002
#
# number of rings (size 3 to 8) (size 9 to 14) (size 15 to 20)
#    0.000    4.400    0.000    4.200    0.000    0.400 
#    0.000    2.000    0.000    0.600    0.000    2.800 
#    0.000    0.000    0.000    0.000    0.000    1.000 
#
# Total GULP energy -222848.782985 kJ/mol
# GULP energy per Si atom -5571.219575 kJ/mol
# Density = 2.673801 g / cm^3
# Si number density = 26.799002 Si / 1000 Ang^3
#
#
#
# Elastic Constant Matrix: (Units=GPa)
#
#
# Indices 1 2 3 4 5 6 
#
# 1 89.3633 -8.2603 13.5117 0.0000 0.0000 0.0000
# 2 -8.2603 146.0501 25.9298 0.0000 0.0000 0.0000
# 3 13.5117 25.9298 446.3338 0.0000 0.0000 0.0000
# 4 0.0000 0.0000 0.0000 -72.6485 0.0000 0.0000
# 5 0.0000 0.0000 0.0000 0.0000 68.9426 0.0000
# 6 0.0000 0.0000 0.0000 0.0000 0.0000 -7.8550
#
#
#
# Elastic Compliance Matrix: (Units=1/GPa)
#
#
# Indices 1 2 3 4 5 6 
#
# 1 0.011314 0.000708 -0.000384 0.000000 0.000000 0.000000
# 2 0.000708 0.006963 -0.000426 0.000000 0.000000 0.000000
# 3 -0.000384 -0.000426 0.002277 0.000000 0.000000 0.000000
# 4 0.000000 0.000000 0.000000 -0.013765 0.000000 0.000000
# 5 0.000000 0.000000 0.000000 0.000000 0.014505 0.000000
# 6 0.000000 0.000000 0.000000 0.000000 0.000000 -0.127307
#
#
# Mechanical properties :
#
#
# Convention : Reuss Voigt Hill
#
# Bulk Modulus (GPa) = 49.13993 82.67884 65.90938
# Shear Modulus (GPa) = -50.49108 41.05888 -4.71610
#
# Velocity S-wave (km/s) = -4.34529 3.91846 -1.32802
# Velocity P-wave (km/s) = 2.60751 7.16874 4.72185
#
# Compressibility (1/GPa) = 0.02035005
#
# Stress axis : x y z
#
# Youngs Moduli (GPa) = 88.38828 143.62394 439.20649
#
# Poissons Ratio (x) = -0.10168 0.16849
# Poissons Ratio (y) = -0.06258 0.18707
# Poissons Ratio (z) = 0.03391 0.06117
#
# Static dielectric constant tensor:
#      x y z
#    x 2.085430 0.000000 0.000000 
#    y 0.000000 2.033630 0.000000 
#    z 0.000000 0.000000 2.202650 
# 
# From -- ./inp_files/76399.got.cif
#   From: 2010.05.17/outbox.cif.g08.bks.cpg/sg65_39_cif.got.tgz:76399.got - 2010.06.03 17:01:31.
