data_PCOD9494604
_publ_section_title
;
Structure prediction by ZEFSAII (Michael W. Deem and Ramdas Pophale) SiO2 
 PCOD9494604
Probable space group: C M M M
;
_chemical_formula_sum "Si O2"
_cell_formula_units_Z 44
_cell_length_a 21.000000
_cell_length_b 24.000000
_cell_length_c 9.000000
_cell_angle_alpha 90.000000
_cell_angle_beta 90.000000
_cell_angle_gamma 90.000000
_cell_volume 4536.000000
_symmetry_space_group_name_H-M "C M M M"
_symmetry_group_IT_number 65
_symmetry_cell_setting 'orthorhombic'
loop_
_space_group_symop_operation_xyz
x,y,z
-x,-y,z
x,-y,-z
-x,y,-z
-x,-y,-z
x,y,-z
-x,y,z
x,-y,z
1/2+x,1/2+y,z
1/2-x,1/2-y,z
1/2+x,1/2-y,-z
1/2-x,1/2+y,-z
1/2-x,1/2-y,-z
1/2+x,1/2+y,-z
1/2-x,1/2+y,z
1/2+x,1/2-y,z
loop_
_atom_site_type_symbol
_atom_site_label
_atom_site_fract_x
_atom_site_fract_y
_atom_site_fract_z
Si Si1 0.257978 0.907162 0.175074
Si Si2 0.626745 0.433376 0.665626
Si Si3 0.500000 0.431782 0.830119
Si Si4 0.302458 0.797805 0.329686
Si Si5 0.071406 0.314582 0.178968
Si Si6 0.897633 0.559425 0.820066
O O1 0.193305 0.923597 0.254329
O O2 0.275342 0.844808 0.221252
O O3 0.322512 0.939370 0.217136
O O4 0.249438 0.913569 0.000000
O O5 0.629174 0.409796 0.500000
O O6 0.618835 0.500000 0.656045
O O7 0.564476 0.412439 0.751017
O O8 0.500000 0.500000 0.828137
O O9 0.500000 0.414148 0.000000
O O10 0.309188 0.818257 0.500000
O O11 0.250000 0.750000 0.330316
O O12 0.372093 0.783599 0.265058
O O13 0.075423 0.380381 0.225083
O O14 0.000000 0.294391 0.208923
O O15 0.082154 0.312332 0.000000
O O16 0.924363 0.500000 0.766645
O O17 0.903565 0.559375 0.000000
#
# Coordination Sequence:
#
# PCOD9494604 Si02
#       6
#    16  16   8  16  16  16
#     4  10  19  31  50  75 101 131 170 216 260 308
#     4  10  19  30  46  70 102 137 170 208 257 310
#     4   9  17  29  45  65  91 129 175 213 247 297
#     4  10  21  37  57  78 100 130 172 220 271 327
#     4   9  18  32  52  80 110 140 175 213 256 309
#     4   8  14  25  43  71 106 139 170 203 239 283
#
# _framework density 9.7001760000000008
#
# number of rings (size 3 to 8) (size 9 to 14) (size 15 to 20)
#    0.000    2.636    0.000    3.545    0.000    5.091 
#    0.000    1.818    2.000    4.909    0.000    5.091 
#    0.000    0.000    0.000    0.000    0.000    0.000 
#
# Total GULP energy -245101.642140 kJ/mol
# GULP energy per Si atom -5570.491867 kJ/mol
# Density = 0.967810 g / cm^3
# Si number density = 9.700176 Si / 1000 Ang^3
#
#
#
# Elastic Constant Matrix: (Units=GPa)
#
#
# Indices 1 2 3 4 5 6 
#
# 1 146.7676 8.6196 64.2820 0.0000 0.0000 0.0000
# 2 8.6196 14.3967 -3.4608 0.0000 0.0000 0.0000
# 3 64.2820 -3.4608 59.7404 0.0000 0.0000 0.0000
# 4 0.0000 0.0000 0.0000 16.5860 0.0000 0.0000
# 5 0.0000 0.0000 0.0000 0.0000 -18.6182 0.0000
# 6 0.0000 0.0000 0.0000 0.0000 0.0000 13.4064
#
#
#
# Elastic Compliance Matrix: (Units=1/GPa)
#
#
# Indices 1 2 3 4 5 6 
#
# 1 0.014955 -0.013003 -0.016845 0.000000 0.000000 0.000000
# 2 -0.013003 0.081748 0.018728 0.000000 0.000000 0.000000
# 3 -0.016845 0.018728 0.035950 0.000000 0.000000 0.000000
# 4 0.000000 0.000000 0.000000 0.060292 0.000000 0.000000
# 5 0.000000 0.000000 0.000000 0.000000 -0.053711 0.000000
# 6 0.000000 0.000000 0.000000 0.000000 0.000000 0.074591
#
#
# Mechanical properties :
#
#
# Convention : Reuss Voigt Hill
#
# Bulk Modulus (GPa) = 9.05710 39.97627 24.51668
# Shear Modulus (GPa) = 18.32366 12.37243 15.34804
#
# Velocity S-wave (km/s) = 3.07661 2.52810 2.81574
# Velocity P-wave (km/s) = 4.15925 5.40115 4.82036
#
# Compressibility (1/GPa) = 0.11041058
#
# Stress axis : x y z
#
# Youngs Moduli (GPa) = 66.86617 12.23275 27.81632
#
# Poissons Ratio (x) = 0.15907 0.46858
# Poissons Ratio (y) = 0.86949 -0.52093
# Poissons Ratio (z) = 1.12639 -0.22909
#
# Static dielectric constant tensor:
#      x y z
#    x 1.699110 0.000000 0.000000 
#    y 0.000000 1.723650 0.000000 
#    z 0.000000 0.000000 1.675150 
# 
# From -- ./inp_files/11823.got.cif
#   From: 2010.05.17/outbox.ucp.g08.bks.cvg/sg65_6_cif.got.tgz:11823.got - 2010.06.11 16:39:57.
