data_PCOD9494950
_publ_section_title
;
Structure prediction by ZEFSAII (Michael W. Deem and Ramdas Pophale) SiO2 
 PCOD9494950
Probable space group: C C C M
;
_chemical_formula_sum "Si O2"
_cell_formula_units_Z 64
_cell_length_a 23.102190
_cell_length_b 7.887818
_cell_length_c 14.635887
_cell_angle_alpha 90.000000
_cell_angle_beta 90.000000
_cell_angle_gamma 90.000000
_cell_volume 2667.037244
_symmetry_space_group_name_H-M "C C C M"
_symmetry_group_IT_number 66
_symmetry_cell_setting 'orthorhombic'
loop_
_space_group_symop_operation_xyz
x,y,z
-x,-y,z
x,-y,1/2-z
-x,y,1/2-z
-x,-y,-z
x,y,-z
-x,y,1/2+z
x,-y,1/2+z
1/2+x,1/2+y,z
1/2-x,1/2-y,z
1/2+x,1/2-y,1/2-z
1/2-x,1/2+y,1/2-z
1/2-x,1/2-y,-z
1/2+x,1/2+y,-z
1/2-x,1/2+y,1/2+z
1/2+x,1/2-y,1/2+z
loop_
_atom_site_type_symbol
_atom_site_label
_atom_site_fract_x
_atom_site_fract_y
_atom_site_fract_z
Si Si1 0.837624 0.597252 0.104053
Si Si2 0.214591 0.972059 0.642501
Si Si3 0.406606 0.568612 0.102488
Si Si4 0.064560 0.730937 0.720936
O O1 0.806642 0.780318 0.119950
O O2 0.780726 0.482751 0.119321
O O3 0.892593 0.600559 0.170345
O O4 0.857320 0.582249 0.000000
O O5 0.208498 0.000000 0.750000
O O6 0.162827 0.068120 0.594587
O O7 0.414060 0.706678 0.180762
O O8 0.431708 0.395194 0.150737
O O9 0.430689 0.591149 0.000000
O O10 0.000000 0.681752 0.750000
#
# Coordination Sequence:
#
# PCOD9494950 Si02
#       4
#    16  16  16  16
#     4  10  19  32  51  76  99 135 175 202 242 302
#     4  10  16  29  50  74 101 126 158 211 249 289
#     4  10  17  28  46  72  99 129 161 201 257 308
#     4  10  19  30  44  70 101 132 167 202 243 295
#
# _framework density 23.996666000000001
#
# number of rings (size 3 to 8) (size 9 to 14) (size 15 to 20)
#    0.000    2.000    5.000    6.750    0.000    3.000 
#    0.000    0.000    0.000    6.750    0.000    1.750 
#    0.000    0.000    0.000    0.000    0.000    0.000 
#
# Total GULP energy -178345.857483 kJ/mol
# GULP energy per Si atom -5573.308046 kJ/mol
# Density = 2.394205 g / cm^3
# Si number density = 23.996666 Si / 1000 Ang^3
#
#
#
# Elastic Constant Matrix: (Units=GPa)
#
#
# Indices 1 2 3 4 5 6 
#
# 1 214.5820 18.9560 67.5425 0.0000 0.0000 0.0000
# 2 18.9560 42.8593 27.2715 0.0000 0.0000 0.0000
# 3 67.5425 27.2715 252.3288 0.0000 0.0000 0.0000
# 4 0.0000 0.0000 0.0000 8.4566 0.0000 0.0000
# 5 0.0000 0.0000 0.0000 0.0000 -19.7488 0.0000
# 6 0.0000 0.0000 0.0000 0.0000 0.0000 -1.4724
#
#
#
# Elastic Compliance Matrix: (Units=1/GPa)
#
#
# Indices 1 2 3 4 5 6 
#
# 1 0.005179 -0.001512 -0.001223 0.000000 0.000000 0.000000
# 2 -0.001512 0.025497 -0.002351 0.000000 0.000000 0.000000
# 3 -0.001223 -0.002351 0.004544 0.000000 0.000000 0.000000
# 4 0.000000 0.000000 0.000000 0.118251 0.000000 0.000000
# 5 0.000000 0.000000 0.000000 0.000000 -0.050636 0.000000
# 6 0.000000 0.000000 0.000000 0.000000 0.000000 -0.679160
#
#
# Mechanical properties :
#
#
# Convention : Reuss Voigt Hill
#
# Bulk Modulus (GPa) = 39.92323 81.92334 60.92329
# Shear Modulus (GPa) = -8.96374 23.84707 7.44167
#
# Velocity S-wave (km/s) = -1.93482 3.15583 1.76291
# Velocity P-wave (km/s) = 3.41786 6.89148 5.43941
#
# Compressibility (1/GPa) = 0.02504807
#
# Stress axis : x y z
#
# Youngs Moduli (GPa) = 193.09833 39.22036 220.04798
#
# Poissons Ratio (x) = 0.05932 0.26907
# Poissons Ratio (y) = 0.29205 0.51730
# Poissons Ratio (z) = 0.23611 0.09220
#
# Static dielectric constant tensor:
#      x y z
#    x 2.236360 0.000000 0.000000 
#    y 0.000000 2.047060 0.000000 
#    z 0.000000 0.000000 1.832200 
# 
# From -- ./inp_files/19515.got.cif
#   From: 2010.05.17/outbox.cif.g08.bks.cpg/sg66_10_cif.got.tgz:19515.got - 2010.06.03 17:51:23.
