data_PCOD9494211
_publ_section_title
;
Structure prediction by ZEFSAII (Michael W. Deem and Ramdas Pophale) SiO2 
 PCOD9494211
Probable space group: C M M M
;
_chemical_formula_sum "Si O2"
_cell_formula_units_Z 88
_cell_length_a 7.358222
_cell_length_b 14.603953
_cell_length_c 31.611282
_cell_angle_alpha 90.000000
_cell_angle_beta 90.000000
_cell_angle_gamma 90.000000
_cell_volume 3396.920807
_symmetry_space_group_name_H-M "C M M M"
_symmetry_group_IT_number 65
_symmetry_cell_setting 'orthorhombic'
loop_
_space_group_symop_operation_xyz
x,y,z
-x,-y,z
x,-y,-z
-x,y,-z
-x,-y,-z
x,y,-z
-x,y,z
x,-y,z
1/2+x,1/2+y,z
1/2-x,1/2-y,z
1/2+x,1/2-y,-z
1/2-x,1/2+y,-z
1/2-x,1/2-y,-z
1/2+x,1/2+y,-z
1/2-x,1/2+y,z
1/2+x,1/2-y,z
loop_
_atom_site_type_symbol
_atom_site_label
_atom_site_fract_x
_atom_site_fract_y
_atom_site_fract_z
Si Si1 0.784385 0.104922 0.091483
Si Si2 0.717579 0.359881 0.545564
Si Si3 0.785947 0.396247 0.000000
Si Si4 0.718984 0.609702 0.181203
Si Si5 0.706152 0.391138 0.270956
Si Si6 0.783525 0.857851 0.363585
O O1 0.713683 0.146059 0.135754
O O2 0.000000 0.099093 0.097419
O O3 0.713369 0.000000 0.087901
O O4 0.759639 0.147200 0.045222
O O5 0.786465 0.393872 0.500000
O O6 0.500000 0.374534 0.545753
O O7 0.750000 0.250000 0.545228
O O8 0.785733 0.394525 0.591159
O O9 0.704497 0.500000 0.000000
O O10 0.000000 0.403969 0.000000
O O11 0.500000 0.621457 0.184079
O O12 0.752475 0.500000 0.178296
O O13 0.790353 0.643184 0.226755
O O14 0.500000 0.352538 0.274356
O O15 0.691351 0.500000 0.264749
O O16 0.791421 0.381712 0.317304
O O17 0.750000 0.750000 0.366286
O O18 0.000000 0.879348 0.362490
#
# Coordination Sequence:
#
# PCOD9494211 Si02
#       6
#    16  16   8  16  16  16
#     4   8  12  18  28  40  54  75 105 139 172 204
#     4   8  13  21  33  50  72  96 122 151 182 218
#     4   9  15  19  23  35  57  83 108 135 168 205
#     4   7  10  17  30  47  63  80 109 149 182 207
#     4   8  13  22  37  56  75  96 126 160 190 222
#     4   9  16  25  39  58  78 100 125 156 192 226
#
# _framework density 25.905812999999998
#
# number of rings (size 3 to 8) (size 9 to 14) (size 15 to 20)
#    0.000    3.909    0.000    2.455    0.000    1.091 
#    0.000    0.000    0.000    2.182    0.000    6.364 
#    0.000    0.000    0.000   30.273    0.000   22.364 
#
# Total GULP energy -244973.749403 kJ/mol
# GULP energy per Si atom -5567.585214 kJ/mol
# Density = 2.584685 g / cm^3
# Si number density = 25.905813 Si / 1000 Ang^3
#
#
#
# Elastic Constant Matrix: (Units=GPa)
#
#
# Indices 1 2 3 4 5 6 
#
# 1 104.9065 -9.9402 16.6600 0.0000 0.0000 0.0000
# 2 -9.9402 82.5285 16.6114 0.0000 0.0000 0.0000
# 3 16.6600 16.6114 421.6991 0.0000 0.0000 0.0000
# 4 0.0000 0.0000 0.0000 8.0921 0.0000 0.0000
# 5 0.0000 0.0000 0.0000 0.0000 122.8080 0.0000
# 6 0.0000 0.0000 0.0000 0.0000 0.0000 -11.1204
#
#
#
# Elastic Compliance Matrix: (Units=1/GPa)
#
#
# Indices 1 2 3 4 5 6 
#
# 1 0.009720 0.001258 -0.000434 0.000000 0.000000 0.000000
# 2 0.001258 0.012377 -0.000537 0.000000 0.000000 0.000000
# 3 -0.000434 -0.000537 0.002410 0.000000 0.000000 0.000000
# 4 0.000000 0.000000 0.000000 0.123577 0.000000 0.000000
# 5 0.000000 0.000000 0.000000 0.000000 0.008143 0.000000
# 6 0.000000 0.000000 0.000000 0.000000 0.000000 -0.089924
#
#
# Mechanical properties :
#
#
# Convention : Reuss Voigt Hill
#
# Bulk Modulus (GPa) = 39.87059 72.86628 56.36843
# Shear Modulus (GPa) = 67.48770 63.00945 65.24858
#
# Velocity S-wave (km/s) = 5.10957 4.93714 5.02409
# Velocity P-wave (km/s) = 7.08762 7.79031 7.44725
#
# Compressibility (1/GPa) = 0.02508115
#
# Stress axis : x y z
#
# Youngs Moduli (GPa) = 102.87687 80.79709 414.99784
#
# Poissons Ratio (x) = -0.10165 0.17993
# Poissons Ratio (y) = -0.12942 0.22295
# Poissons Ratio (z) = 0.04461 0.04341
#
# Static dielectric constant tensor:
#      x y z
#    x 1.830900 0.000000 0.000000 
#    y 0.000000 2.206740 0.000000 
#    z 0.000000 0.000000 2.194250 
# 
# From -- ./inp_files/76764.got.cif
#   From: 2010.05.17/outbox.cif.g08.bks.cpg/sg65_39_cif.got.tgz:76764.got - 2010.06.03 17:01:31.
