data_PCOD9494240
_publ_section_title
;
Structure prediction by ZEFSAII (Michael W. Deem and Ramdas Pophale) SiO2 
 PCOD9494240
Probable space group: C M M M
;
_chemical_formula_sum "Si O2"
_cell_formula_units_Z 80
_cell_length_a 7.194200
_cell_length_b 14.543548
_cell_length_c 28.802407
_cell_angle_alpha 90.000000
_cell_angle_beta 90.000000
_cell_angle_gamma 90.000000
_cell_volume 3013.572601
_symmetry_space_group_name_H-M "C M M M"
_symmetry_group_IT_number 65
_symmetry_cell_setting 'orthorhombic'
loop_
_space_group_symop_operation_xyz
x,y,z
-x,-y,z
x,-y,-z
-x,y,-z
-x,-y,-z
x,y,-z
-x,y,z
x,-y,z
1/2+x,1/2+y,z
1/2-x,1/2-y,z
1/2+x,1/2-y,-z
1/2-x,1/2+y,-z
1/2-x,1/2-y,-z
1/2+x,1/2+y,-z
1/2-x,1/2+y,z
1/2+x,1/2-y,z
loop_
_atom_site_type_symbol
_atom_site_label
_atom_site_fract_x
_atom_site_fract_y
_atom_site_fract_z
Si Si1 0.725709 0.608751 0.599519
Si Si2 0.223960 0.110144 0.500000
Si Si3 0.720071 0.358611 0.199936
Si Si4 0.710058 0.390610 0.301776
Si Si5 0.721385 0.360695 0.100136
Si Si6 0.278784 0.639384 0.000000
O O1 0.500000 0.614865 0.600877
O O2 0.771299 0.500000 0.597686
O O3 0.790205 0.647129 0.549828
O O4 0.792351 0.644757 0.649571
O O5 0.000000 0.118942 0.500000
O O6 0.261397 0.000000 0.500000
O O7 0.500000 0.381919 0.201265
O O8 0.750000 0.250000 0.196810
O O9 0.796292 0.381474 0.250837
O O10 0.791298 0.394723 0.150234
O O11 0.500000 0.351559 0.298025
O O12 0.695759 0.500000 0.308606
O O13 0.500000 0.377157 0.100409
O O14 0.750000 0.250000 0.099689
O O15 0.792177 0.393854 0.050065
O O16 0.250000 0.750000 0.000000
O O17 0.500000 0.622344 0.000000
#
# Coordination Sequence:
#
# PCOD9494240 Si02
#       6
#    16   8  16  16  16   8
#     4   7   9  13  22  38  60  83 106 134 168 202
#     4   7   8  10  18  34  57  82 103 127 166 207
#     4   9  16  25  37  53  72  93 117 144 173 205
#     4   8  13  21  33  49  68  90 117 146 172 201
#     4   8  13  20  30  45  64  85 108 135 167 200
#     4   8  12  18  28  42  61  83 105 131 165 200
#
# _framework density 26.546565999999999
#
# number of rings (size 3 to 8) (size 9 to 14) (size 15 to 20)
#    0.000    4.100    0.000    2.400    0.000    0.000 
#    0.000    0.000    0.000    0.600    0.000    1.400 
#    0.000    5.600    0.000    0.000    0.000  201.800 
#
# Total GULP energy -222826.189484 kJ/mol
# GULP energy per Si atom -5570.654737 kJ/mol
# Density = 2.648614 g / cm^3
# Si number density = 26.546566 Si / 1000 Ang^3
#
#
#
# Elastic Constant Matrix: (Units=GPa)
#
#
# Indices 1 2 3 4 5 6 
#
# 1 142.2687 -10.3659 25.2817 0.0000 0.0000 0.0000
# 2 -10.3659 89.6110 16.7028 0.0000 0.0000 0.0000
# 3 25.2817 16.7028 449.6769 0.0000 0.0000 0.0000
# 4 0.0000 0.0000 0.0000 12.5237 0.0000 0.0000
# 5 0.0000 0.0000 0.0000 0.0000 -31.5909 0.0000
# 6 0.0000 0.0000 0.0000 0.0000 0.0000 -13.9353
#
#
#
# Elastic Compliance Matrix: (Units=1/GPa)
#
#
# Indices 1 2 3 4 5 6 
#
# 1 0.007173 0.000911 -0.000437 0.000000 0.000000 0.000000
# 2 0.000911 0.011353 -0.000473 0.000000 0.000000 0.000000
# 3 -0.000437 -0.000473 0.002266 0.000000 0.000000 0.000000
# 4 0.000000 0.000000 0.000000 0.079849 0.000000 0.000000
# 5 0.000000 0.000000 0.000000 0.000000 -0.031655 0.000000
# 6 0.000000 0.000000 0.000000 0.000000 0.000000 -0.071760
#
#
# Mechanical properties :
#
#
# Convention : Reuss Voigt Hill
#
# Bulk Modulus (GPa) = 48.09026 82.75487 65.42256
# Shear Modulus (GPa) = 1203.46588 36.72869 620.09729
#
# Velocity S-wave (km/s) = 21.31492 3.72366 15.30018
# Velocity P-wave (km/s) = 24.97844 7.05185 18.35280
#
# Compressibility (1/GPa) = 0.02079423
#
# Stress axis : x y z
#
# Youngs Moduli (GPa) = 139.41117 88.08326 441.31376
#
# Poissons Ratio (x) = -0.08026 0.19291
# Poissons Ratio (y) = -0.12703 0.20871
# Poissons Ratio (z) = 0.06094 0.04166
#
# Static dielectric constant tensor:
#      x y z
#    x 1.999450 0.000000 0.000000 
#    y 0.000000 2.106480 0.000000 
#    z 0.000000 0.000000 2.184430 
# 
# From -- ./inp_files/74442.got.cif
#   From: 2010.05.17/outbox.cif.g08.bks.cpg/sg65_38_cif.got.tgz:74442.got - 2010.06.03 17:01:31.
