data_PCOD9494422
_publ_section_title
;
Structure prediction by ZEFSAII (Michael W. Deem and Ramdas Pophale) SiO2 
 PCOD9494422
Probable space group: C M M M
;
_chemical_formula_sum "Si O2"
_cell_formula_units_Z 112
_cell_length_a 14.499307
_cell_length_b 10.983028
_cell_length_c 33.764406
_cell_angle_alpha 90.000000
_cell_angle_beta 90.000000
_cell_angle_gamma 90.000000
_cell_volume 5376.856550
_symmetry_space_group_name_H-M "C M M M"
_symmetry_group_IT_number 65
_symmetry_cell_setting 'orthorhombic'
loop_
_space_group_symop_operation_xyz
x,y,z
-x,-y,z
x,-y,-z
-x,y,-z
-x,-y,-z
x,y,-z
-x,y,z
x,-y,z
1/2+x,1/2+y,z
1/2-x,1/2-y,z
1/2+x,1/2-y,-z
1/2-x,1/2+y,-z
1/2-x,1/2-y,-z
1/2+x,1/2+y,-z
1/2-x,1/2+y,z
1/2+x,1/2-y,z
loop_
_atom_site_type_symbol
_atom_site_label
_atom_site_fract_x
_atom_site_fract_y
_atom_site_fract_z
Si Si1 0.387675 0.635807 0.729267
Si Si2 0.608216 0.866453 0.869887
Si Si3 0.320816 0.137873 0.043552
Si Si4 0.646367 0.631663 0.547244
Si Si5 0.388233 0.863415 0.324024
Si Si6 0.887465 0.135542 0.820956
Si Si7 0.649000 0.868075 0.415052
O O1 0.500000 0.636153 0.728932
O O2 0.359103 0.500000 0.715310
O O3 0.358717 0.750912 0.703208
O O4 0.359413 0.649723 0.775095
O O5 0.500000 0.870810 0.860458
O O6 0.618744 0.852242 0.917113
O O7 0.645218 0.748287 0.847306
O O8 0.647191 0.000000 0.858880
O O9 0.250000 0.250000 0.045259
O O10 0.279074 0.000000 0.045241
O O11 0.366973 0.145529 0.000000
O O12 0.651728 0.645143 0.500000
O O13 0.603991 0.500000 0.556032
O O14 0.602323 0.750417 0.566220
O O15 0.749465 0.627108 0.565477
O O16 0.500000 0.857163 0.328276
O O17 0.346585 0.852919 0.367865
O O18 0.367381 0.000000 0.308420
O O19 0.000000 0.136354 0.821437
O O20 0.860089 0.000000 0.834801
O O21 0.605724 0.000000 0.422759
#
# Coordination Sequence:
#
# PCOD9494422 Si02
#       7
#    16  16  16  16  16  16  16
#     4   8  14  25  40  58  82 113 146 175 204 243
#     4   9  17  28  44  69  96 119 147 187 234 278
#     4   9  18  32  48  66  90 122 158 192 227 272
#     4   9  17  29  46  65  80  98 131 174 213 246
#     4   9  17  27  39  59  87 115 140 166 200 245
#     4   8  14  25  41  62  88 115 143 178 219 260
#     4   9  16  26  41  61  83 105 130 163 202 241
#
# _framework density 20.830015
#
# number of rings (size 3 to 8) (size 9 to 14) (size 15 to 20)
#    0.000    3.286    0.000    1.714    0.000    2.857 
#    0.000    4.286    0.000    1.714    3.714   14.000 
#    0.000    0.000    0.000    0.000    0.000    0.000 
#
# Total GULP energy -311960.604945 kJ/mol
# GULP energy per Si atom -5570.725088 kJ/mol
# Density = 2.078260 g / cm^3
# Si number density = 20.830015 Si / 1000 Ang^3
#
#
#
# Elastic Constant Matrix: (Units=GPa)
#
#
# Indices 1 2 3 4 5 6 
#
# 1 57.6160 17.6829 8.4718 0.0000 0.0000 0.0000
# 2 17.6829 257.9107 111.9095 0.0000 0.0000 0.0000
# 3 8.4718 111.9095 90.2110 0.0000 0.0000 0.0000
# 4 0.0000 0.0000 0.0000 41.0535 0.0000 0.0000
# 5 0.0000 0.0000 0.0000 0.0000 8.6876 0.0000
# 6 0.0000 0.0000 0.0000 0.0000 0.0000 -7.9028
#
#
#
# Elastic Compliance Matrix: (Units=1/GPa)
#
#
# Indices 1 2 3 4 5 6 
#
# 1 0.017734 -0.001068 -0.000340 0.000000 0.000000 0.000000
# 2 -0.001068 0.008462 -0.010397 0.000000 0.000000 0.000000
# 3 -0.000340 -0.010397 0.024015 0.000000 0.000000 0.000000
# 4 0.000000 0.000000 0.000000 0.024358 0.000000 0.000000
# 5 0.000000 0.000000 0.000000 0.000000 0.115107 0.000000
# 6 0.000000 0.000000 0.000000 0.000000 0.000000 -0.126538
#
#
# Mechanical properties :
#
#
# Convention : Reuss Voigt Hill
#
# Bulk Modulus (GPa) = 37.59392 75.76288 56.67840
# Shear Modulus (GPa) = 52.29298 26.21257 39.25277
#
# Velocity S-wave (km/s) = 5.01589 3.55125 4.34572
# Velocity P-wave (km/s) = 7.18559 7.29836 7.24219
#
# Compressibility (1/GPa) = 0.02660005
#
# Stress axis : x y z
#
# Youngs Moduli (GPa) = 56.38828 118.17798 41.64127
#
# Poissons Ratio (x) = 0.12625 0.01417
# Poissons Ratio (y) = 0.06024 0.43294
# Poissons Ratio (z) = 0.01918 1.22867
#
# Static dielectric constant tensor:
#      x y z
#    x 1.736980 0.000000 0.000000 
#    y 0.000000 1.805040 0.000000 
#    z 0.000000 0.000000 1.706710 
# 
# From -- ./inp_files/77668.got.cif
#   From: 2010.05.17/outbox.cif.g08.bks.cpg/sg65_39_cif.got.tgz:77668.got - 2010.06.03 17:01:31.
