data_PCOD9494557
_publ_section_title
;
Structure prediction by ZEFSAII (Michael W. Deem and Ramdas Pophale) SiO2 
 PCOD9494557
Probable space group: C M M M
;
_chemical_formula_sum "Si O2"
_cell_formula_units_Z 36
_cell_length_a 24.000000
_cell_length_b 24.000000
_cell_length_c 9.000000
_cell_angle_alpha 90.000000
_cell_angle_beta 90.000000
_cell_angle_gamma 90.000000
_cell_volume 5184.000000
_symmetry_space_group_name_H-M "C M M M"
_symmetry_group_IT_number 65
_symmetry_cell_setting 'orthorhombic'
loop_
_space_group_symop_operation_xyz
x,y,z
-x,-y,z
x,-y,-z
-x,y,-z
-x,-y,-z
x,y,-z
-x,y,z
x,-y,z
1/2+x,1/2+y,z
1/2-x,1/2-y,z
1/2+x,1/2-y,-z
1/2-x,1/2+y,-z
1/2-x,1/2-y,-z
1/2+x,1/2+y,-z
1/2-x,1/2+y,z
1/2+x,1/2-y,z
loop_
_atom_site_type_symbol
_atom_site_label
_atom_site_fract_x
_atom_site_fract_y
_atom_site_fract_z
Si Si1 0.934537 0.000000 0.178189
Si Si2 0.934319 0.771470 0.321477
Si Si3 0.830478 0.720977 0.821022
Si Si4 0.879682 0.891481 0.322627
Si Si5 0.270028 0.329257 0.679050
O O1 0.904593 0.055311 0.240399
O O2 0.000000 0.000000 0.222289
O O3 0.931841 0.000000 0.000000
O O4 0.926492 0.765039 0.500000
O O5 0.893726 0.728088 0.237346
O O6 0.913433 0.834477 0.284455
O O7 0.000000 0.765573 0.288243
O O8 0.791486 0.672078 0.751821
O O9 0.801418 0.776511 0.753245
O O10 0.827923 0.720423 0.000000
O O11 0.885681 0.899387 0.500000
O O12 0.813970 0.879185 0.292894
O O13 0.266088 0.321863 0.500000
#
# Coordination Sequence:
#
# PCOD9494557 Si02
#       5
#     8  16  16  16  16
#     4  11  23  33  41  57  81 107 134 169 212 249
#     4   9  17  29  43  58  78 107 140 169 198 235
#     4  10  17  24  38  60  82 102 125 158 201 243
#     4   9  18  31  46  59  72  99 139 177 206 235
#     4   9  16  28  43  57  74  98 131 166 199 238
#
# _framework density 6.9444439999999998
#
# number of rings (size 3 to 8) (size 9 to 14) (size 15 to 20)
#    0.000    2.556    0.000    6.333    0.000    6.667 
#    0.000    0.000    0.000    0.000    0.000    0.000 
#    0.000    0.000    0.000    1.000    0.000   19.333 
#
# Total GULP energy -200414.894195 kJ/mol
# GULP energy per Si atom -5567.080394 kJ/mol
# Density = 0.692864 g / cm^3
# Si number density = 6.944444 Si / 1000 Ang^3
#
#
#
# Elastic Constant Matrix: (Units=GPa)
#
#
# Indices 1 2 3 4 5 6 
#
# 1 135.7991 50.8947 56.9813 0.0000 0.0000 0.0000
# 2 50.8947 48.8086 30.8789 0.0000 0.0000 0.0000
# 3 56.9813 30.8789 79.8599 0.0000 0.0000 0.0000
# 4 0.0000 0.0000 0.0000 2.4303 0.0000 0.0000
# 5 0.0000 0.0000 0.0000 0.0000 22.9893 0.0000
# 6 0.0000 0.0000 0.0000 0.0000 0.0000 24.5252
#
#
#
# Elastic Compliance Matrix: (Units=1/GPa)
#
#
# Indices 1 2 3 4 5 6 
#
# 1 0.013784 -0.010791 -0.005663 0.000000 0.000000 0.000000
# 2 -0.010791 0.035570 -0.006055 0.000000 0.000000 0.000000
# 3 -0.005663 -0.006055 0.018903 0.000000 0.000000 0.000000
# 4 0.000000 0.000000 0.000000 0.411474 0.000000 0.000000
# 5 0.000000 0.000000 0.000000 0.000000 0.043499 0.000000
# 6 0.000000 0.000000 0.000000 0.000000 0.000000 0.040774
#
#
# Mechanical properties :
#
#
# Convention : Reuss Voigt Hill
#
# Bulk Modulus (GPa) = 43.02535 60.21970 51.62253
# Shear Modulus (GPa) = 8.10677 18.36980 13.23829
#
# Velocity S-wave (km/s) = 2.41858 3.64074 3.09067
# Velocity P-wave (km/s) = 6.23257 7.81829 7.07003
#
# Compressibility (1/GPa) = 0.02324211
#
# Stress axis : x y z
#
# Youngs Moduli (GPa) = 72.54785 28.11327 52.90031
#
# Poissons Ratio (x) = 0.30336 0.29956
# Poissons Ratio (y) = 0.78283 0.32029
# Poissons Ratio (z) = 0.41082 0.17021
#
# Static dielectric constant tensor:
#      x y z
#    x 1.505210 0.000000 0.000000 
#    y 0.000000 1.439830 0.000000 
#    z 0.000000 0.000000 1.460410 
# 
# From -- ./inp_files/11440.got.cif
#   From: 2010.05.17/outbox.ucp.g08.bks.cvg/sg65_6_cif.got.tgz:11440.got - 2010.06.11 16:39:57.
