data_PCOD9494664
_publ_section_title
;
Structure prediction by ZEFSAII (Michael W. Deem and Ramdas Pophale) SiO2 
 PCOD9494664
Probable space group: C M M M
;
_chemical_formula_sum "Si O2"
_cell_formula_units_Z 40
_cell_length_a 21.000000
_cell_length_b 24.000000
_cell_length_c 9.000000
_cell_angle_alpha 90.000000
_cell_angle_beta 90.000000
_cell_angle_gamma 90.000000
_cell_volume 4536.000000
_symmetry_space_group_name_H-M "C M M M"
_symmetry_group_IT_number 65
_symmetry_cell_setting 'orthorhombic'
loop_
_space_group_symop_operation_xyz
x,y,z
-x,-y,z
x,-y,-z
-x,y,-z
-x,-y,-z
x,y,-z
-x,y,z
x,-y,z
1/2+x,1/2+y,z
1/2-x,1/2-y,z
1/2+x,1/2-y,-z
1/2-x,1/2+y,-z
1/2-x,1/2-y,-z
1/2+x,1/2+y,-z
1/2-x,1/2+y,z
1/2+x,1/2-y,z
loop_
_atom_site_type_symbol
_atom_site_label
_atom_site_fract_x
_atom_site_fract_y
_atom_site_fract_z
Si Si1 0.874083 0.868239 0.320187
Si Si2 0.745962 0.433395 0.180286
Si Si3 0.423643 0.254339 0.179926
Si Si4 0.875519 0.368259 0.819549
Si Si5 0.500000 0.563124 0.680005
Si Si6 0.500000 0.936057 0.181471
O O1 0.869400 0.865825 0.500000
O O2 0.813135 0.900454 0.253424
O O3 0.888230 0.806719 0.254990
O O4 0.936541 0.904124 0.277296
O O5 0.747867 0.500000 0.219123
O O6 0.810525 0.399876 0.224366
O O7 0.740739 0.430788 0.000000
O O8 0.500000 0.253163 0.217137
O O9 0.389488 0.195957 0.223669
O O10 0.419931 0.259354 0.000000
O O11 0.936526 0.404150 0.770545
O O12 0.875287 0.368162 0.000000
O O13 0.500000 0.500000 0.736415
O O14 0.500000 0.561068 0.500000
O O15 0.500000 0.000000 0.228983
O O16 0.500000 0.935493 0.000000
#
# Coordination Sequence:
#
# PCOD9494664 Si02
#       6
#    16  16  16  16   8   8
#     4  11  22  37  57  79 108 146 188 232 276 327
#     4  10  21  37  56  82 116 148 181 225 276 329
#     4  10  19  34  57  83 113 144 181 229 277 327
#     4   9  17  31  52  80 113 148 181 221 275 327
#     4   9  18  33  53  75  97 129 176 225 272 320
#     4   9  14  23  46  80 111 141 182 227 270 321
#
# _framework density 8.8183419999999995
#
# number of rings (size 3 to 8) (size 9 to 14) (size 15 to 20)
#    0.000    2.200    2.000    1.800    0.000    4.400 
#    0.000    5.000    0.000    2.400    0.000    0.000 
#    0.000    3.200    0.000    0.000    0.000    0.000 
#
# Total GULP energy -223077.149862 kJ/mol
# GULP energy per Si atom -5576.928747 kJ/mol
# Density = 0.879827 g / cm^3
# Si number density = 8.818342 Si / 1000 Ang^3
#
#
#
# Elastic Constant Matrix: (Units=GPa)
#
#
# Indices 1 2 3 4 5 6 
#
# 1 194.7113 119.5626 34.0423 0.0000 0.0000 0.0000
# 2 119.5626 226.2127 37.9171 0.0000 0.0000 0.0000
# 3 34.0423 37.9171 27.2247 0.0000 0.0000 0.0000
# 4 0.0000 0.0000 0.0000 15.7335 0.0000 0.0000
# 5 0.0000 0.0000 0.0000 0.0000 17.6754 0.0000
# 6 0.0000 0.0000 0.0000 0.0000 0.0000 39.9961
#
#
#
# Elastic Compliance Matrix: (Units=1/GPa)
#
#
# Indices 1 2 3 4 5 6 
#
# 1 0.008188 -0.003407 -0.005494 0.000000 0.000000 0.000000
# 2 -0.003407 0.007185 -0.005746 0.000000 0.000000 0.000000
# 3 -0.005494 -0.005746 0.051603 0.000000 0.000000 0.000000
# 4 0.000000 0.000000 0.000000 0.063559 0.000000 0.000000
# 5 0.000000 0.000000 0.000000 0.000000 0.056576 0.000000
# 6 0.000000 0.000000 0.000000 0.000000 0.000000 0.025002
#
#
# Mechanical properties :
#
#
# Convention : Reuss Voigt Hill
#
# Bulk Modulus (GPa) = 26.53728 92.35476 59.44602
# Shear Modulus (GPa) = 19.68752 31.78945 25.73848
#
# Velocity S-wave (km/s) = 3.34471 4.25015 3.82432
# Velocity P-wave (km/s) = 5.47680 8.75008 7.29929
#
# Compressibility (1/GPa) = 0.03768284
#
# Stress axis : x y z
#
# Youngs Moduli (GPa) = 122.12367 139.18844 19.37854
#
# Poissons Ratio (x) = 0.47422 0.10646
# Poissons Ratio (y) = 0.41608 0.11135
# Poissons Ratio (z) = 0.67092 0.79977
#
# Static dielectric constant tensor:
#      x y z
#    x 1.592520 0.000000 0.000000 
#    y 0.000000 1.601220 0.000000 
#    z 0.000000 0.000000 1.589410 
# 
# From -- ./inp_files/11548.got.cif
#   From: 2010.05.17/outbox.ucp.g08.bks.cvg/sg65_6_cif.got.tgz:11548.got - 2010.06.11 16:39:57.
