data_PCOD9494224
_publ_section_title
;
Structure prediction by ZEFSAII (Michael W. Deem and Ramdas Pophale) SiO2 
 PCOD9494224
Probable space group: C M M M
;
_chemical_formula_sum "Si O2"
_cell_formula_units_Z 88
_cell_length_a 7.343330
_cell_length_b 19.218355
_cell_length_c 30.563340
_cell_angle_alpha 90.000000
_cell_angle_beta 90.000000
_cell_angle_gamma 90.000000
_cell_volume 4313.304013
_symmetry_space_group_name_H-M "C M M M"
_symmetry_group_IT_number 65
_symmetry_cell_setting 'orthorhombic'
loop_
_space_group_symop_operation_xyz
x,y,z
-x,-y,z
x,-y,-z
-x,y,-z
-x,-y,-z
x,y,-z
-x,y,z
x,-y,z
1/2+x,1/2+y,z
1/2-x,1/2-y,z
1/2+x,1/2-y,-z
1/2-x,1/2+y,-z
1/2-x,1/2-y,-z
1/2+x,1/2+y,-z
1/2-x,1/2+y,z
1/2+x,1/2-y,z
loop_
_atom_site_type_symbol
_atom_site_label
_atom_site_fract_x
_atom_site_fract_y
_atom_site_fract_z
Si Si1 0.217363 0.832010 0.548411
Si Si2 0.782294 0.167464 0.095171
Si Si3 0.222757 0.080995 0.178264
Si Si4 0.277242 0.419045 0.368846
Si Si5 0.282885 0.666879 0.000000
Si Si6 0.785197 0.084326 0.726387
O O1 0.287415 0.851712 0.500000
O O2 0.250000 0.750000 0.554242
O O3 0.286469 0.874948 0.589789
O O4 0.000000 0.842714 0.547398
O O5 0.750000 0.250000 0.099429
O O6 0.713994 0.126102 0.137264
O O7 0.712608 0.142895 0.047385
O O8 0.000000 0.157689 0.094263
O O9 0.286027 0.106921 0.226192
O O10 0.000000 0.082691 0.179107
O O11 0.273458 0.000000 0.173191
O O12 0.500000 0.417152 0.367983
O O13 0.226692 0.500000 0.373596
O O14 0.214015 0.392753 0.320991
O O15 0.250000 0.750000 0.000000
O O16 0.500000 0.654927 0.000000
O O17 0.000000 0.100739 0.726421
O O18 0.769430 0.000000 0.726315
#
# Coordination Sequence:
#
# PCOD9494224 Si02
#       6
#    16  16  16  16   8  16
#     4   9  17  28  41  57  79 106 130 153 187 230
#     4   9  16  26  40  57  77 100 127 158 189 223
#     4   8  13  22  37  56  77 101 127 154 187 227
#     4   8  13  22  38  59  78  96 125 164 195 217
#     4   8  14  24  37  53  73  99 127 152 184 224
#     4   7  10  18  33  53  76  99 122 151 188 226
#
# _framework density 20.401993000000001
#
# number of rings (size 3 to 8) (size 9 to 14) (size 15 to 20)
#    0.000    3.818    0.000    2.182    0.000    0.364 
#    0.000    3.182    0.000    3.818    0.000    2.545 
#    0.000   11.636    0.000    0.000    0.000    0.000 
#
# Total GULP energy -244972.306682 kJ/mol
# GULP energy per Si atom -5567.552425 kJ/mol
# Density = 2.035556 g / cm^3
# Si number density = 20.401993 Si / 1000 Ang^3
#
#
#
# Elastic Constant Matrix: (Units=GPa)
#
#
# Indices 1 2 3 4 5 6 
#
# 1 77.7195 -2.5510 15.6464 0.0000 0.0000 0.0000
# 2 -2.5510 42.9871 94.1370 0.0000 0.0000 0.0000
# 3 15.6464 94.1370 305.0681 0.0000 0.0000 0.0000
# 4 0.0000 0.0000 0.0000 42.9985 0.0000 0.0000
# 5 0.0000 0.0000 0.0000 0.0000 -9.1015 0.0000
# 6 0.0000 0.0000 0.0000 0.0000 0.0000 3.6309
#
#
#
# Elastic Compliance Matrix: (Units=1/GPa)
#
#
# Indices 1 2 3 4 5 6 
#
# 1 0.013697 0.007251 -0.002940 0.000000 0.000000 0.000000
# 2 0.007251 0.075582 -0.023695 0.000000 0.000000 0.000000
# 3 -0.002940 -0.023695 0.010740 0.000000 0.000000 0.000000
# 4 0.000000 0.000000 0.000000 0.023257 0.000000 0.000000
# 5 0.000000 0.000000 0.000000 0.000000 -0.109872 0.000000
# 6 0.000000 0.000000 0.000000 0.000000 0.000000 0.275414
#
#
# Mechanical properties :
#
#
# Convention : Reuss Voigt Hill
#
# Bulk Modulus (GPa) = 16.32611 71.13771 43.73191
# Shear Modulus (GPa) = 14.36773 28.74174 21.55474
#
# Velocity S-wave (km/s) = 2.65662 3.75743 3.25391
# Velocity P-wave (km/s) = 4.17489 7.33267 5.96648
#
# Compressibility (1/GPa) = 0.06125156
#
# Stress axis : x y z
#
# Youngs Moduli (GPa) = 73.01046 13.23070 93.10660
#
# Poissons Ratio (x) = -0.09594 0.27373
# Poissons Ratio (y) = -0.52940 2.20613
# Poissons Ratio (z) = 0.21465 0.31350
#
# Static dielectric constant tensor:
#      x y z
#    x 1.790910 0.000000 0.000000 
#    y 0.000000 1.655220 0.000000 
#    z 0.000000 0.000000 1.792620 
# 
# From -- ./inp_files/76754.got.cif
#   From: 2010.05.17/outbox.cif.g08.bks.cpg/sg65_39_cif.got.tgz:76754.got - 2010.06.03 17:01:31.
