data_PCOD9494902
_publ_section_title
;
Structure prediction by ZEFSAII (Michael W. Deem and Ramdas Pophale) SiO2 
 PCOD9494902
Probable space group: C C C M
;
_chemical_formula_sum "Si O2"
_cell_formula_units_Z 80
_cell_length_a 6.499969
_cell_length_b 28.541014
_cell_length_c 14.870137
_cell_angle_alpha 90.000000
_cell_angle_beta 90.000000
_cell_angle_gamma 90.000000
_cell_volume 2758.643967
_symmetry_space_group_name_H-M "C C C M"
_symmetry_group_IT_number 66
_symmetry_cell_setting 'orthorhombic'
loop_
_space_group_symop_operation_xyz
x,y,z
-x,-y,z
x,-y,1/2-z
-x,y,1/2-z
-x,-y,-z
x,y,-z
-x,y,1/2+z
x,-y,1/2+z
1/2+x,1/2+y,z
1/2-x,1/2-y,z
1/2+x,1/2-y,1/2-z
1/2-x,1/2+y,1/2-z
1/2-x,1/2-y,-z
1/2+x,1/2+y,-z
1/2-x,1/2+y,1/2+z
1/2+x,1/2-y,1/2+z
loop_
_atom_site_type_symbol
_atom_site_label
_atom_site_fract_x
_atom_site_fract_y
_atom_site_fract_z
Si Si1 0.677223 0.562085 0.107892
Si Si2 0.706147 0.037778 0.110614
Si Si3 0.051305 0.838278 0.646290
Si Si4 0.019528 0.736519 0.892404
Si Si5 0.088142 0.637016 0.103455
O O1 0.443057 0.549914 0.134817
O O2 0.810566 0.516910 0.138369
O O3 0.698552 0.617071 0.130283
O O4 0.683379 0.559249 0.000000
O O5 0.589106 0.084595 0.143354
O O6 0.687972 0.038532 0.000000
O O7 0.105854 0.784800 0.620674
O O8 0.834327 0.850497 0.598554
O O9 0.000000 0.837579 0.750000
O O10 0.250000 0.750000 0.859216
O O11 0.993345 0.684097 0.853937
O O12 0.027737 0.730430 0.000000
O O13 0.018487 0.633083 0.000000
#
# Coordination Sequence:
#
# PCOD9494902 Si02
#       5
#    16  16  16  16  16
#     4   8  12  19  28  37  56  83 107 130 158 196
#     4   7  10  17  30  43  52  72 108 144 169 186
#     4  10  16  19  25  43  68  88 110 137 167 202
#     4   8  13  22  35  45  55  78 115 152 176 196
#     4   8  13  23  36  45  55  77 115 154 178 196
#
# _framework density 28.999758
#
# number of rings (size 3 to 8) (size 9 to 14) (size 15 to 20)
#    0.000    3.800    0.000    5.400    0.000    0.000 
#    0.000    8.000    0.000    0.000    0.000    0.000 
#    0.000   64.800    0.000    0.000    0.000   41.400 
#
# Total GULP energy -223642.460288 kJ/mol
# GULP energy per Si atom -5591.061507 kJ/mol
# Density = 2.893375 g / cm^3
# Si number density = 28.999758 Si / 1000 Ang^3
#
#
#
# Elastic Constant Matrix: (Units=GPa)
#
#
# Indices 1 2 3 4 5 6 
#
# 1 101.8761 120.7907 -9.5208 0.0000 0.0000 0.0000
# 2 120.7907 480.8731 17.1604 0.0000 0.0000 0.0000
# 3 -9.5208 17.1604 86.2300 0.0000 0.0000 0.0000
# 4 0.0000 0.0000 0.0000 -52.1542 0.0000 0.0000
# 5 0.0000 0.0000 0.0000 0.0000 -72.2010 0.0000
# 6 0.0000 0.0000 0.0000 0.0000 0.0000 97.9674
#
#
#
# Elastic Compliance Matrix: (Units=1/GPa)
#
#
# Indices 1 2 3 4 5 6 
#
# 1 0.014430 -0.003708 0.002331 0.000000 0.000000 0.000000
# 2 -0.003708 0.003047 -0.001016 0.000000 0.000000 0.000000
# 3 0.002331 -0.001016 0.012056 0.000000 0.000000 0.000000
# 4 0.000000 0.000000 0.000000 -0.019174 0.000000 0.000000
# 5 0.000000 0.000000 0.000000 0.000000 -0.013850 0.000000
# 6 0.000000 0.000000 0.000000 0.000000 0.000000 0.010207
#
#
# Mechanical properties :
#
#
# Convention : Reuss Voigt Hill
#
# Bulk Modulus (GPa) = 40.40646 102.87109 71.63878
# Shear Modulus (GPa) = 253.14570 30.75903 141.95237
#
# Velocity S-wave (km/s) = 9.35317 3.26032 7.00398
# Velocity P-wave (km/s) = 11.42830 7.05145 9.49550
#
# Compressibility (1/GPa) = 0.02474852
#
# Stress axis : x y z
#
# Youngs Moduli (GPa) = 69.30023 328.17235 82.94330
#
# Poissons Ratio (x) = 1.21682 -0.19335
# Poissons Ratio (y) = 0.25696 0.08425
# Poissons Ratio (z) = -0.16155 0.33336
#
# Static dielectric constant tensor:
#      x y z
#    x 2.445030 0.000000 0.000000 
#    y 0.000000 2.377420 0.000000 
#    z 0.000000 0.000000 2.075740 
# 
# From -- ./inp_files/26663.got.cif
#   From: 2010.05.17/outbox.cif.g08.bks.cpg/sg66_14_cif.got.tgz:26663.got - 2010.06.03 17:51:23.
