data_PCOD9494610
_publ_section_title
;
Structure prediction by ZEFSAII (Michael W. Deem and Ramdas Pophale) SiO2 
 PCOD9494610
Probable space group: C M M M
;
_chemical_formula_sum "Si O2"
_cell_formula_units_Z 44
_cell_length_a 9.000000
_cell_length_b 30.000000
_cell_length_c 18.000000
_cell_angle_alpha 90.000000
_cell_angle_beta 90.000000
_cell_angle_gamma 90.000000
_cell_volume 4860.000000
_symmetry_space_group_name_H-M "C M M M"
_symmetry_group_IT_number 65
_symmetry_cell_setting 'orthorhombic'
loop_
_space_group_symop_operation_xyz
x,y,z
-x,-y,z
x,-y,-z
-x,y,-z
-x,-y,-z
x,y,-z
-x,y,z
x,-y,z
1/2+x,1/2+y,z
1/2-x,1/2-y,z
1/2+x,1/2-y,-z
1/2-x,1/2+y,-z
1/2-x,1/2-y,-z
1/2+x,1/2+y,-z
1/2-x,1/2+y,z
1/2+x,1/2-y,z
loop_
_atom_site_type_symbol
_atom_site_label
_atom_site_fract_x
_atom_site_fract_y
_atom_site_fract_z
Si Si1 0.681430 0.049820 0.500000
Si Si2 0.169344 0.205585 0.380401
Si Si3 0.325451 0.553252 0.083123
Si Si4 0.830478 0.794525 0.800781
Si Si5 0.178752 0.614574 0.371832
Si Si6 0.676732 0.114113 0.798513
O O1 0.500000 0.049154 0.500000
O O2 0.727665 0.075990 0.426745
O O3 0.736513 0.000000 0.500000
O O4 0.250000 0.250000 0.406614
O O5 0.169692 0.206842 0.289747
O O6 0.256588 0.161127 0.399949
O O7 0.000000 0.204037 0.405157
O O8 0.500000 0.564106 0.091583
O O9 0.311557 0.500000 0.087229
O O10 0.233688 0.576514 0.146907
O O11 0.278791 0.567179 0.000000
O O12 0.750000 0.750000 0.826841
O O13 0.744097 0.838740 0.822805
O O14 0.000000 0.796148 0.825420
O O15 0.225566 0.606463 0.286863
O O16 0.000000 0.617460 0.372764
O O17 0.500000 0.116615 0.798902
#
# Coordination Sequence:
#
# PCOD9494610 Si02
#       6
#     8  16  16  16  16  16
#     4   9  18  34  54  71  92 129 172 211 252 295
#     4   9  16  27  46  71  99 129 161 200 247 296
#     4   9  19  36  55  74  99 132 167 203 248 302
#     4   9  16  27  45  70 101 135 169 204 243 290
#     4   9  18  32  50  73 100 130 168 209 246 291
#     4  10  19  30  49  78 106 131 164 207 251 296
#
# _framework density 9.0534979999999994
#
# number of rings (size 3 to 8) (size 9 to 14) (size 15 to 20)
#    0.000    2.818    0.000    2.182    0.000    6.545 
#    0.000    3.636    0.000    1.636    0.000    0.000 
#    0.000    0.000    0.000    0.000    0.000    0.000 
#
# Total GULP energy -245279.608896 kJ/mol
# GULP energy per Si atom -5574.536566 kJ/mol
# Density = 0.903289 g / cm^3
# Si number density = 9.053498 Si / 1000 Ang^3
#
#
#
# Elastic Constant Matrix: (Units=GPa)
#
#
# Indices 1 2 3 4 5 6 
#
# 1 42.0782 47.4735 42.8301 0.0000 0.0000 0.0000
# 2 47.4735 101.5279 51.1010 0.0000 0.0000 0.0000
# 3 42.8301 51.1010 57.9340 0.0000 0.0000 0.0000
# 4 0.0000 0.0000 0.0000 52.1534 0.0000 0.0000
# 5 0.0000 0.0000 0.0000 0.0000 2.2210 0.0000
# 6 0.0000 0.0000 0.0000 0.0000 0.0000 29.5616
#
#
#
# Elastic Compliance Matrix: (Units=1/GPa)
#
#
# Indices 1 2 3 4 5 6 
#
# 1 0.114295 -0.019628 -0.067184 0.000000 0.000000 0.000000
# 2 -0.019628 0.021084 -0.004087 0.000000 0.000000 0.000000
# 3 -0.067184 -0.004087 0.070534 0.000000 0.000000 0.000000
# 4 0.000000 0.000000 0.000000 0.019174 0.000000 0.000000
# 5 0.000000 0.000000 0.000000 0.000000 0.450249 0.000000
# 6 0.000000 0.000000 0.000000 0.000000 0.000000 0.033828
#
#
# Mechanical properties :
#
#
# Convention : Reuss Voigt Hill
#
# Bulk Modulus (GPa) = 41.46671 53.81657 47.64164
# Shear Modulus (GPa) = 5.56174 20.79624 13.17899
#
# Velocity S-wave (km/s) = 1.75450 3.39266 2.70078
# Velocity P-wave (km/s) = 5.20144 6.71809 6.00782
#
# Compressibility (1/GPa) = 0.02411573
#
# Stress axis : x y z
#
# Youngs Moduli (GPa) = 8.74932 47.42866 14.17750
#
# Poissons Ratio (x) = 0.93093 0.95250
# Poissons Ratio (y) = 0.17173 0.05794
# Poissons Ratio (z) = 0.58781 0.19383
#
# Static dielectric constant tensor:
#      x y z
#    x 1.607640 0.000000 0.000000 
#    y 0.000000 1.603570 0.000000 
#    z 0.000000 0.000000 1.628740 
# 
# From -- ./inp_files/50388.got.cif
#   From: 2010.05.17/outbox.ucp.g08.bks.cvg/sg65_26_cif.got.tgz:50388.got - 2010.06.11 16:39:57.
