data_PCOD9494006
_publ_section_title
;
Structure prediction by ZEFSAII (Michael W. Deem and Ramdas Pophale) SiO2 
 PCOD9494006
Probable space group: C M M M
;
_chemical_formula_sum "Si O2"
_cell_formula_units_Z 90
_cell_length_a 22.628031
_cell_length_b 18.732155
_cell_length_c 11.511884
_cell_angle_alpha 90.000000
_cell_angle_beta 90.000000
_cell_angle_gamma 90.000000
_cell_volume 4879.562809
_symmetry_space_group_name_H-M "C M M M"
_symmetry_group_IT_number 65
_symmetry_cell_setting 'orthorhombic'
loop_
_space_group_symop_operation_xyz
x,y,z
-x,-y,z
x,-y,-z
-x,y,-z
-x,-y,-z
x,y,-z
-x,y,z
x,-y,z
1/2+x,1/2+y,z
1/2-x,1/2-y,z
1/2+x,1/2-y,-z
1/2-x,1/2+y,-z
1/2-x,1/2-y,-z
1/2+x,1/2+y,-z
1/2-x,1/2+y,z
1/2+x,1/2-y,z
loop_
_atom_site_type_symbol
_atom_site_label
_atom_site_fract_x
_atom_site_fract_y
_atom_site_fract_z
Si Si1 0.500000 0.000000 0.500000
Si Si2 0.069814 0.329963 0.750659
Si Si3 0.599816 0.873231 0.500000
Si Si4 0.262145 0.084452 0.500000
Si Si5 0.610028 0.318789 0.139772
Si Si6 0.266402 0.332185 0.730997
Si Si7 0.500000 0.581413 0.140742
Si Si8 0.833020 0.418917 0.138456
O O1 0.447869 0.062777 0.500000
O O2 0.089283 0.327690 0.616411
O O3 0.088795 0.259143 0.819056
O O4 0.104974 0.395876 0.806392
O O5 0.000000 0.339665 0.757767
O O6 0.666973 0.901611 0.500000
O O7 0.235611 0.122253 0.613564
O O8 0.251665 0.000000 0.500000
O O9 0.671291 0.335574 0.203291
O O10 0.558698 0.374824 0.173074
O O11 0.617359 0.319568 0.000000
O O12 0.250000 0.250000 0.706303
O O13 0.215915 0.365345 0.813168
O O14 0.500000 0.500000 0.183292
O O15 0.500000 0.579274 0.000000
O O16 0.818051 0.500000 0.172375
O O17 0.836174 0.414486 0.000000
#
# Coordination Sequence:
#
# PCOD9494006 Si02
#       8
#     2  16   8   8  16  16   8  16
#     4  12  24  36  68  92 126 184 234 270 320 390
#     4  12  24  40  66  96 131 173 222 271 326 388
#     4  12  24  41  62  96 130 175 228 273 318 380
#     4  12  25  43  67  93 133 177 218 280 336 383
#     4  11  23  41  68  98 131 171 215 271 333 395
#     4  12  24  41  67  95 128 172 226 274 326 392
#     4   9  20  39  64  94 126 163 213 267 322 386
#     4  11  25  41  61  95 136 174 214 268 335 399
#
# _framework density 18.444274
#
# number of rings (size 3 to 8) (size 9 to 14) (size 15 to 20)
#    0.000    0.622    5.778    1.867    1.244    4.267 
#    0.000    2.667    0.000    0.000    0.000    1.867 
#    0.000    0.000    0.000    0.000    0.000    0.000 
#
# Total GULP energy -251361.921246 kJ/mol
# GULP energy per Si atom -5585.820472 kJ/mol
# Density = 1.840229 g / cm^3
# Si number density = 18.444274 Si / 1000 Ang^3
#
#
#
# Elastic Constant Matrix: (Units=GPa)
#
#
# Indices 1 2 3 4 5 6 
#
# 1 122.6390 61.4302 62.1714 0.0000 0.0000 0.0000
# 2 61.4302 117.1296 49.8858 0.0000 0.0000 0.0000
# 3 62.1714 49.8858 101.5474 0.0000 0.0000 0.0000
# 4 0.0000 0.0000 0.0000 23.5706 0.0000 0.0000
# 5 0.0000 0.0000 0.0000 0.0000 16.4466 0.0000
# 6 0.0000 0.0000 0.0000 0.0000 0.0000 31.9999
#
#
#
# Elastic Compliance Matrix: (Units=1/GPa)
#
#
# Indices 1 2 3 4 5 6 
#
# 1 0.013464 -0.004490 -0.006037 0.000000 0.000000 0.000000
# 2 -0.004490 0.012294 -0.003291 0.000000 0.000000 0.000000
# 3 -0.006037 -0.003291 0.015160 0.000000 0.000000 0.000000
# 4 0.000000 0.000000 0.000000 0.042426 0.000000 0.000000
# 5 0.000000 0.000000 0.000000 0.000000 0.060803 0.000000
# 6 0.000000 0.000000 0.000000 0.000000 0.000000 0.031250
#
#
# Mechanical properties :
#
#
# Convention : Reuss Voigt Hill
#
# Bulk Modulus (GPa) = 75.28756 76.47674 75.88215
# Shear Modulus (GPa) = 24.10114 25.59199 24.84656
#
# Velocity S-wave (km/s) = 3.61875 3.72900 3.67429
# Velocity P-wave (km/s) = 7.63990 7.75205 7.69618
#
# Compressibility (1/GPa) = 0.01328241
#
# Stress axis : x y z
#
# Youngs Moduli (GPa) = 74.27457 81.34208 65.96151
#
# Poissons Ratio (x) = 0.36521 0.39823
# Poissons Ratio (y) = 0.33348 0.21705
# Poissons Ratio (z) = 0.44841 0.26766
#
# Static dielectric constant tensor:
#      x y z
#    x 1.616230 0.000000 0.000000 
#    y 0.000000 1.621250 0.000000 
#    z 0.000000 0.000000 1.630870 
# 
# From -- ./inp_files/28814.got.cif
#   From: 2010.05.17/outbox.cif.g08.bks.cpg/sg65_15_cif.got.tgz:28814.got - 2010.06.03 17:01:31.
