data_PCOD9494968
_publ_section_title
;
Structure prediction by ZEFSAII (Michael W. Deem and Ramdas Pophale) SiO2 
 PCOD9494968
Probable space group: C C C M
;
_chemical_formula_sum "Si O2"
_cell_formula_units_Z 88
_cell_length_a 21.120739
_cell_length_b 26.063965
_cell_length_c 8.043276
_cell_angle_alpha 90.000000
_cell_angle_beta 90.000000
_cell_angle_gamma 90.000000
_cell_volume 4427.744631
_symmetry_space_group_name_H-M "C C C M"
_symmetry_group_IT_number 66
_symmetry_cell_setting 'orthorhombic'
loop_
_space_group_symop_operation_xyz
x,y,z
-x,-y,z
x,-y,1/2-z
-x,y,1/2-z
-x,-y,-z
x,y,-z
-x,y,1/2+z
x,-y,1/2+z
1/2+x,1/2+y,z
1/2-x,1/2-y,z
1/2+x,1/2-y,1/2-z
1/2-x,1/2+y,1/2-z
1/2-x,1/2-y,-z
1/2+x,1/2+y,-z
1/2-x,1/2+y,1/2+z
1/2+x,1/2-y,1/2+z
loop_
_atom_site_type_symbol
_atom_site_label
_atom_site_fract_x
_atom_site_fract_y
_atom_site_fract_z
Si Si1 0.569349 0.663296 0.696799
Si Si2 0.697494 0.941763 0.196540
Si Si3 0.250000 0.750000 0.249391
Si Si4 0.884920 0.276103 0.202978
Si Si5 0.704257 0.355754 0.698263
Si Si6 0.069270 0.387497 0.302815
O O1 0.500000 0.645757 0.750000
O O2 0.575707 0.657797 0.500000
O O3 0.576743 0.724201 0.736847
O O4 0.629513 0.635946 0.780157
O O5 0.751480 0.902168 0.255823
O O6 0.628185 0.921332 0.244592
O O7 0.707144 0.000000 0.250000
O O8 0.701809 0.940317 0.000000
O O9 0.181194 0.728057 0.302809
O O10 0.277919 0.694687 0.193809
O O11 0.919404 0.328463 0.252184
O O12 0.871239 0.277809 0.000000
O O13 0.715714 0.343901 0.500000
O O14 0.070874 0.387081 0.500000
O O15 0.000000 0.405680 0.250000
#
# Coordination Sequence:
#
# PCOD9494968 Si02
#       6
#    16  16   8  16  16  16
#     4  10  20  34  54  83 120 159 195 231 280 341
#     4  11  24  43  63  87 114 150 195 244 291 343
#     4  10  16  32  54  86 117 150 189 232 291 338
#     4   9  18  30  50  81 118 156 193 235 282 339
#     4  10  21  36  58  87 118 150 189 235 289 346
#     4  11  22  38  58  84 115 154 196 244 293 341
#
# _framework density 19.874679
#
# number of rings (size 3 to 8) (size 9 to 14) (size 15 to 20)
#    0.000    1.818    1.818    2.727    0.000    2.545 
#    0.000    3.636    0.000    0.545    0.000    3.818 
#    0.000    0.000    0.000    0.000    0.000    0.000 
#
# Total GULP energy -245042.239305 kJ/mol
# GULP energy per Si atom -5569.141802 kJ/mol
# Density = 1.982944 g / cm^3
# Si number density = 19.874679 Si / 1000 Ang^3
#
#
#
# Elastic Constant Matrix: (Units=GPa)
#
#
# Indices 1 2 3 4 5 6 
#
# 1 174.3785 66.7349 14.8336 0.0000 0.0000 0.0000
# 2 66.7349 107.6206 16.7535 0.0000 0.0000 0.0000
# 3 14.8336 16.7535 37.0908 0.0000 0.0000 0.0000
# 4 0.0000 0.0000 0.0000 5.1200 0.0000 0.0000
# 5 0.0000 0.0000 0.0000 0.0000 15.9398 0.0000
# 6 0.0000 0.0000 0.0000 0.0000 0.0000 17.1230
#
#
#
# Elastic Compliance Matrix: (Units=1/GPa)
#
#
# Indices 1 2 3 4 5 6 
#
# 1 0.007552 -0.004531 -0.000973 0.000000 0.000000 0.000000
# 2 -0.004531 0.012713 -0.003930 0.000000 0.000000 0.000000
# 3 -0.000973 -0.003930 0.029126 0.000000 0.000000 0.000000
# 4 0.000000 0.000000 0.000000 0.195314 0.000000 0.000000
# 5 0.000000 0.000000 0.000000 0.000000 0.062736 0.000000
# 6 0.000000 0.000000 0.000000 0.000000 0.000000 0.058401
#
#
# Mechanical properties :
#
#
# Convention : Reuss Voigt Hill
#
# Bulk Modulus (GPa) = 32.76474 57.30376 45.03425
# Shear Modulus (GPa) = 12.66192 22.35441 17.50816
#
# Velocity S-wave (km/s) = 2.52680 3.35740 2.97126
# Velocity P-wave (km/s) = 5.00344 6.62756 5.87193
#
# Compressibility (1/GPa) = 0.03052062
#
# Stress axis : x y z
#
# Youngs Moduli (GPa) = 132.42361 78.65663 34.33416
#
# Poissons Ratio (x) = 0.35640 0.03342
# Poissons Ratio (y) = 0.60003 0.13495
# Poissons Ratio (z) = 0.12890 0.30916
#
# Static dielectric constant tensor:
#      x y z
#    x 1.666280 0.000000 0.000000 
#    y 0.000000 1.630220 0.000000 
#    z 0.000000 0.000000 1.789420 
# 
# From -- ./inp_files/7790.got.cif
#   From: 2010.05.17/outbox.cif.g08.bks.cpg/sg66_4_cif.got.tgz:7790.got - 2010.06.03 17:51:23.
