data_PCOD9494665
_publ_section_title
;
Structure prediction by ZEFSAII (Michael W. Deem and Ramdas Pophale) SiO2 
 PCOD9494665
Probable space group: C M M M
;
_chemical_formula_sum "Si O2"
_cell_formula_units_Z 44
_cell_length_a 21.000000
_cell_length_b 18.000000
_cell_length_c 12.000000
_cell_angle_alpha 90.000000
_cell_angle_beta 90.000000
_cell_angle_gamma 90.000000
_cell_volume 4536.000000
_symmetry_space_group_name_H-M "C M M M"
_symmetry_group_IT_number 65
_symmetry_cell_setting 'orthorhombic'
loop_
_space_group_symop_operation_xyz
x,y,z
-x,-y,z
x,-y,-z
-x,y,-z
-x,-y,-z
x,y,-z
-x,y,z
x,-y,z
1/2+x,1/2+y,z
1/2-x,1/2-y,z
1/2+x,1/2-y,-z
1/2-x,1/2+y,-z
1/2-x,1/2-y,-z
1/2+x,1/2+y,-z
1/2-x,1/2+y,z
1/2+x,1/2-y,z
loop_
_atom_site_type_symbol
_atom_site_label
_atom_site_fract_x
_atom_site_fract_y
_atom_site_fract_z
Si Si1 0.267967 0.836764 0.757540
Si Si2 0.124546 0.864464 0.237017
Si Si3 0.428031 0.233919 0.371988
Si Si4 0.623872 0.917056 0.367390
Si Si5 0.769352 0.663313 0.000000
Si Si6 0.924771 0.000000 0.622120
Si Si7 0.369089 0.410921 0.000000
O O1 0.250000 0.750000 0.739016
O O2 0.200017 0.876331 0.762153
O O3 0.310863 0.877206 0.667896
O O4 0.300750 0.846752 0.879423
O O5 0.110451 0.784086 0.287038
O O6 0.101693 0.876501 0.111403
O O7 0.094452 0.926510 0.313644
O O8 0.403847 0.241027 0.500000
O O9 0.500000 0.261519 0.371573
O O10 0.426145 0.147510 0.339258
O O11 0.621579 0.924200 0.500000
O O12 0.616516 0.000000 0.319820
O O13 0.750000 0.750000 0.000000
O O14 0.705060 0.614395 0.000000
O O15 0.894918 0.000000 0.500000
O O16 0.000000 0.000000 0.612949
O O17 0.374018 0.500000 0.000000
#
# Coordination Sequence:
#
# PCOD9494665 Si02
#       7
#    16  16  16  16   8   8   8
#     4  10  19  35  56  84 114 144 181 226 276 333
#     4  11  21  37  59  82 112 150 189 231 279 332
#     4  10  21  39  61  81 106 147 195 237 280 334
#     4  10  22  37  55  85 119 146 181 232 287 343
#     4   8  18  32  56  81 107 145 184 223 269 326
#     4  11  24  39  55  79 113 152 194 234 269 320
#     4  10  20  36  56  81 114 149 187 230 281 341
#
# _framework density 9.7001760000000008
#
# number of rings (size 3 to 8) (size 9 to 14) (size 15 to 20)
#    0.000    1.909    2.727    1.091    1.273    4.364 
#    0.000    4.091    0.000    0.000    0.000    0.000 
#    0.000    2.909    0.000    0.000    0.000    0.000 
#
# Total GULP energy -244937.816088 kJ/mol
# GULP energy per Si atom -5566.768547 kJ/mol
# Density = 0.967810 g / cm^3
# Si number density = 9.700176 Si / 1000 Ang^3
#
#
#
# Elastic Constant Matrix: (Units=GPa)
#
#
# Indices 1 2 3 4 5 6 
#
# 1 46.4591 15.3822 26.7334 0.0000 0.0000 0.0000
# 2 15.3822 110.5113 49.8313 0.0000 0.0000 0.0000
# 3 26.7334 49.8313 69.3679 0.0000 0.0000 0.0000
# 4 0.0000 0.0000 0.0000 48.3261 0.0000 0.0000
# 5 0.0000 0.0000 0.0000 0.0000 2.0768 0.0000
# 6 0.0000 0.0000 0.0000 0.0000 0.0000 18.2019
#
#
#
# Elastic Compliance Matrix: (Units=1/GPa)
#
#
# Indices 1 2 3 4 5 6 
#
# 1 0.027808 0.001423 -0.011739 0.000000 0.000000 0.000000
# 2 0.001423 0.013457 -0.010215 0.000000 0.000000 0.000000
# 3 -0.011739 -0.010215 0.026278 0.000000 0.000000 0.000000
# 4 0.000000 0.000000 0.000000 0.020693 0.000000 0.000000
# 5 0.000000 0.000000 0.000000 0.000000 0.481510 0.000000
# 6 0.000000 0.000000 0.000000 0.000000 0.000000 0.054939
#
#
# Mechanical properties :
#
#
# Convention : Reuss Voigt Hill
#
# Bulk Modulus (GPa) = 37.76399 45.58133 41.67266
# Shear Modulus (GPa) = 7.41208 22.68040 15.04624
#
# Velocity S-wave (km/s) = 1.95675 3.42288 2.78792
# Velocity P-wave (km/s) = 4.96115 6.25840 5.64715
#
# Compressibility (1/GPa) = 0.02648026
#
# Stress axis : x y z
#
# Youngs Moduli (GPa) = 35.96094 74.31035 38.05449
#
# Poissons Ratio (x) = -0.10571 0.44671
# Poissons Ratio (y) = -0.05116 0.38874
# Poissons Ratio (z) = 0.42213 0.75910
#
# Static dielectric constant tensor:
#      x y z
#    x 1.680640 0.000000 0.000000 
#    y 0.000000 1.699840 0.000000 
#    z 0.000000 0.000000 1.754940 
# 
# From -- ./inp_files/28779.got.cif
#   From: 2010.05.17/outbox.ucp.g08.bks.cvg/sg65_15_cif.got.tgz:28779.got - 2010.06.11 16:39:57.
