data_PCOD9494492
_publ_section_title
;
Structure prediction by ZEFSAII (Michael W. Deem and Ramdas Pophale) SiO2 
 PCOD9494492
Probable space group: C M M M
;
_chemical_formula_sum "Si O2"
_cell_formula_units_Z 88
_cell_length_a 9.130573
_cell_length_b 14.724726
_cell_length_c 30.410974
_cell_angle_alpha 90.000000
_cell_angle_beta 90.000000
_cell_angle_gamma 90.000000
_cell_volume 4088.609045
_symmetry_space_group_name_H-M "C M M M"
_symmetry_group_IT_number 65
_symmetry_cell_setting 'orthorhombic'
loop_
_space_group_symop_operation_xyz
x,y,z
-x,-y,z
x,-y,-z
-x,y,-z
-x,-y,-z
x,y,-z
-x,y,z
x,-y,z
1/2+x,1/2+y,z
1/2-x,1/2-y,z
1/2+x,1/2-y,-z
1/2-x,1/2+y,-z
1/2-x,1/2-y,-z
1/2+x,1/2+y,-z
1/2-x,1/2+y,z
1/2+x,1/2-y,z
loop_
_atom_site_type_symbol
_atom_site_label
_atom_site_fract_x
_atom_site_fract_y
_atom_site_fract_z
Si Si1 0.665521 0.111366 0.587753
Si Si2 0.834041 0.111031 0.500000
Si Si3 0.324466 0.149987 0.951426
Si Si4 0.823458 0.152131 0.769911
Si Si5 0.176853 0.850821 0.865540
Si Si6 0.336110 0.393130 0.672688
O O1 0.500000 0.143117 0.584331
O O2 0.754679 0.138947 0.544716
O O3 0.736116 0.142435 0.633589
O O4 0.663466 0.000000 0.587868
O O5 0.000000 0.142822 0.500000
O O6 0.834711 0.000000 0.500000
O O7 0.500000 0.157477 0.945001
O O8 0.250000 0.250000 0.953615
O O9 0.249095 0.105981 0.908820
O O10 0.300485 0.108783 0.000000
O O11 0.750000 0.250000 0.770958
O O12 0.789651 0.107719 0.817368
O O13 0.778769 0.113180 0.722639
O O14 0.000000 0.157866 0.769119
O O15 0.250000 0.750000 0.863767
O O16 0.000000 0.845320 0.870495
O O17 0.500000 0.352743 0.670903
O O18 0.350245 0.500000 0.663932
#
# Coordination Sequence:
#
# PCOD9494492 Si02
#       6
#    16   8  16  16  16  16
#     4   9  16  25  38  59  86 112 139 174 214 251
#     4   9  15  23  37  57  82 113 144 171 206 253
#     4   9  15  21  30  46  69  97 128 160 197 242
#     4   9  18  30  44  63  85 112 145 178 212 250
#     4   9  15  23  35  51  73 100 131 165 201 242
#     4   9  17  30  46  63  86 115 145 176 211 252
#
# _framework density 21.523212999999998
#
# number of rings (size 3 to 8) (size 9 to 14) (size 15 to 20)
#    0.000    3.000    0.000    3.000    0.000    5.818 
#    0.000    0.000    0.000    0.000    0.000    0.636 
#    0.000    0.727    0.000    9.091    0.000    4.909 
#
# Total GULP energy -245129.310651 kJ/mol
# GULP energy per Si atom -5571.120697 kJ/mol
# Density = 2.147423 g / cm^3
# Si number density = 21.523213 Si / 1000 Ang^3
#
#
#
# Elastic Constant Matrix: (Units=GPa)
#
#
# Indices 1 2 3 4 5 6 
#
# 1 118.7920 10.4971 120.4671 0.0000 0.0000 0.0000
# 2 10.4971 47.5986 9.5307 0.0000 0.0000 0.0000
# 3 120.4671 9.5307 268.1502 0.0000 0.0000 0.0000
# 4 0.0000 0.0000 0.0000 11.1301 0.0000 0.0000
# 5 0.0000 0.0000 0.0000 0.0000 -22.2604 0.0000
# 6 0.0000 0.0000 0.0000 0.0000 0.0000 -2.0377
#
#
#
# Elastic Compliance Matrix: (Units=1/GPa)
#
#
# Indices 1 2 3 4 5 6 
#
# 1 0.015661 -0.002060 -0.006962 0.000000 0.000000 0.000000
# 2 -0.002060 0.021430 0.000164 0.000000 0.000000 0.000000
# 3 -0.006962 0.000164 0.006851 0.000000 0.000000 0.000000
# 4 0.000000 0.000000 0.000000 0.089846 0.000000 0.000000
# 5 0.000000 0.000000 0.000000 0.000000 -0.044923 0.000000
# 6 0.000000 0.000000 0.000000 0.000000 0.000000 -0.490758
#
#
# Mechanical properties :
#
#
# Convention : Reuss Voigt Hill
#
# Bulk Modulus (GPa) = 38.13061 79.50338 58.81700
# Shear Modulus (GPa) = -13.31793 16.96947 1.82577
#
# Velocity S-wave (km/s) = -2.49021 2.81094 0.92202
# Velocity P-wave (km/s) = 3.07999 6.89593 5.34042
#
# Compressibility (1/GPa) = 0.02622565
#
# Stress axis : x y z
#
# Youngs Moduli (GPa) = 63.85441 46.66249 145.95773
#
# Poissons Ratio (x) = 0.09611 1.01621
# Poissons Ratio (y) = 0.13152 -0.02388
# Poissons Ratio (z) = 0.44458 -0.00763
#
# Static dielectric constant tensor:
#      x y z
#    x 1.735520 0.000000 0.000000 
#    y 0.000000 1.859260 0.000000 
#    z 0.000000 0.000000 1.845840 
# 
# From -- ./inp_files/76805.got.cif
#   From: 2010.05.17/outbox.cif.g08.bks.cpg/sg65_39_cif.got.tgz:76805.got - 2010.06.03 17:01:31.
