data_PCOD9494356
_publ_section_title
;
Structure prediction by ZEFSAII (Michael W. Deem and Ramdas Pophale) SiO2 
 PCOD9494356
Probable space group: C M M M
;
_chemical_formula_sum "Si O2"
_cell_formula_units_Z 72
_cell_length_a 7.352380
_cell_length_b 14.590760
_cell_length_c 27.589908
_cell_angle_alpha 90.000000
_cell_angle_beta 90.000000
_cell_angle_gamma 90.000000
_cell_volume 2959.757374
_symmetry_space_group_name_H-M "C M M M"
_symmetry_group_IT_number 65
_symmetry_cell_setting 'orthorhombic'
loop_
_space_group_symop_operation_xyz
x,y,z
-x,-y,z
x,-y,-z
-x,y,-z
-x,-y,-z
x,y,-z
-x,y,z
x,-y,z
1/2+x,1/2+y,z
1/2-x,1/2-y,z
1/2+x,1/2-y,-z
1/2-x,1/2+y,-z
1/2-x,1/2-y,-z
1/2+x,1/2+y,-z
1/2-x,1/2+y,z
1/2+x,1/2-y,z
loop_
_atom_site_type_symbol
_atom_site_label
_atom_site_fract_x
_atom_site_fract_y
_atom_site_fract_z
Si Si1 0.706262 0.108972 0.762347
Si Si2 0.500000 0.612462 0.944758
Si Si3 0.783414 0.642300 0.656223
Si Si4 0.710968 0.888382 0.132758
Si Si5 0.282268 0.140005 0.552205
O O1 0.500000 0.147767 0.759463
O O2 0.792276 0.120508 0.709452
O O3 0.783613 0.140898 0.813955
O O4 0.691655 0.000000 0.767559
O O5 0.500000 0.500000 0.946287
O O6 0.328215 0.642359 0.912636
O O7 0.500000 0.644613 0.000000
O O8 0.750000 0.750000 0.652291
O O9 0.714417 0.605032 0.604450
O O10 0.000000 0.620487 0.657969
O O11 0.500000 0.862474 0.129419
O O12 0.718443 0.000000 0.131681
O O13 0.213442 0.105934 0.500000
O O14 0.500000 0.125355 0.552501
O O15 0.250000 0.250000 0.551693
#
# Coordination Sequence:
#
# PCOD9494356 Si02
#       5
#    16   8  16  16  16
#     4   8  14  26  43  58  76 111 147 168 199 254
#     4   9  16  24  36  58  86 112 139 173 212 252
#     4   9  16  26  40  59  83 106 132 175 216 248
#     4   8  14  25  39  55  78 110 144 173 206 253
#     4   8  13  21  34  52  74 101 131 162 203 252
#
# _framework density 24.326319000000002
#
# number of rings (size 3 to 8) (size 9 to 14) (size 15 to 20)
#    0.000    3.667    0.000    1.333    0.000    0.444 
#    2.000    2.222    0.000    0.667    0.000    4.667 
#    0.000    0.889    0.444   36.000    0.000   16.889 
#
# Total GULP energy -200535.661285 kJ/mol
# GULP energy per Si atom -5570.435036 kJ/mol
# Density = 2.427095 g / cm^3
# Si number density = 24.326319 Si / 1000 Ang^3
#
#
#
# Elastic Constant Matrix: (Units=GPa)
#
#
# Indices 1 2 3 4 5 6 
#
# 1 109.3624 -4.7847 75.2224 0.0000 0.0000 0.0000
# 2 -4.7847 63.6464 11.5563 0.0000 0.0000 0.0000
# 3 75.2224 11.5563 366.9001 0.0000 0.0000 0.0000
# 4 0.0000 0.0000 0.0000 17.1214 0.0000 0.0000
# 5 0.0000 0.0000 0.0000 0.0000 132.2650 0.0000
# 6 0.0000 0.0000 0.0000 0.0000 0.0000 -6.4953
#
#
#
# Elastic Compliance Matrix: (Units=1/GPa)
#
#
# Indices 1 2 3 4 5 6 
#
# 1 0.010738 0.001214 -0.002240 0.000000 0.000000 0.000000
# 2 0.001214 0.015939 -0.000751 0.000000 0.000000 0.000000
# 3 -0.002240 -0.000751 0.003208 0.000000 0.000000 0.000000
# 4 0.000000 0.000000 0.000000 0.058406 0.000000 0.000000
# 5 0.000000 0.000000 0.000000 0.000000 0.007561 0.000000
# 6 0.000000 0.000000 0.000000 0.000000 0.000000 -0.153958
#
#
# Mechanical properties :
#
#
# Convention : Reuss Voigt Hill
#
# Bulk Modulus (GPa) = 37.97676 78.21075 58.09376
# Shear Modulus (GPa) = -109.22966 59.10589 -25.06189
#
# Velocity S-wave (km/s) = -6.70815 4.93456 -3.21321
# Velocity P-wave (km/s) = 6.65987 8.04282 3.18850
#
# Compressibility (1/GPa) = 0.02633189
#
# Stress axis : x y z
#
# Youngs Moduli (GPa) = 93.13140 62.73756 311.68504
#
# Poissons Ratio (x) = -0.07615 0.69807
# Poissons Ratio (y) = -0.11305 0.23405
# Poissons Ratio (z) = 0.20858 0.04711
#
# Static dielectric constant tensor:
#      x y z
#    x 1.808040 0.000000 0.000000 
#    y 0.000000 1.984150 0.000000 
#    z 0.000000 0.000000 1.988480 
# 
# From -- ./inp_files/64984.got.cif
#   From: 2010.05.17/outbox.cif.g08.bks.cpg/sg65_33_cif.got.tgz:64984.got - 2010.06.03 17:01:31.
