data_PCOD9494469
_publ_section_title
;
Structure prediction by ZEFSAII (Michael W. Deem and Ramdas Pophale) SiO2 
 PCOD9494469
Probable space group: C M M M
;
_chemical_formula_sum "Si O2"
_cell_formula_units_Z 80
_cell_length_a 10.441913
_cell_length_b 14.494670
_cell_length_c 25.029763
_cell_angle_alpha 90.000000
_cell_angle_beta 90.000000
_cell_angle_gamma 90.000000
_cell_volume 3788.306770
_symmetry_space_group_name_H-M "C M M M"
_symmetry_group_IT_number 65
_symmetry_cell_setting 'orthorhombic'
loop_
_space_group_symop_operation_xyz
x,y,z
-x,-y,z
x,-y,-z
-x,y,-z
-x,-y,-z
x,y,-z
-x,y,z
x,-y,z
1/2+x,1/2+y,z
1/2-x,1/2-y,z
1/2+x,1/2-y,-z
1/2-x,1/2+y,-z
1/2-x,1/2-y,-z
1/2+x,1/2+y,-z
1/2-x,1/2+y,z
1/2+x,1/2-y,z
loop_
_atom_site_type_symbol
_atom_site_label
_atom_site_fract_x
_atom_site_fract_y
_atom_site_fract_z
Si Si1 0.141977 0.607599 0.676373
Si Si2 0.748428 0.612142 0.126168
Si Si3 0.000000 0.112246 0.939439
Si Si4 0.353037 0.168859 0.441879
Si Si5 0.500000 0.112667 0.062411
Si Si6 0.648175 0.387141 0.241331
O O1 0.133960 0.500000 0.690982
O O2 0.163159 0.613506 0.612775
O O3 0.263339 0.643698 0.709294
O O4 0.000000 0.648337 0.688081
O O5 0.752558 0.500000 0.126856
O O6 0.626404 0.640333 0.091549
O O7 0.720918 0.640291 0.186905
O O8 0.875957 0.642402 0.095923
O O9 0.000000 0.000000 0.940009
O O10 0.000000 0.143983 0.000000
O O11 0.338592 0.120964 0.500000
O O12 0.500000 0.204116 0.440522
O O13 0.250000 0.250000 0.440459
O O14 0.500000 0.000000 0.061546
O O15 0.500000 0.140581 0.000000
O O16 0.500000 0.355765 0.242258
O O17 0.641881 0.500000 0.241554
#
# Coordination Sequence:
#
# PCOD9494469 Si02
#       6
#    16  16   8  16   8  16
#     4   9  18  30  46  69  94 121 155 194 232 271
#     4   9  15  22  31  44  64  95 135 179 223 265
#     4   9  14  20  30  42  60  90 132 179 220 260
#     4   9  18  33  52  73  97 125 156 188 226 275
#     4   9  16  22  28  42  64  92 132 181 226 266
#     4   9  16  26  38  54  78 109 146 186 228 273
#
# _framework density 21.117614
#
# number of rings (size 3 to 8) (size 9 to 14) (size 15 to 20)
#    0.000    3.000    1.000    0.600    1.400    3.600 
#    0.000    2.000    0.000    0.000    0.000    5.600 
#    0.000    0.000    0.000    0.000    0.000    6.000 
#
# Total GULP energy -223052.908215 kJ/mol
# GULP energy per Si atom -5576.322705 kJ/mol
# Density = 2.106955 g / cm^3
# Si number density = 21.117614 Si / 1000 Ang^3
#
#
#
# Elastic Constant Matrix: (Units=GPa)
#
#
# Indices 1 2 3 4 5 6 
#
# 1 194.5232 11.6695 115.6676 0.0000 0.0000 0.0000
# 2 11.6695 60.6792 1.6418 0.0000 0.0000 0.0000
# 3 115.6676 1.6418 176.6849 0.0000 0.0000 0.0000
# 4 0.0000 0.0000 0.0000 -565.5102 0.0000 0.0000
# 5 0.0000 0.0000 0.0000 0.0000 40.8227 0.0000
# 6 0.0000 0.0000 0.0000 0.0000 0.0000 -15.8830
#
#
#
# Elastic Compliance Matrix: (Units=1/GPa)
#
#
# Indices 1 2 3 4 5 6 
#
# 1 0.008551 -0.001493 -0.005584 0.000000 0.000000 0.000000
# 2 -0.001493 0.016745 0.000822 0.000000 0.000000 0.000000
# 3 -0.005584 0.000822 0.009308 0.000000 0.000000 0.000000
# 4 0.000000 0.000000 0.000000 -0.001768 0.000000 0.000000
# 5 0.000000 0.000000 0.000000 0.000000 0.024496 0.000000
# 6 0.000000 0.000000 0.000000 0.000000 0.000000 -0.062960
#
#
# Mechanical properties :
#
#
# Convention : Reuss Voigt Hill
#
# Bulk Modulus (GPa) = 45.26314 76.64946 60.95630
# Shear Modulus (GPa) = 350.99211 -87.92021 131.53595
#
# Velocity S-wave (km/s) = 12.90616 -6.45941 7.90079
# Velocity P-wave (km/s) = 15.60681 4.38825 10.59046
#
# Compressibility (1/GPa) = 0.02209303
#
# Stress axis : x y z
#
# Youngs Moduli (GPa) = 116.95053 59.71908 107.43865
#
# Poissons Ratio (x) = 0.08918 0.59992
# Poissons Ratio (y) = 0.17465 -0.08832
# Poissons Ratio (z) = 0.65303 -0.04909
#
# Static dielectric constant tensor:
#      x y z
#    x 1.741820 0.000000 0.000000 
#    y 0.000000 1.807930 0.000000 
#    z 0.000000 0.000000 1.757840 
# 
# From -- ./inp_files/72924.got.cif
#   From: 2010.05.17/outbox.cif.g08.bks.cpg/sg65_37_cif.got.tgz:72924.got - 2010.06.03 17:01:31.
