data_PCOD9494377
_publ_section_title
;
Structure prediction by ZEFSAII (Michael W. Deem and Ramdas Pophale) SiO2 
 PCOD9494377
Probable space group: C M M M
;
_chemical_formula_sum "Si O2"
_cell_formula_units_Z 88
_cell_length_a 9.382680
_cell_length_b 14.464002
_cell_length_c 30.065939
_cell_angle_alpha 90.000000
_cell_angle_beta 90.000000
_cell_angle_gamma 90.000000
_cell_volume 4080.281723
_symmetry_space_group_name_H-M "C M M M"
_symmetry_group_IT_number 65
_symmetry_cell_setting 'orthorhombic'
loop_
_space_group_symop_operation_xyz
x,y,z
-x,-y,z
x,-y,-z
-x,y,-z
-x,-y,-z
x,y,-z
-x,y,z
x,-y,z
1/2+x,1/2+y,z
1/2-x,1/2-y,z
1/2+x,1/2-y,-z
1/2-x,1/2+y,-z
1/2-x,1/2-y,-z
1/2+x,1/2+y,-z
1/2-x,1/2+y,z
1/2+x,1/2-y,z
loop_
_atom_site_type_symbol
_atom_site_label
_atom_site_fract_x
_atom_site_fract_y
_atom_site_fract_z
Si Si1 0.837476 0.112902 0.587256
Si Si2 0.659650 0.391943 0.756794
Si Si3 0.838728 0.613181 0.325977
Si Si4 0.171763 0.849315 0.048035
Si Si5 0.837104 0.387009 0.500000
Si Si6 0.171692 0.152373 0.143954
O O1 0.759745 0.140178 0.632684
O O2 0.747120 0.140753 0.544236
O O3 0.000000 0.145710 0.585200
O O4 0.841364 0.000000 0.586993
O O5 0.500000 0.350469 0.753395
O O6 0.645075 0.500000 0.746072
O O7 0.769658 0.355799 0.720525
O O8 0.709351 0.388313 0.808016
O O9 0.844258 0.500000 0.326182
O O10 0.000000 0.646421 0.331160
O O11 0.250000 0.750000 0.047915
O O12 0.207420 0.893348 0.096077
O O13 0.000000 0.836955 0.048127
O O14 0.207585 0.893316 0.000000
O O15 0.840839 0.500000 0.500000
O O16 0.000000 0.354492 0.500000
O O17 0.250000 0.250000 0.143049
O O18 0.000000 0.161049 0.144556
#
# Coordination Sequence:
#
# PCOD9494377 Si02
#       6
#    16  16  16  16   8  16
#     4   9  15  22  32  46  66  94 128 164 203 248
#     4   9  17  29  43  58  79 109 142 172 205 249
#     4   9  16  25  37  53  72  96 130 170 207 243
#     4   8  13  22  37  57  80 104 131 164 201 242
#     4   9  15  21  29  43  65  93 126 165 206 245
#     4   9  17  28  43  63  85 109 137 171 210 249
#
# _framework density 21.567138
#
# number of rings (size 3 to 8) (size 9 to 14) (size 15 to 20)
#    0.000    3.182    0.000    1.364    0.000    6.182 
#    0.000    0.000    0.000    0.545    0.000    3.818 
#    0.000    0.000    0.000   34.818    0.000   30.545 
#
# Total GULP energy -245207.235228 kJ/mol
# GULP energy per Si atom -5572.891710 kJ/mol
# Density = 2.151805 g / cm^3
# Si number density = 21.567138 Si / 1000 Ang^3
#
#
#
# Elastic Constant Matrix: (Units=GPa)
#
#
# Indices 1 2 3 4 5 6 
#
# 1 121.0291 11.5241 110.9663 0.0000 0.0000 0.0000
# 2 11.5241 53.2356 1.3143 0.0000 0.0000 0.0000
# 3 110.9663 1.3143 231.6598 0.0000 0.0000 0.0000
# 4 0.0000 0.0000 0.0000 15.3854 0.0000 0.0000
# 5 0.0000 0.0000 0.0000 0.0000-7632.0533 0.0000
# 6 0.0000 0.0000 0.0000 0.0000 0.0000 0.2118
#
#
#
# Elastic Compliance Matrix: (Units=1/GPa)
#
#
# Indices 1 2 3 4 5 6 
#
# 1 0.015233 -0.003118 -0.007279 0.000000 0.000000 0.000000
# 2 -0.003118 0.019425 0.001383 0.000000 0.000000 0.000000
# 3 -0.007279 0.001383 0.007796 0.000000 0.000000 0.000000
# 4 0.000000 0.000000 0.000000 0.064997 0.000000 0.000000
# 5 0.000000 0.000000 0.000000 0.000000 -0.000131 0.000000
# 6 0.000000 0.000000 0.000000 0.000000 0.000000 4.720956
#
#
# Mechanical properties :
#
#
# Convention : Reuss Voigt Hill
#
# Bulk Modulus (GPa) = 40.93901 72.61488 56.77694
# Shear Modulus (GPa) = 1.02998 -1504.48325 -751.72663
#
# Velocity S-wave (km/s) = 0.69181 -26.44042 -18.68980
# Velocity P-wave (km/s) = 4.43413 29.97308 20.96096
#
# Compressibility (1/GPa) = 0.02442658
#
# Stress axis : x y z
#
# Youngs Moduli (GPa) = 65.64573 51.47946 128.27789
#
# Poissons Ratio (x) = 0.16051 0.93375
# Poissons Ratio (y) = 0.20468 -0.17744
# Poissons Ratio (z) = 0.47784 -0.07121
#
# Static dielectric constant tensor:
#      x y z
#    x 1.733930 0.000000 0.000000 
#    y 0.000000 1.887120 0.000000 
#    z 0.000000 0.000000 1.814110 
# 
# From -- ./inp_files/75339.got.cif
#   From: 2010.05.17/outbox.cif.g08.bks.cpg/sg65_38_cif.got.tgz:75339.got - 2010.06.03 17:01:31.
