data_PCOD9494442
_publ_section_title
;
Structure prediction by ZEFSAII (Michael W. Deem and Ramdas Pophale) SiO2 
 PCOD9494442
Probable space group: C M M M
;
_chemical_formula_sum "Si O2"
_cell_formula_units_Z 80
_cell_length_a 15.133373
_cell_length_b 20.667365
_cell_length_c 11.212802
_cell_angle_alpha 90.000000
_cell_angle_beta 90.000000
_cell_angle_gamma 90.000000
_cell_volume 3506.993809
_symmetry_space_group_name_H-M "C M M M"
_symmetry_group_IT_number 65
_symmetry_cell_setting 'orthorhombic'
loop_
_space_group_symop_operation_xyz
x,y,z
-x,-y,z
x,-y,-z
-x,y,-z
-x,-y,-z
x,y,-z
-x,y,z
x,-y,z
1/2+x,1/2+y,z
1/2-x,1/2-y,z
1/2+x,1/2-y,-z
1/2-x,1/2+y,-z
1/2-x,1/2-y,-z
1/2+x,1/2+y,-z
1/2-x,1/2+y,z
1/2+x,1/2-y,z
loop_
_atom_site_type_symbol
_atom_site_label
_atom_site_fract_x
_atom_site_fract_y
_atom_site_fract_z
Si Si1 0.596287 0.074766 0.356119
Si Si2 0.206098 0.108653 0.636456
Si Si3 0.896961 0.096910 0.131970
Si Si4 0.856073 0.750000 0.873463
Si Si5 0.600219 0.741035 0.627025
O O1 0.593444 0.073361 0.500000
O O2 0.500000 0.101338 0.318018
O O3 0.691485 0.104950 0.329445
O O4 0.600471 0.000000 0.315122
O O5 0.194225 0.082785 0.500000
O O6 0.152959 0.077309 0.746986
O O7 0.169744 0.182360 0.629874
O O8 0.888292 0.175406 0.128225
O O9 0.000000 0.080210 0.140900
O O10 0.864526 0.075311 0.000000
O O11 0.750000 0.750000 0.870974
O O12 0.889645 0.721625 0.749948
O O13 0.884360 0.720690 0.000000
O O14 0.611900 0.776345 0.500000
O O15 0.500000 0.714241 0.626183
#
# Coordination Sequence:
#
# PCOD9494442 Si02
#       5
#    16  16  16  16  16
#     4   8  14  25  42  65  90 113 139 173 212 251
#     4   9  15  24  43  67  86 108 141 178 209 241
#     4   9  17  29  45  64  86 113 142 170 206 254
#     4   9  16  25  39  59  80 104 137 173 205 240
#     4   9  17  28  42  61  84 110 140 172 208 251
#
# _framework density 22.81156
#
# number of rings (size 3 to 8) (size 9 to 14) (size 15 to 20)
#    0.000    3.200    0.000    3.000    0.000    2.800 
#    0.000    0.000    0.000   13.200    0.000   37.800 
#    0.000    0.000    0.000    0.000    0.000    0.000 
#
# Total GULP energy -222953.725788 kJ/mol
# GULP energy per Si atom -5573.843145 kJ/mol
# Density = 2.275964 g / cm^3
# Si number density = 22.811560 Si / 1000 Ang^3
#
#
#
# Elastic Constant Matrix: (Units=GPa)
#
#
# Indices 1 2 3 4 5 6 
#
# 1 171.1861 33.2571 70.8853 0.0000 0.0000 0.0000
# 2 33.2571 67.6850 17.5822 0.0000 0.0000 0.0000
# 3 70.8853 17.5822 242.9547 0.0000 0.0000 0.0000
# 4 0.0000 0.0000 0.0000 -61.7563 0.0000 0.0000
# 5 0.0000 0.0000 0.0000 0.0000 26.5316 0.0000
# 6 0.0000 0.0000 0.0000 0.0000 0.0000 -13.6981
#
#
#
# Elastic Compliance Matrix: (Units=1/GPa)
#
#
# Indices 1 2 3 4 5 6 
#
# 1 0.007215 -0.003056 -0.001884 0.000000 0.000000 0.000000
# 2 -0.003056 0.016352 -0.000292 0.000000 0.000000 0.000000
# 3 -0.001884 -0.000292 0.004687 0.000000 0.000000 0.000000
# 4 0.000000 0.000000 0.000000 -0.016193 0.000000 0.000000
# 5 0.000000 0.000000 0.000000 0.000000 0.037691 0.000000
# 6 0.000000 0.000000 0.000000 0.000000 0.000000 -0.073003
#
#
# Mechanical properties :
#
#
# Convention : Reuss Voigt Hill
#
# Bulk Modulus (GPa) = 56.20981 80.58609 68.39795
# Shear Modulus (GPa) = -729.19126 14.22218 -357.48454
#
# Velocity S-wave (km/s) = -17.89840 2.49963 -12.53205
# Velocity P-wave (km/s) = 20.06097 6.61320 13.39231
#
# Compressibility (1/GPa) = 0.01779049
#
# Stress axis : x y z
#
# Youngs Moduli (GPa) = 138.59182 61.15600 213.36506
#
# Poissons Ratio (x) = 0.18689 0.40199
# Poissons Ratio (y) = 0.42352 0.06225
# Poissons Ratio (z) = 0.26111 0.01784
#
# Static dielectric constant tensor:
#      x y z
#    x 1.829290 0.000000 0.000000 
#    y 0.000000 1.872170 0.000000 
#    z 0.000000 0.000000 1.940220 
# 
# From -- ./inp_files/22865.got.cif
#   From: 2010.05.17/outbox.cif.g08.bks.cpg/sg65_12_cif.got.tgz:22865.got - 2010.06.03 17:01:31.
