data_PCOD9494842
_publ_section_title
;
Structure prediction by ZEFSAII (Michael W. Deem and Ramdas Pophale) SiO2 
 PCOD9494842
Probable space group: C M M M
;
_chemical_formula_sum "Si O2"
_cell_formula_units_Z 36
_cell_length_a 15.000000
_cell_length_b 9.000000
_cell_length_c 27.000000
_cell_angle_alpha 90.000000
_cell_angle_beta 90.000000
_cell_angle_gamma 90.000000
_cell_volume 3645.000000
_symmetry_space_group_name_H-M "C M M M"
_symmetry_group_IT_number 65
_symmetry_cell_setting 'orthorhombic'
loop_
_space_group_symop_operation_xyz
x,y,z
-x,-y,z
x,-y,-z
-x,y,-z
-x,-y,-z
x,y,-z
-x,y,z
x,-y,z
1/2+x,1/2+y,z
1/2-x,1/2-y,z
1/2+x,1/2-y,-z
1/2-x,1/2+y,-z
1/2-x,1/2-y,-z
1/2+x,1/2+y,-z
1/2-x,1/2+y,z
1/2+x,1/2-y,z
loop_
_atom_site_type_symbol
_atom_site_label
_atom_site_fract_x
_atom_site_fract_y
_atom_site_fract_z
Si Si1 0.500000 0.320286 0.559440
Si Si2 0.654203 0.320786 0.835145
Si Si3 0.103134 0.332769 0.264979
Si Si4 0.606892 0.327567 0.946188
Si Si5 0.157029 0.319604 0.625231
O O1 0.500000 0.500000 0.564457
O O2 0.500000 0.286972 0.500000
O O3 0.416985 0.249471 0.589176
O O4 0.650418 0.500000 0.835462
O O5 0.750000 0.250000 0.828193
O O6 0.606608 0.262126 0.785480
O O7 0.627783 0.267829 0.891113
O O8 0.138695 0.500000 0.254127
O O9 0.145517 0.276382 0.316258
O O10 0.000000 0.345843 0.278221
O O11 0.500000 0.328143 0.948164
O O12 0.637486 0.500000 0.946115
O O13 0.637243 0.261919 0.000000
O O14 0.154324 0.500000 0.623530
O O15 0.250000 0.250000 0.608922
#
# Coordination Sequence:
#
# PCOD9494842 Si02
#       5
#     8  16  16  16  16
#     4  11  25  45  69  99 133 171 216 263 312 367
#     4  11  22  34  51  79 111 148 192 237 292 355
#     4  10  21  39  61  87 119 154 195 246 304 361
#     4   8  15  30  51  73  99 134 181 236 290 349
#     4  11  23  42  67  97 131 171 215 261 315 373
#
# _framework density 9.8765429999999999
#
# number of rings (size 3 to 8) (size 9 to 14) (size 15 to 20)
#    0.000    1.889    1.111    3.667    0.000    6.667 
#    0.000    0.000    0.000    2.000    0.000    7.778 
#    0.000    0.000    0.000    0.000    0.000    0.000 
#
# Total GULP energy -200404.682692 kJ/mol
# GULP energy per Si atom -5566.796741 kJ/mol
# Density = 0.985406 g / cm^3
# Si number density = 9.876543 Si / 1000 Ang^3
#
#
#
# Elastic Constant Matrix: (Units=GPa)
#
#
# Indices 1 2 3 4 5 6 
#
# 1 113.1578 20.1400 56.6281 0.0000 0.0000 0.0000
# 2 20.1400 55.9953 47.7245 0.0000 0.0000 0.0000
# 3 56.6281 47.7245 165.5082 0.0000 0.0000 0.0000
# 4 0.0000 0.0000 0.0000 31.1775 0.0000 0.0000
# 5 0.0000 0.0000 0.0000 0.0000 2.7527 0.0000
# 6 0.0000 0.0000 0.0000 0.0000 0.0000 14.3546
#
#
#
# Elastic Compliance Matrix: (Units=1/GPa)
#
#
# Indices 1 2 3 4 5 6 
#
# 1 0.010702 -0.000966 -0.003383 0.000000 0.000000 0.000000
# 2 -0.000966 0.023765 -0.006522 0.000000 0.000000 0.000000
# 3 -0.003383 -0.006522 0.009080 0.000000 0.000000 0.000000
# 4 0.000000 0.000000 0.000000 0.032074 0.000000 0.000000
# 5 0.000000 0.000000 0.000000 0.000000 0.363278 0.000000
# 6 0.000000 0.000000 0.000000 0.000000 0.000000 0.069664
#
#
# Mechanical properties :
#
#
# Convention : Reuss Voigt Hill
#
# Bulk Modulus (GPa) = 45.86128 64.84959 55.35544
# Shear Modulus (GPa) = 9.30104 23.66822 16.48463
#
# Velocity S-wave (km/s) = 2.17230 3.46526 2.89197
# Velocity P-wave (km/s) = 5.43687 6.99372 6.26385
#
# Compressibility (1/GPa) = 0.02180489
#
# Stress axis : x y z
#
# Youngs Moduli (GPa) = 93.43880 42.07899 110.12929
#
# Poissons Ratio (x) = 0.04064 0.37259
# Poissons Ratio (y) = 0.09024 0.71828
# Poissons Ratio (z) = 0.31613 0.27445
#
# Static dielectric constant tensor:
#      x y z
#    x 2.356390 0.000000 0.000000 
#    y 0.000000 1.701330 0.000000 
#    z 0.000000 0.000000 1.802940 
# 
# From -- ./inp_files/74613.got.cif
#   From: 2010.05.17/outbox.ucp.g08.bks.cvg/sg65_38_cif.got.tgz:74613.got - 2010.06.11 16:39:57.
