data_PCOD9494225
_publ_section_title
;
Structure prediction by ZEFSAII (Michael W. Deem and Ramdas Pophale) SiO2 
 PCOD9494225
Probable space group: C M M M
;
_chemical_formula_sum "Si O2"
_cell_formula_units_Z 88
_cell_length_a 7.529529
_cell_length_b 20.017310
_cell_length_c 29.971014
_cell_angle_alpha 90.000000
_cell_angle_beta 90.000000
_cell_angle_gamma 90.000000
_cell_volume 4517.258688
_symmetry_space_group_name_H-M "C M M M"
_symmetry_group_IT_number 65
_symmetry_cell_setting 'orthorhombic'
loop_
_space_group_symop_operation_xyz
x,y,z
-x,-y,z
x,-y,-z
-x,y,-z
-x,-y,-z
x,y,-z
-x,y,z
x,-y,z
1/2+x,1/2+y,z
1/2-x,1/2-y,z
1/2+x,1/2-y,-z
1/2-x,1/2+y,-z
1/2-x,1/2-y,-z
1/2+x,1/2+y,-z
1/2-x,1/2+y,z
1/2+x,1/2-y,z
loop_
_atom_site_type_symbol
_atom_site_label
_atom_site_fract_x
_atom_site_fract_y
_atom_site_fract_z
Si Si1 0.211760 0.423693 0.306435
Si Si2 0.286695 0.827561 0.228843
Si Si3 0.787035 0.672505 0.871442
Si Si4 0.787839 0.918984 0.500000
Si Si5 0.713770 0.577184 0.595770
Si Si6 0.783221 0.422878 0.050052
O O1 0.282824 0.500000 0.304905
O O2 0.282072 0.376911 0.267042
O O3 0.240700 0.393950 0.355987
O O4 0.000000 0.428290 0.300744
O O5 0.500000 0.834807 0.227544
O O6 0.250000 0.750000 0.238889
O O7 0.219368 0.841913 0.178671
O O8 0.750000 0.750000 0.881155
O O9 0.719262 0.624748 0.910496
O O10 0.000000 0.664286 0.870046
O O11 0.720300 0.894405 0.548226
O O12 0.000000 0.907136 0.500000
O O13 0.764876 0.000000 0.500000
O O14 0.500000 0.575806 0.593297
O O15 0.777004 0.500000 0.597590
O O16 0.731542 0.500000 0.057118
O O17 0.000000 0.421410 0.050268
O O18 0.727643 0.402663 0.000000
#
# Coordination Sequence:
#
# PCOD9494225 Si02
#       6
#    16  16  16   8  16  16
#     4   9  17  28  41  60  86 110 134 170 213 251
#     4   9  18  31  45  61  83 112 143 174 209 250
#     4   9  17  29  45  64  85 110 141 176 212 249
#     4   7  10  18  33  53  78 107 136 165 197 237
#     4   8  13  22  37  57  81 109 139 168 200 242
#     4   8  14  25  42  65  90 113 140 175 210 245
#
# _framework density 19.480841000000002
#
# number of rings (size 3 to 8) (size 9 to 14) (size 15 to 20)
#    0.000    3.545    0.000    1.636    0.000    1.818 
#    0.000    4.091    0.000    3.273    0.000    7.000 
#    0.000    0.000    0.000    0.000    0.000    0.000 
#
# Total GULP energy -244946.063069 kJ/mol
# GULP energy per Si atom -5566.955979 kJ/mol
# Density = 1.943650 g / cm^3
# Si number density = 19.480841 Si / 1000 Ang^3
#
#
#
# Elastic Constant Matrix: (Units=GPa)
#
#
# Indices 1 2 3 4 5 6 
#
# 1 49.1654 1.7082 7.5594 0.0000 0.0000 0.0000
# 2 1.7082 65.2317 111.3636 0.0000 0.0000 0.0000
# 3 7.5594 111.3636 237.1519 0.0000 0.0000 0.0000
# 4 0.0000 0.0000 0.0000 -54.9677 0.0000 0.0000
# 5 0.0000 0.0000 0.0000 0.0000 6.1067 0.0000
# 6 0.0000 0.0000 0.0000 0.0000 0.0000 12.8670
#
#
#
# Elastic Compliance Matrix: (Units=1/GPa)
#
#
# Indices 1 2 3 4 5 6 
#
# 1 0.020550 0.002925 -0.002029 0.000000 0.000000 0.000000
# 2 0.002925 0.077716 -0.036588 0.000000 0.000000 0.000000
# 3 -0.002029 -0.036588 0.021462 0.000000 0.000000 0.000000
# 4 0.000000 0.000000 0.000000 -0.018193 0.000000 0.000000
# 5 0.000000 0.000000 0.000000 0.000000 0.163755 0.000000
# 6 0.000000 0.000000 0.000000 0.000000 0.000000 0.077718
#
#
# Mechanical properties :
#
#
# Convention : Reuss Voigt Hill
#
# Bulk Modulus (GPa) = 20.68427 65.86796 43.27611
# Shear Modulus (GPa) = 11.61424 8.19571 9.90498
#
# Velocity S-wave (km/s) = 2.44434 2.05334 2.25732
# Velocity P-wave (km/s) = 4.31361 6.28543 5.39045
#
# Compressibility (1/GPa) = 0.04834593
#
# Stress axis : x y z
#
# Youngs Moduli (GPa) = 48.66226 12.86743 46.59304
#
# Poissons Ratio (x) = -0.03764 0.09452
# Poissons Ratio (y) = -0.14235 1.70472
# Poissons Ratio (z) = 0.09872 0.47079
#
# Static dielectric constant tensor:
#      x y z
#    x 1.747220 0.000000 0.000000 
#    y 0.000000 1.635970 0.000000 
#    z 0.000000 0.000000 1.737620 
# 
# From -- ./inp_files/76781.got.cif
#   From: 2010.05.17/outbox.cif.g08.bks.cpg/sg65_39_cif.got.tgz:76781.got - 2010.06.03 17:01:31.
