data_PCOD9494696
_publ_section_title
;
Structure prediction by ZEFSAII (Michael W. Deem and Ramdas Pophale) SiO2 
 PCOD9494696
Probable space group: C M M M
;
_chemical_formula_sum "Si O2"
_cell_formula_units_Z 52
_cell_length_a 30.000000
_cell_length_b 21.000000
_cell_length_c 9.000000
_cell_angle_alpha 90.000000
_cell_angle_beta 90.000000
_cell_angle_gamma 90.000000
_cell_volume 5670.000000
_symmetry_space_group_name_H-M "C M M M"
_symmetry_group_IT_number 65
_symmetry_cell_setting 'orthorhombic'
loop_
_space_group_symop_operation_xyz
x,y,z
-x,-y,z
x,-y,-z
-x,y,-z
-x,-y,-z
x,y,-z
-x,y,z
x,-y,z
1/2+x,1/2+y,z
1/2-x,1/2-y,z
1/2+x,1/2-y,-z
1/2-x,1/2+y,-z
1/2-x,1/2-y,-z
1/2+x,1/2+y,-z
1/2-x,1/2+y,z
1/2+x,1/2-y,z
loop_
_atom_site_type_symbol
_atom_site_label
_atom_site_fract_x
_atom_site_fract_y
_atom_site_fract_z
Si Si1 0.381198 0.738305 0.325469
Si Si2 0.792468 0.710015 0.178500
Si Si3 0.053648 0.000000 0.166788
Si Si4 0.551470 0.630761 0.679021
Si Si5 0.677587 0.072105 0.822109
Si Si6 0.049690 0.680988 0.832394
Si Si7 0.081382 0.426244 0.669762
O O1 0.372706 0.732224 0.500000
O O2 0.336403 0.756709 0.242585
O O3 0.409860 0.678169 0.270027
O O4 0.416721 0.792690 0.288671
O O5 0.750000 0.750000 0.231621
O O6 0.792974 0.634371 0.215372
O O7 0.793920 0.713919 0.000000
O O8 0.064373 0.937479 0.258239
O O9 0.000000 0.000000 0.155044
O O10 0.072077 0.000000 0.000000
O O11 0.550965 0.631307 0.500000
O O12 0.500000 0.645340 0.726244
O O13 0.632245 0.079328 0.728819
O O14 0.695303 0.000000 0.794562
O O15 0.667841 0.075688 0.000000
O O16 0.050817 0.607527 0.791024
O O17 0.000000 0.706836 0.817336
O O18 0.065492 0.692979 0.000000
O O19 0.076767 0.402783 0.500000
O O20 0.070685 0.500000 0.666341
#
# Coordination Sequence:
#
# PCOD9494696 Si02
#       7
#    16  16   8  16  16  16  16
#     4  11  22  36  56  81 109 144 184 227 273 323
#     4  10  21  37  58  83 111 144 181 225 278 335
#     4   9  17  29  49  79 109 139 181 227 267 313
#     4   9  18  33  53  77 107 145 184 220 267 326
#     4   9  17  32  56  81 105 139 182 224 271 330
#     4  11  23  36  51  74 107 147 186 225 272 324
#     4  10  20  33  51  76 105 139 181 228 274 317
#
# _framework density 9.1710759999999993
#
# number of rings (size 3 to 8) (size 9 to 14) (size 15 to 20)
#    0.000    2.077    1.538    2.077    0.000    5.538 
#    0.000    3.077    1.692    0.000    0.000    0.000 
#    0.000    0.000    0.000    0.000    0.000    0.000 
#
# Total GULP energy -289502.856188 kJ/mol
# GULP energy per Si atom -5567.362619 kJ/mol
# Density = 0.915020 g / cm^3
# Si number density = 9.171076 Si / 1000 Ang^3
#
#
#
# Elastic Constant Matrix: (Units=GPa)
#
#
# Indices 1 2 3 4 5 6 
#
# 1 67.8336 54.1631 4.7101 0.0000 0.0000 0.0000
# 2 54.1631 129.6534 20.1929 0.0000 0.0000 0.0000
# 3 4.7101 20.1929 -8.0789 0.0000 0.0000 0.0000
# 4 0.0000 0.0000 0.0000 12.8591 0.0000 0.0000
# 5 0.0000 0.0000 0.0000 0.0000 77.5916 0.0000
# 6 0.0000 0.0000 0.0000 0.0000 0.0000 23.9684
#
#
#
# Elastic Compliance Matrix: (Units=1/GPa)
#
#
# Indices 1 2 3 4 5 6 
#
# 1 0.021532 -0.007882 -0.007147 0.000000 0.000000 0.000000
# 2 -0.007882 0.008437 0.016493 0.000000 0.000000 0.000000
# 3 -0.007147 0.016493 -0.086724 0.000000 0.000000 0.000000
# 4 0.000000 0.000000 0.000000 0.077766 0.000000 0.000000
# 5 0.000000 0.000000 0.000000 0.000000 0.012888 0.000000
# 6 0.000000 0.000000 0.000000 0.000000 0.000000 0.041722
#
#
# Mechanical properties :
#
#
# Convention : Reuss Voigt Hill
#
# Bulk Modulus (GPa) = -18.57774 38.61557 10.01891
# Shear Modulus (GPa) = 91.32339 30.23995 60.78167
#
# Velocity S-wave (km/s) = 7.06377 4.06477 5.76278
# Velocity P-wave (km/s) = 7.50858 6.56723 7.05362
#
# Compressibility (1/GPa) = -0.05382786
#
# Stress axis : x y z
#
# Youngs Moduli (GPa) = 46.44343 118.52727 -11.53088
#
# Poissons Ratio (x) = 0.93420 -0.08241
# Poissons Ratio (y) = 0.36606 0.19017
# Poissons Ratio (z) = 0.33193 -1.95481
#
# Static dielectric constant tensor:
#      x y z
#    x 1.616870 0.000000 0.000000 
#    y 0.000000 1.804320 0.000000 
#    z 0.000000 0.000000 1.629400 
# 
# From -- ./inp_files/18601.got.cif
#   From: 2010.05.17/outbox.ucp.g08.bks.cvg/sg65_10_cif.got.tgz:18601.got - 2010.06.11 16:39:57.
