data_PCOD9494721
_publ_section_title
;
Structure prediction by ZEFSAII (Michael W. Deem and Ramdas Pophale) SiO2 
 PCOD9494721
Probable space group: C M M M
;
_chemical_formula_sum "Si O2"
_cell_formula_units_Z 52
_cell_length_a 27.000000
_cell_length_b 21.000000
_cell_length_c 9.000000
_cell_angle_alpha 90.000000
_cell_angle_beta 90.000000
_cell_angle_gamma 90.000000
_cell_volume 5103.000000
_symmetry_space_group_name_H-M "C M M M"
_symmetry_group_IT_number 65
_symmetry_cell_setting 'orthorhombic'
loop_
_space_group_symop_operation_xyz
x,y,z
-x,-y,z
x,-y,-z
-x,y,-z
-x,-y,-z
x,y,-z
-x,y,z
x,-y,z
1/2+x,1/2+y,z
1/2-x,1/2-y,z
1/2+x,1/2-y,-z
1/2-x,1/2+y,-z
1/2-x,1/2-y,-z
1/2+x,1/2+y,-z
1/2-x,1/2+y,z
1/2+x,1/2-y,z
loop_
_atom_site_type_symbol
_atom_site_label
_atom_site_fract_x
_atom_site_fract_y
_atom_site_fract_z
Si Si1 0.614022 0.315997 0.828730
Si Si2 0.943462 0.500000 0.177047
Si Si3 0.054799 0.927525 0.181203
Si Si4 0.622455 0.106437 0.324080
Si Si5 0.211923 0.196560 0.678396
Si Si6 0.444561 0.801706 0.171755
Si Si7 0.265695 0.928176 0.680968
O O1 0.598270 0.383355 0.764121
O O2 0.658283 0.287934 0.736427
O O3 0.564726 0.273439 0.829251
O O4 0.630305 0.320748 0.000000
O O5 0.913943 0.441036 0.240786
O O6 0.000000 0.500000 0.227798
O O7 0.942917 0.500000 0.000000
O O8 0.000000 0.907526 0.229466
O O9 0.061923 0.000000 0.223800
O O10 0.055305 0.924105 0.000000
O O11 0.620148 0.096780 0.500000
O O12 0.598248 0.172050 0.275836
O O13 0.678761 0.093737 0.277724
O O14 0.212816 0.196673 0.500000
O O15 0.250000 0.250000 0.730524
O O16 0.228551 0.126621 0.731136
O O17 0.500000 0.818848 0.218892
O O18 0.438177 0.823587 0.000000
O O19 0.264564 0.929388 0.500000
O O20 0.256297 0.000000 0.733418
#
# Coordination Sequence:
#
# PCOD9494721 Si02
#       7
#    16   8  16  16  16  16  16
#     4  10  20  34  54  80 109 139 176 226 275 322
#     4  11  23  37  53  77 113 149 177 213 268 329
#     4   8  14  27  50  79 109 142 178 214 258 318
#     4  11  21  36  58  81 105 138 186 234 267 305
#     4  10  21  37  56  77 103 138 180 224 273 328
#     4  10  21  36  53  76 110 149 182 216 271 337
#     4   9  18  35  57  78 103 139 180 222 270 325
#
# _framework density 10.190084000000001
#
# number of rings (size 3 to 8) (size 9 to 14) (size 15 to 20)
#    0.000    2.231    0.769    3.000    0.000    7.385 
#    0.000    1.538    0.000    1.385    0.000    1.077 
#    0.000    0.000    0.000    0.000    0.000    0.000 
#
# Total GULP energy -289678.577158 kJ/mol
# GULP energy per Si atom -5570.741868 kJ/mol
# Density = 1.016689 g / cm^3
# Si number density = 10.190084 Si / 1000 Ang^3
#
#
#
# Elastic Constant Matrix: (Units=GPa)
#
#
# Indices 1 2 3 4 5 6 
#
# 1 66.4499 61.7234 6.9301 0.0000 0.0000 0.0000
# 2 61.7234 84.8040 18.8695 0.0000 0.0000 0.0000
# 3 6.9301 18.8695 1.1566 0.0000 0.0000 0.0000
# 4 0.0000 0.0000 0.0000 6.3237 0.0000 0.0000
# 5 0.0000 0.0000 0.0000 0.0000 -3.2956 0.0000
# 6 0.0000 0.0000 0.0000 0.0000 0.0000 36.3736
#
#
#
# Elastic Compliance Matrix: (Units=1/GPa)
#
#
# Indices 1 2 3 4 5 6 
#
# 1 0.027216 -0.006265 -0.060872 0.000000 0.000000 0.000000
# 2 -0.006265 -0.003041 0.087156 0.000000 0.000000 0.000000
# 3 -0.060872 0.087156 -0.192584 0.000000 0.000000 0.000000
# 4 0.000000 0.000000 0.000000 0.158136 0.000000 0.000000
# 5 0.000000 0.000000 0.000000 0.000000 -0.303439 0.000000
# 6 0.000000 0.000000 0.000000 0.000000 0.000000 0.027492
#
#
# Mechanical properties :
#
#
# Convention : Reuss Voigt Hill
#
# Bulk Modulus (GPa) = -7.78999 36.38406 14.29704
# Shear Modulus (GPa) = -13.54835 12.20618 -0.67109
#
# Velocity S-wave (km/s) = -2.58113 2.44995 -0.57445
# Velocity P-wave (km/s) = 3.56562 5.08866 2.56718
#
# Compressibility (1/GPa) = -0.12836990
#
# Stress axis : x y z
#
# Youngs Moduli (GPa) = 36.74267 -328.79206 -5.19254
#
# Poissons Ratio (x) = -2.05973 -0.31608
# Poissons Ratio (y) = 0.23018 0.45256
# Poissons Ratio (z) = 2.23661 28.65631
#
# Static dielectric constant tensor:
#      x y z
#    x 1.444300 0.000000 0.000000 
#    y 0.000000 1.811190 0.000000 
#    z 0.000000 0.000000 1.688590 
# 
# From -- ./inp_files/16518.got.cif
#   From: 2010.05.17/outbox.ucp.g08.bks.cvg/sg65_9_cif.got.tgz:16518.got - 2010.06.11 16:39:57.
