data_PCOD9494872
_publ_section_title
;
Structure prediction by ZEFSAII (Michael W. Deem and Ramdas Pophale) SiO2 
 PCOD9494872
Probable space group: C M M M
;
_chemical_formula_sum "Si O2"
_cell_formula_units_Z 32
_cell_length_a 9.000000
_cell_length_b 15.000000
_cell_length_c 24.000000
_cell_angle_alpha 90.000000
_cell_angle_beta 90.000000
_cell_angle_gamma 90.000000
_cell_volume 3240.000000
_symmetry_space_group_name_H-M "C M M M"
_symmetry_group_IT_number 65
_symmetry_cell_setting 'orthorhombic'
loop_
_space_group_symop_operation_xyz
x,y,z
-x,-y,z
x,-y,-z
-x,y,-z
-x,-y,-z
x,y,-z
-x,y,z
x,-y,z
1/2+x,1/2+y,z
1/2-x,1/2-y,z
1/2+x,1/2-y,-z
1/2-x,1/2+y,-z
1/2-x,1/2-y,-z
1/2+x,1/2+y,-z
1/2-x,1/2+y,z
1/2+x,1/2-y,z
loop_
_atom_site_type_symbol
_atom_site_label
_atom_site_fract_x
_atom_site_fract_y
_atom_site_fract_z
Si Si1 0.679416 0.000000 0.181917
Si Si2 0.177656 0.159484 0.884681
Si Si3 0.328787 0.607183 0.500000
Si Si4 0.826476 0.607643 0.000000
Si Si5 0.320397 0.000000 0.309315
Si Si6 0.177927 0.339441 0.385436
O O1 0.752769 0.083354 0.152598
O O2 0.722831 0.000000 0.246020
O O3 0.500000 0.000000 0.175492
O O4 0.250000 0.250000 0.864035
O O5 0.000000 0.160658 0.884428
O O6 0.240618 0.142188 0.946352
O O7 0.328098 0.500000 0.500000
O O8 0.500000 0.638161 0.500000
O O9 0.243571 0.640463 0.554071
O O10 0.824512 0.500000 0.000000
O O11 0.000000 0.635847 0.000000
O O12 0.271526 0.915488 0.343742
O O13 0.500000 0.000000 0.310213
O O14 0.250000 0.250000 0.364473
O O15 0.000000 0.335473 0.388187
#
# Coordination Sequence:
#
# PCOD9494872 Si02
#       6
#     8  16   8   8   8  16
#     4  11  23  44  67  92 125 162 210 263 312 367
#     4  12  25  42  65  95 129 167 209 255 310 371
#     4  11  22  37  60  92 124 158 200 249 303 363
#     4  11  22  39  66  96 129 167 203 251 314 372
#     4   9  22  42  65  88 120 162 205 253 308 363
#     4  11  22  40  63  91 123 161 202 247 305 365
#
# _framework density 9.8765429999999999
#
# number of rings (size 3 to 8) (size 9 to 14) (size 15 to 20)
#    0.000    1.000    2.500    4.875    0.000    2.000 
#    0.000    7.500    0.000    0.000    0.000    0.000 
#    0.000    0.000    0.000    0.000    0.000    0.000 
#
# Total GULP energy -178813.632883 kJ/mol
# GULP energy per Si atom -5587.926028 kJ/mol
# Density = 0.985406 g / cm^3
# Si number density = 9.876543 Si / 1000 Ang^3
#
#
#
# Elastic Constant Matrix: (Units=GPa)
#
#
# Indices 1 2 3 4 5 6 
#
# 1 163.4425 78.8621 64.8827 0.0000 0.0000 0.0000
# 2 78.8621 191.1470 99.4870 0.0000 0.0000 0.0000
# 3 64.8827 99.4870 149.6543 0.0000 0.0000 0.0000
# 4 0.0000 0.0000 0.0000 171.3145 0.0000 0.0000
# 5 0.0000 0.0000 0.0000 0.0000 47.9323 0.0000
# 6 0.0000 0.0000 0.0000 0.0000 0.0000 31.5923
#
#
#
# Elastic Compliance Matrix: (Units=1/GPa)
#
#
# Indices 1 2 3 4 5 6 
#
# 1 0.007994 -0.002285 -0.001947 0.000000 0.000000 0.000000
# 2 -0.002285 0.008652 -0.004761 0.000000 0.000000 0.000000
# 3 -0.001947 -0.004761 0.010691 0.000000 0.000000 0.000000
# 4 0.000000 0.000000 0.000000 0.005837 0.000000 0.000000
# 5 0.000000 0.000000 0.000000 0.000000 0.020863 0.000000
# 6 0.000000 0.000000 0.000000 0.000000 0.000000 0.031653
#
#
# Mechanical properties :
#
#
# Convention : Reuss Voigt Hill
#
# Bulk Modulus (GPa) = 106.93400 110.07862 108.50631
# Shear Modulus (GPa) = 46.81935 67.56860 57.19398
#
# Velocity S-wave (km/s) = 4.87378 5.85499 5.38677
# Velocity P-wave (km/s) = 9.26955 10.07750 9.68196
#
# Compressibility (1/GPa) = 0.00935156
#
# Stress axis : x y z
#
# Youngs Moduli (GPa) = 125.10057 115.57568 93.53329
#
# Poissons Ratio (x) = 0.26405 0.18209
# Poissons Ratio (y) = 0.28581 0.44535
# Poissons Ratio (z) = 0.24355 0.55030
#
# Static dielectric constant tensor:
#      x y z
#    x 1.639720 0.000000 0.000000 
#    y 0.000000 1.587550 0.000000 
#    z 0.000000 0.000000 1.724070 
# 
# From -- ./inp_files/66919.got.cif
#   From: 2010.05.17/outbox.ucp.g08.bks.cvg/sg65_34_cif.got.tgz:66919.got - 2010.06.11 16:39:57.
