data_PCOD9494078
_publ_section_title
;
Structure prediction by ZEFSAII (Michael W. Deem and Ramdas Pophale) SiO2 
 PCOD9494078
Probable space group: C M M M
;
_chemical_formula_sum "Si O2"
_cell_formula_units_Z 72
_cell_length_a 18.981834
_cell_length_b 8.487530
_cell_length_c 24.011950
_cell_angle_alpha 90.000000
_cell_angle_beta 90.000000
_cell_angle_gamma 90.000000
_cell_volume 3868.538504
_symmetry_space_group_name_H-M "C M M M"
_symmetry_group_IT_number 65
_symmetry_cell_setting 'orthorhombic'
loop_
_space_group_symop_operation_xyz
x,y,z
-x,-y,z
x,-y,-z
-x,y,-z
-x,-y,-z
x,y,-z
-x,y,z
x,-y,z
1/2+x,1/2+y,z
1/2-x,1/2-y,z
1/2+x,1/2-y,-z
1/2-x,1/2+y,-z
1/2-x,1/2-y,-z
1/2+x,1/2+y,-z
1/2-x,1/2+y,z
1/2+x,1/2-y,z
loop_
_atom_site_type_symbol
_atom_site_label
_atom_site_fract_x
_atom_site_fract_y
_atom_site_fract_z
Si Si1 0.417113 0.309642 0.208308
Si Si2 0.329638 0.690538 0.438595
Si Si3 0.918563 0.811077 0.000000
Si Si4 0.329720 0.813008 0.895481
Si Si5 0.081109 0.808002 0.333589
O O1 0.500000 0.269192 0.199897
O O2 0.412490 0.500000 0.204853
O O3 0.367635 0.236610 0.161760
O O4 0.396579 0.260683 0.271245
O O5 0.357439 0.737746 0.500000
O O6 0.329718 0.500000 0.437166
O O7 0.250000 0.750000 0.434647
O O8 0.373115 0.748354 0.385435
O O9 0.876650 0.754108 0.945798
O O10 0.000000 0.755568 0.000000
O O11 0.919560 0.000000 0.000000
O O12 0.250000 0.750000 0.898095
O O13 0.327675 0.000000 0.900056
O O14 0.000000 0.761002 0.340900
O O15 0.082686 0.000000 0.333890
#
# Coordination Sequence:
#
# PCOD9494078 Si02
#       5
#    16  16   8  16  16
#     4   9  18  35  57  79 107 142 178 218 268 324
#     4   9  17  29  46  69  98 132 170 213 261 313
#     4  11  24  43  66  89 115 147 180 215 262 317
#     4  12  25  40  59  84 115 146 181 224 266 311
#     4   8  15  29  50  75 101 131 170 216 262 309
#
# _framework density 18.61168
#
# number of rings (size 3 to 8) (size 9 to 14) (size 15 to 20)
#    0.000    2.333    0.000    4.667    0.000    5.333 
#    0.000    5.556    0.000    2.000    0.000    3.111 
#    0.000    0.000    0.000    0.000    0.000    0.000 
#
# Total GULP energy -200889.100891 kJ/mol
# GULP energy per Si atom -5580.252803 kJ/mol
# Density = 1.856932 g / cm^3
# Si number density = 18.611680 Si / 1000 Ang^3
#
#
#
# Elastic Constant Matrix: (Units=GPa)
#
#
# Indices 1 2 3 4 5 6 
#
# 1 127.6073 37.6221 119.2133 0.0000 0.0000 0.0000
# 2 37.6221 44.1073 41.2259 0.0000 0.0000 0.0000
# 3 119.2133 41.2259 208.5271 0.0000 0.0000 0.0000
# 4 0.0000 0.0000 0.0000 8.5038 0.0000 0.0000
# 5 0.0000 0.0000 0.0000 0.0000 66.3675 0.0000
# 6 0.0000 0.0000 0.0000 0.0000 0.0000 23.7800
#
#
#
# Elastic Compliance Matrix: (Units=1/GPa)
#
#
# Indices 1 2 3 4 5 6 
#
# 1 0.018532 -0.007243 -0.009163 0.000000 0.000000 0.000000
# 2 -0.007243 0.030642 -0.001917 0.000000 0.000000 0.000000
# 3 -0.009163 -0.001917 0.010413 0.000000 0.000000 0.000000
# 4 0.000000 0.000000 0.000000 0.117595 0.000000 0.000000
# 5 0.000000 0.000000 0.000000 0.000000 0.015068 0.000000
# 6 0.000000 0.000000 0.000000 0.000000 0.000000 0.042052
#
#
# Mechanical properties :
#
#
# Convention : Reuss Voigt Hill
#
# Bulk Modulus (GPa) = 43.59003 86.26271 64.92637
# Shear Modulus (GPa) = 17.94728 31.87561 24.91144
#
# Velocity S-wave (km/s) = 3.10869 4.14293 3.66250
# Velocity P-wave (km/s) = 6.02967 8.32673 7.26950
#
# Compressibility (1/GPa) = 0.02294103
#
# Stress axis : x y z
#
# Youngs Moduli (GPa) = 53.96123 32.63501 96.03639
#
# Poissons Ratio (x) = 0.23638 0.87994
# Poissons Ratio (y) = 0.39084 0.18412
# Poissons Ratio (z) = 0.49442 0.06257
#
# Static dielectric constant tensor:
#      x y z
#    x 1.611530 0.000000 0.000000 
#    y 0.000000 1.635950 0.000000 
#    z 0.000000 0.000000 1.655850 
# 
# From -- ./inp_files/70357.got.cif
#   From: 2010.05.17/outbox.cif.g08.bks.cpg/sg65_36_cif.got.tgz:70357.got - 2010.06.03 17:01:31.
