data_PCOD9494407
_publ_section_title
;
Structure prediction by ZEFSAII (Michael W. Deem and Ramdas Pophale) SiO2 
 PCOD9494407
Probable space group: C M M M
;
_chemical_formula_sum "Si O2"
_cell_formula_units_Z 104
_cell_length_a 21.452442
_cell_length_b 32.824181
_cell_length_c 7.397981
_cell_angle_alpha 90.000000
_cell_angle_beta 90.000000
_cell_angle_gamma 90.000000
_cell_volume 5209.353713
_symmetry_space_group_name_H-M "C M M M"
_symmetry_group_IT_number 65
_symmetry_cell_setting 'orthorhombic'
loop_
_space_group_symop_operation_xyz
x,y,z
-x,-y,z
x,-y,-z
-x,y,-z
-x,-y,-z
x,y,-z
-x,y,z
x,-y,z
1/2+x,1/2+y,z
1/2-x,1/2-y,z
1/2+x,1/2-y,-z
1/2-x,1/2+y,-z
1/2-x,1/2-y,-z
1/2+x,1/2+y,-z
1/2-x,1/2+y,z
1/2+x,1/2-y,z
loop_
_atom_site_type_symbol
_atom_site_label
_atom_site_fract_x
_atom_site_fract_y
_atom_site_fract_z
Si Si1 0.370212 0.916198 0.280481
Si Si2 0.320722 0.171858 0.792917
Si Si3 0.757383 0.044714 0.716818
Si Si4 0.693780 0.365912 0.784766
Si Si5 0.000000 0.546637 0.279383
Si Si6 0.568930 0.675895 0.220089
Si Si7 0.430144 0.770910 0.779662
O O1 0.369512 0.914235 0.500000
O O2 0.355148 0.871594 0.209014
O O3 0.313641 0.945741 0.225452
O O4 0.437036 0.931663 0.220921
O O5 0.252931 0.160253 0.712491
O O6 0.370688 0.203474 0.713450
O O7 0.309682 0.185289 0.000000
O O8 0.757181 0.042770 0.500000
O O9 0.795065 0.085844 0.760498
O O10 0.777812 0.000000 0.783470
O O11 0.627597 0.350155 0.715677
O O12 0.694525 0.359265 0.000000
O O13 0.000000 0.500000 0.222363
O O14 0.000000 0.546969 0.500000
O O15 0.500000 0.662287 0.279348
O O16 0.576283 0.723427 0.268771
O O17 0.568763 0.674493 0.000000
O O18 0.500000 0.784754 0.722450
O O19 0.430039 0.773439 0.000000
#
# Coordination Sequence:
#
# PCOD9494407 Si02
#       7
#    16  16  16  16   8  16  16
#     4   9  17  28  42  60  82 110 144 181 216 249
#     4   9  17  27  40  62  89 114 142 176 214 251
#     4   9  17  30  47  64  84 113 145 173 207 258
#     4   9  17  28  44  68  91 109 137 180 221 251
#     4   9  16  26  41  59  77 103 145 189 219 245
#     4   8  14  26  44  65  88 113 142 175 212 254
#     4   8  14  24  39  60  86 118 150 175 204 248
#
# _framework density 19.964089000000001
#
# number of rings (size 3 to 8) (size 9 to 14) (size 15 to 20)
#    0.000    3.308    0.000    1.385    1.077    2.769 
#    0.000    3.077    0.000    3.692    0.000    9.692 
#    0.000    0.000    0.000    0.000    0.000    0.000 
#
# Total GULP energy -289816.111704 kJ/mol
# GULP energy per Si atom -5573.386764 kJ/mol
# Density = 1.991865 g / cm^3
# Si number density = 19.964089 Si / 1000 Ang^3
#
#
#
# Elastic Constant Matrix: (Units=GPa)
#
#
# Indices 1 2 3 4 5 6 
#
# 1 202.8343 106.6529 7.9673 0.0000 0.0000 0.0000
# 2 106.6529 90.8015 0.8873 0.0000 0.0000 0.0000
# 3 7.9673 0.8873 67.0803 0.0000 0.0000 0.0000
# 4 0.0000 0.0000 0.0000 14.0856 0.0000 0.0000
# 5 0.0000 0.0000 0.0000 0.0000 -8.4066 0.0000
# 6 0.0000 0.0000 0.0000 0.0000 0.0000 14.7105
#
#
#
# Elastic Compliance Matrix: (Units=1/GPa)
#
#
# Indices 1 2 3 4 5 6 
#
# 1 0.013013 -0.015271 -0.001344 0.000000 0.000000 0.000000
# 2 -0.015271 0.028936 0.001431 0.000000 0.000000 0.000000
# 3 -0.001344 0.001431 0.015048 0.000000 0.000000 0.000000
# 4 0.000000 0.000000 0.000000 0.070995 0.000000 0.000000
# 5 0.000000 0.000000 0.000000 0.000000 -0.118954 0.000000
# 6 0.000000 0.000000 0.000000 0.000000 0.000000 0.067979
#
#
# Mechanical properties :
#
#
# Convention : Reuss Voigt Hill
#
# Bulk Modulus (GPa) = 37.55218 65.74790 51.65004
# Shear Modulus (GPa) = 43.00666 20.42512 31.71589
#
# Velocity S-wave (km/s) = 4.64637 3.20205 3.99011
# Velocity P-wave (km/s) = 6.90186 6.83194 6.86699
#
# Compressibility (1/GPa) = 0.02662961
#
# Stress axis : x y z
#
# Youngs Moduli (GPa) = 76.84771 34.55870 66.45336
#
# Poissons Ratio (x) = 0.52776 0.08928
# Poissons Ratio (y) = 1.17356 -0.09510
# Poissons Ratio (z) = 0.10325 -0.04946
#
# Static dielectric constant tensor:
#      x y z
#    x 1.714290 0.000000 0.000000 
#    y 0.000000 1.677670 0.000000 
#    z 0.000000 0.000000 1.794470 
# 
# From -- ./inp_files/27682.got.cif
#   From: 2010.05.17/outbox.cif.g08.bks.cpg/sg65_14_cif.got.tgz:27682.got - 2010.06.03 17:01:31.
