data_PCOD9494238
_publ_section_title
;
Structure prediction by ZEFSAII (Michael W. Deem and Ramdas Pophale) SiO2 
 PCOD9494238
Probable space group: C M M M
;
_chemical_formula_sum "Si O2"
_cell_formula_units_Z 88
_cell_length_a 14.659977
_cell_length_b 14.856233
_cell_length_c 20.062853
_cell_angle_alpha 90.000000
_cell_angle_beta 90.000000
_cell_angle_gamma 90.000000
_cell_volume 4369.529564
_symmetry_space_group_name_H-M "C M M M"
_symmetry_group_IT_number 65
_symmetry_cell_setting 'orthorhombic'
loop_
_space_group_symop_operation_xyz
x,y,z
-x,-y,z
x,-y,-z
-x,y,-z
-x,-y,-z
x,y,-z
-x,y,z
x,-y,z
1/2+x,1/2+y,z
1/2-x,1/2-y,z
1/2+x,1/2-y,-z
1/2-x,1/2+y,-z
1/2-x,1/2-y,-z
1/2+x,1/2+y,-z
1/2-x,1/2+y,z
1/2+x,1/2-y,z
loop_
_atom_site_type_symbol
_atom_site_label
_atom_site_fract_x
_atom_site_fract_y
_atom_site_fract_z
Si Si1 0.639397 0.602403 0.320401
Si Si2 0.390997 0.193870 0.074527
Si Si3 0.639032 0.752651 0.423989
Si Si4 0.641569 0.744712 0.214259
Si Si5 0.896706 0.500000 0.919148
Si Si6 0.361817 0.103297 0.685574
O O1 0.608268 0.500000 0.322781
O O2 0.612325 0.662807 0.383851
O O3 0.608834 0.659168 0.256016
O O4 0.750653 0.600663 0.316939
O O5 0.500000 0.181175 0.069163
O O6 0.376442 0.259268 0.135980
O O7 0.351840 0.095806 0.096233
O O8 0.358690 0.218233 0.000000
O O9 0.607941 0.756089 0.500000
O O10 0.750000 0.750000 0.424769
O O11 0.611385 0.838705 0.379535
O O12 0.750000 0.750000 0.222257
O O13 0.608406 0.835981 0.251154
O O14 0.000000 0.500000 0.891293
O O15 0.903398 0.500000 0.000000
O O16 0.392757 0.000000 0.687449
#
# Coordination Sequence:
#
# PCOD9494238 Si02
#       6
#    16  16  16  16   8  16
#     4   8  14  25  37  51  77 109 141 178 215 246
#     4   9  17  29  45  64  87 112 136 169 216 261
#     4   8  13  20  31  51  78 108 144 175 202 247
#     4   9  17  27  41  62  83 111 146 177 206 250
#     4   7  12  24  40  60  84 106 126 152 198 258
#     4   8  14  23  35  53  80 112 139 167 210 254
#
# _framework density 20.139468000000001
#
# number of rings (size 3 to 8) (size 9 to 14) (size 15 to 20)
#    0.000    3.727    0.000    3.273    1.273    1.091 
#    0.000    3.636    0.000    1.091    0.000    1.273 
#    0.000   11.636    0.000   13.091    0.000   14.545 
#
# Total GULP energy -245054.194016 kJ/mol
# GULP energy per Si atom -5569.413500 kJ/mol
# Density = 2.009363 g / cm^3
# Si number density = 20.139468 Si / 1000 Ang^3
#
#
#
# Elastic Constant Matrix: (Units=GPa)
#
#
# Indices 1 2 3 4 5 6 
#
# 1 59.4651 6.2938 -1.3685 0.0000 0.0000 0.0000
# 2 6.2938 169.0080 92.0344 0.0000 0.0000 0.0000
# 3 -1.3685 92.0344 176.2102 0.0000 0.0000 0.0000
# 4 0.0000 0.0000 0.0000 12.5678 0.0000 0.0000
# 5 0.0000 0.0000 0.0000 0.0000 32.5925 0.0000
# 6 0.0000 0.0000 0.0000 0.0000 0.0000 -10.1443
#
#
#
# Elastic Compliance Matrix: (Units=1/GPa)
#
#
# Indices 1 2 3 4 5 6 
#
# 1 0.016935 -0.000981 0.000644 0.000000 0.000000 0.000000
# 2 -0.000981 0.008326 -0.004356 0.000000 0.000000 0.000000
# 3 0.000644 -0.004356 0.007955 0.000000 0.000000 0.000000
# 4 0.000000 0.000000 0.000000 0.079568 0.000000 0.000000
# 5 0.000000 0.000000 0.000000 0.000000 0.030682 0.000000
# 6 0.000000 0.000000 0.000000 0.000000 0.000000 -0.098577
#
#
# Mechanical properties :
#
#
# Convention : Reuss Voigt Hill
#
# Bulk Modulus (GPa) = 41.96511 66.51141 54.23826
# Shear Modulus (GPa) = 80.36177 27.51810 53.93994
#
# Velocity S-wave (km/s) = 6.32371 3.70046 5.18086
# Velocity P-wave (km/s) = 8.61403 7.16624 7.92327
#
# Compressibility (1/GPa) = 0.02382932
#
# Stress axis : x y z
#
# Youngs Moduli (GPa) = 59.04836 120.11230 125.70394
#
# Poissons Ratio (x) = 0.11788 -0.08097
# Poissons Ratio (y) = 0.05795 0.54757
# Poissons Ratio (z) = -0.03803 0.52321
#
# Static dielectric constant tensor:
#      x y z
#    x 1.786470 0.000000 0.000000 
#    y 0.000000 1.726890 0.000000 
#    z 0.000000 0.000000 1.711680 
# 
# From -- ./inp_files/53435.got.cif
#   From: 2010.05.17/outbox.cif.g08.bks.cpg/sg65_27_cif.got.tgz:53435.got - 2010.06.03 17:01:31.
