data_PCOD9494235
_publ_section_title
;
Structure prediction by ZEFSAII (Michael W. Deem and Ramdas Pophale) SiO2 
 PCOD9494235
Probable space group: C M M M
;
_chemical_formula_sum "Si O2"
_cell_formula_units_Z 88
_cell_length_a 28.586873
_cell_length_b 7.505848
_cell_length_c 19.698651
_cell_angle_alpha 90.000000
_cell_angle_beta 90.000000
_cell_angle_gamma 90.000000
_cell_volume 4226.714400
_symmetry_space_group_name_H-M "C M M M"
_symmetry_group_IT_number 65
_symmetry_cell_setting 'orthorhombic'
loop_
_space_group_symop_operation_xyz
x,y,z
-x,-y,z
x,-y,-z
-x,y,-z
-x,-y,-z
x,y,-z
-x,y,z
x,-y,z
1/2+x,1/2+y,z
1/2-x,1/2-y,z
1/2+x,1/2-y,-z
1/2-x,1/2+y,-z
1/2-x,1/2-y,-z
1/2+x,1/2+y,-z
1/2-x,1/2+y,z
1/2+x,1/2-y,z
loop_
_atom_site_type_symbol
_atom_site_label
_atom_site_fract_x
_atom_site_fract_y
_atom_site_fract_z
Si Si1 0.107202 0.217477 0.923282
Si Si2 0.196706 0.212862 0.160856
Si Si3 0.898518 0.287445 0.576250
Si Si4 0.448120 0.717152 0.792592
Si Si5 0.642546 0.713566 0.288511
Si Si6 0.000000 0.295770 0.582759
O O1 0.157038 0.276405 0.891621
O O2 0.067704 0.267795 0.868731
O O3 0.107571 0.000000 0.924703
O O4 0.100328 0.279124 0.000000
O O5 0.250000 0.250000 0.143125
O O6 0.182444 0.277967 0.236550
O O7 0.191962 0.000000 0.161630
O O8 0.888445 0.221681 0.500000
O O9 0.904884 0.500000 0.571313
O O10 0.859206 0.257606 0.632454
O O11 0.949520 0.213801 0.600168
O O12 0.500000 0.778885 0.775127
O O13 0.448327 0.500000 0.790223
O O14 0.406571 0.778218 0.743617
O O15 0.642711 0.500000 0.284844
O O16 0.000000 0.500000 0.607730
O O17 0.000000 0.299918 0.500000
#
# Coordination Sequence:
#
# PCOD9494235 Si02
#       6
#    16  16  16  16  16   8
#     4   8  14  25  41  63  91 119 148 184 223 262
#     4   9  18  32  48  67  91 117 147 186 231 274
#     4   9  17  29  45  65  90 120 153 187 221 260
#     4   8  14  24  38  59  89 123 154 182 215 258
#     4   9  18  30  44  65  92 119 148 187 230 268
#     4   7  12  24  39  57  85 117 144 173 210 248
#
# _framework density 20.819953999999999
#
# number of rings (size 3 to 8) (size 9 to 14) (size 15 to 20)
#    0.000    3.545    0.000    3.273    1.273    1.818 
#    0.000    1.818    0.000    2.182    0.000    0.000 
#    0.000    0.000    0.000    8.000    0.000    8.000 
#
# Total GULP energy -245165.804564 kJ/mol
# GULP energy per Si atom -5571.950104 kJ/mol
# Density = 2.077257 g / cm^3
# Si number density = 20.819954 Si / 1000 Ang^3
#
#
#
# Elastic Constant Matrix: (Units=GPa)
#
#
# Indices 1 2 3 4 5 6 
#
# 1 31.3878 -2.7281 -22.5413 0.0000 0.0000 0.0000
# 2 -2.7281 53.9521 -1.4843 0.0000 0.0000 0.0000
# 3 -22.5413 -1.4843 72.9614 0.0000 0.0000 0.0000
# 4 0.0000 0.0000 0.0000 18.9122 0.0000 0.0000
# 5 0.0000 0.0000 0.0000 0.0000 16.6755 0.0000
# 6 0.0000 0.0000 0.0000 0.0000 0.0000 -77.3863
#
#
#
# Elastic Compliance Matrix: (Units=1/GPa)
#
#
# Indices 1 2 3 4 5 6 
#
# 1 0.041262 0.002439 0.012797 0.000000 0.000000 0.000000
# 2 0.002439 0.018689 0.001134 0.000000 0.000000 0.000000
# 3 0.012797 0.001134 0.017683 0.000000 0.000000 0.000000
# 4 0.000000 0.000000 0.000000 0.052876 0.000000 0.000000
# 5 0.000000 0.000000 0.000000 0.000000 0.059968 0.000000
# 6 0.000000 0.000000 0.000000 0.000000 0.000000 -0.012922
#
#
# Mechanical properties :
#
#
# Convention : Reuss Voigt Hill
#
# Bulk Modulus (GPa) = 9.06015 11.64375 10.35195
# Shear Modulus (GPa) = 27.53181 3.97727 15.75454
#
# Velocity S-wave (km/s) = 3.64039 1.38364 2.75381
# Velocity P-wave (km/s) = 4.69373 2.85611 3.88513
#
# Compressibility (1/GPa) = 0.11037340
#
# Stress axis : x y z
#
# Youngs Moduli (GPa) = 24.23532 53.50609 56.55246
#
# Poissons Ratio (x) = -0.13048 -0.72373
# Poissons Ratio (y) = -0.05910 -0.06411
# Poissons Ratio (z) = -0.31015 -0.06065
#
# Static dielectric constant tensor:
#      x y z
#    x 1.752120 0.000000 0.000000 
#    y 0.000000 1.819500 0.000000 
#    z 0.000000 0.000000 1.768840 
# 
# From -- ./inp_files/50444.got.cif
#   From: 2010.05.17/outbox.cif.g08.bks.cpg/sg65_26_cif.got.tgz:50444.got - 2010.06.03 17:01:31.
