data_PCOD9494218
_publ_section_title
;
Structure prediction by ZEFSAII (Michael W. Deem and Ramdas Pophale) SiO2 
 PCOD9494218
Probable space group: C M M M
;
_chemical_formula_sum "Si O2"
_cell_formula_units_Z 72
_cell_length_a 7.330117
_cell_length_b 14.542558
_cell_length_c 27.537775
_cell_angle_alpha 90.000000
_cell_angle_beta 90.000000
_cell_angle_gamma 90.000000
_cell_volume 2935.489684
_symmetry_space_group_name_H-M "C M M M"
_symmetry_group_IT_number 65
_symmetry_cell_setting 'orthorhombic'
loop_
_space_group_symop_operation_xyz
x,y,z
-x,-y,z
x,-y,-z
-x,y,-z
-x,-y,-z
x,y,-z
-x,y,z
x,-y,z
1/2+x,1/2+y,z
1/2-x,1/2-y,z
1/2+x,1/2-y,-z
1/2-x,1/2+y,-z
1/2-x,1/2-y,-z
1/2+x,1/2+y,-z
1/2-x,1/2+y,z
1/2+x,1/2-y,z
loop_
_atom_site_type_symbol
_atom_site_label
_atom_site_fract_x
_atom_site_fract_y
_atom_site_fract_z
Si Si1 0.500000 0.887465 0.444794
Si Si2 0.290646 0.387394 0.366608
Si Si3 0.222810 0.892591 0.738623
Si Si4 0.706428 0.390749 0.158395
Si Si5 0.217315 0.858456 0.052062
O O1 0.500000 0.854305 0.500000
O O2 0.672133 0.859223 0.412331
O O3 0.500000 0.000000 0.446537
O O4 0.500000 0.359710 0.371819
O O5 0.287048 0.500000 0.365028
O O6 0.219839 0.355024 0.313725
O O7 0.287123 0.854825 0.790792
O O8 0.000000 0.889261 0.739427
O O9 0.275717 0.000000 0.737431
O O10 0.500000 0.351739 0.154323
O O11 0.691124 0.500000 0.165818
O O12 0.792328 0.382566 0.105167
O O13 0.250000 0.750000 0.049607
O O14 0.000000 0.879836 0.053071
O O15 0.285761 0.895583 0.000000
#
# Coordination Sequence:
#
# PCOD9494218 Si02
#       5
#     8  16  16  16  16
#     4   9  16  22  28  42  64  92 129 167 195 227
#     4   8  13  21  32  44  61  89 122 158 201 243
#     4   7  10  18  33  51  68  87 114 154 203 244
#     4   8  13  22  39  62  81  97 129 179 218 244
#     4   9  17  28  42  59  80 109 139 166 201 251
#
# _framework density 24.527425999999998
#
# number of rings (size 3 to 8) (size 9 to 14) (size 15 to 20)
#    0.000    3.889    0.000    2.667    0.000    0.889 
#    0.000    4.444    2.444    0.667    0.000    3.111 
#    0.000    0.000    0.000    0.000    0.000    1.111 
#
# Total GULP energy -200593.645409 kJ/mol
# GULP energy per Si atom -5572.045706 kJ/mol
# Density = 2.447160 g / cm^3
# Si number density = 24.527426 Si / 1000 Ang^3
#
#
#
# Elastic Constant Matrix: (Units=GPa)
#
#
# Indices 1 2 3 4 5 6 
#
# 1 111.8735 -6.5731 74.3169 0.0000 0.0000 0.0000
# 2 -6.5731 68.4152 9.2946 0.0000 0.0000 0.0000
# 3 74.3169 9.2946 363.4224 0.0000 0.0000 0.0000
# 4 0.0000 0.0000 0.0000 56.4854 0.0000 0.0000
# 5 0.0000 0.0000 0.0000 0.0000 77.7763 0.0000
# 6 0.0000 0.0000 0.0000 0.0000 0.0000 -2.2281
#
#
#
# Elastic Compliance Matrix: (Units=1/GPa)
#
#
# Indices 1 2 3 4 5 6 
#
# 1 0.010458 0.001300 -0.002172 0.000000 0.000000 0.000000
# 2 0.001300 0.014829 -0.000645 0.000000 0.000000 0.000000
# 3 -0.002172 -0.000645 0.003212 0.000000 0.000000 0.000000
# 4 0.000000 0.000000 0.000000 0.017704 0.000000 0.000000
# 5 0.000000 0.000000 0.000000 0.000000 0.012857 0.000000
# 6 0.000000 0.000000 0.000000 0.000000 0.000000 -0.448804
#
#
# Mechanical properties :
#
#
# Convention : Reuss Voigt Hill
#
# Bulk Modulus (GPa) = 39.26951 77.53197 58.40074
# Shear Modulus (GPa) = -13.21976 57.51823 22.14924
#
# Velocity S-wave (km/s) = -2.32411 4.84783 3.00832
# Velocity P-wave (km/s) = 2.97376 7.93815 5.99406
#
# Compressibility (1/GPa) = 0.02546505
#
# Stress axis : x y z
#
# Youngs Moduli (GPa) = 95.62312 67.43478 311.31089
#
# Poissons Ratio (x) = -0.08765 0.67609
# Poissons Ratio (y) = -0.12429 0.20081
# Poissons Ratio (z) = 0.20767 0.04350
#
# Static dielectric constant tensor:
#      x y z
#    x 1.805490 0.000000 0.000000 
#    y 0.000000 1.961220 0.000000 
#    z 0.000000 0.000000 1.996970 
# 
# From -- ./inp_files/59500.got.cif
#   From: 2010.05.17/outbox.cif.g08.bks.cpg/sg65_30_cif.got.tgz:59500.got - 2010.06.03 17:01:31.
