data_PCOD9494677
_publ_section_title
;
Structure prediction by ZEFSAII (Michael W. Deem and Ramdas Pophale) SiO2 
 PCOD9494677
Probable space group: C M M M
;
_chemical_formula_sum "Si O2"
_cell_formula_units_Z 40
_cell_length_a 18.000000
_cell_length_b 9.000000
_cell_length_c 27.000000
_cell_angle_alpha 90.000000
_cell_angle_beta 90.000000
_cell_angle_gamma 90.000000
_cell_volume 4374.000000
_symmetry_space_group_name_H-M "C M M M"
_symmetry_group_IT_number 65
_symmetry_cell_setting 'orthorhombic'
loop_
_space_group_symop_operation_xyz
x,y,z
-x,-y,z
x,-y,-z
-x,y,-z
-x,-y,-z
x,y,-z
-x,y,z
x,-y,z
1/2+x,1/2+y,z
1/2-x,1/2-y,z
1/2+x,1/2-y,-z
1/2-x,1/2+y,-z
1/2-x,1/2-y,-z
1/2+x,1/2+y,-z
1/2-x,1/2+y,z
1/2+x,1/2-y,z
loop_
_atom_site_type_symbol
_atom_site_label
_atom_site_fract_x
_atom_site_fract_y
_atom_site_fract_z
Si Si1 0.410802 0.673448 0.554844
Si Si2 0.909637 0.326379 0.945415
Si Si3 0.910418 0.829918 0.154481
Si Si4 0.831075 0.677018 0.755404
Si Si5 0.330801 0.823235 0.645330
O O1 0.385854 0.724466 0.500000
O O2 0.500000 0.680410 0.555530
O O3 0.389639 0.500000 0.559997
O O4 0.378961 0.764457 0.600187
O O5 0.890084 0.500000 0.940108
O O6 0.883609 0.235141 0.898061
O O7 0.000000 0.319422 0.945501
O O8 0.884978 0.274162 0.000000
O O9 0.881042 0.736350 0.200383
O O10 0.000000 0.825383 0.154089
O O11 0.886453 0.000000 0.159897
O O12 0.824113 0.500000 0.758490
O O13 0.750000 0.750000 0.759659
O O14 0.860911 0.714901 0.700307
O O15 0.250000 0.750000 0.641641
O O16 0.323750 0.000000 0.642626
#
# Coordination Sequence:
#
# PCOD9494677 Si02
#       5
#    16  16  16  16  16
#     4   9  19  36  56  78 106 139 171 205 250 301
#     4   8  14  26  45  69  98 132 168 207 252 298
#     4  10  20  32  49  76 106 135 170 210 251 299
#     4  10  21  37  55  74 100 134 171 211 256 306
#     4  10  21  36  55  78 102 132 171 213 255 300
#
# _framework density 9.1449470000000002
#
# number of rings (size 3 to 8) (size 9 to 14) (size 15 to 20)
#    0.000    2.600    0.000    3.000    0.000    6.000 
#    0.000    7.000    0.000    0.600    0.000    0.000 
#    0.000    0.000    0.000    0.000    0.000    0.000 
#
# Total GULP energy -222995.117774 kJ/mol
# GULP energy per Si atom -5574.877944 kJ/mol
# Density = 0.912413 g / cm^3
# Si number density = 9.144947 Si / 1000 Ang^3
#
#
#
# Elastic Constant Matrix: (Units=GPa)
#
#
# Indices 1 2 3 4 5 6 
#
# 1 8.3845 22.4062 36.3070 0.0000 0.0000 0.0000
# 2 22.4062 80.2972 86.9218 0.0000 0.0000 0.0000
# 3 36.3070 86.9218 182.4332 0.0000 0.0000 0.0000
# 4 0.0000 0.0000 0.0000 29.7329 0.0000 0.0000
# 5 0.0000 0.0000 0.0000 0.0000 37.5518 0.0000
# 6 0.0000 0.0000 0.0000 0.0000 0.0000 25.5276
#
#
#
# Elastic Compliance Matrix: (Units=1/GPa)
#
#
# Indices 1 2 3 4 5 6 
#
# 1 2.049274 -0.269181 -0.279583 0.000000 0.000000 0.000000
# 2 -0.269181 0.061077 0.024471 0.000000 0.000000 0.000000
# 3 -0.279583 0.024471 0.049463 0.000000 0.000000 0.000000
# 4 0.000000 0.000000 0.000000 0.033633 0.000000 0.000000
# 5 0.000000 0.000000 0.000000 0.000000 0.026630 0.000000
# 6 0.000000 0.000000 0.000000 0.000000 0.000000 0.039173
#
#
# Mechanical properties :
#
#
# Convention : Reuss Voigt Hill
#
# Bulk Modulus (GPa) = 0.89991 62.48720 31.69355
# Shear Modulus (GPa) = 1.35934 26.92781 14.14358
#
# Velocity S-wave (km/s) = 0.86304 3.84119 2.78384
# Velocity P-wave (km/s) = 1.21910 7.34248 5.26300
#
# Compressibility (1/GPa) = 1.11122686
#
# Stress axis : x y z
#
# Youngs Moduli (GPa) = 0.48798 16.37288 20.21695
#
# Poissons Ratio (x) = 4.40727 5.65232
# Poissons Ratio (y) = 0.13135 -0.49472
# Poissons Ratio (z) = 0.13643 -0.40066
#
# Static dielectric constant tensor:
#      x y z
#    x 1.609790 0.000000 0.000000 
#    y 0.000000 1.614970 0.000000 
#    z 0.000000 0.000000 1.640780 
# 
# From -- ./inp_files/72752.got.cif
#   From: 2010.05.17/outbox.ucp.g08.bks.cvg/sg65_37_cif.got.tgz:72752.got - 2010.06.11 16:39:57.
