data_PCOD9494079
_publ_section_title
;
Structure prediction by ZEFSAII (Michael W. Deem and Ramdas Pophale) SiO2 
 PCOD9494079
Probable space group: C M M M
;
_chemical_formula_sum "Si O2"
_cell_formula_units_Z 88
_cell_length_a 18.628585
_cell_length_b 8.722232
_cell_length_c 29.665499
_cell_angle_alpha 90.000000
_cell_angle_beta 90.000000
_cell_angle_gamma 90.000000
_cell_volume 4820.134534
_symmetry_space_group_name_H-M "C M M M"
_symmetry_group_IT_number 65
_symmetry_cell_setting 'orthorhombic'
loop_
_space_group_symop_operation_xyz
x,y,z
-x,-y,z
x,-y,-z
-x,y,-z
-x,-y,-z
x,y,-z
-x,y,z
x,-y,z
1/2+x,1/2+y,z
1/2-x,1/2-y,z
1/2+x,1/2-y,-z
1/2-x,1/2+y,-z
1/2-x,1/2-y,-z
1/2+x,1/2+y,-z
1/2-x,1/2+y,z
1/2+x,1/2-y,z
loop_
_atom_site_type_symbol
_atom_site_label
_atom_site_fract_x
_atom_site_fract_y
_atom_site_fract_z
Si Si1 0.917243 0.684399 0.136660
Si Si2 0.169954 0.314694 0.049732
Si Si3 0.330231 0.816726 0.585331
Si Si4 0.087096 0.178843 0.770007
Si Si5 0.915326 0.815753 0.500000
Si Si6 0.415088 0.314207 0.330102
O O1 0.917006 0.500000 0.136190
O O2 0.874888 0.739531 0.092753
O O3 0.887305 0.737617 0.184968
O O4 0.000000 0.736134 0.133579
O O5 0.172490 0.500000 0.051300
O O6 0.250000 0.250000 0.052646
O O7 0.140545 0.272189 0.000000
O O8 0.250000 0.750000 0.582855
O O9 0.376682 0.751763 0.543892
O O10 0.368467 0.761857 0.631172
O O11 0.327664 0.000000 0.583191
O O12 0.109048 0.234425 0.720305
O O13 0.000000 0.189908 0.769495
O O14 0.105612 0.000000 0.773603
O O15 0.000000 0.778440 0.500000
O O16 0.908293 0.000000 0.500000
O O17 0.500000 0.277927 0.335705
O O18 0.409260 0.500000 0.332470
#
# Coordination Sequence:
#
# PCOD9494079 Si02
#       6
#    16  16  16  16   8  16
#     4   9  17  29  47  72  99 126 161 207 254 299
#     4   9  18  32  48  66  91 125 163 202 248 303
#     4  12  25  40  59  84 116 149 183 224 269 315
#     4   8  15  29  50  75 103 135 168 205 252 305
#     4  11  24  43  66  89 115 147 182 221 266 317
#     4   9  18  35  58  82 109 142 180 219 262 314
#
# _framework density 18.256751999999999
#
# number of rings (size 3 to 8) (size 9 to 14) (size 15 to 20)
#    0.000    2.455    0.000    3.818    0.000    5.091 
#    0.000    4.545    0.000    2.182    0.000    5.091 
#    0.000    0.000    0.000    0.000    0.000    0.000 
#
# Total GULP energy -245383.507080 kJ/mol
# GULP energy per Si atom -5576.897888 kJ/mol
# Density = 1.821520 g / cm^3
# Si number density = 18.256752 Si / 1000 Ang^3
#
#
#
# Elastic Constant Matrix: (Units=GPa)
#
#
# Indices 1 2 3 4 5 6 
#
# 1 86.8664 41.3153 90.4292 0.0000 0.0000 0.0000
# 2 41.3153 47.3123 57.6023 0.0000 0.0000 0.0000
# 3 90.4292 57.6023 222.4857 0.0000 0.0000 0.0000
# 4 0.0000 0.0000 0.0000 31.9691 0.0000 0.0000
# 5 0.0000 0.0000 0.0000 0.0000 -48.1034 0.0000
# 6 0.0000 0.0000 0.0000 0.0000 0.0000 23.4776
#
#
#
# Elastic Compliance Matrix: (Units=1/GPa)
#
#
# Indices 1 2 3 4 5 6 
#
# 1 0.024864 -0.013739 -0.006549 0.000000 0.000000 0.000000
# 2 -0.013739 0.038457 -0.004372 0.000000 0.000000 0.000000
# 3 -0.006549 -0.004372 0.008288 0.000000 0.000000 0.000000
# 4 0.000000 0.000000 0.000000 0.031280 0.000000 0.000000
# 5 0.000000 0.000000 0.000000 0.000000 -0.020789 0.000000
# 6 0.000000 0.000000 0.000000 0.000000 0.000000 0.042594
#
#
# Mechanical properties :
#
#
# Convention : Reuss Voigt Hill
#
# Bulk Modulus (GPa) = 44.86569 81.70645 63.28607
# Shear Modulus (GPa) = 27.55645 12.62316 20.08980
#
# Velocity S-wave (km/s) = 3.88929 2.63235 3.32083
# Velocity P-wave (km/s) = 6.69306 7.35461 7.03162
#
# Compressibility (1/GPa) = 0.02228875
#
# Stress axis : x y z
#
# Youngs Moduli (GPa) = 40.21881 26.00293 120.64968
#
# Poissons Ratio (x) = 0.35726 0.79011
# Poissons Ratio (y) = 0.55258 0.52753
# Poissons Ratio (z) = 0.26339 0.11369
#
# Static dielectric constant tensor:
#      x y z
#    x 1.602860 0.000000 0.000000 
#    y 0.000000 1.618410 0.000000 
#    z 0.000000 0.000000 1.647610 
# 
# From -- ./inp_files/77789.got.cif
#   From: 2010.05.17/outbox.cif.g08.bks.cpg/sg65_39_cif.got.tgz:77789.got - 2010.06.03 17:01:31.
