data_PCOD9494755
_publ_section_title
;
Structure prediction by ZEFSAII (Michael W. Deem and Ramdas Pophale) SiO2 
 PCOD9494755
Probable space group: C M M M
;
_chemical_formula_sum "Si O2"
_cell_formula_units_Z 56
_cell_length_a 24.000000
_cell_length_b 15.000000
_cell_length_c 15.000000
_cell_angle_alpha 90.000000
_cell_angle_beta 90.000000
_cell_angle_gamma 90.000000
_cell_volume 5400.000000
_symmetry_space_group_name_H-M "C M M M"
_symmetry_group_IT_number 65
_symmetry_cell_setting 'orthorhombic'
loop_
_space_group_symop_operation_xyz
x,y,z
-x,-y,z
x,-y,-z
-x,y,-z
-x,-y,-z
x,y,-z
-x,y,z
x,-y,z
1/2+x,1/2+y,z
1/2-x,1/2-y,z
1/2+x,1/2-y,-z
1/2-x,1/2+y,-z
1/2-x,1/2-y,-z
1/2+x,1/2+y,-z
1/2-x,1/2+y,z
1/2+x,1/2-y,z
loop_
_atom_site_type_symbol
_atom_site_label
_atom_site_fract_x
_atom_site_fract_y
_atom_site_fract_z
Si Si1 0.903585 0.601640 0.657586
Si Si2 0.061155 0.210214 0.602712
Si Si3 0.063978 0.602458 0.862095
Si Si4 0.832751 0.101559 0.342529
Si Si5 0.784925 0.607229 0.400572
Si Si6 0.176411 0.701721 0.901119
Si Si7 0.282199 0.396479 0.852782
O O1 0.907724 0.500000 0.621068
O O2 0.931518 0.683106 0.606642
O O3 0.930237 0.600618 0.755172
O O4 0.837718 0.626413 0.661252
O O5 0.062896 0.181894 0.500000
O O6 0.112843 0.161711 0.649014
O O7 0.000000 0.187680 0.640414
O O8 0.074859 0.500000 0.892628
O O9 0.112798 0.669744 0.890938
O O10 0.000000 0.625415 0.886346
O O11 0.777426 0.143467 0.388099
O O12 0.812259 0.095094 0.241624
O O13 0.843862 0.000000 0.375834
O O14 0.804540 0.628854 0.500000
O O15 0.776820 0.500000 0.393175
O O16 0.219260 0.642365 0.842697
O O17 0.186541 0.808448 0.893369
O O18 0.195031 0.675680 0.000000
O O19 0.281488 0.500000 0.889470
#
# Coordination Sequence:
#
# PCOD9494755 Si02
#       7
#    16  16  16  16  16  16  16
#     4  10  20  36  56  79 112 150 188 233 282 332
#     4  11  24  38  54  80 112 150 197 241 283 335
#     4  10  21  37  59  86 115 152 196 237 281 339
#     4  10  21  38  59  81 109 145 186 237 288 332
#     4   9  17  30  51  79 108 139 178 225 279 332
#     4  11  23  38  60  90 123 154 182 226 287 345
#     4  10  21  38  60  87 117 151 193 235 281 342
#
# _framework density 10.370369999999999
#
# number of rings (size 3 to 8) (size 9 to 14) (size 15 to 20)
#    0.000    1.857    0.000    4.286    0.000    9.143 
#    0.000    3.571    0.000    1.286    0.000    1.000 
#    0.000    0.000    0.000    0.000    0.000    0.000 
#
# Total GULP energy -312179.398617 kJ/mol
# GULP energy per Si atom -5574.632118 kJ/mol
# Density = 1.034677 g / cm^3
# Si number density = 10.370370 Si / 1000 Ang^3
#
#
#
# Elastic Constant Matrix: (Units=GPa)
#
#
# Indices 1 2 3 4 5 6 
#
# 1 175.0230 67.1226 30.1526 0.0000 0.0000 0.0000
# 2 67.1226 116.5843 10.8285 0.0000 0.0000 0.0000
# 3 30.1526 10.8285 57.2907 0.0000 0.0000 0.0000
# 4 0.0000 0.0000 0.0000 -52.0809 0.0000 0.0000
# 5 0.0000 0.0000 0.0000 0.0000 -170.3738 0.0000
# 6 0.0000 0.0000 0.0000 0.0000 0.0000 32.6136
#
#
#
# Elastic Compliance Matrix: (Units=1/GPa)
#
#
# Indices 1 2 3 4 5 6 
#
# 1 0.007923 -0.004249 -0.003367 0.000000 0.000000 0.000000
# 2 -0.004249 0.011009 0.000155 0.000000 0.000000 0.000000
# 3 -0.003367 0.000155 0.019197 0.000000 0.000000 0.000000
# 4 0.000000 0.000000 0.000000 -0.019201 0.000000 0.000000
# 5 0.000000 0.000000 0.000000 0.000000 -0.005869 0.000000
# 6 0.000000 0.000000 0.000000 0.000000 0.000000 0.030662
#
#
# Mechanical properties :
#
#
# Convention : Reuss Voigt Hill
#
# Bulk Modulus (GPa) = 43.08670 62.78948 52.93809
# Shear Modulus (GPa) = 75.32511 -21.91528 26.70492
#
# Velocity S-wave (km/s) = 6.03294 -3.25411 3.59215
# Velocity P-wave (km/s) = 8.32751 4.02744 6.54094
#
# Compressibility (1/GPa) = 0.02320902
#
# Stress axis : x y z
#
# Youngs Moduli (GPa) = 126.21362 90.83187 52.09013
#
# Poissons Ratio (x) = 0.38594 0.17538
# Poissons Ratio (y) = 0.53627 -0.00809
# Poissons Ratio (z) = 0.42495 -0.01411
#
# Static dielectric constant tensor:
#      x y z
#    x 1.751200 0.000000 0.000000 
#    y 0.000000 1.750520 0.000000 
#    z 0.000000 0.000000 1.809980 
# 
# From -- ./inp_files/45739.got.cif
#   From: 2010.05.17/outbox.ucp.g08.bks.cvg/sg65_23_cif.got.tgz:45739.got - 2010.06.11 16:39:57.
