data_PCOD9494316
_publ_section_title
;
Structure prediction by ZEFSAII (Michael W. Deem and Ramdas Pophale) SiO2 
 PCOD9494316
Probable space group: C M M M
;
_chemical_formula_sum "Si O2"
_cell_formula_units_Z 88
_cell_length_a 10.041477
_cell_length_b 14.225430
_cell_length_c 28.772754
_cell_angle_alpha 90.000000
_cell_angle_beta 90.000000
_cell_angle_gamma 90.000000
_cell_volume 4110.024714
_symmetry_space_group_name_H-M "C M M M"
_symmetry_group_IT_number 65
_symmetry_cell_setting 'orthorhombic'
loop_
_space_group_symop_operation_xyz
x,y,z
-x,-y,z
x,-y,-z
-x,y,-z
-x,-y,-z
x,y,-z
-x,y,z
x,-y,z
1/2+x,1/2+y,z
1/2-x,1/2-y,z
1/2+x,1/2-y,-z
1/2-x,1/2+y,-z
1/2-x,1/2-y,-z
1/2+x,1/2+y,-z
1/2-x,1/2+y,z
1/2+x,1/2-y,z
loop_
_atom_site_type_symbol
_atom_site_label
_atom_site_fract_x
_atom_site_fract_y
_atom_site_fract_z
Si Si1 0.150595 0.614597 0.418785
Si Si2 0.647763 0.108851 0.154154
Si Si3 0.343978 0.839935 0.050235
Si Si4 0.848941 0.885115 0.231339
Si Si5 0.150279 0.385552 0.687676
Si Si6 0.152099 0.114798 0.500000
O O1 0.149740 0.500000 0.419161
O O2 0.175294 0.643573 0.365536
O O3 0.263783 0.643467 0.454758
O O4 0.000000 0.643753 0.432145
O O5 0.500000 0.151786 0.161186
O O6 0.679218 0.110326 0.099296
O O7 0.766698 0.145607 0.185864
O O8 0.635742 0.000000 0.168005
O O9 0.500000 0.813364 0.050812
O O10 0.250000 0.750000 0.050606
O O11 0.321884 0.888772 0.000000
O O12 0.762840 0.857005 0.276145
O O13 0.000000 0.850797 0.232162
O O14 0.855299 0.000000 0.231346
O O15 0.149417 0.500000 0.687819
O O16 0.000000 0.356180 0.701148
O O17 0.000000 0.147651 0.500000
O O18 0.148611 0.000000 0.500000
#
# Coordination Sequence:
#
# PCOD9494316 Si02
#       6
#    16  16  16  16  16   8
#     4   8  13  20  28  36  48  71 104 141 182 229
#     4   9  17  29  45  64  86 112 141 173 208 247
#     4   9  18  32  49  68  89 114 143 174 209 248
#     4   9  16  24  35  53  76  99 123 156 199 243
#     4   8  13  21  32  44  59  83 115 149 188 236
#     4   9  15  19  23  33  49  69  97 139 188 231
#
# _framework density 21.411064
#
# number of rings (size 3 to 8) (size 9 to 14) (size 15 to 20)
#    0.000    3.364    0.000    1.909    0.000    5.091 
#    0.000    5.455    0.000    0.000    0.000    5.091 
#    0.000    0.000    0.000    0.000    0.000    0.000 
#
# Total GULP energy -245382.825606 kJ/mol
# GULP energy per Si atom -5576.882400 kJ/mol
# Density = 2.136233 g / cm^3
# Si number density = 21.411064 Si / 1000 Ang^3
#
#
#
# Elastic Constant Matrix: (Units=GPa)
#
#
# Indices 1 2 3 4 5 6 
#
# 1 199.3122 18.6732 145.9039 0.0000 0.0000 0.0000
# 2 18.6732 58.0610 2.8067 0.0000 0.0000 0.0000
# 3 145.9039 2.8067 168.7305 0.0000 0.0000 0.0000
# 4 0.0000 0.0000 0.0000 1343.7726 0.0000 0.0000
# 5 0.0000 0.0000 0.0000 0.0000 -219.4174 0.0000
# 6 0.0000 0.0000 0.0000 0.0000 0.0000 0.7380
#
#
#
# Elastic Compliance Matrix: (Units=1/GPa)
#
#
# Indices 1 2 3 4 5 6 
#
# 1 0.014578 -0.004082 -0.012538 0.000000 0.000000 0.000000
# 2 -0.004082 0.018380 0.003224 0.000000 0.000000 0.000000
# 3 -0.012538 0.003224 0.016715 0.000000 0.000000 0.000000
# 4 0.000000 0.000000 0.000000 0.000744 0.000000 0.000000
# 5 0.000000 0.000000 0.000000 0.000000 -0.004558 0.000000
# 6 0.000000 0.000000 0.000000 0.000000 0.000000 1.355103
#
#
# Mechanical properties :
#
#
# Convention : Reuss Voigt Hill
#
# Bulk Modulus (GPa) = 43.70406 84.54125 64.12265
# Shear Modulus (GPa) = 3.48340 242.26660 122.87500
#
# Velocity S-wave (km/s) = 1.27689 10.64875 7.58374
# Velocity P-wave (km/s) = 4.75712 13.81177 10.32945
#
# Compressibility (1/GPa) = 0.02288117
#
# Stress axis : x y z
#
# Youngs Moduli (GPa) = 68.59720 54.40595 59.82792
#
# Poissons Ratio (x) = 0.22210 0.75011
# Poissons Ratio (y) = 0.28004 -0.19290
# Poissons Ratio (z) = 0.86006 -0.17542
#
# Static dielectric constant tensor:
#      x y z
#    x 1.745130 0.000000 0.000000 
#    y 0.000000 1.511000 0.000000 
#    z 0.000000 0.000000 1.778850 
# 
# From -- ./inp_files/73100.got.cif
#   From: 2010.05.17/outbox.cif.g08.bks.cpg/sg65_37_cif.got.tgz:73100.got - 2010.06.03 17:01:31.
