data_PCOD9494778
_publ_section_title
;
Structure prediction by ZEFSAII (Michael W. Deem and Ramdas Pophale) SiO2 
 PCOD9494778
Probable space group: C M M M
;
_chemical_formula_sum "Si O2"
_cell_formula_units_Z 44
_cell_length_a 18.000000
_cell_length_b 9.000000
_cell_length_c 30.000000
_cell_angle_alpha 90.000000
_cell_angle_beta 90.000000
_cell_angle_gamma 90.000000
_cell_volume 4860.000000
_symmetry_space_group_name_H-M "C M M M"
_symmetry_group_IT_number 65
_symmetry_cell_setting 'orthorhombic'
loop_
_space_group_symop_operation_xyz
x,y,z
-x,-y,z
x,-y,-z
-x,y,-z
-x,-y,-z
x,y,-z
-x,y,z
x,-y,z
1/2+x,1/2+y,z
1/2-x,1/2-y,z
1/2+x,1/2-y,-z
1/2-x,1/2+y,-z
1/2-x,1/2-y,-z
1/2+x,1/2+y,-z
1/2-x,1/2+y,z
1/2+x,1/2-y,z
loop_
_atom_site_type_symbol
_atom_site_label
_atom_site_fract_x
_atom_site_fract_y
_atom_site_fract_z
Si Si1 0.090629 0.171547 0.409491
Si Si2 0.412528 0.177679 0.318719
Si Si3 0.413308 0.821672 0.138720
Si Si4 0.830373 0.679813 0.771497
Si Si5 0.409266 0.171013 0.500000
Si Si6 0.589887 0.675890 0.048563
O O1 0.116213 0.247487 0.363852
O O2 0.115906 0.250674 0.454669
O O3 0.000000 0.180539 0.409343
O O4 0.111379 0.000000 0.410218
O O5 0.500000 0.211490 0.314407
O O6 0.372579 0.225199 0.273538
O O7 0.405408 0.000000 0.323246
O O8 0.500000 0.779121 0.142433
O O9 0.372301 0.773452 0.183483
O O10 0.381958 0.755314 0.092854
O O11 0.409998 0.000000 0.136026
O O12 0.827071 0.500000 0.771653
O O13 0.750000 0.750000 0.771316
O O14 0.500000 0.176952 0.500000
O O15 0.387482 0.000000 0.500000
O O16 0.500000 0.695391 0.048306
O O17 0.603859 0.500000 0.051447
O O18 0.616956 0.729750 0.000000
#
# Coordination Sequence:
#
# PCOD9494778 Si02
#       6
#    16  16  16  16   8  16
#     4   9  16  25  39  63  94 123 152 191 236 276
#     4   9  17  31  50  69  91 122 159 195 232 277
#     4   9  17  30  49  72  96 123 157 195 233 274
#     4  10  21  35  50  69  94 124 157 195 238 282
#     4   9  15  23  37  59  90 127 160 187 224 277
#     4   8  14  25  42  67  98 126 151 184 229 278
#
# _framework density 9.0534979999999994
#
# number of rings (size 3 to 8) (size 9 to 14) (size 15 to 20)
#    0.000    3.000    0.000    1.909    0.000    7.273 
#    0.000    1.818    0.000    6.000    0.000    0.636 
#    0.000    0.000    0.000    0.000    0.000    0.000 
#
# Total GULP energy -245118.631359 kJ/mol
# GULP energy per Si atom -5570.877985 kJ/mol
# Density = 0.903289 g / cm^3
# Si number density = 9.053498 Si / 1000 Ang^3
#
#
#
# Elastic Constant Matrix: (Units=GPa)
#
#
# Indices 1 2 3 4 5 6 
#
# 1 25.8858 29.3673 58.3786 0.0000 0.0000 0.0000
# 2 29.3673 27.0925 78.2728 0.0000 0.0000 0.0000
# 3 58.3786 78.2728 250.0350 0.0000 0.0000 0.0000
# 4 0.0000 0.0000 0.0000 0.0069 0.0000 0.0000
# 5 0.0000 0.0000 0.0000 0.0000 -10.2751 0.0000
# 6 0.0000 0.0000 0.0000 0.0000 0.0000 14.9367
#
#
#
# Elastic Compliance Matrix: (Units=1/GPa)
#
#
# Indices 1 2 3 4 5 6 
#
# 1 -0.028362 0.121491 -0.031411 0.000000 0.000000 0.000000
# 2 0.121491 -0.134235 0.013656 0.000000 0.000000 0.000000
# 3 -0.031411 0.013656 0.007058 0.000000 0.000000 0.000000
# 4 0.000000 0.000000 0.000000145.130836 0.000000 0.000000
# 5 0.000000 0.000000 0.000000 0.000000 -0.097323 0.000000
# 6 0.000000 0.000000 0.000000 0.000000 0.000000 0.066949
#
#
# Mechanical properties :
#
#
# Convention : Reuss Voigt Hill
#
# Bulk Modulus (GPa) = 19.25483 70.56119 44.90801
# Shear Modulus (GPa) = 0.03454 10.06668 5.05061
#
# Velocity S-wave (km/s) = 0.13827 2.36043 1.67194
# Velocity P-wave (km/s) = 3.26841 6.81780 5.34626
#
# Compressibility (1/GPa) = 0.05193502
#
# Stress axis : x y z
#
# Youngs Moduli (GPa) = -35.25885 -7.44964 141.67687
#
# Poissons Ratio (x) = 0.90507 4.45016
# Poissons Ratio (y) = 4.28364 -1.93472
# Poissons Ratio (z) = -1.10750 0.10173
#
# Static dielectric constant tensor:
#      x y z
#    x 1.592100 0.000000 0.000000 
#    y 0.000000 1.608900 0.000000 
#    z 0.000000 0.000000 1.636060 
# 
# From -- ./inp_files/77860.got.cif
#   From: 2010.05.17/outbox.ucp.g08.bks.cvg/sg65_39_cif.got.tgz:77860.got - 2010.06.11 16:39:57.
