data_PCOD9494771
_publ_section_title
;
Structure prediction by ZEFSAII (Michael W. Deem and Ramdas Pophale) SiO2 
 PCOD9494771
Probable space group: C M M M
;
_chemical_formula_sum "Si O2"
_cell_formula_units_Z 36
_cell_length_a 27.000000
_cell_length_b 15.000000
_cell_length_c 9.000000
_cell_angle_alpha 90.000000
_cell_angle_beta 90.000000
_cell_angle_gamma 90.000000
_cell_volume 3645.000000
_symmetry_space_group_name_H-M "C M M M"
_symmetry_group_IT_number 65
_symmetry_cell_setting 'orthorhombic'
loop_
_space_group_symop_operation_xyz
x,y,z
-x,-y,z
x,-y,-z
-x,y,-z
-x,-y,-z
x,y,-z
-x,y,z
x,-y,z
1/2+x,1/2+y,z
1/2-x,1/2-y,z
1/2+x,1/2-y,-z
1/2-x,1/2+y,-z
1/2-x,1/2-y,-z
1/2+x,1/2+y,-z
1/2-x,1/2+y,z
1/2+x,1/2-y,z
loop_
_atom_site_type_symbol
_atom_site_label
_atom_site_fract_x
_atom_site_fract_y
_atom_site_fract_z
Si Si1 0.706021 0.184365 0.327106
Si Si2 0.616053 0.322209 0.330318
Si Si3 0.057940 0.500000 0.182277
Si Si4 0.830396 0.000000 0.681506
Si Si5 0.558954 0.188482 0.834301
Si Si6 0.278000 0.000000 0.823033
O O1 0.717949 0.162291 0.500000
O O2 0.750000 0.250000 0.272088
O O3 0.657673 0.245433 0.323581
O O4 0.700320 0.092763 0.238790
O O5 0.602650 0.338741 0.500000
O O6 0.639771 0.412466 0.272614
O O7 0.570823 0.278863 0.247004
O O8 0.078255 0.404970 0.234584
O O9 0.000000 0.500000 0.222928
O O10 0.060569 0.500000 0.000000
O O11 0.777715 0.000000 0.759337
O O12 0.824020 0.000000 0.500000
O O13 0.500000 0.178309 0.843821
O O14 0.579978 0.194261 0.000000
O O15 0.280068 0.000000 0.000000
#
# Coordination Sequence:
#
# PCOD9494771 Si02
#       6
#    16  16   8   8  16   8
#     4  10  20  38  60  79 107 149 189 227 274 333
#     4  10  21  36  59  83 104 140 190 238 275 321
#     4   7  12  27  51  74  98 138 180 205 248 323
#     4  10  20  40  60  76 104 148 195 228 277 340
#     4   9  18  34  56  81 113 149 181 221 277 337
#     4  12  24  35  55  87 119 146 181 233 284 333
#
# _framework density 9.8765429999999999
#
# number of rings (size 3 to 8) (size 9 to 14) (size 15 to 20)
#    0.000    2.333    2.222    2.333    0.000    3.556 
#    0.000    3.333    0.000    5.333    0.000    0.000 
#    0.000    0.000    0.000    0.000    0.000    0.000 
#
# Total GULP energy -200536.727309 kJ/mol
# GULP energy per Si atom -5570.464647 kJ/mol
# Density = 0.985406 g / cm^3
# Si number density = 9.876543 Si / 1000 Ang^3
#
#
#
# Elastic Constant Matrix: (Units=GPa)
#
#
# Indices 1 2 3 4 5 6 
#
# 1 28.9328 26.0246 11.0056 0.0000 0.0000 0.0000
# 2 26.0246 151.6721 45.6942 0.0000 0.0000 0.0000
# 3 11.0056 45.6942 31.1146 0.0000 0.0000 0.0000
# 4 0.0000 0.0000 0.0000 1676.4486 0.0000 0.0000
# 5 0.0000 0.0000 0.0000 0.0000 19.8158 0.0000
# 6 0.0000 0.0000 0.0000 0.0000 0.0000 29.6726
#
#
#
# Elastic Compliance Matrix: (Units=1/GPa)
#
#
# Indices 1 2 3 4 5 6 
#
# 1 0.041859 -0.004881 -0.007637 0.000000 0.000000 0.000000
# 2 -0.004881 0.012394 -0.016475 0.000000 0.000000 0.000000
# 3 -0.007637 -0.016475 0.059036 0.000000 0.000000 0.000000
# 4 0.000000 0.000000 0.000000 0.000596 0.000000 0.000000
# 5 0.000000 0.000000 0.000000 0.000000 0.050465 0.000000
# 6 0.000000 0.000000 0.000000 0.000000 0.000000 0.033701
#
#
# Mechanical properties :
#
#
# Convention : Reuss Voigt Hill
#
# Bulk Modulus (GPa) = 18.08283 41.90760 29.99521
# Shear Modulus (GPa) = 18.21675 353.78706 186.00190
#
# Velocity S-wave (km/s) = 3.04011 13.39752 9.71431
# Velocity P-wave (km/s) = 4.63652 16.14269 11.87611
#
# Compressibility (1/GPa) = 0.05530109
#
# Stress axis : x y z
#
# Youngs Moduli (GPa) = 23.88993 80.68235 16.93885
#
# Poissons Ratio (x) = 0.39385 0.12936
# Poissons Ratio (y) = 0.11662 0.27907
# Poissons Ratio (z) = 0.18245 1.32927
#
# Static dielectric constant tensor:
#      x y z
#    x 1.755210 0.000000 0.000000 
#    y 0.000000 1.697270 0.000000 
#    z 0.000000 0.000000 1.691930 
# 
# From -- ./inp_files/15828.got.cif
#   From: 2010.05.17/outbox.ucp.g08.bks.cvg/sg65_8_cif.got.tgz:15828.got - 2010.06.11 16:39:57.
