data_PCOD9494151
_publ_section_title
;
Structure prediction by ZEFSAII (Michael W. Deem and Ramdas Pophale) SiO2 
 PCOD9494151
Probable space group: C M M M
;
_chemical_formula_sum "Si O2"
_cell_formula_units_Z 56
_cell_length_a 19.312588
_cell_length_b 8.951326
_cell_length_c 19.604265
_cell_angle_alpha 90.000000
_cell_angle_beta 90.000000
_cell_angle_gamma 90.000000
_cell_volume 3389.053418
_symmetry_space_group_name_H-M "C M M M"
_symmetry_group_IT_number 65
_symmetry_cell_setting 'orthorhombic'
loop_
_space_group_symop_operation_xyz
x,y,z
-x,-y,z
x,-y,-z
-x,y,-z
-x,-y,-z
x,y,-z
-x,y,z
x,-y,z
1/2+x,1/2+y,z
1/2-x,1/2-y,z
1/2+x,1/2-y,-z
1/2-x,1/2+y,-z
1/2-x,1/2-y,-z
1/2+x,1/2+y,-z
1/2-x,1/2+y,z
1/2+x,1/2-y,z
loop_
_atom_site_type_symbol
_atom_site_label
_atom_site_fract_x
_atom_site_fract_y
_atom_site_fract_z
Si Si1 0.577897 0.675274 0.194610
Si Si2 0.918920 0.176976 0.419698
Si Si3 0.174388 0.322315 0.305794
Si Si4 0.500000 0.178731 0.079773
O O1 0.500000 0.686892 0.226706
O O2 0.594081 0.500000 0.188815
O O3 0.632704 0.759309 0.240669
O O4 0.564794 0.749930 0.120762
O O5 0.904616 0.199686 0.500000
O O6 0.869592 0.271049 0.371470
O O7 0.000000 0.212132 0.408310
O O8 0.909634 0.000000 0.404956
O O9 0.179420 0.500000 0.302646
O O10 0.250000 0.250000 0.308551
O O11 0.500000 0.000000 0.088200
O O12 0.500000 0.214429 0.000000
#
# Coordination Sequence:
#
# PCOD9494151 Si02
#       4
#    16  16  16   8
#     4   9  19  34  55  80 109 142 177 219 264 315
#     4   9  19  37  59  80 105 138 177 223 275 327
#     4  12  24  36  53  76 108 144 183 227 272 324
#     4   9  17  31  55  87 116 141 176 219 259 305
#
# _framework density 16.523788
#
# number of rings (size 3 to 8) (size 9 to 14) (size 15 to 20)
#    0.857    1.286    0.000    5.143    0.000    6.286 
#    0.000    1.429    0.000    0.857    0.000    0.000 
#    0.000    0.000    0.000    0.000    0.000    0.000 
#
# Total GULP energy -156092.480807 kJ/mol
# GULP energy per Si atom -5574.731457 kJ/mol
# Density = 1.648618 g / cm^3
# Si number density = 16.523788 Si / 1000 Ang^3
#
#
#
# Elastic Constant Matrix: (Units=GPa)
#
#
# Indices 1 2 3 4 5 6 
#
# 1 100.6123 87.1059 71.9112 0.0000 0.0000 0.0000
# 2 87.1059 154.4264 90.4185 0.0000 0.0000 0.0000
# 3 71.9112 90.4185 112.6603 0.0000 0.0000 0.0000
# 4 0.0000 0.0000 0.0000 29.3325 0.0000 0.0000
# 5 0.0000 0.0000 0.0000 0.0000 -7.1490 0.0000
# 6 0.0000 0.0000 0.0000 0.0000 0.0000 25.2068
#
#
#
# Elastic Compliance Matrix: (Units=1/GPa)
#
#
# Indices 1 2 3 4 5 6 
#
# 1 0.022646 -0.008131 -0.007929 0.000000 0.000000 0.000000
# 2 -0.008131 0.015136 -0.006957 0.000000 0.000000 0.000000
# 3 -0.007929 -0.006957 0.019521 0.000000 0.000000 0.000000
# 4 0.000000 0.000000 0.000000 0.034092 0.000000 0.000000
# 5 0.000000 0.000000 0.000000 0.000000 -0.139880 0.000000
# 6 0.000000 0.000000 0.000000 0.000000 0.000000 0.039672
#
#
# Mechanical properties :
#
#
# Convention : Reuss Voigt Hill
#
# Bulk Modulus (GPa) = 88.75005 96.28557 92.51781
# Shear Modulus (GPa) = 122.01806 17.36229 69.69017
#
# Velocity S-wave (km/s) = 8.60257 3.24504 6.50132
# Velocity P-wave (km/s) = 12.34906 8.51104 10.60512
#
# Compressibility (1/GPa) = 0.01126760
#
# Stress axis : x y z
#
# Youngs Moduli (GPa) = 44.15813 66.06906 51.22613
#
# Poissons Ratio (x) = 0.53721 0.40618
# Poissons Ratio (y) = 0.35905 0.35640
# Poissons Ratio (z) = 0.35013 0.45967
#
# Static dielectric constant tensor:
#      x y z
#    x 1.536500 0.000000 0.000000 
#    y 0.000000 1.545410 0.000000 
#    z 0.000000 0.000000 1.551910 
# 
# From -- ./inp_files/62177.got.cif
#   From: 2010.05.17/outbox.cif.g08.bks.cpg/sg65_32_cif.got.tgz:62177.got - 2010.06.03 17:01:31.
