data_PCOD9494431
_publ_section_title
;
Structure prediction by ZEFSAII (Michael W. Deem and Ramdas Pophale) SiO2 
 PCOD9494431
Probable space group: C M M M
;
_chemical_formula_sum "Si O2"
_cell_formula_units_Z 72
_cell_length_a 19.643858
_cell_length_b 7.647344
_cell_length_c 24.372696
_cell_angle_alpha 90.000000
_cell_angle_beta 90.000000
_cell_angle_gamma 90.000000
_cell_volume 3661.347788
_symmetry_space_group_name_H-M "C M M M"
_symmetry_group_IT_number 65
_symmetry_cell_setting 'orthorhombic'
loop_
_space_group_symop_operation_xyz
x,y,z
-x,-y,z
x,-y,-z
-x,y,-z
-x,-y,-z
x,y,-z
-x,y,z
x,-y,z
1/2+x,1/2+y,z
1/2-x,1/2-y,z
1/2+x,1/2-y,-z
1/2-x,1/2+y,-z
1/2-x,1/2-y,-z
1/2+x,1/2+y,-z
1/2-x,1/2+y,z
1/2+x,1/2-y,z
loop_
_atom_site_type_symbol
_atom_site_label
_atom_site_fract_x
_atom_site_fract_y
_atom_site_fract_z
Si Si1 0.671502 0.289639 0.276166
Si Si2 0.578552 0.714505 0.500000
Si Si3 0.171326 0.210063 0.600315
Si Si4 0.920666 0.710265 0.941000
Si Si5 0.577478 0.291381 0.178479
O O1 0.664362 0.500000 0.277828
O O2 0.750000 0.250000 0.263705
O O3 0.657290 0.223580 0.337943
O O4 0.622569 0.221690 0.228367
O O5 0.579143 0.500000 0.500000
O O6 0.500000 0.768937 0.500000
O O7 0.619828 0.773397 0.553828
O O8 0.250000 0.250000 0.586669
O O9 0.165219 0.000000 0.601873
O O10 0.920756 0.500000 0.941868
O O11 0.891576 0.762603 0.882169
O O12 0.000000 0.768890 0.940079
O O13 0.891604 0.770195 0.000000
O O14 0.500000 0.220722 0.179460
O O15 0.572930 0.500000 0.185327
#
# Coordination Sequence:
#
# PCOD9494431 Si02
#       5
#    16   8  16  16  16
#     4   9  18  31  46  65  89 118 150 183 220 261
#     4   9  17  28  45  71  96 117 146 184 224 263
#     4   9  17  30  48  67  88 117 152 186 218 258
#     4   8  14  25  41  62  88 116 145 177 215 261
#     4   9  17  28  43  65  90 114 143 181 224 265
#
# _framework density 19.66489
#
# number of rings (size 3 to 8) (size 9 to 14) (size 15 to 20)
#    0.000    3.222    0.000    1.000    0.000    2.222 
#    0.000    6.667    0.000    2.000    0.000    6.222 
#    0.000    0.000    0.000    0.000    0.000    0.000 
#
# Total GULP energy -200534.435501 kJ/mol
# GULP energy per Si atom -5570.400986 kJ/mol
# Density = 1.962013 g / cm^3
# Si number density = 19.664890 Si / 1000 Ang^3
#
#
#
# Elastic Constant Matrix: (Units=GPa)
#
#
# Indices 1 2 3 4 5 6 
#
# 1 91.8812 1.4780 120.5179 0.0000 0.0000 0.0000
# 2 1.4780 35.7982 7.0138 0.0000 0.0000 0.0000
# 3 120.5179 7.0138 213.2856 0.0000 0.0000 0.0000
# 4 0.0000 0.0000 0.0000 13.3647 0.0000 0.0000
# 5 0.0000 0.0000 0.0000 0.0000 53.5942 0.0000
# 6 0.0000 0.0000 0.0000 0.0000 0.0000 16.2720
#
#
#
# Elastic Compliance Matrix: (Units=1/GPa)
#
#
# Indices 1 2 3 4 5 6 
#
# 1 0.042358 0.002960 -0.024032 0.000000 0.000000 0.000000
# 2 0.002960 0.028322 -0.002604 0.000000 0.000000 0.000000
# 3 -0.024032 -0.002604 0.018353 0.000000 0.000000 0.000000
# 4 0.000000 0.000000 0.000000 0.074824 0.000000 0.000000
# 5 0.000000 0.000000 0.000000 0.000000 0.018659 0.000000
# 6 0.000000 0.000000 0.000000 0.000000 0.000000 0.061455
#
#
# Mechanical properties :
#
#
# Convention : Reuss Voigt Hill
#
# Bulk Modulus (GPa) = 23.99128 66.55382 45.27255
# Shear Modulus (GPa) = 16.38178 30.77652 23.57915
#
# Velocity S-wave (km/s) = 2.88939 3.96036 3.46648
# Velocity P-wave (km/s) = 4.83301 7.40473 6.25252
#
# Compressibility (1/GPa) = 0.04168182
#
# Stress axis : x y z
#
# Youngs Moduli (GPa) = 23.60842 35.30788 54.48576
#
# Poissons Ratio (x) = -0.10450 1.30939
# Poissons Ratio (y) = -0.06987 0.14187
# Poissons Ratio (z) = 0.56735 0.09193
#
# Static dielectric constant tensor:
#      x y z
#    x 1.651970 0.000000 0.000000 
#    y 0.000000 1.735640 0.000000 
#    z 0.000000 0.000000 1.737420 
# 
# From -- ./inp_files/64309.got.cif
#   From: 2010.05.17/outbox.cif.g08.bks.cpg/sg65_33_cif.got.tgz:64309.got - 2010.06.03 17:01:31.
