data_PCOD9494975
_publ_section_title
;
Structure prediction by ZEFSAII (Michael W. Deem and Ramdas Pophale) SiO2 
 PCOD9494975
Probable space group: C C C M
;
_chemical_formula_sum "Si O2"
_cell_formula_units_Z 52
_cell_length_a 7.311926
_cell_length_b 21.787986
_cell_length_c 13.496705
_cell_angle_alpha 90.000000
_cell_angle_beta 90.000000
_cell_angle_gamma 90.000000
_cell_volume 2150.188974
_symmetry_space_group_name_H-M "C C C M"
_symmetry_group_IT_number 66
_symmetry_cell_setting 'orthorhombic'
loop_
_space_group_symop_operation_xyz
x,y,z
-x,-y,z
x,-y,1/2-z
-x,y,1/2-z
-x,-y,-z
x,y,-z
-x,y,1/2+z
x,-y,1/2+z
1/2+x,1/2+y,z
1/2-x,1/2-y,z
1/2+x,1/2-y,1/2-z
1/2-x,1/2+y,1/2-z
1/2-x,1/2-y,-z
1/2+x,1/2+y,-z
1/2-x,1/2+y,1/2+z
1/2+x,1/2-y,1/2+z
loop_
_atom_site_type_symbol
_atom_site_label
_atom_site_fract_x
_atom_site_fract_y
_atom_site_fract_z
Si Si1 0.000000 0.500000 0.750000
Si Si2 0.120612 0.856722 0.107684
Si Si3 0.045913 0.271798 0.864331
Si Si4 0.222960 0.390607 0.825362
O O1 0.870415 0.543881 0.814700
O O2 0.919958 0.887017 0.122635
O O3 0.082044 0.783414 0.099338
O O4 0.228279 0.869276 0.210751
O O5 0.196799 0.875962 0.000000
O O6 0.250000 0.250000 0.886293
O O7 0.079429 0.344408 0.879049
O O8 0.000000 0.268088 0.750000
#
# Coordination Sequence:
#
# PCOD9494975 Si02
#       4
#     4  16  16  16
#     4  12  24  42  70  80 116 176 200 250 318 322
#     4  10  21  40  66  91 122 160 194 246 315 363
#     4  10  16  33  61  87 123 147 185 254 289 354
#     4  10  22  39  63  89 123 158 207 248 286 366
#
# _framework density 24.183921000000002
#
# number of rings (size 3 to 8) (size 9 to 14) (size 15 to 20)
#    0.000    1.846    7.692    0.000    0.000    8.000 
#    0.000    9.231    0.000    0.000    0.000    0.000 
#    0.000    0.000    0.000    0.000    0.000    0.000 
#
# Total GULP energy -144747.541195 kJ/mol
# GULP energy per Si atom -5567.213123 kJ/mol
# Density = 2.412888 g / cm^3
# Si number density = 24.183921 Si / 1000 Ang^3
#
#
#
# Elastic Constant Matrix: (Units=GPa)
#
#
# Indices 1 2 3 4 5 6 
#
# 1 91.6980 40.6201 14.6154 0.0000 0.0000 0.0000
# 2 40.6201 162.7822 10.2732 0.0000 0.0000 0.0000
# 3 14.6154 10.2732 154.8573 0.0000 0.0000 0.0000
# 4 0.0000 0.0000 0.0000 -26.8246 0.0000 0.0000
# 5 0.0000 0.0000 0.0000 0.0000 -17.7065 0.0000
# 6 0.0000 0.0000 0.0000 0.0000 0.0000 72.1095
#
#
#
# Elastic Compliance Matrix: (Units=1/GPa)
#
#
# Indices 1 2 3 4 5 6 
#
# 1 0.012404 -0.003034 -0.000969 0.000000 0.000000 0.000000
# 2 -0.003034 0.006911 -0.000172 0.000000 0.000000 0.000000
# 3 -0.000969 -0.000172 0.006560 0.000000 0.000000 0.000000
# 4 0.000000 0.000000 0.000000 -0.037279 0.000000 0.000000
# 5 0.000000 0.000000 0.000000 0.000000 -0.056476 0.000000
# 6 0.000000 0.000000 0.000000 0.000000 0.000000 0.013868
#
#
# Mechanical properties :
#
#
# Convention : Reuss Voigt Hill
#
# Bulk Modulus (GPa) = 57.06346 60.03944 58.55145
# Shear Modulus (GPa) = -125.56580 28.43761 -48.56410
#
# Velocity S-wave (km/s) = -7.21345 3.43284 -4.48606
# Velocity P-wave (km/s) = 6.76252 6.37123 1.60298
#
# Compressibility (1/GPa) = 0.01752435
#
# Stress axis : x y z
#
# Youngs Moduli (GPa) = 80.61997 144.69384 152.42813
#
# Poissons Ratio (x) = 0.43901 0.14776
# Poissons Ratio (y) = 0.24460 0.02624
# Poissons Ratio (z) = 0.07815 0.02491
#
# Static dielectric constant tensor:
#      x y z
#    x 1.978530 0.000000 0.000000 
#    y 0.000000 1.951300 0.000000 
#    z 0.000000 0.000000 1.947050 
# 
# From -- ./inp_files/23707.got.cif
#   From: 2010.05.17/outbox.cif.g08.bks.cpg/sg66_12_cif.got.tgz:23707.got - 2010.06.03 17:51:23.
