data_PCOD9494143
_publ_section_title
;
Structure prediction by ZEFSAII (Michael W. Deem and Ramdas Pophale) SiO2 
 PCOD9494143
Probable space group: C M M M
;
_chemical_formula_sum "Si O2"
_cell_formula_units_Z 64
_cell_length_a 18.139965
_cell_length_b 14.193863
_cell_length_c 14.225582
_cell_angle_alpha 90.000000
_cell_angle_beta 90.000000
_cell_angle_gamma 90.000000
_cell_volume 3662.748484
_symmetry_space_group_name_H-M "C M M M"
_symmetry_group_IT_number 65
_symmetry_cell_setting 'orthorhombic'
loop_
_space_group_symop_operation_xyz
x,y,z
-x,-y,z
x,-y,-z
-x,y,-z
-x,-y,-z
x,y,-z
-x,y,z
x,-y,z
1/2+x,1/2+y,z
1/2-x,1/2-y,z
1/2+x,1/2-y,-z
1/2-x,1/2+y,-z
1/2-x,1/2-y,-z
1/2+x,1/2+y,-z
1/2-x,1/2+y,z
1/2+x,1/2-y,z
loop_
_atom_site_type_symbol
_atom_site_label
_atom_site_fract_x
_atom_site_fract_y
_atom_site_fract_z
Si Si1 0.411466 0.388559 0.391619
Si Si2 0.335761 0.236512 0.260654
Si Si3 0.080488 0.611849 0.390679
Si Si4 0.411555 0.107264 0.889231
O O1 0.390026 0.362763 0.500000
O O2 0.500000 0.375273 0.385564
O O3 0.396679 0.500000 0.380474
O O4 0.372273 0.327612 0.310753
O O5 0.250000 0.250000 0.243006
O O6 0.351867 0.157017 0.338501
O O7 0.375164 0.191048 0.169868
O O8 0.081929 0.635930 0.500000
O O9 0.081847 0.500000 0.382480
O O10 0.000000 0.644182 0.352667
O O11 0.500000 0.112055 0.879291
O O12 0.389811 0.000000 0.858442
O O13 0.394405 0.115018 0.000000
#
# Coordination Sequence:
#
# PCOD9494143 Si02
#       4
#    16  16  16  16
#     4   9  19  36  54  70  95 139 191 227 242 269
#     4  12  23  31  48  78 111 140 165 201 260 320
#     4   9  18  33  53  76 102 135 177 223 266 306
#     4   9  19  38  63  84  99 123 165 215 264 315
#
# _framework density 17.473217000000002
#
# number of rings (size 3 to 8) (size 9 to 14) (size 15 to 20)
#    0.000    2.250    0.000    6.000    0.000    8.500 
#    0.000    2.500    0.000    0.750    0.000    3.500 
#    0.000    0.000    0.000    0.000    0.000    0.000 
#
# Total GULP energy -178394.744711 kJ/mol
# GULP energy per Si atom -5574.835772 kJ/mol
# Density = 1.743345 g / cm^3
# Si number density = 17.473217 Si / 1000 Ang^3
#
#
#
# Elastic Constant Matrix: (Units=GPa)
#
#
# Indices 1 2 3 4 5 6 
#
# 1 74.2880 45.3459 42.1467 0.0000 0.0000 0.0000
# 2 45.3459 112.6713 57.3448 0.0000 0.0000 0.0000
# 3 42.1467 57.3448 101.4306 0.0000 0.0000 0.0000
# 4 0.0000 0.0000 0.0000 36.7345 0.0000 0.0000
# 5 0.0000 0.0000 0.0000 0.0000 -110.8088 0.0000
# 6 0.0000 0.0000 0.0000 0.0000 0.0000 -22.7786
#
#
#
# Elastic Compliance Matrix: (Units=1/GPa)
#
#
# Indices 1 2 3 4 5 6 
#
# 1 0.019606 -0.005257 -0.005175 0.000000 0.000000 0.000000
# 2 -0.005257 0.013870 -0.005657 0.000000 0.000000 0.000000
# 3 -0.005175 -0.005657 0.015208 0.000000 0.000000 0.000000
# 4 0.000000 0.000000 0.000000 0.027222 0.000000 0.000000
# 5 0.000000 0.000000 0.000000 0.000000 -0.009025 0.000000
# 6 0.000000 0.000000 0.000000 0.000000 0.000000 -0.043901
#
#
# Mechanical properties :
#
#
# Convention : Reuss Voigt Hill
#
# Bulk Modulus (GPa) = 60.58424 64.22941 62.40683
# Shear Modulus (GPa) = 82.42577 -9.80041 36.31268
#
# Velocity S-wave (km/s) = 6.87568 -2.37086 4.56366
# Velocity P-wave (km/s) = 9.88844 5.41700 7.97262
#
# Compressibility (1/GPa) = 0.01650594
#
# Stress axis : x y z
#
# Youngs Moduli (GPa) = 51.00546 72.09557 65.75665
#
# Poissons Ratio (x) = 0.37900 0.34026
# Poissons Ratio (y) = 0.26813 0.37201
# Poissons Ratio (z) = 0.26393 0.40788
#
# Static dielectric constant tensor:
#      x y z
#    x 1.352660 0.000000 0.000000 
#    y 0.000000 1.622330 0.000000 
#    z 0.000000 0.000000 1.615030 
# 
# From -- ./inp_files/39505.got.cif
#   From: 2010.05.17/outbox.cif.g08.bks.cpg/sg65_20_cif.got.tgz:39505.got - 2010.06.03 17:01:31.
