data_PCOD9494370
_publ_section_title
;
Structure prediction by ZEFSAII (Michael W. Deem and Ramdas Pophale) SiO2 
 PCOD9494370
Probable space group: C M M M
;
_chemical_formula_sum "Si O2"
_cell_formula_units_Z 56
_cell_length_a 42.993369
_cell_length_b 7.565684
_cell_length_c 7.447191
_cell_angle_alpha 90.000000
_cell_angle_beta 90.000000
_cell_angle_gamma 90.000000
_cell_volume 2422.379422
_symmetry_space_group_name_H-M "C M M M"
_symmetry_group_IT_number 65
_symmetry_cell_setting 'orthorhombic'
loop_
_space_group_symop_operation_xyz
x,y,z
-x,-y,z
x,-y,-z
-x,y,-z
-x,-y,-z
x,y,-z
-x,y,z
x,-y,z
1/2+x,1/2+y,z
1/2-x,1/2-y,z
1/2+x,1/2-y,-z
1/2-x,1/2+y,-z
1/2-x,1/2-y,-z
1/2+x,1/2+y,-z
1/2-x,1/2+y,z
1/2+x,1/2-y,z
loop_
_atom_site_type_symbol
_atom_site_label
_atom_site_fract_x
_atom_site_fract_y
_atom_site_fract_z
Si Si1 0.650292 0.796176 0.716129
Si Si2 0.582023 0.799428 0.786503
Si Si3 0.783559 0.712466 0.706561
Si Si4 0.464264 0.500000 0.220282
O O1 0.652929 0.798509 0.500000
O O2 0.616574 0.719875 0.758208
O O3 0.683394 0.721629 0.782417
O O4 0.648332 0.000000 0.780649
O O5 0.555150 0.671111 0.719202
O O6 0.581018 0.000000 0.712767
O O7 0.577962 0.812261 0.000000
O O8 0.781705 0.779339 0.500000
O O9 0.786468 0.500000 0.701069
O O10 0.750000 0.750000 0.790975
O O11 0.500000 0.500000 0.276765
O O12 0.464070 0.500000 0.000000
#
# Coordination Sequence:
#
# PCOD9494370 Si02
#       4
#    16  16  16   8
#     4   8  14  26  44  64  88 118 149 184 225 266
#     4   9  17  30  49  70  90 117 151 183 221 268
#     4   8  13  22  36  55  81 111 143 181 222 259
#     4   9  18  32  49  71  97 119 145 187 229 265
#
# _framework density 23.117766
#
# number of rings (size 3 to 8) (size 9 to 14) (size 15 to 20)
#    0.000    3.571    0.000    1.714    0.000    0.571 
#    2.571    3.571    0.000    2.571    0.000    4.000 
#    0.000    0.000    0.000    0.000    0.000    0.000 
#
# Total GULP energy -156026.176982 kJ/mol
# GULP energy per Si atom -5572.363464 kJ/mol
# Density = 2.306515 g / cm^3
# Si number density = 23.117766 Si / 1000 Ang^3
#
#
#
# Elastic Constant Matrix: (Units=GPa)
#
#
# Indices 1 2 3 4 5 6 
#
# 1 299.3199 81.2353 5.3921 0.0000 0.0000 0.0000
# 2 81.2353 90.5342 3.6227 0.0000 0.0000 0.0000
# 3 5.3921 3.6227 70.9089 0.0000 0.0000 0.0000
# 4 0.0000 0.0000 0.0000 -2.6463 0.0000 0.0000
# 5 0.0000 0.0000 0.0000 0.0000 20.4740 0.0000
# 6 0.0000 0.0000 0.0000 0.0000 0.0000 34.0860
#
#
#
# Elastic Compliance Matrix: (Units=1/GPa)
#
#
# Indices 1 2 3 4 5 6 
#
# 1 0.004418 -0.003959 -0.000134 0.000000 0.000000 0.000000
# 2 -0.003959 0.014615 -0.000446 0.000000 0.000000 0.000000
# 3 -0.000134 -0.000446 0.014136 0.000000 0.000000 0.000000
# 4 0.000000 0.000000 0.000000 -0.377891 0.000000 0.000000
# 5 0.000000 0.000000 0.000000 0.000000 0.048843 0.000000
# 6 0.000000 0.000000 0.000000 0.000000 0.000000 0.029338
#
#
# Mechanical properties :
#
#
# Convention : Reuss Voigt Hill
#
# Bulk Modulus (GPa) = 41.50633 71.25147 56.37890
# Shear Modulus (GPa) = -20.04526 35.08360 7.51917
#
# Velocity S-wave (km/s) = -2.94784 3.89987 1.80544
# Velocity P-wave (km/s) = 2.53119 7.15309 5.36533
#
# Compressibility (1/GPa) = 0.02409271
#
# Stress axis : x y z
#
# Youngs Moduli (GPa) = 226.36357 68.42114 70.74368
#
# Poissons Ratio (x) = 0.27085 0.00946
# Poissons Ratio (y) = 0.89608 0.03153
# Poissons Ratio (z) = 0.03026 0.03049
#
# Static dielectric constant tensor:
#      x y z
#    x 1.899720 0.000000 0.000000 
#    y 0.000000 1.878530 0.000000 
#    z 0.000000 0.000000 1.908270 
# 
# From -- ./inp_files/33130.got.cif
#   From: 2010.05.17/outbox.cif.g08.bks.cpg/sg65_17_cif.got.tgz:33130.got - 2010.06.03 17:01:31.
