data_PCOD9494324
_publ_section_title
;
Structure prediction by ZEFSAII (Michael W. Deem and Ramdas Pophale) SiO2 
 PCOD9494324
Probable space group: C M M M
;
_chemical_formula_sum "Si O2"
_cell_formula_units_Z 96
_cell_length_a 28.127120
_cell_length_b 7.363322
_cell_length_c 25.414788
_cell_angle_alpha 90.000000
_cell_angle_beta 90.000000
_cell_angle_gamma 90.000000
_cell_volume 5263.632382
_symmetry_space_group_name_H-M "C M M M"
_symmetry_group_IT_number 65
_symmetry_cell_setting 'orthorhombic'
loop_
_space_group_symop_operation_xyz
x,y,z
-x,-y,z
x,-y,-z
-x,y,-z
-x,-y,-z
x,y,-z
-x,y,z
x,-y,z
1/2+x,1/2+y,z
1/2-x,1/2-y,z
1/2+x,1/2-y,-z
1/2-x,1/2+y,-z
1/2-x,1/2-y,-z
1/2+x,1/2+y,-z
1/2-x,1/2+y,z
1/2+x,1/2-y,z
loop_
_atom_site_type_symbol
_atom_site_label
_atom_site_fract_x
_atom_site_fract_y
_atom_site_fract_z
Si Si1 0.304154 0.715973 0.613369
Si Si2 0.693521 0.282743 0.171149
Si Si3 0.806830 0.216977 0.943349
Si Si4 0.052885 0.221099 0.333968
Si Si5 0.350790 0.278137 0.720557
Si Si6 0.899207 0.778447 0.558412
O O1 0.309828 0.500000 0.615146
O O2 0.250000 0.750000 0.598272
O O3 0.316621 0.781226 0.672446
O O4 0.345712 0.780179 0.574430
O O5 0.687143 0.500000 0.170065
O O6 0.750000 0.250000 0.176480
O O7 0.676949 0.213141 0.113731
O O8 0.666901 0.213759 0.222859
O O9 0.750000 0.250000 0.943375
O O10 0.814254 0.000000 0.943524
O O11 0.824946 0.286950 0.000000
O O12 0.095976 0.276620 0.295986
O O13 0.067218 0.276374 0.393290
O O14 0.000000 0.281833 0.320063
O O15 0.052874 0.000000 0.333580
O O16 0.349741 0.500000 0.721465
O O17 0.912119 0.717290 0.500000
O O18 0.899948 0.000000 0.557694
#
# Coordination Sequence:
#
# PCOD9494324 Si02
#       6
#    16  16  16  16  16  16
#     4   9  16  25  36  49  68  93 115 135 160 190
#     4   9  15  22  33  48  68  93 116 138 164 193
#     4   8  13  20  29  42  61  86 115 141 162 186
#     4   8  13  21  33  48  66  87 108 133 168 206
#     4   8  14  23  33  47  67  88 110 137 168 198
#     4   8  14  23  33  47  67  88 109 134 165 198
#
# _framework density 18.238357000000001
#
# number of rings (size 3 to 8) (size 9 to 14) (size 15 to 20)
#    0.000    3.667    0.000    2.500    0.000    0.667 
#    0.000    1.667    0.000    0.000    0.000    0.000 
#    0.000   17.333    0.000   15.333    0.000    6.667 
#
# Total GULP energy -267301.360944 kJ/mol
# GULP energy per Si atom -5568.778353 kJ/mol
# Density = 1.819685 g / cm^3
# Si number density = 18.238357 Si / 1000 Ang^3
#
#
#
# Elastic Constant Matrix: (Units=GPa)
#
#
# Indices 1 2 3 4 5 6 
#
# 1 66.9722 -4.4908 25.4297 0.0000 0.0000 0.0000
# 2 -4.4908 66.2776 4.6950 0.0000 0.0000 0.0000
# 3 25.4297 4.6950 143.3463 0.0000 0.0000 0.0000
# 4 0.0000 0.0000 0.0000 -7.3932 0.0000 0.0000
# 5 0.0000 0.0000 0.0000 0.0000 12.3690 0.0000
# 6 0.0000 0.0000 0.0000 0.0000 0.0000 5.0296
#
#
#
# Elastic Compliance Matrix: (Units=1/GPa)
#
#
# Indices 1 2 3 4 5 6 
#
# 1 0.016121 0.001298 -0.002902 0.000000 0.000000 0.000000
# 2 0.001298 0.015228 -0.000729 0.000000 0.000000 0.000000
# 3 -0.002902 -0.000729 0.007515 0.000000 0.000000 0.000000
# 4 0.000000 0.000000 0.000000 -0.135259 0.000000 0.000000
# 5 0.000000 0.000000 0.000000 0.000000 0.080847 0.000000
# 6 0.000000 0.000000 0.000000 0.000000 0.000000 0.198822
#
#
# Mechanical properties :
#
#
# Convention : Reuss Voigt Hill
#
# Bulk Modulus (GPa) = 29.24296 36.42933 32.83614
# Shear Modulus (GPa) = 25.08282 18.73189 21.90735
#
# Velocity S-wave (km/s) = 3.71250 3.20825 3.46955
# Velocity P-wave (km/s) = 5.86902 5.80872 5.83895
#
# Compressibility (1/GPa) = 0.03419627
#
# Stress axis : x y z
#
# Youngs Moduli (GPa) = 62.03232 65.67006 133.06969
#
# Poissons Ratio (x) = -0.08523 0.38621
# Poissons Ratio (y) = -0.08051 0.09701
# Poissons Ratio (z) = 0.18004 0.04787
#
# Static dielectric constant tensor:
#      x y z
#    x 1.596210 0.000000 0.000000 
#    y 0.000000 1.700690 0.000000 
#    z 0.000000 0.000000 1.667710 
# 
# From -- ./inp_files/69200.got.cif
#   From: 2010.05.17/outbox.cif.g08.bks.cpg/sg65_35_cif.got.tgz:69200.got - 2010.06.03 17:01:31.
