data_PCOD9494967
_publ_section_title
;
Structure prediction by ZEFSAII (Michael W. Deem and Ramdas Pophale) SiO2 
 PCOD9494967
Probable space group: C C C M
;
_chemical_formula_sum "Si O2"
_cell_formula_units_Z 88
_cell_length_a 25.700580
_cell_length_b 20.685677
_cell_length_c 9.057340
_cell_angle_alpha 90.000000
_cell_angle_beta 90.000000
_cell_angle_gamma 90.000000
_cell_volume 4815.188957
_symmetry_space_group_name_H-M "C C C M"
_symmetry_group_IT_number 66
_symmetry_cell_setting 'orthorhombic'
loop_
_space_group_symop_operation_xyz
x,y,z
-x,-y,z
x,-y,1/2-z
-x,y,1/2-z
-x,-y,-z
x,y,-z
-x,y,1/2+z
x,-y,1/2+z
1/2+x,1/2+y,z
1/2-x,1/2-y,z
1/2+x,1/2-y,1/2-z
1/2-x,1/2+y,1/2-z
1/2-x,1/2-y,-z
1/2+x,1/2+y,-z
1/2-x,1/2+y,1/2+z
1/2+x,1/2-y,1/2+z
loop_
_atom_site_type_symbol
_atom_site_label
_atom_site_fract_x
_atom_site_fract_y
_atom_site_fract_z
Si Si1 0.361472 0.702665 0.669190
Si Si2 0.227571 0.394055 0.664222
Si Si3 0.892475 0.430731 0.823516
Si Si4 0.750000 0.250000 0.754679
Si Si5 0.171337 0.934099 0.323824
Si Si6 0.055417 0.307448 0.820553
O O1 0.377256 0.693633 0.500000
O O2 0.303082 0.731549 0.671106
O O3 0.357352 0.630737 0.734891
O O4 0.401892 0.754348 0.730925
O O5 0.240339 0.418955 0.500000
O O6 0.168352 0.412079 0.698501
O O7 0.235193 0.316449 0.663641
O O8 0.268373 0.422970 0.779358
O O9 0.902039 0.500000 0.750000
O O10 0.926267 0.376125 0.743595
O O11 0.902116 0.431818 0.000000
O O12 0.166901 0.937194 0.500000
O O13 0.152894 0.000000 0.250000
O O14 0.000000 0.291198 0.750000
O O15 0.053590 0.309695 0.000000
#
# Coordination Sequence:
#
# PCOD9494967 Si02
#       6
#    16  16  16   8  16  16
#     4   9  19  34  57  85 115 148 186 230 282 339
#     4  10  20  32  51  81 118 154 189 230 278 333
#     4  11  23  39  57  83 113 151 193 238 285 334
#     4  10  16  32  54  86 115 148 185 230 285 332
#     4  10  20  34  53  81 116 154 190 227 275 337
#     4  11  23  42  63  86 112 147 189 239 286 336
#
# _framework density 18.275501999999999
#
# number of rings (size 3 to 8) (size 9 to 14) (size 15 to 20)
#    0.000    1.818    1.818    2.727    0.000    4.000 
#    0.000    4.545    0.000    0.545    0.000    3.818 
#    0.000    0.000    0.000    0.000    0.000    0.000 
#
# Total GULP energy -245367.676694 kJ/mol
# GULP energy per Si atom -5576.538107 kJ/mol
# Density = 1.823391 g / cm^3
# Si number density = 18.275502 Si / 1000 Ang^3
#
#
#
# Elastic Constant Matrix: (Units=GPa)
#
#
# Indices 1 2 3 4 5 6 
#
# 1 92.2613 56.3143 29.8641 0.0000 0.0000 0.0000
# 2 56.3143 152.0925 37.6472 0.0000 0.0000 0.0000
# 3 29.8641 37.6472 68.2321 0.0000 0.0000 0.0000
# 4 0.0000 0.0000 0.0000 20.3198 0.0000 0.0000
# 5 0.0000 0.0000 0.0000 0.0000 15.0624 0.0000
# 6 0.0000 0.0000 0.0000 0.0000 0.0000 14.0791
#
#
#
# Elastic Compliance Matrix: (Units=1/GPa)
#
#
# Indices 1 2 3 4 5 6 
#
# 1 0.014902 -0.004521 -0.004028 0.000000 0.000000 0.000000
# 2 -0.004521 0.008986 -0.002980 0.000000 0.000000 0.000000
# 3 -0.004028 -0.002980 0.018063 0.000000 0.000000 0.000000
# 4 0.000000 0.000000 0.000000 0.049213 0.000000 0.000000
# 5 0.000000 0.000000 0.000000 0.000000 0.066391 0.000000
# 6 0.000000 0.000000 0.000000 0.000000 0.000000 0.071027
#
#
# Mechanical properties :
#
#
# Convention : Reuss Voigt Hill
#
# Bulk Modulus (GPa) = 52.92535 62.24855 57.58695
# Shear Modulus (GPa) = 19.38458 22.47626 20.93042
#
# Velocity S-wave (km/s) = 3.26035 3.51074 3.38786
# Velocity P-wave (km/s) = 6.57235 7.11118 6.84707
#
# Compressibility (1/GPa) = 0.01889454
#
# Stress axis : x y z
#
# Youngs Moduli (GPa) = 67.10560 111.28062 55.36208
#
# Poissons Ratio (x) = 0.50305 0.22300
# Poissons Ratio (y) = 0.30336 0.16496
# Poissons Ratio (z) = 0.27031 0.33158
#
# Static dielectric constant tensor:
#      x y z
#    x 1.611950 0.000000 0.000000 
#    y 0.000000 1.659760 0.000000 
#    z 0.000000 0.000000 1.637130 
# 
# From -- ./inp_files/8984.got.cif
#   From: 2010.05.17/outbox.cif.g08.bks.cpg/sg66_5_cif.got.tgz:8984.got - 2010.06.03 17:51:23.
