data_PCOD9494279
_publ_section_title
;
Structure prediction by ZEFSAII (Michael W. Deem and Ramdas Pophale) SiO2 
 PCOD9494279
Probable space group: C M M M
;
_chemical_formula_sum "Si O2"
_cell_formula_units_Z 88
_cell_length_a 14.628644
_cell_length_b 7.370455
_cell_length_c 31.623808
_cell_angle_alpha 90.000000
_cell_angle_beta 90.000000
_cell_angle_gamma 90.000000
_cell_volume 3409.671462
_symmetry_space_group_name_H-M "C M M M"
_symmetry_group_IT_number 65
_symmetry_cell_setting 'orthorhombic'
loop_
_space_group_symop_operation_xyz
x,y,z
-x,-y,z
x,-y,-z
-x,y,-z
-x,-y,-z
x,y,-z
-x,y,z
x,-y,z
1/2+x,1/2+y,z
1/2-x,1/2-y,z
1/2+x,1/2-y,-z
1/2-x,1/2+y,-z
1/2-x,1/2-y,-z
1/2+x,1/2+y,-z
1/2-x,1/2+y,z
1/2+x,1/2-y,z
loop_
_atom_site_type_symbol
_atom_site_label
_atom_site_fract_x
_atom_site_fract_y
_atom_site_fract_z
Si Si1 0.896323 0.286067 0.500000
Si Si2 0.140320 0.782703 0.863351
Si Si3 0.104359 0.784341 0.591344
Si Si4 0.857716 0.783791 0.227468
Si Si5 0.140396 0.782850 0.954445
Si Si6 0.108821 0.794492 0.320004
O O1 0.903603 0.500000 0.500000
O O2 0.852914 0.239431 0.545164
O O3 0.000000 0.204883 0.500000
O O4 0.250000 0.750000 0.863710
O O5 0.105758 0.714523 0.817781
O O6 0.106498 0.713807 0.908901
O O7 0.125829 0.000000 0.863140
O O8 0.143900 0.711555 0.635754
O O9 0.000000 0.712768 0.586975
O O10 0.099836 0.000000 0.597832
O O11 0.750000 0.750000 0.224957
O O12 0.882157 0.709028 0.273682
O O13 0.879080 0.000000 0.228394
O O14 0.250000 0.750000 0.954489
O O15 0.125349 0.000000 0.954409
O O16 0.106659 0.713730 0.000000
O O17 0.000000 0.806914 0.326697
O O18 0.147422 0.000000 0.315993
#
# Coordination Sequence:
#
# PCOD9494279 Si02
#       6
#     8  16  16  16  16  16
#     4   9  15  21  31  51  78 101 118 141 179 223
#     4   8  13  20  30  45  65  89 116 146 180 217
#     4   8  13  22  36  52  70  94 123 151 179 213
#     4   9  16  26  40  57  77 100 127 158 191 227
#     4   8  12  17  25  38  58  84 112 140 172 212
#     4   8  14  25  41  59  77  99 129 162 189 215
#
# _framework density 25.808935999999999
#
# number of rings (size 3 to 8) (size 9 to 14) (size 15 to 20)
#    0.000    3.727    0.000    1.364    0.000    1.091 
#    0.000    0.909    0.000    1.636    0.000    0.636 
#    0.000    0.727    0.000   10.182    0.000    3.455 
#
# Total GULP energy -245002.815433 kJ/mol
# GULP energy per Si atom -5568.245805 kJ/mol
# Density = 2.575019 g / cm^3
# Si number density = 25.808936 Si / 1000 Ang^3
#
#
#
# Elastic Constant Matrix: (Units=GPa)
#
#
# Indices 1 2 3 4 5 6 
#
# 1 83.9214 -9.8844 20.2615 0.0000 0.0000 0.0000
# 2 -9.8844 105.6993 17.4185 0.0000 0.0000 0.0000
# 3 20.2615 17.4185 426.7626 0.0000 0.0000 0.0000
# 4 0.0000 0.0000 0.0000 374.4481 0.0000 0.0000
# 5 0.0000 0.0000 0.0000 0.0000 18.8899 0.0000
# 6 0.0000 0.0000 0.0000 0.0000 0.0000 -13.5175
#
#
#
# Elastic Compliance Matrix: (Units=1/GPa)
#
#
# Indices 1 2 3 4 5 6 
#
# 1 0.012215 0.001246 -0.000631 0.000000 0.000000 0.000000
# 2 0.001246 0.009652 -0.000453 0.000000 0.000000 0.000000
# 3 -0.000631 -0.000453 0.002392 0.000000 0.000000 0.000000
# 4 0.000000 0.000000 0.000000 0.002671 0.000000 0.000000
# 5 0.000000 0.000000 0.000000 0.000000 0.052938 0.000000
# 6 0.000000 0.000000 0.000000 0.000000 0.000000 -0.073978
#
#
# Mechanical properties :
#
#
# Convention : Reuss Voigt Hill
#
# Bulk Modulus (GPa) = 40.67805 74.66383 57.67094
# Shear Modulus (GPa) = 363.39818 115.20330 239.30074
#
# Velocity S-wave (km/s) = 11.87893 6.68834 9.63957
# Velocity P-wave (km/s) = 14.28078 9.41475 12.09500
#
# Compressibility (1/GPa) = 0.02458328
#
# Stress axis : x y z
#
# Youngs Moduli (GPa) = 81.86667 103.60534 418.11864
#
# Poissons Ratio (x) = -0.12912 0.26375
# Poissons Ratio (y) = -0.10202 0.18946
# Poissons Ratio (z) = 0.05164 0.04695
#
# Static dielectric constant tensor:
#      x y z
#    x 2.137990 0.000000 0.000000 
#    y 0.000000 2.025840 0.000000 
#    z 0.000000 0.000000 2.183200 
# 
# From -- ./inp_files/76762.got.cif
#   From: 2010.05.17/outbox.cif.g08.bks.cpg/sg65_39_cif.got.tgz:76762.got - 2010.06.03 17:01:31.
