data_PCOD9494140
_publ_section_title
;
Structure prediction by ZEFSAII (Michael W. Deem and Ramdas Pophale) SiO2 
 PCOD9494140
Probable space group: C M M M
;
_chemical_formula_sum "Si O2"
_cell_formula_units_Z 84
_cell_length_a 13.897159
_cell_length_b 19.656636
_cell_length_c 13.275540
_cell_angle_alpha 90.000000
_cell_angle_beta 90.000000
_cell_angle_gamma 90.000000
_cell_volume 3626.497793
_symmetry_space_group_name_H-M "C M M M"
_symmetry_group_IT_number 65
_symmetry_cell_setting 'orthorhombic'
loop_
_space_group_symop_operation_xyz
x,y,z
-x,-y,z
x,-y,-z
-x,y,-z
-x,-y,-z
x,y,-z
-x,y,z
x,-y,z
1/2+x,1/2+y,z
1/2-x,1/2-y,z
1/2+x,1/2-y,-z
1/2-x,1/2+y,-z
1/2-x,1/2-y,-z
1/2+x,1/2+y,-z
1/2-x,1/2+y,z
1/2+x,1/2-y,z
loop_
_atom_site_type_symbol
_atom_site_label
_atom_site_fract_x
_atom_site_fract_y
_atom_site_fract_z
Si Si1 0.893152 0.231265 0.879953
Si Si2 0.685568 0.355647 0.380432
Si Si3 0.106516 0.295051 0.379587
Si Si4 0.188061 0.904824 0.179458
Si Si5 0.126563 0.000000 0.000000
Si Si6 0.106549 0.610570 0.877964
O O1 0.819194 0.175934 0.842427
O O2 0.888278 0.309616 0.847971
O O3 0.000000 0.205865 0.853679
O O4 0.884674 0.233695 0.000000
O O5 0.675599 0.371875 0.500000
O O6 0.798058 0.338535 0.356941
O O7 0.629088 0.284652 0.360858
O O8 0.656073 0.410231 0.295612
O O9 0.101963 0.299916 0.500000
O O10 0.000000 0.314400 0.342224
O O11 0.299331 0.924923 0.164533
O O12 0.130823 0.941773 0.090299
O O13 0.000000 0.584869 0.851207
O O14 0.113700 0.606914 0.000000
#
# Coordination Sequence:
#
# PCOD9494140 Si02
#       6
#    16  16  16  16   4  16
#     4   9  18  33  56  86 113 141 181 226 288 357
#     4   9  20  34  53  84 116 152 185 219 278 336
#     4   8  15  31  54  85 124 152 176 214 269 347
#     4  12  22  39  57  76 116 152 186 244 276 330
#     4  12  28  44  58  80 100 154 216 240 302 320
#     4   9  18  33  56  86 113 141 181 226 288 357
#
# _framework density 23.162844
#
# number of rings (size 3 to 8) (size 9 to 14) (size 15 to 20)
#    0.000    2.476    1.905    2.857    5.333    3.048 
#    0.000    2.381    0.000    0.000    0.000    0.000 
#    0.000    9.143    0.000    0.000    0.000    0.000 
#
# Total GULP energy -233893.047532 kJ/mol
# GULP energy per Si atom -5568.882084 kJ/mol
# Density = 2.311012 g / cm^3
# Si number density = 23.162844 Si / 1000 Ang^3
#
#
#
# Elastic Constant Matrix: (Units=GPa)
#
#
# Indices 1 2 3 4 5 6 
#
# 1 73.4011 2.2219 -5.8867 0.0000 0.0000 0.0000
# 2 2.2219 64.7943 39.2471 0.0000 0.0000 0.0000
# 3 -5.8867 39.2471 157.9409 0.0000 0.0000 0.0000
# 4 0.0000 0.0000 0.0000 -54.6805 0.0000 0.0000
# 5 0.0000 0.0000 0.0000 0.0000 23.6353 0.0000
# 6 0.0000 0.0000 0.0000 0.0000 0.0000 -88.6809
#
#
#
# Elastic Compliance Matrix: (Units=1/GPa)
#
#
# Indices 1 2 3 4 5 6 
#
# 1 0.013711 -0.000918 0.000739 0.000000 0.000000 0.000000
# 2 -0.000918 0.018229 -0.004564 0.000000 0.000000 0.000000
# 3 0.000739 -0.004564 0.007493 0.000000 0.000000 0.000000
# 4 0.000000 0.000000 0.000000 -0.018288 0.000000 0.000000
# 5 0.000000 0.000000 0.000000 0.000000 0.042310 0.000000
# 6 0.000000 0.000000 0.000000 0.000000 0.000000 -0.011276
#
#
# Mechanical properties :
#
#
# Convention : Reuss Voigt Hill
#
# Bulk Modulus (GPa) = 33.39144 40.81121 37.10132
# Shear Modulus (GPa) = 69.78669 -6.57494 31.60587
#
# Velocity S-wave (km/s) = 5.49492 -1.68663 3.69793
# Velocity P-wave (km/s) = 7.39636 3.72351 5.85537
#
# Compressibility (1/GPa) = 0.02994780
#
# Stress axis : x y z
#
# Youngs Moduli (GPa) = 72.93507 54.85615 133.45480
#
# Poissons Ratio (x) = 0.05035 -0.09864
# Poissons Ratio (y) = 0.06694 0.60910
# Poissons Ratio (z) = -0.05391 0.25037
#
# Static dielectric constant tensor:
#      x y z
#    x 1.916670 0.000000 0.000000 
#    y 0.000000 1.842540 0.000000 
#    z 0.000000 0.000000 1.928190 
# 
# From -- ./inp_files/40160.got.cif
#   From: 2010.05.17/outbox.cif.g08.bks.cpg/sg65_21_cif.got.tgz:40160.got - 2010.06.03 17:01:31.
