data_PCOD9494419
_publ_section_title
;
Structure prediction by ZEFSAII (Michael W. Deem and Ramdas Pophale) SiO2 
 PCOD9494419
Probable space group: C M M M
;
_chemical_formula_sum "Si O2"
_cell_formula_units_Z 104
_cell_length_a 19.681795
_cell_length_b 26.870082
_cell_length_c 13.789378
_cell_angle_alpha 90.000000
_cell_angle_beta 90.000000
_cell_angle_gamma 90.000000
_cell_volume 7292.532489
_symmetry_space_group_name_H-M "C M M M"
_symmetry_group_IT_number 65
_symmetry_cell_setting 'orthorhombic'
loop_
_space_group_symop_operation_xyz
x,y,z
-x,-y,z
x,-y,-z
-x,y,-z
-x,-y,-z
x,y,-z
-x,y,z
x,-y,z
1/2+x,1/2+y,z
1/2-x,1/2-y,z
1/2+x,1/2-y,-z
1/2-x,1/2+y,-z
1/2-x,1/2-y,-z
1/2+x,1/2+y,-z
1/2-x,1/2+y,z
1/2+x,1/2-y,z
loop_
_atom_site_type_symbol
_atom_site_label
_atom_site_fract_x
_atom_site_fract_y
_atom_site_fract_z
Si Si1 0.919710 0.204949 0.386971
Si Si2 0.421660 0.055982 0.117798
Si Si3 0.827538 0.646798 0.884797
Si Si4 0.919215 0.100943 0.720016
Si Si5 0.830458 0.250718 0.777203
Si Si6 0.917368 0.000000 0.388355
Si Si7 0.166765 0.148027 0.113191
O O1 0.902806 0.210057 0.500000
O O2 0.909067 0.147985 0.351693
O O3 0.874881 0.239247 0.317220
O O4 0.000000 0.215532 0.374396
O O5 0.500000 0.065333 0.146098
O O6 0.371445 0.099647 0.148692
O O7 0.402721 0.000000 0.149554
O O8 0.420178 0.055596 0.000000
O O9 0.845800 0.696765 0.827233
O O10 0.746991 0.637336 0.873512
O O11 0.839415 0.654803 0.000000
O O12 0.877937 0.113595 0.817006
O O13 0.000000 0.097916 0.740453
O O14 0.897334 0.049989 0.668299
O O15 0.750000 0.250000 0.754293
O O16 0.843398 0.205051 0.851566
O O17 0.893933 0.000000 0.500000
O O18 0.000000 0.000000 0.391249
O O19 0.150065 0.142735 0.000000
#
# Coordination Sequence:
#
# PCOD9494419 Si02
#       7
#    16  16  16  16  16   8  16
#     4   9  17  29  44  62  85 110 136 174 223 265
#     4   8  14  25  40  58  81 106 133 170 212 247
#     4   9  16  27  43  62  85 114 145 172 203 248
#     4   9  17  29  44  62  83 109 144 182 215 251
#     4   9  17  28  43  62  85 111 144 176 208 250
#     4   9  16  28  47  65  79 101 139 184 224 258
#     4   9  17  29  42  59  86 119 147 172 206 248
#
# _framework density 14.261164000000001
#
# number of rings (size 3 to 8) (size 9 to 14) (size 15 to 20)
#    0.000    3.154    0.000    1.385    0.000    4.923 
#    1.385    0.385    0.000    4.154    0.000    0.000 
#    0.000    0.000    0.000    3.385    0.000    0.154 
#
# Total GULP energy -289487.713041 kJ/mol
# GULP energy per Si atom -5567.071405 kJ/mol
# Density = 1.422871 g / cm^3
# Si number density = 14.261164 Si / 1000 Ang^3
#
#
#
# Elastic Constant Matrix: (Units=GPa)
#
#
# Indices 1 2 3 4 5 6 
#
# 1 49.7158 64.2794 56.0437 0.0000 0.0000 0.0000
# 2 64.2794 123.3849 66.5670 0.0000 0.0000 0.0000
# 3 56.0437 66.5670 110.7758 0.0000 0.0000 0.0000
# 4 0.0000 0.0000 0.0000 16.6662 0.0000 0.0000
# 5 0.0000 0.0000 0.0000 0.0000 20.7854 0.0000
# 6 0.0000 0.0000 0.0000 0.0000 0.0000 24.5051
#
#
#
# Elastic Compliance Matrix: (Units=1/GPa)
#
#
# Indices 1 2 3 4 5 6 
#
# 1 0.098704 -0.036224 -0.028168 0.000000 0.000000 0.000000
# 2 -0.036224 0.025287 0.003131 0.000000 0.000000 0.000000
# 3 -0.028168 0.003131 0.021397 0.000000 0.000000 0.000000
# 4 0.000000 0.000000 0.000000 0.060002 0.000000 0.000000
# 5 0.000000 0.000000 0.000000 0.000000 0.048111 0.000000
# 6 0.000000 0.000000 0.000000 0.000000 0.000000 0.040808
#
#
# Mechanical properties :
#
#
# Convention : Reuss Voigt Hill
#
# Bulk Modulus (GPa) = 43.73618 73.07297 58.40458
# Shear Modulus (GPa) = 11.77989 18.85708 15.31849
#
# Velocity S-wave (km/s) = 2.87716 3.64025 3.28096
# Velocity P-wave (km/s) = 6.46313 8.30776 7.44281
#
# Compressibility (1/GPa) = 0.02286437
#
# Stress axis : x y z
#
# Youngs Moduli (GPa) = 10.13134 39.54594 46.73624
#
# Poissons Ratio (x) = 1.43252 1.31649
# Poissons Ratio (y) = 0.36700 -0.14634
# Poissons Ratio (z) = 0.28538 -0.12382
#
# Static dielectric constant tensor:
#      x y z
#    x 1.464580 0.000000 0.000000 
#    y 0.000000 1.465120 0.000000 
#    z 0.000000 0.000000 1.445960 
# 
# From -- ./inp_files/27480.got.cif
#   From: 2010.05.17/outbox.cif.g08.bks.cpg/sg65_14_cif.got.tgz:27480.got - 2010.06.03 17:01:31.
