data_PCOD9494891
_publ_section_title
;
Structure prediction by ZEFSAII (Michael W. Deem and Ramdas Pophale) SiO2 
 PCOD9494891
Probable space group: C C C M
;
_chemical_formula_sum "Si O2"
_cell_formula_units_Z 96
_cell_length_a 7.418331
_cell_length_b 22.576987
_cell_length_c 22.729010
_cell_angle_alpha 90.000000
_cell_angle_beta 90.000000
_cell_angle_gamma 90.000000
_cell_volume 3806.735568
_symmetry_space_group_name_H-M "C C C M"
_symmetry_group_IT_number 66
_symmetry_cell_setting 'orthorhombic'
loop_
_space_group_symop_operation_xyz
x,y,z
-x,-y,z
x,-y,1/2-z
-x,y,1/2-z
-x,-y,-z
x,y,-z
-x,y,1/2+z
x,-y,1/2+z
1/2+x,1/2+y,z
1/2-x,1/2-y,z
1/2+x,1/2-y,1/2-z
1/2-x,1/2+y,1/2-z
1/2-x,1/2-y,-z
1/2+x,1/2+y,-z
1/2-x,1/2+y,1/2+z
1/2+x,1/2-y,1/2+z
loop_
_atom_site_type_symbol
_atom_site_label
_atom_site_fract_x
_atom_site_fract_y
_atom_site_fract_z
Si Si1 0.008087 0.785302 0.680607
Si Si2 0.284405 0.567416 0.761705
Si Si3 0.101774 0.659291 0.326182
Si Si4 0.842343 0.411984 0.566062
Si Si5 0.558085 0.352851 0.936244
Si Si6 0.307388 0.466769 0.389695
O O1 0.969672 0.714658 0.684768
O O2 0.210496 0.805792 0.665473
O O3 0.911077 0.814549 0.623390
O O4 0.000000 0.804118 0.750000
O O5 0.231986 0.500000 0.750000
O O6 0.500000 0.572941 0.750000
O O7 0.166000 0.611646 0.722789
O O8 0.257286 0.568629 0.830915
O O9 0.052726 0.625076 0.385322
O O10 0.912837 0.411744 0.500000
O O11 0.646394 0.379523 0.565182
O O12 0.812437 0.478726 0.589070
O O13 0.668364 0.414162 0.935217
O O14 0.582494 0.322235 0.000000
O O15 0.500000 0.500000 0.377468
#
# Coordination Sequence:
#
# PCOD9494891 Si02
#       6
#    16  16  16  16  16  16
#     4  10  20  33  47  64  94 128 168 203 233 281
#     4  11  16  25  44  70  97 121 152 192 244 289
#     4  10  19  30  45  68  94 127 160 195 241 289
#     4   9  16  25  38  64  99 127 148 180 235 301
#     4   9  17  27  42  65  95 129 160 192 235 288
#     4  10  15  23  40  66  97 125 151 189 239 293
#
# _framework density 25.218457999999998
#
# number of rings (size 3 to 8) (size 9 to 14) (size 15 to 20)
#    0.000    2.167    3.333    4.000    0.000    2.667 
#    0.000    3.333    0.000    0.500    0.000   10.500 
#    0.000    1.333    0.000    0.000    0.000    0.000 
#
# Total GULP energy -267799.898345 kJ/mol
# GULP energy per Si atom -5579.164549 kJ/mol
# Density = 2.516106 g / cm^3
# Si number density = 25.218458 Si / 1000 Ang^3
#
#
#
# Elastic Constant Matrix: (Units=GPa)
#
#
# Indices 1 2 3 4 5 6 
#
# 1 41.3095 25.2706 24.1272 0.0000 0.0000 0.0000
# 2 25.2706 195.7395 110.9154 0.0000 0.0000 0.0000
# 3 24.1272 110.9154 254.2999 0.0000 0.0000 0.0000
# 4 0.0000 0.0000 0.0000 45.5794 0.0000 0.0000
# 5 0.0000 0.0000 0.0000 0.0000 23.5081 0.0000
# 6 0.0000 0.0000 0.0000 0.0000 0.0000 -4.1706
#
#
#
# Elastic Compliance Matrix: (Units=1/GPa)
#
#
# Indices 1 2 3 4 5 6 
#
# 1 0.026635 -0.002665 -0.001364 0.000000 0.000000 0.000000
# 2 -0.002665 0.007053 -0.002823 0.000000 0.000000 0.000000
# 3 -0.001364 -0.002823 0.005293 0.000000 0.000000 0.000000
# 4 0.000000 0.000000 0.000000 0.021940 0.000000 0.000000
# 5 0.000000 0.000000 0.000000 0.000000 0.042538 0.000000
# 6 0.000000 0.000000 0.000000 0.000000 0.000000 -0.239772
#
#
# Mechanical properties :
#
#
# Convention : Reuss Voigt Hill
#
# Bulk Modulus (GPa) = 39.56543 90.21946 64.89245
# Shear Modulus (GPa) = -43.78992 35.05242 -4.36875
#
# Velocity S-wave (km/s) = -4.17156 3.73225 -1.31762
# Velocity P-wave (km/s) = 2.73486 7.37738 4.84491
#
# Compressibility (1/GPa) = 0.02527459
#
# Stress axis : x y z
#
# Youngs Moduli (GPa) = 37.54454 141.78912 188.92168
#
# Poissons Ratio (x) = 0.37794 0.25778
# Poissons Ratio (y) = 0.10007 0.53337
# Poissons Ratio (z) = 0.05123 0.40030
#
# Static dielectric constant tensor:
#      x y z
#    x 2.013810 0.000000 0.000000 
#    y 0.000000 2.002050 0.000000 
#    z 0.000000 0.000000 2.159570 
# 
# From -- ./inp_files/50169.got.cif
#   From: 2010.05.17/outbox.cif.g08.bks.cpg/sg66_26_cif.got.tgz:50169.got - 2010.06.03 17:51:23.
