data_PCOD9494947
_publ_section_title
;
Structure prediction by ZEFSAII (Michael W. Deem and Ramdas Pophale) SiO2 
 PCOD9494947
Probable space group: C C C M
;
_chemical_formula_sum "Si O2"
_cell_formula_units_Z 44
_cell_length_a 4.958292
_cell_length_b 13.586904
_cell_length_c 26.297894
_cell_angle_alpha 90.000000
_cell_angle_beta 90.000000
_cell_angle_gamma 90.000000
_cell_volume 1771.632247
_symmetry_space_group_name_H-M "C C C M"
_symmetry_group_IT_number 66
_symmetry_cell_setting 'orthorhombic'
loop_
_space_group_symop_operation_xyz
x,y,z
-x,-y,z
x,-y,1/2-z
-x,y,1/2-z
-x,-y,-z
x,y,-z
-x,y,1/2+z
x,-y,1/2+z
1/2+x,1/2+y,z
1/2-x,1/2-y,z
1/2+x,1/2-y,1/2-z
1/2-x,1/2+y,1/2-z
1/2-x,1/2-y,-z
1/2+x,1/2+y,-z
1/2-x,1/2+y,1/2+z
1/2+x,1/2-y,1/2+z
loop_
_atom_site_type_symbol
_atom_site_label
_atom_site_fract_x
_atom_site_fract_y
_atom_site_fract_z
Si Si1 0.239353 0.368699 0.665021
Si Si2 0.250493 0.631819 0.397580
Si Si3 0.989416 0.672881 0.000000
Si Si4 0.000000 0.000000 0.750000
O O1 0.250000 0.250000 0.672746
O O2 0.442820 0.393271 0.617407
O O3 0.331909 0.427707 0.713757
O O4 0.939149 0.396437 0.648884
O O5 0.250000 0.750000 0.396976
O O6 0.086561 0.610068 0.449608
O O7 0.750000 0.750000 0.000000
O O8 0.250000 0.750000 0.000000
#
# Coordination Sequence:
#
# PCOD9494947 Si02
#       4
#    16  16   8   4
#     4  10  23  41  62  92 128 166 215 272 322 381
#     4   9  18  35  59  91 129 163 206 262 318 386
#     4  10  16  28  58  95 126 167 210 250 320 401
#     4  12  28  46  72  94 128 182 232 278 340 394
#
# _framework density 24.835853
#
# number of rings (size 3 to 8) (size 9 to 14) (size 15 to 20)
#    0.000    2.182    0.000    5.455    0.000    8.727 
#    0.000    0.000    0.000    6.545    0.000    0.000 
#    0.000    0.000    0.000    0.000    0.000    0.000 
#
# Total GULP energy -122707.351447 kJ/mol
# GULP energy per Si atom -5577.606884 kJ/mol
# Density = 2.477933 g / cm^3
# Si number density = 24.835853 Si / 1000 Ang^3
#
#
#
# Elastic Constant Matrix: (Units=GPa)
#
#
# Indices 1 2 3 4 5 6 
#
# 1 148.3371 -7.6372 40.1634 0.0000 0.0000 0.0000
# 2 -7.6372 129.5486 26.7410 0.0000 0.0000 0.0000
# 3 40.1634 26.7410 156.6170 0.0000 0.0000 0.0000
# 4 0.0000 0.0000 0.0000 -109.2945 0.0000 0.0000
# 5 0.0000 0.0000 0.0000 0.0000 74.4020 0.0000
# 6 0.0000 0.0000 0.0000 0.0000 0.0000 19.2879
#
#
#
# Elastic Compliance Matrix: (Units=1/GPa)
#
#
# Indices 1 2 3 4 5 6 
#
# 1 0.007334 0.000851 -0.002026 0.000000 0.000000 0.000000
# 2 0.000851 0.008100 -0.001601 0.000000 0.000000 0.000000
# 3 -0.002026 -0.001601 0.007178 0.000000 0.000000 0.000000
# 4 0.000000 0.000000 0.000000 -0.009150 0.000000 0.000000
# 5 0.000000 0.000000 0.000000 0.000000 0.013440 0.000000
# 6 0.000000 0.000000 0.000000 0.000000 0.000000 0.051846
#
#
# Mechanical properties :
#
#
# Convention : Reuss Voigt Hill
#
# Bulk Modulus (GPa) = 58.62196 61.44857 60.03526
# Shear Modulus (GPa) = 55.56333 21.89478 38.72905
#
# Velocity S-wave (km/s) = 4.73506 2.97236 3.95321
# Velocity P-wave (km/s) = 7.31775 6.04777 6.71286
#
# Compressibility (1/GPa) = 0.01705845
#
# Stress axis : x y z
#
# Youngs Moduli (GPa) = 136.35646 123.46074 139.31649
#
# Poissons Ratio (x) = -0.10501 0.28224
# Poissons Ratio (y) = -0.11597 0.22306
# Poissons Ratio (z) = 0.27625 0.19767
#
# Static dielectric constant tensor:
#      x y z
#    x 1.978610 0.000000 0.000000 
#    y 0.000000 1.943920 0.000000 
#    z 0.000000 0.000000 2.147410 
# 
# From -- ./inp_files/60847.got.cif
#   From: 2010.05.17/outbox.cif.g08.bks.cpg/sg66_31_cif.got.tgz:60847.got - 2010.06.03 17:51:23.
