data_PCOD9494561
_publ_section_title
;
Structure prediction by ZEFSAII (Michael W. Deem and Ramdas Pophale) SiO2 
 PCOD9494561
Probable space group: C M M M
;
_chemical_formula_sum "Si O2"
_cell_formula_units_Z 40
_cell_length_a 21.000000
_cell_length_b 18.000000
_cell_length_c 12.000000
_cell_angle_alpha 90.000000
_cell_angle_beta 90.000000
_cell_angle_gamma 90.000000
_cell_volume 4536.000000
_symmetry_space_group_name_H-M "C M M M"
_symmetry_group_IT_number 65
_symmetry_cell_setting 'orthorhombic'
loop_
_space_group_symop_operation_xyz
x,y,z
-x,-y,z
x,-y,-z
-x,y,-z
-x,-y,-z
x,y,-z
-x,y,z
x,-y,z
1/2+x,1/2+y,z
1/2-x,1/2-y,z
1/2+x,1/2-y,-z
1/2-x,1/2+y,-z
1/2-x,1/2-y,-z
1/2+x,1/2+y,-z
1/2-x,1/2+y,z
1/2+x,1/2-y,z
loop_
_atom_site_type_symbol
_atom_site_label
_atom_site_fract_x
_atom_site_fract_y
_atom_site_fract_z
Si Si1 0.755272 0.583645 0.626834
Si Si2 0.203342 0.820501 0.000000
Si Si3 0.184574 0.799633 0.760405
Si Si4 0.884761 0.679616 0.373710
Si Si5 0.828698 0.588763 0.000000
Si Si6 0.069583 0.588246 0.819750
O O1 0.731213 0.583253 0.500000
O O2 0.769552 0.500000 0.662572
O O3 0.705510 0.623799 0.705109
O O4 0.819684 0.631188 0.625071
O O5 0.250000 0.750000 0.000000
O O6 0.164677 0.814881 0.113368
O O7 0.256038 0.885730 0.000000
O O8 0.250000 0.750000 0.762011
O O9 0.134210 0.755931 0.686293
O O10 0.906288 0.689749 0.500000
O O11 0.929501 0.632143 0.294915
O O12 0.870291 0.614467 0.893592
O O13 0.831420 0.500000 0.000000
O O14 0.076956 0.500000 0.801790
O O15 0.000000 0.598714 0.873488
#
# Coordination Sequence:
#
# PCOD9494561 Si02
#       6
#    16   8  16  16   8  16
#     4   9  16  26  41  60  83 112 144 176 212 262
#     4  10  18  27  43  64  84 111 145 181 218 261
#     4   9  17  28  41  60  85 111 143 178 218 266
#     4  10  19  30  44  61  85 118 151 183 224 270
#     4  10  19  32  48  65  89 122 155 184 222 269
#     4  10  20  32  46  64  87 117 155 197 231 259
#
# _framework density 8.8183419999999995
#
# number of rings (size 3 to 8) (size 9 to 14) (size 15 to 20)
#    0.000    2.400    0.000    5.100    0.000    7.600 
#    0.000    1.000    0.000    0.000    0.000    0.000 
#    0.000    0.800    0.000    4.600    0.000   45.800 
#
# Total GULP energy -222810.211169 kJ/mol
# GULP energy per Si atom -5570.255279 kJ/mol
# Density = 0.879827 g / cm^3
# Si number density = 8.818342 Si / 1000 Ang^3
#
#
#
# Elastic Constant Matrix: (Units=GPa)
#
#
# Indices 1 2 3 4 5 6 
#
# 1 14.1990 12.4724 27.0325 0.0000 0.0000 0.0000
# 2 12.4724 39.2311 37.2613 0.0000 0.0000 0.0000
# 3 27.0325 37.2613 128.2168 0.0000 0.0000 0.0000
# 4 0.0000 0.0000 0.0000 18.9270 0.0000 0.0000
# 5 0.0000 0.0000 0.0000 0.0000 -701.2136 0.0000
# 6 0.0000 0.0000 0.0000 0.0000 0.0000 12.1558
#
#
#
# Elastic Compliance Matrix: (Units=1/GPa)
#
#
# Indices 1 2 3 4 5 6 
#
# 1 0.129045 -0.020975 -0.021112 0.000000 0.000000 0.000000
# 2 -0.020975 0.038617 -0.006800 0.000000 0.000000 0.000000
# 3 -0.021112 -0.006800 0.014227 0.000000 0.000000 0.000000
# 4 0.000000 0.000000 0.000000 0.052834 0.000000 0.000000
# 5 0.000000 0.000000 0.000000 0.000000 -0.001426 0.000000
# 6 0.000000 0.000000 0.000000 0.000000 0.000000 0.082265
#
#
# Mechanical properties :
#
#
# Convention : Reuss Voigt Hill
#
# Bulk Modulus (GPa) = 11.88845 37.24216 24.56530
# Shear Modulus (GPa) = 11.32827 -127.03410 -57.85292
#
# Velocity S-wave (km/s) = 2.53714 -8.49616 -5.73357
# Velocity P-wave (km/s) = 3.91639 8.66511 5.46562
#
# Compressibility (1/GPa) = 0.08411527
#
# Stress axis : x y z
#
# Youngs Moduli (GPa) = 7.74926 25.89519 70.29068
#
# Poissons Ratio (x) = 0.54314 1.48395
# Poissons Ratio (y) = 0.16254 0.47801
# Poissons Ratio (z) = 0.16360 0.17610
#
# Static dielectric constant tensor:
#      x y z
#    x 1.163880 0.000000 0.000000 
#    y 0.000000 1.562540 0.000000 
#    z 0.000000 0.000000 1.683080 
# 
# From -- ./inp_files/28555.got.cif
#   From: 2010.05.17/outbox.ucp.g08.bks.cvg/sg65_15_cif.got.tgz:28555.got - 2010.06.11 16:39:57.
