data_PCOD9494990
_publ_section_title
;
Structure prediction by ZEFSAII (Michael W. Deem and Ramdas Pophale) SiO2 
 PCOD9494990
Probable space group: C C C M
;
_chemical_formula_sum "Si O2"
_cell_formula_units_Z 128
_cell_length_a 18.872345
_cell_length_b 26.435435
_cell_length_c 19.541387
_cell_angle_alpha 90.000000
_cell_angle_beta 90.000000
_cell_angle_gamma 90.000000
_cell_volume 9749.171585
_symmetry_space_group_name_H-M "C C C M"
_symmetry_group_IT_number 66
_symmetry_cell_setting 'orthorhombic'
loop_
_space_group_symop_operation_xyz
x,y,z
-x,-y,z
x,-y,1/2-z
-x,y,1/2-z
-x,-y,-z
x,y,-z
-x,y,1/2+z
x,-y,1/2+z
1/2+x,1/2+y,z
1/2-x,1/2-y,z
1/2+x,1/2-y,1/2-z
1/2-x,1/2+y,1/2-z
1/2-x,1/2-y,-z
1/2+x,1/2+y,-z
1/2-x,1/2+y,1/2+z
1/2+x,1/2-y,1/2+z
loop_
_atom_site_type_symbol
_atom_site_label
_atom_site_fract_x
_atom_site_fract_y
_atom_site_fract_z
Si Si1 0.562770 0.348558 0.422803
Si Si2 0.921929 0.739738 0.277903
Si Si3 0.766272 0.810433 0.424987
Si Si4 0.082093 0.055234 0.274964
Si Si5 0.219640 0.692479 0.221040
Si Si6 0.643526 0.657892 0.214269
Si Si7 0.577133 0.719910 0.577229
Si Si8 0.965997 0.944560 0.423888
O O1 0.589998 0.342207 0.500000
O O2 0.619185 0.338651 0.364117
O O3 0.494074 0.312529 0.414621
O O4 0.529346 0.404290 0.415719
O O5 0.861192 0.700092 0.256763
O O6 0.897357 0.795950 0.253001
O O7 0.920810 0.741439 0.360367
O O8 0.000000 0.729794 0.250000
O O9 0.746314 0.831181 0.500000
O O10 0.750000 0.750000 0.427934
O O11 0.729375 0.829363 0.355828
O O12 0.851496 0.813667 0.416770
O O13 0.119836 0.103811 0.243309
O O14 0.082835 0.059323 0.357327
O O15 0.000000 0.057998 0.250000
O O16 0.108151 0.000000 0.250000
O O17 0.250000 0.750000 0.216653
O O18 0.273380 0.665033 0.271747
O O19 0.578614 0.741220 0.500000
O O20 0.934513 0.935562 0.500000
O O21 0.000000 0.000000 0.422655
#
# Coordination Sequence:
#
# PCOD9494990 Si02
#       8
#    16  16  16  16  16  16  16  16
#     4  10  19  27  38  56  73 101 141 166 191 228
#     4  11  18  28  43  57  74 103 131 163 200 230
#     4   9  14  22  35  51  76  99 116 150 188 227
#     4  11  18  27  40  60  79 106 137 161 193 236
#     4   9  18  27  37  59  75  96 133 158 196 240
#     4  11  18  28  43  55  80 103 128 167 198 223
#     4  10  17  24  35  55  77  97 128 161 188 231
#     4  10  18  27  36  52  79 105 133 168 193 217
#
# _framework density 13.12932
#
# number of rings (size 3 to 8) (size 9 to 14) (size 15 to 20)
#    0.000    1.875    7.500    1.125    0.000    0.000 
#    0.000    0.000    0.000    4.125    0.000    0.000 
#    0.000    0.500    0.000    0.000    0.000    0.000 
#
# Total GULP energy -356296.413086 kJ/mol
# GULP energy per Si atom -5567.131454 kJ/mol
# Density = 1.309944 g / cm^3
# Si number density = 13.129320 Si / 1000 Ang^3
#
#
#
# Elastic Constant Matrix: (Units=GPa)
#
#
# Indices 1 2 3 4 5 6 
#
# 1 81.6506 27.8528 39.7008 0.0000 0.0000 0.0000
# 2 27.8528 33.7719 25.6209 0.0000 0.0000 0.0000
# 3 39.7008 25.6209 102.0092 0.0000 0.0000 0.0000
# 4 0.0000 0.0000 0.0000 11.8865 0.0000 0.0000
# 5 0.0000 0.0000 0.0000 0.0000 12.0739 0.0000
# 6 0.0000 0.0000 0.0000 0.0000 0.0000 10.2051
#
#
#
# Elastic Compliance Matrix: (Units=1/GPa)
#
#
# Indices 1 2 3 4 5 6 
#
# 1 0.018348 -0.012001 -0.004126 0.000000 0.000000 0.000000
# 2 -0.012001 0.044431 -0.006489 0.000000 0.000000 0.000000
# 3 -0.004126 -0.006489 0.013039 0.000000 0.000000 0.000000
# 4 0.000000 0.000000 0.000000 0.084129 0.000000 0.000000
# 5 0.000000 0.000000 0.000000 0.000000 0.082824 0.000000
# 6 0.000000 0.000000 0.000000 0.000000 0.000000 0.097990
#
#
# Mechanical properties :
#
#
# Convention : Reuss Voigt Hill
#
# Bulk Modulus (GPa) = 32.69635 44.86453 38.78044
# Shear Modulus (GPa) = 12.62028 15.11691 13.86859
#
# Velocity S-wave (km/s) = 3.10373 3.39689 3.25361
# Velocity P-wave (km/s) = 6.14830 7.04490 6.61181
#
# Compressibility (1/GPa) = 0.03058446
#
# Stress axis : x y z
#
# Youngs Moduli (GPa) = 54.50300 22.50680 76.69509
#
# Poissons Ratio (x) = 0.27011 0.31647
# Poissons Ratio (y) = 0.65412 0.49764
# Poissons Ratio (z) = 0.22490 0.14604
#
# Static dielectric constant tensor:
#      x y z
#    x 1.430070 0.000000 0.000000 
#    y 0.000000 1.420030 0.000000 
#    z 0.000000 0.000000 1.482720 
# 
# From -- ./inp_files/51352.got.cif
#   From: 2010.05.17/outbox.cif.g08.bks.cpg/sg66_26_cif.got.tgz:51352.got - 2010.06.03 17:51:23.
