data_PCOD9494598
_publ_section_title
;
Structure prediction by ZEFSAII (Michael W. Deem and Ramdas Pophale) SiO2 
 PCOD9494598
Probable space group: C M M M
;
_chemical_formula_sum "Si O2"
_cell_formula_units_Z 40
_cell_length_a 24.000000
_cell_length_b 9.000000
_cell_length_c 21.000000
_cell_angle_alpha 90.000000
_cell_angle_beta 90.000000
_cell_angle_gamma 90.000000
_cell_volume 4536.000000
_symmetry_space_group_name_H-M "C M M M"
_symmetry_group_IT_number 65
_symmetry_cell_setting 'orthorhombic'
loop_
_space_group_symop_operation_xyz
x,y,z
-x,-y,z
x,-y,-z
-x,y,-z
-x,-y,-z
x,y,-z
-x,y,z
x,-y,z
1/2+x,1/2+y,z
1/2-x,1/2-y,z
1/2+x,1/2-y,-z
1/2-x,1/2+y,-z
1/2-x,1/2-y,-z
1/2+x,1/2+y,-z
1/2-x,1/2+y,z
1/2+x,1/2-y,z
loop_
_atom_site_type_symbol
_atom_site_label
_atom_site_fract_x
_atom_site_fract_y
_atom_site_fract_z
Si Si1 0.000000 0.176662 0.881983
Si Si2 0.000000 0.680455 0.258024
Si Si3 0.611310 0.176658 0.071430
Si Si4 0.190361 0.320733 0.572829
Si Si5 0.189882 0.321174 0.188257
Si Si6 0.382056 0.819534 0.689809
O O1 0.000000 0.249436 0.811841
O O2 0.054644 0.235131 0.917548
O O3 0.000000 0.000000 0.877566
O O4 0.055232 0.726315 0.295557
O O5 0.000000 0.500000 0.250870
O O6 0.654872 0.219625 0.125730
O O7 0.599593 0.000000 0.078991
O O8 0.632623 0.200577 0.000000
O O9 0.176496 0.280999 0.500000
O O10 0.195165 0.500000 0.576171
O O11 0.250000 0.250000 0.588579
O O12 0.144755 0.270385 0.623701
O O13 0.194423 0.500000 0.189761
O O14 0.250000 0.250000 0.187366
O O15 0.156277 0.273228 0.251008
O O16 0.382151 0.000000 0.689204
#
# Coordination Sequence:
#
# PCOD9494598 Si02
#       6
#     8   8  16  16  16  16
#     4  12  23  35  54  82 109 130 164 220 272 303
#     4  10  18  35  58  74  98 138 176 208 255 315
#     4  10  21  38  58  76  99 138 179 209 249 315
#     4   9  17  30  49  76 107 137 170 208 251 300
#     4  10  20  34  52  75 101 133 173 213 255 303
#     4   9  17  31  53  76  99 133 174 213 250 299
#
# _framework density 8.8183419999999995
#
# number of rings (size 3 to 8) (size 9 to 14) (size 15 to 20)
#    0.000    2.200    2.000    1.800    0.000    2.800 
#    0.000    1.500    0.000    3.000    0.000    0.000 
#    0.000    4.000    0.000    0.000    0.000    0.000 
#
# Total GULP energy -223155.986110 kJ/mol
# GULP energy per Si atom -5578.899653 kJ/mol
# Density = 0.879827 g / cm^3
# Si number density = 8.818342 Si / 1000 Ang^3
#
#
#
# Elastic Constant Matrix: (Units=GPa)
#
#
# Indices 1 2 3 4 5 6 
#
# 1 132.4292 25.7947 71.8652 0.0000 0.0000 0.0000
# 2 25.7947 7.7649 20.9351 0.0000 0.0000 0.0000
# 3 71.8652 20.9351 111.7905 0.0000 0.0000 0.0000
# 4 0.0000 0.0000 0.0000 9.2405 0.0000 0.0000
# 5 0.0000 0.0000 0.0000 0.0000 47.8802 0.0000
# 6 0.0000 0.0000 0.0000 0.0000 0.0000 24.3002
#
#
#
# Elastic Compliance Matrix: (Units=1/GPa)
#
#
# Indices 1 2 3 4 5 6 
#
# 1 0.021439 -0.068797 -0.000899 0.000000 0.000000 0.000000
# 2 -0.068797 0.480882 -0.045829 0.000000 0.000000 0.000000
# 3 -0.000899 -0.045829 0.018105 0.000000 0.000000 0.000000
# 4 0.000000 0.000000 0.000000 0.108220 0.000000 0.000000
# 5 0.000000 0.000000 0.000000 0.000000 0.020885 0.000000
# 6 0.000000 0.000000 0.000000 0.000000 0.000000 0.041152
#
#
# Mechanical properties :
#
#
# Convention : Reuss Voigt Hill
#
# Bulk Modulus (GPa) = 3.45569 54.35274 28.90421
# Shear Modulus (GPa) = 4.91067 25.17680 15.04373
#
# Velocity S-wave (km/s) = 1.67045 3.78236 2.92375
# Velocity P-wave (km/s) = 2.38415 7.06823 5.27466
#
# Compressibility (1/GPa) = 0.28937810
#
# Stress axis : x y z
#
# Youngs Moduli (GPa) = 46.64352 2.07951 55.23207
#
# Poissons Ratio (x) = 0.14306 0.04964
# Poissons Ratio (y) = 3.20892 2.53121
# Poissons Ratio (z) = 0.04192 0.09530
#
# Static dielectric constant tensor:
#      x y z
#    x 1.573630 0.000000 0.000000 
#    y 0.000000 1.590120 0.000000 
#    z 0.000000 0.000000 1.603910 
# 
# From -- ./inp_files/59638.got.cif
#   From: 2010.05.17/outbox.ucp.g08.bks.cvg/sg65_30_cif.got.tgz:59638.got - 2010.06.11 16:39:57.
