data_PCOD9494326
_publ_section_title
;
Structure prediction by ZEFSAII (Michael W. Deem and Ramdas Pophale) SiO2 
 PCOD9494326
Probable space group: C M M M
;
_chemical_formula_sum "Si O2"
_cell_formula_units_Z 64
_cell_length_a 10.114932
_cell_length_b 43.289034
_cell_length_c 7.444743
_cell_angle_alpha 90.000000
_cell_angle_beta 90.000000
_cell_angle_gamma 90.000000
_cell_volume 3259.797123
_symmetry_space_group_name_H-M "C M M M"
_symmetry_group_IT_number 65
_symmetry_cell_setting 'orthorhombic'
loop_
_space_group_symop_operation_xyz
x,y,z
-x,-y,z
x,-y,-z
-x,y,-z
-x,-y,-z
x,y,-z
-x,y,z
x,-y,z
1/2+x,1/2+y,z
1/2-x,1/2-y,z
1/2+x,1/2-y,-z
1/2-x,1/2+y,-z
1/2-x,1/2-y,-z
1/2+x,1/2+y,-z
1/2-x,1/2+y,z
1/2+x,1/2-y,z
loop_
_atom_site_type_symbol
_atom_site_label
_atom_site_fract_x
_atom_site_fract_y
_atom_site_fract_z
Si Si1 0.348197 0.846491 0.280611
Si Si2 0.346103 0.466815 0.215888
Si Si3 0.150554 0.898849 0.712310
Si Si4 0.348332 0.223377 0.281022
O O1 0.347830 0.847003 0.500000
O O2 0.500000 0.852288 0.225804
O O3 0.246856 0.872445 0.215752
O O4 0.311568 0.811531 0.226822
O O5 0.500000 0.466383 0.275643
O O6 0.289168 0.500000 0.276968
O O7 0.291525 0.433464 0.267841
O O8 0.345963 0.467352 0.000000
O O9 0.139386 0.893336 0.500000
O O10 0.000000 0.898211 0.786359
O O11 0.346497 0.223696 0.500000
O O12 0.500000 0.229023 0.226776
O O13 0.250000 0.250000 0.218735
#
# Coordination Sequence:
#
# PCOD9494326 Si02
#       4
#    16  16  16  16
#     4   8  14  24  35  48  72 105 132 153 187 234
#     4   8  14  25  40  57  78 103 127 153 191 235
#     4   9  16  24  37  59  80  97 125 164 195 219
#     4   8  13  20  30  45  66  95 129 158 184 219
#
# _framework density 19.633123999999999
#
# number of rings (size 3 to 8) (size 9 to 14) (size 15 to 20)
#    0.000    3.750    0.000    2.250    0.000    1.500 
#    0.000    7.500    0.000    1.500    0.000    5.250 
#    0.000    1.000    0.000    2.250    0.000    4.500 
#
# Total GULP energy -178151.259912 kJ/mol
# GULP energy per Si atom -5567.226872 kJ/mol
# Density = 1.958844 g / cm^3
# Si number density = 19.633124 Si / 1000 Ang^3
#
#
#
# Elastic Constant Matrix: (Units=GPa)
#
#
# Indices 1 2 3 4 5 6 
#
# 1 76.3624 114.7112 4.3411 0.0000 0.0000 0.0000
# 2 114.7112 232.8079 3.3566 0.0000 0.0000 0.0000
# 3 4.3411 3.3566 57.0905 0.0000 0.0000 0.0000
# 4 0.0000 0.0000 0.0000 49.7179 0.0000 0.0000
# 5 0.0000 0.0000 0.0000 0.0000 -5.3991 0.0000
# 6 0.0000 0.0000 0.0000 0.0000 0.0000 29.3361
#
#
#
# Elastic Compliance Matrix: (Units=1/GPa)
#
#
# Indices 1 2 3 4 5 6 
#
# 1 0.050725 -0.024959 -0.002390 0.000000 0.000000 0.000000
# 2 -0.024959 0.016580 0.000923 0.000000 0.000000 0.000000
# 3 -0.002390 0.000923 0.017643 0.000000 0.000000 0.000000
# 4 0.000000 0.000000 0.000000 0.020113 0.000000 0.000000
# 5 0.000000 0.000000 0.000000 0.000000 -0.185215 0.000000
# 6 0.000000 0.000000 0.000000 0.000000 0.000000 0.034088
#
#
# Mechanical properties :
#
#
# Convention : Reuss Voigt Hill
#
# Bulk Modulus (GPa) = 31.15550 67.89762 49.52656
# Shear Modulus (GPa) = 285.96651 30.98777 158.47714
#
# Velocity S-wave (km/s) = 12.08186 3.97714 8.99414
# Velocity P-wave (km/s) = 14.50971 7.46649 11.53864
#
# Compressibility (1/GPa) = 0.03209706
#
# Stress axis : x y z
#
# Youngs Moduli (GPa) = 19.71428 60.31315 56.67818
#
# Poissons Ratio (x) = 1.50536 0.13544
# Poissons Ratio (y) = 0.49205 -0.05232
# Poissons Ratio (z) = 0.04711 -0.05567
#
# Static dielectric constant tensor:
#      x y z
#    x 1.663960 0.000000 0.000000 
#    y 0.000000 1.713810 0.000000 
#    z 0.000000 0.000000 1.754640 
# 
# From -- ./inp_files/4878.got.cif
#   From: 2010.05.17/outbox.cif.g08.bks.cpg/sg65_3_cif.got.tgz:4878.got - 2010.06.03 17:01:31.
