data_PCOD9494681
_publ_section_title
;
Structure prediction by ZEFSAII (Michael W. Deem and Ramdas Pophale) SiO2 
 PCOD9494681
Probable space group: C M M M
;
_chemical_formula_sum "Si O2"
_cell_formula_units_Z 40
_cell_length_a 27.000000
_cell_length_b 18.000000
_cell_length_c 9.000000
_cell_angle_alpha 90.000000
_cell_angle_beta 90.000000
_cell_angle_gamma 90.000000
_cell_volume 4374.000000
_symmetry_space_group_name_H-M "C M M M"
_symmetry_group_IT_number 65
_symmetry_cell_setting 'orthorhombic'
loop_
_space_group_symop_operation_xyz
x,y,z
-x,-y,z
x,-y,-z
-x,y,-z
-x,-y,-z
x,y,-z
-x,y,z
x,-y,z
1/2+x,1/2+y,z
1/2-x,1/2-y,z
1/2+x,1/2-y,-z
1/2-x,1/2+y,-z
1/2-x,1/2-y,-z
1/2+x,1/2+y,-z
1/2-x,1/2+y,z
1/2+x,1/2-y,z
loop_
_atom_site_type_symbol
_atom_site_label
_atom_site_fract_x
_atom_site_fract_y
_atom_site_fract_z
Si Si1 0.751463 0.161870 0.675945
Si Si2 0.055129 0.340115 0.178675
Si Si3 0.349981 0.087438 0.323623
Si Si4 0.845903 0.086049 0.179365
Si Si5 0.554552 0.333986 0.180510
O O1 0.755366 0.144700 0.500000
O O2 0.750000 0.250000 0.693926
O O3 0.699617 0.128037 0.731375
O O4 0.798835 0.128504 0.756740
O O5 0.100349 0.384126 0.247376
O O6 0.059669 0.252946 0.218428
O O7 0.000000 0.365521 0.225381
O O8 0.057245 0.345040 0.000000
O O9 0.354109 0.101923 0.500000
O O10 0.344071 0.000000 0.300801
O O11 0.897789 0.121095 0.232609
O O12 0.843265 0.000000 0.221292
O O13 0.845055 0.091064 0.000000
O O14 0.500000 0.359932 0.231006
O O15 0.554203 0.338194 0.000000
#
# Coordination Sequence:
#
# PCOD9494681 Si02
#       5
#    16  16  16  16  16
#     4  10  21  37  56  75  97 131 173 212 253 301
#     4   9  18  33  53  75  98 128 167 207 246 289
#     4  10  21  35  50  71 100 131 162 199 247 301
#     4  10  20  32  50  79 108 133 166 206 249 299
#     4   8  15  30  51  74 102 134 166 203 246 290
#
# _framework density 9.1449470000000002
#
# number of rings (size 3 to 8) (size 9 to 14) (size 15 to 20)
#    0.000    2.600    0.000    3.000    0.000    4.000 
#    0.000    4.000    0.000    1.800    0.000    1.400 
#    0.000    0.000    0.000    0.000    0.000    0.000 
#
# Total GULP energy -223093.128121 kJ/mol
# GULP energy per Si atom -5577.328203 kJ/mol
# Density = 0.912413 g / cm^3
# Si number density = 9.144947 Si / 1000 Ang^3
#
#
#
# Elastic Constant Matrix: (Units=GPa)
#
#
# Indices 1 2 3 4 5 6 
#
# 1 146.9630 11.1462 34.7787 0.0000 0.0000 0.0000
# 2 11.1462 -49.3482 31.5735 0.0000 0.0000 0.0000
# 3 34.7787 31.5735 5.7691 0.0000 0.0000 0.0000
# 4 0.0000 0.0000 0.0000 11.1026 0.0000 0.0000
# 5 0.0000 0.0000 0.0000 0.0000 10.6458 0.0000
# 6 0.0000 0.0000 0.0000 0.0000 0.0000 92.1880
#
#
#
# Elastic Compliance Matrix: (Units=1/GPa)
#
#
# Indices 1 2 3 4 5 6 
#
# 1 0.012218 -0.009856 -0.019717 0.000000 0.000000 0.000000
# 2 -0.009856 0.003448 0.040541 0.000000 0.000000 0.000000
# 3 -0.019717 0.040541 0.070325 0.000000 0.000000 0.000000
# 4 0.000000 0.000000 0.000000 0.090069 0.000000 0.000000
# 5 0.000000 0.000000 0.000000 0.000000 0.093934 0.000000
# 6 0.000000 0.000000 0.000000 0.000000 0.000000 0.010847
#
#
# Mechanical properties :
#
#
# Convention : Reuss Voigt Hill
#
# Bulk Modulus (GPa) = 9.26544 28.70898 18.98721
# Shear Modulus (GPa) = 16.95603 24.51298 20.73450
#
# Velocity S-wave (km/s) = 3.04809 3.66491 3.37064
# Velocity P-wave (km/s) = 4.17907 5.79995 5.05490
#
# Compressibility (1/GPa) = 0.10792796
#
# Stress axis : x y z
#
# Youngs Moduli (GPa) = 81.84678 289.98923 14.21975
#
# Poissons Ratio (x) = 2.85801 0.28037
# Poissons Ratio (y) = 0.80665 -0.57648
# Poissons Ratio (z) = 1.61378 -11.75648
#
# Static dielectric constant tensor:
#      x y z
#    x 1.615570 0.000000 0.000000 
#    y 0.000000 1.610830 0.000000 
#    z 0.000000 0.000000 1.622480 
# 
# From -- ./inp_files/9596.got.cif
#   From: 2010.05.17/outbox.ucp.g08.bks.cvg/sg65_5_cif.got.tgz:9596.got - 2010.06.11 16:39:57.
