data_PCOD9494685
_publ_section_title
;
Structure prediction by ZEFSAII (Michael W. Deem and Ramdas Pophale) SiO2 
 PCOD9494685
Probable space group: C M M M
;
_chemical_formula_sum "Si O2"
_cell_formula_units_Z 44
_cell_length_a 30.000000
_cell_length_b 18.000000
_cell_length_c 9.000000
_cell_angle_alpha 90.000000
_cell_angle_beta 90.000000
_cell_angle_gamma 90.000000
_cell_volume 4860.000000
_symmetry_space_group_name_H-M "C M M M"
_symmetry_group_IT_number 65
_symmetry_cell_setting 'orthorhombic'
loop_
_space_group_symop_operation_xyz
x,y,z
-x,-y,z
x,-y,-z
-x,y,-z
-x,-y,-z
x,y,-z
-x,y,z
x,-y,z
1/2+x,1/2+y,z
1/2-x,1/2-y,z
1/2+x,1/2-y,-z
1/2-x,1/2+y,-z
1/2-x,1/2-y,-z
1/2+x,1/2+y,-z
1/2-x,1/2+y,z
1/2+x,1/2-y,z
loop_
_atom_site_type_symbol
_atom_site_label
_atom_site_fract_x
_atom_site_fract_y
_atom_site_fract_z
Si Si1 0.765608 0.916386 0.180617
Si Si2 0.447485 0.000000 0.164674
Si Si3 0.819127 0.678932 0.177487
Si Si4 0.589859 0.857862 0.323194
Si Si5 0.051992 0.195849 0.320699
Si Si6 0.644412 0.654605 0.177340
O O1 0.728597 0.854917 0.225567
O O2 0.816635 0.901344 0.229324
O O3 0.751605 0.000000 0.222715
O O4 0.767073 0.912786 0.000000
O O5 0.434116 0.072703 0.252820
O O6 0.500000 0.000000 0.150185
O O7 0.426700 0.000000 0.000000
O O8 0.859921 0.641062 0.261963
O O9 0.830423 0.765947 0.200737
O O10 0.822507 0.666234 0.000000
O O11 0.590220 0.861412 0.500000
O O12 0.564366 0.781403 0.281563
O O13 0.053415 0.188395 0.500000
O O14 0.095429 0.153092 0.253252
O O15 0.000000 0.179226 0.275498
O O16 0.637324 0.646244 0.000000
#
# Coordination Sequence:
#
# PCOD9494685 Si02
#       6
#    16   8  16  16  16  16
#     4   9  17  29  48  73 100 132 166 201 244 295
#     4  11  23  35  47  65  93 131 171 209 248 291
#     4   9  17  30  49  72  98 130 165 203 242 287
#     4  10  20  33  49  70  97 128 163 205 248 292
#     4   9  18  33  52  72  95 125 161 200 248 303
#     4   9  17  30  49  74 100 126 163 207 246 287
#
# _framework density 9.0534979999999994
#
# number of rings (size 3 to 8) (size 9 to 14) (size 15 to 20)
#    0.000    2.636    0.000    1.909    1.273    4.727 
#    0.000    0.909    0.000    6.545    0.000    3.818 
#    0.000    0.000    0.000    0.000    0.000    0.000 
#
# Total GULP energy -244979.634667 kJ/mol
# GULP energy per Si atom -5567.718970 kJ/mol
# Density = 0.903289 g / cm^3
# Si number density = 9.053498 Si / 1000 Ang^3
#
#
#
# Elastic Constant Matrix: (Units=GPa)
#
#
# Indices 1 2 3 4 5 6 
#
# 1 144.2048 15.2907 27.0511 0.0000 0.0000 0.0000
# 2 15.2907 16.6768 15.3980 0.0000 0.0000 0.0000
# 3 27.0511 15.3980 2.2782 0.0000 0.0000 0.0000
# 4 0.0000 0.0000 0.0000 13.0381 0.0000 0.0000
# 5 0.0000 0.0000 0.0000 0.0000 14.9422 0.0000
# 6 0.0000 0.0000 0.0000 0.0000 0.0000 28.2233
#
#
#
# Elastic Compliance Matrix: (Units=1/GPa)
#
#
# Indices 1 2 3 4 5 6 
#
# 1 0.006935 -0.013295 0.007512 0.000000 0.000000 0.000000
# 2 -0.013295 0.014045 0.062934 0.000000 0.000000 0.000000
# 3 0.007512 0.062934 -0.075621 0.000000 0.000000 0.000000
# 4 0.000000 0.000000 0.000000 0.076698 0.000000 0.000000
# 5 0.000000 0.000000 0.000000 0.000000 0.066925 0.000000
# 6 0.000000 0.000000 0.000000 0.000000 0.000000 0.035432
#
#
# Mechanical properties :
#
#
# Convention : Reuss Voigt Hill
#
# Bulk Modulus (GPa) = 16.76095 30.95993 23.86044
# Shear Modulus (GPa) = 166.68161 18.26873 92.47517
#
# Velocity S-wave (km/s) = 9.60487 3.17982 7.15419
# Velocity P-wave (km/s) = 11.50137 5.53327 9.02492
#
# Compressibility (1/GPa) = 0.05966249
#
# Stress axis : x y z
#
# Youngs Moduli (GPa) = 144.19467 71.20008 -13.22384
#
# Poissons Ratio (x) = 0.94660 0.09934
# Poissons Ratio (y) = 1.91706 0.83223
# Poissons Ratio (z) = -1.08325 -4.48093
#
# Static dielectric constant tensor:
#      x y z
#    x 1.629680 0.000000 0.000000 
#    y 0.000000 1.637430 0.000000 
#    z 0.000000 0.000000 1.615470 
# 
# From -- ./inp_files/10141.got.cif
#   From: 2010.05.17/outbox.ucp.g08.bks.cvg/sg65_6_cif.got.tgz:10141.got - 2010.06.11 16:39:57.
