data_PCOD9494453
_publ_section_title
;
Structure prediction by ZEFSAII (Michael W. Deem and Ramdas Pophale) SiO2 
 PCOD9494453
Probable space group: C M M M
;
_chemical_formula_sum "Si O2"
_cell_formula_units_Z 104
_cell_length_a 7.539644
_cell_length_b 19.709713
_cell_length_c 35.154160
_cell_angle_alpha 90.000000
_cell_angle_beta 90.000000
_cell_angle_gamma 90.000000
_cell_volume 5224.056504
_symmetry_space_group_name_H-M "C M M M"
_symmetry_group_IT_number 65
_symmetry_cell_setting 'orthorhombic'
loop_
_space_group_symop_operation_xyz
x,y,z
-x,-y,z
x,-y,-z
-x,y,-z
-x,-y,-z
x,y,-z
-x,y,z
x,-y,z
1/2+x,1/2+y,z
1/2-x,1/2-y,z
1/2+x,1/2-y,-z
1/2-x,1/2+y,-z
1/2-x,1/2-y,-z
1/2+x,1/2+y,-z
1/2-x,1/2+y,z
1/2+x,1/2-y,z
loop_
_atom_site_type_symbol
_atom_site_label
_atom_site_fract_x
_atom_site_fract_y
_atom_site_fract_z
Si Si1 0.288822 0.577318 0.389645
Si Si2 0.212739 0.671534 0.845071
Si Si3 0.787301 0.328597 0.069294
Si Si4 0.787094 0.578436 0.306631
Si Si5 0.216635 0.420839 0.776304
Si Si6 0.282514 0.921635 0.000000
Si Si7 0.713008 0.328945 0.542616
O O1 0.500000 0.572457 0.394734
O O2 0.217077 0.500000 0.390331
O O3 0.261985 0.608181 0.347497
O O4 0.217828 0.623178 0.423837
O O5 0.250000 0.750000 0.836280
O O6 0.280873 0.658199 0.887892
O O7 0.280751 0.623095 0.811765
O O8 0.000000 0.662996 0.846435
O O9 0.750000 0.250000 0.059546
O O10 0.000000 0.335427 0.070552
O O11 0.722863 0.380219 0.037242
O O12 0.724329 0.500000 0.307740
O O13 0.727057 0.605640 0.265561
O O14 0.000000 0.577500 0.305533
O O15 0.266734 0.500000 0.779663
O O16 0.000000 0.419233 0.776794
O O17 0.500000 0.921090 0.000000
O O18 0.227538 0.000000 0.000000
O O19 0.780032 0.344952 0.500000
O O20 0.500000 0.336526 0.541584
O O21 0.750000 0.250000 0.550273
#
# Coordination Sequence:
#
# PCOD9494453 Si02
#       7
#    16  16  16  16  16   8  16
#     4   9  17  29  46  68  91 113 141 179 217 253
#     4   9  17  29  45  65  88 114 145 180 217 256
#     4   9  17  29  46  65  86 116 148 177 213 259
#     4   8  14  26  44  64  86 113 143 175 213 255
#     4   8  14  26  45  66  85 109 145 183 214 250
#     4   9  17  28  43  67  94 113 138 182 226 257
#     4   9  18  32  48  65  87 116 146 175 211 255
#
# _framework density 19.907900999999999
#
# number of rings (size 3 to 8) (size 9 to 14) (size 15 to 20)
#    0.000    3.308    0.000    1.154    0.000    1.538 
#    0.000    6.154    0.000    6.000    0.000    8.615 
#    0.000    0.000    0.000    0.000    0.000    0.000 
#
# Total GULP energy -289725.874038 kJ/mol
# GULP energy per Si atom -5571.651424 kJ/mol
# Density = 1.986259 g / cm^3
# Si number density = 19.907901 Si / 1000 Ang^3
#
#
#
# Elastic Constant Matrix: (Units=GPa)
#
#
# Indices 1 2 3 4 5 6 
#
# 1 48.4884 0.8208 7.7342 0.0000 0.0000 0.0000
# 2 0.8208 98.0639 128.0865 0.0000 0.0000 0.0000
# 3 7.7342 128.0865 223.4682 0.0000 0.0000 0.0000
# 4 0.0000 0.0000 0.0000 35.7067 0.0000 0.0000
# 5 0.0000 0.0000 0.0000 0.0000 10.2773 0.0000
# 6 0.0000 0.0000 0.0000 0.0000 0.0000 16.1665
#
#
#
# Elastic Compliance Matrix: (Units=1/GPa)
#
#
# Indices 1 2 3 4 5 6 
#
# 1 0.020968 0.003073 -0.002487 0.000000 0.000000 0.000000
# 2 0.003073 0.041022 -0.023619 0.000000 0.000000 0.000000
# 3 -0.002487 -0.023619 0.018099 0.000000 0.000000 0.000000
# 4 0.000000 0.000000 0.000000 0.028006 0.000000 0.000000
# 5 0.000000 0.000000 0.000000 0.000000 0.097301 0.000000
# 6 0.000000 0.000000 0.000000 0.000000 0.000000 0.061856
#
#
# Mechanical properties :
#
#
# Convention : Reuss Voigt Hill
#
# Bulk Modulus (GPa) = 29.39224 71.47814 50.43519
# Shear Modulus (GPa) = 15.40073 27.98870 21.69472
#
# Velocity S-wave (km/s) = 2.78438 3.75361 3.30472
# Velocity P-wave (km/s) = 5.01330 7.40057 6.32067
#
# Compressibility (1/GPa) = 0.03402258
#
# Stress axis : x y z
#
# Youngs Moduli (GPa) = 47.69136 24.37725 55.25212
#
# Poissons Ratio (x) = -0.07491 0.13742
# Poissons Ratio (y) = -0.14656 1.30500
# Poissons Ratio (z) = 0.11861 0.57577
#
# Static dielectric constant tensor:
#      x y z
#    x 1.773060 0.000000 0.000000 
#    y 0.000000 1.656130 0.000000 
#    z 0.000000 0.000000 1.740500 
# 
# From -- ./inp_files/77494.got.cif
#   From: 2010.05.17/outbox.cif.g08.bks.cpg/sg65_39_cif.got.tgz:77494.got - 2010.06.03 17:01:31.
