data_PCOD9494531
_publ_section_title
;
Structure prediction by ZEFSAII (Michael W. Deem and Ramdas Pophale) SiO2 
 PCOD9494531
Probable space group: C M M M
;
_chemical_formula_sum "Si O2"
_cell_formula_units_Z 72
_cell_length_a 7.333618
_cell_length_b 16.254269
_cell_length_c 26.836794
_cell_angle_alpha 90.000000
_cell_angle_beta 90.000000
_cell_angle_gamma 90.000000
_cell_volume 3199.015613
_symmetry_space_group_name_H-M "C M M M"
_symmetry_group_IT_number 65
_symmetry_cell_setting 'orthorhombic'
loop_
_space_group_symop_operation_xyz
x,y,z
-x,-y,z
x,-y,-z
-x,y,-z
-x,-y,-z
x,y,-z
-x,y,z
x,-y,z
1/2+x,1/2+y,z
1/2-x,1/2-y,z
1/2+x,1/2-y,-z
1/2-x,1/2+y,-z
1/2-x,1/2-y,-z
1/2+x,1/2+y,-z
1/2-x,1/2+y,z
1/2+x,1/2-y,z
loop_
_atom_site_type_symbol
_atom_site_label
_atom_site_fract_x
_atom_site_fract_y
_atom_site_fract_z
Si Si1 0.217579 0.847429 0.946416
Si Si2 0.277123 0.500000 0.442608
Si Si3 0.718224 0.347926 0.625047
Si Si4 0.283271 0.346977 0.735317
Si Si5 0.292495 0.402766 0.159206
O O1 0.250000 0.750000 0.947403
O O2 0.292056 0.876723 0.893367
O O3 0.000000 0.864587 0.945860
O O4 0.285913 0.880423 0.000000
O O5 0.500000 0.500000 0.442139
O O6 0.219860 0.500000 0.500000
O O7 0.218268 0.416241 0.414363
O O8 0.500000 0.354956 0.626711
O O9 0.750000 0.250000 0.615208
O O10 0.786864 0.371404 0.680628
O O11 0.500000 0.366309 0.735208
O O12 0.250000 0.250000 0.736993
O O13 0.208567 0.380257 0.787499
O O14 0.500000 0.366807 0.159696
O O15 0.305154 0.500000 0.157845
#
# Coordination Sequence:
#
# PCOD9494531 Si02
#       5
#    16   8  16  16  16
#     4   9  17  29  45  63  83 111 145 180 219 263
#     4   9  18  32  51  75 101 131 166 202 240 285
#     4   9  18  32  51  74  99 129 164 202 243 287
#     4   9  17  29  47  68  90 117 150 187 227 270
#     4   9  17  27  42  66  90 112 143 184 224 263
#
# _framework density 22.506921999999999
#
# number of rings (size 3 to 8) (size 9 to 14) (size 15 to 20)
#    0.000    3.000    0.000    0.667    1.556    0.889 
#    0.000    2.778    0.000    3.333    0.000    3.111 
#    0.000    0.000    0.000    0.000    0.000    0.000 
#
# Total GULP energy -200581.540255 kJ/mol
# GULP energy per Si atom -5571.709452 kJ/mol
# Density = 2.245570 g / cm^3
# Si number density = 22.506922 Si / 1000 Ang^3
#
#
#
# Elastic Constant Matrix: (Units=GPa)
#
#
# Indices 1 2 3 4 5 6 
#
# 1 92.8279 -4.0700 15.8550 0.0000 0.0000 0.0000
# 2 -4.0700 75.9612 113.0054 0.0000 0.0000 0.0000
# 3 15.8550 113.0054 296.4304 0.0000 0.0000 0.0000
# 4 0.0000 0.0000 0.0000 75.6116 0.0000 0.0000
# 5 0.0000 0.0000 0.0000 0.0000 9.5592 0.0000
# 6 0.0000 0.0000 0.0000 0.0000 0.0000 13.4294
#
#
#
# Elastic Compliance Matrix: (Units=1/GPa)
#
#
# Indices 1 2 3 4 5 6 
#
# 1 0.011253 0.003461 -0.001921 0.000000 0.000000 0.000000
# 2 0.003461 0.031477 -0.012185 0.000000 0.000000 0.000000
# 3 -0.001921 -0.012185 0.008121 0.000000 0.000000 0.000000
# 4 0.000000 0.000000 0.000000 0.013225 0.000000 0.000000
# 5 0.000000 0.000000 0.000000 0.000000 0.104611 0.000000
# 6 0.000000 0.000000 0.000000 0.000000 0.000000 0.074463
#
#
# Mechanical properties :
#
#
# Convention : Reuss Voigt Hill
#
# Bulk Modulus (GPa) = 33.82817 79.42225 56.62521
# Shear Modulus (GPa) = 18.22854 42.41530 30.32192
#
# Velocity S-wave (km/s) = 2.84898 4.34584 3.67444
# Velocity P-wave (km/s) = 5.08773 7.78115 6.57386
#
# Compressibility (1/GPa) = 0.02956116
#
# Stress axis : x y z
#
# Youngs Moduli (GPa) = 88.86876 31.76900 123.13182
#
# Poissons Ratio (x) = -0.10996 0.23658
# Poissons Ratio (y) = -0.30760 1.50035
# Poissons Ratio (z) = 0.17075 0.38710
#
# Static dielectric constant tensor:
#      x y z
#    x 1.910820 0.000000 0.000000 
#    y 0.000000 1.762680 0.000000 
#    z 0.000000 0.000000 1.890490 
# 
# From -- ./inp_files/68777.got.cif
#   From: 2010.05.17/outbox.cif.g08.bks.cpg/sg65_35_cif.got.tgz:68777.got - 2010.06.03 17:01:31.
