data_PCOD9494580
_publ_section_title
;
Structure prediction by ZEFSAII (Michael W. Deem and Ramdas Pophale) SiO2 
 PCOD9494580
Probable space group: C M M M
;
_chemical_formula_sum "Si O2"
_cell_formula_units_Z 52
_cell_length_a 24.000000
_cell_length_b 30.000000
_cell_length_c 9.000000
_cell_angle_alpha 90.000000
_cell_angle_beta 90.000000
_cell_angle_gamma 90.000000
_cell_volume 6480.000000
_symmetry_space_group_name_H-M "C M M M"
_symmetry_group_IT_number 65
_symmetry_cell_setting 'orthorhombic'
loop_
_space_group_symop_operation_xyz
x,y,z
-x,-y,z
x,-y,-z
-x,y,-z
-x,-y,-z
x,y,-z
-x,y,z
x,-y,z
1/2+x,1/2+y,z
1/2-x,1/2-y,z
1/2+x,1/2-y,-z
1/2-x,1/2+y,-z
1/2-x,1/2-y,-z
1/2+x,1/2+y,-z
1/2-x,1/2+y,z
1/2+x,1/2-y,z
loop_
_atom_site_type_symbol
_atom_site_label
_atom_site_fract_x
_atom_site_fract_y
_atom_site_fract_z
Si Si1 0.564853 0.133423 0.321103
Si Si2 0.639188 0.949445 0.320974
Si Si3 0.435483 0.323092 0.181115
Si Si4 0.933523 0.000000 0.324168
Si Si5 0.257412 0.447804 0.174961
Si Si6 0.932224 0.725031 0.172700
Si Si7 0.875841 0.086017 0.820113
O O1 0.567329 0.135019 0.500000
O O2 0.500000 0.128653 0.277967
O O3 0.598943 0.090183 0.269455
O O4 0.585786 0.180769 0.258655
O O5 0.637806 0.949808 0.500000
O O6 0.701579 0.939914 0.266256
O O7 0.624382 0.000000 0.270715
O O8 0.500000 0.328597 0.226928
O O9 0.414588 0.274060 0.229645
O O10 0.400937 0.366426 0.226518
O O11 0.435185 0.321667 0.000000
O O12 0.908187 0.044403 0.250561
O O13 0.921296 0.000000 0.500000
O O14 0.000000 0.000000 0.303542
O O15 0.273012 0.500000 0.193598
O O16 0.310813 0.419054 0.218551
O O17 0.245943 0.440951 0.000000
O O18 0.000000 0.726322 0.178446
O O19 0.916259 0.720772 0.000000
O O20 0.880358 0.082487 0.000000
#
# Coordination Sequence:
#
# PCOD9494580 Si02
#       7
#    16  16  16   8  16  16  16
#     4   9  17  29  46  69  94 118 146 180 219 267
#     4   9  18  31  47  67  90 119 151 181 220 269
#     4   8  14  25  44  69  91 113 147 190 229 268
#     4  11  23  33  41  63  99 129 152 187 236 281
#     4   9  17  30  46  66  89 113 150 194 229 262
#     4   8  14  26  44  66  91 117 146 180 221 269
#     4  10  18  31  50  68  87 118 159 196 231 271
#
# _framework density 8.0246910000000007
#
# number of rings (size 3 to 8) (size 9 to 14) (size 15 to 20)
#    0.000    3.000    0.769    1.615    0.000    2.769 
#    0.000    2.308    0.000    3.692    0.000   10.769 
#    0.000    0.000    0.000    0.000    0.000    0.000 
#
# Total GULP energy -289510.444660 kJ/mol
# GULP energy per Si atom -5567.508551 kJ/mol
# Density = 0.800643 g / cm^3
# Si number density = 8.024691 Si / 1000 Ang^3
#
#
#
# Elastic Constant Matrix: (Units=GPa)
#
#
# Indices 1 2 3 4 5 6 
#
# 1 60.0103 76.4803 18.7323 0.0000 0.0000 0.0000
# 2 76.4803 176.1113 31.8980 0.0000 0.0000 0.0000
# 3 18.7323 31.8980 9.6124 0.0000 0.0000 0.0000
# 4 0.0000 0.0000 0.0000 18.6066 0.0000 0.0000
# 5 0.0000 0.0000 0.0000 0.0000 19.1976 0.0000
# 6 0.0000 0.0000 0.0000 0.0000 0.0000 9.7065
#
#
#
# Elastic Compliance Matrix: (Units=1/GPa)
#
#
# Indices 1 2 3 4 5 6 
#
# 1 0.048574 -0.009899 -0.061810 0.000000 0.000000 0.000000
# 2 -0.009899 0.016250 -0.034634 0.000000 0.000000 0.000000
# 3 -0.061810 -0.034634 0.339416 0.000000 0.000000 0.000000
# 4 0.000000 0.000000 0.000000 0.053744 0.000000 0.000000
# 5 0.000000 0.000000 0.000000 0.000000 0.052090 0.000000
# 6 0.000000 0.000000 0.000000 0.000000 0.000000 0.103024
#
#
# Mechanical properties :
#
#
# Convention : Reuss Voigt Hill
#
# Bulk Modulus (GPa) = 5.22046 55.55058 30.38552
# Shear Modulus (GPa) = 5.62028 17.41036 11.51532
#
# Velocity S-wave (km/s) = 1.87336 3.29720 2.68151
# Velocity P-wave (km/s) = 2.81764 7.01305 5.34425
#
# Compressibility (1/GPa) = 0.19155400
#
# Stress axis : x y z
#
# Youngs Moduli (GPa) = 20.58729 61.53812 2.94624
#
# Poissons Ratio (x) = 0.60916 0.18211
# Poissons Ratio (y) = 0.20379 0.10204
# Poissons Ratio (z) = 1.27250 2.13131
#
# Static dielectric constant tensor:
#      x y z
#    x 1.523500 0.000000 0.000000 
#    y 0.000000 1.550200 0.000000 
#    z 0.000000 0.000000 1.544480 
# 
# From -- ./inp_files/15034.got.cif
#   From: 2010.05.17/outbox.ucp.g08.bks.cvg/sg65_8_cif.got.tgz:15034.got - 2010.06.11 16:39:57.
