data_PCOD9494652
_publ_section_title
;
Structure prediction by ZEFSAII (Michael W. Deem and Ramdas Pophale) SiO2 
 PCOD9494652
Probable space group: C M M M
;
_chemical_formula_sum "Si O2"
_cell_formula_units_Z 44
_cell_length_a 15.000000
_cell_length_b 21.000000
_cell_length_c 15.000000
_cell_angle_alpha 90.000000
_cell_angle_beta 90.000000
_cell_angle_gamma 90.000000
_cell_volume 4725.000000
_symmetry_space_group_name_H-M "C M M M"
_symmetry_group_IT_number 65
_symmetry_cell_setting 'orthorhombic'
loop_
_space_group_symop_operation_xyz
x,y,z
-x,-y,z
x,-y,-z
-x,y,-z
-x,-y,-z
x,y,-z
-x,y,z
x,-y,z
1/2+x,1/2+y,z
1/2-x,1/2-y,z
1/2+x,1/2-y,-z
1/2-x,1/2+y,-z
1/2-x,1/2-y,-z
1/2+x,1/2+y,-z
1/2-x,1/2+y,z
1/2+x,1/2-y,z
loop_
_atom_site_type_symbol
_atom_site_label
_atom_site_fract_x
_atom_site_fract_y
_atom_site_fract_z
Si Si1 0.641691 0.250824 0.896049
Si Si2 0.094338 0.663479 0.269893
Si Si3 0.352451 0.273885 0.394653
Si Si4 0.283780 0.926558 0.818117
Si Si5 0.602281 0.633168 0.227252
Si Si6 0.393073 0.076892 0.000000
O O1 0.750000 0.250000 0.889618
O O2 0.603361 0.203097 0.822111
O O3 0.608018 0.316864 0.854867
O O4 0.618122 0.240261 0.000000
O O5 0.098844 0.712806 0.351067
O O6 0.173154 0.613949 0.261514
O O7 0.000000 0.629229 0.270286
O O8 0.374116 0.287100 0.500000
O O9 0.250000 0.250000 0.391307
O O10 0.371520 0.329723 0.320772
O O11 0.178486 0.915891 0.803939
O O12 0.332095 0.905993 0.912451
O O13 0.305462 0.000000 0.809509
O O14 0.500000 0.610880 0.236301
O O15 0.500000 0.097997 0.000000
O O16 0.398155 0.000000 0.000000
#
# Coordination Sequence:
#
# PCOD9494652 Si02
#       6
#    16  16  16  16  16   8
#     4  10  19  33  54  79 112 147 179 229 289 343
#     4  11  21  34  56  85 113 144 185 232 294 356
#     4  10  19  37  64  90 118 149 185 240 303 359
#     4  11  23  40  56  79 117 156 201 250 280 329
#     4  11  22  37  58  85 116 153 195 237 292 352
#     4   9  20  38  59  80 105 151 207 247 284 327
#
# _framework density 9.3121690000000008
#
# number of rings (size 3 to 8) (size 9 to 14) (size 15 to 20)
#    0.000    1.545    3.636    3.818    2.545    4.364 
#    0.000    0.000    0.000    3.818    0.000    2.545 
#    0.000    0.000    0.000    0.000    0.000    0.000 
#
# Total GULP energy -245029.005370 kJ/mol
# GULP energy per Si atom -5568.841031 kJ/mol
# Density = 0.929097 g / cm^3
# Si number density = 9.312169 Si / 1000 Ang^3
#
#
#
# Elastic Constant Matrix: (Units=GPa)
#
#
# Indices 1 2 3 4 5 6 
#
# 1 124.9957 0.1779 31.3761 0.0000 0.0000 0.0000
# 2 0.1779 34.3097 8.5511 0.0000 0.0000 0.0000
# 3 31.3761 8.5511 120.3896 0.0000 0.0000 0.0000
# 4 0.0000 0.0000 0.0000 20.5292 0.0000 0.0000
# 5 0.0000 0.0000 0.0000 0.0000 1.1263 0.0000
# 6 0.0000 0.0000 0.0000 0.0000 0.0000 10.2849
#
#
#
# Elastic Compliance Matrix: (Units=1/GPa)
#
#
# Indices 1 2 3 4 5 6 
#
# 1 0.008569 0.000521 -0.002270 0.000000 0.000000 0.000000
# 2 0.000521 0.029703 -0.002246 0.000000 0.000000 0.000000
# 3 -0.002270 -0.002246 0.009058 0.000000 0.000000 0.000000
# 4 0.000000 0.000000 0.000000 0.048711 0.000000 0.000000
# 5 0.000000 0.000000 0.000000 0.000000 0.887897 0.000000
# 6 0.000000 0.000000 0.000000 0.000000 0.000000 0.097230
#
#
# Mechanical properties :
#
#
# Convention : Reuss Voigt Hill
#
# Bulk Modulus (GPa) = 25.41880 39.98947 32.70414
# Shear Modulus (GPa) = 4.53609 22.36073 13.44841
#
# Velocity S-wave (km/s) = 1.56232 3.46875 2.69008
# Velocity P-wave (km/s) = 4.11488 6.12872 5.21984
#
# Compressibility (1/GPa) = 0.03934095
#
# Stress axis : x y z
#
# Youngs Moduli (GPa) = 116.69370 33.66635 110.40471
#
# Poissons Ratio (x) = -0.01755 0.25066
# Poissons Ratio (y) = -0.06085 0.24793
# Poissons Ratio (z) = 0.26494 0.07560
#
# Static dielectric constant tensor:
#      x y z
#    x 1.740910 0.000000 0.000000 
#    y 0.000000 1.679990 0.000000 
#    z 0.000000 0.000000 1.627000 
# 
# From -- ./inp_files/40189.got.cif
#   From: 2010.05.17/outbox.ucp.g08.bks.cvg/sg65_21_cif.got.tgz:40189.got - 2010.06.11 16:39:57.
