data_PCOD9494767
_publ_section_title
;
Structure prediction by ZEFSAII (Michael W. Deem and Ramdas Pophale) SiO2 
 PCOD9494767
Probable space group: C M M M
;
_chemical_formula_sum "Si O2"
_cell_formula_units_Z 36
_cell_length_a 9.000000
_cell_length_b 27.000000
_cell_length_c 15.000000
_cell_angle_alpha 90.000000
_cell_angle_beta 90.000000
_cell_angle_gamma 90.000000
_cell_volume 3645.000000
_symmetry_space_group_name_H-M "C M M M"
_symmetry_group_IT_number 65
_symmetry_cell_setting 'orthorhombic'
loop_
_space_group_symop_operation_xyz
x,y,z
-x,-y,z
x,-y,-z
-x,y,-z
-x,-y,-z
x,y,-z
-x,y,z
x,-y,z
1/2+x,1/2+y,z
1/2-x,1/2-y,z
1/2+x,1/2-y,-z
1/2-x,1/2+y,-z
1/2-x,1/2-y,-z
1/2+x,1/2+y,-z
1/2-x,1/2+y,z
1/2+x,1/2-y,z
loop_
_atom_site_type_symbol
_atom_site_label
_atom_site_fract_x
_atom_site_fract_y
_atom_site_fract_z
Si Si1 0.820590 0.500000 0.900917
Si Si2 0.678237 0.806137 0.000000
Si Si3 0.823745 0.895121 0.340988
Si Si4 0.172565 0.500000 0.392577
Si Si5 0.820428 0.386963 0.844482
Si Si6 0.834464 0.702247 0.396102
O O1 0.782891 0.445052 0.865568
O O2 0.000000 0.500000 0.901794
O O3 0.759793 0.500000 0.000000
O O4 0.750000 0.750000 0.000000
O O5 0.712182 0.843663 0.916675
O O6 0.500000 0.798523 0.000000
O O7 0.750583 0.948973 0.361216
O O8 0.776348 0.878423 0.242480
O O9 0.754231 0.849344 0.394940
O O10 0.000000 0.898811 0.353418
O O11 0.174323 0.500000 0.500000
O O12 0.000000 0.500000 0.361721
O O13 0.000000 0.385774 0.829818
O O14 0.853755 0.714153 0.500000
O O15 0.750000 0.750000 0.355507
O O16 0.000000 0.695748 0.356471
#
# Coordination Sequence:
#
# PCOD9494767 Si02
#       6
#     8   8  16   8  16  16
#     4   9  15  30  60  88 106 131 182 242 293 343
#     4  10  22  39  61  87 117 158 204 250 304 366
#     4  12  25  39  59  90 128 164 202 249 305 364
#     4  11  24  43  66  91 123 166 211 254 304 364
#     4  10  20  37  61  88 117 152 199 252 304 360
#     4  10  21  39  63  89 117 153 200 251 303 359
#
# _framework density 9.8765429999999999
#
# number of rings (size 3 to 8) (size 9 to 14) (size 15 to 20)
#    0.000    1.556    1.111    4.333    0.000    7.556 
#    0.000    2.222    0.000    0.667    0.000    0.000 
#    0.000    0.000    0.000    0.000    0.000    0.000 
#
# Total GULP energy -200525.176524 kJ/mol
# GULP energy per Si atom -5570.143792 kJ/mol
# Density = 0.985406 g / cm^3
# Si number density = 9.876543 Si / 1000 Ang^3
#
#
#
# Elastic Constant Matrix: (Units=GPa)
#
#
# Indices 1 2 3 4 5 6 
#
# 1 140.2376 77.8755 31.9514 0.0000 0.0000 0.0000
# 2 77.8755 183.0872 32.2967 0.0000 0.0000 0.0000
# 3 31.9514 32.2967 62.2483 0.0000 0.0000 0.0000
# 4 0.0000 0.0000 0.0000 -281.4090 0.0000 0.0000
# 5 0.0000 0.0000 0.0000 0.0000 12.1132 0.0000
# 6 0.0000 0.0000 0.0000 0.0000 0.0000 41.7030
#
#
#
# Elastic Compliance Matrix: (Units=1/GPa)
#
#
# Indices 1 2 3 4 5 6 
#
# 1 0.009877 -0.003640 -0.003181 0.000000 0.000000 0.000000
# 2 -0.003640 0.007354 -0.001947 0.000000 0.000000 0.000000
# 3 -0.003181 -0.001947 0.018708 0.000000 0.000000 0.000000
# 4 0.000000 0.000000 0.000000 -0.003554 0.000000 0.000000
# 5 0.000000 0.000000 0.000000 0.000000 0.082555 0.000000
# 6 0.000000 0.000000 0.000000 0.000000 0.000000 0.023979
#
#
# Mechanical properties :
#
#
# Convention : Reuss Voigt Hill
#
# Bulk Modulus (GPa) = 54.34186 74.42449 64.38317
# Shear Modulus (GPa) = 30.75254 -29.28858 0.73198
#
# Velocity S-wave (km/s) = 3.94997 -3.85481 0.60940
# Velocity P-wave (km/s) = 6.95509 4.23633 5.75846
#
# Compressibility (1/GPa) = 0.01840202
#
# Stress axis : x y z
#
# Youngs Moduli (GPa) = 101.24708 135.98879 53.45394
#
# Poissons Ratio (x) = 0.49499 0.17005
# Poissons Ratio (y) = 0.36853 0.10407
# Poissons Ratio (z) = 0.32208 0.26476
#
# Static dielectric constant tensor:
#      x y z
#    x 1.701190 0.000000 0.000000 
#    y 0.000000 1.629180 0.000000 
#    z 0.000000 0.000000 1.796400 
# 
# From -- ./inp_files/36697.got.cif
#   From: 2010.05.17/outbox.ucp.g08.bks.cvg/sg65_19_cif.got.tgz:36697.got - 2010.06.11 16:39:57.
