data_PCOD9494158
_publ_section_title
;
Structure prediction by ZEFSAII (Michael W. Deem and Ramdas Pophale) SiO2 
 PCOD9494158
Probable space group: C M M M
;
_chemical_formula_sum "Si O2"
_cell_formula_units_Z 42
_cell_length_a 7.922491
_cell_length_b 15.785672
_cell_length_c 16.303690
_cell_angle_alpha 90.000000
_cell_angle_beta 90.000000
_cell_angle_gamma 90.000000
_cell_volume 2038.969541
_symmetry_space_group_name_H-M "C M M M"
_symmetry_group_IT_number 65
_symmetry_cell_setting 'orthorhombic'
loop_
_space_group_symop_operation_xyz
x,y,z
-x,-y,z
x,-y,-z
-x,y,-z
-x,-y,-z
x,y,-z
-x,y,z
x,-y,z
1/2+x,1/2+y,z
1/2-x,1/2-y,z
1/2+x,1/2-y,-z
1/2-x,1/2+y,-z
1/2-x,1/2-y,-z
1/2+x,1/2+y,-z
1/2-x,1/2+y,z
1/2+x,1/2-y,z
loop_
_atom_site_type_symbol
_atom_site_label
_atom_site_fract_x
_atom_site_fract_y
_atom_site_fract_z
Si Si1 0.805246 0.843648 0.765859
Si Si2 0.811957 0.500000 0.868460
Si Si3 0.500000 0.500000 0.000000
Si Si4 0.796822 0.399403 0.409237
O O1 0.750000 0.750000 0.791202
O O2 0.703464 0.917269 0.810906
O O3 0.781602 0.853276 0.668174
O O4 0.000000 0.855944 0.786366
O O5 0.652363 0.500000 0.929314
O O6 0.000000 0.500000 0.905804
O O7 0.741303 0.370866 0.500000
O O8 0.759263 0.500000 0.402679
O O9 0.000000 0.390619 0.404986
#
# Coordination Sequence:
#
# PCOD9494158 Si02
#       4
#    16   8   2  16
#     4  12  24  41  67 101 138 183 234 282 337 410
#     4  12  25  49  78 105 142 175 221 280 343 417
#     4  12  26  52  80 110 134 178 222 268 356 430
#     4   9  18  34  58  91 132 182 234 283 336 393
#
# _framework density 20.598641000000001
#
# number of rings (size 3 to 8) (size 9 to 14) (size 15 to 20)
#    0.000    1.143    3.810    4.857    0.000    1.524 
#    0.000    2.857    0.000    0.000    0.000    0.000 
#    0.000    0.000    0.000    0.000    0.000    0.000 
#
# Total GULP energy -117128.000184 kJ/mol
# GULP energy per Si atom -5577.523818 kJ/mol
# Density = 2.055176 g / cm^3
# Si number density = 20.598641 Si / 1000 Ang^3
#
#
#
# Elastic Constant Matrix: (Units=GPa)
#
#
# Indices 1 2 3 4 5 6 
#
# 1 134.2820 31.9476 35.7228 0.0000 0.0000 0.0000
# 2 31.9476 118.2822 42.9651 0.0000 0.0000 0.0000
# 3 35.7228 42.9651 101.7857 0.0000 0.0000 0.0000
# 4 0.0000 0.0000 0.0000 -6.0222 0.0000 0.0000
# 5 0.0000 0.0000 0.0000 0.0000 26.3222 0.0000
# 6 0.0000 0.0000 0.0000 0.0000 0.0000 19.0036
#
#
#
# Elastic Compliance Matrix: (Units=1/GPa)
#
#
# Indices 1 2 3 4 5 6 
#
# 1 0.008410 -0.001417 -0.002354 0.000000 0.000000 0.000000
# 2 -0.001417 0.010224 -0.003819 0.000000 0.000000 0.000000
# 3 -0.002354 -0.003819 0.012262 0.000000 0.000000 0.000000
# 4 0.000000 0.000000 0.000000 -0.166054 0.000000 0.000000
# 5 0.000000 0.000000 0.000000 0.000000 0.037991 0.000000
# 6 0.000000 0.000000 0.000000 0.000000 0.000000 0.052622
#
#
# Mechanical properties :
#
#
# Convention : Reuss Voigt Hill
#
# Bulk Modulus (GPa) = 63.61703 63.95787 63.78745
# Shear Modulus (GPa) = -207.23491 24.10835 -91.56328
#
# Velocity S-wave (km/s) = -10.04114 3.42480 -6.67440
# Velocity P-wave (km/s) = 10.17259 6.83783 5.32567
#
# Compressibility (1/GPa) = 0.01571906
#
# Stress axis : x y z
#
# Youngs Moduli (GPa) = 118.90338 97.80879 81.54963
#
# Poissons Ratio (x) = 0.13856 0.19194
# Poissons Ratio (y) = 0.16844 0.31140
# Poissons Ratio (z) = 0.27986 0.37349
#
# Static dielectric constant tensor:
#      x y z
#    x 1.733640 0.000000 0.000000 
#    y 0.000000 1.736000 0.000000 
#    z 0.000000 0.000000 1.715120 
# 
# From -- ./inp_files/34786.got.cif
#   From: 2010.05.17/outbox.cif.g08.bks.cpg/sg65_18_cif.got.tgz:34786.got - 2010.06.03 17:01:31.
