data_PCOD9494493
_publ_section_title
;
Structure prediction by ZEFSAII (Michael W. Deem and Ramdas Pophale) SiO2 
 PCOD9494493
Probable space group: C M M M
;
_chemical_formula_sum "Si O2"
_cell_formula_units_Z 56
_cell_length_a 8.427437
_cell_length_b 14.922847
_cell_length_c 21.509938
_cell_angle_alpha 90.000000
_cell_angle_beta 90.000000
_cell_angle_gamma 90.000000
_cell_volume 2705.118905
_symmetry_space_group_name_H-M "C M M M"
_symmetry_group_IT_number 65
_symmetry_cell_setting 'orthorhombic'
loop_
_space_group_symop_operation_xyz
x,y,z
-x,-y,z
x,-y,-z
-x,y,-z
-x,-y,-z
x,y,-z
-x,y,z
x,-y,z
1/2+x,1/2+y,z
1/2-x,1/2-y,z
1/2+x,1/2-y,-z
1/2-x,1/2+y,-z
1/2-x,1/2-y,-z
1/2+x,1/2+y,-z
1/2-x,1/2+y,z
1/2+x,1/2-y,z
loop_
_atom_site_type_symbol
_atom_site_label
_atom_site_fract_x
_atom_site_fract_y
_atom_site_fract_z
Si Si1 0.189888 0.853187 0.432734
Si Si2 0.189733 0.647092 0.303665
Si Si3 0.691653 0.851508 0.832654
Si Si4 0.805800 0.500000 0.071124
O O1 0.240311 0.891611 0.500000
O O2 0.250000 0.750000 0.432922
O O3 0.248966 0.894046 0.368008
O O4 0.000000 0.853016 0.431067
O O5 0.250000 0.750000 0.303108
O O6 0.239885 0.611902 0.235801
O O7 0.000000 0.646156 0.306396
O O8 0.500000 0.850826 0.832854
O O9 0.750000 0.750000 0.839071
O O10 0.745402 0.913935 0.888940
O O11 0.000000 0.500000 0.070281
O O12 0.751769 0.500000 0.000000
#
# Coordination Sequence:
#
# PCOD9494493 Si02
#       4
#    16  16  16   8
#     4   9  15  21  31  51  81 116 153 193 235 279
#     4   9  15  23  37  58  85 117 154 195 236 280
#     4   9  18  32  51  75 101 131 167 205 245 291
#     4   9  18  34  55  77 102 133 166 198 241 301
#
# _framework density 20.701492999999999
#
# number of rings (size 3 to 8) (size 9 to 14) (size 15 to 20)
#    0.000    3.000    0.000    3.429    0.000    3.429 
#    0.000    0.714    0.000    0.857    0.000    1.000 
#    0.000    8.000    0.000    0.000    0.000    0.000 
#
# Total GULP energy -156022.661573 kJ/mol
# GULP energy per Si atom -5572.237913 kJ/mol
# Density = 2.065438 g / cm^3
# Si number density = 20.701493 Si / 1000 Ang^3
#
#
#
# Elastic Constant Matrix: (Units=GPa)
#
#
# Indices 1 2 3 4 5 6 
#
# 1 26.7963 5.7766 40.8843 0.0000 0.0000 0.0000
# 2 5.7766 84.8407 74.9163 0.0000 0.0000 0.0000
# 3 40.8843 74.9163 282.8419 0.0000 0.0000 0.0000
# 4 0.0000 0.0000 0.0000 91.9445 0.0000 0.0000
# 5 0.0000 0.0000 0.0000 0.0000 20.0920 0.0000
# 6 0.0000 0.0000 0.0000 0.0000 0.0000 0.1100
#
#
#
# Elastic Compliance Matrix: (Units=1/GPa)
#
#
# Indices 1 2 3 4 5 6 
#
# 1 0.048795 0.003793 -0.008058 0.000000 0.000000 0.000000
# 2 0.003793 0.015680 -0.004701 0.000000 0.000000 0.000000
# 3 -0.008058 -0.004701 0.005946 0.000000 0.000000 0.000000
# 4 0.000000 0.000000 0.000000 0.010876 0.000000 0.000000
# 5 0.000000 0.000000 0.000000 0.000000 0.049771 0.000000
# 6 0.000000 0.000000 0.000000 0.000000 0.000000 9.087227
#
#
# Mechanical properties :
#
#
# Convention : Reuss Voigt Hill
#
# Bulk Modulus (GPa) = 19.05192 70.84815 44.95004
# Shear Modulus (GPa) = 0.54032 40.62276 20.58154
#
# Velocity S-wave (km/s) = 0.51144 4.43460 3.15652
# Velocity P-wave (km/s) = 3.09385 7.77939 5.91992
#
# Compressibility (1/GPa) = 0.05248814
#
# Stress axis : x y z
#
# Youngs Moduli (GPa) = 20.49378 63.77549 168.19238
#
# Poissons Ratio (x) = -0.24190 1.35528
# Poissons Ratio (y) = -0.07773 0.79075
# Poissons Ratio (z) = 0.16514 0.29984
#
# Static dielectric constant tensor:
#      x y z
#    x 1.702740 0.000000 0.000000 
#    y 0.000000 2.032210 0.000000 
#    z 0.000000 0.000000 1.808300 
# 
# From -- ./inp_files/58574.got.cif
#   From: 2010.05.17/outbox.cif.g08.bks.cpg/sg65_30_cif.got.tgz:58574.got - 2010.06.03 17:01:31.
