data_PCOD9494542
_publ_section_title
;
Structure prediction by ZEFSAII (Michael W. Deem and Ramdas Pophale) SiO2 
 PCOD9494542
Probable space group: C M M M
;
_chemical_formula_sum "Si O2"
_cell_formula_units_Z 88
_cell_length_a 20.072631
_cell_length_b 7.596780
_cell_length_c 28.994114
_cell_angle_alpha 90.000000
_cell_angle_beta 90.000000
_cell_angle_gamma 90.000000
_cell_volume 4421.235950
_symmetry_space_group_name_H-M "C M M M"
_symmetry_group_IT_number 65
_symmetry_cell_setting 'orthorhombic'
loop_
_space_group_symop_operation_xyz
x,y,z
-x,-y,z
x,-y,-z
-x,y,-z
-x,-y,-z
x,y,-z
-x,y,z
x,-y,z
1/2+x,1/2+y,z
1/2-x,1/2-y,z
1/2+x,1/2-y,-z
1/2-x,1/2+y,-z
1/2-x,1/2-y,-z
1/2+x,1/2+y,-z
1/2-x,1/2+y,z
1/2+x,1/2-y,z
loop_
_atom_site_type_symbol
_atom_site_label
_atom_site_fract_x
_atom_site_fract_y
_atom_site_fract_z
Si Si1 0.826461 0.211287 0.081346
Si Si2 0.327060 0.788473 0.448099
Si Si3 0.924016 0.288611 0.368303
Si Si4 0.326184 0.288575 0.185789
Si Si5 0.575869 0.288547 0.735162
Si Si6 0.577091 0.715845 0.000000
O O1 0.750000 0.250000 0.067549
O O2 0.836823 0.278757 0.133558
O O3 0.880785 0.274259 0.044686
O O4 0.832245 0.000000 0.082813
O O5 0.341287 0.722017 0.500000
O O6 0.250000 0.750000 0.437583
O O7 0.376129 0.720772 0.408536
O O8 0.334080 0.000000 0.449445
O O9 0.926731 0.500000 0.372596
O O10 0.899697 0.250135 0.316543
O O11 0.000000 0.221465 0.372257
O O12 0.333542 0.500000 0.183900
O O13 0.250000 0.250000 0.198582
O O14 0.376867 0.220759 0.224287
O O15 0.500000 0.221320 0.738945
O O16 0.573300 0.500000 0.739393
O O17 0.576935 0.500000 0.000000
O O18 0.500000 0.771393 0.000000
#
# Coordination Sequence:
#
# PCOD9494542 Si02
#       6
#    16  16  16  16  16   8
#     4   9  17  30  48  68  91 120 152 186 225 269
#     4   9  18  32  49  69  93 120 149 183 224 268
#     4   9  18  32  49  69  92 119 152 187 223 265
#     4   9  18  31  47  68  92 119 152 188 225 267
#     4   9  18  32  48  66  90 120 152 186 225 267
#     4   9  17  28  45  71  96 117 148 190 230 267
#
# _framework density 19.903936999999999
#
# number of rings (size 3 to 8) (size 9 to 14) (size 15 to 20)
#    0.000    3.000    0.000    0.273    0.000    3.273 
#    0.000    9.091    0.000    1.091    0.000   10.182 
#    0.000    0.000    0.000    0.000    0.000    0.000 
#
# Total GULP energy -245408.916487 kJ/mol
# GULP energy per Si atom -5577.475375 kJ/mol
# Density = 1.985863 g / cm^3
# Si number density = 19.903937 Si / 1000 Ang^3
#
#
#
# Elastic Constant Matrix: (Units=GPa)
#
#
# Indices 1 2 3 4 5 6 
#
# 1 140.6780 1.2628 137.4595 0.0000 0.0000 0.0000
# 2 1.2628 43.7822 4.5477 0.0000 0.0000 0.0000
# 3 137.4595 4.5477 177.4770 0.0000 0.0000 0.0000
# 4 0.0000 0.0000 0.0000 11.9042 0.0000 0.0000
# 5 0.0000 0.0000 0.0000 0.0000 89.9913 0.0000
# 6 0.0000 0.0000 0.0000 0.0000 0.0000 20.6216
#
#
#
# Elastic Compliance Matrix: (Units=1/GPa)
#
#
# Indices 1 2 3 4 5 6 
#
# 1 0.029329 0.001518 -0.022755 0.000000 0.000000 0.000000
# 2 0.001518 0.022980 -0.001764 0.000000 0.000000 0.000000
# 3 -0.022755 -0.001764 0.023304 0.000000 0.000000 0.000000
# 4 0.000000 0.000000 0.000000 0.084004 0.000000 0.000000
# 5 0.000000 0.000000 0.000000 0.000000 0.011112 0.000000
# 6 0.000000 0.000000 0.000000 0.000000 0.000000 0.048493
#
#
# Mechanical properties :
#
#
# Convention : Reuss Voigt Hill
#
# Bulk Modulus (GPa) = 33.77265 72.05301 52.91283
# Shear Modulus (GPa) = 18.17560 39.08124 28.62842
#
# Velocity S-wave (km/s) = 3.02514 4.43594 3.79665
# Velocity P-wave (km/s) = 5.40432 7.90669 6.77209
#
# Compressibility (1/GPa) = 0.02960975
#
# Stress axis : x y z
#
# Youngs Moduli (GPa) = 34.09603 43.51642 42.91161
#
# Poissons Ratio (x) = -0.06604 0.97644
# Poissons Ratio (y) = -0.05175 0.07571
# Poissons Ratio (z) = 0.77585 0.07677
#
# Static dielectric constant tensor:
#      x y z
#    x 1.668200 0.000000 0.000000 
#    y 0.000000 1.757990 0.000000 
#    z 0.000000 0.000000 1.702950 
# 
# From -- ./inp_files/63628.got.cif
#   From: 2010.05.17/outbox.cif.g08.bks.cpg/sg65_32_cif.got.tgz:63628.got - 2010.06.03 17:01:31.
