data_PCOD9494077
_publ_section_title
;
Structure prediction by ZEFSAII (Michael W. Deem and Ramdas Pophale) SiO2 
 PCOD9494077
Probable space group: C M M M
;
_chemical_formula_sum "Si O2"
_cell_formula_units_Z 64
_cell_length_a 9.067426
_cell_length_b 17.599683
_cell_length_c 21.467457
_cell_angle_alpha 90.000000
_cell_angle_beta 90.000000
_cell_angle_gamma 90.000000
_cell_volume 3425.858863
_symmetry_space_group_name_H-M "C M M M"
_symmetry_group_IT_number 65
_symmetry_cell_setting 'orthorhombic'
loop_
_space_group_symop_operation_xyz
x,y,z
-x,-y,z
x,-y,-z
-x,y,-z
-x,-y,-z
x,y,-z
-x,y,z
x,-y,z
1/2+x,1/2+y,z
1/2-x,1/2-y,z
1/2+x,1/2-y,-z
1/2-x,1/2+y,-z
1/2-x,1/2-y,-z
1/2+x,1/2+y,-z
1/2-x,1/2+y,z
1/2+x,1/2-y,z
loop_
_atom_site_type_symbol
_atom_site_label
_atom_site_fract_x
_atom_site_fract_y
_atom_site_fract_z
Si Si1 0.824870 0.591515 0.736056
Si Si2 0.828408 0.407643 0.125002
Si Si3 0.328669 0.090846 0.500000
Si Si4 0.170146 0.092755 0.000000
Si Si5 0.323261 0.667363 0.381822
O O1 0.811732 0.500000 0.732248
O O2 0.778565 0.616165 0.805924
O O3 0.729544 0.629293 0.682465
O O4 0.000000 0.609013 0.728241
O O5 0.819680 0.500000 0.125178
O O6 0.000000 0.387936 0.118874
O O7 0.743751 0.380188 0.064078
O O8 0.500000 0.117194 0.500000
O O9 0.244519 0.120368 0.560830
O O10 0.329676 0.000000 0.500000
O O11 0.000000 0.112630 0.000000
O O12 0.182241 0.000000 0.000000
O O13 0.500000 0.671163 0.385676
O O14 0.250000 0.750000 0.385099
#
# Coordination Sequence:
#
# PCOD9494077 Si02
#       5
#    16  16   8   8  16
#     4   9  18  34  55  79 108 142 181 225 273 324
#     4   8  14  25  42  64  94 134 175 214 261 319
#     4  11  24  43  66  89 115 145 176 215 264 317
#     4   9  15  21  33  59  96 133 170 217 268 313
#     4  12  25  40  59  83 113 146 182 223 266 316
#
# _framework density 18.681446000000001
#
# number of rings (size 3 to 8) (size 9 to 14) (size 15 to 20)
#    0.000    2.250    0.000    5.625    0.000    7.000 
#    0.000    2.500    0.000    0.000    0.000    0.875 
#    0.000    0.000    0.000    0.000    0.000    0.000 
#
# Total GULP energy -178571.279765 kJ/mol
# GULP energy per Si atom -5580.352493 kJ/mol
# Density = 1.863893 g / cm^3
# Si number density = 18.681446 Si / 1000 Ang^3
#
#
#
# Elastic Constant Matrix: (Units=GPa)
#
#
# Indices 1 2 3 4 5 6 
#
# 1 141.4031 40.0097 113.4777 0.0000 0.0000 0.0000
# 2 40.0097 36.1331 43.3702 0.0000 0.0000 0.0000
# 3 113.4777 43.3702 211.9103 0.0000 0.0000 0.0000
# 4 0.0000 0.0000 0.0000 -23.4172 0.0000 0.0000
# 5 0.0000 0.0000 0.0000 0.0000 1517.6853 0.0000
# 6 0.0000 0.0000 0.0000 0.0000 0.0000 20.9637
#
#
#
# Elastic Compliance Matrix: (Units=1/GPa)
#
#
# Indices 1 2 3 4 5 6 
#
# 1 0.014225 -0.008760 -0.005825 0.000000 0.000000 0.000000
# 2 -0.008760 0.042082 -0.003922 0.000000 0.000000 0.000000
# 3 -0.005825 -0.003922 0.008641 0.000000 0.000000 0.000000
# 4 0.000000 0.000000 0.000000 -0.042704 0.000000 0.000000
# 5 0.000000 0.000000 0.000000 0.000000 0.000659 0.000000
# 6 0.000000 0.000000 0.000000 0.000000 0.000000 0.047701
#
#
# Mechanical properties :
#
#
# Convention : Reuss Voigt Hill
#
# Bulk Modulus (GPa) = 35.79670 87.01796 61.40733
# Shear Modulus (GPa) = 42.76102 315.88563 179.32332
#
# Velocity S-wave (km/s) = 4.78949 13.01759 9.80808
# Velocity P-wave (km/s) = 7.05613 16.51135 12.69672
#
# Compressibility (1/GPa) = 0.02793553
#
# Stress axis : x y z
#
# Youngs Moduli (GPa) = 70.29960 23.76286 115.73143
#
# Poissons Ratio (x) = 0.20816 0.67409
# Poissons Ratio (y) = 0.61581 0.45388
# Poissons Ratio (z) = 0.40947 0.09320
#
# Static dielectric constant tensor:
#      x y z
#    x 1.619050 0.000000 0.000000 
#    y 0.000000 1.635300 0.000000 
#    z 0.000000 0.000000 1.655080 
# 
# From -- ./inp_files/58846.got.cif
#   From: 2010.05.17/outbox.cif.g08.bks.cpg/sg65_30_cif.got.tgz:58846.got - 2010.06.03 17:01:31.
