data_PCOD9494301
_publ_section_title
;
Structure prediction by ZEFSAII (Michael W. Deem and Ramdas Pophale) SiO2 
 PCOD9494301
Probable space group: C M M M
;
_chemical_formula_sum "Si O2"
_cell_formula_units_Z 88
_cell_length_a 19.695067
_cell_length_b 7.555748
_cell_length_c 30.190083
_cell_angle_alpha 90.000000
_cell_angle_beta 90.000000
_cell_angle_gamma 90.000000
_cell_volume 4492.615327
_symmetry_space_group_name_H-M "C M M M"
_symmetry_group_IT_number 65
_symmetry_cell_setting 'orthorhombic'
loop_
_space_group_symop_operation_xyz
x,y,z
-x,-y,z
x,-y,-z
-x,y,-z
-x,-y,-z
x,y,-z
-x,y,z
x,-y,z
1/2+x,1/2+y,z
1/2-x,1/2-y,z
1/2+x,1/2-y,-z
1/2-x,1/2+y,-z
1/2-x,1/2-y,-z
1/2+x,1/2+y,-z
1/2-x,1/2+y,z
1/2+x,1/2-y,z
loop_
_atom_site_type_symbol
_atom_site_label
_atom_site_fract_x
_atom_site_fract_y
_atom_site_fract_z
Si Si1 0.922433 0.212284 0.728007
Si Si2 0.168970 0.787263 0.000000
Si Si3 0.829130 0.712521 0.549469
Si Si4 0.169243 0.787743 0.904709
Si Si5 0.422606 0.787518 0.628803
Si Si6 0.169917 0.787078 0.191953
O O1 0.897020 0.249450 0.678350
O O2 0.874188 0.280459 0.766993
O O3 0.000000 0.279877 0.731360
O O4 0.925374 0.000000 0.732352
O O5 0.250000 0.750000 0.000000
O O6 0.142528 0.720311 0.952316
O O7 0.160635 0.000000 0.000000
O O8 0.846300 0.779437 0.500000
O O9 0.836883 0.500000 0.548329
O O10 0.750000 0.750000 0.557583
O O11 0.875710 0.780898 0.589216
O O12 0.250000 0.750000 0.904825
O O13 0.145869 0.720895 0.856619
O O14 0.159905 0.000000 0.904921
O O15 0.500000 0.719970 0.625690
O O16 0.425311 0.000000 0.624755
O O17 0.250000 0.750000 0.197253
O O18 0.163330 0.000000 0.191047
#
# Coordination Sequence:
#
# PCOD9494301 Si02
#       6
#    16   8  16  16  16  16
#     4   9  18  32  47  62  83 113 146 176 208 249
#     4   8  12  18  30  48  71  99 127 157 197 242
#     4   9  18  32  49  69  93 119 144 171 206 249
#     4   8  13  21  33  51  75 101 129 162 201 243
#     4   9  18  32  49  68  88 111 142 179 214 246
#     4   9  17  28  42  61  84 109 138 173 211 250
#
# _framework density 19.587700999999999
#
# number of rings (size 3 to 8) (size 9 to 14) (size 15 to 20)
#    0.000    3.273    0.000    0.000    0.000    2.545 
#    0.000    5.455    0.000    0.000    0.000    5.727 
#    0.000    5.091    0.000    0.000    0.000  181.909 
#
# Total GULP energy -244973.362969 kJ/mol
# GULP energy per Si atom -5567.576431 kJ/mol
# Density = 1.954312 g / cm^3
# Si number density = 19.587701 Si / 1000 Ang^3
#
#
#
# Elastic Constant Matrix: (Units=GPa)
#
#
# Indices 1 2 3 4 5 6 
#
# 1 48.0082 1.0977 95.2367 0.0000 0.0000 0.0000
# 2 1.0977 50.1066 7.1128 0.0000 0.0000 0.0000
# 3 95.2367 7.1128 263.2029 0.0000 0.0000 0.0000
# 4 0.0000 0.0000 0.0000 9.2324 0.0000 0.0000
# 5 0.0000 0.0000 0.0000 0.0000 -22.5849 0.0000
# 6 0.0000 0.0000 0.0000 0.0000 0.0000 12.1404
#
#
#
# Elastic Compliance Matrix: (Units=1/GPa)
#
#
# Indices 1 2 3 4 5 6 
#
# 1 0.074050 0.002190 -0.026853 0.000000 0.000000 0.000000
# 2 0.002190 0.020099 -0.001335 0.000000 0.000000 0.000000
# 3 -0.026853 -0.001335 0.013552 0.000000 0.000000 0.000000
# 4 0.000000 0.000000 0.000000 0.108314 0.000000 0.000000
# 5 0.000000 0.000000 0.000000 0.000000 -0.044277 0.000000
# 6 0.000000 0.000000 0.000000 0.000000 0.000000 0.082369
#
#
# Mechanical properties :
#
#
# Convention : Reuss Voigt Hill
#
# Bulk Modulus (GPa) = 17.95232 63.13468 40.54350
# Shear Modulus (GPa) = 15.40009 16.94894 16.17452
#
# Velocity S-wave (km/s) = 2.80699 2.94476 2.87670
# Velocity P-wave (km/s) = 4.43741 6.62299 5.63713
#
# Compressibility (1/GPa) = 0.05570310
#
# Stress axis : x y z
#
# Youngs Moduli (GPa) = 13.50436 49.75352 73.78994
#
# Poissons Ratio (x) = -0.10895 1.98150
# Poissons Ratio (y) = -0.02957 0.09855
# Poissons Ratio (z) = 0.36264 0.06645
#
# Static dielectric constant tensor:
#      x y z
#    x 1.646950 0.000000 0.000000 
#    y 0.000000 1.718900 0.000000 
#    z 0.000000 0.000000 1.750070 
# 
# From -- ./inp_files/74772.got.cif
#   From: 2010.05.17/outbox.cif.g08.bks.cpg/sg65_38_cif.got.tgz:74772.got - 2010.06.03 17:01:31.
