data_PCOD9494865
_publ_section_title
;
Structure prediction by ZEFSAII (Michael W. Deem and Ramdas Pophale) SiO2 
 PCOD9494865
Probable space group: C M M M
;
_chemical_formula_sum "Si O2"
_cell_formula_units_Z 48
_cell_length_a 27.000000
_cell_length_b 21.000000
_cell_length_c 9.000000
_cell_angle_alpha 90.000000
_cell_angle_beta 90.000000
_cell_angle_gamma 90.000000
_cell_volume 5103.000000
_symmetry_space_group_name_H-M "C M M M"
_symmetry_group_IT_number 65
_symmetry_cell_setting 'orthorhombic'
loop_
_space_group_symop_operation_xyz
x,y,z
-x,-y,z
x,-y,-z
-x,y,-z
-x,-y,-z
x,y,-z
-x,y,z
x,-y,z
1/2+x,1/2+y,z
1/2-x,1/2-y,z
1/2+x,1/2-y,-z
1/2-x,1/2+y,-z
1/2-x,1/2-y,-z
1/2+x,1/2+y,-z
1/2-x,1/2+y,z
1/2+x,1/2-y,z
loop_
_atom_site_type_symbol
_atom_site_label
_atom_site_fract_x
_atom_site_fract_y
_atom_site_fract_z
Si Si1 0.792394 0.572774 0.176579
Si Si2 0.726209 0.319875 0.326493
Si Si3 0.443982 0.799983 0.676927
Si Si4 0.910938 0.572264 0.823411
Si Si5 0.120569 0.191315 0.821804
Si Si6 0.557201 0.429672 0.819308
O O1 0.778255 0.500000 0.216743
O O2 0.762839 0.625977 0.265441
O O3 0.851568 0.578367 0.198694
O O4 0.783236 0.580629 0.000000
O O5 0.715640 0.331347 0.500000
O O6 0.750000 0.250000 0.312797
O O7 0.676016 0.318261 0.233326
O O8 0.437578 0.797670 0.500000
O O9 0.500000 0.778663 0.713725
O O10 0.436806 0.871768 0.734208
O O11 0.404473 0.754118 0.754434
O O12 0.925259 0.500000 0.781511
O O13 0.920409 0.579573 0.000000
O O14 0.089418 0.129720 0.770342
O O15 0.118903 0.195418 0.000000
O O16 0.500000 0.422407 0.774123
O O17 0.574720 0.500000 0.771659
O O18 0.557924 0.429501 0.000000
#
# Coordination Sequence:
#
# PCOD9494865 Si02
#       6
#    16  16  16  16  16  16
#     4   9  19  37  60  85 112 143 183 230 278 330
#     4  11  24  39  55  79 112 148 186 228 278 339
#     4  11  24  39  55  79 114 152 187 228 279 335
#     4   9  19  37  61  87 113 143 183 232 281 329
#     4  11  22  36  58  84 109 142 186 234 280 327
#     4   8  15  30  53  81 110 137 169 213 264 317
#
# _framework density 9.4062319999999993
#
# number of rings (size 3 to 8) (size 9 to 14) (size 15 to 20)
#    0.000    2.167    0.000    4.500    0.000    8.333 
#    0.000    5.000    0.000    1.500    0.000    5.833 
#    0.000    0.000    0.000    0.000    0.000    0.000 
#
# Total GULP energy -268038.433556 kJ/mol
# GULP energy per Si atom -5584.134032 kJ/mol
# Density = 0.938482 g / cm^3
# Si number density = 9.406232 Si / 1000 Ang^3
#
#
#
# Elastic Constant Matrix: (Units=GPa)
#
#
# Indices 1 2 3 4 5 6 
#
# 1 26.5829 9.9876 17.7072 0.0000 0.0000 0.0000
# 2 9.9876 75.8927 25.1041 0.0000 0.0000 0.0000
# 3 17.7072 25.1041 39.1048 0.0000 0.0000 0.0000
# 4 0.0000 0.0000 0.0000 -0.0300 0.0000 0.0000
# 5 0.0000 0.0000 0.0000 0.0000 26.4183 0.0000
# 6 0.0000 0.0000 0.0000 0.0000 0.0000 36.5398
#
#
#
# Elastic Compliance Matrix: (Units=1/GPa)
#
#
# Indices 1 2 3 4 5 6 
#
# 1 0.053958 0.001246 -0.025232 0.000000 0.000000 0.000000
# 2 0.001246 0.016758 -0.011322 0.000000 0.000000 0.000000
# 3 -0.025232 -0.011322 0.044266 0.000000 0.000000 0.000000
# 4 0.000000 0.000000 0.000000-33.350740 0.000000 0.000000
# 5 0.000000 0.000000 0.000000 0.000000 0.037853 0.000000
# 6 0.000000 0.000000 0.000000 0.000000 0.000000 0.027367
#
#
# Mechanical properties :
#
#
# Convention : Reuss Voigt Hill
#
# Bulk Modulus (GPa) = 22.54075 27.46423 25.00249
# Shear Modulus (GPa) = -0.15113 18.50439 9.17663
#
# Velocity S-wave (km/s) = -0.28374 3.13968 2.21100
# Velocity P-wave (km/s) = 3.44971 5.27011 4.45391
#
# Compressibility (1/GPa) = 0.04436409
#
# Stress axis : x y z
#
# Youngs Moduli (GPa) = 18.53306 59.67410 22.59061
#
# Poissons Ratio (x) = -0.07433 0.57001
# Poissons Ratio (y) = -0.02308 0.25577
# Poissons Ratio (z) = 0.46763 0.67563
#
# Static dielectric constant tensor:
#      x y z
#    x 1.636970 0.000000 0.000000 
#    y 0.000000 1.646970 0.000000 
#    z 0.000000 0.000000 1.623300 
# 
# From -- ./inp_files/16318.got.cif
#   From: 2010.05.17/outbox.ucp.g08.bks.cvg/sg65_9_cif.got.tgz:16318.got - 2010.06.11 16:39:57.
