data_PCOD9494275
_publ_section_title
;
Structure prediction by ZEFSAII (Michael W. Deem and Ramdas Pophale) SiO2 
 PCOD9494275
Probable space group: C M M M
;
_chemical_formula_sum "Si O2"
_cell_formula_units_Z 80
_cell_length_a 39.055592
_cell_length_b 7.285502
_cell_length_c 14.279632
_cell_angle_alpha 90.000000
_cell_angle_beta 90.000000
_cell_angle_gamma 90.000000
_cell_volume 4063.120686
_symmetry_space_group_name_H-M "C M M M"
_symmetry_group_IT_number 65
_symmetry_cell_setting 'orthorhombic'
loop_
_space_group_symop_operation_xyz
x,y,z
-x,-y,z
x,-y,-z
-x,y,-z
-x,-y,-z
x,y,-z
-x,y,z
x,-y,z
1/2+x,1/2+y,z
1/2-x,1/2-y,z
1/2+x,1/2-y,-z
1/2-x,1/2+y,-z
1/2-x,1/2-y,-z
1/2+x,1/2+y,-z
1/2-x,1/2+y,z
1/2+x,1/2-y,z
loop_
_atom_site_type_symbol
_atom_site_label
_atom_site_fract_x
_atom_site_fract_y
_atom_site_fract_z
Si Si1 0.106810 0.276398 0.394891
Si Si2 0.711387 0.781299 0.893156
Si Si3 0.075143 0.723114 0.894859
Si Si4 0.144112 0.723451 0.790484
Si Si5 0.461833 0.776587 0.707724
O O1 0.114313 0.215653 0.500000
O O2 0.107034 0.500000 0.395083
O O3 0.132971 0.218250 0.313509
O O4 0.068809 0.220612 0.361040
O O5 0.750000 0.750000 0.858634
O O6 0.680586 0.712696 0.828695
O O7 0.706991 0.000000 0.898820
O O8 0.709098 0.710054 0.000000
O O9 0.074520 0.500000 0.896202
O O10 0.113174 0.775752 0.860230
O O11 0.049203 0.779145 0.812812
O O12 0.067856 0.785669 0.000000
O O13 0.144426 0.500000 0.789208
O O14 0.500000 0.715545 0.683810
O O15 0.461958 0.000000 0.706693
#
# Coordination Sequence:
#
# PCOD9494275 Si02
#       5
#    16  16  16  16  16
#     4   8  13  20  29  40  54  76 108 143 175 205
#     4   9  16  25  38  56  76  96 117 142 174 210
#     4   8  12  17  25  36  51  74 104 136 168 202
#     4   8  13  21  32  45  61  81 108 142 174 204
#     4   8  13  18  22  32  51  74 103 139 175 207
#
# _framework density 19.689298999999998
#
# number of rings (size 3 to 8) (size 9 to 14) (size 15 to 20)
#    0.000    3.800    0.000    3.000    0.000    3.200 
#    0.000    4.000    0.000    0.600    0.000    0.000 
#    0.000    0.000    0.000    0.000    0.000   16.000 
#
# Total GULP energy -223017.893943 kJ/mol
# GULP energy per Si atom -5575.447349 kJ/mol
# Density = 1.964449 g / cm^3
# Si number density = 19.689299 Si / 1000 Ang^3
#
#
#
# Elastic Constant Matrix: (Units=GPa)
#
#
# Indices 1 2 3 4 5 6 
#
# 1 137.4991 2.2550 42.6061 0.0000 0.0000 0.0000
# 2 2.2550 83.3875 3.3965 0.0000 0.0000 0.0000
# 3 42.6061 3.3965 97.6750 0.0000 0.0000 0.0000
# 4 0.0000 0.0000 0.0000 -16.1964 0.0000 0.0000
# 5 0.0000 0.0000 0.0000 0.0000 10.0748 0.0000
# 6 0.0000 0.0000 0.0000 0.0000 0.0000 -3.6007
#
#
#
# Elastic Compliance Matrix: (Units=1/GPa)
#
#
# Indices 1 2 3 4 5 6 
#
# 1 0.008410 -0.000078 -0.003666 0.000000 0.000000 0.000000
# 2 -0.000078 0.012010 -0.000384 0.000000 0.000000 0.000000
# 3 -0.003666 -0.000384 0.011850 0.000000 0.000000 0.000000
# 4 0.000000 0.000000 0.000000 -0.061742 0.000000 0.000000
# 5 0.000000 0.000000 0.000000 0.000000 0.099258 0.000000
# 6 0.000000 0.000000 0.000000 0.000000 0.000000 -0.277724
#
#
# Mechanical properties :
#
#
# Convention : Reuss Voigt Hill
#
# Bulk Modulus (GPa) = 41.63982 46.11964 43.87973
# Shear Modulus (GPa) = -26.08540 16.07581 -5.00479
#
# Velocity S-wave (km/s) = -3.64380 2.86050 -1.59606
# Velocity P-wave (km/s) = 1.86851 5.86383 4.35177
#
# Compressibility (1/GPa) = 0.02401547
#
# Stress axis : x y z
#
# Youngs Moduli (GPa) = 118.90702 83.26439 84.38551
#
# Poissons Ratio (x) = 0.00650 0.30933
# Poissons Ratio (y) = 0.00929 0.03237
# Poissons Ratio (z) = 0.43588 0.03194
#
# Static dielectric constant tensor:
#      x y z
#    x 1.665420 0.000000 0.000000 
#    y 0.000000 1.253850 0.000000 
#    z 0.000000 0.000000 1.668120 
# 
# From -- ./inp_files/47582.got.cif
#   From: 2010.05.17/outbox.cif.g08.bks.cpg/sg65_24_cif.got.tgz:47582.got - 2010.06.03 17:01:31.
