data_PCOD9494949
_publ_section_title
;
Structure prediction by ZEFSAII (Michael W. Deem and Ramdas Pophale) SiO2 
 PCOD9494949
Probable space group: C C C M
;
_chemical_formula_sum "Si O2"
_cell_formula_units_Z 96
_cell_length_a 12.451925
_cell_length_b 26.957892
_cell_length_c 17.969679
_cell_angle_alpha 90.000000
_cell_angle_beta 90.000000
_cell_angle_gamma 90.000000
_cell_volume 6032.019606
_symmetry_space_group_name_H-M "C C C M"
_symmetry_group_IT_number 66
_symmetry_cell_setting 'orthorhombic'
loop_
_space_group_symop_operation_xyz
x,y,z
-x,-y,z
x,-y,1/2-z
-x,y,1/2-z
-x,-y,-z
x,y,-z
-x,y,1/2+z
x,-y,1/2+z
1/2+x,1/2+y,z
1/2-x,1/2-y,z
1/2+x,1/2-y,1/2-z
1/2-x,1/2+y,1/2-z
1/2-x,1/2-y,-z
1/2+x,1/2+y,-z
1/2-x,1/2+y,1/2+z
1/2+x,1/2-y,1/2+z
loop_
_atom_site_type_symbol
_atom_site_label
_atom_site_fract_x
_atom_site_fract_y
_atom_site_fract_z
Si Si1 0.359405 0.222288 0.177089
Si Si2 0.891940 0.392689 0.342263
Si Si3 0.404357 0.246259 0.648984
Si Si4 0.628914 0.008713 0.581667
Si Si5 0.742534 0.328821 0.913180
Si Si6 0.354902 0.085311 0.673066
O O1 0.250000 0.250000 0.156766
O O2 0.359807 0.164723 0.152993
O O3 0.373921 0.227925 0.267166
O O4 0.467849 0.245746 0.143842
O O5 0.850882 0.433862 0.399834
O O6 0.851432 0.410330 0.261463
O O7 0.022108 0.397373 0.344908
O O8 0.351410 0.298801 0.629050
O O9 0.346111 0.207381 0.594672
O O10 0.670935 0.995448 0.500000
O O11 0.500000 0.000000 0.580097
O O12 0.665073 0.970096 0.644096
O O13 0.775066 0.378138 0.869601
O O14 0.718574 0.336687 0.000000
#
# Coordination Sequence:
#
# PCOD9494949 Si02
#       6
#    16  16  16  16  16  16
#     4  11  18  31  51  69  99 134 170 203 234 294
#     4  10  17  29  45  65  99 128 163 202 238 294
#     4  10  18  31  44  73  98 126 168 200 244 290
#     4   9  18  28  41  65  94 125 160 199 249 301
#     4  11  19  30  49  71 101 128 159 210 255 293
#     4  10  16  29  46  71  91 128 163 199 249 298
#
# _framework density 15.915068
#
# number of rings (size 3 to 8) (size 9 to 14) (size 15 to 20)
#    0.000    1.833    5.000    3.000    0.000    2.667 
#    0.000    0.000    0.000    4.500    0.000    1.167 
#    0.000    8.000    0.000    0.000    0.000    0.000 
#
# Total GULP energy -267389.807788 kJ/mol
# GULP energy per Si atom -5570.620996 kJ/mol
# Density = 1.587884 g / cm^3
# Si number density = 15.915068 Si / 1000 Ang^3
#
#
#
# Elastic Constant Matrix: (Units=GPa)
#
#
# Indices 1 2 3 4 5 6 
#
# 1 74.9814 39.9429 18.2456 0.0000 0.0000 0.0000
# 2 39.9429 92.4115 36.9648 0.0000 0.0000 0.0000
# 3 18.2456 36.9648 43.9062 0.0000 0.0000 0.0000
# 4 0.0000 0.0000 0.0000 3.6520 0.0000 0.0000
# 5 0.0000 0.0000 0.0000 0.0000 10.6273 0.0000
# 6 0.0000 0.0000 0.0000 0.0000 0.0000 19.4621
#
#
#
# Elastic Compliance Matrix: (Units=1/GPa)
#
#
# Indices 1 2 3 4 5 6 
#
# 1 0.017379 -0.006970 -0.001354 0.000000 0.000000 0.000000
# 2 -0.006970 0.019111 -0.013193 0.000000 0.000000 0.000000
# 3 -0.001354 -0.013193 0.034446 0.000000 0.000000 0.000000
# 4 0.000000 0.000000 0.000000 0.273826 0.000000 0.000000
# 5 0.000000 0.000000 0.000000 0.000000 0.094097 0.000000
# 6 0.000000 0.000000 0.000000 0.000000 0.000000 0.051382
#
#
# Mechanical properties :
#
#
# Convention : Reuss Voigt Hill
#
# Bulk Modulus (GPa) = 35.84019 44.62287 40.23153
# Shear Modulus (GPa) = 9.21529 14.49133 11.85331
#
# Velocity S-wave (km/s) = 2.40891 3.02079 2.73204
# Velocity P-wave (km/s) = 5.50506 6.34554 5.94019
#
# Compressibility (1/GPa) = 0.02790164
#
# Stress axis : x y z
#
# Youngs Moduli (GPa) = 57.54022 52.32515 29.03107
#
# Poissons Ratio (x) = 0.36472 0.03930
# Poissons Ratio (y) = 0.40107 0.38302
# Poissons Ratio (z) = 0.07790 0.69034
#
# Static dielectric constant tensor:
#      x y z
#    x 1.517690 0.000000 0.000000 
#    y 0.000000 1.541030 0.000000 
#    z 0.000000 0.000000 1.551390 
# 
# From -- ./inp_files/39009.got.cif
#   From: 2010.05.17/outbox.cif.g08.bks.cpg/sg66_20_cif.got.tgz:39009.got - 2010.06.03 17:51:23.
