data_PCOD9494875
_publ_section_title
;
Structure prediction by ZEFSAII (Michael W. Deem and Ramdas Pophale) SiO2 
 PCOD9494875
Probable space group: C M M M
;
_chemical_formula_sum "Si O2"
_cell_formula_units_Z 32
_cell_length_a 15.000000
_cell_length_b 27.000000
_cell_length_c 9.000000
_cell_angle_alpha 90.000000
_cell_angle_beta 90.000000
_cell_angle_gamma 90.000000
_cell_volume 3645.000000
_symmetry_space_group_name_H-M "C M M M"
_symmetry_group_IT_number 65
_symmetry_cell_setting 'orthorhombic'
loop_
_space_group_symop_operation_xyz
x,y,z
-x,-y,z
x,-y,-z
-x,y,-z
-x,-y,-z
x,y,-z
-x,y,z
x,-y,z
1/2+x,1/2+y,z
1/2-x,1/2-y,z
1/2+x,1/2-y,-z
1/2-x,1/2+y,-z
1/2-x,1/2-y,-z
1/2+x,1/2+y,-z
1/2-x,1/2+y,z
1/2+x,1/2-y,z
loop_
_atom_site_type_symbol
_atom_site_label
_atom_site_fract_x
_atom_site_fract_y
_atom_site_fract_z
Si Si1 0.000000 0.168591 0.681316
Si Si2 0.000000 0.285388 0.679522
Si Si3 0.350665 0.135147 0.319441
Si Si4 0.000000 0.555896 0.320355
Si Si5 0.162603 0.105691 0.180275
Si Si6 0.392006 0.500000 0.678370
O O1 0.000000 0.227406 0.720902
O O2 0.085376 0.140556 0.750284
O O3 0.000000 0.164176 0.500000
O O4 0.088654 0.316852 0.723029
O O5 0.000000 0.286860 0.500000
O O6 0.337660 0.136437 0.500000
O O7 0.413207 0.088000 0.281622
O O8 0.257041 0.127553 0.237607
O O9 0.000000 0.500000 0.261973
O O10 0.000000 0.553517 0.500000
O O11 0.146545 0.050121 0.246388
O O12 0.158167 0.104692 0.000000
O O13 0.500000 0.500000 0.696622
O O14 0.373470 0.500000 0.500000
#
# Coordination Sequence:
#
# PCOD9494875 Si02
#       6
#     8   8  16   8  16   8
#     4  11  22  40  63  85 111 153 208 251 290 341
#     4   8  18  38  64  89 114 150 202 259 291 324
#     4   9  18  36  60  86 117 152 196 242 289 341
#     4   8  15  29  53  85 112 143 190 241 282 330
#     4  12  25  39  57  88 125 155 188 237 299 356
#     4  11  23  41  65  86 110 153 202 240 285 345
#
# _framework density 8.7791499999999996
#
# number of rings (size 3 to 8) (size 9 to 14) (size 15 to 20)
#    0.000    2.000    1.250    4.500    1.750    1.500 
#    0.000   10.000    0.000    0.750    0.000    0.000 
#    0.000    0.000    0.000    0.000    0.000    0.000 
#
# Total GULP energy -178573.835363 kJ/mol
# GULP energy per Si atom -5580.432355 kJ/mol
# Density = 0.875917 g / cm^3
# Si number density = 8.779150 Si / 1000 Ang^3
#
#
#
# Elastic Constant Matrix: (Units=GPa)
#
#
# Indices 1 2 3 4 5 6 
#
# 1 177.6325 90.0545 61.5069 0.0000 0.0000 0.0000
# 2 90.0545 191.2785 56.7857 0.0000 0.0000 0.0000
# 3 61.5069 56.7857 109.1851 0.0000 0.0000 0.0000
# 4 0.0000 0.0000 0.0000 21.1853 0.0000 0.0000
# 5 0.0000 0.0000 0.0000 0.0000 19.2811 0.0000
# 6 0.0000 0.0000 0.0000 0.0000 0.0000 17.3112
#
#
#
# Elastic Compliance Matrix: (Units=1/GPa)
#
#
# Indices 1 2 3 4 5 6 
#
# 1 0.008187 -0.002939 -0.003084 0.000000 0.000000 0.000000
# 2 -0.002939 0.007238 -0.002109 0.000000 0.000000 0.000000
# 3 -0.003084 -0.002109 0.011992 0.000000 0.000000 0.000000
# 4 0.000000 0.000000 0.000000 0.047202 0.000000 0.000000
# 5 0.000000 0.000000 0.000000 0.000000 0.051864 0.000000
# 6 0.000000 0.000000 0.000000 0.000000 0.000000 0.057766
#
#
# Mechanical properties :
#
#
# Convention : Reuss Voigt Hill
#
# Bulk Modulus (GPa) = 89.64580 99.42115 94.53347
# Shear Modulus (GPa) = 24.48207 29.53880 27.01044
#
# Velocity S-wave (km/s) = 3.73812 4.10607 3.92641
# Velocity P-wave (km/s) = 8.35454 8.90090 8.63205
#
# Compressibility (1/GPa) = 0.01115501
#
# Stress axis : x y z
#
# Youngs Moduli (GPa) = 122.13882 138.16466 83.38616
#
# Poissons Ratio (x) = 0.40610 0.25712
# Poissons Ratio (y) = 0.35899 0.17582
# Poissons Ratio (z) = 0.37662 0.29132
#
# Static dielectric constant tensor:
#      x y z
#    x 1.596500 0.000000 0.000000 
#    y 0.000000 1.603550 0.000000 
#    z 0.000000 0.000000 1.581190 
# 
# From -- ./inp_files/7139.got.cif
#   From: 2010.05.17/outbox.ucp.g08.bks.cvg/sg65_4_cif.got.tgz:7139.got - 2010.06.11 16:39:57.
