data_PCOD9494239
_publ_section_title
;
Structure prediction by ZEFSAII (Michael W. Deem and Ramdas Pophale) SiO2 
 PCOD9494239
Probable space group: C M M M
;
_chemical_formula_sum "Si O2"
_cell_formula_units_Z 104
_cell_length_a 7.246225
_cell_length_b 27.969338
_cell_length_c 22.664295
_cell_angle_alpha 90.000000
_cell_angle_beta 90.000000
_cell_angle_gamma 90.000000
_cell_volume 4593.420631
_symmetry_space_group_name_H-M "C M M M"
_symmetry_group_IT_number 65
_symmetry_cell_setting 'orthorhombic'
loop_
_space_group_symop_operation_xyz
x,y,z
-x,-y,z
x,-y,-z
-x,y,-z
-x,-y,-z
x,y,-z
-x,y,z
x,-y,z
1/2+x,1/2+y,z
1/2-x,1/2-y,z
1/2+x,1/2-y,-z
1/2-x,1/2+y,-z
1/2-x,1/2-y,-z
1/2+x,1/2+y,-z
1/2-x,1/2+y,z
1/2+x,1/2-y,z
loop_
_atom_site_type_symbol
_atom_site_label
_atom_site_fract_x
_atom_site_fract_y
_atom_site_fract_z
Si Si1 0.776031 0.557222 0.000000
Si Si2 0.219428 0.693129 0.193036
Si Si3 0.719661 0.193310 0.564716
Si Si4 0.724685 0.945837 0.255736
Si Si5 0.775123 0.646474 0.315133
Si Si6 0.218103 0.558221 0.126704
Si Si7 0.279878 0.807686 0.064308
O O1 0.709777 0.575614 0.063477
O O2 0.738477 0.500000 0.000000
O O3 0.000000 0.561920 0.000000
O O4 0.250000 0.750000 0.194320
O O5 0.287799 0.672675 0.255136
O O6 0.289099 0.675529 0.128675
O O7 0.000000 0.683715 0.192208
O O8 0.790892 0.178404 0.500000
O O9 0.500000 0.185207 0.563705
O O10 0.750000 0.250000 0.570092
O O11 0.791262 0.168361 0.623679
O O12 0.500000 0.946728 0.252941
O O13 0.776158 0.908577 0.305558
O O14 0.787581 0.927630 0.191077
O O15 0.785689 0.000000 0.264716
O O16 0.000000 0.649885 0.315491
O O17 0.234542 0.500000 0.126543
O O18 0.000000 0.569240 0.126291
O O19 0.500000 0.816248 0.063967
O O20 0.250000 0.750000 0.064506
O O21 0.210640 0.824652 0.000000
#
# Coordination Sequence:
#
# PCOD9494239 Si02
#       7
#     8  16  16  16  16  16  16
#     4   7   8  10  18  32  50  74 107 148 191 229
#     4   9  16  25  38  56  78 102 128 160 197 236
#     4   9  17  29  45  65  89 114 136 160 195 239
#     4   8  13  21  33  48  68  97 132 166 198 235
#     4   9  16  25  38  55  77 104 133 165 199 234
#     4   7   9  13  22  36  54  79 113 152 191 229
#     4   8  13  21  33  48  67  94 126 156 188 228
#
# _framework density 22.641079000000001
#
# number of rings (size 3 to 8) (size 9 to 14) (size 15 to 20)
#    0.000    3.769    0.000    2.308    0.000    0.000 
#    0.000    0.000    1.692    0.462    0.000    3.231 
#    0.000    2.462    0.000    3.846    0.000    4.000 
#
# Total GULP energy -290110.683662 kJ/mol
# GULP energy per Si atom -5579.051609 kJ/mol
# Density = 2.258955 g / cm^3
# Si number density = 22.641079 Si / 1000 Ang^3
#
#
#
# Elastic Constant Matrix: (Units=GPa)
#
#
# Indices 1 2 3 4 5 6 
#
# 1 103.5391 -5.3063 17.3965 0.0000 0.0000 0.0000
# 2 -5.3063 87.1545 100.3093 0.0000 0.0000 0.0000
# 3 17.3965 100.3093 273.0401 0.0000 0.0000 0.0000
# 4 0.0000 0.0000 0.0000 44.0813 0.0000 0.0000
# 5 0.0000 0.0000 0.0000 0.0000 -25.4729 0.0000
# 6 0.0000 0.0000 0.0000 0.0000 0.0000 -13.6487
#
#
#
# Elastic Compliance Matrix: (Units=1/GPa)
#
#
# Indices 1 2 3 4 5 6 
#
# 1 0.010029 0.002332 -0.001496 0.000000 0.000000 0.000000
# 2 0.002332 0.020422 -0.007651 0.000000 0.000000 0.000000
# 3 -0.001496 -0.007651 0.006569 0.000000 0.000000 0.000000
# 4 0.000000 0.000000 0.000000 0.022685 0.000000 0.000000
# 5 0.000000 0.000000 0.000000 0.000000 -0.039257 0.000000
# 6 0.000000 0.000000 0.000000 0.000000 0.000000 -0.073267
#
#
# Mechanical properties :
#
#
# Convention : Reuss Voigt Hill
#
# Bulk Modulus (GPa) = 42.75340 76.50364 59.62852
# Shear Modulus (GPa) = -159.26897 24.41423 -67.42737
#
# Velocity S-wave (km/s) = -8.39630 3.28733 -5.46312
# Velocity P-wave (km/s) = 8.66447 6.94780 3.66068
#
# Compressibility (1/GPa) = 0.02338995
#
# Stress axis : x y z
#
# Youngs Moduli (GPa) = 99.71061 48.96711 152.23840
#
# Poissons Ratio (x) = -0.11420 0.22771
# Poissons Ratio (y) = -0.23254 1.16480
# Poissons Ratio (z) = 0.14914 0.37466
#
# Static dielectric constant tensor:
#      x y z
#    x 1.809570 0.000000 0.000000 
#    y 0.000000 1.845970 0.000000 
#    z 0.000000 0.000000 1.845280 
# 
# From -- ./inp_files/68148.got.cif
#   From: 2010.05.17/outbox.cif.g08.bks.cpg/sg65_35_cif.got.tgz:68148.got - 2010.06.03 17:01:31.
