data_PCOD9494599
_publ_section_title
;
Structure prediction by ZEFSAII (Michael W. Deem and Ramdas Pophale) SiO2 
 PCOD9494599
Probable space group: C M M M
;
_chemical_formula_sum "Si O2"
_cell_formula_units_Z 44
_cell_length_a 21.000000
_cell_length_b 15.000000
_cell_length_c 18.000000
_cell_angle_alpha 90.000000
_cell_angle_beta 90.000000
_cell_angle_gamma 90.000000
_cell_volume 5670.000000
_symmetry_space_group_name_H-M "C M M M"
_symmetry_group_IT_number 65
_symmetry_cell_setting 'orthorhombic'
loop_
_space_group_symop_operation_xyz
x,y,z
-x,-y,z
x,-y,-z
-x,y,-z
-x,-y,-z
x,y,-z
-x,y,z
x,-y,z
1/2+x,1/2+y,z
1/2-x,1/2-y,z
1/2+x,1/2-y,-z
1/2-x,1/2+y,-z
1/2-x,1/2-y,-z
1/2+x,1/2+y,-z
1/2-x,1/2+y,z
1/2+x,1/2-y,z
loop_
_atom_site_type_symbol
_atom_site_label
_atom_site_fract_x
_atom_site_fract_y
_atom_site_fract_z
Si Si1 0.865184 0.396103 0.913301
Si Si2 0.312461 0.604623 0.412630
Si Si3 0.250000 0.250000 0.689523
Si Si4 0.360336 0.739278 0.193973
Si Si5 0.573731 0.602334 0.300859
Si Si6 0.288737 0.602323 0.086373
O O1 0.882567 0.500000 0.897759
O O2 0.887574 0.321847 0.854142
O O3 0.787889 0.390732 0.908833
O O4 0.882390 0.377472 0.000000
O O5 0.313551 0.628305 0.500000
O O6 0.294936 0.500000 0.406975
O O7 0.266982 0.667100 0.363505
O O8 0.380893 0.614854 0.372271
O O9 0.309343 0.229236 0.743849
O O10 0.408452 0.675195 0.238727
O O11 0.322244 0.674493 0.137614
O O12 0.500000 0.609843 0.320807
O O13 0.585258 0.500000 0.274083
O O14 0.305511 0.500000 0.106541
O O15 0.305828 0.616716 0.000000
#
# Coordination Sequence:
#
# PCOD9494599 Si02
#       6
#    16  16   8  16  16  16
#     4   9  17  27  40  62  91 120 153 189 221 261
#     4   9  18  32  49  68  93 123 148 175 215 265
#     4  10  19  26  41  70  98 118 142 176 221 274
#     4  11  17  27  44  65  92 125 149 182 232 272
#     4   9  19  33  48  68  90 114 150 190 224 264
#     4   9  16  25  39  62  91 122 154 185 219 266
#
# _framework density 7.760141
#
# number of rings (size 3 to 8) (size 9 to 14) (size 15 to 20)
#    0.000    2.545    1.818    2.455    0.000    3.273 
#    0.000    1.818    0.000    2.727    0.000    7.636 
#    0.000    0.000    0.000   19.273    0.000    0.364 
#
# Total GULP energy -245138.713467 kJ/mol
# GULP energy per Si atom -5571.334397 kJ/mol
# Density = 0.774248 g / cm^3
# Si number density = 7.760141 Si / 1000 Ang^3
#
#
#
# Elastic Constant Matrix: (Units=GPa)
#
#
# Indices 1 2 3 4 5 6 
#
# 1 35.6789 25.9399 20.7869 0.0000 0.0000 0.0000
# 2 25.9399 98.0414 71.0331 0.0000 0.0000 0.0000
# 3 20.7869 71.0331 106.8448 0.0000 0.0000 0.0000
# 4 0.0000 0.0000 0.0000 36.8897 0.0000 0.0000
# 5 0.0000 0.0000 0.0000 0.0000 9.3171 0.0000
# 6 0.0000 0.0000 0.0000 0.0000 0.0000 18.0760
#
#
#
# Elastic Compliance Matrix: (Units=1/GPa)
#
#
# Indices 1 2 3 4 5 6 
#
# 1 0.034790 -0.008298 -0.001252 0.000000 0.000000 0.000000
# 2 -0.008298 0.021658 -0.012784 0.000000 0.000000 0.000000
# 3 -0.001252 -0.012784 0.018102 0.000000 0.000000 0.000000
# 4 0.000000 0.000000 0.000000 0.027108 0.000000 0.000000
# 5 0.000000 0.000000 0.000000 0.000000 0.107329 0.000000
# 6 0.000000 0.000000 0.000000 0.000000 0.000000 0.055322
#
#
# Mechanical properties :
#
#
# Convention : Reuss Voigt Hill
#
# Bulk Modulus (GPa) = 33.46493 52.89832 43.18162
# Shear Modulus (GPa) = 15.67708 21.04358 18.36033
#
# Velocity S-wave (km/s) = 3.18166 3.68622 3.44319
# Velocity P-wave (km/s) = 5.92504 7.23014 6.60988
#
# Compressibility (1/GPa) = 0.02988203
#
# Stress axis : x y z
#
# Youngs Moduli (GPa) = 28.74401 46.17321 55.24204
#
# Poissons Ratio (x) = 0.38313 0.06916
# Poissons Ratio (y) = 0.23851 0.70622
# Poissons Ratio (z) = 0.03598 0.59029
#
# Static dielectric constant tensor:
#      x y z
#    x 1.500850 0.000000 0.000000 
#    y 0.000000 1.536450 0.000000 
#    z 0.000000 0.000000 1.508660 
# 
# From -- ./inp_files/45548.got.cif
#   From: 2010.05.17/outbox.ucp.g08.bks.cvg/sg65_23_cif.got.tgz:45548.got - 2010.06.11 16:39:57.
