data_PCOD9494566
_publ_section_title
;
Structure prediction by ZEFSAII (Michael W. Deem and Ramdas Pophale) SiO2 
 PCOD9494566
Probable space group: C M M M
;
_chemical_formula_sum "Si O2"
_cell_formula_units_Z 64
_cell_length_a 21.000000
_cell_length_b 18.000000
_cell_length_c 21.000000
_cell_angle_alpha 90.000000
_cell_angle_beta 90.000000
_cell_angle_gamma 90.000000
_cell_volume 7938.000000
_symmetry_space_group_name_H-M "C M M M"
_symmetry_group_IT_number 65
_symmetry_cell_setting 'orthorhombic'
loop_
_space_group_symop_operation_xyz
x,y,z
-x,-y,z
x,-y,-z
-x,y,-z
-x,-y,-z
x,y,-z
-x,y,z
x,-y,z
1/2+x,1/2+y,z
1/2-x,1/2-y,z
1/2+x,1/2-y,-z
1/2-x,1/2+y,-z
1/2-x,1/2-y,-z
1/2+x,1/2+y,-z
1/2-x,1/2+y,z
1/2+x,1/2-y,z
loop_
_atom_site_type_symbol
_atom_site_label
_atom_site_fract_x
_atom_site_fract_y
_atom_site_fract_z
Si Si1 0.137650 0.309982 0.771759
Si Si2 0.345293 0.412196 0.074251
Si Si3 0.167318 0.083388 0.273953
Si Si4 0.576007 0.082572 0.328954
Si Si5 0.925895 0.290586 0.424555
Si Si6 0.229259 0.416027 0.839907
Si Si7 0.185561 0.220397 0.349544
Si Si8 0.425525 0.335349 0.817937
O O1 0.101938 0.372201 0.730860
O O2 0.180034 0.351801 0.823625
O O3 0.177333 0.264755 0.717839
O O4 0.091884 0.249908 0.803684
O O5 0.359057 0.500000 0.085477
O O6 0.273226 0.400911 0.099001
O O7 0.390942 0.363970 0.118559
O O8 0.352081 0.396593 0.000000
O O9 0.221426 0.083963 0.219408
O O10 0.189887 0.135073 0.330795
O O11 0.105742 0.118704 0.240164
O O12 0.155136 0.000000 0.293713
O O13 0.500000 0.078365 0.323532
O O14 0.589174 0.130098 0.392211
O O15 0.603117 0.000000 0.331365
O O16 0.918864 0.292032 0.500000
O O17 0.876715 0.235712 0.390929
O O18 0.000000 0.273219 0.409350
O O19 0.202335 0.500000 0.844350
O O20 0.250000 0.250000 0.380607
O O21 0.500000 0.346886 0.821617
#
# Coordination Sequence:
#
# PCOD9494566 Si02
#       8
#    16  16  16  16  16  16  16  16
#     4  10  18  29  47  69 100 126 153 189 241 293
#     4   9  19  34  50  69  93 122 160 203 244 287
#     4   9  18  30  47  71  97 122 155 201 251 297
#     4   9  17  29  47  72  98 124 157 195 235 281
#     4   9  19  34  49  67  95 131 168 203 241 289
#     4   9  16  29  49  71  94 124 156 192 243 297
#     4  10  18  30  49  73  96 125 159 199 246 297
#     4  10  20  31  46  68  97 130 164 199 240 293
#
# _framework density 8.0624839999999995
#
# number of rings (size 3 to 8) (size 9 to 14) (size 15 to 20)
#    0.000    2.625    1.250    1.875    0.000    4.750 
#    0.000    3.125    0.000    0.375    0.000    0.875 
#    0.000    0.000    0.000   11.250    0.000    0.125 
#
# Total GULP energy -356477.021128 kJ/mol
# GULP energy per Si atom -5569.953455 kJ/mol
# Density = 0.804413 g / cm^3
# Si number density = 8.062484 Si / 1000 Ang^3
#
#
#
# Elastic Constant Matrix: (Units=GPa)
#
#
# Indices 1 2 3 4 5 6 
#
# 1 29.0134 25.8314 27.1687 0.0000 0.0000 0.0000
# 2 25.8314 71.4660 19.7104 0.0000 0.0000 0.0000
# 3 27.1687 19.7104 50.7150 0.0000 0.0000 0.0000
# 4 0.0000 0.0000 0.0000 4.1666 0.0000 0.0000
# 5 0.0000 0.0000 0.0000 0.0000 8.3112 0.0000
# 6 0.0000 0.0000 0.0000 0.0000 0.0000 17.7644
#
#
#
# Elastic Compliance Matrix: (Units=1/GPa)
#
#
# Indices 1 2 3 4 5 6 
#
# 1 0.092565 -0.022156 -0.040977 0.000000 0.000000 0.000000
# 2 -0.022156 0.020976 0.003717 0.000000 0.000000 0.000000
# 3 -0.040977 0.003717 0.040225 0.000000 0.000000 0.000000
# 4 0.000000 0.000000 0.000000 0.240007 0.000000 0.000000
# 5 0.000000 0.000000 0.000000 0.000000 0.120320 0.000000
# 6 0.000000 0.000000 0.000000 0.000000 0.000000 0.056292
#
#
# Mechanical properties :
#
#
# Convention : Reuss Voigt Hill
#
# Bulk Modulus (GPa) = 28.62576 32.95726 30.79151
# Shear Modulus (GPa) = 7.13408 11.28068 9.20738
#
# Velocity S-wave (km/s) = 2.10567 2.64782 2.39216
# Velocity P-wave (km/s) = 4.86855 5.46177 5.17367
#
# Compressibility (1/GPa) = 0.03493357
#
# Stress axis : x y z
#
# Youngs Moduli (GPa) = 10.80327 47.67403 24.85990
#
# Poissons Ratio (x) = 1.05626 1.01869
# Poissons Ratio (y) = 0.23936 -0.09240
# Poissons Ratio (z) = 0.44269 -0.17720
#
# Static dielectric constant tensor:
#      x y z
#    x 1.553040 0.000000 0.000000 
#    y 0.000000 1.560240 0.000000 
#    z 0.000000 0.000000 1.518000 
# 
# From -- ./inp_files/64876.got.cif
#   From: 2010.05.17/outbox.ucp.g08.bks.cvg/sg65_33_cif.got.tgz:64876.got - 2010.06.11 16:39:57.
