data_PCOD9494470
_publ_section_title
;
Structure prediction by ZEFSAII (Michael W. Deem and Ramdas Pophale) SiO2 
 PCOD9494470
Probable space group: C M M M
;
_chemical_formula_sum "Si O2"
_cell_formula_units_Z 96
_cell_length_a 7.323260
_cell_length_b 27.635142
_cell_length_c 22.814561
_cell_angle_alpha 90.000000
_cell_angle_beta 90.000000
_cell_angle_gamma 90.000000
_cell_volume 4617.195569
_symmetry_space_group_name_H-M "C M M M"
_symmetry_group_IT_number 65
_symmetry_cell_setting 'orthorhombic'
loop_
_space_group_symop_operation_xyz
x,y,z
-x,-y,z
x,-y,-z
-x,y,-z
-x,-y,-z
x,y,-z
-x,y,z
x,-y,z
1/2+x,1/2+y,z
1/2-x,1/2-y,z
1/2+x,1/2-y,-z
1/2-x,1/2+y,-z
1/2-x,1/2-y,-z
1/2+x,1/2+y,-z
1/2-x,1/2+y,z
1/2+x,1/2-y,z
loop_
_atom_site_type_symbol
_atom_site_label
_atom_site_fract_x
_atom_site_fract_y
_atom_site_fract_z
Si Si1 0.718030 0.305082 0.432807
Si Si2 0.222748 0.901524 0.366097
Si Si3 0.782893 0.805360 0.066291
Si Si4 0.777316 0.055642 0.755368
Si Si5 0.221592 0.944522 0.000000
Si Si6 0.777465 0.898662 0.877011
Si Si7 0.777737 0.000000 0.432386
O O1 0.787666 0.307816 0.500000
O O2 0.500000 0.310426 0.435658
O O3 0.750000 0.250000 0.411083
O O4 0.784258 0.350815 0.394667
O O5 0.278294 0.910926 0.299001
O O6 0.000000 0.900961 0.367302
O O7 0.279199 0.949949 0.401434
O O8 0.750000 0.750000 0.081124
O O9 0.719622 0.843128 0.114685
O O10 0.000000 0.812324 0.062001
O O11 0.710711 0.814154 0.000000
O O12 0.715032 0.075295 0.818276
O O13 0.000000 0.055389 0.755767
O O14 0.721212 0.000000 0.746128
O O15 0.281122 0.921922 0.061360
O O16 0.000000 0.940523 0.000000
O O17 0.272310 0.000000 0.000000
O O18 0.000000 0.901542 0.875122
O O19 0.722667 0.000000 0.500000
O O20 0.000000 0.000000 0.430222
#
# Coordination Sequence:
#
# PCOD9494470 Si02
#       7
#    16  16  16  16   8  16   8
#     4   9  17  29  45  65  89 118 150 182 217 256
#     4   9  15  24  37  57  85 113 142 175 215 261
#     4   9  16  27  42  59  81 107 136 171 210 248
#     4   9  15  23  35  54  83 116 140 164 210 266
#     4   9  14  20  31  50  75 101 131 167 204 247
#     4   9  15  23  35  53  78 108 138 168 206 250
#     4   9  14  20  34  56  81 106 134 174 220 260
#
# _framework density 20.791841999999999
#
# number of rings (size 3 to 8) (size 9 to 14) (size 15 to 20)
#    0.000    3.000    1.667    1.000    0.000    4.000 
#    0.000    0.833    0.000    0.000    0.000    0.583 
#    0.000    8.000    0.000    0.000    0.000    0.000 
#
# Total GULP energy -267750.093784 kJ/mol
# GULP energy per Si atom -5578.126954 kJ/mol
# Density = 2.074452 g / cm^3
# Si number density = 20.791842 Si / 1000 Ang^3
#
#
#
# Elastic Constant Matrix: (Units=GPa)
#
#
# Indices 1 2 3 4 5 6 
#
# 1 80.4929 0.8911 3.2741 0.0000 0.0000 0.0000
# 2 0.8911 191.8224 110.5358 0.0000 0.0000 0.0000
# 3 3.2741 110.5358 161.9949 0.0000 0.0000 0.0000
# 4 0.0000 0.0000 0.0000 -301.1353 0.0000 0.0000
# 5 0.0000 0.0000 0.0000 0.0000 -8.4635 0.0000
# 6 0.0000 0.0000 0.0000 0.0000 0.0000 7.6727
#
#
#
# Elastic Compliance Matrix: (Units=1/GPa)
#
#
# Indices 1 2 3 4 5 6 
#
# 1 0.012436 0.000143 -0.000349 0.000000 0.000000 0.000000
# 2 0.000143 0.008593 -0.005866 0.000000 0.000000 0.000000
# 3 -0.000349 -0.005866 0.010183 0.000000 0.000000 0.000000
# 4 0.000000 0.000000 0.000000 -0.003321 0.000000 0.000000
# 5 0.000000 0.000000 0.000000 0.000000 -0.118154 0.000000
# 6 0.000000 0.000000 0.000000 0.000000 0.000000 0.130333
#
#
# Mechanical properties :
#
#
# Convention : Reuss Voigt Hill
#
# Bulk Modulus (GPa) = 52.44420 73.74580 63.09500
# Shear Modulus (GPa) = 85.36874 -39.07796 23.14539
#
# Velocity S-wave (km/s) = 6.41466 -4.34001 3.34008
# Velocity P-wave (km/s) = 8.95221 3.22977 6.72954
#
# Compressibility (1/GPa) = 0.01906788
#
# Stress axis : x y z
#
# Youngs Moduli (GPa) = 80.41121 116.37676 98.20495
#
# Poissons Ratio (x) = -0.01670 0.03430
# Poissons Ratio (y) = -0.01154 0.57608
# Poissons Ratio (z) = 0.02808 0.68268
#
# Static dielectric constant tensor:
#      x y z
#    x 1.846460 0.000000 0.000000 
#    y 0.000000 1.741820 0.000000 
#    z 0.000000 0.000000 1.715630 
# 
# From -- ./inp_files/61764.got.cif
#   From: 2010.05.17/outbox.cif.g08.bks.cpg/sg65_31_cif.got.tgz:61764.got - 2010.06.03 17:01:31.
