data_PCOD9494630
_publ_section_title
;
Structure prediction by ZEFSAII (Michael W. Deem and Ramdas Pophale) SiO2 
 PCOD9494630
Probable space group: C M M M
;
_chemical_formula_sum "Si O2"
_cell_formula_units_Z 40
_cell_length_a 18.000000
_cell_length_b 27.000000
_cell_length_c 9.000000
_cell_angle_alpha 90.000000
_cell_angle_beta 90.000000
_cell_angle_gamma 90.000000
_cell_volume 4374.000000
_symmetry_space_group_name_H-M "C M M M"
_symmetry_group_IT_number 65
_symmetry_cell_setting 'orthorhombic'
loop_
_space_group_symop_operation_xyz
x,y,z
-x,-y,z
x,-y,-z
-x,y,-z
-x,-y,-z
x,y,-z
-x,y,z
x,-y,z
1/2+x,1/2+y,z
1/2-x,1/2-y,z
1/2+x,1/2-y,-z
1/2-x,1/2+y,-z
1/2-x,1/2-y,-z
1/2+x,1/2+y,-z
1/2-x,1/2+y,z
1/2+x,1/2-y,z
loop_
_atom_site_type_symbol
_atom_site_label
_atom_site_fract_x
_atom_site_fract_y
_atom_site_fract_z
Si Si1 0.414007 0.500000 0.818228
Si Si2 0.913162 0.708010 0.323102
Si Si3 0.815558 0.906943 0.180745
Si Si4 0.000000 0.556835 0.180978
Si Si5 0.149650 0.386608 0.820223
Si Si6 0.586159 0.686148 0.822164
O O1 0.500000 0.500000 0.770043
O O2 0.367213 0.547824 0.769976
O O3 0.415511 0.500000 0.000000
O O4 0.904332 0.706126 0.500000
O O5 0.861613 0.668161 0.243415
O O6 0.899462 0.762823 0.261900
O O7 0.000000 0.696368 0.287631
O O8 0.729395 0.908383 0.227226
O O9 0.856481 0.856216 0.223500
O O10 0.815203 0.908349 0.000000
O O11 0.076523 0.582998 0.228689
O O12 0.000000 0.500000 0.228132
O O13 0.000000 0.558068 0.000000
O O14 0.149095 0.385075 0.000000
O O15 0.500000 0.671075 0.794652
O O16 0.592855 0.694008 0.000000
#
# Coordination Sequence:
#
# PCOD9494630 Si02
#       6
#     8  16  16   8  16  16
#     4   9  16  28  48  75 110 141 164 199 255 305
#     4  10  20  34  52  73  99 133 172 211 252 301
#     4   9  18  29  46  75 105 133 166 209 251 296
#     4   9  18  30  49  75 101 133 169 206 247 294
#     4  10  19  32  51  75 104 134 169 208 251 298
#     4   9  17  31  51  73 100 133 169 205 249 302
#
# _framework density 9.1449470000000002
#
# number of rings (size 3 to 8) (size 9 to 14) (size 15 to 20)
#    0.000    2.600    1.000    1.200    1.400    4.000 
#    0.000    5.000    0.000    1.200    0.000    2.100 
#    0.000    6.400    0.000    0.000    0.000    0.000 
#
# Total GULP energy -223041.731737 kJ/mol
# GULP energy per Si atom -5576.043293 kJ/mol
# Density = 0.912413 g / cm^3
# Si number density = 9.144947 Si / 1000 Ang^3
#
#
#
# Elastic Constant Matrix: (Units=GPa)
#
#
# Indices 1 2 3 4 5 6 
#
# 1 173.0452 93.4384 19.7833 0.0000 0.0000 0.0000
# 2 93.4384 107.7322 12.4952 0.0000 0.0000 0.0000
# 3 19.7833 12.4952 1.6773 0.0000 0.0000 0.0000
# 4 0.0000 0.0000 0.0000 -8.6993 0.0000 0.0000
# 5 0.0000 0.0000 0.0000 0.0000 10.0714 0.0000
# 6 0.0000 0.0000 0.0000 0.0000 0.0000 25.5706
#
#
#
# Elastic Compliance Matrix: (Units=1/GPa)
#
#
# Indices 1 2 3 4 5 6 
#
# 1 -0.003862 -0.014222 0.151498 0.000000 0.000000 0.000000
# 2 -0.014222 0.015898 0.049315 0.000000 0.000000 0.000000
# 3 0.151498 0.049315 -1.558077 0.000000 0.000000 0.000000
# 4 0.000000 0.000000 0.000000 -0.114952 0.000000 0.000000
# 5 0.000000 0.000000 0.000000 0.000000 0.099291 0.000000
# 6 0.000000 0.000000 0.000000 0.000000 0.000000 0.039107
#
#
# Mechanical properties :
#
#
# Convention : Reuss Voigt Hill
#
# Bulk Modulus (GPa) = -0.85262 59.32092 29.23415
# Shear Modulus (GPa) = -2.18653 15.83772 6.82559
#
# Velocity S-wave (km/s) = -1.09457 2.94586 1.93391
# Velocity P-wave (km/s) = 1.43688 6.63889 4.58314
#
# Compressibility (1/GPa) = -1.17286055
#
# Stress axis : x y z
#
# Youngs Moduli (GPa) = -258.95684 62.90241 -0.64182
#
# Poissons Ratio (x) = 0.89460 0.09723
# Poissons Ratio (y) = -3.68289 0.03165
# Poissons Ratio (z) = 39.23141 -3.10200
#
# Static dielectric constant tensor:
#      x y z
#    x 1.634650 0.000000 0.000000 
#    y 0.000000 1.622550 0.000000 
#    z 0.000000 0.000000 1.590670 
# 
# From -- ./inp_files/9683.got.cif
#   From: 2010.05.17/outbox.ucp.g08.bks.cvg/sg65_5_cif.got.tgz:9683.got - 2010.06.11 16:39:57.
