data_PCOD9494621
_publ_section_title
;
Structure prediction by ZEFSAII (Michael W. Deem and Ramdas Pophale) SiO2 
 PCOD9494621
Probable space group: C M M M
;
_chemical_formula_sum "Si O2"
_cell_formula_units_Z 44
_cell_length_a 27.000000
_cell_length_b 12.000000
_cell_length_c 15.000000
_cell_angle_alpha 90.000000
_cell_angle_beta 90.000000
_cell_angle_gamma 90.000000
_cell_volume 4860.000000
_symmetry_space_group_name_H-M "C M M M"
_symmetry_group_IT_number 65
_symmetry_cell_setting 'orthorhombic'
loop_
_space_group_symop_operation_xyz
x,y,z
-x,-y,z
x,-y,-z
-x,y,-z
-x,-y,-z
x,y,-z
-x,y,z
x,-y,z
1/2+x,1/2+y,z
1/2-x,1/2-y,z
1/2+x,1/2-y,-z
1/2-x,1/2+y,-z
1/2-x,1/2-y,-z
1/2+x,1/2+y,-z
1/2-x,1/2+y,z
1/2+x,1/2-y,z
loop_
_atom_site_type_symbol
_atom_site_label
_atom_site_fract_x
_atom_site_fract_y
_atom_site_fract_z
Si Si1 0.940167 0.000000 0.108356
Si Si2 0.404868 0.130238 0.103134
Si Si3 0.000000 0.215036 0.599190
Si Si4 0.867048 0.174094 0.200645
Si Si5 0.229636 0.876848 0.895335
Si Si6 0.000000 0.370971 0.227965
Si Si7 0.390602 0.630145 0.400082
O O1 0.913150 0.895264 0.157048
O O2 0.000000 0.000000 0.121735
O O3 0.931437 0.000000 0.000000
O O4 0.365553 0.207438 0.151075
O O5 0.453297 0.146772 0.163773
O O6 0.392476 0.000000 0.104057
O O7 0.412933 0.162853 0.000000
O O8 0.950013 0.143869 0.603399
O O9 0.000000 0.270321 0.500000
O O10 0.000000 0.296255 0.684082
O O11 0.817098 0.116313 0.169761
O O12 0.871707 0.183289 0.307522
O O13 0.250000 0.750000 0.879747
O O14 0.256614 0.000000 0.885121
O O15 0.214565 0.875021 0.000000
O O16 0.000000 0.500000 0.256093
O O17 0.375354 0.671712 0.500000
O O18 0.377657 0.500000 0.395488
#
# Coordination Sequence:
#
# PCOD9494621 Si02
#       7
#     8  16   8  16  16   8  16
#     4  11  24  34  49  83 121 155 186 224 284 346
#     4  10  21  34  49  71 103 144 187 226 271 333
#     4  10  19  32  49  70 100 142 193 238 276 328
#     4  12  21  36  59  81 113 149 188 237 283 339
#     4  10  21  38  60  87 117 149 188 238 293 349
#     4  10  19  32  47  66  98 142 189 232 272 322
#     4  10  20  33  51  76 106 142 185 233 286 339
#
# _framework density 9.0534979999999994
#
# number of rings (size 3 to 8) (size 9 to 14) (size 15 to 20)
#    0.000    1.545    3.636    2.182    2.545    3.091 
#    0.000    1.818    0.000    1.091    0.000    0.000 
#    0.000    0.000    0.000    0.000    0.000    0.000 
#
# Total GULP energy -245005.146125 kJ/mol
# GULP energy per Si atom -5568.298776 kJ/mol
# Density = 0.903289 g / cm^3
# Si number density = 9.053498 Si / 1000 Ang^3
#
#
#
# Elastic Constant Matrix: (Units=GPa)
#
#
# Indices 1 2 3 4 5 6 
#
# 1 42.1823 16.5006 25.5969 0.0000 0.0000 0.0000
# 2 16.5006 92.5739 49.3088 0.0000 0.0000 0.0000
# 3 25.5969 49.3088 149.0381 0.0000 0.0000 0.0000
# 4 0.0000 0.0000 0.0000 25.6030 0.0000 0.0000
# 5 0.0000 0.0000 0.0000 0.0000 9.1698 0.0000
# 6 0.0000 0.0000 0.0000 0.0000 0.0000 0.9351
#
#
#
# Elastic Compliance Matrix: (Units=1/GPa)
#
#
# Indices 1 2 3 4 5 6 
#
# 1 0.027071 -0.002851 -0.003706 0.000000 0.000000 0.000000
# 2 -0.002851 0.013413 -0.003948 0.000000 0.000000 0.000000
# 3 -0.003706 -0.003948 0.008652 0.000000 0.000000 0.000000
# 4 0.000000 0.000000 0.000000 0.039058 0.000000 0.000000
# 5 0.000000 0.000000 0.000000 0.000000 0.109054 0.000000
# 6 0.000000 0.000000 0.000000 0.000000 0.000000 1.069455
#
#
# Mechanical properties :
#
#
# Convention : Reuss Voigt Hill
#
# Bulk Modulus (GPa) = 35.55434 51.84522 43.69978
# Shear Modulus (GPa) = 3.85479 19.96744 11.91111
#
# Velocity S-wave (km/s) = 1.46066 3.32437 2.56758
# Velocity P-wave (km/s) = 4.74584 6.59015 5.74252
#
# Compressibility (1/GPa) = 0.02812596
#
# Stress axis : x y z
#
# Youngs Moduli (GPa) = 36.94013 74.55298 115.57485
#
# Poissons Ratio (x) = 0.21256 0.42833
# Poissons Ratio (y) = 0.10532 0.45630
# Poissons Ratio (z) = 0.13690 0.29434
#
# Static dielectric constant tensor:
#      x y z
#    x 1.658970 0.000000 0.000000 
#    y 0.000000 1.699700 0.000000 
#    z 0.000000 0.000000 1.605380 
# 
# From -- ./inp_files/46794.got.cif
#   From: 2010.05.17/outbox.ucp.g08.bks.cvg/sg65_24_cif.got.tgz:46794.got - 2010.06.11 16:39:57.
