data_PCOD9494226
_publ_section_title
;
Structure prediction by ZEFSAII (Michael W. Deem and Ramdas Pophale) SiO2 
 PCOD9494226
Probable space group: C M M M
;
_chemical_formula_sum "Si O2"
_cell_formula_units_Z 88
_cell_length_a 19.478043
_cell_length_b 7.329965
_cell_length_c 30.424561
_cell_angle_alpha 90.000000
_cell_angle_beta 90.000000
_cell_angle_gamma 90.000000
_cell_volume 4343.817210
_symmetry_space_group_name_H-M "C M M M"
_symmetry_group_IT_number 65
_symmetry_cell_setting 'orthorhombic'
loop_
_space_group_symop_operation_xyz
x,y,z
-x,-y,z
x,-y,-z
-x,y,-z
-x,-y,-z
x,y,-z
-x,y,z
x,-y,z
1/2+x,1/2+y,z
1/2-x,1/2-y,z
1/2+x,1/2-y,-z
1/2-x,1/2+y,-z
1/2-x,1/2-y,-z
1/2+x,1/2+y,-z
1/2-x,1/2+y,z
1/2+x,1/2-y,z
loop_
_atom_site_type_symbol
_atom_site_label
_atom_site_fract_x
_atom_site_fract_y
_atom_site_fract_z
Si Si1 0.579807 0.723218 0.595810
Si Si2 0.580011 0.277194 0.856895
Si Si3 0.330712 0.717674 0.677440
Si Si4 0.581964 0.280059 0.952759
Si Si5 0.916732 0.785442 0.500000
Si Si6 0.330739 0.282240 0.224773
O O1 0.500000 0.774320 0.601043
O O2 0.581373 0.500000 0.594893
O O3 0.624668 0.786586 0.636816
O O4 0.605273 0.786516 0.547630
O O5 0.500000 0.225568 0.852507
O O6 0.581409 0.500000 0.857223
O O7 0.607063 0.217057 0.905004
O O8 0.624321 0.212976 0.815698
O O9 0.341170 0.500000 0.678680
O O10 0.250000 0.750000 0.670317
O O11 0.348309 0.788085 0.726327
O O12 0.500000 0.243178 0.952567
O O13 0.589184 0.500000 0.953166
O O14 0.609390 0.213283 0.000000
O O15 0.000000 0.771823 0.500000
O O16 0.899556 0.000000 0.500000
O O17 0.341020 0.500000 0.226030
O O18 0.250000 0.250000 0.217546
#
# Coordination Sequence:
#
# PCOD9494226 Si02
#       6
#    16  16  16  16   8  16
#     4   8  13  22  38  59  79  99 126 159 191 222
#     4   8  13  21  35  56  77  95 122 161 195 220
#     4   9  17  28  41  57  78 103 129 157 189 226
#     4   7   9  14  26  46  72  97 117 143 185 229
#     4   7  10  18  33  54  79 101 120 149 190 228
#     4   9  17  28  41  56  76 104 131 154 187 229
#
# _framework density 20.258679999999998
#
# number of rings (size 3 to 8) (size 9 to 14) (size 15 to 20)
#    0.000    3.909    0.000    2.727    0.000    0.727 
#    0.000    4.091    0.000    1.636    0.000    5.091 
#    0.000    2.182    0.000    4.545    0.000    3.636 
#
# Total GULP energy -244976.592863 kJ/mol
# GULP energy per Si atom -5567.649838 kJ/mol
# Density = 2.021257 g / cm^3
# Si number density = 20.258680 Si / 1000 Ang^3
#
#
#
# Elastic Constant Matrix: (Units=GPa)
#
#
# Indices 1 2 3 4 5 6 
#
# 1 48.7028 -0.8083 104.2993 0.0000 0.0000 0.0000
# 2 -0.8083 78.0620 13.5407 0.0000 0.0000 0.0000
# 3 104.2993 13.5407 295.2725 0.0000 0.0000 0.0000
# 4 0.0000 0.0000 0.0000 -11.8474 0.0000 0.0000
# 5 0.0000 0.0000 0.0000 0.0000 7.6190 0.0000
# 6 0.0000 0.0000 0.0000 0.0000 0.0000 2.0134
#
#
#
# Elastic Compliance Matrix: (Units=1/GPa)
#
#
# Indices 1 2 3 4 5 6 
#
# 1 0.087280 0.006302 -0.031119 0.000000 0.000000 0.000000
# 2 0.006302 0.013368 -0.002839 0.000000 0.000000 0.000000
# 3 -0.031119 -0.002839 0.014509 0.000000 0.000000 0.000000
# 4 0.000000 0.000000 0.000000 -0.084406 0.000000 0.000000
# 5 0.000000 0.000000 0.000000 0.000000 0.131250 0.000000
# 6 0.000000 0.000000 0.000000 0.000000 0.000000 0.496671
#
#
# Mechanical properties :
#
#
# Convention : Reuss Voigt Hill
#
# Bulk Modulus (GPa) = 16.70996 72.90010 44.80503
# Shear Modulus (GPa) = 6.81261 19.89070 13.35166
#
# Velocity S-wave (km/s) = 1.83579 3.13683 2.57000
# Velocity P-wave (km/s) = 3.57207 7.01301 5.56516
#
# Compressibility (1/GPa) = 0.05984454
#
# Stress axis : x y z
#
# Youngs Moduli (GPa) = 11.45738 74.80530 68.92241
#
# Poissons Ratio (x) = -0.47140 2.14479
# Poissons Ratio (y) = -0.07220 0.19567
# Poissons Ratio (z) = 0.35654 0.21237
#
# Static dielectric constant tensor:
#      x y z
#    x 1.645970 0.000000 0.000000 
#    y 0.000000 1.794110 0.000000 
#    z 0.000000 0.000000 1.780790 
# 
# From -- ./inp_files/77479.got.cif
#   From: 2010.05.17/outbox.cif.g08.bks.cpg/sg65_39_cif.got.tgz:77479.got - 2010.06.03 17:01:31.
