data_PCOD9494931
_publ_section_title
;
Structure prediction by ZEFSAII (Michael W. Deem and Ramdas Pophale) SiO2 
 PCOD9494931
Probable space group: C C C M
;
_chemical_formula_sum "Si O2"
_cell_formula_units_Z 80
_cell_length_a 17.346720
_cell_length_b 16.430268
_cell_length_c 13.974261
_cell_angle_alpha 90.000000
_cell_angle_beta 90.000000
_cell_angle_gamma 90.000000
_cell_volume 3982.821715
_symmetry_space_group_name_H-M "C C C M"
_symmetry_group_IT_number 66
_symmetry_cell_setting 'orthorhombic'
loop_
_space_group_symop_operation_xyz
x,y,z
-x,-y,z
x,-y,1/2-z
-x,y,1/2-z
-x,-y,-z
x,y,-z
-x,y,1/2+z
x,-y,1/2+z
1/2+x,1/2+y,z
1/2-x,1/2-y,z
1/2+x,1/2-y,1/2-z
1/2-x,1/2+y,1/2-z
1/2-x,1/2-y,-z
1/2+x,1/2+y,-z
1/2-x,1/2+y,1/2+z
1/2+x,1/2-y,1/2+z
loop_
_atom_site_type_symbol
_atom_site_label
_atom_site_fract_x
_atom_site_fract_y
_atom_site_fract_z
Si Si1 0.490720 0.247741 0.885085
Si Si2 0.173780 0.695699 0.392336
Si Si3 0.852021 0.807740 0.615958
Si Si4 0.056426 0.571321 0.885312
Si Si5 0.703485 0.870023 0.694173
O O1 0.400370 0.249993 0.862156
O O2 0.557728 0.309923 0.853935
O O3 0.518781 0.157485 0.856231
O O4 0.494136 0.251665 0.000000
O O5 0.158540 0.662783 0.500000
O O6 0.250000 0.750000 0.396468
O O7 0.189794 0.633503 0.307380
O O8 0.845387 0.812696 0.500000
O O9 0.792835 0.871113 0.663801
O O10 0.824536 0.717337 0.649083
O O11 0.143440 0.566456 0.848512
O O12 0.000000 0.500000 0.855070
O O13 0.059631 0.571554 0.000000
#
# Coordination Sequence:
#
# PCOD9494931 Si02
#       5
#    16  16  16  16  16
#     4   8  16  29  44  62  89 123 158 198 242 292
#     4  10  19  31  43  59  86 122 164 205 246 293
#     4   9  15  25  42  64  87 113 148 195 248 296
#     4   9  17  29  46  68  95 124 152 187 234 292
#     4  10  16  27  41  65  86 119 155 191 240 287
#
# _framework density 20.086262999999999
#
# number of rings (size 3 to 8) (size 9 to 14) (size 15 to 20)
#    0.000    2.800    2.000    3.600    0.000    3.200 
#    0.000    2.000    0.000    1.800    0.000    0.000 
#    0.000    1.600    0.000   22.200    0.000   14.400 
#
# Total GULP energy -222881.982284 kJ/mol
# GULP energy per Si atom -5572.049557 kJ/mol
# Density = 2.004055 g / cm^3
# Si number density = 20.086263 Si / 1000 Ang^3
#
#
#
# Elastic Constant Matrix: (Units=GPa)
#
#
# Indices 1 2 3 4 5 6 
#
# 1 210.0893 37.8106 37.5087 0.0000 0.0000 0.0000
# 2 37.8106 27.3284 10.7055 0.0000 0.0000 0.0000
# 3 37.5087 10.7055 137.5281 0.0000 0.0000 0.0000
# 4 0.0000 0.0000 0.0000 5.3388 0.0000 0.0000
# 5 0.0000 0.0000 0.0000 0.0000 -22.5560 0.0000
# 6 0.0000 0.0000 0.0000 0.0000 0.0000 28.6423
#
#
#
# Elastic Compliance Matrix: (Units=1/GPa)
#
#
# Indices 1 2 3 4 5 6 
#
# 1 0.006497 -0.008556 -0.001106 0.000000 0.000000 0.000000
# 2 -0.008556 0.049010 -0.001482 0.000000 0.000000 0.000000
# 3 -0.001106 -0.001482 0.007688 0.000000 0.000000 0.000000
# 4 0.000000 0.000000 0.000000 0.187309 0.000000 0.000000
# 5 0.000000 0.000000 0.000000 0.000000 -0.044334 0.000000
# 6 0.000000 0.000000 0.000000 0.000000 0.000000 0.034913
#
#
# Mechanical properties :
#
#
# Convention : Reuss Voigt Hill
#
# Bulk Modulus (GPa) = 24.44483 60.77726 42.61105
# Shear Modulus (GPa) = 18.05006 21.54642 19.79824
#
# Velocity S-wave (km/s) = 3.00096 3.27875 3.14293
# Velocity P-wave (km/s) = 4.91976 6.68262 5.86777
#
# Compressibility (1/GPa) = 0.04090844
#
# Stress axis : x y z
#
# Youngs Moduli (GPa) = 153.91238 20.40392 130.06930
#
# Poissons Ratio (x) = 0.17458 0.14386
# Poissons Ratio (y) = 1.31688 0.19270
# Poissons Ratio (z) = 0.17023 0.03023
#
# Static dielectric constant tensor:
#      x y z
#    x 1.790520 0.000000 0.000000 
#    y 0.000000 -0.128960 0.000000 
#    z 0.000000 0.000000 1.778950 
# 
# From -- ./inp_files/29954.got.cif
#   From: 2010.05.17/outbox.cif.g08.bks.cpg/sg66_15_cif.got.tgz:29954.got - 2010.06.03 17:51:23.
