data_PCOD9494496
_publ_section_title
;
Structure prediction by ZEFSAII (Michael W. Deem and Ramdas Pophale) SiO2 
 PCOD9494496
Probable space group: C M M M
;
_chemical_formula_sum "Si O2"
_cell_formula_units_Z 88
_cell_length_a 31.385038
_cell_length_b 28.104257
_cell_length_c 7.939741
_cell_angle_alpha 90.000000
_cell_angle_beta 90.000000
_cell_angle_gamma 90.000000
_cell_volume 7003.273749
_symmetry_space_group_name_H-M "C M M M"
_symmetry_group_IT_number 65
_symmetry_cell_setting 'orthorhombic'
loop_
_space_group_symop_operation_xyz
x,y,z
-x,-y,z
x,-y,-z
-x,y,-z
-x,-y,-z
x,y,-z
-x,y,z
x,-y,z
1/2+x,1/2+y,z
1/2-x,1/2-y,z
1/2+x,1/2-y,-z
1/2-x,1/2+y,-z
1/2-x,1/2-y,-z
1/2+x,1/2+y,-z
1/2-x,1/2+y,z
1/2+x,1/2-y,z
loop_
_atom_site_type_symbol
_atom_site_label
_atom_site_fract_x
_atom_site_fract_y
_atom_site_fract_z
Si Si1 0.951296 0.695191 0.204033
Si Si2 0.594467 0.097096 0.204106
Si Si3 0.131420 0.746175 0.312545
Si Si4 0.820619 0.643597 0.312358
Si Si5 0.730562 0.826871 0.000000
Si Si6 0.950871 0.500000 0.205980
Si Si7 0.817638 0.776107 0.000000
O O1 0.934703 0.642435 0.252176
O O2 0.917472 0.732781 0.274776
O O3 0.000000 0.702259 0.256741
O O4 0.949376 0.697510 0.000000
O O5 0.641614 0.106546 0.273639
O O6 0.573272 0.047880 0.258905
O O7 0.597149 0.097310 0.000000
O O8 0.136324 0.766099 0.500000
O O9 0.155730 0.695075 0.308691
O O10 0.152979 0.776558 0.165520
O O11 0.803327 0.636541 0.500000
O O12 0.785887 0.645964 0.165606
O O13 0.780344 0.814852 0.000000
O O14 0.706295 0.775482 0.000000
O O15 0.000000 0.500000 0.260723
O O16 0.951205 0.500000 0.000000
#
# Coordination Sequence:
#
# PCOD9494496 Si02
#       7
#    16  16  16  16   8   8   8
#     4   9  15  23  36  50  65  90 120 146 172 204
#     4   9  15  25  38  51  70  90 112 146 182 214
#     4   9  16  25  36  50  69  89 107 131 164 199
#     4   9  16  26  39  53  67  85 108 132 163 204
#     4   9  16  26  40  53  67  84 102 127 157 201
#     4   9  16  24  37  57  73  90 119 149 182 223
#     4   9  16  26  37  52  70  84 101 126 160 200
#
# _framework density 12.565552
#
# number of rings (size 3 to 8) (size 9 to 14) (size 15 to 20)
#    0.000    3.000    1.818    0.545    0.000    3.273 
#    0.000    4.091    0.000    2.182    0.000    0.000 
#    0.000    0.000    0.000    0.000    0.000    0.000 
#
# Total GULP energy -245021.400116 kJ/mol
# GULP energy per Si atom -5568.668184 kJ/mol
# Density = 1.253695 g / cm^3
# Si number density = 12.565552 Si / 1000 Ang^3
#
#
#
# Elastic Constant Matrix: (Units=GPa)
#
#
# Indices 1 2 3 4 5 6 
#
# 1 93.2075 36.1168 56.5003 0.0000 0.0000 0.0000
# 2 36.1168 25.0262 24.6156 0.0000 0.0000 0.0000
# 3 56.5003 24.6156 83.9355 0.0000 0.0000 0.0000
# 4 0.0000 0.0000 0.0000 2.9680 0.0000 0.0000
# 5 0.0000 0.0000 0.0000 0.0000 0.4754 0.0000
# 6 0.0000 0.0000 0.0000 0.0000 0.0000 19.4459
#
#
#
# Elastic Compliance Matrix: (Units=1/GPa)
#
#
# Indices 1 2 3 4 5 6 
#
# 1 0.029658 -0.032556 -0.010416 0.000000 0.000000 0.000000
# 2 -0.032556 0.091894 -0.005035 0.000000 0.000000 0.000000
# 3 -0.010416 -0.005035 0.020402 0.000000 0.000000 0.000000
# 4 0.000000 0.000000 0.000000 0.336932 0.000000 0.000000
# 5 0.000000 0.000000 0.000000 0.000000 2.103547 0.000000
# 6 0.000000 0.000000 0.000000 0.000000 0.000000 0.051425
#
#
# Mechanical properties :
#
#
# Convention : Reuss Voigt Hill
#
# Bulk Modulus (GPa) = 21.76766 48.51496 35.14131
# Shear Modulus (GPa) = 1.82137 10.24028 6.03083
#
# Velocity S-wave (km/s) = 1.20526 2.85783 2.19315
# Velocity P-wave (km/s) = 4.39292 7.04151 5.86859
#
# Compressibility (1/GPa) = 0.04593972
#
# Stress axis : x y z
#
# Youngs Moduli (GPa) = 33.71797 10.88214 49.01449
#
# Poissons Ratio (x) = 0.35427 0.51055
# Poissons Ratio (y) = 1.09771 0.24679
# Poissons Ratio (z) = 0.35122 0.05479
#
# Static dielectric constant tensor:
#      x y z
#    x 1.400190 0.000000 0.000000 
#    y 0.000000 1.372590 0.000000 
#    z 0.000000 0.000000 1.450940 
# 
# From -- ./inp_files/19018.got.cif
#   From: 2010.05.17/outbox.cif.g08.bks.cpg/sg65_10_cif.got.tgz:19018.got - 2010.06.03 17:01:31.
