data_PCOD9494589
_publ_section_title
;
Structure prediction by ZEFSAII (Michael W. Deem and Ramdas Pophale) SiO2 
 PCOD9494589
Probable space group: C M M M
;
_chemical_formula_sum "Si O2"
_cell_formula_units_Z 44
_cell_length_a 18.000000
_cell_length_b 9.000000
_cell_length_c 30.000000
_cell_angle_alpha 90.000000
_cell_angle_beta 90.000000
_cell_angle_gamma 90.000000
_cell_volume 4860.000000
_symmetry_space_group_name_H-M "C M M M"
_symmetry_group_IT_number 65
_symmetry_cell_setting 'orthorhombic'
loop_
_space_group_symop_operation_xyz
x,y,z
-x,-y,z
x,-y,-z
-x,y,-z
-x,-y,-z
x,y,-z
-x,y,z
x,-y,z
1/2+x,1/2+y,z
1/2-x,1/2-y,z
1/2+x,1/2-y,-z
1/2-x,1/2+y,-z
1/2-x,1/2-y,-z
1/2+x,1/2+y,-z
1/2-x,1/2+y,z
1/2+x,1/2-y,z
loop_
_atom_site_type_symbol
_atom_site_label
_atom_site_fract_x
_atom_site_fract_y
_atom_site_fract_z
Si Si1 0.589468 0.325937 0.172056
Si Si2 0.910880 0.173785 0.272469
Si Si3 0.168146 0.677937 0.909945
Si Si4 0.168516 0.322390 0.354806
Si Si5 0.166629 0.179724 0.000000
Si Si6 0.332247 0.820928 0.451996
O O1 0.500000 0.319045 0.170594
O O2 0.610254 0.500000 0.164982
O O3 0.613128 0.282337 0.222323
O O4 0.623391 0.224160 0.133897
O O5 0.876810 0.265485 0.312645
O O6 0.000000 0.185287 0.273665
O O7 0.891397 0.000000 0.278110
O O8 0.173079 0.500000 0.915553
O O9 0.250000 0.750000 0.905007
O O10 0.133551 0.754865 0.954245
O O11 0.174962 0.500000 0.353071
O O12 0.250000 0.250000 0.352783
O O13 0.134528 0.280767 0.403633
O O14 0.250000 0.250000 0.000000
O O15 0.168671 0.000000 0.000000
O O16 0.367498 0.778506 0.500000
O O17 0.250000 0.750000 0.452058
O O18 0.325603 0.000000 0.452059
#
# Coordination Sequence:
#
# PCOD9494589 Si02
#       6
#    16  16  16  16   8  16
#     4   9  19  37  57  75  98 130 167 206 252 302
#     4   9  19  36  55  72  95 130 167 204 249 300
#     4  11  21  34  54  80 108 136 169 207 247 291
#     4  10  19  30  48  74 101 128 161 204 248 292
#     4  10  18  32  53  76 105 138 171 205 245 293
#     4   8  14  25  41  63  92 124 157 194 239 289
#
# _framework density 9.0534979999999994
#
# number of rings (size 3 to 8) (size 9 to 14) (size 15 to 20)
#    0.000    2.545    0.000    5.182    0.000    2.909 
#    0.000    2.273    0.000    3.273    0.000    3.818 
#    0.000    0.000    0.000    0.000    0.000    0.000 
#
# Total GULP energy -245086.693678 kJ/mol
# GULP energy per Si atom -5570.152129 kJ/mol
# Density = 0.903289 g / cm^3
# Si number density = 9.053498 Si / 1000 Ang^3
#
#
#
# Elastic Constant Matrix: (Units=GPa)
#
#
# Indices 1 2 3 4 5 6 
#
# 1 12.5928 20.0614 34.2409 0.0000 0.0000 0.0000
# 2 20.0614 101.3858 80.1630 0.0000 0.0000 0.0000
# 3 34.2409 80.1630 198.2761 0.0000 0.0000 0.0000
# 4 0.0000 0.0000 0.0000 31.2583 0.0000 0.0000
# 5 0.0000 0.0000 0.0000 0.0000 358.3892 0.0000
# 6 0.0000 0.0000 0.0000 0.0000 0.0000 22.5452
#
#
#
# Elastic Compliance Matrix: (Units=1/GPa)
#
#
# Indices 1 2 3 4 5 6 
#
# 1 0.163422 -0.014732 -0.022266 0.000000 0.000000 0.000000
# 2 -0.014732 0.015826 -0.003854 0.000000 0.000000 0.000000
# 3 -0.022266 -0.003854 0.010447 0.000000 0.000000 0.000000
# 4 0.000000 0.000000 0.000000 0.031991 0.000000 0.000000
# 5 0.000000 0.000000 0.000000 0.000000 0.002790 0.000000
# 6 0.000000 0.000000 0.000000 0.000000 0.000000 0.044355
#
#
# Mechanical properties :
#
#
# Convention : Reuss Voigt Hill
#
# Bulk Modulus (GPa) = 9.26002 64.57613 36.91807
# Shear Modulus (GPa) = 12.93553 94.29118 53.61336
#
# Velocity S-wave (km/s) = 2.67571 7.22409 5.44734
# Velocity P-wave (km/s) = 3.83029 10.26277 7.74582
#
# Compressibility (1/GPa) = 0.10799111
#
# Stress axis : x y z
#
# Youngs Moduli (GPa) = 6.11913 63.18802 95.72200
#
# Poissons Ratio (x) = 0.93086 2.13133
# Poissons Ratio (y) = 0.09014 0.36894
# Poissons Ratio (z) = 0.13625 0.24355
#
# Static dielectric constant tensor:
#      x y z
#    x 1.602510 0.000000 0.000000 
#    y 0.000000 1.609750 0.000000 
#    z 0.000000 0.000000 1.691710 
# 
# From -- ./inp_files/67529.got.cif
#   From: 2010.05.17/outbox.ucp.g08.bks.cvg/sg65_34_cif.got.tgz:67529.got - 2010.06.11 16:39:57.
