data_PCOD9494399
_publ_section_title
;
Structure prediction by ZEFSAII (Michael W. Deem and Ramdas Pophale) SiO2 
 PCOD9494399
Probable space group: C M M M
;
_chemical_formula_sum "Si O2"
_cell_formula_units_Z 72
_cell_length_a 7.879556
_cell_length_b 14.708973
_cell_length_c 27.515433
_cell_angle_alpha 90.000000
_cell_angle_beta 90.000000
_cell_angle_gamma 90.000000
_cell_volume 3189.043540
_symmetry_space_group_name_H-M "C M M M"
_symmetry_group_IT_number 65
_symmetry_cell_setting 'orthorhombic'
loop_
_space_group_symop_operation_xyz
x,y,z
-x,-y,z
x,-y,-z
-x,y,-z
-x,-y,-z
x,y,-z
-x,y,z
x,-y,z
1/2+x,1/2+y,z
1/2-x,1/2-y,z
1/2+x,1/2-y,-z
1/2-x,1/2+y,-z
1/2-x,1/2-y,-z
1/2+x,1/2+y,-z
1/2-x,1/2+y,z
1/2+x,1/2-y,z
loop_
_atom_site_type_symbol
_atom_site_label
_atom_site_fract_x
_atom_site_fract_y
_atom_site_fract_z
Si Si1 0.201272 0.856961 0.656909
Si Si2 0.798445 0.357040 0.552019
Si Si3 0.204462 0.144550 0.866901
Si Si4 0.208055 0.000000 0.055467
Si Si5 0.295113 0.357267 0.761099
O O1 0.250000 0.750000 0.655747
O O2 0.248872 0.895813 0.604393
O O3 0.268808 0.893024 0.708831
O O4 0.000000 0.863252 0.659376
O O5 0.730432 0.392631 0.500000
O O6 0.750000 0.250000 0.552882
O O7 0.000000 0.364025 0.550291
O O8 0.250000 0.250000 0.871697
O O9 0.266511 0.110010 0.813829
O O10 0.000000 0.137214 0.865782
O O11 0.263806 0.086243 0.912554
O O12 0.000000 0.000000 0.054147
O O13 0.266827 0.000000 0.000000
O O14 0.500000 0.367915 0.761139
O O15 0.250000 0.250000 0.761005
#
# Coordination Sequence:
#
# PCOD9494399 Si02
#       5
#    16  16  16   8  16
#     4   9  14  19  28  42  61  87 123 166 210 257
#     4   9  15  20  25  35  55  86 124 164 206 253
#     4   9  17  31  50  71  97 128 162 200 241 285
#     4   9  18  32  51  75 101 131 166 199 234 282
#     4   8  14  23  36  55  77 103 137 178 223 269
#
# _framework density 22.577300999999999
#
# number of rings (size 3 to 8) (size 9 to 14) (size 15 to 20)
#    0.000    3.222    0.000    2.667    0.000    2.667 
#    0.000    0.556    0.000    0.667    0.000    0.000 
#    0.000    0.000    0.000    1.000    0.000   26.889 
#
# Total GULP energy -200525.805805 kJ/mol
# GULP energy per Si atom -5570.161272 kJ/mol
# Density = 2.252591 g / cm^3
# Si number density = 22.577301 Si / 1000 Ang^3
#
#
#
# Elastic Constant Matrix: (Units=GPa)
#
#
# Indices 1 2 3 4 5 6 
#
# 1 29.3754 -5.0415 23.2847 0.0000 0.0000 0.0000
# 2 -5.0415 91.3370 69.4014 0.0000 0.0000 0.0000
# 3 23.2847 69.4014 337.3179 0.0000 0.0000 0.0000
# 4 0.0000 0.0000 0.0000 220.3747 0.0000 0.0000
# 5 0.0000 0.0000 0.0000 0.0000 14.0999 0.0000
# 6 0.0000 0.0000 0.0000 0.0000 0.0000 -8.4180
#
#
#
# Elastic Compliance Matrix: (Units=1/GPa)
#
#
# Indices 1 2 3 4 5 6 
#
# 1 0.037717 0.004812 -0.003594 0.000000 0.000000 0.000000
# 2 0.004812 0.013591 -0.003129 0.000000 0.000000 0.000000
# 3 -0.003594 -0.003129 0.003856 0.000000 0.000000 0.000000
# 4 0.000000 0.000000 0.000000 0.004538 0.000000 0.000000
# 5 0.000000 0.000000 0.000000 0.000000 0.070922 0.000000
# 6 0.000000 0.000000 0.000000 0.000000 0.000000 -0.118792
#
#
# Mechanical properties :
#
#
# Convention : Reuss Voigt Hill
#
# Bulk Modulus (GPa) = 19.47624 70.36884 44.92254
# Shear Modulus (GPa) = 152.59596 69.90370 111.24983
#
# Velocity S-wave (km/s) = 8.23012 5.57038 7.02724
# Velocity P-wave (km/s) = 9.94779 8.52102 9.26192
#
# Compressibility (1/GPa) = 0.05134462
#
# Stress axis : x y z
#
# Youngs Moduli (GPa) = 26.51355 73.57664 259.31534
#
# Poissons Ratio (x) = -0.35408 0.93189
# Poissons Ratio (y) = -0.12759 0.81128
# Poissons Ratio (z) = 0.09528 0.23019
#
# Static dielectric constant tensor:
#      x y z
#    x 1.801070 0.000000 0.000000 
#    y 0.000000 1.942790 0.000000 
#    z 0.000000 0.000000 1.930830 
# 
# From -- ./inp_files/72517.got.cif
#   From: 2010.05.17/outbox.cif.g08.bks.cpg/sg65_37_cif.got.tgz:72517.got - 2010.06.03 17:01:31.
