data_PCOD9494895
_publ_section_title
;
Structure prediction by ZEFSAII (Michael W. Deem and Ramdas Pophale) SiO2 
 PCOD9494895
Probable space group: C C C M
;
_chemical_formula_sum "Si O2"
_cell_formula_units_Z 84
_cell_length_a 24.589905
_cell_length_b 10.936937
_cell_length_c 15.088603
_cell_angle_alpha 90.000000
_cell_angle_beta 90.000000
_cell_angle_gamma 90.000000
_cell_volume 4057.902362
_symmetry_space_group_name_H-M "C C C M"
_symmetry_group_IT_number 66
_symmetry_cell_setting 'orthorhombic'
loop_
_space_group_symop_operation_xyz
x,y,z
-x,-y,z
x,-y,1/2-z
-x,y,1/2-z
-x,-y,-z
x,y,-z
-x,y,1/2+z
x,-y,1/2+z
1/2+x,1/2+y,z
1/2-x,1/2-y,z
1/2+x,1/2-y,1/2-z
1/2-x,1/2+y,1/2-z
1/2-x,1/2-y,-z
1/2+x,1/2+y,-z
1/2-x,1/2+y,1/2+z
1/2+x,1/2-y,1/2+z
loop_
_atom_site_type_symbol
_atom_site_label
_atom_site_fract_x
_atom_site_fract_y
_atom_site_fract_z
Si Si1 0.380811 0.230345 0.342701
Si Si2 0.997446 0.359791 0.858981
Si Si3 0.915490 0.179260 0.652893
Si Si4 0.000000 0.000000 0.250000
Si Si5 0.223589 0.377895 0.394875
Si Si6 0.667722 0.511052 0.643701
O O1 0.439289 0.197711 0.381733
O O2 0.388734 0.255876 0.238513
O O3 0.336737 0.123563 0.355931
O O4 0.358025 0.357839 0.382742
O O5 0.000000 0.500000 0.885643
O O6 0.000000 0.355646 0.750000
O O7 0.048005 0.281146 0.893683
O O8 0.960344 0.083322 0.691047
O O9 0.868471 0.099823 0.607114
O O10 0.217771 0.368348 0.500000
O O11 0.250000 0.250000 0.360677
O O12 0.268221 0.481549 0.376188
O O13 0.662160 0.500000 0.750000
#
# Coordination Sequence:
#
# PCOD9494895 Si02
#       6
#    16  16  16   4  16  16
#     4   9  15  27  45  66  95 123 157 195 238 299
#     4   9  16  26  41  68  99 121 149 194 250 296
#     4  10  15  25  46  72  96 126 154 204 261 296
#     4  12  12  24  46  72  98 132 144 194 272 300
#     4   9  18  31  47  67  98 135 162 195 247 300
#     4   9  16  28  46  72  96 120 161 206 245 288
#
# _framework density 20.700351000000001
#
# number of rings (size 3 to 8) (size 9 to 14) (size 15 to 20)
#    0.000    2.667    5.714    0.000    0.000    0.000 
#    6.857    0.000    0.000    1.714    0.000    8.000 
#    0.000    0.000    0.000    0.000    0.000    0.000 
#
# Total GULP energy -234071.986079 kJ/mol
# GULP energy per Si atom -5573.142526 kJ/mol
# Density = 2.065324 g / cm^3
# Si number density = 20.700351 Si / 1000 Ang^3
#
#
#
# Elastic Constant Matrix: (Units=GPa)
#
#
# Indices 1 2 3 4 5 6 
#
# 1 169.7229 69.6813 18.8045 0.0000 0.0000 0.0000
# 2 69.6813 102.2899 7.7173 0.0000 0.0000 0.0000
# 3 18.8045 7.7173 41.2556 0.0000 0.0000 0.0000
# 4 0.0000 0.0000 0.0000 -1.3185 0.0000 0.0000
# 5 0.0000 0.0000 0.0000 0.0000 -4.6308 0.0000
# 6 0.0000 0.0000 0.0000 0.0000 0.0000 39.0500
#
#
#
# Elastic Compliance Matrix: (Units=1/GPa)
#
#
# Indices 1 2 3 4 5 6 
#
# 1 0.008493 -0.005572 -0.002829 0.000000 0.000000 0.000000
# 2 -0.005572 0.013572 0.000001 0.000000 0.000000 0.000000
# 3 -0.002829 0.000001 0.025528 0.000000 0.000000 0.000000
# 4 0.000000 0.000000 0.000000 -0.758461 0.000000 0.000000
# 5 0.000000 0.000000 0.000000 0.000000 -0.215947 0.000000
# 6 0.000000 0.000000 0.000000 0.000000 0.000000 0.025608
#
#
# Mechanical properties :
#
#
# Convention : Reuss Voigt Hill
#
# Bulk Modulus (GPa) = 32.47451 56.18606 44.33028
# Shear Modulus (GPa) = -5.71990 21.09119 7.68565
#
# Velocity S-wave (km/s) = -1.66409 3.19545 1.92896
# Velocity P-wave (km/s) = 3.46839 6.38874 5.14032
#
# Compressibility (1/GPa) = 0.03079338
#
# Stress axis : x y z
#
# Youngs Moduli (GPa) = 117.74277 73.68162 39.17218
#
# Poissons Ratio (x) = 0.41057 0.11081
# Poissons Ratio (y) = 0.65608 -0.00004
# Poissons Ratio (z) = 0.33308 -0.00008
#
# Static dielectric constant tensor:
#      x y z
#    x 1.775470 0.000000 0.000000 
#    y 0.000000 1.767940 0.000000 
#    z 0.000000 0.000000 1.737940 
# 
# From -- ./inp_files/51791.got.cif
#   From: 2010.05.17/outbox.cif.g08.bks.cpg/sg66_26_cif.got.tgz:51791.got - 2010.06.03 17:51:23.
