data_PCOD9494446
_publ_section_title
;
Structure prediction by ZEFSAII (Michael W. Deem and Ramdas Pophale) SiO2 
 PCOD9494446
Probable space group: C M M M
;
_chemical_formula_sum "Si O2"
_cell_formula_units_Z 88
_cell_length_a 31.768949
_cell_length_b 8.429185
_cell_length_c 17.772434
_cell_angle_alpha 90.000000
_cell_angle_beta 90.000000
_cell_angle_gamma 90.000000
_cell_volume 4759.215203
_symmetry_space_group_name_H-M "C M M M"
_symmetry_group_IT_number 65
_symmetry_cell_setting 'orthorhombic'
loop_
_space_group_symop_operation_xyz
x,y,z
-x,-y,z
x,-y,-z
-x,y,-z
-x,-y,-z
x,y,-z
-x,y,z
x,-y,z
1/2+x,1/2+y,z
1/2-x,1/2-y,z
1/2+x,1/2-y,-z
1/2-x,1/2+y,-z
1/2-x,1/2-y,-z
1/2+x,1/2+y,-z
1/2-x,1/2+y,z
1/2+x,1/2-y,z
loop_
_atom_site_type_symbol
_atom_site_label
_atom_site_fract_x
_atom_site_fract_y
_atom_site_fract_z
Si Si1 0.951869 0.193610 0.085288
Si Si2 0.616869 0.691082 0.796201
Si Si3 0.294515 0.811225 0.617549
Si Si4 0.451525 0.693829 0.500000
Si Si5 0.206014 0.688730 0.794976
Si Si6 0.615506 0.308640 0.376980
O O1 0.919451 0.249311 0.148238
O O2 0.000000 0.241912 0.100402
O O3 0.951315 0.000000 0.086226
O O4 0.940749 0.241966 0.000000
O O5 0.615231 0.500000 0.793945
O O6 0.662780 0.740957 0.825663
O O7 0.611735 0.747658 0.709726
O O8 0.250000 0.750000 0.586157
O O9 0.294202 0.764448 0.706295
O O10 0.339314 0.745560 0.590437
O O11 0.294918 0.000000 0.611092
O O12 0.452543 0.500000 0.500000
O O13 0.500000 0.747825 0.500000
O O14 0.423788 0.742981 0.427809
O O15 0.204990 0.500000 0.798952
O O16 0.250000 0.750000 0.827671
O O17 0.615903 0.500000 0.376392
#
# Coordination Sequence:
#
# PCOD9494446 Si02
#       6
#    16  16  16   8  16  16
#     4   8  14  25  42  66  94 119 144 180 226 269
#     4   9  16  26  44  69  92 116 149 186 220 259
#     4   9  16  27  45  68  93 119 147 181 223 268
#     4   9  18  32  48  65  88 119 152 189 230 263
#     4   9  16  26  42  65  93 122 150 182 220 262
#     4   9  17  29  45  66  91 118 151 187 221 261
#
# _framework density 18.490444
#
# number of rings (size 3 to 8) (size 9 to 14) (size 15 to 20)
#    0.000    3.182    0.000    1.636    0.000    5.091 
#    0.000    4.545    0.000    2.727    0.000    6.364 
#    0.000    0.000    0.000    0.000    0.000    0.000 
#
# Total GULP energy -245081.035883 kJ/mol
# GULP energy per Si atom -5570.023543 kJ/mol
# Density = 1.844836 g / cm^3
# Si number density = 18.490444 Si / 1000 Ang^3
#
#
#
# Elastic Constant Matrix: (Units=GPa)
#
#
# Indices 1 2 3 4 5 6 
#
# 1 201.9200 17.8179 88.1204 0.0000 0.0000 0.0000
# 2 17.8179 -25.3952 5.8717 0.0000 0.0000 0.0000
# 3 88.1204 5.8717 83.8976 0.0000 0.0000 0.0000
# 4 0.0000 0.0000 0.0000 2.4276 0.0000 0.0000
# 5 0.0000 0.0000 0.0000 0.0000 -242.3338 0.0000
# 6 0.0000 0.0000 0.0000 0.0000 0.0000 22.5831
#
#
#
# Elastic Compliance Matrix: (Units=1/GPa)
#
#
# Indices 1 2 3 4 5 6 
#
# 1 0.008724 0.003939 -0.009439 0.000000 0.000000 0.000000
# 2 0.003939 -0.036972 -0.001549 0.000000 0.000000 0.000000
# 3 -0.009439 -0.001549 0.021942 0.000000 0.000000 0.000000
# 4 0.000000 0.000000 0.000000 0.411922 0.000000 0.000000
# 5 0.000000 0.000000 0.000000 0.000000 -0.004127 0.000000
# 6 0.000000 0.000000 0.000000 0.000000 0.000000 0.044281
#
#
# Mechanical properties :
#
#
# Convention : Reuss Voigt Hill
#
# Bulk Modulus (GPa) = -49.00633 53.78248 2.38808
# Shear Modulus (GPa) = 11.03587 -33.55713 -11.26063
#
# Velocity S-wave (km/s) = 2.44569 -4.26471 -2.47046
# Velocity P-wave (km/s) = 4.31114 2.21347 2.61596
#
# Compressibility (1/GPa) = -0.02040553
#
# Stress axis : x y z
#
# Youngs Moduli (GPa) = 114.62402 -27.04732 45.57516
#
# Poissons Ratio (x) = 0.10653 0.43018
# Poissons Ratio (y) = -0.45147 0.07061
# Poissons Ratio (z) = 1.08193 -0.04191
#
# Static dielectric constant tensor:
#      x y z
#    x 1.648490 0.000000 0.000000 
#    y 0.000000 1.628300 0.000000 
#    z 0.000000 0.000000 1.658880 
# 
# From -- ./inp_files/58020.got.cif
#   From: 2010.05.17/outbox.cif.g08.bks.cpg/sg65_30_cif.got.tgz:58020.got - 2010.06.03 17:01:31.
