data_PCOD9494003
_publ_section_title
;
Structure prediction by ZEFSAII (Michael W. Deem and Ramdas Pophale) SiO2 
 PCOD9494003
Probable space group: C M M M
;
_chemical_formula_sum "Si O2"
_cell_formula_units_Z 80
_cell_length_a 17.470783
_cell_length_b 10.477875
_cell_length_c 24.687634
_cell_angle_alpha 90.000000
_cell_angle_beta 90.000000
_cell_angle_gamma 90.000000
_cell_volume 4519.236328
_symmetry_space_group_name_H-M "C M M M"
_symmetry_group_IT_number 65
_symmetry_cell_setting 'orthorhombic'
loop_
_space_group_symop_operation_xyz
x,y,z
-x,-y,z
x,-y,-z
-x,y,-z
-x,-y,-z
x,y,-z
-x,y,z
x,-y,z
1/2+x,1/2+y,z
1/2-x,1/2-y,z
1/2+x,1/2-y,-z
1/2-x,1/2+y,-z
1/2-x,1/2-y,-z
1/2+x,1/2+y,-z
1/2-x,1/2+y,z
1/2+x,1/2-y,z
loop_
_atom_site_type_symbol
_atom_site_label
_atom_site_fract_x
_atom_site_fract_y
_atom_site_fract_z
Si Si1 0.908055 0.000000 0.436306
Si Si2 0.410236 0.000000 0.435291
Si Si3 0.906646 0.645847 0.148376
Si Si4 0.908322 0.349220 0.727738
Si Si5 0.340949 0.750395 0.379606
Si Si6 0.906677 0.145525 0.937914
O O1 0.875197 0.875117 0.407225
O O2 0.887293 0.000000 0.500000
O O3 0.000000 0.000000 0.432563
O O4 0.372902 0.126011 0.410685
O O5 0.500000 0.000000 0.421093
O O6 0.402771 0.000000 0.500000
O O7 0.882630 0.500000 0.136477
O O8 0.885309 0.678338 0.210261
O O9 0.879825 0.749159 0.104800
O O10 0.000000 0.645488 0.147383
O O11 0.892881 0.500000 0.717821
O O12 0.867466 0.265799 0.682504
O O13 0.000000 0.332094 0.723273
O O14 0.250000 0.750000 0.382862
O O15 0.000000 0.147250 0.937026
O O16 0.883618 0.000000 0.924583
O O17 0.883929 0.173345 0.000000
#
# Coordination Sequence:
#
# PCOD9494003 Si02
#       6
#     8   8  16  16  16  16
#     4  11  25  43  59  81 117 149 174 219 280 331
#     4  11  23  41  67  89 105 143 196 225 254 329
#     4   8  14  24  40  63  87 119 168 220 263 303
#     4   9  17  33  56  75  98 137 185 229 265 317
#     4  12  24  38  59  86 115 145 180 228 281 326
#     4   8  13  21  33  53  88 130 166 205 258 316
#
# _framework density 17.702106000000001
#
# number of rings (size 3 to 8) (size 9 to 14) (size 15 to 20)
#    0.000    2.400    1.000    4.800    0.000    4.400 
#    1.800    2.000    0.000    0.000    0.000    0.000 
#    0.000    0.800    0.000    1.200    0.000    1.600 
#
# Total GULP energy -223161.115120 kJ/mol
# GULP energy per Si atom -5579.027878 kJ/mol
# Density = 1.766182 g / cm^3
# Si number density = 17.702106 Si / 1000 Ang^3
#
#
#
# Elastic Constant Matrix: (Units=GPa)
#
#
# Indices 1 2 3 4 5 6 
#
# 1 48.4724 49.2448 53.5364 0.0000 0.0000 0.0000
# 2 49.2448 165.1398 121.9177 0.0000 0.0000 0.0000
# 3 53.5364 121.9177 159.3181 0.0000 0.0000 0.0000
# 4 0.0000 0.0000 0.0000 36.0961 0.0000 0.0000
# 5 0.0000 0.0000 0.0000 0.0000 -14.7097 0.0000
# 6 0.0000 0.0000 0.0000 0.0000 0.0000 18.2985
#
#
#
# Elastic Compliance Matrix: (Units=1/GPa)
#
#
# Indices 1 2 3 4 5 6 
#
# 1 0.033865 -0.003901 -0.008394 0.000000 0.000000 0.000000
# 2 -0.003901 0.014369 -0.009685 0.000000 0.000000 0.000000
# 3 -0.008394 -0.009685 0.016509 0.000000 0.000000 0.000000
# 4 0.000000 0.000000 0.000000 0.027704 0.000000 0.000000
# 5 0.000000 0.000000 0.000000 0.000000 -0.067983 0.000000
# 6 0.000000 0.000000 0.000000 0.000000 0.000000 0.054649
#
#
# Mechanical properties :
#
#
# Convention : Reuss Voigt Hill
#
# Bulk Modulus (GPa) = 48.11881 91.36979 69.74430
# Shear Modulus (GPa) = 38.46123 17.81910 28.14017
#
# Velocity S-wave (km/s) = 4.66627 3.17615 3.99137
# Velocity P-wave (km/s) = 7.50158 8.07328 7.79267
#
# Compressibility (1/GPa) = 0.02078190
#
# Stress axis : x y z
#
# Youngs Moduli (GPa) = 29.52887 69.59564 60.57397
#
# Poissons Ratio (x) = 0.27151 0.50849
# Poissons Ratio (y) = 0.11520 0.58664
# Poissons Ratio (z) = 0.24788 0.67401
#
# Static dielectric constant tensor:
#      x y z
#    x 1.575210 0.000000 0.000000 
#    y 0.000000 1.584250 0.000000 
#    z 0.000000 0.000000 1.609360 
# 
# From -- ./inp_files/75122.got.cif
#   From: 2010.05.17/outbox.cif.g08.bks.cpg/sg65_38_cif.got.tgz:75122.got - 2010.06.03 17:01:31.
