data_PCOD9494097
_publ_section_title
;
Structure prediction by ZEFSAII (Michael W. Deem and Ramdas Pophale) SiO2 
 PCOD9494097
Probable space group: C M M M
;
_chemical_formula_sum "Si O2"
_cell_formula_units_Z 64
_cell_length_a 23.484558
_cell_length_b 17.245293
_cell_length_c 7.525119
_cell_angle_alpha 90.000000
_cell_angle_beta 90.000000
_cell_angle_gamma 90.000000
_cell_volume 3047.658775
_symmetry_space_group_name_H-M "C M M M"
_symmetry_group_IT_number 65
_symmetry_cell_setting 'orthorhombic'
loop_
_space_group_symop_operation_xyz
x,y,z
-x,-y,z
x,-y,-z
-x,y,-z
-x,-y,-z
x,y,-z
-x,y,z
x,-y,z
1/2+x,1/2+y,z
1/2-x,1/2-y,z
1/2+x,1/2-y,-z
1/2-x,1/2+y,-z
1/2-x,1/2-y,-z
1/2+x,1/2+y,-z
1/2-x,1/2+y,z
1/2+x,1/2-y,z
loop_
_atom_site_type_symbol
_atom_site_label
_atom_site_fract_x
_atom_site_fract_y
_atom_site_fract_z
Si Si1 0.935667 0.000000 0.217244
Si Si2 0.362013 0.355142 0.781568
Si Si3 0.884138 0.319561 0.212886
Si Si4 0.000000 0.587822 0.710350
Si Si5 0.238585 0.656690 0.795482
O O1 0.903552 0.077175 0.273909
O O2 0.000000 0.000000 0.277419
O O3 0.935394 0.000000 0.000000
O O4 0.383494 0.269981 0.725237
O O5 0.297792 0.372986 0.717493
O O6 0.359903 0.353736 0.000000
O O7 0.942247 0.365491 0.245078
O O8 0.824402 0.356102 0.281830
O O9 0.877457 0.316185 0.000000
O O10 0.000000 0.500000 0.786064
O O11 0.000000 0.580955 0.500000
O O12 0.250000 0.750000 0.798486
O O13 0.236591 0.629154 0.000000
#
# Coordination Sequence:
#
# PCOD9494097 Si02
#       5
#     8  16  16   8  16
#     4   9  16  22  32  62 110 147 162 177 221 290
#     4   8  14  25  43  71 107 137 159 193 241 286
#     4   9  17  31  55  77  95 124 166 208 245 289
#     4  11  25  41  51  66  97 130 162 205 261 311
#     4   7  11  23  43  69  99 126 154 196 244 282
#
# _framework density 20.999728000000001
#
# number of rings (size 3 to 8) (size 9 to 14) (size 15 to 20)
#    0.000    3.500    0.000    3.375    1.750    1.000 
#    2.250    0.000    0.000    6.750    0.000    1.750 
#    0.000    0.000    0.000    0.000    0.000    0.000 
#
# Total GULP energy -178232.198274 kJ/mol
# GULP energy per Si atom -5569.756196 kJ/mol
# Density = 2.095193 g / cm^3
# Si number density = 20.999728 Si / 1000 Ang^3
#
#
#
# Elastic Constant Matrix: (Units=GPa)
#
#
# Indices 1 2 3 4 5 6 
#
# 1 269.9841 124.4071 6.8150 0.0000 0.0000 0.0000
# 2 124.4071 114.6051 5.5532 0.0000 0.0000 0.0000
# 3 6.8150 5.5532 53.5237 0.0000 0.0000 0.0000
# 4 0.0000 0.0000 0.0000 6.1650 0.0000 0.0000
# 5 0.0000 0.0000 0.0000 0.0000 -47.9225 0.0000
# 6 0.0000 0.0000 0.0000 0.0000 0.0000 34.1609
#
#
#
# Elastic Compliance Matrix: (Units=1/GPa)
#
#
# Indices 1 2 3 4 5 6 
#
# 1 0.007412 -0.008040 -0.000109 0.000000 0.000000 0.000000
# 2 -0.008040 0.017492 -0.000791 0.000000 0.000000 0.000000
# 3 -0.000109 -0.000791 0.018779 0.000000 0.000000 0.000000
# 4 0.000000 0.000000 0.000000 0.162206 0.000000 0.000000
# 5 0.000000 0.000000 0.000000 0.000000 -0.020867 0.000000
# 6 0.000000 0.000000 0.000000 0.000000 0.000000 0.029273
#
#
# Mechanical properties :
#
#
# Convention : Reuss Voigt Hill
#
# Bulk Modulus (GPa) = 38.75796 79.07371 58.91584
# Shear Modulus (GPa) = 20.76618 18.56986 19.66802
#
# Velocity S-wave (km/s) = 3.14806 2.97693 3.06369
# Velocity P-wave (km/s) = 5.63118 7.03936 6.37427
#
# Compressibility (1/GPa) = 0.02580115
#
# Stress axis : x y z
#
# Youngs Moduli (GPa) = 134.92509 57.16994 53.25006
#
# Poissons Ratio (x) = 0.45965 0.00583
# Poissons Ratio (y) = 1.08481 0.04213
# Poissons Ratio (z) = 0.01477 0.04523
#
# Static dielectric constant tensor:
#      x y z
#    x 1.798990 0.000000 0.000000 
#    y 0.000000 1.733410 0.000000 
#    z 0.000000 0.000000 1.778230 
# 
# From -- ./inp_files/10868.got.cif
#   From: 2010.05.17/outbox.cif.g08.bks.cpg/sg65_6_cif.got.tgz:10868.got - 2010.06.03 17:01:31.
