data_PCOD9494197
_publ_section_title
;
Structure prediction by ZEFSAII (Michael W. Deem and Ramdas Pophale) SiO2 
 PCOD9494197
Probable space group: C M M M
;
_chemical_formula_sum "Si O2"
_cell_formula_units_Z 120
_cell_length_a 7.325920
_cell_length_b 29.793539
_cell_length_c 24.225933
_cell_angle_alpha 90.000000
_cell_angle_beta 90.000000
_cell_angle_gamma 90.000000
_cell_volume 5287.675283
_symmetry_space_group_name_H-M "C M M M"
_symmetry_group_IT_number 65
_symmetry_cell_setting 'orthorhombic'
loop_
_space_group_symop_operation_xyz
x,y,z
-x,-y,z
x,-y,-z
-x,y,-z
-x,-y,-z
x,y,-z
-x,y,z
x,-y,z
1/2+x,1/2+y,z
1/2-x,1/2-y,z
1/2+x,1/2-y,-z
1/2-x,1/2+y,-z
1/2-x,1/2-y,-z
1/2+x,1/2+y,-z
1/2-x,1/2+y,z
1/2+x,1/2-y,z
loop_
_atom_site_type_symbol
_atom_site_label
_atom_site_fract_x
_atom_site_fract_y
_atom_site_fract_z
Si Si1 0.277251 0.108633 0.771471
Si Si2 0.717098 0.202072 0.436959
Si Si3 0.722427 0.896221 0.563587
Si Si4 0.277041 0.050611 0.331872
Si Si5 0.713323 0.945116 0.000000
Si Si6 0.782020 0.302479 0.820085
Si Si7 0.277207 0.947643 0.121053
Si Si8 0.282320 0.803811 0.941310
O O1 0.500000 0.107574 0.770550
O O2 0.216480 0.083609 0.716585
O O3 0.218826 0.160325 0.777021
O O4 0.221606 0.081772 0.826690
O O5 0.789529 0.205096 0.500000
O O6 0.500000 0.198672 0.440444
O O7 0.750000 0.250000 0.408728
O O8 0.779016 0.153684 0.415999
O O9 0.780538 0.902389 0.500000
O O10 0.500000 0.897369 0.562572
O O11 0.781915 0.932345 0.608104
O O12 0.500000 0.051052 0.331784
O O13 0.219675 0.000000 0.320694
O O14 0.785826 0.931454 0.060223
O O15 0.500000 0.932021 0.000000
O O16 0.721085 0.000000 0.000000
O O17 0.750000 0.250000 0.809087
O O18 0.711243 0.316398 0.881078
O O19 0.000000 0.306510 0.823281
O O20 0.500000 0.946704 0.119420
O O21 0.225655 0.000000 0.128146
O O22 0.500000 0.811982 0.941221
O O23 0.250000 0.750000 0.942674
O O24 0.211865 0.822055 0.000000
#
# Coordination Sequence:
#
# PCOD9494197 Si02
#       8
#    16  16  16  16   8  16  16  16
#     4   9  16  25  36  53  76 104 135 166 202 245
#     4   8  13  22  37  57  83 114 143 171 204 240
#     4   8  14  24  37  55  80 108 137 171 211 251
#     4   9  16  25  38  56  79 107 136 167 207 256
#     4   7  10  16  26  42  65  94 125 155 191 235
#     4   9  17  29  43  59  82 111 141 175 213 249
#     4   8  12  19  31  47  70  98 126 158 197 240
#     4   8  13  22  36  53  73  99 132 167 203 242
#
# _framework density 22.694282999999999
#
# number of rings (size 3 to 8) (size 9 to 14) (size 15 to 20)
#    0.000    3.667    0.000    2.000    0.000    1.867 
#    1.200    2.000    0.000    0.000    0.000    0.000 
#    0.000    3.733    0.000    5.200    0.000    9.067 
#
# Total GULP energy -334436.240806 kJ/mol
# GULP energy per Si atom -5573.937347 kJ/mol
# Density = 2.264263 g / cm^3
# Si number density = 22.694283 Si / 1000 Ang^3
#
#
#
# Elastic Constant Matrix: (Units=GPa)
#
#
# Indices 1 2 3 4 5 6 
#
# 1 88.5251 0.3597 4.1606 0.0000 0.0000 0.0000
# 2 0.3597 135.0107 91.8451 0.0000 0.0000 0.0000
# 3 4.1606 91.8451 137.5589 0.0000 0.0000 0.0000
# 4 0.0000 0.0000 0.0000 32.9017 0.0000 0.0000
# 5 0.0000 0.0000 0.0000 0.0000 -12.2091 0.0000
# 6 0.0000 0.0000 0.0000 0.0000 0.0000 0.0852
#
#
#
# Elastic Compliance Matrix: (Units=1/GPa)
#
#
# Indices 1 2 3 4 5 6 
#
# 1 0.011322 0.000372 -0.000591 0.000000 0.000000 0.000000
# 2 0.000372 0.013583 -0.009080 0.000000 0.000000 0.000000
# 3 -0.000591 -0.009080 0.013350 0.000000 0.000000 0.000000
# 4 0.000000 0.000000 0.000000 0.030394 0.000000 0.000000
# 5 0.000000 0.000000 0.000000 0.000000 -0.081906 0.000000
# 6 0.000000 0.000000 0.000000 0.000000 0.000000 11.737932
#
#
# Mechanical properties :
#
#
# Convention : Reuss Voigt Hill
#
# Bulk Modulus (GPa) = 50.87222 61.53618 56.20420
# Shear Modulus (GPa) = 0.42554 21.80419 11.11486
#
# Velocity S-wave (km/s) = 0.43349 3.10301 2.21546
# Velocity P-wave (km/s) = 4.76608 6.32553 5.60035
#
# Compressibility (1/GPa) = 0.01965709
#
# Stress axis : x y z
#
# Youngs Moduli (GPa) = 88.31991 73.62151 74.90527
#
# Poissons Ratio (x) = -0.02736 0.04424
# Poissons Ratio (y) = -0.03282 0.68016
# Poissons Ratio (z) = 0.05216 0.66851
#
# Static dielectric constant tensor:
#      x y z
#    x 1.920650 0.000000 0.000000 
#    y 0.000000 1.836310 0.000000 
#    z 0.000000 0.000000 1.825580 
# 
# From -- ./inp_files/69402.got.cif
#   From: 2010.05.17/outbox.cif.g08.bks.cpg/sg65_35_cif.got.tgz:69402.got - 2010.06.03 17:01:31.
