data_PCOD9494327
_publ_section_title
;
Structure prediction by ZEFSAII (Michael W. Deem and Ramdas Pophale) SiO2 
 PCOD9494327
Probable space group: C M M M
;
_chemical_formula_sum "Si O2"
_cell_formula_units_Z 72
_cell_length_a 32.995075
_cell_length_b 7.302570
_cell_length_c 14.115495
_cell_angle_alpha 90.000000
_cell_angle_beta 90.000000
_cell_angle_gamma 90.000000
_cell_volume 3401.112215
_symmetry_space_group_name_H-M "C M M M"
_symmetry_group_IT_number 65
_symmetry_cell_setting 'orthorhombic'
loop_
_space_group_symop_operation_xyz
x,y,z
-x,-y,z
x,-y,-z
-x,y,-z
-x,-y,-z
x,y,-z
-x,y,z
x,-y,z
1/2+x,1/2+y,z
1/2-x,1/2-y,z
1/2+x,1/2-y,-z
1/2-x,1/2+y,-z
1/2-x,1/2-y,-z
1/2+x,1/2+y,-z
1/2-x,1/2+y,z
1/2+x,1/2-y,z
loop_
_atom_site_type_symbol
_atom_site_label
_atom_site_fract_x
_atom_site_fract_y
_atom_site_fract_z
Si Si1 0.415808 0.277417 0.300161
Si Si2 0.000000 0.776432 0.390537
Si Si3 0.622341 0.723316 0.105200
Si Si4 0.795514 0.217467 0.199769
Si Si5 0.668561 0.277112 0.394439
O O1 0.416134 0.500000 0.300818
O O2 0.458807 0.216138 0.339683
O O3 0.405885 0.220246 0.192751
O O4 0.377356 0.225116 0.365051
O O5 0.000000 0.721544 0.500000
O O6 0.000000 0.000000 0.388876
O O7 0.621831 0.500000 0.104210
O O8 0.667973 0.782628 0.133273
O O9 0.611252 0.784318 0.000000
O O10 0.750000 0.250000 0.167271
O O11 0.803308 0.285118 0.307268
O O12 0.800774 0.000000 0.204170
O O13 0.679024 0.214258 0.500000
O O14 0.669719 0.500000 0.396133
#
# Coordination Sequence:
#
# PCOD9494327 Si02
#       5
#    16   8  16  16  16
#     4   8  13  20  30  46  67  92 124 156 184 218
#     4   9  14  18  27  45  69  95 123 156 188 216
#     4   8  14  25  38  49  65  92 123 153 186 226
#     4   9  17  27  39  56  75  96 126 161 193 226
#     4   8  13  22  35  49  68  96 126 153 184 226
#
# _framework density 21.169544999999999
#
# number of rings (size 3 to 8) (size 9 to 14) (size 15 to 20)
#    0.000    3.667    0.000    3.333    0.000    3.556 
#    0.000    0.556    0.000    3.333    0.000    0.000 
#    0.000    0.000    0.000   16.000    0.000   66.667 
#
# Total GULP energy -200803.549139 kJ/mol
# GULP energy per Si atom -5577.876365 kJ/mol
# Density = 2.112136 g / cm^3
# Si number density = 21.169545 Si / 1000 Ang^3
#
#
#
# Elastic Constant Matrix: (Units=GPa)
#
#
# Indices 1 2 3 4 5 6 
#
# 1 106.7862 -4.4020 33.5041 0.0000 0.0000 0.0000
# 2 -4.4020 84.8755 2.1504 0.0000 0.0000 0.0000
# 3 33.5041 2.1504 129.4735 0.0000 0.0000 0.0000
# 4 0.0000 0.0000 0.0000 -21.9105 0.0000 0.0000
# 5 0.0000 0.0000 0.0000 0.0000 10.3024 0.0000
# 6 0.0000 0.0000 0.0000 0.0000 0.0000 -1.8291
#
#
#
# Elastic Compliance Matrix: (Units=1/GPa)
#
#
# Indices 1 2 3 4 5 6 
#
# 1 0.010222 0.000597 -0.002655 0.000000 0.000000 0.000000
# 2 0.000597 0.011822 -0.000351 0.000000 0.000000 0.000000
# 3 -0.002655 -0.000351 0.008416 0.000000 0.000000 0.000000
# 4 0.000000 0.000000 0.000000 -0.045640 0.000000 0.000000
# 5 0.000000 0.000000 0.000000 0.000000 0.097064 0.000000
# 6 0.000000 0.000000 0.000000 0.000000 0.000000 -0.546718
#
#
# Mechanical properties :
#
#
# Convention : Reuss Voigt Hill
#
# Bulk Modulus (GPa) = 38.99663 42.62667 40.81165
# Shear Modulus (GPa) = -11.07497 16.63808 2.78155
#
# Velocity S-wave (km/s) = -2.28974 2.80651 1.14752
# Velocity P-wave (km/s) = 3.38682 5.53909 4.59087
#
# Compressibility (1/GPa) = 0.02564324
#
# Stress axis : x y z
#
# Youngs Moduli (GPa) = 97.82644 84.58915 118.81431
#
# Poissons Ratio (x) = -0.05054 0.31547
# Poissons Ratio (y) = -0.05845 0.04170
# Poissons Ratio (z) = 0.25974 0.02969
#
# Static dielectric constant tensor:
#      x y z
#    x 1.728090 0.000000 0.000000 
#    y 0.000000 1.994490 0.000000 
#    z 0.000000 0.000000 1.742720 
# 
# From -- ./inp_files/36961.got.cif
#   From: 2010.05.17/outbox.cif.g08.bks.cpg/sg65_19_cif.got.tgz:36961.got - 2010.06.03 17:01:31.
