data_PCOD9494265
_publ_section_title
;
Structure prediction by ZEFSAII (Michael W. Deem and Ramdas Pophale) SiO2 
 PCOD9494265
Probable space group: C M M M
;
_chemical_formula_sum "Si O2"
_cell_formula_units_Z 88
_cell_length_a 18.443745
_cell_length_b 7.327671
_cell_length_c 30.899009
_cell_angle_alpha 90.000000
_cell_angle_beta 90.000000
_cell_angle_gamma 90.000000
_cell_volume 4175.991654
_symmetry_space_group_name_H-M "C M M M"
_symmetry_group_IT_number 65
_symmetry_cell_setting 'orthorhombic'
loop_
_space_group_symop_operation_xyz
x,y,z
-x,-y,z
x,-y,-z
-x,y,-z
-x,-y,-z
x,y,-z
-x,y,z
x,-y,z
1/2+x,1/2+y,z
1/2-x,1/2-y,z
1/2+x,1/2-y,-z
1/2-x,1/2+y,-z
1/2-x,1/2-y,-z
1/2+x,1/2+y,-z
1/2-x,1/2+y,z
1/2+x,1/2-y,z
loop_
_atom_site_type_symbol
_atom_site_label
_atom_site_fract_x
_atom_site_fract_y
_atom_site_fract_z
Si Si1 0.663888 0.782023 0.413916
Si Si2 0.335975 0.217957 0.226119
Si Si3 0.913422 0.279712 0.953472
Si Si4 0.336782 0.217641 0.680095
Si Si5 0.416259 0.776917 0.500000
Si Si6 0.084707 0.277515 0.859581
O O1 0.750000 0.750000 0.417884
O O2 0.638141 0.711897 0.366756
O O3 0.623338 0.713482 0.456363
O O4 0.653387 0.000000 0.412931
O O5 0.250000 0.250000 0.223399
O O6 0.362657 0.287801 0.273144
O O7 0.373936 0.288102 0.182894
O O8 0.347455 0.000000 0.226753
O O9 0.906592 0.500000 0.953822
O O10 0.885700 0.216597 0.906636
O O11 0.000000 0.241498 0.953212
O O12 0.884366 0.213585 0.000000
O O13 0.250000 0.250000 0.680134
O O14 0.349018 0.000000 0.680115
O O15 0.500000 0.725049 0.500000
O O16 0.412998 0.000000 0.500000
O O17 0.087771 0.500000 0.859837
O O18 0.000000 0.228515 0.856704
#
# Coordination Sequence:
#
# PCOD9494265 Si02
#       6
#    16  16  16  16   8  16
#     4   9  16  27  44  62  78  99 130 164 191 218
#     4   9  16  26  40  57  78 103 128 154 187 227
#     4   7   9  14  26  45  68  92 118 150 187 222
#     4   8  14  24  38  57  77  97 125 158 188 218
#     4   9  17  28  41  59  84 109 128 150 188 235
#     4   8  13  21  34  53  75  97 123 157 193 224
#
# _framework density 21.072837
#
# number of rings (size 3 to 8) (size 9 to 14) (size 15 to 20)
#    0.000    3.727    0.000    1.909    0.000    0.000 
#    0.000    0.909    0.000    7.636    0.000    0.000 
#    0.000   14.545    0.000    4.545    0.000    3.636 
#
# Total GULP energy -244951.692953 kJ/mol
# GULP energy per Si atom -5567.083931 kJ/mol
# Density = 2.102487 g / cm^3
# Si number density = 21.072837 Si / 1000 Ang^3
#
#
#
# Elastic Constant Matrix: (Units=GPa)
#
#
# Indices 1 2 3 4 5 6 
#
# 1 36.1195 -2.8764 77.0658 0.0000 0.0000 0.0000
# 2 -2.8764 85.2671 14.9475 0.0000 0.0000 0.0000
# 3 77.0658 14.9475 327.9374 0.0000 0.0000 0.0000
# 4 0.0000 0.0000 0.0000 20.7649 0.0000 0.0000
# 5 0.0000 0.0000 0.0000 0.0000 31.9013 0.0000
# 6 0.0000 0.0000 0.0000 0.0000 0.0000 -1.5762
#
#
#
# Elastic Compliance Matrix: (Units=1/GPa)
#
#
# Indices 1 2 3 4 5 6 
#
# 1 0.057057 0.004310 -0.013605 0.000000 0.000000 0.000000
# 2 0.004310 0.012148 -0.001567 0.000000 0.000000 0.000000
# 3 -0.013605 -0.001567 0.006318 0.000000 0.000000 0.000000
# 4 0.000000 0.000000 0.000000 0.048158 0.000000 0.000000
# 5 0.000000 0.000000 0.000000 0.000000 0.031347 0.000000
# 6 0.000000 0.000000 0.000000 0.000000 0.000000 -0.634452
#
#
# Mechanical properties :
#
#
# Convention : Reuss Voigt Hill
#
# Bulk Modulus (GPa) = 18.58751 69.73309 44.16030
# Shear Modulus (GPa) = -11.36964 34.23050 11.43043
#
# Velocity S-wave (km/s) = -2.32532 4.03474 2.33153
# Velocity P-wave (km/s) = 1.27682 7.40735 5.31503
#
# Compressibility (1/GPa) = 0.05379956
#
# Stress axis : x y z
#
# Youngs Moduli (GPa) = 17.52628 82.31911 158.27910
#
# Poissons Ratio (x) = -0.35478 2.15338
# Poissons Ratio (y) = -0.07553 0.24795
# Poissons Ratio (z) = 0.23844 0.12895
#
# Static dielectric constant tensor:
#      x y z
#    x 1.675190 0.000000 0.000000 
#    y 0.000000 1.799010 0.000000 
#    z 0.000000 0.000000 1.845830 
# 
# From -- ./inp_files/77896.got.cif
#   From: 2010.05.17/outbox.cif.g08.bks.cpg/sg65_39_cif.got.tgz:77896.got - 2010.06.03 17:01:31.
