data_PCOD9494213
_publ_section_title
;
Structure prediction by ZEFSAII (Michael W. Deem and Ramdas Pophale) SiO2 
 PCOD9494213
Probable space group: C M M M
;
_chemical_formula_sum "Si O2"
_cell_formula_units_Z 88
_cell_length_a 7.322873
_cell_length_b 15.320804
_cell_length_c 34.503466
_cell_angle_alpha 90.000000
_cell_angle_beta 90.000000
_cell_angle_gamma 90.000000
_cell_volume 3871.023276
_symmetry_space_group_name_H-M "C M M M"
_symmetry_group_IT_number 65
_symmetry_cell_setting 'orthorhombic'
loop_
_space_group_symop_operation_xyz
x,y,z
-x,-y,z
x,-y,-z
-x,y,-z
-x,-y,-z
x,y,-z
-x,y,z
x,-y,z
1/2+x,1/2+y,z
1/2-x,1/2-y,z
1/2+x,1/2-y,-z
1/2-x,1/2+y,-z
1/2-x,1/2-y,-z
1/2+x,1/2+y,-z
1/2-x,1/2+y,z
1/2+x,1/2-y,z
loop_
_atom_site_type_symbol
_atom_site_label
_atom_site_fract_x
_atom_site_fract_y
_atom_site_fract_z
Si Si1 0.218179 0.646490 0.749039
Si Si2 0.723458 0.000000 0.398599
Si Si3 0.782440 0.648378 0.456534
Si Si4 0.290890 0.104620 0.917431
Si Si5 0.223306 0.500000 0.309835
Si Si6 0.216962 0.352997 0.166583
Si Si7 0.276431 0.897484 0.000000
O O1 0.250000 0.750000 0.743583
O O2 0.282587 0.585170 0.714370
O O3 0.287117 0.615919 0.791554
O O4 0.000000 0.636409 0.750770
O O5 0.783859 0.084097 0.423234
O O6 0.500000 0.000000 0.397632
O O7 0.783958 0.000000 0.354221
O O8 0.711189 0.629523 0.500000
O O9 0.750000 0.750000 0.448200
O O10 0.000000 0.635655 0.458390
O O11 0.500000 0.138124 0.915385
O O12 0.206862 0.120270 0.875265
O O13 0.213798 0.138976 0.958372
O O14 0.298367 0.000000 0.921485
O O15 0.000000 0.500000 0.310500
O O16 0.250000 0.250000 0.168426
O O17 0.000000 0.374140 0.165622
O O18 0.500000 0.894596 0.000000
O O19 0.224792 0.000000 0.000000
#
# Coordination Sequence:
#
# PCOD9494213 Si02
#       7
#    16   8  16  16   8  16   8
#     4   9  18  32  49  68  92 120 151 190 233 275
#     4   9  17  30  48  70  96 126 159 196 235 278
#     4   9  17  30  49  72  97 127 162 197 234 277
#     4   8  13  21  37  59  79 102 134 170 205 242
#     4   9  18  31  49  72  94 121 160 197 231 276
#     4   9  17  28  43  62  84 108 135 171 213 257
#     4   7  10  18  31  52  81 103 124 163 208 242
#
# _framework density 22.733007000000001
#
# number of rings (size 3 to 8) (size 9 to 14) (size 15 to 20)
#    0.000    3.364    0.000    1.364    1.273    1.818 
#    0.000    1.364    0.000    3.818    0.000    0.000 
#    0.000    2.182    0.000    0.000    0.000    0.000 
#
# Total GULP energy -245254.801786 kJ/mol
# GULP energy per Si atom -5573.972768 kJ/mol
# Density = 2.268127 g / cm^3
# Si number density = 22.733007 Si / 1000 Ang^3
#
#
#
# Elastic Constant Matrix: (Units=GPa)
#
#
# Indices 1 2 3 4 5 6 
#
# 1 93.8541 -4.5122 15.4727 0.0000 0.0000 0.0000
# 2 -4.5122 83.7496 114.0264 0.0000 0.0000 0.0000
# 3 15.4727 114.0264 306.7486 0.0000 0.0000 0.0000
# 4 0.0000 0.0000 0.0000 44.9636 0.0000 0.0000
# 5 0.0000 0.0000 0.0000 0.0000 216.8483 0.0000
# 6 0.0000 0.0000 0.0000 0.0000 0.0000 9.0354
#
#
#
# Elastic Compliance Matrix: (Units=1/GPa)
#
#
# Indices 1 2 3 4 5 6 
#
# 1 0.011046 0.002741 -0.001576 0.000000 0.000000 0.000000
# 2 0.002741 0.024856 -0.009378 0.000000 0.000000 0.000000
# 3 -0.001576 -0.009378 0.006826 0.000000 0.000000 0.000000
# 4 0.000000 0.000000 0.000000 0.022240 0.000000 0.000000
# 5 0.000000 0.000000 0.000000 0.000000 0.004612 0.000000
# 6 0.000000 0.000000 0.000000 0.000000 0.000000 0.110675
#
#
# Mechanical properties :
#
#
# Convention : Reuss Voigt Hill
#
# Bulk Modulus (GPa) = 38.01957 81.59178 59.80568
# Shear Modulus (GPa) = 24.33693 78.12715 51.23204
#
# Velocity S-wave (km/s) = 3.27548 5.86872 4.75240
# Velocity P-wave (km/s) = 5.57367 9.04941 7.51523
#
# Compressibility (1/GPa) = 0.02630224
#
# Stress axis : x y z
#
# Youngs Moduli (GPa) = 90.52676 40.23114 146.50833
#
# Poissons Ratio (x) = -0.11028 0.23091
# Poissons Ratio (y) = -0.24814 1.37396
# Poissons Ratio (z) = 0.14268 0.37729
#
# Static dielectric constant tensor:
#      x y z
#    x 1.422850 0.000000 0.000000 
#    y 0.000000 1.806050 0.000000 
#    z 0.000000 0.000000 1.880950 
# 
# From -- ./inp_files/74289.got.cif
#   From: 2010.05.17/outbox.cif.g08.bks.cpg/sg65_38_cif.got.tgz:74289.got - 2010.06.03 17:01:31.
