data_PCOD9494774
_publ_section_title
;
Structure prediction by ZEFSAII (Michael W. Deem and Ramdas Pophale) SiO2 
 PCOD9494774
Probable space group: C M M M
;
_chemical_formula_sum "Si O2"
_cell_formula_units_Z 44
_cell_length_a 18.000000
_cell_length_b 21.000000
_cell_length_c 12.000000
_cell_angle_alpha 90.000000
_cell_angle_beta 90.000000
_cell_angle_gamma 90.000000
_cell_volume 4536.000000
_symmetry_space_group_name_H-M "C M M M"
_symmetry_group_IT_number 65
_symmetry_cell_setting 'orthorhombic'
loop_
_space_group_symop_operation_xyz
x,y,z
-x,-y,z
x,-y,-z
-x,y,-z
-x,-y,-z
x,y,-z
-x,y,z
x,-y,z
1/2+x,1/2+y,z
1/2-x,1/2-y,z
1/2+x,1/2-y,-z
1/2-x,1/2+y,-z
1/2-x,1/2-y,-z
1/2+x,1/2+y,-z
1/2-x,1/2+y,z
1/2+x,1/2-y,z
loop_
_atom_site_type_symbol
_atom_site_label
_atom_site_fract_x
_atom_site_fract_y
_atom_site_fract_z
Si Si1 0.161610 0.872722 0.275028
Si Si2 0.911347 0.331943 0.500000
Si Si3 0.589015 0.500000 0.631257
Si Si4 0.589185 0.265919 0.127446
Si Si5 0.708161 0.925907 0.127859
Si Si6 0.822909 0.207046 0.500000
Si Si7 0.410780 0.862932 0.255539
O O1 0.120513 0.937578 0.308720
O O2 0.114532 0.828137 0.192949
O O3 0.236197 0.888816 0.208306
O O4 0.175204 0.835028 0.389397
O O5 0.890040 0.257688 0.500000
O O6 0.884743 0.362567 0.384207
O O7 0.000000 0.337078 0.500000
O O8 0.500000 0.500000 0.636090
O O9 0.610649 0.500000 0.500000
O O10 0.500000 0.264864 0.123322
O O11 0.611922 0.203968 0.198349
O O12 0.617051 0.263658 0.000000
O O13 0.627336 0.916210 0.181026
O O14 0.728670 0.000000 0.128613
O O15 0.710488 0.903294 0.000000
O O16 0.750000 0.250000 0.500000
O O17 0.500000 0.867353 0.253838
#
# Coordination Sequence:
#
# PCOD9494774 Si02
#       7
#    16   8   8  16  16   8  16
#     4  12  23  41  61  88 125 161 209 255 310 370
#     4  10  20  38  63  94 126 159 191 246 317 375
#     4  11  24  42  63  91 124 165 211 256 310 372
#     4  10  21  37  60  90 122 157 199 252 310 366
#     4  11  25  43  63  86 122 171 215 259 309 367
#     4  12  24  37  61  93 124 161 199 250 313 373
#     4  10  21  40  65  95 126 157 204 260 315 375
#
# _framework density 9.7001760000000008
#
# number of rings (size 3 to 8) (size 9 to 14) (size 15 to 20)
#    0.000    1.182    3.636    2.727    0.000    2.182 
#    0.000    4.091    0.000    3.818    0.000    0.000 
#    0.000    0.000    0.000    0.000    0.000    0.000 
#
# Total GULP energy -245784.804919 kJ/mol
# GULP energy per Si atom -5586.018294 kJ/mol
# Density = 0.967810 g / cm^3
# Si number density = 9.700176 Si / 1000 Ang^3
#
#
#
# Elastic Constant Matrix: (Units=GPa)
#
#
# Indices 1 2 3 4 5 6 
#
# 1 27.0817 8.3199 29.5048 0.0000 0.0000 0.0000
# 2 8.3199 18.1333 1.2323 0.0000 0.0000 0.0000
# 3 29.5048 1.2323 145.5163 0.0000 0.0000 0.0000
# 4 0.0000 0.0000 0.0000 30.0964 0.0000 0.0000
# 5 0.0000 0.0000 0.0000 0.0000 22.2774 0.0000
# 6 0.0000 0.0000 0.0000 0.0000 0.0000 33.8549
#
#
#
# Elastic Compliance Matrix: (Units=1/GPa)
#
#
# Indices 1 2 3 4 5 6 
#
# 1 0.057124 -0.025437 -0.011367 0.000000 0.000000 0.000000
# 2 -0.025437 0.066506 0.004594 0.000000 0.000000 0.000000
# 3 -0.011367 0.004594 0.009138 0.000000 0.000000 0.000000
# 4 0.000000 0.000000 0.000000 0.033227 0.000000 0.000000
# 5 0.000000 0.000000 0.000000 0.000000 0.044889 0.000000
# 6 0.000000 0.000000 0.000000 0.000000 0.000000 0.029538
#
#
# Mechanical properties :
#
#
# Convention : Reuss Voigt Hill
#
# Bulk Modulus (GPa) = 14.63087 29.87169 22.25128
# Shear Modulus (GPa) = 15.26147 27.35737 21.30942
#
# Velocity S-wave (km/s) = 2.80779 3.75927 3.31781
# Velocity P-wave (km/s) = 4.25082 5.85438 5.11582
#
# Compressibility (1/GPa) = 0.06834862
#
# Stress axis : x y z
#
# Youngs Moduli (GPa) = 17.50582 15.03626 109.43382
#
# Poissons Ratio (x) = 0.38248 1.24393
# Poissons Ratio (y) = 0.44529 -0.50278
# Poissons Ratio (z) = 0.19899 -0.06908
#
# Static dielectric constant tensor:
#      x y z
#    x 1.684540 0.000000 0.000000 
#    y 0.000000 1.667470 0.000000 
#    z 0.000000 0.000000 1.664820 
# 
# From -- ./inp_files/26862.got.cif
#   From: 2010.05.17/outbox.ucp.g08.bks.cvg/sg65_14_cif.got.tgz:26862.got - 2010.06.11 16:39:57.
