data_PCOD9494884
_publ_section_title
;
Structure prediction by ZEFSAII (Michael W. Deem and Ramdas Pophale) SiO2 
 PCOD9494884
Probable space group: C C C M
;
_chemical_formula_sum "Si O2"
_cell_formula_units_Z 72
_cell_length_a 13.291747
_cell_length_b 7.967198
_cell_length_c 31.187230
_cell_angle_alpha 90.000000
_cell_angle_beta 90.000000
_cell_angle_gamma 90.000000
_cell_volume 3302.664662
_symmetry_space_group_name_H-M "C C C M"
_symmetry_group_IT_number 66
_symmetry_cell_setting 'orthorhombic'
loop_
_space_group_symop_operation_xyz
x,y,z
-x,-y,z
x,-y,1/2-z
-x,y,1/2-z
-x,-y,-z
x,y,-z
-x,y,1/2+z
x,-y,1/2+z
1/2+x,1/2+y,z
1/2-x,1/2-y,z
1/2+x,1/2-y,1/2-z
1/2-x,1/2+y,1/2-z
1/2-x,1/2-y,-z
1/2+x,1/2+y,-z
1/2-x,1/2+y,1/2+z
1/2+x,1/2-y,1/2+z
loop_
_atom_site_type_symbol
_atom_site_label
_atom_site_fract_x
_atom_site_fract_y
_atom_site_fract_z
Si Si1 0.073041 0.166641 0.136463
Si Si2 0.617179 0.442960 0.453432
Si Si3 0.250000 0.750000 0.922401
Si Si4 0.789114 0.993377 0.300702
Si Si5 0.117852 0.656833 0.843705
O O1 0.998982 0.318093 0.147419
O O2 0.123797 0.169394 0.089508
O O3 0.152455 0.136009 0.173715
O O4 0.000000 0.000000 0.134971
O O5 0.500000 0.500000 0.454807
O O6 0.639663 0.365103 0.500000
O O7 0.687625 0.607169 0.447038
O O8 0.171858 0.660104 0.890021
O O9 0.844860 0.825749 0.318555
O O10 0.673597 0.982023 0.315632
O O11 0.798057 0.000000 0.250000
#
# Coordination Sequence:
#
# PCOD9494884 Si02
#       5
#    16  16   8  16  16
#     4   9  14  25  36  53  83 116 157 214 253 301
#     4  10  16  21  32  51  78 122 173 212 256 313
#     4  10  13  24  32  48  80 120 160 214 259 302
#     4   9  16  26  42  60  81 116 160 206 253 308
#     4   9  16  25  39  57  87 112 154 215 254 300
#
# _framework density 21.800578999999999
#
# number of rings (size 3 to 8) (size 9 to 14) (size 15 to 20)
#    0.000    2.889    8.889    0.333    0.000    4.000 
#    0.000    0.000    0.000    0.000    0.000   12.444 
#    0.000    0.000    0.000    4.000    0.000   18.667 
#
# Total GULP energy -200694.142692 kJ/mol
# GULP energy per Si atom -5574.837297 kJ/mol
# Density = 2.175096 g / cm^3
# Si number density = 21.800579 Si / 1000 Ang^3
#
#
#
# Elastic Constant Matrix: (Units=GPa)
#
#
# Indices 1 2 3 4 5 6 
#
# 1 127.0291 40.9715 80.3738 0.0000 0.0000 0.0000
# 2 40.9715 78.5332 32.0852 0.0000 0.0000 0.0000
# 3 80.3738 32.0852 206.3056 0.0000 0.0000 0.0000
# 4 0.0000 0.0000 0.0000 -7.6170 0.0000 0.0000
# 5 0.0000 0.0000 0.0000 0.0000 24.0662 0.0000
# 6 0.0000 0.0000 0.0000 0.0000 0.0000 40.9643
#
#
#
# Elastic Compliance Matrix: (Units=1/GPa)
#
#
# Indices 1 2 3 4 5 6 
#
# 1 0.011807 -0.004571 -0.003889 0.000000 0.000000 0.000000
# 2 -0.004571 0.015367 -0.000609 0.000000 0.000000 0.000000
# 3 -0.003889 -0.000609 0.006457 0.000000 0.000000 0.000000
# 4 0.000000 0.000000 0.000000 -0.131285 0.000000 0.000000
# 5 0.000000 0.000000 0.000000 0.000000 0.041552 0.000000
# 6 0.000000 0.000000 0.000000 0.000000 0.000000 0.024411
#
#
# Mechanical properties :
#
#
# Convention : Reuss Voigt Hill
#
# Bulk Modulus (GPa) = 64.54554 79.85878 72.20216
# Shear Modulus (GPa) = -596.15896 28.71186 -283.72355
#
# Velocity S-wave (km/s) = -16.55457 3.63302 -11.42049
# Velocity P-wave (km/s) = 18.32303 7.36949 11.86221
#
# Compressibility (1/GPa) = 0.01549294
#
# Stress axis : x y z
#
# Youngs Moduli (GPa) = 84.69411 65.07415 154.87027
#
# Poissons Ratio (x) = 0.29746 0.60229
# Poissons Ratio (y) = 0.38714 0.09433
# Poissons Ratio (z) = 0.32938 0.03964
#
# Static dielectric constant tensor:
#      x y z
#    x 1.862200 0.000000 0.000000 
#    y 0.000000 1.629760 0.000000 
#    z 0.000000 0.000000 1.782520 
# 
# From -- ./inp_files/68689.got.cif
#   From: 2010.05.17/outbox.cif.g08.bks.cpg/sg66_35_cif.got.tgz:68689.got - 2010.06.03 17:51:23.
