data_PCOD9494070
_publ_section_title
;
Structure prediction by ZEFSAII (Michael W. Deem and Ramdas Pophale) SiO2 
 PCOD9494070
Probable space group: C M M M
;
_chemical_formula_sum "Si O2"
_cell_formula_units_Z 90
_cell_length_a 11.819242
_cell_length_b 17.837082
_cell_length_c 21.585898
_cell_angle_alpha 90.000000
_cell_angle_beta 90.000000
_cell_angle_gamma 90.000000
_cell_volume 4550.756042
_symmetry_space_group_name_H-M "C M M M"
_symmetry_group_IT_number 65
_symmetry_cell_setting 'orthorhombic'
loop_
_space_group_symop_operation_xyz
x,y,z
-x,-y,z
x,-y,-z
-x,y,-z
-x,-y,-z
x,y,-z
-x,y,z
x,-y,z
1/2+x,1/2+y,z
1/2-x,1/2-y,z
1/2+x,1/2-y,-z
1/2-x,1/2+y,-z
1/2-x,1/2-y,-z
1/2+x,1/2+y,-z
1/2-x,1/2+y,z
1/2+x,1/2-y,z
loop_
_atom_site_type_symbol
_atom_site_label
_atom_site_fract_x
_atom_site_fract_y
_atom_site_fract_z
Si Si1 0.365563 0.414470 0.783245
Si Si2 0.245546 0.334118 0.108812
Si Si3 0.130519 0.911362 0.574237
Si Si4 0.500000 0.892421 0.124487
Si Si5 0.500000 0.086951 0.273469
Si Si6 0.233791 0.660474 0.323041
Si Si7 0.000000 0.500000 0.000000
Si Si8 0.127232 0.911559 0.000000
O O1 0.500000 0.415070 0.788131
O O2 0.324736 0.500000 0.796988
O O3 0.314222 0.353605 0.829695
O O4 0.323218 0.387499 0.717251
O O5 0.250000 0.250000 0.086376
O O6 0.116046 0.349154 0.121208
O O7 0.301270 0.387562 0.058681
O O8 0.138406 0.904060 0.500000
O O9 0.226793 0.862970 0.608155
O O10 0.000000 0.890366 0.591682
O O11 0.144450 0.000000 0.589219
O O12 0.500000 0.918968 0.197516
O O13 0.500000 0.937645 0.058117
O O14 0.611310 0.130733 0.299155
O O15 0.500000 0.000000 0.295366
O O16 0.250000 0.750000 0.313951
O O17 0.000000 0.878935 0.000000
O O18 0.117179 0.000000 0.000000
#
# Coordination Sequence:
#
# PCOD9494070 Si02
#       8
#    16  16  16   8   8  16   2   8
#     4  11  24  42  69  96 126 171 225 278 338 412
#     4  12  27  44  68  94 131 164 208 272 338 412
#     4   9  19  40  71 101 134 184 243 294 339 405
#     4  12  28  44  74  97 127 175 228 277 340 410
#     4  12  26  46  69 102 142 188 231 288 358 430
#     4  12  26  40  67  99 146 186 229 290 358 419
#     4  12  28  48  72 100 118 176 236 276 308 422
#     4  11  26  47  70  90 120 163 211 267 329 397
#
# _framework density 19.776934000000001
#
# number of rings (size 3 to 8) (size 9 to 14) (size 15 to 20)
#    0.000    0.800    2.222    5.067    8.711    3.200 
#    0.000    0.444    0.000    1.600    0.000    0.000 
#    0.000    0.000    0.000    0.000    0.000    0.000 
#
# Total GULP energy -250777.264984 kJ/mol
# GULP energy per Si atom -5572.828111 kJ/mol
# Density = 1.973192 g / cm^3
# Si number density = 19.776934 Si / 1000 Ang^3
#
#
#
# Elastic Constant Matrix: (Units=GPa)
#
#
# Indices 1 2 3 4 5 6 
#
# 1 132.0860 48.7837 32.9712 0.0000 0.0000 0.0000
# 2 48.7837 97.2084 19.6894 0.0000 0.0000 0.0000
# 3 32.9712 19.6894 81.8257 0.0000 0.0000 0.0000
# 4 0.0000 0.0000 0.0000 55.5701 0.0000 0.0000
# 5 0.0000 0.0000 0.0000 0.0000 520.6437 0.0000
# 6 0.0000 0.0000 0.0000 0.0000 0.0000 47.5225
#
#
#
# Elastic Compliance Matrix: (Units=1/GPa)
#
#
# Indices 1 2 3 4 5 6 
#
# 1 0.009925 -0.004385 -0.002944 0.000000 0.000000 0.000000
# 2 -0.004385 0.012751 -0.001302 0.000000 0.000000 0.000000
# 3 -0.002944 -0.001302 0.013721 0.000000 0.000000 0.000000
# 4 0.000000 0.000000 0.000000 0.017995 0.000000 0.000000
# 5 0.000000 0.000000 0.000000 0.000000 0.001921 0.000000
# 6 0.000000 0.000000 0.000000 0.000000 0.000000 0.021043
#
#
# Mechanical properties :
#
#
# Convention : Reuss Voigt Hill
#
# Bulk Modulus (GPa) = 52.25671 57.11211 54.68441
# Shear Modulus (GPa) = 49.50741 138.72565 94.11653
#
# Velocity S-wave (km/s) = 5.00872 8.38436 6.90596
# Velocity P-wave (km/s) = 7.74145 11.07568 9.55513
#
# Compressibility (1/GPa) = 0.01913630
#
# Stress axis : x y z
#
# Youngs Moduli (GPa) = 100.75449 78.42414 72.88288
#
# Poissons Ratio (x) = 0.34385 0.21458
# Poissons Ratio (y) = 0.44176 0.09486
# Poissons Ratio (z) = 0.29664 0.10207
#
# Static dielectric constant tensor:
#      x y z
#    x 1.690020 0.000000 0.000000 
#    y 0.000000 1.711370 0.000000 
#    z 0.000000 0.000000 1.640730 
# 
# From -- ./inp_files/61542.got.cif
#   From: 2010.05.17/outbox.cif.g08.bks.cpg/sg65_31_cif.got.tgz:61542.got - 2010.06.03 17:01:31.
