data_PCOD9494425
_publ_section_title
;
Structure prediction by ZEFSAII (Michael W. Deem and Ramdas Pophale) SiO2 
 PCOD9494425
Probable space group: C M M M
;
_chemical_formula_sum "Si O2"
_cell_formula_units_Z 104
_cell_length_a 31.444918
_cell_length_b 23.263569
_cell_length_c 7.486713
_cell_angle_alpha 90.000000
_cell_angle_beta 90.000000
_cell_angle_gamma 90.000000
_cell_volume 5476.687927
_symmetry_space_group_name_H-M "C M M M"
_symmetry_group_IT_number 65
_symmetry_cell_setting 'orthorhombic'
loop_
_space_group_symop_operation_xyz
x,y,z
-x,-y,z
x,-y,-z
-x,y,-z
-x,-y,-z
x,y,-z
-x,y,z
x,-y,z
1/2+x,1/2+y,z
1/2-x,1/2-y,z
1/2+x,1/2-y,-z
1/2-x,1/2+y,-z
1/2-x,1/2-y,-z
1/2+x,1/2+y,-z
1/2-x,1/2+y,z
1/2+x,1/2-y,z
loop_
_atom_site_type_symbol
_atom_site_label
_atom_site_fract_x
_atom_site_fract_y
_atom_site_fract_z
Si Si1 0.547965 0.148719 0.287428
Si Si2 0.602683 0.388043 0.781418
Si Si3 0.451084 0.500000 0.782283
Si Si4 0.451642 0.280781 0.215001
Si Si5 0.308426 0.565830 0.212438
Si Si6 0.122746 0.432913 0.281799
Si Si7 0.715735 0.933872 0.285940
O O1 0.545657 0.138973 0.500000
O O2 0.500000 0.140235 0.215374
O O3 0.559733 0.215362 0.260523
O O4 0.584030 0.106091 0.216926
O O5 0.574241 0.442894 0.728062
O O6 0.580692 0.329309 0.720352
O O7 0.650993 0.398945 0.721059
O O8 0.602660 0.386929 0.000000
O O9 0.500000 0.500000 0.723213
O O10 0.451487 0.500000 0.000000
O O11 0.500000 0.291375 0.279251
O O12 0.452753 0.284585 0.000000
O O13 0.309398 0.500000 0.284327
O O14 0.261580 0.591961 0.241186
O O15 0.313802 0.561180 0.000000
O O16 0.122164 0.431769 0.500000
O O17 0.118387 0.500000 0.231084
O O18 0.169786 0.411253 0.225263
O O19 0.713957 0.935511 0.500000
O O20 0.717651 0.000000 0.220130
#
# Coordination Sequence:
#
# PCOD9494425 Si02
#       7
#    16  16   8  16  16  16  16
#     4   9  17  29  46  67  88 110 138 171 206 247
#     4   9  15  24  38  59  85 111 140 177 217 251
#     4   9  14  20  34  58  85 109 137 177 220 255
#     4   9  17  29  44  61  83 114 148 175 203 246
#     4   9  15  24  39  60  86 110 135 173 218 253
#     4   8  14  26  45  68  90 110 134 168 209 248
#     4   8  14  25  41  60  83 110 137 165 201 250
#
# _framework density 18.98958
#
# number of rings (size 3 to 8) (size 9 to 14) (size 15 to 20)
#    0.000    3.308    0.769    1.385    0.000    2.154 
#    0.000    3.077    0.000    2.308    0.000    8.615 
#    0.000    3.692    0.000    0.000    0.000    0.000 
#
# Total GULP energy -289680.436758 kJ/mol
# GULP energy per Si atom -5570.777630 kJ/mol
# Density = 1.894636 g / cm^3
# Si number density = 18.989580 Si / 1000 Ang^3
#
#
#
# Elastic Constant Matrix: (Units=GPa)
#
#
# Indices 1 2 3 4 5 6 
#
# 1 213.1981 110.6342 6.2444 0.0000 0.0000 0.0000
# 2 110.6342 91.5618 0.3101 0.0000 0.0000 0.0000
# 3 6.2444 0.3101 50.7782 0.0000 0.0000 0.0000
# 4 0.0000 0.0000 0.0000 10.3296 0.0000 0.0000
# 5 0.0000 0.0000 0.0000 0.0000 11.7207 0.0000
# 6 0.0000 0.0000 0.0000 0.0000 0.0000 18.6776
#
#
#
# Elastic Compliance Matrix: (Units=1/GPa)
#
#
# Indices 1 2 3 4 5 6 
#
# 1 0.012684 -0.015321 -0.001466 0.000000 0.000000 0.000000
# 2 -0.015321 0.029428 0.001704 0.000000 0.000000 0.000000
# 3 -0.001466 0.001704 0.019863 0.000000 0.000000 0.000000
# 4 0.000000 0.000000 0.000000 0.096809 0.000000 0.000000
# 5 0.000000 0.000000 0.000000 0.000000 0.085319 0.000000
# 6 0.000000 0.000000 0.000000 0.000000 0.000000 0.053540
#
#
# Mechanical properties :
#
#
# Convention : Reuss Voigt Hill
#
# Bulk Modulus (GPa) = 31.43690 65.54617 48.49154
# Shear Modulus (GPa) = 14.77484 24.03553 19.40519
#
# Velocity S-wave (km/s) = 2.79238 3.56156 3.20016
# Velocity P-wave (km/s) = 5.19493 7.17668 6.26467
#
# Compressibility (1/GPa) = 0.03180975
#
# Stress axis : x y z
#
# Youngs Moduli (GPa) = 78.84017 33.98102 50.34389
#
# Poissons Ratio (x) = 0.52062 0.07382
# Poissons Ratio (y) = 1.20791 -0.08580
# Poissons Ratio (z) = 0.11560 -0.05792
#
# Static dielectric constant tensor:
#      x y z
#    x 1.699010 0.000000 0.000000 
#    y 0.000000 1.615980 0.000000 
#    z 0.000000 0.000000 1.765440 
# 
# From -- ./inp_files/18886.got.cif
#   From: 2010.05.17/outbox.cif.g08.bks.cpg/sg65_10_cif.got.tgz:18886.got - 2010.06.03 17:01:31.
