data_PCOD9494305
_publ_section_title
;
Structure prediction by ZEFSAII (Michael W. Deem and Ramdas Pophale) SiO2 
 PCOD9494305
Probable space group: C M M M
;
_chemical_formula_sum "Si O2"
_cell_formula_units_Z 88
_cell_length_a 7.499521
_cell_length_b 28.288472
_cell_length_c 22.411272
_cell_angle_alpha 90.000000
_cell_angle_beta 90.000000
_cell_angle_gamma 90.000000
_cell_volume 4754.551127
_symmetry_space_group_name_H-M "C M M M"
_symmetry_group_IT_number 65
_symmetry_cell_setting 'orthorhombic'
loop_
_space_group_symop_operation_xyz
x,y,z
-x,-y,z
x,-y,-z
-x,y,-z
-x,-y,-z
x,y,-z
-x,y,z
x,-y,z
1/2+x,1/2+y,z
1/2-x,1/2-y,z
1/2+x,1/2-y,-z
1/2-x,1/2+y,-z
1/2-x,1/2-y,-z
1/2+x,1/2+y,-z
1/2-x,1/2+y,z
1/2+x,1/2-y,z
loop_
_atom_site_type_symbol
_atom_site_label
_atom_site_fract_x
_atom_site_fract_y
_atom_site_fract_z
Si Si1 0.783039 0.447172 0.129234
Si Si2 0.217764 0.648515 0.933592
Si Si3 0.282226 0.896696 0.250971
Si Si4 0.211292 0.946347 0.500000
Si Si5 0.211910 0.446039 0.369918
Si Si6 0.287055 0.196239 0.813489
O O1 0.720943 0.500000 0.115144
O O2 0.728871 0.404726 0.085468
O O3 0.732738 0.431308 0.196288
O O4 0.000000 0.447887 0.127840
O O5 0.278005 0.682684 0.880070
O O6 0.000000 0.649308 0.934141
O O7 0.278634 0.660608 0.000000
O O8 0.500000 0.896129 0.252446
O O9 0.218440 0.915800 0.314489
O O10 0.222109 0.844316 0.231700
O O11 0.261415 0.925128 0.563901
O O12 0.000000 0.949603 0.500000
O O13 0.288520 0.000000 0.500000
O O14 0.283979 0.500000 0.369218
O O15 0.000000 0.449654 0.361437
O O16 0.500000 0.190994 0.815468
O O17 0.250000 0.250000 0.797489
#
# Coordination Sequence:
#
# PCOD9494305 Si02
#       6
#    16  16  16   8  16  16
#     4   8  12  18  30  50  77 106 132 159 195 238
#     4   8  14  23  34  51  76 104 132 162 198 240
#     4   8  14  24  38  57  79 102 130 166 204 236
#     4   9  17  27  37  55  88 121 140 157 186 221
#     4   9  15  24  41  62  82 107 139 166 187 223
#     4   9  17  29  43  58  78 103 131 166 207 244
#
# _framework density 18.508582000000001
#
# number of rings (size 3 to 8) (size 9 to 14) (size 15 to 20)
#    0.000    3.545    0.000    3.000    0.000    4.000 
#    0.000    2.727    0.000    0.000    0.000    0.636 
#    0.000    6.545    0.000    6.545    0.000    7.273 
#
# Total GULP energy -245105.625040 kJ/mol
# GULP energy per Si atom -5570.582387 kJ/mol
# Density = 1.846646 g / cm^3
# Si number density = 18.508582 Si / 1000 Ang^3
#
#
#
# Elastic Constant Matrix: (Units=GPa)
#
#
# Indices 1 2 3 4 5 6 
#
# 1 48.2891 2.1816 5.7748 0.0000 0.0000 0.0000
# 2 2.1816 76.4522 29.8356 0.0000 0.0000 0.0000
# 3 5.7748 29.8356 131.7913 0.0000 0.0000 0.0000
# 4 0.0000 0.0000 0.0000 6.5959 0.0000 0.0000
# 5 0.0000 0.0000 0.0000 0.0000 -22.8450 0.0000
# 6 0.0000 0.0000 0.0000 0.0000 0.0000 7.3982
#
#
#
# Elastic Compliance Matrix: (Units=1/GPa)
#
#
# Indices 1 2 3 4 5 6 
#
# 1 0.020822 -0.000261 -0.000853 0.000000 0.000000 0.000000
# 2 -0.000261 0.014351 -0.003237 0.000000 0.000000 0.000000
# 3 -0.000853 -0.003237 0.008358 0.000000 0.000000 0.000000
# 4 0.000000 0.000000 0.000000 0.151610 0.000000 0.000000
# 5 0.000000 0.000000 0.000000 0.000000 -0.043773 0.000000
# 6 0.000000 0.000000 0.000000 0.000000 0.000000 0.135167
#
#
# Mechanical properties :
#
#
# Convention : Reuss Voigt Hill
#
# Bulk Modulus (GPa) = 28.71277 36.90184 32.80731
# Shear Modulus (GPa) = 16.29470 12.81252 14.55361
#
# Velocity S-wave (km/s) = 2.97035 2.63391 2.80718
# Velocity P-wave (km/s) = 5.22598 5.40657 5.31704
#
# Compressibility (1/GPa) = 0.03482771
#
# Stress axis : x y z
#
# Youngs Moduli (GPa) = 48.02509 69.68190 119.64523
#
# Poissons Ratio (x) = 0.01820 0.10209
# Poissons Ratio (y) = 0.01254 0.38734
# Poissons Ratio (z) = 0.04098 0.22559
#
# Static dielectric constant tensor:
#      x y z
#    x 1.725350 0.000000 0.000000 
#    y 0.000000 1.630510 0.000000 
#    z 0.000000 0.000000 1.651100 
# 
# From -- ./inp_files/60707.got.cif
#   From: 2010.05.17/outbox.cif.g08.bks.cpg/sg65_31_cif.got.tgz:60707.got - 2010.06.03 17:01:31.
