data_PCOD9494942
_publ_section_title
;
Structure prediction by ZEFSAII (Michael W. Deem and Ramdas Pophale) SiO2 
 PCOD9494942
Probable space group: C C C M
;
_chemical_formula_sum "Si O2"
_cell_formula_units_Z 104
_cell_length_a 18.245006
_cell_length_b 23.059808
_cell_length_c 14.724561
_cell_angle_alpha 90.000000
_cell_angle_beta 90.000000
_cell_angle_gamma 90.000000
_cell_volume 6195.010589
_symmetry_space_group_name_H-M "C C C M"
_symmetry_group_IT_number 66
_symmetry_cell_setting 'orthorhombic'
loop_
_space_group_symop_operation_xyz
x,y,z
-x,-y,z
x,-y,1/2-z
-x,y,1/2-z
-x,-y,-z
x,y,-z
-x,y,1/2+z
x,-y,1/2+z
1/2+x,1/2+y,z
1/2-x,1/2-y,z
1/2+x,1/2-y,1/2-z
1/2-x,1/2+y,1/2-z
1/2-x,1/2-y,-z
1/2+x,1/2+y,-z
1/2-x,1/2+y,1/2+z
1/2+x,1/2-y,1/2+z
loop_
_atom_site_type_symbol
_atom_site_label
_atom_site_fract_x
_atom_site_fract_y
_atom_site_fract_z
Si Si1 0.549306 0.148675 0.394186
Si Si2 0.779260 0.189820 0.655675
Si Si3 0.606893 0.090466 0.894914
Si Si4 0.421832 0.738201 0.272543
Si Si5 0.305820 0.203533 0.346578
Si Si6 0.169335 0.500000 0.750000
Si Si7 0.799611 0.419716 0.400941
O O1 0.546523 0.166537 0.500000
O O2 0.473051 0.117066 0.373063
O O3 0.562730 0.204204 0.331811
O O4 0.618417 0.105653 0.385002
O O5 0.750000 0.250000 0.613703
O O6 0.864683 0.197617 0.675063
O O7 0.736185 0.186882 0.752626
O O8 0.754381 0.134591 0.601334
O O9 0.665191 0.143949 0.889605
O O10 0.625028 0.041721 0.819814
O O11 0.604952 0.069381 0.000000
O O12 0.500000 0.711445 0.250000
O O13 0.377829 0.760627 0.184096
O O14 0.250000 0.250000 0.392111
O O15 0.216567 0.539035 0.682519
O O16 0.797577 0.447841 0.500000
#
# Coordination Sequence:
#
# PCOD9494942 Si02
#       7
#    16  16  16  16  16   8  16
#     4  10  20  31  46  73 102 136 182 218 250 303
#     4   9  17  31  51  80 101 133 173 211 263 320
#     4  11  22  35  52  72 101 143 185 219 258 305
#     4  10  16  28  52  76 105 139 162 201 267 317
#     4   9  17  31  51  75 101 129 169 213 264 317
#     4  12  24  39  50  70 105 146 188 224 251 296
#     4  11  22  36  53  75 104 139 179 221 261 301
#
# _framework density 16.787703
#
# number of rings (size 3 to 8) (size 9 to 14) (size 15 to 20)
#    0.000    2.154    6.154    0.462    0.000    2.462 
#    0.000    2.308    0.000    0.000    0.000    0.538 
#    0.000    1.231    0.000    0.000    0.000    0.000 
#
# Total GULP energy -289846.150548 kJ/mol
# GULP energy per Si atom -5573.964434 kJ/mol
# Density = 1.674949 g / cm^3
# Si number density = 16.787703 Si / 1000 Ang^3
#
#
#
# Elastic Constant Matrix: (Units=GPa)
#
#
# Indices 1 2 3 4 5 6 
#
# 1 100.8476 36.1838 22.9138 0.0000 0.0000 0.0000
# 2 36.1838 73.7177 41.0150 0.0000 0.0000 0.0000
# 3 22.9138 41.0150 82.9288 0.0000 0.0000 0.0000
# 4 0.0000 0.0000 0.0000 4.2927 0.0000 0.0000
# 5 0.0000 0.0000 0.0000 0.0000 7.9373 0.0000
# 6 0.0000 0.0000 0.0000 0.0000 0.0000 14.5574
#
#
#
# Elastic Compliance Matrix: (Units=1/GPa)
#
#
# Indices 1 2 3 4 5 6 
#
# 1 0.012054 -0.005606 -0.000558 0.000000 0.000000 0.000000
# 2 -0.005606 0.021323 -0.008997 0.000000 0.000000 0.000000
# 3 -0.000558 -0.008997 0.016662 0.000000 0.000000 0.000000
# 4 0.000000 0.000000 0.000000 0.232952 0.000000 0.000000
# 5 0.000000 0.000000 0.000000 0.000000 0.125988 0.000000
# 6 0.000000 0.000000 0.000000 0.000000 0.000000 0.068693
#
#
# Mechanical properties :
#
#
# Convention : Reuss Voigt Hill
#
# Bulk Modulus (GPa) = 50.71681 50.85770 50.78726
# Shear Modulus (GPa) = 9.71690 15.84958 12.78324
#
# Velocity S-wave (km/s) = 2.40846 3.07598 2.76246
# Velocity P-wave (km/s) = 6.16527 6.55560 6.36343
#
# Compressibility (1/GPa) = 0.01971733
#
# Stress axis : x y z
#
# Youngs Moduli (GPa) = 82.95830 46.89844 60.01578
#
# Poissons Ratio (x) = 0.26293 0.03348
# Poissons Ratio (y) = 0.46509 0.53994
# Poissons Ratio (z) = 0.04628 0.42193
#
# Static dielectric constant tensor:
#      x y z
#    x 1.571810 0.000000 0.000000 
#    y 0.000000 1.586620 0.000000 
#    z 0.000000 0.000000 1.606650 
# 
# From -- ./inp_files/30332.got.cif
#   From: 2010.05.17/outbox.cif.g08.bks.cpg/sg66_16_cif.got.tgz:30332.got - 2010.06.03 17:51:23.
