data_PCOD9494989
_publ_section_title
;
Structure prediction by ZEFSAII (Michael W. Deem and Ramdas Pophale) SiO2 
 PCOD9494989
Probable space group: C C C M
;
_chemical_formula_sum "Si O2"
_cell_formula_units_Z 80
_cell_length_a 28.352779
_cell_length_b 6.630816
_cell_length_c 15.441407
_cell_angle_alpha 90.000000
_cell_angle_beta 90.000000
_cell_angle_gamma 90.000000
_cell_volume 2903.016335
_symmetry_space_group_name_H-M "C C C M"
_symmetry_group_IT_number 66
_symmetry_cell_setting 'orthorhombic'
loop_
_space_group_symop_operation_xyz
x,y,z
-x,-y,z
x,-y,1/2-z
-x,y,1/2-z
-x,-y,-z
x,y,-z
-x,y,1/2+z
x,-y,1/2+z
1/2+x,1/2+y,z
1/2-x,1/2-y,z
1/2+x,1/2-y,1/2-z
1/2-x,1/2+y,1/2-z
1/2-x,1/2-y,-z
1/2+x,1/2+y,-z
1/2-x,1/2+y,1/2+z
1/2+x,1/2-y,1/2+z
loop_
_atom_site_type_symbol
_atom_site_label
_atom_site_fract_x
_atom_site_fract_y
_atom_site_fract_z
Si Si1 0.589460 0.827502 0.393367
Si Si2 0.188869 0.552025 0.899394
Si Si3 0.388393 0.634861 0.396675
Si Si4 0.487759 0.261435 0.103514
Si Si5 0.708466 0.512758 0.850415
O O1 0.589699 0.840239 0.500000
O O2 0.635039 0.956135 0.364400
O O3 0.602291 0.597010 0.369294
O O4 0.535073 0.851059 0.364799
O O5 0.235526 0.454015 0.858710
O O6 0.199353 0.794883 0.893708
O O7 0.188874 0.499833 0.000000
O O8 0.394393 0.643859 0.500000
O O9 0.434274 0.753809 0.361477
O O10 0.332438 0.662123 0.383297
O O11 0.500000 0.500000 0.112005
O O12 0.486095 0.220621 0.000000
O O13 0.698450 0.500000 0.750000
#
# Coordination Sequence:
#
# PCOD9494989 Si02
#       5
#    16  16  16  16  16
#     4   7  10  17  32  51  67  88 128 177 204 219
#     4   9  16  28  43  56  72 104 151 185 205 241
#     4   8  12  19  31  47  69  98 130 158 192 244
#     4   7   9  14  27  47  67  89 121 160 194 222
#     4  10  17  23  34  55  80 106 139 176 213 245
#
# _framework density 27.557542999999999
#
# number of rings (size 3 to 8) (size 9 to 14) (size 15 to 20)
#    0.000    3.800    0.000    6.000    0.000    0.000 
#    0.000    0.000    0.000   15.000    0.000   25.200 
#    0.000    0.000    0.000   14.400    0.000  125.200 
#
# Total GULP energy -223460.469265 kJ/mol
# GULP energy per Si atom -5586.511732 kJ/mol
# Density = 2.749482 g / cm^3
# Si number density = 27.557543 Si / 1000 Ang^3
#
#
#
# Elastic Constant Matrix: (Units=GPa)
#
#
# Indices 1 2 3 4 5 6 
#
# 1 351.9736 91.3300 13.6781 0.0000 0.0000 0.0000
# 2 91.3300 114.5906 5.7227 0.0000 0.0000 0.0000
# 3 13.6781 5.7227 57.1985 0.0000 0.0000 0.0000
# 4 0.0000 0.0000 0.0000 -6.2878 0.0000 0.0000
# 5 0.0000 0.0000 0.0000 0.0000 97.5170 0.0000
# 6 0.0000 0.0000 0.0000 0.0000 0.0000 200.3653
#
#
#
# Elastic Compliance Matrix: (Units=1/GPa)
#
#
# Indices 1 2 3 4 5 6 
#
# 1 0.003601 -0.002841 -0.000577 0.000000 0.000000 0.000000
# 2 -0.002841 0.011012 -0.000422 0.000000 0.000000 0.000000
# 3 -0.000577 -0.000422 0.017663 0.000000 0.000000 0.000000
# 4 0.000000 0.000000 0.000000 -0.159037 0.000000 0.000000
# 5 0.000000 0.000000 0.000000 0.000000 0.010255 0.000000
# 6 0.000000 0.000000 0.000000 0.000000 0.000000 0.004991
#
#
# Mechanical properties :
#
#
# Convention : Reuss Voigt Hill
#
# Bulk Modulus (GPa) = 40.65762 82.80269 61.73015
# Shear Modulus (GPa) = -52.28117 85.85436 16.78659
#
# Velocity S-wave (km/s) = -4.36037 5.58768 2.47077
# Velocity P-wave (km/s) = 3.25034 8.47007 5.53070
#
# Compressibility (1/GPa) = 0.02459564
#
# Stress axis : x y z
#
# Youngs Moduli (GPa) = 277.72210 90.80897 56.61495
#
# Poissons Ratio (x) = 0.25799 0.03266
# Poissons Ratio (y) = 0.78901 0.02391
# Poissons Ratio (z) = 0.16019 0.03836
#
# Static dielectric constant tensor:
#      x y z
#    x 2.122170 0.000000 0.000000 
#    y 0.000000 2.289450 0.000000 
#    z 0.000000 0.000000 2.012970 
# 
# From -- ./inp_files/26836.got.cif
#   From: 2010.05.17/outbox.cif.g08.bks.cpg/sg66_14_cif.got.tgz:26836.got - 2010.06.03 17:51:23.
