data_PCOD9494024
_publ_section_title
;
Structure prediction by ZEFSAII (Michael W. Deem and Ramdas Pophale) SiO2 
 PCOD9494024
Probable space group: C M M M
;
_chemical_formula_sum "Si O2"
_cell_formula_units_Z 120
_cell_length_a 14.266424
_cell_length_b 25.435914
_cell_length_c 22.021051
_cell_angle_alpha 90.000000
_cell_angle_beta 90.000000
_cell_angle_gamma 90.000000
_cell_volume 7990.988724
_symmetry_space_group_name_H-M "C M M M"
_symmetry_group_IT_number 65
_symmetry_cell_setting 'orthorhombic'
loop_
_space_group_symop_operation_xyz
x,y,z
-x,-y,z
x,-y,-z
-x,y,-z
-x,-y,-z
x,y,-z
-x,y,z
x,-y,z
1/2+x,1/2+y,z
1/2-x,1/2-y,z
1/2+x,1/2-y,-z
1/2-x,1/2+y,-z
1/2-x,1/2-y,-z
1/2+x,1/2+y,-z
1/2-x,1/2+y,z
1/2+x,1/2-y,z
loop_
_atom_site_type_symbol
_atom_site_label
_atom_site_fract_x
_atom_site_fract_y
_atom_site_fract_z
Si Si1 0.104812 0.563898 0.689879
Si Si2 0.389916 0.437075 0.000000
Si Si3 0.293147 0.436708 0.757670
Si Si4 0.203109 0.118099 0.883902
Si Si5 0.107852 0.657627 0.926978
Si Si6 0.111973 0.219606 0.929943
Si Si7 0.793125 0.564037 0.567983
Si Si8 0.604888 0.436244 0.366713
O O1 0.103674 0.500000 0.689989
O O2 0.188428 0.578751 0.735395
O O3 0.136936 0.580018 0.621988
O O4 0.000000 0.582253 0.704477
O O5 0.342390 0.413319 0.059991
O O6 0.381487 0.500000 0.000000
O O7 0.500000 0.422916 0.000000
O O8 0.295266 0.500000 0.765110
O O9 0.317999 0.409062 0.820257
O O10 0.361828 0.423369 0.701652
O O11 0.314441 0.122643 0.894886
O O12 0.161963 0.176906 0.888739
O O13 0.128004 0.719376 0.914813
O O14 0.000000 0.646646 0.910123
O O15 0.115596 0.651160 0.000000
O O16 0.000000 0.211490 0.928457
O O17 0.143386 0.211117 0.000000
O O18 0.816271 0.581702 0.500000
O O19 0.793945 0.500000 0.567665
O O20 0.688189 0.580360 0.588173
O O21 0.500000 0.417191 0.379887
O O22 0.603070 0.500000 0.369755
#
# Coordination Sequence:
#
# PCOD9494024 Si02
#       8
#    16   8  16  16  16  16  16  16
#     4   8  14  26  40  51  70 102 137 172 206 237
#     4  11  24  36  44  61  87 109 134 174 218 255
#     4   9  19  30  39  55  77 106 146 181 201 230
#     4  12  19  30  49  64  81 110 139 169 213 259
#     4   9  18  32  49  69  87 101 123 162 211 265
#     4   9  17  30  48  69  88 102 124 161 209 265
#     4   8  13  20  32  54  77  93 121 168 214 250
#     4   8  14  25  37  48  69 103 138 169 200 233
#
# _framework density 15.016914
#
# number of rings (size 3 to 8) (size 9 to 14) (size 15 to 20)
#    0.000    2.867    1.333    3.600    0.000    3.200 
#    0.000    4.000    0.000    1.600    0.000    0.000 
#    0.000    0.000    0.000    0.000    0.000   42.667 
#
# Total GULP energy -334149.286272 kJ/mol
# GULP energy per Si atom -5569.154771 kJ/mol
# Density = 1.498274 g / cm^3
# Si number density = 15.016914 Si / 1000 Ang^3
#
#
#
# Elastic Constant Matrix: (Units=GPa)
#
#
# Indices 1 2 3 4 5 6 
#
# 1 45.5362 5.1223 -5.5557 0.0000 0.0000 0.0000
# 2 5.1223 12.4466 2.5376 0.0000 0.0000 0.0000
# 3 -5.5557 2.5376 50.6851 0.0000 0.0000 0.0000
# 4 0.0000 0.0000 0.0000 2.3334 0.0000 0.0000
# 5 0.0000 0.0000 0.0000 0.0000 4.7027 0.0000
# 6 0.0000 0.0000 0.0000 0.0000 0.0000 14.2927
#
#
#
# Elastic Compliance Matrix: (Units=1/GPa)
#
#
# Indices 1 2 3 4 5 6 
#
# 1 0.023496 -0.010300 0.003091 0.000000 0.000000 0.000000
# 2 -0.010300 0.085687 -0.005419 0.000000 0.000000 0.000000
# 3 0.003091 -0.005419 0.020340 0.000000 0.000000 0.000000
# 4 0.000000 0.000000 0.000000 0.428564 0.000000 0.000000
# 5 0.000000 0.000000 0.000000 0.000000 0.212645 0.000000
# 6 0.000000 0.000000 0.000000 0.000000 0.000000 0.069966
#
#
# Mechanical properties :
#
#
# Convention : Reuss Voigt Hill
#
# Bulk Modulus (GPa) = 9.59069 12.54177 11.06623
# Shear Modulus (GPa) = 5.55119 11.37000 8.46059
#
# Velocity S-wave (km/s) = 1.92475 2.75461 2.37619
# Velocity P-wave (km/s) = 3.36749 4.29966 3.86181
#
# Compressibility (1/GPa) = 0.10426775
#
# Stress axis : x y z
#
# Youngs Moduli (GPa) = 42.55986 11.67040 49.16466
#
# Poissons Ratio (x) = 0.12020 -0.15198
# Poissons Ratio (y) = 0.43836 0.26642
# Poissons Ratio (z) = -0.13156 0.06324
#
# Static dielectric constant tensor:
#      x y z
#    x 1.537910 0.000000 0.000000 
#    y 0.000000 1.469990 0.000000 
#    z 0.000000 0.000000 1.487690 
# 
# From -- ./inp_files/63132.got.cif
#   From: 2010.05.17/outbox.cif.g08.bks.cpg/sg65_32_cif.got.tgz:63132.got - 2010.06.03 17:01:31.
