data_PCOD9494627
_publ_section_title
;
Structure prediction by ZEFSAII (Michael W. Deem and Ramdas Pophale) SiO2 
 PCOD9494627
Probable space group: C M M M
;
_chemical_formula_sum "Si O2"
_cell_formula_units_Z 40
_cell_length_a 18.000000
_cell_length_b 9.000000
_cell_length_c 27.000000
_cell_angle_alpha 90.000000
_cell_angle_beta 90.000000
_cell_angle_gamma 90.000000
_cell_volume 4374.000000
_symmetry_space_group_name_H-M "C M M M"
_symmetry_group_IT_number 65
_symmetry_cell_setting 'orthorhombic'
loop_
_space_group_symop_operation_xyz
x,y,z
-x,-y,z
x,-y,-z
-x,y,-z
-x,-y,-z
x,y,-z
-x,y,z
x,-y,z
1/2+x,1/2+y,z
1/2-x,1/2-y,z
1/2+x,1/2-y,-z
1/2-x,1/2+y,-z
1/2-x,1/2-y,-z
1/2+x,1/2+y,-z
1/2-x,1/2+y,z
1/2+x,1/2-y,z
loop_
_atom_site_type_symbol
_atom_site_label
_atom_site_fract_x
_atom_site_fract_y
_atom_site_fract_z
Si Si1 0.168353 0.677662 0.892189
Si Si2 0.411283 0.172786 0.500000
Si Si3 0.585450 0.680679 0.691879
Si Si4 0.089525 0.172467 0.198982
Si Si5 0.168267 0.678430 0.000000
Si Si6 0.830747 0.179231 0.407883
O O1 0.174943 0.500000 0.889908
O O2 0.250000 0.750000 0.889412
O O3 0.121274 0.735961 0.846378
O O4 0.134648 0.718823 0.946494
O O5 0.500000 0.176004 0.500000
O O6 0.380827 0.256056 0.548259
O O7 0.386726 0.000000 0.500000
O O8 0.500000 0.729724 0.684776
O O9 0.583949 0.500000 0.693617
O O10 0.612698 0.728381 0.746310
O O11 0.634859 0.723306 0.645278
O O12 0.000000 0.175886 0.198936
O O13 0.112658 0.000000 0.193621
O O14 0.250000 0.750000 0.000000
O O15 0.175569 0.500000 0.000000
O O16 0.750000 0.250000 0.413189
O O17 0.827890 0.000000 0.410740
#
# Coordination Sequence:
#
# PCOD9494627 Si02
#       6
#    16   8  16  16   8  16
#     4  10  19  32  51  74 100 131 171 215 260 311
#     4  11  24  41  60  83 111 141 176 219 264 309
#     4   8  16  33  56  78 101 135 177 216 256 306
#     4   9  18  34  54  76 105 138 171 211 259 308
#     4   8  16  30  47  68  95 129 167 211 259 306
#     4  11  22  37  58  83 112 143 177 216 259 307
#
# _framework density 9.1449470000000002
#
# number of rings (size 3 to 8) (size 9 to 14) (size 15 to 20)
#    0.000    2.500    0.000    3.600    0.000    3.600 
#    0.000    4.500    0.000    5.400    0.000    0.000 
#    0.000    0.000    0.000    0.000    0.000    0.000 
#
# Total GULP energy -222999.779110 kJ/mol
# GULP energy per Si atom -5574.994478 kJ/mol
# Density = 0.912413 g / cm^3
# Si number density = 9.144947 Si / 1000 Ang^3
#
#
#
# Elastic Constant Matrix: (Units=GPa)
#
#
# Indices 1 2 3 4 5 6 
#
# 1 45.4585 25.7902 53.2243 0.0000 0.0000 0.0000
# 2 25.7902 61.6647 56.4592 0.0000 0.0000 0.0000
# 3 53.2243 56.4592 191.5287 0.0000 0.0000 0.0000
# 4 0.0000 0.0000 0.0000 -1.5446 0.0000 0.0000
# 5 0.0000 0.0000 0.0000 0.0000 29.6411 0.0000
# 6 0.0000 0.0000 0.0000 0.0000 0.0000 17.1710
#
#
#
# Elastic Compliance Matrix: (Units=1/GPa)
#
#
# Indices 1 2 3 4 5 6 
#
# 1 0.035209 -0.007899 -0.007456 0.000000 0.000000 0.000000
# 2 -0.007899 0.023984 -0.004875 0.000000 0.000000 0.000000
# 3 -0.007456 -0.004875 0.008730 0.000000 0.000000 0.000000
# 4 0.000000 0.000000 0.000000 -0.647415 0.000000 0.000000
# 5 0.000000 0.000000 0.000000 0.000000 0.033737 0.000000
# 6 0.000000 0.000000 0.000000 0.000000 0.000000 0.058238
#
#
# Mechanical properties :
#
#
# Convention : Reuss Voigt Hill
#
# Bulk Modulus (GPa) = 36.41232 63.28881 49.85056
# Shear Modulus (GPa) = -11.41804 19.93204 4.25700
#
# Velocity S-wave (km/s) = -2.50127 3.30477 1.52727
# Velocity P-wave (km/s) = 3.40732 7.01714 5.51589
#
# Compressibility (1/GPa) = 0.02746323
#
# Stress axis : x y z
#
# Youngs Moduli (GPa) = 28.40185 41.69486 114.54659
#
# Poissons Ratio (x) = 0.32935 0.85403
# Poissons Ratio (y) = 0.22435 0.55840
# Poissons Ratio (z) = 0.21176 0.20326
#
# Static dielectric constant tensor:
#      x y z
#    x 1.614090 0.000000 0.000000 
#    y 0.000000 1.617100 0.000000 
#    z 0.000000 0.000000 1.657260 
# 
# From -- ./inp_files/75071.got.cif
#   From: 2010.05.17/outbox.ucp.g08.bks.cvg/sg65_38_cif.got.tgz:75071.got - 2010.06.11 16:39:57.
