data_PCOD9494735
_publ_section_title
;
Structure prediction by ZEFSAII (Michael W. Deem and Ramdas Pophale) SiO2 
 PCOD9494735
Probable space group: C M M M
;
_chemical_formula_sum "Si O2"
_cell_formula_units_Z 52
_cell_length_a 24.000000
_cell_length_b 27.000000
_cell_length_c 9.000000
_cell_angle_alpha 90.000000
_cell_angle_beta 90.000000
_cell_angle_gamma 90.000000
_cell_volume 5832.000000
_symmetry_space_group_name_H-M "C M M M"
_symmetry_group_IT_number 65
_symmetry_cell_setting 'orthorhombic'
loop_
_space_group_symop_operation_xyz
x,y,z
-x,-y,z
x,-y,-z
-x,y,-z
-x,-y,-z
x,y,-z
-x,y,z
x,-y,z
1/2+x,1/2+y,z
1/2-x,1/2-y,z
1/2+x,1/2-y,-z
1/2-x,1/2+y,-z
1/2-x,1/2-y,-z
1/2+x,1/2+y,-z
1/2-x,1/2+y,z
1/2+x,1/2-y,z
loop_
_atom_site_type_symbol
_atom_site_label
_atom_site_fract_x
_atom_site_fract_y
_atom_site_fract_z
Si Si1 0.747969 0.191841 0.179258
Si Si2 0.932342 0.000000 0.329188
Si Si3 0.866978 0.360576 0.175183
Si Si4 0.567012 0.399324 0.829060
Si Si5 0.137314 0.817984 0.674742
Si Si6 0.562652 0.057535 0.321430
Si Si7 0.436011 0.763836 0.175639
O O1 0.750000 0.250000 0.221544
O O2 0.691231 0.164254 0.226284
O O3 0.803994 0.170109 0.248349
O O4 0.750307 0.189903 0.000000
O O5 0.915881 0.952097 0.236332
O O6 0.912650 0.000000 0.500000
O O7 0.000000 0.000000 0.335138
O O8 0.888668 0.408872 0.257121
O O9 0.915892 0.319970 0.192080
O O10 0.860763 0.370630 0.000000
O O11 0.500000 0.396021 0.826475
O O12 0.593252 0.359207 0.722126
O O13 0.584727 0.392278 0.000000
O O14 0.144585 0.814404 0.500000
O O15 0.109337 0.768506 0.739347
O O16 0.563397 0.060615 0.500000
O O17 0.500000 0.073125 0.272091
O O18 0.569404 0.000000 0.280202
O O19 0.500000 0.756222 0.224144
O O20 0.433035 0.751004 0.000000
#
# Coordination Sequence:
#
# PCOD9494735 Si02
#       7
#    16   8  16  16  16  16  16
#     4  10  20  39  61  77 103 144 186 226 272 328
#     4   9  17  31  53  81 111 139 171 217 270 321
#     4  10  20  35  59  85 107 140 187 236 276 321
#     4  10  20  35  56  80 108 145 185 222 269 329
#     4  12  24  35  52  79 111 143 182 230 276 325
#     4   9  19  36  57  83 118 156 186 219 276 344
#     4  10  20  35  54  78 111 147 181 219 271 333
#
# _framework density 8.9163239999999995
#
# number of rings (size 3 to 8) (size 9 to 14) (size 15 to 20)
#    0.000    1.923    1.538    3.462    0.000    6.769 
#    0.000    0.769    1.692    0.000    0.000    0.000 
#    0.000    0.000    0.000    0.000    0.000    0.000 
#
# Total GULP energy -290047.746929 kJ/mol
# GULP energy per Si atom -5577.841287 kJ/mol
# Density = 0.889603 g / cm^3
# Si number density = 8.916324 Si / 1000 Ang^3
#
#
#
# Elastic Constant Matrix: (Units=GPa)
#
#
# Indices 1 2 3 4 5 6 
#
# 1 99.8183 35.1740 34.8497 0.0000 0.0000 0.0000
# 2 35.1740 69.1851 30.4135 0.0000 0.0000 0.0000
# 3 34.8497 30.4135 5.2296 0.0000 0.0000 0.0000
# 4 0.0000 0.0000 0.0000 31.0111 0.0000 0.0000
# 5 0.0000 0.0000 0.0000 0.0000 21.1292 0.0000
# 6 0.0000 0.0000 0.0000 0.0000 0.0000 22.5892
#
#
#
# Elastic Compliance Matrix: (Units=1/GPa)
#
#
# Indices 1 2 3 4 5 6 
#
# 1 0.007806 -0.012141 0.018591 0.000000 0.000000 0.000000
# 2 -0.012141 0.009598 0.025087 0.000000 0.000000 0.000000
# 3 0.018591 0.025087 -0.078570 0.000000 0.000000 0.000000
# 4 0.000000 0.000000 0.000000 0.032247 0.000000 0.000000
# 5 0.000000 0.000000 0.000000 0.000000 0.047328 0.000000
# 6 0.000000 0.000000 0.000000 0.000000 0.000000 0.044269
#
#
# Mechanical properties :
#
#
# Convention : Reuss Voigt Hill
#
# Bulk Modulus (GPa) = 523.94592 41.67861 282.81227
# Shear Modulus (GPa) = 20967.67731 19.86562 10493.77146
#
# Velocity S-wave (km/s) = 108.55208 3.34129 76.79426
# Velocity P-wave (km/s) = 126.51425 6.18938 89.56608
#
# Compressibility (1/GPa) = 0.00190859
#
# Stress axis : x y z
#
# Youngs Moduli (GPa) = 128.11069 104.18660 -12.72748
#
# Poissons Ratio (x) = 1.26493 0.23662
# Poissons Ratio (y) = 1.55539 0.31930
# Poissons Ratio (z) = -2.38171 -2.61377
#
# Static dielectric constant tensor:
#      x y z
#    x 1.604080 0.000000 0.000000 
#    y 0.000000 1.512820 0.000000 
#    z 0.000000 0.000000 1.600240 
# 
# From -- ./inp_files/12410.got.cif
#   From: 2010.05.17/outbox.ucp.g08.bks.cvg/sg65_7_cif.got.tgz:12410.got - 2010.06.11 16:39:57.
