data_PCOD9494129
_publ_section_title
;
Structure prediction by ZEFSAII (Michael W. Deem and Ramdas Pophale) SiO2 
 PCOD9494129
Probable space group: C M M M
;
_chemical_formula_sum "Si O2"
_cell_formula_units_Z 68
_cell_length_a 19.954160
_cell_length_b 14.744166
_cell_length_c 12.425747
_cell_angle_alpha 90.000000
_cell_angle_beta 90.000000
_cell_angle_gamma 90.000000
_cell_volume 3655.747307
_symmetry_space_group_name_H-M "C M M M"
_symmetry_group_IT_number 65
_symmetry_cell_setting 'orthorhombic'
loop_
_space_group_symop_operation_xyz
x,y,z
-x,-y,z
x,-y,-z
-x,y,-z
-x,-y,-z
x,y,-z
-x,y,z
x,-y,z
1/2+x,1/2+y,z
1/2-x,1/2-y,z
1/2+x,1/2-y,-z
1/2-x,1/2+y,-z
1/2-x,1/2-y,-z
1/2+x,1/2+y,-z
1/2-x,1/2+y,z
1/2+x,1/2-y,z
loop_
_atom_site_type_symbol
_atom_site_label
_atom_site_fract_x
_atom_site_fract_y
_atom_site_fract_z
Si Si1 0.307200 0.825402 0.237219
Si Si2 0.000000 0.000000 0.000000
Si Si3 0.231707 0.500000 0.374083
Si Si4 0.107170 0.163546 0.000000
Si Si5 0.234676 0.390713 0.000000
Si Si6 0.113520 0.000000 0.684649
Si Si7 0.422871 0.698002 0.767253
Si Si8 0.500000 0.500000 0.500000
O O1 0.250000 0.750000 0.251673
O O2 0.293999 0.912156 0.310608
O O3 0.374237 0.774591 0.278116
O O4 0.299609 0.855434 0.110846
O O5 0.941038 0.922980 0.000000
O O6 0.214105 0.500000 0.500000
O O7 0.312150 0.500000 0.361473
O O8 0.086262 0.215190 0.893362
O O9 0.186730 0.140778 0.000000
O O10 0.234034 0.500000 0.000000
O O11 0.102333 0.905738 0.749082
O O12 0.058129 0.000000 0.592971
O O13 0.500000 0.702701 0.732879
#
# Coordination Sequence:
#
# PCOD9494129 Si02
#       8
#    16   2   8   8   8   8  16   2
#     4  12  24  42  68  99 128 175 222 263 327 385
#     4  12  20  26  48 100 136 172 190 226 344 396
#     4  12  26  46  67  97 131 165 226 280 316 374
#     4  12  21  31  58  96 137 165 198 249 322 401
#     4  12  22  39  66  93 137 172 212 268 317 392
#     4  12  23  41  66  94 134 169 202 266 332 397
#     4  12  24  40  63  98 135 169 211 260 325 395
#     4  12  24  42  60  98 140 170 198 254 364 398
#
# _framework density 18.600847999999999
#
# number of rings (size 3 to 8) (size 9 to 14) (size 15 to 20)
#    0.000    0.000    9.412    1.765    0.000    0.471 
#    2.118    0.588    0.000    1.412    0.000    0.000 
#    0.000    0.000    0.000    0.000    0.000    0.000 
#
# Total GULP energy -189284.906896 kJ/mol
# GULP energy per Si atom -5567.203144 kJ/mol
# Density = 1.855851 g / cm^3
# Si number density = 18.600848 Si / 1000 Ang^3
#
#
#
# Elastic Constant Matrix: (Units=GPa)
#
#
# Indices 1 2 3 4 5 6 
#
# 1 113.8880 65.1775 20.6845 0.0000 0.0000 0.0000
# 2 65.1775 144.2722 49.7800 0.0000 0.0000 0.0000
# 3 20.6845 49.7800 105.5217 0.0000 0.0000 0.0000
# 4 0.0000 0.0000 0.0000 -5.5891 0.0000 0.0000
# 5 0.0000 0.0000 0.0000 0.0000 14.6031 0.0000
# 6 0.0000 0.0000 0.0000 0.0000 0.0000 50.8836
#
#
#
# Elastic Compliance Matrix: (Units=1/GPa)
#
#
# Indices 1 2 3 4 5 6 
#
# 1 0.011847 -0.005436 0.000242 0.000000 0.000000 0.000000
# 2 -0.005436 0.010773 -0.004017 0.000000 0.000000 0.000000
# 3 0.000242 -0.004017 0.011324 0.000000 0.000000 0.000000
# 4 0.000000 0.000000 0.000000 -0.178921 0.000000 0.000000
# 5 0.000000 0.000000 0.000000 0.000000 0.068479 0.000000
# 6 0.000000 0.000000 0.000000 0.000000 0.000000 0.019653
#
#
# Mechanical properties :
#
#
# Convention : Reuss Voigt Hill
#
# Bulk Modulus (GPa) = 64.41759 70.55175 67.48467
# Shear Modulus (GPa) = -150.37923 27.18219 -61.59852
#
# Velocity S-wave (km/s) = -9.00116 3.82690 -5.76089
# Velocity P-wave (km/s) = 8.56277 7.58541 2.80915
#
# Compressibility (1/GPa) = 0.01552371
#
# Stress axis : x y z
#
# Youngs Moduli (GPa) = 84.40610 92.82495 88.30693
#
# Poissons Ratio (x) = 0.50458 -0.02137
# Poissons Ratio (y) = 0.45881 0.35470
# Poissons Ratio (z) = -0.02043 0.37284
#
# Static dielectric constant tensor:
#      x y z
#    x 1.667060 0.000000 0.000000 
#    y 0.000000 1.664610 0.000000 
#    z 0.000000 0.000000 1.680420 
# 
# From -- ./inp_files/28401.got.cif
#   From: 2010.05.17/outbox.cif.g08.bks.cpg/sg65_15_cif.got.tgz:28401.got - 2010.06.03 17:01:31.
