data_PCOD9494929
_publ_section_title
;
Structure prediction by ZEFSAII (Michael W. Deem and Ramdas Pophale) SiO2 
 PCOD9494929
Probable space group: C C C M
;
_chemical_formula_sum "Si O2"
_cell_formula_units_Z 56
_cell_length_a 17.865807
_cell_length_b 23.977680
_cell_length_c 5.676495
_cell_angle_alpha 90.000000
_cell_angle_beta 90.000000
_cell_angle_gamma 90.000000
_cell_volume 2431.700352
_symmetry_space_group_name_H-M "C C C M"
_symmetry_group_IT_number 66
_symmetry_cell_setting 'orthorhombic'
loop_
_space_group_symop_operation_xyz
x,y,z
-x,-y,z
x,-y,1/2-z
-x,y,1/2-z
-x,-y,-z
x,y,-z
-x,y,1/2+z
x,-y,1/2+z
1/2+x,1/2+y,z
1/2-x,1/2-y,z
1/2+x,1/2-y,1/2-z
1/2-x,1/2+y,1/2-z
1/2-x,1/2-y,-z
1/2+x,1/2+y,-z
1/2-x,1/2+y,1/2+z
1/2+x,1/2-y,1/2+z
loop_
_atom_site_type_symbol
_atom_site_label
_atom_site_fract_x
_atom_site_fract_y
_atom_site_fract_z
Si Si1 0.413024 0.801303 0.000000
Si Si2 0.084733 0.522250 0.500000
Si Si3 0.186073 0.203010 0.500000
Si Si4 0.241208 0.898819 0.248122
Si Si5 0.123525 0.000000 0.250000
Si Si6 0.083302 0.654643 0.500000
O O1 0.391154 0.736314 0.000000
O O2 0.382101 0.825409 0.249614
O O3 0.500460 0.816801 0.000000
O O4 0.119172 0.500000 0.750000
O O5 0.072236 0.588596 0.500000
O O6 0.000000 0.500000 0.500000
O O7 0.250000 0.250000 0.500000
O O8 0.200193 0.160653 0.284359
O O9 0.280384 0.902171 0.500000
O O10 0.178386 0.946584 0.250605
O O11 0.283734 0.906642 0.000000
O O12 0.082808 0.000301 0.500000
#
# Coordination Sequence:
#
# PCOD9494929 Si02
#       6
#     8   8   8  16   8   8
#     4  10  20  34  52  71 108 134 177 212 250 323
#     4  10  16  26  50  81  96 121 170 232 253 310
#     4  10  22  34  50  79 108 139 171 207 264 316
#     4   8  16  28  45  69  93 123 166 204 239 292
#     4   8  12  24  44  66  84 119 156 215 232 274
#     4  10  20  36  53  79  98 143 175 215 271 306
#
# _framework density 23.029153999999998
#
# number of rings (size 3 to 8) (size 9 to 14) (size 15 to 20)
#    0.857    2.000    0.000    4.286    2.000    0.571 
#    0.000    0.000    0.000    0.000   22.286    0.000 
#    0.000   13.714    0.000    0.000    0.000    0.000 
#
# Total GULP energy -156043.876363 kJ/mol
# GULP energy per Si atom -5572.995584 kJ/mol
# Density = 2.297674 g / cm^3
# Si number density = 23.029154 Si / 1000 Ang^3
#
#
#
# Elastic Constant Matrix: (Units=GPa)
#
#
# Indices 1 2 3 4 5 6 
#
# 1 74.6043 48.3036 24.0964 0.0000 0.0000 0.0000
# 2 48.3036 179.5709 22.3713 0.0000 0.0000 0.0000
# 3 24.0964 22.3713 278.4517 0.0000 0.0000 0.0000
# 4 0.0000 0.0000 0.0000 42.7166 0.0000 0.0000
# 5 0.0000 0.0000 0.0000 0.0000 22.8015 0.0000
# 6 0.0000 0.0000 0.0000 0.0000 0.0000 88.2085
#
#
#
# Elastic Compliance Matrix: (Units=1/GPa)
#
#
# Indices 1 2 3 4 5 6 
#
# 1 0.016549 -0.004316 -0.001085 0.000000 0.000000 0.000000
# 2 -0.004316 0.006751 -0.000169 0.000000 0.000000 0.000000
# 3 -0.001085 -0.000169 0.003699 0.000000 0.000000 0.000000
# 4 0.000000 0.000000 0.000000 0.023410 0.000000 0.000000
# 5 0.000000 0.000000 0.000000 0.000000 0.043857 0.000000
# 6 0.000000 0.000000 0.000000 0.000000 0.000000 0.011337
#
#
# Mechanical properties :
#
#
# Convention : Reuss Voigt Hill
#
# Bulk Modulus (GPa) = 63.06049 80.24105 71.65077
# Shear Modulus (GPa) = 40.97352 59.93569 50.45460
#
# Velocity S-wave (km/s) = 4.22263 5.10710 4.68578
# Velocity P-wave (km/s) = 7.15657 8.34839 7.77535
#
# Compressibility (1/GPa) = 0.01585779
#
# Stress axis : x y z
#
# Youngs Moduli (GPa) = 60.42524 148.12679 270.35975
#
# Poissons Ratio (x) = 0.63939 0.29343
# Poissons Ratio (y) = 0.26082 0.04565
# Poissons Ratio (z) = 0.06558 0.02501
#
# Static dielectric constant tensor:
#      x y z
#    x 1.819410 0.000000 0.000000 
#    y 0.000000 1.831390 0.000000 
#    z 0.000000 0.000000 1.996760 
# 
# From -- ./inp_files/1192.got.cif
#   From: 2010.05.17/outbox.cif.g08.bks.cpg/sg66_1_cif.got.tgz:1192.got - 2010.06.03 17:51:23.
