data_PCOD9494352
_publ_section_title
;
Structure prediction by ZEFSAII (Michael W. Deem and Ramdas Pophale) SiO2 
 PCOD9494352
Probable space group: C M M M
;
_chemical_formula_sum "Si O2"
_cell_formula_units_Z 80
_cell_length_a 14.469046
_cell_length_b 15.023371
_cell_length_c 16.289898
_cell_angle_alpha 90.000000
_cell_angle_beta 90.000000
_cell_angle_gamma 90.000000
_cell_volume 3540.997780
_symmetry_space_group_name_H-M "C M M M"
_symmetry_group_IT_number 65
_symmetry_cell_setting 'orthorhombic'
loop_
_space_group_symop_operation_xyz
x,y,z
-x,-y,z
x,-y,-z
-x,y,-z
-x,-y,-z
x,y,-z
-x,y,z
x,-y,z
1/2+x,1/2+y,z
1/2-x,1/2-y,z
1/2+x,1/2-y,-z
1/2-x,1/2+y,-z
1/2-x,1/2-y,-z
1/2+x,1/2+y,-z
1/2-x,1/2+y,z
1/2+x,1/2-y,z
loop_
_atom_site_type_symbol
_atom_site_label
_atom_site_fract_x
_atom_site_fract_y
_atom_site_fract_z
Si Si1 0.366891 0.099317 0.306918
Si Si2 0.146985 0.898312 0.731406
Si Si3 0.861975 0.236743 0.592304
Si Si4 0.098800 0.392231 0.119994
Si Si5 0.807547 0.890892 0.910669
O O1 0.256182 0.098520 0.291001
O O2 0.394619 0.168230 0.375648
O O3 0.402751 0.123458 0.217212
O O4 0.394605 0.000000 0.327930
O O5 0.109152 0.834486 0.661016
O O6 0.143130 0.863352 0.825644
O O7 0.112295 0.000000 0.728533
O O8 0.889359 0.213566 0.500000
O O9 0.750000 0.250000 0.592347
O O10 0.100320 0.500000 0.107075
O O11 0.199749 0.360664 0.091294
O O12 0.000000 0.359397 0.087353
O O13 0.806399 0.000000 0.906310
O O14 0.847045 0.866223 0.000000
#
# Coordination Sequence:
#
# PCOD9494352 Si02
#       5
#    16  16  16  16  16
#     4   8  14  24  36  50  72 100 126 154 188 222
#     4   8  14  24  36  51  74 100 124 154 189 223
#     4   9  16  24  36  53  70  93 127 160 188 224
#     4   8  13  21  34  51  70  96 128 157 187 222
#     4   8  13  21  34  53  76 101 128 156 187 224
#
# _framework density 22.592502
#
# number of rings (size 3 to 8) (size 9 to 14) (size 15 to 20)
#    0.000    3.800    0.000    2.400    0.000    1.200 
#    0.000    6.000    0.000   15.600    0.000    2.800 
#    0.000    0.800    0.000    2.400    0.000   10.800 
#
# Total GULP energy -222942.600850 kJ/mol
# GULP energy per Si atom -5573.565021 kJ/mol
# Density = 2.254108 g / cm^3
# Si number density = 22.592502 Si / 1000 Ang^3
#
#
#
# Elastic Constant Matrix: (Units=GPa)
#
#
# Indices 1 2 3 4 5 6 
#
# 1 54.7917 3.0011 15.4519 0.0000 0.0000 0.0000
# 2 3.0011 53.4128 85.2725 0.0000 0.0000 0.0000
# 3 15.4519 85.2725 227.1261 0.0000 0.0000 0.0000
# 4 0.0000 0.0000 0.0000 8.0645 0.0000 0.0000
# 5 0.0000 0.0000 0.0000 0.0000 -40.2907 0.0000
# 6 0.0000 0.0000 0.0000 0.0000 0.0000 -13.4512
#
#
#
# Elastic Compliance Matrix: (Units=1/GPa)
#
#
# Indices 1 2 3 4 5 6 
#
# 1 0.018736 0.002452 -0.002195 0.000000 0.000000 0.000000
# 2 0.002452 0.047054 -0.017833 0.000000 0.000000 0.000000
# 3 -0.002195 -0.017833 0.011247 0.000000 0.000000 0.000000
# 4 0.000000 0.000000 0.000000 0.124000 0.000000 0.000000
# 5 0.000000 0.000000 0.000000 0.000000 -0.024820 0.000000
# 6 0.000000 0.000000 0.000000 0.000000 0.000000 -0.074343
#
#
# Mechanical properties :
#
#
# Convention : Reuss Voigt Hill
#
# Bulk Modulus (GPa) = 23.87505 60.30908 42.09207
# Shear Modulus (GPa) = 33.11510 6.30486 19.70998
#
# Velocity S-wave (km/s) = 3.83267 1.67235 2.95687
# Velocity P-wave (km/s) = 5.49331 5.52098 5.50716
#
# Compressibility (1/GPa) = 0.04188473
#
# Stress axis : x y z
#
# Youngs Moduli (GPa) = 53.37408 21.25212 88.90965
#
# Poissons Ratio (x) = -0.05210 0.19517
# Poissons Ratio (y) = -0.13086 1.58551
# Poissons Ratio (z) = 0.11716 0.37899
#
# Static dielectric constant tensor:
#      x y z
#    x 1.833130 0.000000 0.000000 
#    y 0.000000 1.840840 0.000000 
#    z 0.000000 0.000000 1.815840 
# 
# From -- ./inp_files/54209.got.cif
#   From: 2010.05.17/outbox.cif.g08.bks.cpg/sg65_28_cif.got.tgz:54209.got - 2010.06.03 17:01:31.
