data_PCOD9494061
_publ_section_title
;
Structure prediction by ZEFSAII (Michael W. Deem and Ramdas Pophale) SiO2 
 PCOD9494061
Probable space group: C M M M
;
_chemical_formula_sum "Si O2"
_cell_formula_units_Z 72
_cell_length_a 15.434493
_cell_length_b 26.517637
_cell_length_c 8.864357
_cell_angle_alpha 90.000000
_cell_angle_beta 90.000000
_cell_angle_gamma 90.000000
_cell_volume 3628.059725
_symmetry_space_group_name_H-M "C M M M"
_symmetry_group_IT_number 65
_symmetry_cell_setting 'orthorhombic'
loop_
_space_group_symop_operation_xyz
x,y,z
-x,-y,z
x,-y,-z
-x,y,-z
-x,-y,-z
x,y,-z
-x,y,z
x,-y,z
1/2+x,1/2+y,z
1/2-x,1/2-y,z
1/2+x,1/2-y,-z
1/2-x,1/2+y,-z
1/2-x,1/2-y,-z
1/2+x,1/2+y,-z
1/2-x,1/2+y,z
1/2+x,1/2-y,z
loop_
_atom_site_type_symbol
_atom_site_label
_atom_site_fract_x
_atom_site_fract_y
_atom_site_fract_z
Si Si1 0.000000 0.060042 0.321229
Si Si2 0.500000 0.792341 0.178919
Si Si3 0.346629 0.728518 0.678202
Si Si4 0.317913 0.941918 0.320545
Si Si5 0.500000 0.087276 0.179149
Si Si6 0.661255 0.381658 0.819846
O O1 0.084446 0.084139 0.245943
O O2 0.000000 0.071117 0.500000
O O3 0.000000 0.000000 0.301846
O O4 0.583983 0.766822 0.252607
O O5 0.500000 0.852328 0.201971
O O6 0.500000 0.782604 0.000000
O O7 0.363262 0.722171 0.500000
O O8 0.250000 0.750000 0.697584
O O9 0.352480 0.674778 0.759497
O O10 0.318281 0.932641 0.500000
O O11 0.413686 0.934546 0.254548
O O12 0.251419 0.904162 0.241140
O O13 0.290272 0.000000 0.295433
O O14 0.500000 0.077006 0.000000
O O15 0.660379 0.382222 0.000000
#
# Coordination Sequence:
#
# PCOD9494061 Si02
#       6
#     8   8  16  16   8  16
#     4  11  24  43  66  91 123 163 206 253 304 363
#     4  11  24  41  62  91 126 161 200 251 308 363
#     4  11  24  42  65  91 121 161 207 253 302 362
#     4  11  24  42  64  91 125 165 208 254 304 362
#     4  11  24  41  64  94 127 163 204 255 310 363
#     4  12  25  41  64  93 126 162 202 254 310 365
#
# _framework density 19.845317999999999
#
# number of rings (size 3 to 8) (size 9 to 14) (size 15 to 20)
#    0.000    0.778    0.000    7.333    0.000   13.778 
#    0.000    0.000    0.000    0.000    0.000    0.000 
#    0.000    0.000    0.000    0.000    0.000    0.000 
#
# Total GULP energy -201641.760297 kJ/mol
# GULP energy per Si atom -5601.160008 kJ/mol
# Density = 1.980015 g / cm^3
# Si number density = 19.845318 Si / 1000 Ang^3
#
#
#
# Elastic Constant Matrix: (Units=GPa)
#
#
# Indices 1 2 3 4 5 6 
#
# 1 69.5527 1.1484 27.3370 0.0000 0.0000 0.0000
# 2 1.1484 69.3965 60.1544 0.0000 0.0000 0.0000
# 3 27.3370 60.1544 134.2137 0.0000 0.0000 0.0000
# 4 0.0000 0.0000 0.0000 40.4557 0.0000 0.0000
# 5 0.0000 0.0000 0.0000 0.0000 44.3690 0.0000
# 6 0.0000 0.0000 0.0000 0.0000 0.0000 38.6013
#
#
#
# Elastic Compliance Matrix: (Units=1/GPa)
#
#
# Indices 1 2 3 4 5 6 
#
# 1 0.016372 0.004284 -0.005255 0.000000 0.000000 0.000000
# 2 0.004284 0.024686 -0.011937 0.000000 0.000000 0.000000
# 3 -0.005255 -0.011937 0.013871 0.000000 0.000000 0.000000
# 4 0.000000 0.000000 0.000000 0.024718 0.000000 0.000000
# 5 0.000000 0.000000 0.000000 0.000000 0.022538 0.000000
# 6 0.000000 0.000000 0.000000 0.000000 0.000000 0.025906
#
#
# Mechanical properties :
#
#
# Convention : Reuss Voigt Hill
#
# Bulk Modulus (GPa) = 34.34739 50.04918 42.19828
# Shear Modulus (GPa) = 30.56003 36.98673 33.77338
#
# Velocity S-wave (km/s) = 3.92843 4.32180 4.12980
# Velocity P-wave (km/s) = 6.15807 7.08367 6.63702
#
# Compressibility (1/GPa) = 0.02911429
#
# Stress axis : x y z
#
# Youngs Moduli (GPa) = 61.07904 40.50841 72.09161
#
# Poissons Ratio (x) = -0.17354 0.37883
# Poissons Ratio (y) = -0.26167 0.86055
# Poissons Ratio (z) = 0.32096 0.48355
#
# Static dielectric constant tensor:
#      x y z
#    x 1.666560 0.000000 0.000000 
#    y 0.000000 1.666890 0.000000 
#    z 0.000000 0.000000 1.660150 
# 
# From -- ./inp_files/7381.got.cif
#   From: 2010.05.17/outbox.cif.g08.bks.cpg/sg65_4_cif.got.tgz:7381.got - 2010.06.03 17:01:31.
