data_PCOD9494190
_publ_section_title
;
Structure prediction by ZEFSAII (Michael W. Deem and Ramdas Pophale) SiO2 
 PCOD9494190
Probable space group: C M M M
;
_chemical_formula_sum "Si O2"
_cell_formula_units_Z 72
_cell_length_a 32.507466
_cell_length_b 7.287549
_cell_length_c 14.830669
_cell_angle_alpha 90.000000
_cell_angle_beta 90.000000
_cell_angle_gamma 90.000000
_cell_volume 3513.381798
_symmetry_space_group_name_H-M "C M M M"
_symmetry_group_IT_number 65
_symmetry_cell_setting 'orthorhombic'
loop_
_space_group_symop_operation_xyz
x,y,z
-x,-y,z
x,-y,-z
-x,y,-z
-x,-y,-z
x,y,-z
-x,y,z
x,-y,z
1/2+x,1/2+y,z
1/2-x,1/2-y,z
1/2+x,1/2-y,-z
1/2-x,1/2+y,-z
1/2-x,1/2-y,-z
1/2+x,1/2+y,-z
1/2-x,1/2+y,z
1/2+x,1/2-y,z
loop_
_atom_site_type_symbol
_atom_site_label
_atom_site_fract_x
_atom_site_fract_y
_atom_site_fract_z
Si Si1 0.500000 0.792551 0.890279
Si Si2 0.625958 0.223948 0.715682
Si Si3 0.909701 0.275726 0.897601
Si Si4 0.045622 0.277122 0.394753
Si Si5 0.203539 0.281371 0.397366
O O1 0.455587 0.712454 0.868893
O O2 0.500000 0.000000 0.852571
O O3 0.500000 0.803171 0.000000
O O4 0.621563 0.278487 0.819825
O O5 0.584841 0.282473 0.662481
O O6 0.667028 0.287407 0.665722
O O7 0.626008 0.000000 0.714189
O O8 0.911687 0.500000 0.899520
O O9 0.901075 0.217452 0.000000
O O10 0.049979 0.225059 0.500000
O O11 0.045690 0.500000 0.392407
O O12 0.000000 0.219061 0.363058
O O13 0.200572 0.209733 0.500000
O O14 0.198192 0.500000 0.402802
O O15 0.250000 0.250000 0.364529
#
# Coordination Sequence:
#
# PCOD9494190 Si02
#       5
#     8  16  16  16  16
#     4   7  10  16  24  36  59  93 130 159 179 209
#     4   9  15  21  33  50  70  98 128 157 192 232
#     4   8  13  19  27  42  66  97 131 161 186 220
#     4   8  13  19  26  40  65  95 123 148 179 227
#     4   9  17  29  44  61  80 101 128 164 202 237
#
# _framework density 20.493075999999999
#
# number of rings (size 3 to 8) (size 9 to 14) (size 15 to 20)
#    0.000    3.667    0.000    2.667    1.556    2.667 
#    0.000    0.000    0.000    0.667    0.000    0.000 
#    0.000    0.889    0.000    8.222    0.000   14.222 
#
# Total GULP energy -200786.275916 kJ/mol
# GULP energy per Si atom -5577.396553 kJ/mol
# Density = 2.044643 g / cm^3
# Si number density = 20.493076 Si / 1000 Ang^3
#
#
#
# Elastic Constant Matrix: (Units=GPa)
#
#
# Indices 1 2 3 4 5 6 
#
# 1 181.7427 3.5235 117.1934 0.0000 0.0000 0.0000
# 2 3.5235 86.3010 3.5244 0.0000 0.0000 0.0000
# 3 117.1934 3.5244 127.0689 0.0000 0.0000 0.0000
# 4 0.0000 0.0000 0.0000 -16.4645 0.0000 0.0000
# 5 0.0000 0.0000 0.0000 0.0000 29.3249 0.0000
# 6 0.0000 0.0000 0.0000 0.0000 0.0000 -10.4808
#
#
#
# Elastic Compliance Matrix: (Units=1/GPa)
#
#
# Indices 1 2 3 4 5 6 
#
# 1 0.013577 -0.000043 -0.012520 0.000000 0.000000 0.000000
# 2 -0.000043 0.011601 -0.000282 0.000000 0.000000 0.000000
# 3 -0.012520 -0.000282 0.019425 0.000000 0.000000 0.000000
# 4 0.000000 0.000000 0.000000 -0.060737 0.000000 0.000000
# 5 0.000000 0.000000 0.000000 0.000000 0.034101 0.000000
# 6 0.000000 0.000000 0.000000 0.000000 0.000000 -0.095413
#
#
# Mechanical properties :
#
#
# Convention : Reuss Voigt Hill
#
# Bulk Modulus (GPa) = 52.87850 71.51059 62.19454
# Shear Modulus (GPa) = -110.00527 18.53400 -45.73563
#
# Velocity S-wave (km/s) = -7.33456 3.01059 -4.72928
# Velocity P-wave (km/s) = 6.77263 6.85971 0.77041
#
# Compressibility (1/GPa) = 0.01891128
#
# Stress axis : x y z
#
# Youngs Moduli (GPa) = 73.65648 86.20227 51.48076
#
# Poissons Ratio (x) = 0.00371 0.64455
# Poissons Ratio (y) = 0.00317 0.01452
# Poissons Ratio (z) = 0.92219 0.02432
#
# Static dielectric constant tensor:
#      x y z
#    x 1.705150 0.000000 0.000000 
#    y 0.000000 1.904830 0.000000 
#    z 0.000000 0.000000 1.727590 
# 
# From -- ./inp_files/45252.got.cif
#   From: 2010.05.17/outbox.cif.g08.bks.cpg/sg65_23_cif.got.tgz:45252.got - 2010.06.03 17:01:31.
