data_PCOD9494267
_publ_section_title
;
Structure prediction by ZEFSAII (Michael W. Deem and Ramdas Pophale) SiO2 
 PCOD9494267
Probable space group: C M M M
;
_chemical_formula_sum "Si O2"
_cell_formula_units_Z 80
_cell_length_a 7.343262
_cell_length_b 19.901662
_cell_length_c 27.288623
_cell_angle_alpha 90.000000
_cell_angle_beta 90.000000
_cell_angle_gamma 90.000000
_cell_volume 3988.044459
_symmetry_space_group_name_H-M "C M M M"
_symmetry_group_IT_number 65
_symmetry_cell_setting 'orthorhombic'
loop_
_space_group_symop_operation_xyz
x,y,z
-x,-y,z
x,-y,-z
-x,y,-z
-x,-y,-z
x,y,-z
-x,y,z
x,-y,z
1/2+x,1/2+y,z
1/2-x,1/2-y,z
1/2+x,1/2-y,-z
1/2-x,1/2+y,-z
1/2-x,1/2-y,-z
1/2+x,1/2+y,-z
1/2-x,1/2+y,z
1/2+x,1/2-y,z
loop_
_atom_site_type_symbol
_atom_site_label
_atom_site_fract_x
_atom_site_fract_y
_atom_site_fract_z
Si Si1 0.280600 0.580244 0.947346
Si Si2 0.222546 0.921734 0.159792
Si Si3 0.782537 0.828607 0.752077
Si Si4 0.217448 0.828511 0.642292
Si Si5 0.778084 0.077651 0.554885
O O1 0.500000 0.587787 0.947801
O O2 0.244794 0.500000 0.947212
O O3 0.217520 0.604220 0.894008
O O4 0.213456 0.607033 0.000000
O O5 0.286069 0.876186 0.204683
O O6 0.000000 0.920864 0.159435
O O7 0.274860 0.000000 0.165388
O O8 0.750000 0.750000 0.762259
O O9 0.712203 0.843285 0.697172
O O10 0.000000 0.838109 0.750412
O O11 0.250000 0.750000 0.632314
O O12 0.287017 0.875016 0.598582
O O13 0.000000 0.838299 0.644045
O O14 0.721231 0.098369 0.500000
O O15 0.000000 0.079192 0.555037
O O16 0.725503 0.000000 0.562347
#
# Coordination Sequence:
#
# PCOD9494267 Si02
#       5
#    16  16  16  16  16
#     4   7   9  14  26  46  72  97 118 147 191 233
#     4   8  13  21  35  56  77  96 125 164 197 224
#     4   9  17  28  41  57  79 106 131 157 192 231
#     4   9  17  28  42  60  80 103 132 162 191 226
#     4   8  14  25  41  61  83 104 127 158 195 231
#
# _framework density 20.059958000000002
#
# number of rings (size 3 to 8) (size 9 to 14) (size 15 to 20)
#    0.000    3.800    0.000    2.400    0.000    1.200 
#    0.000    4.000    0.000    1.800    0.000    7.000 
#    0.000    0.000    0.000    5.000    0.000    4.000 
#
# Total GULP energy -222794.376929 kJ/mol
# GULP energy per Si atom -5569.859423 kJ/mol
# Density = 2.001430 g / cm^3
# Si number density = 20.059958 Si / 1000 Ang^3
#
#
#
# Elastic Constant Matrix: (Units=GPa)
#
#
# Indices 1 2 3 4 5 6 
#
# 1 75.5728 0.8521 11.2010 0.0000 0.0000 0.0000
# 2 0.8521 75.6839 127.8211 0.0000 0.0000 0.0000
# 3 11.2010 127.8211 267.3288 0.0000 0.0000 0.0000
# 4 0.0000 0.0000 0.0000 22.4671 0.0000 0.0000
# 5 0.0000 0.0000 0.0000 0.0000 -7.7398 0.0000
# 6 0.0000 0.0000 0.0000 0.0000 0.0000 8.2955
#
#
#
# Elastic Compliance Matrix: (Units=1/GPa)
#
#
# Indices 1 2 3 4 5 6 
#
# 1 0.013566 0.004194 -0.002574 0.000000 0.000000 0.000000
# 2 0.004194 0.069944 -0.033619 0.000000 0.000000 0.000000
# 3 -0.002574 -0.033619 0.019923 0.000000 0.000000 0.000000
# 4 0.000000 0.000000 0.000000 0.044510 0.000000 0.000000
# 5 0.000000 0.000000 0.000000 0.000000 -0.129203 0.000000
# 6 0.000000 0.000000 0.000000 0.000000 0.000000 0.120548
#
#
# Mechanical properties :
#
#
# Convention : Reuss Voigt Hill
#
# Bulk Modulus (GPa) = 25.35729 77.59266 51.47497
# Shear Modulus (GPa) = 23.10219 23.18531 23.14375
#
# Velocity S-wave (km/s) = 3.39729 3.40339 3.40034
# Velocity P-wave (km/s) = 5.29688 7.36264 6.41348
#
# Compressibility (1/GPa) = 0.03943638
#
# Stress axis : x y z
#
# Youngs Moduli (GPa) = 73.71118 14.29722 50.19304
#
# Poissons Ratio (x) = -0.05996 0.12919
# Poissons Ratio (y) = -0.30916 1.68743
# Poissons Ratio (z) = 0.18972 0.48065
#
# Static dielectric constant tensor:
#      x y z
#    x 1.803730 0.000000 0.000000 
#    y 0.000000 1.644250 0.000000 
#    z 0.000000 0.000000 1.753500 
# 
# From -- ./inp_files/72848.got.cif
#   From: 2010.05.17/outbox.cif.g08.bks.cpg/sg65_37_cif.got.tgz:72848.got - 2010.06.03 17:01:31.
