data_PCOD9494893
_publ_section_title
;
Structure prediction by ZEFSAII (Michael W. Deem and Ramdas Pophale) SiO2 
 PCOD9494893
Probable space group: C C C M
;
_chemical_formula_sum "Si O2"
_cell_formula_units_Z 80
_cell_length_a 26.434924
_cell_length_b 5.293288
_cell_length_c 36.922585
_cell_angle_alpha 90.000000
_cell_angle_beta 90.000000
_cell_angle_gamma 90.000000
_cell_volume 5166.491141
_symmetry_space_group_name_H-M "C C C M"
_symmetry_group_IT_number 66
_symmetry_cell_setting 'orthorhombic'
loop_
_space_group_symop_operation_xyz
x,y,z
-x,-y,z
x,-y,1/2-z
-x,y,1/2-z
-x,-y,-z
x,y,-z
-x,y,1/2+z
x,-y,1/2+z
1/2+x,1/2+y,z
1/2-x,1/2-y,z
1/2+x,1/2-y,1/2-z
1/2-x,1/2+y,1/2-z
1/2-x,1/2-y,-z
1/2+x,1/2+y,-z
1/2-x,1/2+y,1/2+z
1/2+x,1/2-y,1/2+z
loop_
_atom_site_type_symbol
_atom_site_label
_atom_site_fract_x
_atom_site_fract_y
_atom_site_fract_z
Si Si1 0.966137 0.749669 0.651530
Si Si2 0.441695 0.746481 0.765958
Si Si3 0.441829 0.905968 0.925025
Si Si4 0.220720 0.998941 0.044041
Si Si5 0.895239 0.912429 0.956960
O O1 0.941693 0.776169 0.690922
O O2 0.933045 0.687823 0.616263
O O3 0.000000 0.500000 0.655751
O O4 0.000000 0.000000 0.644442
O O5 0.416430 0.500000 0.750000
O O6 0.500000 0.746811 0.750000
O O7 0.418783 0.000000 0.750000
O O8 0.430141 0.655849 0.948422
O O9 0.500000 0.000000 0.927666
O O10 0.410643 0.152991 0.937002
O O11 0.250000 0.750000 0.056732
O O12 0.250000 0.250000 0.055873
O O13 0.161816 0.010489 0.053791
O O14 0.222060 0.995246 0.000000
O O15 0.896583 0.861906 0.000000
#
# Coordination Sequence:
#
# PCOD9494893 Si02
#       5
#    16  16  16  16  16
#     4  11  18  29  43  58  87 115 154 199 225 261
#     4  10  15  24  40  63  79 103 142 199 229 264
#     4  11  23  34  45  65  91 133 169 197 222 265
#     4   9  17  31  52  74  89 103 133 191 261 310
#     4  11  22  36  51  67  89 119 162 207 242 276
#
# _framework density 15.484396
#
# number of rings (size 3 to 8) (size 9 to 14) (size 15 to 20)
#    0.000    1.600    4.000    4.800    0.000    5.600 
#    0.000    0.000    0.000    0.000    0.000    0.000 
#    0.000    0.000    0.000    0.000    0.000   56.000 
#
# Total GULP energy -222780.236073 kJ/mol
# GULP energy per Si atom -5569.505902 kJ/mol
# Density = 1.544915 g / cm^3
# Si number density = 15.484396 Si / 1000 Ang^3
#
#
#
# Elastic Constant Matrix: (Units=GPa)
#
#
# Indices 1 2 3 4 5 6 
#
# 1 44.6242 30.1341 32.9453 0.0000 0.0000 0.0000
# 2 30.1341 161.9509 48.9505 0.0000 0.0000 0.0000
# 3 32.9453 48.9505 95.3398 0.0000 0.0000 0.0000
# 4 0.0000 0.0000 0.0000 31.1357 0.0000 0.0000
# 5 0.0000 0.0000 0.0000 0.0000 -2.2910 0.0000
# 6 0.0000 0.0000 0.0000 0.0000 0.0000 20.5258
#
#
#
# Elastic Compliance Matrix: (Units=1/GPa)
#
#
# Indices 1 2 3 4 5 6 
#
# 1 0.031287 -0.003023 -0.009259 0.000000 0.000000 0.000000
# 2 -0.003023 0.007601 -0.002858 0.000000 0.000000 0.000000
# 3 -0.009259 -0.002858 0.015156 0.000000 0.000000 0.000000
# 4 0.000000 0.000000 0.000000 0.032117 0.000000 0.000000
# 5 0.000000 0.000000 0.000000 0.000000 -0.436494 0.000000
# 6 0.000000 0.000000 0.000000 0.000000 0.000000 0.048719
#
#
# Mechanical properties :
#
#
# Convention : Reuss Voigt Hill
#
# Bulk Modulus (GPa) = 42.08194 58.44163 50.26178
# Shear Modulus (GPa) = -18.98161 22.53310 1.77575
#
# Velocity S-wave (km/s) = -3.50502 3.81886 1.07205
# Velocity P-wave (km/s) = 3.29481 7.56764 5.83631
#
# Compressibility (1/GPa) = 0.02376316
#
# Stress axis : x y z
#
# Youngs Moduli (GPa) = 31.96250 131.56121 65.98118
#
# Poissons Ratio (x) = 0.39769 0.61094
# Poissons Ratio (y) = 0.09662 0.18858
# Poissons Ratio (z) = 0.29595 0.37601
#
# Static dielectric constant tensor:
#      x y z
#    x 1.492430 0.000000 0.000000 
#    y 0.000000 1.541390 0.000000 
#    z 0.000000 0.000000 1.551480 
# 
# From -- ./inp_files/70308.got.cif
#   From: 2010.05.17/outbox.cif.g08.bks.cpg/sg66_36_cif.got.tgz:70308.got - 2010.06.03 17:51:23.
