data_PCOD9494487
_publ_section_title
;
Structure prediction by ZEFSAII (Michael W. Deem and Ramdas Pophale) SiO2 
 PCOD9494487
Probable space group: C M M M
;
_chemical_formula_sum "Si O2"
_cell_formula_units_Z 104
_cell_length_a 20.435830
_cell_length_b 34.308517
_cell_length_c 7.436060
_cell_angle_alpha 90.000000
_cell_angle_beta 90.000000
_cell_angle_gamma 90.000000
_cell_volume 5213.592851
_symmetry_space_group_name_H-M "C M M M"
_symmetry_group_IT_number 65
_symmetry_cell_setting 'orthorhombic'
loop_
_space_group_symop_operation_xyz
x,y,z
-x,-y,z
x,-y,-z
-x,y,-z
-x,-y,-z
x,y,-z
-x,y,z
x,-y,z
1/2+x,1/2+y,z
1/2-x,1/2-y,z
1/2+x,1/2-y,-z
1/2-x,1/2+y,-z
1/2-x,1/2-y,-z
1/2+x,1/2+y,-z
1/2-x,1/2+y,z
1/2+x,1/2-y,z
loop_
_atom_site_type_symbol
_atom_site_label
_atom_site_fract_x
_atom_site_fract_y
_atom_site_fract_z
Si Si1 0.362111 0.928952 0.292127
Si Si2 0.313473 0.154018 0.781860
Si Si3 0.779017 0.043243 0.716067
Si Si4 0.670783 0.373340 0.786385
Si Si5 0.000000 0.453677 0.291601
Si Si6 0.574846 0.692051 0.220075
Si Si7 0.324461 0.759150 0.780850
O O1 0.363662 0.942504 0.500000
O O2 0.354553 0.882545 0.284585
O O3 0.294382 0.946374 0.215700
O O4 0.431201 0.940585 0.209495
O O5 0.238834 0.145787 0.719974
O O6 0.337984 0.196411 0.726264
O O7 0.313425 0.152921 0.000000
O O8 0.775421 0.042037 0.500000
O O9 0.824627 0.080375 0.756079
O O10 0.798573 0.000000 0.778699
O O11 0.609310 0.348340 0.721155
O O12 0.671792 0.367889 0.000000
O O13 0.000000 0.500000 0.295015
O O14 0.000000 0.438986 0.500000
O O15 0.500000 0.695818 0.279838
O O16 0.622572 0.727319 0.277225
O O17 0.573654 0.692625 0.000000
O O18 0.250000 0.750000 0.724825
O O19 0.324257 0.757941 0.000000
#
# Coordination Sequence:
#
# PCOD9494487 Si02
#       7
#    16  16  16  16   8  16  16
#     4   9  17  29  45  64  87 115 147 185 224 262
#     4   9  16  27  44  65  89 116 147 182 220 262
#     4   9  17  29  46  68  90 111 142 185 225 262
#     4   9  16  27  45  67  90 116 144 179 223 264
#     4   9  16  28  47  65  81 113 159 191 215 261
#     4   9  16  26  42  66  92 117 151 190 223 258
#     4   9  14  24  43  64  88 119 152 183 215 258
#
# _framework density 19.947856000000002
#
# number of rings (size 3 to 8) (size 9 to 14) (size 15 to 20)
#    0.000    3.000    1.538    0.462    0.000    2.154 
#    1.385    0.385    0.000    4.154    0.000    3.231 
#    0.000    0.000    0.000    0.000    0.000    0.000 
#
# Total GULP energy -289900.402800 kJ/mol
# GULP energy per Si atom -5575.007746 kJ/mol
# Density = 1.990245 g / cm^3
# Si number density = 19.947856 Si / 1000 Ang^3
#
#
#
# Elastic Constant Matrix: (Units=GPa)
#
#
# Indices 1 2 3 4 5 6 
#
# 1 133.0382 80.4845 4.3514 0.0000 0.0000 0.0000
# 2 80.4845 158.6341 -4.6646 0.0000 0.0000 0.0000
# 3 4.3514 -4.6646 60.1451 0.0000 0.0000 0.0000
# 4 0.0000 0.0000 0.0000 14.3089 0.0000 0.0000
# 5 0.0000 0.0000 0.0000 0.0000 -6.3892 0.0000
# 6 0.0000 0.0000 0.0000 0.0000 0.0000 26.6742
#
#
#
# Elastic Compliance Matrix: (Units=1/GPa)
#
#
# Indices 1 2 3 4 5 6 
#
# 1 0.010935 -0.005584 -0.001224 0.000000 0.000000 0.000000
# 2 -0.005584 0.009170 0.001115 0.000000 0.000000 0.000000
# 3 -0.001224 0.001115 0.016802 0.000000 0.000000 0.000000
# 4 0.000000 0.000000 0.000000 0.069887 0.000000 0.000000
# 5 0.000000 0.000000 0.000000 0.000000 -0.156514 0.000000
# 6 0.000000 0.000000 0.000000 0.000000 0.000000 0.037489
#
#
# Mechanical properties :
#
#
# Convention : Reuss Voigt Hill
#
# Bulk Modulus (GPa) = 39.18475 56.90665 48.04570
# Shear Modulus (GPa) = 652.68337 25.02852 338.85594
#
# Velocity S-wave (km/s) = 18.10815 3.54601 13.04759
# Velocity P-wave (km/s) = 21.37505 6.73463 15.84690
#
# Compressibility (1/GPa) = 0.02552014
#
# Stress axis : x y z
#
# Youngs Moduli (GPa) = 91.45159 109.05578 59.51845
#
# Poissons Ratio (x) = 0.60895 0.07286
# Poissons Ratio (y) = 0.51065 -0.06637
# Poissons Ratio (z) = 0.11195 -0.12161
#
# Static dielectric constant tensor:
#      x y z
#    x 1.691460 0.000000 0.000000 
#    y 0.000000 1.702000 0.000000 
#    z 0.000000 0.000000 1.787640 
# 
# From -- ./inp_files/27681.got.cif
#   From: 2010.05.17/outbox.cif.g08.bks.cpg/sg65_14_cif.got.tgz:27681.got - 2010.06.03 17:01:31.
