data_PCOD9494669
_publ_section_title
;
Structure prediction by ZEFSAII (Michael W. Deem and Ramdas Pophale) SiO2 
 PCOD9494669
Probable space group: C M M M
;
_chemical_formula_sum "Si O2"
_cell_formula_units_Z 52
_cell_length_a 30.000000
_cell_length_b 21.000000
_cell_length_c 9.000000
_cell_angle_alpha 90.000000
_cell_angle_beta 90.000000
_cell_angle_gamma 90.000000
_cell_volume 5670.000000
_symmetry_space_group_name_H-M "C M M M"
_symmetry_group_IT_number 65
_symmetry_cell_setting 'orthorhombic'
loop_
_space_group_symop_operation_xyz
x,y,z
-x,-y,z
x,-y,-z
-x,y,-z
-x,-y,-z
x,y,-z
-x,y,z
x,-y,z
1/2+x,1/2+y,z
1/2-x,1/2-y,z
1/2+x,1/2-y,-z
1/2-x,1/2+y,-z
1/2-x,1/2-y,-z
1/2+x,1/2+y,-z
1/2-x,1/2+y,z
1/2+x,1/2-y,z
loop_
_atom_site_type_symbol
_atom_site_label
_atom_site_fract_x
_atom_site_fract_y
_atom_site_fract_z
Si Si1 0.718833 0.070673 0.819323
Si Si2 0.051165 0.576438 0.332672
Si Si3 0.448620 0.631396 0.678774
Si Si4 0.370971 0.139260 0.174293
Si Si5 0.054148 0.000000 0.830080
Si Si6 0.629663 0.724097 0.677395
Si Si7 0.220569 0.187712 0.179155
O O1 0.669394 0.093463 0.778134
O O2 0.753000 0.124970 0.772849
O O3 0.728547 0.000000 0.764228
O O4 0.720053 0.069131 0.000000
O O5 0.065477 0.595847 0.500000
O O6 0.052536 0.500000 0.327061
O O7 0.083019 0.605223 0.210732
O O8 0.000000 0.596309 0.313716
O O9 0.448168 0.625801 0.500000
O O10 0.500000 0.643003 0.724383
O O11 0.432772 0.564659 0.747670
O O12 0.415349 0.687501 0.722705
O O13 0.369614 0.204658 0.262300
O O14 0.365407 0.152615 0.000000
O O15 0.000000 0.000000 0.829244
O O16 0.069446 0.000000 0.000000
O O17 0.632174 0.723669 0.500000
O O18 0.672763 0.690766 0.746249
O O19 0.250000 0.250000 0.217460
O O20 0.215909 0.187753 0.000000
#
# Coordination Sequence:
#
# PCOD9494669 Si02
#       7
#    16  16  16  16   8  16  16
#     4   9  18  34  57  82 108 141 182 226 277 339
#     4   9  19  36  55  77 111 152 189 228 278 334
#     4   9  19  37  58  78 107 149 188 222 271 337
#     4  11  21  35  56  82 111 144 189 238 281 329
#     4   9  17  31  55  85 111 137 177 229 277 323
#     4  11  23  37  56  83 112 146 189 232 278 334
#     4  10  19  37  60  81 110 148 185 227 281 339
#
# _framework density 9.1710759999999993
#
# number of rings (size 3 to 8) (size 9 to 14) (size 15 to 20)
#    0.000    2.231    1.538    2.077    0.000    4.308 
#    1.385    2.308    0.000    1.846    0.000    0.000 
#    0.000    0.000    0.000    0.000    0.000    0.000 
#
# Total GULP energy -290061.349373 kJ/mol
# GULP energy per Si atom -5578.102873 kJ/mol
# Density = 0.915020 g / cm^3
# Si number density = 9.171076 Si / 1000 Ang^3
#
#
#
# Elastic Constant Matrix: (Units=GPa)
#
#
# Indices 1 2 3 4 5 6 
#
# 1 89.0436 57.9139 29.5686 0.0000 0.0000 0.0000
# 2 57.9139 124.3165 26.1445 0.0000 0.0000 0.0000
# 3 29.5686 26.1445 16.5462 0.0000 0.0000 0.0000
# 4 0.0000 0.0000 0.0000 19.0574 0.0000 0.0000
# 5 0.0000 0.0000 0.0000 0.0000 41.0619 0.0000
# 6 0.0000 0.0000 0.0000 0.0000 0.0000 29.8395
#
#
#
# Elastic Compliance Matrix: (Units=1/GPa)
#
#
# Indices 1 2 3 4 5 6 
#
# 1 0.028823 -0.003887 -0.045367 0.000000 0.000000 0.000000
# 2 -0.003887 0.012571 -0.012918 0.000000 0.000000 0.000000
# 3 -0.045367 -0.012918 0.161921 0.000000 0.000000 0.000000
# 4 0.000000 0.000000 0.000000 0.052473 0.000000 0.000000
# 5 0.000000 0.000000 0.000000 0.000000 0.024353 0.000000
# 6 0.000000 0.000000 0.000000 0.000000 0.000000 0.033513
#
#
# Mechanical properties :
#
#
# Convention : Reuss Voigt Hill
#
# Bulk Modulus (GPa) = 12.66274 50.79558 31.72916
# Shear Modulus (GPa) = 10.76839 25.74371 18.25605
#
# Velocity S-wave (km/s) = 2.42561 3.75043 3.15827
# Velocity P-wave (km/s) = 3.84232 6.81966 5.53494
#
# Compressibility (1/GPa) = 0.07897183
#
# Stress axis : x y z
#
# Youngs Moduli (GPa) = 34.69430 79.54548 6.17586
#
# Poissons Ratio (x) = 0.30917 0.28018
# Poissons Ratio (y) = 0.13484 0.07978
# Poissons Ratio (z) = 1.57397 1.02760
#
# Static dielectric constant tensor:
#      x y z
#    x 1.624690 0.000000 0.000000 
#    y 0.000000 1.631980 0.000000 
#    z 0.000000 0.000000 1.621520 
# 
# From -- ./inp_files/12801.got.cif
#   From: 2010.05.17/outbox.ucp.g08.bks.cvg/sg65_7_cif.got.tgz:12801.got - 2010.06.11 16:39:57.
