data_PCOD9494149
_publ_section_title
;
Structure prediction by ZEFSAII (Michael W. Deem and Ramdas Pophale) SiO2 
 PCOD9494149
Probable space group: C M M M
;
_chemical_formula_sum "Si O2"
_cell_formula_units_Z 88
_cell_length_a 7.730423
_cell_length_b 28.396346
_cell_length_c 22.079864
_cell_angle_alpha 90.000000
_cell_angle_beta 90.000000
_cell_angle_gamma 90.000000
_cell_volume 4846.878264
_symmetry_space_group_name_H-M "C M M M"
_symmetry_group_IT_number 65
_symmetry_cell_setting 'orthorhombic'
loop_
_space_group_symop_operation_xyz
x,y,z
-x,-y,z
x,-y,-z
-x,y,-z
-x,-y,-z
x,y,-z
-x,y,z
x,-y,z
1/2+x,1/2+y,z
1/2-x,1/2-y,z
1/2+x,1/2-y,-z
1/2-x,1/2+y,-z
1/2-x,1/2-y,-z
1/2+x,1/2+y,-z
1/2-x,1/2+y,z
1/2+x,1/2-y,z
loop_
_atom_site_type_symbol
_atom_site_label
_atom_site_fract_x
_atom_site_fract_y
_atom_site_fract_z
Si Si1 0.793580 0.852513 0.373567
Si Si2 0.288783 0.447068 0.686815
Si Si3 0.211102 0.945246 0.932697
Si Si4 0.703074 0.805158 0.500000
Si Si5 0.207506 0.803322 0.252822
Si Si6 0.788817 0.896457 0.188989
O O1 0.730406 0.905460 0.358530
O O2 0.762020 0.831462 0.439266
O O3 0.727750 0.818314 0.319848
O O4 0.000000 0.854736 0.366428
O O5 0.500000 0.448162 0.685191
O O6 0.228097 0.500000 0.674074
O O7 0.240757 0.430096 0.754600
O O8 0.272311 0.915221 0.875585
O O9 0.000000 0.944018 0.932357
O O10 0.259803 0.000000 0.924898
O O11 0.266707 0.929843 0.000000
O O12 0.500000 0.807395 0.500000
O O13 0.750000 0.750000 0.500000
O O14 0.250000 0.750000 0.237665
O O15 0.268351 0.843908 0.206969
O O16 0.000000 0.806524 0.254037
O O17 0.000000 0.896677 0.187473
#
# Coordination Sequence:
#
# PCOD9494149 Si02
#       6
#    16  16  16   8  16  16
#     4   9  18  32  48  68  91 112 140 176 212 254
#     4   8  13  23  42  65  86 110 141 177 213 247
#     4   8  12  17  28  50  81 114 141 165 202 253
#     4  12  24  36  51  68  87 113 142 173 215 260
#     4   9  17  28  43  62  83 109 140 176 216 252
#     4   8  13  21  34  55  83 111 140 175 213 251
#
# _framework density 18.156016999999999
#
# number of rings (size 3 to 8) (size 9 to 14) (size 15 to 20)
#    0.000    3.273    0.000    4.636    0.000    4.364 
#    0.000    0.455    0.000    3.818    0.000    0.000 
#    0.000    2.182    0.000    2.000    0.000    3.818 
#
# Total GULP energy -245132.745377 kJ/mol
# GULP energy per Si atom -5571.198759 kJ/mol
# Density = 1.811469 g / cm^3
# Si number density = 18.156017 Si / 1000 Ang^3
#
#
#
# Elastic Constant Matrix: (Units=GPa)
#
#
# Indices 1 2 3 4 5 6 
#
# 1 24.4309 6.2747 1.7741 0.0000 0.0000 0.0000
# 2 6.2747 166.3617 101.3008 0.0000 0.0000 0.0000
# 3 1.7741 101.3008 165.9044 0.0000 0.0000 0.0000
# 4 0.0000 0.0000 0.0000 22.0876 0.0000 0.0000
# 5 0.0000 0.0000 0.0000 0.0000 -8.3070 0.0000
# 6 0.0000 0.0000 0.0000 0.0000 0.0000 12.4758
#
#
#
# Elastic Compliance Matrix: (Units=1/GPa)
#
#
# Indices 1 2 3 4 5 6 
#
# 1 0.041401 -0.002057 0.000813 0.000000 0.000000 0.000000
# 2 -0.002057 0.009671 -0.005883 0.000000 0.000000 0.000000
# 3 0.000813 -0.005883 0.009611 0.000000 0.000000 0.000000
# 4 0.000000 0.000000 0.000000 0.045274 0.000000 0.000000
# 5 0.000000 0.000000 0.000000 0.000000 -0.120380 0.000000
# 6 0.000000 0.000000 0.000000 0.000000 0.000000 0.080155
#
#
# Mechanical properties :
#
#
# Convention : Reuss Voigt Hill
#
# Bulk Modulus (GPa) = 21.53793 63.93291 42.73542
# Shear Modulus (GPa) = 52.37713 21.74111 37.05912
#
# Velocity S-wave (km/s) = 5.37689 3.46419 4.52281
# Velocity P-wave (km/s) = 7.10186 7.16173 7.13186
#
# Compressibility (1/GPa) = 0.04642973
#
# Stress axis : x y z
#
# Youngs Moduli (GPa) = 24.15400 103.40373 104.04730
#
# Poissons Ratio (x) = 0.21266 -0.08459
# Poissons Ratio (y) = 0.04968 0.61211
# Poissons Ratio (z) = -0.01964 0.60832
#
# Static dielectric constant tensor:
#      x y z
#    x 1.699890 0.000000 0.000000 
#    y 0.000000 1.617890 0.000000 
#    z 0.000000 0.000000 1.434160 
# 
# From -- ./inp_files/60708.got.cif
#   From: 2010.05.17/outbox.cif.g08.bks.cpg/sg65_31_cif.got.tgz:60708.got - 2010.06.03 17:01:31.
