data_PCOD9494658
_publ_section_title
;
Structure prediction by ZEFSAII (Michael W. Deem and Ramdas Pophale) SiO2 
 PCOD9494658
Probable space group: C M M M
;
_chemical_formula_sum "Si O2"
_cell_formula_units_Z 44
_cell_length_a 30.000000
_cell_length_b 18.000000
_cell_length_c 9.000000
_cell_angle_alpha 90.000000
_cell_angle_beta 90.000000
_cell_angle_gamma 90.000000
_cell_volume 4860.000000
_symmetry_space_group_name_H-M "C M M M"
_symmetry_group_IT_number 65
_symmetry_cell_setting 'orthorhombic'
loop_
_space_group_symop_operation_xyz
x,y,z
-x,-y,z
x,-y,-z
-x,y,-z
-x,-y,-z
x,y,-z
-x,y,z
x,-y,z
1/2+x,1/2+y,z
1/2-x,1/2-y,z
1/2+x,1/2-y,-z
1/2-x,1/2+y,-z
1/2-x,1/2-y,-z
1/2+x,1/2+y,-z
1/2-x,1/2+y,z
1/2+x,1/2-y,z
loop_
_atom_site_type_symbol
_atom_site_label
_atom_site_fract_x
_atom_site_fract_y
_atom_site_fract_z
Si Si1 0.100864 0.640435 0.679636
Si Si2 0.197016 0.412192 0.677785
Si Si3 0.052857 0.500000 0.823719
Si Si4 0.550998 0.709109 0.318946
Si Si5 0.788445 0.909553 0.171250
Si Si6 0.380012 0.585967 0.320961
O O1 0.098570 0.634366 0.500000
O O2 0.152795 0.632465 0.720954
O O3 0.074629 0.572154 0.750422
O O4 0.077714 0.717061 0.724924
O O5 0.202540 0.407859 0.500000
O O6 0.189795 0.500000 0.713856
O O7 0.242257 0.385581 0.754370
O O8 0.000000 0.500000 0.797605
O O9 0.060938 0.500000 0.000000
O O10 0.549840 0.708625 0.500000
O O11 0.500000 0.709598 0.266812
O O12 0.579237 0.637462 0.272366
O O13 0.833086 0.886175 0.256109
O O14 0.788006 0.000000 0.178855
O O15 0.790316 0.887590 0.000000
O O16 0.377223 0.588282 0.500000
O O17 0.386424 0.500000 0.276864
#
# Coordination Sequence:
#
# PCOD9494658 Si02
#       6
#    16  16   8  16  16  16
#     4  10  19  34  54  76 101 135 177 218 258 303
#     4   9  16  28  47  73 101 129 166 209 252 299
#     4  11  23  35  49  73 105 139 177 219 260 305
#     4   9  18  32  52  78 104 131 169 218 266 309
#     4   9  17  29  48  74 101 132 169 207 251 304
#     4   9  17  31  52  77 104 134 168 210 260 313
#
# _framework density 9.0534979999999994
#
# number of rings (size 3 to 8) (size 9 to 14) (size 15 to 20)
#    0.000    2.636    0.909    1.364    0.000    4.727 
#    0.000    3.636    0.000    7.091    0.000    2.545 
#    0.000    0.000    0.000    0.000    0.000    0.000 
#
# Total GULP energy -245365.865629 kJ/mol
# GULP energy per Si atom -5576.496946 kJ/mol
# Density = 0.903289 g / cm^3
# Si number density = 9.053498 Si / 1000 Ang^3
#
#
#
# Elastic Constant Matrix: (Units=GPa)
#
#
# Indices 1 2 3 4 5 6 
#
# 1 181.9927 89.4162 34.5943 0.0000 0.0000 0.0000
# 2 89.4162 88.6578 25.8078 0.0000 0.0000 0.0000
# 3 34.5943 25.8078 6.9603 0.0000 0.0000 0.0000
# 4 0.0000 0.0000 0.0000 3.9906 0.0000 0.0000
# 5 0.0000 0.0000 0.0000 0.0000 8.7925 0.0000
# 6 0.0000 0.0000 0.0000 0.0000 0.0000 32.8851
#
#
#
# Elastic Compliance Matrix: (Units=1/GPa)
#
#
# Indices 1 2 3 4 5 6 
#
# 1 0.004451 -0.024585 0.069037 0.000000 0.000000 0.000000
# 2 -0.024585 -0.006359 0.145775 0.000000 0.000000 0.000000
# 3 0.069037 0.145775 -0.739973 0.000000 0.000000 0.000000
# 4 0.000000 0.000000 0.000000 0.250587 0.000000 0.000000
# 5 0.000000 0.000000 0.000000 0.000000 0.113733 0.000000
# 6 0.000000 0.000000 0.000000 0.000000 0.000000 0.030409
#
#
# Mechanical properties :
#
#
# Convention : Reuss Voigt Hill
#
# Bulk Modulus (GPa) = -2.76680 64.13859 30.68590
# Shear Modulus (GPa) = -5.89565 17.65314 5.87874
#
# Velocity S-wave (km/s) = -1.80640 3.12578 1.80381
# Velocity P-wave (km/s) = 2.42531 6.96608 4.61758
#
# Compressibility (1/GPa) = -0.36142858
#
# Stress axis : x y z
#
# Youngs Moduli (GPa) = 224.67003 -157.24758 -1.35140
#
# Poissons Ratio (x) = -3.86598 0.09330
# Poissons Ratio (y) = 5.52359 0.19700
# Poissons Ratio (z) = -15.51052 22.92277
#
# Static dielectric constant tensor:
#      x y z
#    x 1.611350 0.000000 0.000000 
#    y 0.000000 1.616200 0.000000 
#    z 0.000000 0.000000 1.596250 
# 
# From -- ./inp_files/18274.got.cif
#   From: 2010.05.17/outbox.ucp.g08.bks.cvg/sg65_10_cif.got.tgz:18274.got - 2010.06.11 16:39:57.
