data_PCOD9494855
_publ_section_title
;
Structure prediction by ZEFSAII (Michael W. Deem and Ramdas Pophale) SiO2 
 PCOD9494855
Probable space group: C M M M
;
_chemical_formula_sum "Si O2"
_cell_formula_units_Z 56
_cell_length_a 15.000000
_cell_length_b 27.000000
_cell_length_c 15.000000
_cell_angle_alpha 90.000000
_cell_angle_beta 90.000000
_cell_angle_gamma 90.000000
_cell_volume 6075.000000
_symmetry_space_group_name_H-M "C M M M"
_symmetry_group_IT_number 65
_symmetry_cell_setting 'orthorhombic'
loop_
_space_group_symop_operation_xyz
x,y,z
-x,-y,z
x,-y,-z
-x,y,-z
-x,-y,-z
x,y,-z
-x,y,z
x,-y,z
1/2+x,1/2+y,z
1/2-x,1/2-y,z
1/2+x,1/2-y,-z
1/2-x,1/2+y,-z
1/2-x,1/2-y,-z
1/2+x,1/2+y,-z
1/2-x,1/2+y,z
1/2+x,1/2-y,z
loop_
_atom_site_type_symbol
_atom_site_label
_atom_site_fract_x
_atom_site_fract_y
_atom_site_fract_z
Si Si1 0.399657 0.770245 0.899301
Si Si2 0.292542 0.056848 0.099163
Si Si3 0.841897 0.820682 0.212660
Si Si4 0.893276 0.331123 0.596555
Si Si5 0.595219 0.409606 0.895544
Si Si6 0.645385 0.138062 0.788193
Si Si7 0.107952 0.217482 0.599013
O O1 0.500000 0.750343 0.905903
O O2 0.349117 0.730892 0.838842
O O3 0.405771 0.821420 0.845872
O O4 0.364149 0.776319 0.000000
O O5 0.187005 0.061441 0.122081
O O6 0.355144 0.085167 0.167028
O O7 0.315468 0.000000 0.096185
O O8 0.302843 0.079149 0.000000
O O9 0.903219 0.861044 0.165202
O O10 0.745070 0.842439 0.200792
O O11 0.860503 0.812999 0.316622
O O12 0.860584 0.349061 0.500000
O O13 0.873961 0.361766 0.684132
O O14 0.860987 0.274514 0.609739
O O15 0.000000 0.327629 0.591561
O O16 0.500000 0.435984 0.882278
O O17 0.599185 0.395196 0.000000
O O18 0.135398 0.200572 0.500000
O O19 0.000000 0.217801 0.601200
#
# Coordination Sequence:
#
# PCOD9494855 Si02
#       7
#    16  16  16  16  16  16  16
#     4  11  22  33  46  65  94 133 168 195 228 277
#     4   9  19  35  52  71  97 126 157 201 253 293
#     4  11  20  29  44  70 103 133 159 195 237 276
#     4   9  18  33  52  72  96 128 164 200 237 280
#     4   9  17  29  47  71  98 131 169 201 231 277
#     4  11  21  32  50  74  96 123 161 200 240 290
#     4   9  17  29  45  65  94 133 168 194 225 270
#
# _framework density 9.2181069999999998
#
# number of rings (size 3 to 8) (size 9 to 14) (size 15 to 20)
#    0.000    2.143    1.429    3.857    0.000    4.286 
#    0.000    2.857    0.000    2.143    0.000    6.000 
#    0.000    0.000    0.000   15.143    0.000    0.286 
#
# Total GULP energy -311880.778298 kJ/mol
# GULP energy per Si atom -5569.299612 kJ/mol
# Density = 0.919713 g / cm^3
# Si number density = 9.218107 Si / 1000 Ang^3
#
#
#
# Elastic Constant Matrix: (Units=GPa)
#
#
# Indices 1 2 3 4 5 6 
#
# 1 34.7594 6.3602 7.9457 0.0000 0.0000 0.0000
# 2 6.3602 58.9427 39.9286 0.0000 0.0000 0.0000
# 3 7.9457 39.9286 87.0223 0.0000 0.0000 0.0000
# 4 0.0000 0.0000 0.0000 175.2390 0.0000 0.0000
# 5 0.0000 0.0000 0.0000 0.0000 15.5654 0.0000
# 6 0.0000 0.0000 0.0000 0.0000 0.0000 4.3328
#
#
#
# Elastic Compliance Matrix: (Units=1/GPa)
#
#
# Indices 1 2 3 4 5 6 
#
# 1 0.029540 -0.001974 -0.001791 0.000000 0.000000 0.000000
# 2 -0.001974 0.024749 -0.011175 0.000000 0.000000 0.000000
# 3 -0.001791 -0.011175 0.016783 0.000000 0.000000 0.000000
# 4 0.000000 0.000000 0.000000 0.005706 0.000000 0.000000
# 5 0.000000 0.000000 0.000000 0.000000 0.064245 0.000000
# 6 0.000000 0.000000 0.000000 0.000000 0.000000 0.230796
#
#
# Mechanical properties :
#
#
# Convention : Reuss Voigt Hill
#
# Bulk Modulus (GPa) = 24.27784 32.13259 28.20521
# Shear Modulus (GPa) = 12.03573 47.46012 29.74792
#
# Velocity S-wave (km/s) = 2.55783 5.07925 4.02127
# Velocity P-wave (km/s) = 4.68193 7.20175 6.07395
#
# Compressibility (1/GPa) = 0.04118983
#
# Stress axis : x y z
#
# Youngs Moduli (GPa) = 33.85249 40.40566 59.58586
#
# Poissons Ratio (x) = 0.07976 0.10675
# Poissons Ratio (y) = 0.06682 0.66590
# Poissons Ratio (z) = 0.06065 0.45155
#
# Static dielectric constant tensor:
#      x y z
#    x 1.713890 0.000000 0.000000 
#    y 0.000000 1.628650 0.000000 
#    z 0.000000 0.000000 1.690310 
# 
# From -- ./inp_files/41077.got.cif
#   From: 2010.05.17/outbox.ucp.g08.bks.cvg/sg65_21_cif.got.tgz:41077.got - 2010.06.11 16:39:57.
