data_PCOD9494504
_publ_section_title
;
Structure prediction by ZEFSAII (Michael W. Deem and Ramdas Pophale) SiO2 
 PCOD9494504
Probable space group: C M M M
;
_chemical_formula_sum "Si O2"
_cell_formula_units_Z 112
_cell_length_a 27.577484
_cell_length_b 38.737025
_cell_length_c 7.723833
_cell_angle_alpha 90.000000
_cell_angle_beta 90.000000
_cell_angle_gamma 90.000000
_cell_volume 8251.136662
_symmetry_space_group_name_H-M "C M M M"
_symmetry_group_IT_number 65
_symmetry_cell_setting 'orthorhombic'
loop_
_space_group_symop_operation_xyz
x,y,z
-x,-y,z
x,-y,-z
-x,y,-z
-x,-y,-z
x,y,-z
-x,y,z
x,-y,z
1/2+x,1/2+y,z
1/2-x,1/2-y,z
1/2+x,1/2-y,-z
1/2-x,1/2+y,-z
1/2-x,1/2-y,-z
1/2+x,1/2+y,-z
1/2-x,1/2+y,z
1/2+x,1/2-y,z
loop_
_atom_site_type_symbol
_atom_site_label
_atom_site_fract_x
_atom_site_fract_y
_atom_site_fract_z
Si Si1 0.705394 0.226803 0.294570
Si Si2 0.644995 0.287968 0.207951
Si Si3 0.295116 0.460915 0.500000
Si Si4 0.765205 0.165851 0.205565
Si Si5 0.913084 0.039668 0.500000
Si Si6 0.089664 0.907458 0.202019
Si Si7 0.293124 0.408852 0.202247
Si Si8 0.054171 0.831245 0.211306
O O1 0.709255 0.226619 0.500000
O O2 0.750000 0.250000 0.220148
O O3 0.657625 0.248326 0.248666
O O4 0.716825 0.188064 0.235827
O O5 0.689625 0.311549 0.276300
O O6 0.595054 0.304470 0.271570
O O7 0.645023 0.290870 0.000000
O O8 0.277583 0.500000 0.500000
O O9 0.354115 0.461714 0.500000
O O10 0.280375 0.439954 0.329134
O O11 0.768736 0.126675 0.266854
O O12 0.772674 0.163375 0.000000
O O13 0.926342 0.062016 0.330215
O O14 0.930525 0.000000 0.500000
O O15 0.148322 0.904036 0.210744
O O16 0.068150 0.870529 0.257067
O O17 0.077078 0.913891 0.000000
O O18 0.281244 0.415130 0.000000
O O19 0.000000 0.823098 0.269943
O O20 0.054567 0.830544 0.000000
#
# Coordination Sequence:
#
# PCOD9494504 Si02
#       8
#    16  16   8  16   8  16  16  16
#     4   9  17  25  33  53  76  97 120 143 176 218
#     4   9  15  26  40  53  73  97 119 148 185 222
#     4   9  18  28  38  57  78  98 122 150 187 226
#     4   9  15  24  38  55  74  97 123 147 180 225
#     4   9  18  30  43  62  76  90 117 145 183 237
#     4   9  16  29  44  59  77  96 117 149 190 229
#     4   9  16  26  41  58  75  99 125 152 188 227
#     4   9  16  27  44  61  74  93 124 156 188 229
#
# _framework density 13.573888
#
# number of rings (size 3 to 8) (size 9 to 14) (size 15 to 20)
#    0.000    3.000    1.429    0.429    1.000    2.286 
#    1.286    3.214    0.000    0.857    0.000    2.000 
#    0.000    0.000    0.000    0.000    0.000    0.000 
#
# Total GULP energy -311787.697716 kJ/mol
# GULP energy per Si atom -5567.637459 kJ/mol
# Density = 1.354299 g / cm^3
# Si number density = 13.573888 Si / 1000 Ang^3
#
#
#
# Elastic Constant Matrix: (Units=GPa)
#
#
# Indices 1 2 3 4 5 6 
#
# 1 36.7217 46.8464 12.2856 0.0000 0.0000 0.0000
# 2 46.8464 100.6068 30.2574 0.0000 0.0000 0.0000
# 3 12.2856 30.2574 43.6301 0.0000 0.0000 0.0000
# 4 0.0000 0.0000 0.0000 25.8642 0.0000 0.0000
# 5 0.0000 0.0000 0.0000 0.0000 1.7144 0.0000
# 6 0.0000 0.0000 0.0000 0.0000 0.0000 8.3007
#
#
#
# Elastic Compliance Matrix: (Units=1/GPa)
#
#
# Indices 1 2 3 4 5 6 
#
# 1 0.067504 -0.032493 0.003526 0.000000 0.000000 0.000000
# 2 -0.032493 0.028199 -0.010407 0.000000 0.000000 0.000000
# 3 0.003526 -0.010407 0.029144 0.000000 0.000000 0.000000
# 4 0.000000 0.000000 0.000000 0.038663 0.000000 0.000000
# 5 0.000000 0.000000 0.000000 0.000000 0.583300 0.000000
# 6 0.000000 0.000000 0.000000 0.000000 0.000000 0.120472
#
#
# Mechanical properties :
#
#
# Convention : Reuss Voigt Hill
#
# Bulk Modulus (GPa) = 21.69213 39.97081 30.83147
# Shear Modulus (GPa) = 5.20077 13.28047 9.24062
#
# Velocity S-wave (km/s) = 1.95953 3.13131 2.61198
# Velocity P-wave (km/s) = 4.59730 6.52566 5.64444
#
# Compressibility (1/GPa) = 0.04609967
#
# Stress axis : x y z
#
# Youngs Moduli (GPa) = 14.81403 35.46181 34.31199
#
# Poissons Ratio (x) = 1.15225 -0.12097
# Poissons Ratio (y) = 0.48135 0.35708
# Poissons Ratio (z) = -0.05223 0.36904
#
# Static dielectric constant tensor:
#      x y z
#    x 1.430240 0.000000 0.000000 
#    y 0.000000 1.458900 0.000000 
#    z 0.000000 0.000000 1.480230 
# 
# From -- ./inp_files/19222.got.cif
#   From: 2010.05.17/outbox.cif.g08.bks.cpg/sg65_10_cif.got.tgz:19222.got - 2010.06.03 17:01:31.
