data_PCOD9494837
_publ_section_title
;
Structure prediction by ZEFSAII (Michael W. Deem and Ramdas Pophale) SiO2 
 PCOD9494837
Probable space group: C M M M
;
_chemical_formula_sum "Si O2"
_cell_formula_units_Z 52
_cell_length_a 21.000000
_cell_length_b 9.000000
_cell_length_c 27.000000
_cell_angle_alpha 90.000000
_cell_angle_beta 90.000000
_cell_angle_gamma 90.000000
_cell_volume 5103.000000
_symmetry_space_group_name_H-M "C M M M"
_symmetry_group_IT_number 65
_symmetry_cell_setting 'orthorhombic'
loop_
_space_group_symop_operation_xyz
x,y,z
-x,-y,z
x,-y,-z
-x,y,-z
-x,-y,-z
x,y,-z
-x,y,z
x,-y,z
1/2+x,1/2+y,z
1/2-x,1/2-y,z
1/2+x,1/2-y,-z
1/2-x,1/2+y,-z
1/2-x,1/2-y,-z
1/2+x,1/2+y,-z
1/2-x,1/2+y,z
1/2+x,1/2-y,z
loop_
_atom_site_type_symbol
_atom_site_label
_atom_site_fract_x
_atom_site_fract_y
_atom_site_fract_z
Si Si1 0.367028 0.322603 0.286173
Si Si2 0.187305 0.823216 0.386266
Si Si3 0.500000 0.320471 0.847216
Si Si4 0.117523 0.326647 0.095456
Si Si5 0.320539 0.321218 0.000000
Si Si6 0.927713 0.326432 0.559533
Si Si7 0.000000 0.179697 0.268400
Si Si8 0.814982 0.330183 0.803878
O O1 0.360758 0.500000 0.283334
O O2 0.321219 0.268909 0.329232
O O3 0.438433 0.277702 0.299054
O O4 0.361359 0.259775 0.231186
O O5 0.250000 0.750000 0.408243
O O6 0.124842 0.773886 0.415065
O O7 0.193139 0.000000 0.385971
O O8 0.500000 0.500000 0.848595
O O9 0.559524 0.254396 0.877237
O O10 0.500000 0.270500 0.789437
O O11 0.102854 0.500000 0.083836
O O12 0.170777 0.325886 0.138183
O O13 0.142070 0.239299 0.047899
O O14 0.250000 0.250000 0.000000
O O15 0.316469 0.500000 0.000000
O O16 0.922605 0.315530 0.500000
O O17 0.917438 0.500000 0.572610
O O18 0.000000 0.285510 0.573001
O O19 0.000000 0.000000 0.264602
O O20 0.814666 0.500000 0.787862
O O21 0.750000 0.250000 0.793729
#
# Coordination Sequence:
#
# PCOD9494837 Si02
#       8
#    16  16   8  16   8  16   8  16
#     4  10  21  38  60  87 122 162 202 249 304 362
#     4  11  24  39  61  91 129 170 213 263 315 373
#     4  11  21  38  66  93 121 158 197 242 298 358
#     4  11  24  42  63  90 123 156 195 247 298 353
#     4  12  26  45  68  93 120 154 198 242 296 360
#     4   9  20  41  67  93 124 163 208 261 321 382
#     4   9  18  35  60  88 120 160 201 247 300 358
#     4  11  23  37  58  85 116 155 200 245 296 357
#
# _framework density 10.190084000000001
#
# number of rings (size 3 to 8) (size 9 to 14) (size 15 to 20)
#    0.000    1.538    1.538    3.692    1.077    6.769 
#    0.000    2.692    0.000    0.000    0.000    0.000 
#    0.000    0.000    0.000    0.000    0.000    0.000 
#
# Total GULP energy -289993.407294 kJ/mol
# GULP energy per Si atom -5576.796294 kJ/mol
# Density = 1.016689 g / cm^3
# Si number density = 10.190084 Si / 1000 Ang^3
#
#
#
# Elastic Constant Matrix: (Units=GPa)
#
#
# Indices 1 2 3 4 5 6 
#
# 1 104.8948 34.4580 26.5103 0.0000 0.0000 0.0000
# 2 34.4580 68.6444 24.4895 0.0000 0.0000 0.0000
# 3 26.5103 24.4895 42.8457 0.0000 0.0000 0.0000
# 4 0.0000 0.0000 0.0000 27.8502 0.0000 0.0000
# 5 0.0000 0.0000 0.0000 0.0000 41.7059 0.0000
# 6 0.0000 0.0000 0.0000 0.0000 0.0000 25.7680
#
#
#
# Elastic Compliance Matrix: (Units=1/GPa)
#
#
# Indices 1 2 3 4 5 6 
#
# 1 0.012244 -0.004326 -0.005104 0.000000 0.000000 0.000000
# 2 -0.004326 0.019827 -0.008656 0.000000 0.000000 0.000000
# 3 -0.005104 -0.008656 0.031445 0.000000 0.000000 0.000000
# 4 0.000000 0.000000 0.000000 0.035906 0.000000 0.000000
# 5 0.000000 0.000000 0.000000 0.000000 0.023977 0.000000
# 6 0.000000 0.000000 0.000000 0.000000 0.000000 0.038808
#
#
# Mechanical properties :
#
#
# Convention : Reuss Voigt Hill
#
# Bulk Modulus (GPa) = 36.56899 43.03339 39.80119
# Shear Modulus (GPa) = 24.09700 27.79328 25.94514
#
# Velocity S-wave (km/s) = 3.44230 3.69689 3.57186
# Velocity P-wave (km/s) = 5.81219 6.27566 6.04837
#
# Compressibility (1/GPa) = 0.02734558
#
# Stress axis : x y z
#
# Youngs Moduli (GPa) = 81.67169 50.43513 31.80143
#
# Poissons Ratio (x) = 0.21816 0.16230
# Poissons Ratio (y) = 0.35328 0.27529
# Poissons Ratio (z) = 0.41681 0.43659
#
# Static dielectric constant tensor:
#      x y z
#    x 1.820070 0.000000 0.000000 
#    y 0.000000 1.687170 0.000000 
#    z 0.000000 0.000000 1.673670 
# 
# From -- ./inp_files/75569.got.cif
#   From: 2010.05.17/outbox.ucp.g08.bks.cvg/sg65_38_cif.got.tgz:75569.got - 2010.06.11 16:39:57.
