data_PCOD9494565
_publ_section_title
;
Structure prediction by ZEFSAII (Michael W. Deem and Ramdas Pophale) SiO2 
 PCOD9494565
Probable space group: C M M M
;
_chemical_formula_sum "Si O2"
_cell_formula_units_Z 48
_cell_length_a 27.000000
_cell_length_b 9.000000
_cell_length_c 24.000000
_cell_angle_alpha 90.000000
_cell_angle_beta 90.000000
_cell_angle_gamma 90.000000
_cell_volume 5832.000000
_symmetry_space_group_name_H-M "C M M M"
_symmetry_group_IT_number 65
_symmetry_cell_setting 'orthorhombic'
loop_
_space_group_symop_operation_xyz
x,y,z
-x,-y,z
x,-y,-z
-x,y,-z
-x,-y,-z
x,y,-z
-x,y,z
x,-y,z
1/2+x,1/2+y,z
1/2-x,1/2-y,z
1/2+x,1/2-y,-z
1/2-x,1/2+y,-z
1/2-x,1/2-y,-z
1/2+x,1/2+y,-z
1/2-x,1/2+y,z
1/2+x,1/2-y,z
loop_
_atom_site_type_symbol
_atom_site_label
_atom_site_fract_x
_atom_site_fract_y
_atom_site_fract_z
Si Si1 0.148047 0.674241 0.223775
Si Si2 0.304275 0.677962 0.000000
Si Si3 0.896166 0.825849 0.606827
Si Si4 0.440910 0.829403 0.500000
Si Si5 0.802197 0.677252 0.340701
Si Si6 0.695804 0.323043 0.880157
Si Si7 0.442627 0.671718 0.726447
O O1 0.153257 0.500000 0.213527
O O2 0.182162 0.713847 0.277006
O O3 0.164086 0.764690 0.170408
O O4 0.092848 0.717615 0.241238
O O5 0.250000 0.750000 0.000000
O O6 0.327059 0.718399 0.059460
O O7 0.298639 0.500000 0.000000
O O8 0.921267 0.753056 0.554121
O O9 0.845180 0.744298 0.621343
O O10 0.931008 0.809638 0.661029
O O11 0.887337 0.000000 0.598050
O O12 0.500000 0.827026 0.500000
O O13 0.424034 0.000000 0.500000
O O14 0.800408 0.500000 0.345836
O O15 0.750000 0.750000 0.353596
O O16 0.701169 0.500000 0.877126
O O17 0.750000 0.250000 0.876437
O O18 0.500000 0.695196 0.737611
O O19 0.429633 0.500000 0.740242
#
# Coordination Sequence:
#
# PCOD9494565 Si02
#       7
#    16   8  16   8  16  16  16
#     4  10  20  31  46  71  99 128 162 197 236 284
#     4   8  16  28  42  62  89 124 161 196 236 279
#     4  10  20  35  55  77 100 127 161 198 237 283
#     4  11  23  37  54  77 104 131 159 195 239 285
#     4  10  20  34  51  72 100 132 164 198 237 282
#     4  10  18  29  45  66  95 128 162 199 237 280
#     4   9  18  33  52  73  97 125 157 196 241 285
#
# _framework density 8.2304530000000007
#
# number of rings (size 3 to 8) (size 9 to 14) (size 15 to 20)
#    0.000    2.250    0.000    3.250    0.000    6.333 
#    0.000    0.417    0.000    0.000    0.000    0.583 
#    0.000    4.667    0.000    0.000    0.000    0.000 
#
# Total GULP energy -267628.266942 kJ/mol
# GULP energy per Si atom -5575.588895 kJ/mol
# Density = 0.821172 g / cm^3
# Si number density = 8.230453 Si / 1000 Ang^3
#
#
#
# Elastic Constant Matrix: (Units=GPa)
#
#
# Indices 1 2 3 4 5 6 
#
# 1 39.2859 24.3137 28.0856 0.0000 0.0000 0.0000
# 2 24.3137 41.8751 54.4528 0.0000 0.0000 0.0000
# 3 28.0856 54.4528 93.1029 0.0000 0.0000 0.0000
# 4 0.0000 0.0000 0.0000 23.1218 0.0000 0.0000
# 5 0.0000 0.0000 0.0000 0.0000 0.4010 0.0000
# 6 0.0000 0.0000 0.0000 0.0000 0.0000 25.2178
#
#
#
# Elastic Compliance Matrix: (Units=1/GPa)
#
#
# Indices 1 2 3 4 5 6 
#
# 1 0.040635 -0.031963 0.006436 0.000000 0.000000 0.000000
# 2 -0.031963 0.124867 -0.063389 0.000000 0.000000 0.000000
# 3 0.006436 -0.063389 0.045873 0.000000 0.000000 0.000000
# 4 0.000000 0.000000 0.000000 0.043249 0.000000 0.000000
# 5 0.000000 0.000000 0.000000 0.000000 2.493552 0.000000
# 6 0.000000 0.000000 0.000000 0.000000 0.000000 0.039654
#
#
# Mechanical properties :
#
#
# Convention : Reuss Voigt Hill
#
# Bulk Modulus (GPa) = 29.81124 43.10756 36.45940
# Shear Modulus (GPa) = 1.67963 14.24224 7.96094
#
# Velocity S-wave (km/s) = 1.01123 2.94465 2.20154
# Velocity P-wave (km/s) = 4.41736 6.14865 5.35346
#
# Compressibility (1/GPa) = 0.03354440
#
# Stress axis : x y z
#
# Youngs Moduli (GPa) = 24.60945 8.00851 21.79915
#
# Poissons Ratio (x) = 0.25597 -0.14030
# Poissons Ratio (y) = 0.78658 1.38182
# Poissons Ratio (z) = -0.15838 0.50765
#
# Static dielectric constant tensor:
#      x y z
#    x 1.531340 0.000000 0.000000 
#    y 0.000000 1.554230 0.000000 
#    z 0.000000 0.000000 1.550770 
# 
# From -- ./inp_files/71699.got.cif
#   From: 2010.05.17/outbox.ucp.g08.bks.cvg/sg65_36_cif.got.tgz:71699.got - 2010.06.11 16:39:57.
