data_PCOD9494540
_publ_section_title
;
Structure prediction by ZEFSAII (Michael W. Deem and Ramdas Pophale) SiO2 
 PCOD9494540
Probable space group: C M M M
;
_chemical_formula_sum "Si O2"
_cell_formula_units_Z 88
_cell_length_a 19.687955
_cell_length_b 7.632062
_cell_length_c 29.306735
_cell_angle_alpha 90.000000
_cell_angle_beta 90.000000
_cell_angle_gamma 90.000000
_cell_volume 4403.621010
_symmetry_space_group_name_H-M "C M M M"
_symmetry_group_IT_number 65
_symmetry_cell_setting 'orthorhombic'
loop_
_space_group_symop_operation_xyz
x,y,z
-x,-y,z
x,-y,-z
-x,y,-z
-x,-y,-z
x,y,-z
-x,y,z
x,-y,z
1/2+x,1/2+y,z
1/2-x,1/2-y,z
1/2+x,1/2-y,-z
1/2-x,1/2+y,-z
1/2-x,1/2-y,-z
1/2+x,1/2+y,-z
1/2-x,1/2+y,z
1/2+x,1/2-y,z
loop_
_atom_site_type_symbol
_atom_site_label
_atom_site_fract_x
_atom_site_fract_y
_atom_site_fract_z
Si Si1 0.921701 0.214935 0.366006
Si Si2 0.672390 0.289641 0.448353
Si Si3 0.922617 0.209118 0.900865
Si Si4 0.422614 0.208089 0.000000
Si Si5 0.828469 0.789575 0.717081
Si Si6 0.828322 0.789273 0.180155
O O1 0.881059 0.273740 0.411006
O O2 0.879964 0.274000 0.321493
O O3 0.000000 0.269632 0.365618
O O4 0.921097 0.000000 0.366012
O O5 0.662134 0.222037 0.500000
O O6 0.666058 0.500000 0.450127
O O7 0.750000 0.250000 0.434697
O O8 0.892263 0.239655 0.951325
O O9 0.877491 0.278731 0.859415
O O10 0.000000 0.279470 0.900079
O O11 0.926920 0.000000 0.895301
O O12 0.500000 0.282571 0.000000
O O13 0.426525 0.000000 0.000000
O O14 0.750000 0.750000 0.705637
O O15 0.842237 0.722955 0.768446
O O16 0.834736 0.000000 0.718404
O O17 0.750000 0.750000 0.169605
O O18 0.835520 0.000000 0.181590
#
# Coordination Sequence:
#
# PCOD9494540 Si02
#       6
#    16  16  16   8  16  16
#     4   9  17  28  44  68  94 118 148 189 232 269
#     4   9  17  29  46  67  90 119 155 191 226 268
#     4   9  17  30  48  68  90 117 149 184 221 262
#     4   9  17  29  46  69  94 119 149 183 220 263
#     4   9  17  30  48  67  88 117 151 185 222 267
#     4   9  18  31  47  68  92 118 148 183 224 268
#
# _framework density 19.983556
#
# number of rings (size 3 to 8) (size 9 to 14) (size 15 to 20)
#    0.000    3.000    0.000    0.818    0.000    2.909 
#    0.000    5.909    0.000    2.182    0.000    7.636 
#    0.000    0.000    0.000    0.000    0.000    0.000 
#
# Total GULP energy -245356.007107 kJ/mol
# GULP energy per Si atom -5576.272889 kJ/mol
# Density = 1.993807 g / cm^3
# Si number density = 19.983556 Si / 1000 Ang^3
#
#
#
# Elastic Constant Matrix: (Units=GPa)
#
#
# Indices 1 2 3 4 5 6 
#
# 1 140.8754 0.8872 138.3949 0.0000 0.0000 0.0000
# 2 0.8872 40.6345 5.7999 0.0000 0.0000 0.0000
# 3 138.3949 5.7999 186.9198 0.0000 0.0000 0.0000
# 4 0.0000 0.0000 0.0000 -40.2706 0.0000 0.0000
# 5 0.0000 0.0000 0.0000 0.0000 49.2264 0.0000
# 6 0.0000 0.0000 0.0000 0.0000 0.0000 19.1980
#
#
#
# Elastic Compliance Matrix: (Units=1/GPa)
#
#
# Indices 1 2 3 4 5 6 
#
# 1 0.026232 0.002209 -0.019491 0.000000 0.000000 0.000000
# 2 0.002209 0.024905 -0.002408 0.000000 0.000000 0.000000
# 3 -0.019491 -0.002408 0.019855 0.000000 0.000000 0.000000
# 4 0.000000 0.000000 0.000000 -0.024832 0.000000 0.000000
# 5 0.000000 0.000000 0.000000 0.000000 0.020314 0.000000
# 6 0.000000 0.000000 0.000000 0.000000 0.000000 0.052089
#
#
# Mechanical properties :
#
#
# Convention : Reuss Voigt Hill
#
# Bulk Modulus (GPa) = 31.63278 73.17708 52.40493
# Shear Modulus (GPa) = 29.67688 20.52061 25.09875
#
# Velocity S-wave (km/s) = 3.85783 3.20797 3.54781
# Velocity P-wave (km/s) = 5.97559 7.10067 6.56228
#
# Compressibility (1/GPa) = 0.03161278
#
# Stress axis : x y z
#
# Youngs Moduli (GPa) = 38.12129 40.15233 50.36394
#
# Poissons Ratio (x) = -0.08870 0.98163
# Poissons Ratio (y) = -0.08422 0.12130
# Poissons Ratio (z) = 0.74301 0.09671
#
# Static dielectric constant tensor:
#      x y z
#    x 1.665900 0.000000 0.000000 
#    y 0.000000 1.743020 0.000000 
#    z 0.000000 0.000000 1.728260 
# 
# From -- ./inp_files/77918.got.cif
#   From: 2010.05.17/outbox.cif.g08.bks.cpg/sg65_39_cif.got.tgz:77918.got - 2010.06.03 17:01:31.
