data_PCOD9494756
_publ_section_title
;
Structure prediction by ZEFSAII (Michael W. Deem and Ramdas Pophale) SiO2 
 PCOD9494756
Probable space group: C M M M
;
_chemical_formula_sum "Si O2"
_cell_formula_units_Z 36
_cell_length_a 27.000000
_cell_length_b 9.000000
_cell_length_c 15.000000
_cell_angle_alpha 90.000000
_cell_angle_beta 90.000000
_cell_angle_gamma 90.000000
_cell_volume 3645.000000
_symmetry_space_group_name_H-M "C M M M"
_symmetry_group_IT_number 65
_symmetry_cell_setting 'orthorhombic'
loop_
_space_group_symop_operation_xyz
x,y,z
-x,-y,z
x,-y,-z
-x,y,-z
-x,-y,-z
x,y,-z
-x,y,z
x,-y,z
1/2+x,1/2+y,z
1/2-x,1/2-y,z
1/2+x,1/2-y,-z
1/2-x,1/2+y,-z
1/2-x,1/2-y,-z
1/2+x,1/2+y,-z
1/2-x,1/2+y,z
1/2+x,1/2-y,z
loop_
_atom_site_type_symbol
_atom_site_label
_atom_site_fract_x
_atom_site_fract_y
_atom_site_fract_z
Si Si1 0.699636 0.679030 0.284712
Si Si2 0.596738 0.823256 0.672104
Si Si3 0.941942 0.833299 0.500000
Si Si4 0.055039 0.178902 0.847081
Si Si5 0.836179 0.820418 0.906782
O O1 0.699988 0.500000 0.290789
O O2 0.750000 0.750000 0.319664
O O3 0.650715 0.747302 0.327388
O O4 0.692223 0.726976 0.181173
O O5 0.571954 0.763025 0.584340
O O6 0.564693 0.760497 0.754183
O O7 0.600716 0.000000 0.677297
O O8 0.000000 0.852737 0.500000
O O9 0.919042 0.000000 0.500000
O O10 0.105197 0.216278 0.900270
O O11 0.000000 0.214692 0.882818
O O12 0.056304 0.000000 0.834013
O O13 0.833711 0.000000 0.906917
O O14 0.816173 0.761890 0.000000
#
# Coordination Sequence:
#
# PCOD9494756 Si02
#       5
#    16  16   8  16  16
#     4  10  20  36  57  79 105 139 178 220 269 320
#     4  11  22  36  55  80 109 140 177 219 262 311
#     4  11  23  39  60  85 114 145 175 211 257 307
#     4   9  17  30  49  73 104 143 182 220 266 317
#     4   8  15  28  47  74 106 138 176 222 267 315
#
# _framework density 9.8765429999999999
#
# number of rings (size 3 to 8) (size 9 to 14) (size 15 to 20)
#    0.000    2.333    0.000    5.000    0.000    4.889 
#    0.000    2.778    0.000   16.000    0.000    6.222 
#    0.000    0.000    0.000    0.000    0.000    0.000 
#
# Total GULP energy -200583.089948 kJ/mol
# GULP energy per Si atom -5571.752499 kJ/mol
# Density = 0.985406 g / cm^3
# Si number density = 9.876543 Si / 1000 Ang^3
#
#
#
# Elastic Constant Matrix: (Units=GPa)
#
#
# Indices 1 2 3 4 5 6 
#
# 1 103.2400 21.9233 4.1006 0.0000 0.0000 0.0000
# 2 21.9233 32.2375 12.9583 0.0000 0.0000 0.0000
# 3 4.1006 12.9583 75.0471 0.0000 0.0000 0.0000
# 4 0.0000 0.0000 0.0000 67.0880 0.0000 0.0000
# 5 0.0000 0.0000 0.0000 0.0000 29.7545 0.0000
# 6 0.0000 0.0000 0.0000 0.0000 0.0000 26.8332
#
#
#
# Elastic Compliance Matrix: (Units=1/GPa)
#
#
# Indices 1 2 3 4 5 6 
#
# 1 0.011362 -0.008035 0.000767 0.000000 0.000000 0.000000
# 2 -0.008035 0.039015 -0.006298 0.000000 0.000000 0.000000
# 3 0.000767 -0.006298 0.014371 0.000000 0.000000 0.000000
# 4 0.000000 0.000000 0.000000 0.014906 0.000000 0.000000
# 5 0.000000 0.000000 0.000000 0.000000 0.033608 0.000000
# 6 0.000000 0.000000 0.000000 0.000000 0.000000 0.037267
#
#
# Mechanical properties :
#
#
# Convention : Reuss Voigt Hill
#
# Bulk Modulus (GPa) = 26.58463 32.05434 29.31949
# Shear Modulus (GPa) = 26.28814 36.17129 31.22972
#
# Velocity S-wave (km/s) = 3.65202 4.28386 3.98050
# Velocity P-wave (km/s) = 5.59202 6.38211 6.00009
#
# Compressibility (1/GPa) = 0.03761572
#
# Stress axis : x y z
#
# Youngs Moduli (GPa) = 88.01310 25.63095 69.58700
#
# Poissons Ratio (x) = 0.20594 -0.05334
# Poissons Ratio (y) = 0.70717 0.43824
# Poissons Ratio (z) = -0.06747 0.16142
#
# Static dielectric constant tensor:
#      x y z
#    x 1.697600 0.000000 0.000000 
#    y 0.000000 1.646300 0.000000 
#    z 0.000000 0.000000 1.705280 
# 
# From -- ./inp_files/36544.got.cif
#   From: 2010.05.17/outbox.ucp.g08.bks.cvg/sg65_19_cif.got.tgz:36544.got - 2010.06.11 16:39:57.
