data_PCOD9494717
_publ_section_title
;
Structure prediction by ZEFSAII (Michael W. Deem and Ramdas Pophale) SiO2 
 PCOD9494717
Probable space group: C M M M
;
_chemical_formula_sum "Si O2"
_cell_formula_units_Z 52
_cell_length_a 24.000000
_cell_length_b 27.000000
_cell_length_c 9.000000
_cell_angle_alpha 90.000000
_cell_angle_beta 90.000000
_cell_angle_gamma 90.000000
_cell_volume 5832.000000
_symmetry_space_group_name_H-M "C M M M"
_symmetry_group_IT_number 65
_symmetry_cell_setting 'orthorhombic'
loop_
_space_group_symop_operation_xyz
x,y,z
-x,-y,z
x,-y,-z
-x,y,-z
-x,-y,-z
x,y,-z
-x,y,z
x,-y,z
1/2+x,1/2+y,z
1/2-x,1/2-y,z
1/2+x,1/2-y,-z
1/2-x,1/2+y,-z
1/2-x,1/2-y,-z
1/2+x,1/2+y,-z
1/2-x,1/2+y,z
1/2+x,1/2-y,z
loop_
_atom_site_type_symbol
_atom_site_label
_atom_site_fract_x
_atom_site_fract_y
_atom_site_fract_z
Si Si1 0.067043 0.101059 0.827576
Si Si2 0.637269 0.789752 0.822557
Si Si3 0.932172 0.000000 0.329681
Si Si4 0.935735 0.615873 0.178806
Si Si5 0.835514 0.443551 0.321147
Si Si6 0.263633 0.850107 0.321309
Si Si7 0.139086 0.183470 0.322557
O O1 0.093806 0.145299 0.736707
O O2 0.000000 0.103173 0.819645
O O3 0.085412 0.049237 0.755594
O O4 0.083133 0.103680 0.000000
O O5 0.588737 0.829498 0.786417
O O6 0.694193 0.812803 0.758667
O O7 0.629093 0.736671 0.749819
O O8 0.640447 0.785392 0.000000
O O9 0.913017 0.000000 0.500000
O O10 0.000000 0.000000 0.331320
O O11 0.892572 0.577656 0.251970
O O12 0.000000 0.610246 0.225774
O O13 0.933455 0.610117 0.000000
O O14 0.840798 0.442781 0.500000
O O15 0.825139 0.500000 0.274038
O O16 0.786066 0.405052 0.282552
O O17 0.269089 0.844231 0.500000
O O18 0.200335 0.837601 0.281422
O O19 0.137001 0.187529 0.500000
#
# Coordination Sequence:
#
# PCOD9494717 Si02
#       7
#    16  16   8  16  16  16  16
#     4  10  21  37  56  78 107 141 175 215 264 316
#     4  10  20  34  54  77 103 140 180 221 269 320
#     4   9  17  33  57  79 101 133 171 209 252 305
#     4   9  19  35  53  75 105 140 177 215 260 317
#     4   9  18  34  55  77 104 138 175 216 262 312
#     4   9  19  36  54  75 104 139 177 219 268 320
#     4  11  22  35  53  80 108 138 178 223 268 320
#
# _framework density 8.9163239999999995
#
# number of rings (size 3 to 8) (size 9 to 14) (size 15 to 20)
#    0.000    2.385    0.000    2.077    0.000    7.077 
#    1.385    3.077    0.000    0.000    0.000    0.000 
#    0.000    0.000    0.000    0.000    0.000    0.000 
#
# Total GULP energy -290150.083865 kJ/mol
# GULP energy per Si atom -5579.809305 kJ/mol
# Density = 0.889603 g / cm^3
# Si number density = 8.916324 Si / 1000 Ang^3
#
#
#
# Elastic Constant Matrix: (Units=GPa)
#
#
# Indices 1 2 3 4 5 6 
#
# 1 -13.4067 -5.6397 -2.6848 0.0000 0.0000 0.0000
# 2 -5.6397 129.8842 22.3769 0.0000 0.0000 0.0000
# 3 -2.6848 22.3769 18.5503 0.0000 0.0000 0.0000
# 4 0.0000 0.0000 0.0000 28.4797 0.0000 0.0000
# 5 0.0000 0.0000 0.0000 0.0000 26.1697 0.0000
# 6 0.0000 0.0000 0.0000 0.0000 0.0000 3.1821
#
#
#
# Elastic Compliance Matrix: (Units=1/GPa)
#
#
# Indices 1 2 3 4 5 6 
#
# 1 -0.072195 -0.001685 -0.008416 0.000000 0.000000 0.000000
# 2 -0.001685 0.009680 -0.011920 0.000000 0.000000 0.000000
# 3 -0.008416 -0.011920 0.067069 0.000000 0.000000 0.000000
# 4 0.000000 0.000000 0.000000 0.035113 0.000000 0.000000
# 5 0.000000 0.000000 0.000000 0.000000 0.038212 0.000000
# 6 0.000000 0.000000 0.000000 0.000000 0.000000 0.314258
#
#
# Mechanical properties :
#
#
# Convention : Reuss Voigt Hill
#
# Bulk Modulus (GPa) = -25.32304 18.12582 -3.59861
# Shear Modulus (GPa) = 11.81989 19.63133 15.72561
#
# Velocity S-wave (km/s) = 2.57733 3.32153 2.97281
# Velocity P-wave (km/s) = 2.31827 4.98964 3.12427
#
# Compressibility (1/GPa) = -0.03948973
#
# Stress axis : x y z
#
# Youngs Moduli (GPa) = -13.85133 103.30930 14.91008
#
# Poissons Ratio (x) = 0.17406 0.12549
# Poissons Ratio (y) = -0.02334 0.17773
# Poissons Ratio (z) = -0.11658 1.23147
#
# Static dielectric constant tensor:
#      x y z
#    x 1.588730 0.000000 0.000000 
#    y 0.000000 1.608550 0.000000 
#    z 0.000000 0.000000 1.596160 
# 
# From -- ./inp_files/14776.got.cif
#   From: 2010.05.17/outbox.ucp.g08.bks.cvg/sg65_8_cif.got.tgz:14776.got - 2010.06.11 16:39:57.
