data_PCOD9494715
_publ_section_title
;
Structure prediction by ZEFSAII (Michael W. Deem and Ramdas Pophale) SiO2 
 PCOD9494715
Probable space group: C M M M
;
_chemical_formula_sum "Si O2"
_cell_formula_units_Z 60
_cell_length_a 27.000000
_cell_length_b 27.000000
_cell_length_c 9.000000
_cell_angle_alpha 90.000000
_cell_angle_beta 90.000000
_cell_angle_gamma 90.000000
_cell_volume 6561.000000
_symmetry_space_group_name_H-M "C M M M"
_symmetry_group_IT_number 65
_symmetry_cell_setting 'orthorhombic'
loop_
_space_group_symop_operation_xyz
x,y,z
-x,-y,z
x,-y,-z
-x,y,-z
-x,-y,-z
x,y,-z
-x,y,z
x,-y,z
1/2+x,1/2+y,z
1/2-x,1/2-y,z
1/2+x,1/2-y,-z
1/2-x,1/2+y,-z
1/2-x,1/2-y,-z
1/2+x,1/2+y,-z
1/2-x,1/2+y,z
1/2+x,1/2-y,z
loop_
_atom_site_type_symbol
_atom_site_label
_atom_site_fract_x
_atom_site_fract_y
_atom_site_fract_z
Si Si1 0.905756 0.106081 0.676468
Si Si2 0.441820 0.196826 0.329612
Si Si3 0.359337 0.146485 0.176120
Si Si4 0.294227 0.946142 0.824630
Si Si5 0.440678 0.299031 0.171216
Si Si6 0.500000 0.558900 0.831926
Si Si7 0.204684 0.898914 0.678073
Si Si8 0.269948 0.195124 0.324440
O O1 0.908619 0.099651 0.500000
O O2 0.913943 0.162967 0.720974
O O3 0.851016 0.092265 0.731079
O O4 0.950610 0.077135 0.751520
O O5 0.428932 0.208456 0.500000
O O6 0.500000 0.186747 0.322764
O O7 0.409285 0.153158 0.265724
O O8 0.431133 0.243775 0.225609
O O9 0.332747 0.095612 0.217919
O O10 0.319301 0.186821 0.230034
O O11 0.367115 0.149073 0.000000
O O12 0.243287 0.938110 0.739493
O O13 0.314984 0.000000 0.797046
O O14 0.284126 0.940362 0.000000
O O15 0.500000 0.307387 0.183395
O O16 0.426375 0.306324 0.000000
O O17 0.500000 0.500000 0.835259
O O18 0.500000 0.578777 0.000000
O O19 0.203285 0.900308 0.500000
O O20 0.228519 0.845585 0.719828
O O21 0.280992 0.187165 0.500000
O O22 0.250000 0.250000 0.305845
#
# Coordination Sequence:
#
# PCOD9494715 Si02
#       8
#    16  16  16  16  16   8  16  16
#     4  11  22  36  56  79 108 142 179 228 282 337
#     4  10  21  36  55  80 112 150 188 222 263 320
#     4  10  20  34  54  82 112 142 180 227 272 321
#     4   9  19  37  59  81 107 141 180 223 274 330
#     4  10  20  34  53  78 108 142 182 223 265 316
#     4  11  25  43  59  75  99 137 187 241 292 339
#     4   9  20  35  51  79 109 138 179 223 270 322
#     4   9  18  33  52  74 106 148 182 215 263 324
#
# _framework density 9.1449470000000002
#
# number of rings (size 3 to 8) (size 9 to 14) (size 15 to 20)
#    0.000    2.200    0.667    1.800    1.867    4.533 
#    0.000    2.667    0.000    0.400    0.000    2.800 
#    0.000    0.000    0.000    0.000    0.000    0.000 
#
# Total GULP energy -334632.922056 kJ/mol
# GULP energy per Si atom -5577.215368 kJ/mol
# Density = 0.912413 g / cm^3
# Si number density = 9.144947 Si / 1000 Ang^3
#
#
#
# Elastic Constant Matrix: (Units=GPa)
#
#
# Indices 1 2 3 4 5 6 
#
# 1 40.8022 35.2985 19.5112 0.0000 0.0000 0.0000
# 2 35.2985 38.1198 16.4951 0.0000 0.0000 0.0000
# 3 19.5112 16.4951 27.0018 0.0000 0.0000 0.0000
# 4 0.0000 0.0000 0.0000 50.1922 0.0000 0.0000
# 5 0.0000 0.0000 0.0000 0.0000 185.4258 0.0000
# 6 0.0000 0.0000 0.0000 0.0000 0.0000 -3.4904
#
#
#
# Elastic Compliance Matrix: (Units=1/GPa)
#
#
# Indices 1 2 3 4 5 6 
#
# 1 0.138646 -0.115587 -0.029572 0.000000 0.000000 0.000000
# 2 -0.115587 0.132023 0.002870 0.000000 0.000000 0.000000
# 3 -0.029572 0.002870 0.056650 0.000000 0.000000 0.000000
# 4 0.000000 0.000000 0.000000 0.019923 0.000000 0.000000
# 5 0.000000 0.000000 0.000000 0.000000 0.005393 0.000000
# 6 0.000000 0.000000 0.000000 0.000000 0.000000 -0.286499
#
#
# Mechanical properties :
#
#
# Convention : Reuss Voigt Hill
#
# Bulk Modulus (GPa) = 23.39745 27.61481 25.50613
# Shear Modulus (GPa) = 13.70009 48.73348 31.21678
#
# Velocity S-wave (km/s) = 2.73985 5.16748 4.13580
# Velocity P-wave (km/s) = 4.77801 7.12285 6.06483
#
# Compressibility (1/GPa) = 0.04273971
#
# Stress axis : x y z
#
# Youngs Moduli (GPa) = 7.21264 7.57442 17.65233
#
# Poissons Ratio (x) = 0.87551 0.52202
# Poissons Ratio (y) = 0.83369 -0.05067
# Poissons Ratio (z) = 0.21329 -0.02174
#
# Static dielectric constant tensor:
#      x y z
#    x 1.611030 0.000000 0.000000 
#    y 0.000000 1.629940 0.000000 
#    z 0.000000 0.000000 1.618140 
# 
# From -- ./inp_files/17051.got.cif
#   From: 2010.05.17/outbox.ucp.g08.bks.cvg/sg65_9_cif.got.tgz:17051.got - 2010.06.11 16:39:57.
