data_PCOD9494524
_publ_section_title
;
Structure prediction by ZEFSAII (Michael W. Deem and Ramdas Pophale) SiO2 
 PCOD9494524
Probable space group: C M M M
;
_chemical_formula_sum "Si O2"
_cell_formula_units_Z 72
_cell_length_a 13.327687
_cell_length_b 36.475268
_cell_length_c 7.426619
_cell_angle_alpha 90.000000
_cell_angle_beta 90.000000
_cell_angle_gamma 90.000000
_cell_volume 3610.309388
_symmetry_space_group_name_H-M "C M M M"
_symmetry_group_IT_number 65
_symmetry_cell_setting 'orthorhombic'
loop_
_space_group_symop_operation_xyz
x,y,z
-x,-y,z
x,-y,-z
-x,y,-z
-x,-y,-z
x,y,-z
-x,y,z
x,-y,z
1/2+x,1/2+y,z
1/2-x,1/2-y,z
1/2+x,1/2-y,-z
1/2-x,1/2+y,-z
1/2-x,1/2-y,-z
1/2+x,1/2+y,-z
1/2-x,1/2+y,z
1/2+x,1/2-y,z
loop_
_atom_site_type_symbol
_atom_site_label
_atom_site_fract_x
_atom_site_fract_y
_atom_site_fract_z
Si Si1 0.379841 0.684043 0.500000
Si Si2 0.122711 0.267727 0.500000
Si Si3 0.000000 0.457834 0.220602
Si Si4 0.384332 0.377654 0.784480
Si Si5 0.879500 0.674952 0.797437
Si Si6 0.819664 0.593773 0.781866
O O1 0.500000 0.687111 0.500000
O O2 0.343277 0.725730 0.500000
O O3 0.356979 0.659191 0.325265
O O4 0.152376 0.291803 0.672313
O O5 0.000000 0.267118 0.500000
O O6 0.100175 0.436165 0.280428
O O7 0.000000 0.500000 0.277010
O O8 0.000000 0.457448 0.000000
O O9 0.500000 0.387368 0.739795
O O10 0.298570 0.407363 0.736357
O O11 0.379891 0.371574 0.000000
O O12 0.854245 0.634472 0.726107
O O13 0.000000 0.676223 0.806751
O O14 0.839021 0.678290 0.000000
O O15 0.825770 0.593041 0.000000
#
# Coordination Sequence:
#
# PCOD9494524 Si02
#       6
#     8   8   8  16  16  16
#     4   9  18  33  49  70 100 130 174 225 259 303
#     4   9  18  29  45  71  97 128 170 211 262 314
#     4   9  16  28  52  85 115 139 164 207 263 310
#     4   9  18  32  51  72  97 135 176 214 255 295
#     4   9  16  28  45  66  95 130 167 208 252 304
#     4   9  16  29  49  74 103 133 171 210 248 309
#
# _framework density 19.942889999999998
#
# number of rings (size 3 to 8) (size 9 to 14) (size 15 to 20)
#    0.000    3.000    1.111    0.000    0.000    1.778 
#    0.000    6.667    0.000    4.667    0.000   10.889 
#    0.000    2.667    0.000    0.222    0.000    0.000 
#
# Total GULP energy -200738.310935 kJ/mol
# GULP energy per Si atom -5576.064193 kJ/mol
# Density = 1.989750 g / cm^3
# Si number density = 19.942890 Si / 1000 Ang^3
#
#
#
# Elastic Constant Matrix: (Units=GPa)
#
#
# Indices 1 2 3 4 5 6 
#
# 1 150.5402 94.1380 26.9955 0.0000 0.0000 0.0000
# 2 94.1380 139.3457 34.2364 0.0000 0.0000 0.0000
# 3 26.9955 34.2364 74.7627 0.0000 0.0000 0.0000
# 4 0.0000 0.0000 0.0000 32.3766 0.0000 0.0000
# 5 0.0000 0.0000 0.0000 0.0000 6.3865 0.0000
# 6 0.0000 0.0000 0.0000 0.0000 0.0000 19.5469
#
#
#
# Elastic Compliance Matrix: (Units=1/GPa)
#
#
# Indices 1 2 3 4 5 6 
#
# 1 0.011532 -0.007625 -0.000672 0.000000 0.000000 0.000000
# 2 -0.007625 0.013128 -0.003259 0.000000 0.000000 0.000000
# 3 -0.000672 -0.003259 0.015111 0.000000 0.000000 0.000000
# 4 0.000000 0.000000 0.000000 0.030887 0.000000 0.000000
# 5 0.000000 0.000000 0.000000 0.000000 0.156580 0.000000
# 6 0.000000 0.000000 0.000000 0.000000 0.000000 0.051159
#
#
# Mechanical properties :
#
#
# Convention : Reuss Voigt Hill
#
# Bulk Modulus (GPa) = 60.02833 75.04316 67.53574
# Shear Modulus (GPa) = 16.28342 25.61391 20.94866
#
# Velocity S-wave (km/s) = 2.86055 3.58769 3.24455
# Velocity P-wave (km/s) = 6.40904 7.40761 6.92635
#
# Compressibility (1/GPa) = 0.01665880
#
# Stress axis : x y z
#
# Youngs Moduli (GPa) = 86.71789 76.17026 66.17913
#
# Poissons Ratio (x) = 0.58083 0.04447
# Poissons Ratio (y) = 0.66125 0.21565
# Poissons Ratio (z) = 0.05827 0.24821
#
# Static dielectric constant tensor:
#      x y z
#    x 1.785210 0.000000 0.000000 
#    y 0.000000 1.644520 0.000000 
#    z 0.000000 0.000000 1.775690 
# 
# From -- ./inp_files/7427.got.cif
#   From: 2010.05.17/outbox.cif.g08.bks.cpg/sg65_4_cif.got.tgz:7427.got - 2010.06.03 17:01:31.
