data_PCOD9494106
_publ_section_title
;
Structure prediction by ZEFSAII (Michael W. Deem and Ramdas Pophale) SiO2 
 PCOD9494106
Probable space group: C M M M
;
_chemical_formula_sum "Si O2"
_cell_formula_units_Z 42
_cell_length_a 12.598150
_cell_length_b 20.509494
_cell_length_c 7.721943
_cell_angle_alpha 90.000000
_cell_angle_beta 90.000000
_cell_angle_gamma 90.000000
_cell_volume 1995.208619
_symmetry_space_group_name_H-M "C M M M"
_symmetry_group_IT_number 65
_symmetry_cell_setting 'orthorhombic'
loop_
_space_group_symop_operation_xyz
x,y,z
-x,-y,z
x,-y,-z
-x,y,-z
-x,-y,-z
x,y,-z
-x,y,z
x,-y,z
1/2+x,1/2+y,z
1/2-x,1/2-y,z
1/2+x,1/2-y,-z
1/2-x,1/2+y,-z
1/2-x,1/2-y,-z
1/2+x,1/2+y,-z
1/2-x,1/2+y,z
1/2+x,1/2-y,z
loop_
_atom_site_type_symbol
_atom_site_label
_atom_site_fract_x
_atom_site_fract_y
_atom_site_fract_z
Si Si1 0.206927 0.818649 0.701487
Si Si2 0.000000 0.000000 0.500000
Si Si3 0.500000 0.392043 0.809447
Si Si4 0.876898 0.426082 0.209572
O O1 0.178921 0.808648 0.500000
O O2 0.250000 0.750000 0.771407
O O3 0.299088 0.872561 0.715314
O O4 0.104015 0.847213 0.793142
O O5 0.000000 0.943241 0.347006
O O6 0.500000 0.422993 0.000000
O O7 0.846577 0.500000 0.261532
O O8 0.000000 0.415734 0.258204
O O9 0.871164 0.423223 0.000000
#
# Coordination Sequence:
#
# PCOD9494106 Si02
#       4
#    16   2   8  16
#     4  11  25  44  66  95 141 184 231 293 348 412
#     4  12  26  52  72 106 150 180 232 300 352 436
#     4  12  27  47  75 106 140 190 239 291 358 422
#     4   9  20  39  63  94 129 168 223 284 339 406
#
# _framework density 21.050431
#
# number of rings (size 3 to 8) (size 9 to 14) (size 15 to 20)
#    0.000    1.524    1.905    2.571    5.333    4.571 
#    0.000    1.905    0.000    0.000    0.000    0.000 
#    0.000    0.000    0.000    0.000    0.000    0.000 
#
# Total GULP energy -117178.074181 kJ/mol
# GULP energy per Si atom -5579.908294 kJ/mol
# Density = 2.100252 g / cm^3
# Si number density = 21.050431 Si / 1000 Ang^3
#
#
#
# Elastic Constant Matrix: (Units=GPa)
#
#
# Indices 1 2 3 4 5 6 
#
# 1 98.4729 92.0013 22.9239 0.0000 0.0000 0.0000
# 2 92.0013 165.4514 37.7857 0.0000 0.0000 0.0000
# 3 22.9239 37.7857 121.5847 0.0000 0.0000 0.0000
# 4 0.0000 0.0000 0.0000 -1.2646 0.0000 0.0000
# 5 0.0000 0.0000 0.0000 0.0000 27.4741 0.0000
# 6 0.0000 0.0000 0.0000 0.0000 0.0000 -16.3802
#
#
#
# Elastic Compliance Matrix: (Units=1/GPa)
#
#
# Indices 1 2 3 4 5 6 
#
# 1 0.021150 -0.011679 -0.000358 0.000000 0.000000 0.000000
# 2 -0.011679 0.012955 -0.001824 0.000000 0.000000 0.000000
# 3 -0.000358 -0.001824 0.008859 0.000000 0.000000 0.000000
# 4 0.000000 0.000000 0.000000 -0.790759 0.000000 0.000000
# 5 0.000000 0.000000 0.000000 0.000000 0.036398 0.000000
# 6 0.000000 0.000000 0.000000 0.000000 0.000000 -0.061049
#
#
# Mechanical properties :
#
#
# Convention : Reuss Voigt Hill
#
# Bulk Modulus (GPa) = 65.60982 76.77009 71.18996
# Shear Modulus (GPa) = -6.76000 17.48573 5.36287
#
# Velocity S-wave (km/s) = -1.79396 2.88524 1.59786
# Velocity P-wave (km/s) = 5.19081 6.90277 6.10708
#
# Compressibility (1/GPa) = 0.01524162
#
# Stress axis : x y z
#
# Youngs Moduli (GPa) = 47.28206 77.19170 112.87790
#
# Poissons Ratio (x) = 0.90150 0.04042
# Poissons Ratio (y) = 0.55219 0.20590
# Poissons Ratio (z) = 0.01693 0.14081
#
# Static dielectric constant tensor:
#      x y z
#    x 1.715070 0.000000 0.000000 
#    y 0.000000 1.746430 0.000000 
#    z 0.000000 0.000000 1.770180 
# 
# From -- ./inp_files/3853.got.cif
#   From: 2010.05.17/outbox.cif.g08.bks.cpg/sg65_2_cif.got.tgz:3853.got - 2010.06.03 17:01:31.
