data_PCOD9494306
_publ_section_title
;
Structure prediction by ZEFSAII (Michael W. Deem and Ramdas Pophale) SiO2 
 PCOD9494306
Probable space group: C M M M
;
_chemical_formula_sum "Si O2"
_cell_formula_units_Z 88
_cell_length_a 28.240593
_cell_length_b 7.348066
_cell_length_c 22.208703
_cell_angle_alpha 90.000000
_cell_angle_beta 90.000000
_cell_angle_gamma 90.000000
_cell_volume 4608.611048
_symmetry_space_group_name_H-M "C M M M"
_symmetry_group_IT_number 65
_symmetry_cell_setting 'orthorhombic'
loop_
_space_group_symop_operation_xyz
x,y,z
-x,-y,z
x,-y,-z
-x,y,-z
-x,-y,-z
x,y,-z
-x,y,z
x,-y,z
1/2+x,1/2+y,z
1/2-x,1/2-y,z
1/2+x,1/2-y,-z
1/2-x,1/2+y,-z
1/2-x,1/2-y,-z
1/2+x,1/2+y,-z
1/2-x,1/2+y,z
1/2+x,1/2-y,z
loop_
_atom_site_type_symbol
_atom_site_label
_atom_site_fract_x
_atom_site_fract_y
_atom_site_fract_z
Si Si1 0.945045 0.222441 0.500000
Si Si2 0.552950 0.721330 0.252588
Si Si3 0.102512 0.221687 0.623878
Si Si4 0.852317 0.222337 0.811083
Si Si5 0.804446 0.216543 0.688595
Si Si6 0.805861 0.782660 0.066712
O O1 0.918204 0.282449 0.439613
O O2 0.000000 0.277780 0.500000
O O3 0.944929 0.000000 0.500000
O O4 0.500000 0.783538 0.239019
O O5 0.552555 0.500000 0.251971
O O6 0.569396 0.774120 0.319779
O O7 0.594601 0.777246 0.207306
O O8 0.155592 0.282045 0.641790
O O9 0.102511 0.000000 0.622135
O O10 0.818594 0.281782 0.755685
O O11 0.834342 0.286836 0.875668
O O12 0.851227 0.000000 0.812018
O O13 0.750000 0.250000 0.673726
O O14 0.810360 0.000000 0.690662
O O15 0.750000 0.750000 0.075871
O O16 0.812731 0.000000 0.065136
O O17 0.818445 0.712084 0.000000
#
# Coordination Sequence:
#
# PCOD9494306 Si02
#       6
#     8  16  16  16  16  16
#     4   9  14  20  33  52  75  99 119 145 186 227
#     4   8  12  19  32  49  70  95 121 147 178 219
#     4   8  14  22  32  50  74  97 120 149 184 216
#     4   8  14  23  35  52  73  97 122 149 182 215
#     4   9  16  26  39  54  75 100 124 150 179 213
#     4   9  16  25  37  53  74  98 122 149 181 215
#
# _framework density 19.09469
#
# number of rings (size 3 to 8) (size 9 to 14) (size 15 to 20)
#    0.000    3.545    0.000    3.273    0.000    2.182 
#    0.000    0.455    0.000    0.545    0.000    3.818 
#    0.000   25.455    0.000    4.545    0.000    4.727 
#
# Total GULP energy -245296.314064 kJ/mol
# GULP energy per Si atom -5574.916229 kJ/mol
# Density = 1.905123 g / cm^3
# Si number density = 19.094690 Si / 1000 Ang^3
#
#
#
# Elastic Constant Matrix: (Units=GPa)
#
#
# Indices 1 2 3 4 5 6 
#
# 1 167.4989 0.6802 113.7635 0.0000 0.0000 0.0000
# 2 0.6802 70.7321 8.6729 0.0000 0.0000 0.0000
# 3 113.7635 8.6729 195.8567 0.0000 0.0000 0.0000
# 4 0.0000 0.0000 0.0000 -14.9789 0.0000 0.0000
# 5 0.0000 0.0000 0.0000 0.0000 22.8454 0.0000
# 6 0.0000 0.0000 0.0000 0.0000 0.0000 7.7697
#
#
#
# Elastic Compliance Matrix: (Units=1/GPa)
#
#
# Indices 1 2 3 4 5 6 
#
# 1 0.009886 0.000612 -0.005770 0.000000 0.000000 0.000000
# 2 0.000612 0.014253 -0.000987 0.000000 0.000000 0.000000
# 3 -0.005770 -0.000987 0.008501 0.000000 0.000000 0.000000
# 4 0.000000 0.000000 0.000000 -0.066761 0.000000 0.000000
# 5 0.000000 0.000000 0.000000 0.000000 0.043772 0.000000
# 6 0.000000 0.000000 0.000000 0.000000 0.000000 0.128705
#
#
# Mechanical properties :
#
#
# Convention : Reuss Voigt Hill
#
# Bulk Modulus (GPa) = 49.13544 75.59122 62.36333
# Shear Modulus (GPa) = 31.76036 23.85866 27.80951
#
# Velocity S-wave (km/s) = 4.08279 3.53865 3.82042
# Velocity P-wave (km/s) = 6.92921 7.50797 7.22439
#
# Compressibility (1/GPa) = 0.02035191
#
# Stress axis : x y z
#
# Youngs Moduli (GPa) = 101.14942 70.16082 117.63655
#
# Poissons Ratio (x) = -0.04296 0.67872
# Poissons Ratio (y) = -0.06194 0.11609
# Poissons Ratio (z) = 0.58359 0.06924
#
# Static dielectric constant tensor:
#      x y z
#    x 1.650610 0.000000 0.000000 
#    y 0.000000 1.795010 0.000000 
#    z 0.000000 0.000000 1.649240 
# 
# From -- ./inp_files/60698.got.cif
#   From: 2010.05.17/outbox.cif.g08.bks.cpg/sg65_31_cif.got.tgz:60698.got - 2010.06.03 17:01:31.
