data_PCOD9494640
_publ_section_title
;
Structure prediction by ZEFSAII (Michael W. Deem and Ramdas Pophale) SiO2 
 PCOD9494640
Probable space group: C M M M
;
_chemical_formula_sum "Si O2"
_cell_formula_units_Z 52
_cell_length_a 24.000000
_cell_length_b 9.000000
_cell_length_c 30.000000
_cell_angle_alpha 90.000000
_cell_angle_beta 90.000000
_cell_angle_gamma 90.000000
_cell_volume 6480.000000
_symmetry_space_group_name_H-M "C M M M"
_symmetry_group_IT_number 65
_symmetry_cell_setting 'orthorhombic'
loop_
_space_group_symop_operation_xyz
x,y,z
-x,-y,z
x,-y,-z
-x,y,-z
-x,-y,-z
x,y,-z
-x,y,z
x,-y,z
1/2+x,1/2+y,z
1/2-x,1/2-y,z
1/2+x,1/2-y,-z
1/2-x,1/2+y,-z
1/2-x,1/2-y,-z
1/2+x,1/2+y,-z
1/2-x,1/2+y,z
1/2+x,1/2-y,z
loop_
_atom_site_type_symbol
_atom_site_label
_atom_site_fract_x
_atom_site_fract_y
_atom_site_fract_z
Si Si1 0.500000 0.817981 0.712446
Si Si2 0.081951 0.180615 0.638003
Si Si3 0.810919 0.678226 0.218252
Si Si4 0.381132 0.679877 0.137544
Si Si5 0.500000 0.321094 0.554883
Si Si6 0.500000 0.321445 0.185245
Si Si7 0.812429 0.319637 0.946570
Si Si8 0.688279 0.178980 0.321811
O O1 0.550067 0.755257 0.680680
O O2 0.500000 0.757548 0.764650
O O3 0.500000 0.000000 0.713639
O O4 0.051920 0.217772 0.589688
O O5 0.144372 0.243228 0.644866
O O6 0.079784 0.000000 0.642050
O O7 0.809421 0.500000 0.211470
O O8 0.750000 0.750000 0.215259
O O9 0.846389 0.755015 0.179385
O O10 0.829655 0.704383 0.269704
O O11 0.375484 0.500000 0.134074
O O12 0.445143 0.711556 0.154368
O O13 0.355208 0.751591 0.091261
O O14 0.500000 0.500000 0.551858
O O15 0.500000 0.272932 0.500000
O O16 0.500000 0.500000 0.194010
O O17 0.810496 0.500000 0.941215
O O18 0.750000 0.250000 0.939256
O O19 0.826216 0.290717 0.000000
O O20 0.750000 0.250000 0.326563
O O21 0.690113 0.000000 0.328328
#
# Coordination Sequence:
#
# PCOD9494640 Si02
#       8
#     8  16  16  16   8   8  16  16
#     4  11  21  33  52  77 106 140 178 219 258 301
#     4  10  19  32  53  78 105 138 174 216 264 310
#     4  10  20  33  50  74 103 136 171 208 251 297
#     4  11  22  36  54  75 102 135 170 209 251 299
#     4   8  16  32  54  79 103 130 169 216 266 315
#     4  10  23  39  53  73 104 143 180 210 248 299
#     4  10  21  38  60  83 104 127 159 203 254 305
#     4  10  20  33  50  74 106 142 178 214 254 306
#
# _framework density 8.0246910000000007
#
# number of rings (size 3 to 8) (size 9 to 14) (size 15 to 20)
#    0.000    1.923    0.000    4.846    0.000    6.462 
#    0.000    0.385    0.000   11.077    0.000    0.000 
#    0.000    0.000    0.000    0.000    0.000    0.000 
#
# Total GULP energy -289476.572097 kJ/mol
# GULP energy per Si atom -5566.857156 kJ/mol
# Density = 0.800643 g / cm^3
# Si number density = 8.024691 Si / 1000 Ang^3
#
#
#
# Elastic Constant Matrix: (Units=GPa)
#
#
# Indices 1 2 3 4 5 6 
#
# 1 112.5499 39.7610 71.2922 0.0000 0.0000 0.0000
# 2 39.7610 102.6877 50.7597 0.0000 0.0000 0.0000
# 3 71.2922 50.7597 149.2931 0.0000 0.0000 0.0000
# 4 0.0000 0.0000 0.0000 32.2619 0.0000 0.0000
# 5 0.0000 0.0000 0.0000 0.0000 31.2256 0.0000
# 6 0.0000 0.0000 0.0000 0.0000 0.0000 28.7190
#
#
#
# Elastic Compliance Matrix: (Units=1/GPa)
#
#
# Indices 1 2 3 4 5 6 
#
# 1 0.013213 -0.002401 -0.005493 0.000000 0.000000 0.000000
# 2 -0.002401 0.012142 -0.002982 0.000000 0.000000 0.000000
# 3 -0.005493 -0.002982 0.010335 0.000000 0.000000 0.000000
# 4 0.000000 0.000000 0.000000 0.030996 0.000000 0.000000
# 5 0.000000 0.000000 0.000000 0.000000 0.032025 0.000000
# 6 0.000000 0.000000 0.000000 0.000000 0.000000 0.034820
#
#
# Mechanical properties :
#
#
# Convention : Reuss Voigt Hill
#
# Bulk Modulus (GPa) = 71.74497 76.46182 74.10339
# Shear Modulus (GPa) = 31.26399 31.95581 31.60990
#
# Velocity S-wave (km/s) = 4.41839 4.46701 4.44276
# Velocity P-wave (km/s) = 8.41601 8.62268 8.51997
#
# Compressibility (1/GPa) = 0.01393826
#
# Stress axis : x y z
#
# Youngs Moduli (GPa) = 75.68550 82.36054 96.75633
#
# Poissons Ratio (x) = 0.19771 0.53150
# Poissons Ratio (y) = 0.18169 0.28851
# Poissons Ratio (z) = 0.41576 0.24559
#
# Static dielectric constant tensor:
#      x y z
#    x 1.584890 0.000000 0.000000 
#    y 0.000000 1.540430 0.000000 
#    z 0.000000 0.000000 1.541540 
# 
# From -- ./inp_files/78415.got.cif
#   From: 2010.05.17/outbox.ucp.g08.bks.cvg/sg65_40_cif.got.tgz:78415.got - 2010.06.11 16:39:57.
