data_PCOD9494802
_publ_section_title
;
Structure prediction by ZEFSAII (Michael W. Deem and Ramdas Pophale) SiO2 
 PCOD9494802
Probable space group: C M M M
;
_chemical_formula_sum "Si O2"
_cell_formula_units_Z 48
_cell_length_a 21.000000
_cell_length_b 9.000000
_cell_length_c 27.000000
_cell_angle_alpha 90.000000
_cell_angle_beta 90.000000
_cell_angle_gamma 90.000000
_cell_volume 5103.000000
_symmetry_space_group_name_H-M "C M M M"
_symmetry_group_IT_number 65
_symmetry_cell_setting 'orthorhombic'
loop_
_space_group_symop_operation_xyz
x,y,z
-x,-y,z
x,-y,-z
-x,y,-z
-x,-y,-z
x,y,-z
-x,y,z
x,-y,z
1/2+x,1/2+y,z
1/2-x,1/2-y,z
1/2+x,1/2-y,-z
1/2-x,1/2+y,-z
1/2-x,1/2-y,-z
1/2+x,1/2+y,-z
1/2-x,1/2+y,z
1/2+x,1/2-y,z
loop_
_atom_site_type_symbol
_atom_site_label
_atom_site_fract_x
_atom_site_fract_y
_atom_site_fract_z
Si Si1 0.072476 0.828359 0.230036
Si Si2 0.313025 0.324287 0.609841
Si Si3 0.185821 0.324071 0.057444
Si Si4 0.813192 0.324104 0.282143
Si Si5 0.427784 0.829624 0.440471
Si Si6 0.928599 0.827541 0.111052
O O1 0.124176 0.719727 0.252397
O O2 0.074227 0.820747 0.170551
O O3 0.000000 0.795132 0.245824
O O4 0.086689 0.000000 0.244265
O O5 0.304701 0.500000 0.614068
O O6 0.250000 0.250000 0.586519
O O7 0.319370 0.249847 0.663805
O O8 0.375833 0.281254 0.580210
O O9 0.192709 0.500000 0.059040
O O10 0.250000 0.250000 0.077447
O O11 0.124863 0.271958 0.087176
O O12 0.178709 0.277222 0.000000
O O13 0.805132 0.500000 0.286167
O O14 0.750000 0.250000 0.258961
O O15 0.427064 0.826725 0.500000
O O16 0.500000 0.795570 0.424254
O O17 0.412950 0.000000 0.425039
O O18 0.000000 0.783913 0.095781
O O19 0.918709 0.000000 0.096949
#
# Coordination Sequence:
#
# PCOD9494802 Si02
#       6
#    16  16  16  16  16  16
#     4   9  19  37  58  80 108 140 176 218 263 313
#     4  11  22  37  57  80 109 143 180 223 268 316
#     4  10  21  36  54  77 106 140 178 221 266 313
#     4  11  22  37  57  80 108 141 179 221 266 317
#     4   9  19  37  59  82 110 143 179 221 267 315
#     4   9  19  36  57  80 107 140 176 216 263 315
#
# _framework density 9.4062319999999993
#
# number of rings (size 3 to 8) (size 9 to 14) (size 15 to 20)
#    0.000    2.167    0.000    6.000    0.000    5.000 
#    0.000    4.167    0.000    0.000    0.000    0.000 
#    0.000    0.000    0.000    0.000    0.000    0.000 
#
# Total GULP energy -267893.387504 kJ/mol
# GULP energy per Si atom -5581.112240 kJ/mol
# Density = 0.938482 g / cm^3
# Si number density = 9.406232 Si / 1000 Ang^3
#
#
#
# Elastic Constant Matrix: (Units=GPa)
#
#
# Indices 1 2 3 4 5 6 
#
# 1 113.3095 81.2864 29.7419 0.0000 0.0000 0.0000
# 2 81.2864 125.6654 27.1378 0.0000 0.0000 0.0000
# 3 29.7419 27.1378 12.9285 0.0000 0.0000 0.0000
# 4 0.0000 0.0000 0.0000 24.2737 0.0000 0.0000
# 5 0.0000 0.0000 0.0000 0.0000 31.9131 0.0000
# 6 0.0000 0.0000 0.0000 0.0000 0.0000 35.8164
#
#
#
# Elastic Compliance Matrix: (Units=1/GPa)
#
#
# Indices 1 2 3 4 5 6 
#
# 1 0.025181 -0.006911 -0.043421 0.000000 0.000000 0.000000
# 2 -0.006911 0.016453 -0.018636 0.000000 0.000000 0.000000
# 3 -0.043421 -0.018636 0.216356 0.000000 0.000000 0.000000
# 4 0.000000 0.000000 0.000000 0.041197 0.000000 0.000000
# 5 0.000000 0.000000 0.000000 0.000000 0.031335 0.000000
# 6 0.000000 0.000000 0.000000 0.000000 0.000000 0.027920
#
#
# Mechanical properties :
#
#
# Convention : Reuss Voigt Hill
#
# Bulk Modulus (GPa) = 8.32963 58.69285 33.51124
# Shear Modulus (GPa) = 9.32148 25.98315 17.65232
#
# Velocity S-wave (km/s) = 2.22839 3.72044 3.06654
# Velocity P-wave (km/s) = 3.32540 7.05140 5.51273
#
# Compressibility (1/GPa) = 0.12005333
#
# Stress axis : x y z
#
# Youngs Moduli (GPa) = 39.71313 60.78046 4.62201
#
# Poissons Ratio (x) = 0.42006 0.20069
# Poissons Ratio (y) = 0.27446 0.08614
# Poissons Ratio (z) = 1.72437 1.13272
#
# Static dielectric constant tensor:
#      x y z
#    x 1.663340 0.000000 0.000000 
#    y 0.000000 1.634920 0.000000 
#    z 0.000000 0.000000 1.645210 
# 
# From -- ./inp_files/75315.got.cif
#   From: 2010.05.17/outbox.ucp.g08.bks.cvg/sg65_38_cif.got.tgz:75315.got - 2010.06.11 16:39:57.
