data_PCOD9494117
_publ_section_title
;
Structure prediction by ZEFSAII (Michael W. Deem and Ramdas Pophale) SiO2 
 PCOD9494117
Probable space group: C M M M
;
_chemical_formula_sum "Si O2"
_cell_formula_units_Z 64
_cell_length_a 26.024060
_cell_length_b 16.019879
_cell_length_c 7.316705
_cell_angle_alpha 90.000000
_cell_angle_beta 90.000000
_cell_angle_gamma 90.000000
_cell_volume 3050.351087
_symmetry_space_group_name_H-M "C M M M"
_symmetry_group_IT_number 65
_symmetry_cell_setting 'orthorhombic'
loop_
_space_group_symop_operation_xyz
x,y,z
-x,-y,z
x,-y,-z
-x,y,-z
-x,-y,-z
x,y,-z
-x,y,z
x,-y,z
1/2+x,1/2+y,z
1/2-x,1/2-y,z
1/2+x,1/2-y,-z
1/2-x,1/2+y,-z
1/2-x,1/2-y,-z
1/2+x,1/2+y,-z
1/2-x,1/2+y,z
1/2+x,1/2-y,z
loop_
_atom_site_type_symbol
_atom_site_label
_atom_site_fract_x
_atom_site_fract_y
_atom_site_fract_z
Si Si1 0.059569 0.500000 0.276804
Si Si2 0.641267 0.863177 0.278442
Si Si3 0.752744 0.150159 0.280391
Si Si4 0.057007 0.901130 0.000000
Si Si5 0.135419 0.166734 0.719318
O O1 0.058234 0.500000 0.500000
O O2 0.094023 0.420485 0.218694
O O3 0.000000 0.500000 0.217276
O O4 0.642197 0.868845 0.500000
O O5 0.698930 0.888222 0.215052
O O6 0.635173 0.765557 0.234836
O O7 0.752999 0.139772 0.500000
O O8 0.750000 0.250000 0.246059
O O9 0.809923 0.126733 0.219701
O O10 0.088688 0.873645 0.176566
O O11 0.000000 0.864419 0.000000
O O12 0.053718 0.000000 0.000000
O O13 0.131897 0.159602 0.500000
#
# Coordination Sequence:
#
# PCOD9494117 Si02
#       5
#     8  16  16   8  16
#     4   9  16  24  38  71 119 159 188 220 258 310
#     4   8  14  27  49  80 116 149 184 227 271 320
#     4   7  11  24  48  78 108 135 172 225 276 319
#     4  11  26  44  57  77 111 141 176 238 299 341
#     4   9  18  36  62  85 106 141 188 230 278 342
#
# _framework density 20.981193000000001
#
# number of rings (size 3 to 8) (size 9 to 14) (size 15 to 20)
#    0.000    3.500    0.000    3.000    0.000    2.000 
#    2.250    9.375    0.000    0.750    0.000    1.750 
#    0.000    0.000    0.000    0.000    0.000    0.000 
#
# Total GULP energy -178353.430874 kJ/mol
# GULP energy per Si atom -5573.544715 kJ/mol
# Density = 2.093344 g / cm^3
# Si number density = 20.981193 Si / 1000 Ang^3
#
#
#
# Elastic Constant Matrix: (Units=GPa)
#
#
# Indices 1 2 3 4 5 6 
#
# 1 256.7721 69.3144 39.4607 0.0000 0.0000 0.0000
# 2 69.3144 54.5451 14.1183 0.0000 0.0000 0.0000
# 3 39.4607 14.1183 83.5793 0.0000 0.0000 0.0000
# 4 0.0000 0.0000 0.0000 7.2136 0.0000 0.0000
# 5 0.0000 0.0000 0.0000 0.0000 33.1606 0.0000
# 6 0.0000 0.0000 0.0000 0.0000 0.0000 38.0134
#
#
#
# Elastic Compliance Matrix: (Units=1/GPa)
#
#
# Indices 1 2 3 4 5 6 
#
# 1 0.006139 -0.007373 -0.001653 0.000000 0.000000 0.000000
# 2 -0.007373 0.028028 -0.001253 0.000000 0.000000 0.000000
# 3 -0.001653 -0.001253 0.012957 0.000000 0.000000 0.000000
# 4 0.000000 0.000000 0.000000 0.138627 0.000000 0.000000
# 5 0.000000 0.000000 0.000000 0.000000 0.030156 0.000000
# 6 0.000000 0.000000 0.000000 0.000000 0.000000 0.026306
#
#
# Mechanical properties :
#
#
# Convention : Reuss Voigt Hill
#
# Bulk Modulus (GPa) = 37.64434 71.18701 54.41568
# Shear Modulus (GPa) = 18.40758 33.81106 26.10932
#
# Velocity S-wave (km/s) = 2.96520 4.01870 3.53145
# Velocity P-wave (km/s) = 5.45015 7.45224 6.52840
#
# Compressibility (1/GPa) = 0.02656442
#
# Stress axis : x y z
#
# Youngs Moduli (GPa) = 162.89517 35.67900 77.17979
#
# Poissons Ratio (x) = 0.26307 0.12757
# Poissons Ratio (y) = 1.20108 0.09673
# Poissons Ratio (z) = 0.26925 0.04471
#
# Static dielectric constant tensor:
#      x y z
#    x 1.773320 0.000000 0.000000 
#    y 0.000000 1.742030 0.000000 
#    z 0.000000 0.000000 1.776180 
# 
# From -- ./inp_files/13374.got.cif
#   From: 2010.05.17/outbox.cif.g08.bks.cpg/sg65_7_cif.got.tgz:13374.got - 2010.06.03 17:01:31.
