data_PCOD9494378
_publ_section_title
;
Structure prediction by ZEFSAII (Michael W. Deem and Ramdas Pophale) SiO2 
 PCOD9494378
Probable space group: C M M M
;
_chemical_formula_sum "Si O2"
_cell_formula_units_Z 72
_cell_length_a 9.433447
_cell_length_b 14.671044
_cell_length_c 24.750426
_cell_angle_alpha 90.000000
_cell_angle_beta 90.000000
_cell_angle_gamma 90.000000
_cell_volume 3425.422229
_symmetry_space_group_name_H-M "C M M M"
_symmetry_group_IT_number 65
_symmetry_cell_setting 'orthorhombic'
loop_
_space_group_symop_operation_xyz
x,y,z
-x,-y,z
x,-y,-z
-x,y,-z
-x,-y,-z
x,y,-z
-x,y,z
x,-y,z
1/2+x,1/2+y,z
1/2-x,1/2-y,z
1/2+x,1/2-y,-z
1/2-x,1/2+y,-z
1/2-x,1/2-y,-z
1/2+x,1/2+y,-z
1/2-x,1/2+y,z
1/2+x,1/2-y,z
loop_
_atom_site_type_symbol
_atom_site_label
_atom_site_fract_x
_atom_site_fract_y
_atom_site_fract_z
Si Si1 0.161521 0.888664 0.000000
Si Si2 0.829359 0.152496 0.558297
Si Si3 0.670631 0.654132 0.674786
Si Si4 0.158911 0.893109 0.205065
Si Si5 0.839233 0.388292 0.104893
O O1 0.244618 0.861229 0.053842
O O2 0.000000 0.856398 0.000000
O O3 0.158214 0.000000 0.000000
O O4 0.794438 0.108530 0.500000
O O5 0.750000 0.250000 0.558184
O O6 0.794768 0.108603 0.616623
O O7 0.000000 0.165851 0.558388
O O8 0.500000 0.664164 0.675597
O O9 0.750000 0.750000 0.673951
O O10 0.707751 0.612267 0.732712
O O11 0.267671 0.857315 0.160798
O O12 0.000000 0.852739 0.200441
O O13 0.145410 0.000000 0.192790
O O14 0.843792 0.500000 0.104808
O O15 0.000000 0.356008 0.099809
#
# Coordination Sequence:
#
# PCOD9494378 Si02
#       5
#     8  16  16  16  16
#     4   9  15  23  37  57  82 111 140 171 210 253
#     4   8  13  22  37  57  80 104 132 169 211 251
#     4   9  17  28  43  63  85 110 141 177 214 252
#     4   9  17  29  43  59  83 115 146 173 207 254
#     4   9  16  25  38  58  83 109 139 176 214 248
#
# _framework density 21.019307000000001
#
# number of rings (size 3 to 8) (size 9 to 14) (size 15 to 20)
#    0.000    3.222    0.000    1.000    0.000    4.889 
#    0.000    0.000    0.000    0.667    0.000    5.444 
#    0.000    0.000    0.000   41.556    0.000   22.667 
#
# Total GULP energy -200437.824438 kJ/mol
# GULP energy per Si atom -5567.717346 kJ/mol
# Density = 2.097147 g / cm^3
# Si number density = 21.019307 Si / 1000 Ang^3
#
#
#
# Elastic Constant Matrix: (Units=GPa)
#
#
# Indices 1 2 3 4 5 6 
#
# 1 90.8557 11.5186 104.5556 0.0000 0.0000 0.0000
# 2 11.5186 41.7312 3.5508 0.0000 0.0000 0.0000
# 3 104.5556 3.5508 236.2518 0.0000 0.0000 0.0000
# 4 0.0000 0.0000 0.0000 21.8645 0.0000 0.0000
# 5 0.0000 0.0000 0.0000 0.0000 -1.8667 0.0000
# 6 0.0000 0.0000 0.0000 0.0000 0.0000 2.5041
#
#
#
# Elastic Compliance Matrix: (Units=1/GPa)
#
#
# Indices 1 2 3 4 5 6 
#
# 1 0.023691 -0.005654 -0.010400 0.000000 0.000000 0.000000
# 2 -0.005654 0.025343 0.002122 0.000000 0.000000 0.000000
# 3 -0.010400 0.002122 0.008803 0.000000 0.000000 0.000000
# 4 0.000000 0.000000 0.000000 0.045736 0.000000 0.000000
# 5 0.000000 0.000000 0.000000 0.000000 -0.535697 0.000000
# 6 0.000000 0.000000 0.000000 0.000000 0.000000 0.399346
#
#
# Mechanical properties :
#
#
# Convention : Reuss Voigt Hill
#
# Bulk Modulus (GPa) = 33.36399 67.56540 50.46470
# Shear Modulus (GPa) = 984.50544 21.11462 502.81003
#
# Velocity S-wave (km/s) = 21.66560 3.17288 15.48331
# Velocity P-wave (km/s) = 25.33322 6.75552 18.53927
#
# Compressibility (1/GPa) = 0.02997243
#
# Stress axis : x y z
#
# Youngs Moduli (GPa) = 42.20944 39.45850 113.59171
#
# Poissons Ratio (x) = 0.22311 1.18134
# Poissons Ratio (y) = 0.23867 -0.24099
# Poissons Ratio (z) = 0.43897 -0.08371
#
# Static dielectric constant tensor:
#      x y z
#    x 1.713830 0.000000 0.000000 
#    y 0.000000 1.769580 0.000000 
#    z 0.000000 0.000000 1.811570 
# 
# From -- ./inp_files/49725.got.cif
#   From: 2010.05.17/outbox.cif.g08.bks.cpg/sg65_25_cif.got.tgz:49725.got - 2010.06.03 17:01:31.
