data_PCOD9494809
_publ_section_title
;
Structure prediction by ZEFSAII (Michael W. Deem and Ramdas Pophale) SiO2 
 PCOD9494809
Probable space group: C M M M
;
_chemical_formula_sum "Si O2"
_cell_formula_units_Z 40
_cell_length_a 18.000000
_cell_length_b 9.000000
_cell_length_c 27.000000
_cell_angle_alpha 90.000000
_cell_angle_beta 90.000000
_cell_angle_gamma 90.000000
_cell_volume 4374.000000
_symmetry_space_group_name_H-M "C M M M"
_symmetry_group_IT_number 65
_symmetry_cell_setting 'orthorhombic'
loop_
_space_group_symop_operation_xyz
x,y,z
-x,-y,z
x,-y,-z
-x,y,-z
-x,-y,-z
x,y,-z
-x,y,z
x,-y,z
1/2+x,1/2+y,z
1/2-x,1/2-y,z
1/2+x,1/2-y,-z
1/2-x,1/2+y,-z
1/2-x,1/2-y,-z
1/2+x,1/2+y,-z
1/2-x,1/2+y,z
1/2+x,1/2-y,z
loop_
_atom_site_type_symbol
_atom_site_label
_atom_site_fract_x
_atom_site_fract_y
_atom_site_fract_z
Si Si1 0.589054 0.674023 0.654725
Si Si2 0.832441 0.678053 0.054509
Si Si3 0.668029 0.677361 0.153184
Si Si4 0.668722 0.679199 0.445553
Si Si5 0.589660 0.828599 0.244262
O O1 0.500000 0.683156 0.651850
O O2 0.608368 0.500000 0.662465
O O3 0.622411 0.724916 0.602473
O O4 0.614069 0.768547 0.702023
O O5 0.826927 0.500000 0.061309
O O6 0.750000 0.750000 0.052457
O O7 0.867087 0.753994 0.102827
O O8 0.866692 0.705035 0.000000
O O9 0.673658 0.500000 0.149350
O O10 0.750000 0.750000 0.157787
O O11 0.622307 0.727874 0.200892
O O12 0.637050 0.719018 0.500000
O O13 0.674401 0.500000 0.444228
O O14 0.750000 0.750000 0.442418
O O15 0.500000 0.821864 0.242954
O O16 0.612349 0.000000 0.237194
#
# Coordination Sequence:
#
# PCOD9494809 Si02
#       5
#    16  16  16  16  16
#     4   9  18  33  52  73  97 127 166 208 247 292
#     4   9  16  27  45  70 101 134 167 205 250 298
#     4  11  21  33  52  77 105 134 169 212 254 300
#     4   9  18  32  50  73 101 132 163 198 244 295
#     4  10  21  37  55  74 100 134 170 209 256 308
#
# _framework density 9.1449470000000002
#
# number of rings (size 3 to 8) (size 9 to 14) (size 15 to 20)
#    0.000    2.400    0.000    4.200    0.000    4.400 
#    0.000    4.000    0.000    0.600    0.000    9.800 
#    0.000    0.000    0.000    0.000    0.000    0.000 
#
# Total GULP energy -222975.822931 kJ/mol
# GULP energy per Si atom -5574.395573 kJ/mol
# Density = 0.912413 g / cm^3
# Si number density = 9.144947 Si / 1000 Ang^3
#
#
#
# Elastic Constant Matrix: (Units=GPa)
#
#
# Indices 1 2 3 4 5 6 
#
# 1 6.1967 17.9906 27.8667 0.0000 0.0000 0.0000
# 2 17.9906 106.1886 68.9842 0.0000 0.0000 0.0000
# 3 27.8667 68.9842 182.9109 0.0000 0.0000 0.0000
# 4 0.0000 0.0000 0.0000 31.6952 0.0000 0.0000
# 5 0.0000 0.0000 0.0000 0.0000 49.7722 0.0000
# 6 0.0000 0.0000 0.0000 0.0000 0.0000 20.6937
#
#
#
# Elastic Compliance Matrix: (Units=1/GPa)
#
#
# Indices 1 2 3 4 5 6 
#
# 1 0.797994 -0.074461 -0.093493 0.000000 0.000000 0.000000
# 2 -0.074461 0.019421 0.004020 0.000000 0.000000 0.000000
# 3 -0.093493 0.004020 0.018195 0.000000 0.000000 0.000000
# 4 0.000000 0.000000 0.000000 0.031551 0.000000 0.000000
# 5 0.000000 0.000000 0.000000 0.000000 0.020092 0.000000
# 6 0.000000 0.000000 0.000000 0.000000 0.000000 0.048324
#
#
# Mechanical properties :
#
#
# Convention : Reuss Voigt Hill
#
# Bulk Modulus (GPa) = 1.96950 58.33104 30.15027
# Shear Modulus (GPa) = 3.48993 32.46255 17.97624
#
# Velocity S-wave (km/s) = 1.38285 4.21751 3.13845
# Velocity P-wave (km/s) = 1.90495 7.46179 5.44551
#
# Compressibility (1/GPa) = 0.50774226
#
# Stress axis : x y z
#
# Youngs Moduli (GPa) = 1.25314 51.49009 54.96038
#
# Poissons Ratio (x) = 3.83400 5.13840
# Poissons Ratio (y) = 0.09331 -0.22092
# Poissons Ratio (z) = 0.11716 -0.20697
#
# Static dielectric constant tensor:
#      x y z
#    x 1.606120 0.000000 0.000000 
#    y 0.000000 1.615410 0.000000 
#    z 0.000000 0.000000 1.674000 
# 
# From -- ./inp_files/72783.got.cif
#   From: 2010.05.17/outbox.ucp.g08.bks.cvg/sg65_37_cif.got.tgz:72783.got - 2010.06.11 16:39:57.
