data_PCOD9494311
_publ_section_title
;
Structure prediction by ZEFSAII (Michael W. Deem and Ramdas Pophale) SiO2 
 PCOD9494311
Probable space group: C M M M
;
_chemical_formula_sum "Si O2"
_cell_formula_units_Z 104
_cell_length_a 24.841386
_cell_length_b 27.623006
_cell_length_c 7.339536
_cell_angle_alpha 90.000000
_cell_angle_beta 90.000000
_cell_angle_gamma 90.000000
_cell_volume 5036.343764
_symmetry_space_group_name_H-M "C M M M"
_symmetry_group_IT_number 65
_symmetry_cell_setting 'orthorhombic'
loop_
_space_group_symop_operation_xyz
x,y,z
-x,-y,z
x,-y,-z
-x,y,-z
-x,-y,-z
x,y,-z
-x,y,z
x,-y,z
1/2+x,1/2+y,z
1/2-x,1/2-y,z
1/2+x,1/2-y,-z
1/2-x,1/2+y,-z
1/2-x,1/2-y,-z
1/2+x,1/2+y,-z
1/2-x,1/2+y,z
1/2+x,1/2-y,z
loop_
_atom_site_type_symbol
_atom_site_label
_atom_site_fract_x
_atom_site_fract_y
_atom_site_fract_z
Si Si1 0.939231 0.105350 0.713840
Si Si2 0.561438 0.873220 0.278040
Si Si3 0.157242 0.555533 0.277924
Si Si4 0.350194 0.678446 0.276464
Si Si5 0.765363 0.360380 0.721498
Si Si6 0.438637 0.500000 0.783861
Si Si7 0.360873 0.210877 0.278540
O O1 0.944284 0.115198 0.500000
O O2 0.899507 0.145532 0.787555
O O3 0.914766 0.051416 0.729659
O O4 0.000000 0.104985 0.790974
O O5 0.560872 0.873667 0.500000
O O6 0.500000 0.879096 0.217199
O O7 0.603082 0.915511 0.223024
O O8 0.588363 0.822090 0.222717
O O9 0.157160 0.555083 0.500000
O O10 0.158819 0.500000 0.217267
O O11 0.208056 0.588695 0.221529
O O12 0.349624 0.678555 0.500000
O O13 0.293977 0.654383 0.218442
O O14 0.357671 0.733876 0.218217
O O15 0.764467 0.361179 0.500000
O O16 0.807726 0.318820 0.775040
O O17 0.500000 0.500000 0.708739
O O18 0.441361 0.500000 0.000000
O O19 0.361649 0.211681 0.500000
#
# Coordination Sequence:
#
# PCOD9494311 Si02
#       7
#    16  16  16  16  16   8  16
#     4   9  17  28  41  60  85 105 125 162 206 240
#     4   8  13  19  26  37  52  74 108 147 186 225
#     4   8  13  20  27  35  51  75 106 148 189 218
#     4   9  15  22  33  50  70  96 124 149 190 239
#     4   8  13  21  30  42  61  89 125 157 186 225
#     4   9  17  31  49  61  73 103 139 161 188 237
#     4   8  13  20  30  42  62  91 122 157 190 224
#
# _framework density 20.649899999999999
#
# number of rings (size 3 to 8) (size 9 to 14) (size 15 to 20)
#    0.000    3.615    0.000    2.538    0.000    3.692 
#    1.385    4.615    0.000    0.000    0.000    0.000 
#    0.000    2.462    0.000    0.000    0.000    0.000 
#
# Total GULP energy -289912.154939 kJ/mol
# GULP energy per Si atom -5575.233749 kJ/mol
# Density = 2.060290 g / cm^3
# Si number density = 20.649900 Si / 1000 Ang^3
#
#
#
# Elastic Constant Matrix: (Units=GPa)
#
#
# Indices 1 2 3 4 5 6 
#
# 1 102.0725 124.8111 6.9696 0.0000 0.0000 0.0000
# 2 124.8111 229.2042 3.3979 0.0000 0.0000 0.0000
# 3 6.9696 3.3979 78.3143 0.0000 0.0000 0.0000
# 4 0.0000 0.0000 0.0000 -51.8338 0.0000 0.0000
# 5 0.0000 0.0000 0.0000 0.0000 -15.4377 0.0000
# 6 0.0000 0.0000 0.0000 0.0000 0.0000 13.5993
#
#
#
# Elastic Compliance Matrix: (Units=1/GPa)
#
#
# Indices 1 2 3 4 5 6 
#
# 1 0.029610 -0.016095 -0.001937 0.000000 0.000000 0.000000
# 2 -0.016095 0.013114 0.000863 0.000000 0.000000 0.000000
# 3 -0.001937 0.000863 0.012904 0.000000 0.000000 0.000000
# 4 0.000000 0.000000 0.000000 -0.019292 0.000000 0.000000
# 5 0.000000 0.000000 0.000000 0.000000 -0.064777 0.000000
# 6 0.000000 0.000000 0.000000 0.000000 0.000000 0.073533
#
#
# Mechanical properties :
#
#
# Convention : Reuss Voigt Hill
#
# Bulk Modulus (GPa) = 46.96749 75.54980 61.25864
# Shear Modulus (GPa) = 57.78617 7.55973 32.67295
#
# Velocity S-wave (km/s) = 5.29571 1.91542 3.98204
# Velocity P-wave (km/s) = 7.75801 6.44649 7.13246
#
# Compressibility (1/GPa) = 0.02129132
#
# Stress axis : x y z
#
# Youngs Moduli (GPa) = 33.77287 76.25174 77.49556
#
# Poissons Ratio (x) = 1.22726 0.15009
# Poissons Ratio (y) = 0.54357 -0.06691
# Poissons Ratio (z) = 0.06541 -0.06583
#
# Static dielectric constant tensor:
#      x y z
#    x 1.712210 0.000000 0.000000 
#    y 0.000000 1.711200 0.000000 
#    z 0.000000 0.000000 1.768880 
# 
# From -- ./inp_files/16791.got.cif
#   From: 2010.05.17/outbox.cif.g08.bks.cpg/sg65_9_cif.got.tgz:16791.got - 2010.06.03 17:01:31.
