data_PCOD9494309
_publ_section_title
;
Structure prediction by ZEFSAII (Michael W. Deem and Ramdas Pophale) SiO2 
 PCOD9494309
Probable space group: C M M M
;
_chemical_formula_sum "Si O2"
_cell_formula_units_Z 80
_cell_length_a 10.614018
_cell_length_b 14.426338
_cell_length_c 25.950530
_cell_angle_alpha 90.000000
_cell_angle_beta 90.000000
_cell_angle_gamma 90.000000
_cell_volume 3973.581775
_symmetry_space_group_name_H-M "C M M M"
_symmetry_group_IT_number 65
_symmetry_cell_setting 'orthorhombic'
loop_
_space_group_symop_operation_xyz
x,y,z
-x,-y,z
x,-y,-z
-x,y,-z
-x,-y,-z
x,y,-z
-x,y,z
x,-y,z
1/2+x,1/2+y,z
1/2-x,1/2-y,z
1/2+x,1/2-y,-z
1/2-x,1/2+y,-z
1/2-x,1/2-y,-z
1/2+x,1/2+y,-z
1/2-x,1/2+y,z
1/2+x,1/2-y,z
loop_
_atom_site_type_symbol
_atom_site_label
_atom_site_fract_x
_atom_site_fract_y
_atom_site_fract_z
Si Si1 0.356985 0.113015 0.361990
Si Si2 0.357421 0.613061 0.440922
Si Si3 0.638598 0.391508 0.170058
Si Si4 0.357661 0.113164 0.755946
Si Si5 0.355313 0.671010 0.943920
O O1 0.500000 0.141365 0.375515
O O2 0.250361 0.143559 0.401714
O O3 0.330611 0.141221 0.303009
O O4 0.356481 0.000000 0.362412
O O5 0.333552 0.641855 0.500000
O O6 0.500000 0.641020 0.426463
O O7 0.356429 0.500000 0.440765
O O8 0.500000 0.350591 0.180919
O O9 0.631308 0.500000 0.182733
O O10 0.752840 0.354257 0.203998
O O11 0.661702 0.384260 0.108868
O O12 0.500000 0.141824 0.769243
O O13 0.358130 0.000000 0.756409
O O14 0.500000 0.707214 0.942140
O O15 0.250000 0.750000 0.943133
O O16 0.343633 0.622505 0.000000
#
# Coordination Sequence:
#
# PCOD9494309 Si02
#       5
#    16  16  16  16  16
#     4   8  13  20  29  41  58  83 116 152 190 232
#     4   8  13  19  25  35  53  78 111 152 194 232
#     4   9  17  28  43  64  86 107 135 171 208 245
#     4   8  14  24  36  51  73  99 126 159 200 243
#     4   9  18  32  48  65  86 112 140 169 202 243
#
# _framework density 20.132968999999999
#
# number of rings (size 3 to 8) (size 9 to 14) (size 15 to 20)
#    0.000    3.600    0.000    1.800    0.000    2.400 
#    0.000    8.000    0.000    0.000    0.000    5.600 
#    0.000    0.000    0.000    0.000    0.000    1.000 
#
# Total GULP energy -222810.378148 kJ/mol
# GULP energy per Si atom -5570.259454 kJ/mol
# Density = 2.008715 g / cm^3
# Si number density = 20.132969 Si / 1000 Ang^3
#
#
#
# Elastic Constant Matrix: (Units=GPa)
#
#
# Indices 1 2 3 4 5 6 
#
# 1 183.7776 15.0562 146.1287 0.0000 0.0000 0.0000
# 2 15.0562 46.3208 11.5473 0.0000 0.0000 0.0000
# 3 146.1287 11.5473 151.6597 0.0000 0.0000 0.0000
# 4 0.0000 0.0000 0.0000 -100.7102 0.0000 0.0000
# 5 0.0000 0.0000 0.0000 0.0000 45.8558 0.0000
# 6 0.0000 0.0000 0.0000 0.0000 0.0000 -1.7521
#
#
#
# Elastic Compliance Matrix: (Units=1/GPa)
#
#
# Indices 1 2 3 4 5 6 
#
# 1 0.023453 -0.002028 -0.022443 0.000000 0.000000 0.000000
# 2 -0.002028 0.022182 0.000265 0.000000 0.000000 0.000000
# 3 -0.022443 0.000265 0.028198 0.000000 0.000000 0.000000
# 4 0.000000 0.000000 0.000000 -0.009929 0.000000 0.000000
# 5 0.000000 0.000000 0.000000 0.000000 0.021807 0.000000
# 6 0.000000 0.000000 0.000000 0.000000 0.000000 -0.570747
#
#
# Mechanical properties :
#
#
# Convention : Reuss Voigt Hill
#
# Bulk Modulus (GPa) = 39.33802 80.80248 60.07025
# Shear Modulus (GPa) = -11.67816 2.61377 -4.53219
#
# Velocity S-wave (km/s) = -2.41104 1.14064 -1.50200
# Velocity P-wave (km/s) = 3.43958 6.47737 5.18589
#
# Compressibility (1/GPa) = 0.02542070
#
# Stress axis : x y z
#
# Youngs Moduli (GPa) = 42.63825 45.08224 35.46307
#
# Poissons Ratio (x) = 0.09144 0.79591
# Poissons Ratio (y) = 0.08649 -0.00942
# Poissons Ratio (z) = 0.95695 -0.01197
#
# Static dielectric constant tensor:
#      x y z
#    x 1.713020 0.000000 0.000000 
#    y 0.000000 1.742520 0.000000 
#    z 0.000000 0.000000 1.704990 
# 
# From -- ./inp_files/69690.got.cif
#   From: 2010.05.17/outbox.cif.g08.bks.cpg/sg65_35_cif.got.tgz:69690.got - 2010.06.03 17:01:31.
