data_PCOD9494718
_publ_section_title
;
Structure prediction by ZEFSAII (Michael W. Deem and Ramdas Pophale) SiO2 
 PCOD9494718
Probable space group: C M M M
;
_chemical_formula_sum "Si O2"
_cell_formula_units_Z 40
_cell_length_a 18.000000
_cell_length_b 27.000000
_cell_length_c 9.000000
_cell_angle_alpha 90.000000
_cell_angle_beta 90.000000
_cell_angle_gamma 90.000000
_cell_volume 4374.000000
_symmetry_space_group_name_H-M "C M M M"
_symmetry_group_IT_number 65
_symmetry_cell_setting 'orthorhombic'
loop_
_space_group_symop_operation_xyz
x,y,z
-x,-y,z
x,-y,-z
-x,y,-z
-x,-y,-z
x,y,-z
-x,y,z
x,-y,z
1/2+x,1/2+y,z
1/2-x,1/2-y,z
1/2+x,1/2-y,-z
1/2-x,1/2+y,-z
1/2-x,1/2-y,-z
1/2+x,1/2+y,-z
1/2-x,1/2+y,z
1/2+x,1/2-y,z
loop_
_atom_site_type_symbol
_atom_site_label
_atom_site_fract_x
_atom_site_fract_y
_atom_site_fract_z
Si Si1 0.589292 0.944412 0.173574
Si Si2 0.659546 0.246216 0.171909
Si Si3 0.169014 0.353564 0.324203
Si Si4 0.910744 0.944487 0.326767
Si Si5 0.169048 0.145771 0.177616
O O1 0.500000 0.943073 0.181576
O O2 0.622870 0.900510 0.268852
O O3 0.613227 0.000000 0.219047
O O4 0.610009 0.937687 0.000000
O O5 0.750000 0.250000 0.178015
O O6 0.636664 0.198783 0.266190
O O7 0.633885 0.300848 0.220650
O O8 0.639120 0.237938 0.000000
O O9 0.174500 0.352603 0.500000
O O10 0.250630 0.358026 0.252873
O O11 0.889645 0.937325 0.500000
O O12 0.877859 0.901008 0.228760
O O13 0.000000 0.943459 0.319641
O O14 0.886428 0.000000 0.281937
O O15 0.178222 0.147041 0.000000
#
# Coordination Sequence:
#
# PCOD9494718 Si02
#       5
#    16  16  16  16  16
#     4   9  19  37  58  76  98 133 173 211 254 302
#     4   8  16  32  51  72 101 135 169 207 252 299
#     4  11  21  32  52  80 107 135 167 207 255 304
#     4   9  19  36  55  75 103 137 169 207 259 310
#     4  10  20  34  54  78 103 134 173 214 252 295
#
# _framework density 9.1449470000000002
#
# number of rings (size 3 to 8) (size 9 to 14) (size 15 to 20)
#    0.000    2.600    0.000    4.800    0.000    6.800 
#    0.000    3.000    0.000    1.200    0.000    0.000 
#    0.000    0.000    0.000    0.000    0.000    0.000 
#
# Total GULP energy -223032.131972 kJ/mol
# GULP energy per Si atom -5575.803299 kJ/mol
# Density = 0.912413 g / cm^3
# Si number density = 9.144947 Si / 1000 Ang^3
#
#
#
# Elastic Constant Matrix: (Units=GPa)
#
#
# Indices 1 2 3 4 5 6 
#
# 1 14.0976 38.6588 27.0887 0.0000 0.0000 0.0000
# 2 38.6588 188.0213 93.3979 0.0000 0.0000 0.0000
# 3 27.0887 93.3979 89.8885 0.0000 0.0000 0.0000
# 4 0.0000 0.0000 0.0000 -20.5899 0.0000 0.0000
# 5 0.0000 0.0000 0.0000 0.0000 18.8749 0.0000
# 6 0.0000 0.0000 0.0000 0.0000 0.0000 45.7220
#
#
#
# Elastic Compliance Matrix: (Units=1/GPa)
#
#
# Indices 1 2 3 4 5 6 
#
# 1 0.211890 -0.024484 -0.038415 0.000000 0.000000 0.000000
# 2 -0.024484 0.013821 -0.006982 0.000000 0.000000 0.000000
# 3 -0.038415 -0.006982 0.029956 0.000000 0.000000 0.000000
# 4 0.000000 0.000000 0.000000 -0.048567 0.000000 0.000000
# 5 0.000000 0.000000 0.000000 0.000000 0.052981 0.000000
# 6 0.000000 0.000000 0.000000 0.000000 0.000000 0.021871
#
#
# Mechanical properties :
#
#
# Convention : Reuss Voigt Hill
#
# Bulk Modulus (GPa) = 8.62775 67.81090 38.21933
# Shear Modulus (GPa) = 10.86131 17.65884 14.26008
#
# Velocity S-wave (km/s) = 2.43953 3.11062 2.79529
# Velocity P-wave (km/s) = 3.55845 7.07512 5.60000
#
# Compressibility (1/GPa) = 0.11590501
#
# Stress axis : x y z
#
# Youngs Moduli (GPa) = 4.71942 72.35403 33.38195
#
# Poissons Ratio (x) = 1.77152 1.28237
# Poissons Ratio (y) = 0.11555 0.23307
# Poissons Ratio (z) = 0.18130 0.50518
#
# Static dielectric constant tensor:
#      x y z
#    x 1.615300 0.000000 0.000000 
#    y 0.000000 1.654870 0.000000 
#    z 0.000000 0.000000 1.608950 
# 
# From -- ./inp_files/9659.got.cif
#   From: 2010.05.17/outbox.ucp.g08.bks.cvg/sg65_5_cif.got.tgz:9659.got - 2010.06.11 16:39:57.
