data_PCOD9494980
_publ_section_title
;
Structure prediction by ZEFSAII (Michael W. Deem and Ramdas Pophale) SiO2 
 PCOD9494980
Probable space group: C C C M
;
_chemical_formula_sum "Si O2"
_cell_formula_units_Z 96
_cell_length_a 12.303577
_cell_length_b 15.492042
_cell_length_c 25.762677
_cell_angle_alpha 90.000000
_cell_angle_beta 90.000000
_cell_angle_gamma 90.000000
_cell_volume 4910.560271
_symmetry_space_group_name_H-M "C C C M"
_symmetry_group_IT_number 66
_symmetry_cell_setting 'orthorhombic'
loop_
_space_group_symop_operation_xyz
x,y,z
-x,-y,z
x,-y,1/2-z
-x,y,1/2-z
-x,-y,-z
x,y,-z
-x,y,1/2+z
x,-y,1/2+z
1/2+x,1/2+y,z
1/2-x,1/2-y,z
1/2+x,1/2-y,1/2-z
1/2-x,1/2+y,1/2-z
1/2-x,1/2-y,-z
1/2+x,1/2+y,-z
1/2-x,1/2+y,1/2+z
1/2+x,1/2-y,1/2+z
loop_
_atom_site_type_symbol
_atom_site_label
_atom_site_fract_x
_atom_site_fract_y
_atom_site_fract_z
Si Si1 0.614839 0.489030 0.661919
Si Si2 0.841961 0.873925 0.742732
Si Si3 0.059203 0.639262 0.886664
Si Si4 0.349170 0.180468 0.500000
Si Si5 0.660448 0.054505 0.610362
Si Si6 0.367332 0.014857 0.000000
Si Si7 0.610726 0.177157 0.227051
O O1 0.500000 0.500000 0.633066
O O2 0.639389 0.581825 0.687279
O O3 0.600727 0.426586 0.711727
O O4 0.720388 0.451187 0.634042
O O5 0.711656 0.877143 0.748295
O O6 0.875554 0.775193 0.745514
O O7 0.109437 0.542294 0.886353
O O8 0.109914 0.682268 0.835583
O O9 0.931358 0.623543 0.873657
O O10 0.085793 0.681865 0.943568
O O11 0.250000 0.250000 0.500000
O O12 0.312761 0.079763 0.500000
O O13 0.667304 0.067696 0.549320
O O14 0.500000 0.000000 0.000000
O O15 0.500000 0.140364 0.250000
#
# Coordination Sequence:
#
# PCOD9494980 Si02
#       7
#    16  16  16   8  16   8  16
#     4  11  21  37  54  76 105 155 201 236 278 362
#     4  10  22  36  52  73 112 149 196 237 293 347
#     4  10  19  34  54  84 120 143 191 248 306 365
#     4  10  20  30  54  86 118 158 191 239 310 375
#     4  10  18  34  57  83 109 153 187 240 305 354
#     4  10  16  34  57  80 117 148 182 241 310 361
#     4  11  21  34  53  82 113 150 187 247 305 357
#
# _framework density 19.549703999999998
#
# number of rings (size 3 to 8) (size 9 to 14) (size 15 to 20)
#    0.000    1.667    5.000    3.000    2.333    0.000 
#    0.000    0.417    0.000    0.000    0.000    3.500 
#    0.000   18.667    0.000    0.000    0.000    0.167 
#
# Total GULP energy -267222.272038 kJ/mol
# GULP energy per Si atom -5567.130667 kJ/mol
# Density = 1.950521 g / cm^3
# Si number density = 19.549704 Si / 1000 Ang^3
#
#
#
# Elastic Constant Matrix: (Units=GPa)
#
#
# Indices 1 2 3 4 5 6 
#
# 1 155.3867 10.6201 31.8643 0.0000 0.0000 0.0000
# 2 10.6201 34.6757 -10.9158 0.0000 0.0000 0.0000
# 3 31.8643 -10.9158 77.6907 0.0000 0.0000 0.0000
# 4 0.0000 0.0000 0.0000 11.6868 0.0000 0.0000
# 5 0.0000 0.0000 0.0000 0.0000 13.6713 0.0000
# 6 0.0000 0.0000 0.0000 0.0000 0.0000 16.1284
#
#
#
# Elastic Compliance Matrix: (Units=1/GPa)
#
#
# Indices 1 2 3 4 5 6 
#
# 1 0.007383 -0.003363 -0.003501 0.000000 0.000000 0.000000
# 2 -0.003363 0.031705 0.005834 0.000000 0.000000 0.000000
# 3 -0.003501 0.005834 0.015127 0.000000 0.000000 0.000000
# 4 0.000000 0.000000 0.000000 0.085567 0.000000 0.000000
# 5 0.000000 0.000000 0.000000 0.000000 0.073146 0.000000
# 6 0.000000 0.000000 0.000000 0.000000 0.000000 0.062003
#
#
# Mechanical properties :
#
#
# Convention : Reuss Voigt Hill
#
# Bulk Modulus (GPa) = 19.17335 36.76559 27.96947
# Shear Modulus (GPa) = 16.98509 24.04293 20.51401
#
# Velocity S-wave (km/s) = 2.95077 3.51071 3.24284
# Velocity P-wave (km/s) = 4.63013 5.93973 5.32534
#
# Compressibility (1/GPa) = 0.05215572
#
# Stress axis : x y z
#
# Youngs Moduli (GPa) = 135.44066 31.54052 66.10665
#
# Poissons Ratio (x) = 0.10608 0.23142
# Poissons Ratio (y) = 0.45553 -0.38567
# Poissons Ratio (z) = 0.47415 -0.18401
#
# Static dielectric constant tensor:
#      x y z
#    x 1.832970 0.000000 0.000000 
#    y 0.000000 1.665980 0.000000 
#    z 0.000000 0.000000 1.760790 
# 
# From -- ./inp_files/69010.got.cif
#   From: 2010.05.17/outbox.cif.g08.bks.cpg/sg66_35_cif.got.tgz:69010.got - 2010.06.03 17:51:23.
