data_PCOD9494507
_publ_section_title
;
Structure prediction by ZEFSAII (Michael W. Deem and Ramdas Pophale) SiO2 
 PCOD9494507
Probable space group: C M M M
;
_chemical_formula_sum "Si O2"
_cell_formula_units_Z 104
_cell_length_a 33.187538
_cell_length_b 21.496884
_cell_length_c 7.537089
_cell_angle_alpha 90.000000
_cell_angle_beta 90.000000
_cell_angle_gamma 90.000000
_cell_volume 5377.175265
_symmetry_space_group_name_H-M "C M M M"
_symmetry_group_IT_number 65
_symmetry_cell_setting 'orthorhombic'
loop_
_space_group_symop_operation_xyz
x,y,z
-x,-y,z
x,-y,-z
-x,y,-z
-x,-y,-z
x,y,-z
-x,y,z
x,-y,z
1/2+x,1/2+y,z
1/2-x,1/2-y,z
1/2+x,1/2-y,-z
1/2-x,1/2+y,-z
1/2-x,1/2-y,-z
1/2+x,1/2+y,-z
1/2-x,1/2+y,z
1/2+x,1/2-y,z
loop_
_atom_site_type_symbol
_atom_site_label
_atom_site_fract_x
_atom_site_fract_y
_atom_site_fract_z
Si Si1 0.565882 0.164755 0.284809
Si Si2 0.634698 0.320176 0.787335
Si Si3 0.214290 0.429629 0.711635
Si Si4 0.000000 0.569341 0.283171
Si Si5 0.691608 0.430340 0.213969
Si Si6 0.455761 0.696430 0.793452
Si Si7 0.343642 0.179847 0.286750
O O1 0.565142 0.168722 0.500000
O O2 0.539022 0.107473 0.228240
O O3 0.547320 0.228844 0.216224
O O4 0.611898 0.159038 0.227857
O O5 0.662175 0.376411 0.719809
O O6 0.588348 0.322438 0.717686
O O7 0.656307 0.253497 0.756208
O O8 0.631356 0.325595 0.000000
O O9 0.207395 0.432197 0.500000
O O10 0.204808 0.500000 0.780361
O O11 0.261726 0.418797 0.740954
O O12 0.188848 0.370425 0.780481
O O13 0.000000 0.500000 0.217995
O O14 0.000000 0.568291 0.500000
O O15 0.681212 0.500000 0.276970
O O16 0.688901 0.430592 0.000000
O O17 0.500000 0.678237 0.717924
O O18 0.456207 0.677357 0.000000
O O19 0.341852 0.177394 0.500000
#
# Coordination Sequence:
#
# PCOD9494507 Si02
#       7
#    16  16  16   8  16  16  16
#     4   9  16  27  42  60  84 113 145 181 218 256
#     4   9  18  31  47  69  93 117 148 185 226 269
#     4   9  18  32  48  66  90 122 156 187 224 268
#     4   9  16  24  37  59  83 109 144 183 218 252
#     4   9  18  33  51  68  88 117 151 185 222 269
#     4   9  16  27  45  65  86 113 142 174 215 264
#     4   9  18  30  45  67  93 119 149 188 228 265
#
# _framework density 19.341011000000002
#
# number of rings (size 3 to 8) (size 9 to 14) (size 15 to 20)
#    0.000    3.000    0.769    0.000    0.000    2.462 
#    0.000    6.154    0.000    1.385    0.000    7.538 
#    0.000    0.000    0.000   11.538    0.000   12.000 
#
# Total GULP energy -289615.512167 kJ/mol
# GULP energy per Si atom -5569.529080 kJ/mol
# Density = 1.929699 g / cm^3
# Si number density = 19.341011 Si / 1000 Ang^3
#
#
#
# Elastic Constant Matrix: (Units=GPa)
#
#
# Indices 1 2 3 4 5 6 
#
# 1 143.8027 113.4976 4.6495 0.0000 0.0000 0.0000
# 2 113.4976 145.5379 4.4941 0.0000 0.0000 0.0000
# 3 4.6495 4.4941 48.7266 0.0000 0.0000 0.0000
# 4 0.0000 0.0000 0.0000 14.9194 0.0000 0.0000
# 5 0.0000 0.0000 0.0000 0.0000 4.8188 0.0000
# 6 0.0000 0.0000 0.0000 0.0000 0.0000 48.1551
#
#
#
# Elastic Compliance Matrix: (Units=1/GPa)
#
#
# Indices 1 2 3 4 5 6 
#
# 1 0.018095 -0.014098 -0.000426 0.000000 0.000000 0.000000
# 2 -0.014098 0.017875 -0.000303 0.000000 0.000000 0.000000
# 3 -0.000426 -0.000303 0.020591 0.000000 0.000000 0.000000
# 4 0.000000 0.000000 0.000000 0.067027 0.000000 0.000000
# 5 0.000000 0.000000 0.000000 0.000000 0.207523 0.000000
# 6 0.000000 0.000000 0.000000 0.000000 0.000000 0.020766
#
#
# Mechanical properties :
#
#
# Convention : Reuss Voigt Hill
#
# Bulk Modulus (GPa) = 37.16727 64.81662 50.99195
# Shear Modulus (GPa) = 12.80410 27.94040 20.37225
#
# Velocity S-wave (km/s) = 2.57576 3.80494 3.24901
# Velocity P-wave (km/s) = 5.30138 7.27246 6.36370
#
# Compressibility (1/GPa) = 0.02690539
#
# Stress axis : x y z
#
# Youngs Moduli (GPa) = 55.26482 55.94497 48.56417
#
# Poissons Ratio (x) = 0.78871 0.02071
# Poissons Ratio (y) = 0.77912 0.01473
# Poissons Ratio (z) = 0.02356 0.01697
#
# Static dielectric constant tensor:
#      x y z
#    x 1.689500 0.000000 0.000000 
#    y 0.000000 1.660790 0.000000 
#    z 0.000000 0.000000 1.743660 
# 
# From -- ./inp_files/16758.got.cif
#   From: 2010.05.17/outbox.cif.g08.bks.cpg/sg65_9_cif.got.tgz:16758.got - 2010.06.03 17:01:31.
