data_PCOD9494040
_publ_section_title
;
Structure prediction by ZEFSAII (Michael W. Deem and Ramdas Pophale) SiO2 
 PCOD9494040
Probable space group: C M M M
;
_chemical_formula_sum "Si O2"
_cell_formula_units_Z 64
_cell_length_a 25.461500
_cell_length_b 8.905410
_cell_length_c 14.917621
_cell_angle_alpha 90.000000
_cell_angle_beta 90.000000
_cell_angle_gamma 90.000000
_cell_volume 3382.497416
_symmetry_space_group_name_H-M "C M M M"
_symmetry_group_IT_number 65
_symmetry_cell_setting 'orthorhombic'
loop_
_space_group_symop_operation_xyz
x,y,z
-x,-y,z
x,-y,-z
-x,y,-z
-x,-y,-z
x,y,-z
-x,y,z
x,-y,z
1/2+x,1/2+y,z
1/2-x,1/2-y,z
1/2+x,1/2-y,-z
1/2-x,1/2+y,-z
1/2-x,1/2-y,-z
1/2+x,1/2+y,-z
1/2-x,1/2+y,z
1/2+x,1/2-y,z
loop_
_atom_site_type_symbol
_atom_site_label
_atom_site_fract_x
_atom_site_fract_y
_atom_site_fract_z
Si Si1 0.000000 0.828053 0.390915
Si Si2 0.391183 0.819704 0.603692
Si Si3 0.307529 0.819947 0.247522
Si Si4 0.384930 0.318944 0.106383
Si Si5 0.000000 0.824464 0.108880
O O1 0.053864 0.749048 0.363231
O O2 0.000000 0.823262 0.500000
O O3 0.000000 0.000000 0.361754
O O4 0.383019 0.773710 0.500000
O O5 0.342873 0.776028 0.666484
O O6 0.395938 0.000000 0.605462
O O7 0.250000 0.750000 0.251647
O O8 0.339653 0.759214 0.162368
O O9 0.303932 0.000000 0.244394
O O10 0.383165 0.500000 0.119074
O O11 0.443183 0.262638 0.136067
O O12 0.379553 0.291658 0.000000
O O13 0.000000 0.000000 0.134412
O O14 0.000000 0.821101 0.000000
#
# Coordination Sequence:
#
# PCOD9494040 Si02
#       5
#     8  16  16  16   8
#     4   9  17  30  53  86 115 139 174 218 263 315
#     4   9  19  37  58  79 108 145 179 216 268 325
#     4  11  24  39  55  77 105 140 185 230 270 316
#     4   9  18  35  59  84 111 143 176 214 264 320
#     4   7  12  27  53  82 107 133 168 207 253 312
#
# _framework density 18.920929000000001
#
# number of rings (size 3 to 8) (size 9 to 14) (size 15 to 20)
#    0.000    2.750    0.000    2.625    0.000    6.000 
#    0.000    3.125    0.000    2.250    0.000    0.000 
#    0.000    0.000    0.000    0.000    0.000    0.000 
#
# Total GULP energy -178525.675090 kJ/mol
# GULP energy per Si atom -5578.927347 kJ/mol
# Density = 1.887786 g / cm^3
# Si number density = 18.920929 Si / 1000 Ang^3
#
#
#
# Elastic Constant Matrix: (Units=GPa)
#
#
# Indices 1 2 3 4 5 6 
#
# 1 230.2336 64.1068 82.6978 0.0000 0.0000 0.0000
# 2 64.1068 33.7005 40.4633 0.0000 0.0000 0.0000
# 3 82.6978 40.4633 88.3964 0.0000 0.0000 0.0000
# 4 0.0000 0.0000 0.0000 15.2413 0.0000 0.0000
# 5 0.0000 0.0000 0.0000 0.0000 34.7119 0.0000
# 6 0.0000 0.0000 0.0000 0.0000 0.0000 -79.7628
#
#
#
# Elastic Compliance Matrix: (Units=1/GPa)
#
#
# Indices 1 2 3 4 5 6 
#
# 1 0.009306 -0.016094 -0.001338 0.000000 0.000000 0.000000
# 2 -0.016094 0.093719 -0.027843 0.000000 0.000000 0.000000
# 3 -0.001338 -0.027843 0.025310 0.000000 0.000000 0.000000
# 4 0.000000 0.000000 0.000000 0.065611 0.000000 0.000000
# 5 0.000000 0.000000 0.000000 0.000000 0.028809 0.000000
# 6 0.000000 0.000000 0.000000 0.000000 0.000000 -0.012537
#
#
# Mechanical properties :
#
#
# Convention : Reuss Voigt Hill
#
# Bulk Modulus (GPa) = 26.46694 80.76290 53.61492
# Shear Modulus (GPa) = 15.95597 5.04226 10.49911
#
# Velocity S-wave (km/s) = 2.90711 1.63423 2.35817
# Velocity P-wave (km/s) = 5.02861 6.80720 5.98435
#
# Compressibility (1/GPa) = 0.03778298
#
# Stress axis : x y z
#
# Youngs Moduli (GPa) = 107.46271 10.67020 39.51038
#
# Poissons Ratio (x) = 0.17173 0.05288
# Poissons Ratio (y) = 1.72955 1.10008
# Poissons Ratio (z) = 0.14383 0.29709
#
# Static dielectric constant tensor:
#      x y z
#    x 1.638970 0.000000 0.000000 
#    y 0.000000 1.626760 0.000000 
#    z 0.000000 0.000000 1.682840 
# 
# From -- ./inp_files/36012.got.cif
#   From: 2010.05.17/outbox.cif.g08.bks.cpg/sg65_19_cif.got.tgz:36012.got - 2010.06.03 17:01:31.
