data_PCOD9494924
_publ_section_title
;
Structure prediction by ZEFSAII (Michael W. Deem and Ramdas Pophale) SiO2 
 PCOD9494924
Probable space group: C C C M
;
_chemical_formula_sum "Si O2"
_cell_formula_units_Z 56
_cell_length_a 14.315935
_cell_length_b 5.228903
_cell_length_c 30.462641
_cell_angle_alpha 90.000000
_cell_angle_beta 90.000000
_cell_angle_gamma 90.000000
_cell_volume 2280.330813
_symmetry_space_group_name_H-M "C C C M"
_symmetry_group_IT_number 66
_symmetry_cell_setting 'orthorhombic'
loop_
_space_group_symop_operation_xyz
x,y,z
-x,-y,z
x,-y,1/2-z
-x,y,1/2-z
-x,-y,-z
x,y,-z
-x,y,1/2+z
x,-y,1/2+z
1/2+x,1/2+y,z
1/2-x,1/2-y,z
1/2+x,1/2-y,1/2-z
1/2-x,1/2+y,1/2-z
1/2-x,1/2-y,-z
1/2+x,1/2+y,-z
1/2-x,1/2+y,1/2+z
1/2+x,1/2-y,1/2+z
loop_
_atom_site_type_symbol
_atom_site_label
_atom_site_fract_x
_atom_site_fract_y
_atom_site_fract_z
Si Si1 0.434082 0.749358 0.000000
Si Si2 0.637312 0.249006 0.277534
Si Si3 0.389608 0.577834 0.091842
Si Si4 0.603351 0.076223 0.626918
O O1 0.500000 0.500000 0.000000
O O2 0.377306 0.714588 0.044957
O O3 0.500000 0.000000 0.000000
O O4 0.611272 0.500000 0.250000
O O5 0.750000 0.250000 0.283263
O O6 0.595909 0.208257 0.325726
O O7 0.612103 0.000000 0.250000
O O8 0.500000 0.500000 0.097375
O O9 0.349633 0.293659 0.097315
O O10 0.355049 0.789878 0.126751
O O11 0.500000 0.000000 0.610249
#
# Coordination Sequence:
#
# PCOD9494924 Si02
#       4
#     8  16  16  16
#     4  10  16  26  44  68 101 136 165 196 243 298
#     4  10  21  37  55  74  98 133 177 215 251 308
#     4   9  17  28  45  71 101 131 161 199 245 297
#     4  10  19  32  49  73 102 128 161 207 256 298
#
# _framework density 24.557839000000001
#
# number of rings (size 3 to 8) (size 9 to 14) (size 15 to 20)
#    0.000    2.286    0.000    6.000    0.000    0.571 
#    0.000    1.429    0.000    0.000    0.000    6.000 
#    0.000    0.000    0.000    0.000    0.000    0.000 
#
# Total GULP energy -156200.188660 kJ/mol
# GULP energy per Si atom -5578.578166 kJ/mol
# Density = 2.450194 g / cm^3
# Si number density = 24.557839 Si / 1000 Ang^3
#
#
#
# Elastic Constant Matrix: (Units=GPa)
#
#
# Indices 1 2 3 4 5 6 
#
# 1 80.4183 18.1053 -2.8454 0.0000 0.0000 0.0000
# 2 18.1053 269.4726 73.7749 0.0000 0.0000 0.0000
# 3 -2.8454 73.7749 136.9368 0.0000 0.0000 0.0000
# 4 0.0000 0.0000 0.0000 47.5929 0.0000 0.0000
# 5 0.0000 0.0000 0.0000 0.0000 1215.7504 0.0000
# 6 0.0000 0.0000 0.0000 0.0000 0.0000 -47.7060
#
#
#
# Elastic Compliance Matrix: (Units=1/GPa)
#
#
# Indices 1 2 3 4 5 6 
#
# 1 0.012710 -0.001086 0.000849 0.000000 0.000000 0.000000
# 2 -0.001086 0.004446 -0.002418 0.000000 0.000000 0.000000
# 3 0.000849 -0.002418 0.008623 0.000000 0.000000 0.000000
# 4 0.000000 0.000000 0.000000 0.021012 0.000000 0.000000
# 5 0.000000 0.000000 0.000000 0.000000 0.000823 0.000000
# 6 0.000000 0.000000 0.000000 0.000000 0.000000 -0.020962
#
#
# Mechanical properties :
#
#
# Convention : Reuss Voigt Hill
#
# Bulk Modulus (GPa) = 48.85506 73.87748 61.36627
# Shear Modulus (GPa) = 128.92119 269.64699 199.28409
#
# Velocity S-wave (km/s) = 7.25334 10.48995 9.01804
# Velocity P-wave (km/s) = 9.49131 13.29914 11.55319
#
# Compressibility (1/GPa) = 0.02046871
#
# Stress axis : x y z
#
# Youngs Moduli (GPa) = 78.68041 224.92702 115.97045
#
# Poissons Ratio (x) = 0.24438 -0.09851
# Poissons Ratio (y) = 0.08549 0.28039
# Poissons Ratio (z) = -0.06683 0.54383
#
# Static dielectric constant tensor:
#      x y z
#    x 2.055420 0.000000 0.000000 
#    y 0.000000 2.284940 0.000000 
#    z 0.000000 0.000000 2.058130 
# 
# From -- ./inp_files/69723.got.cif
#   From: 2010.05.17/outbox.cif.g08.bks.cpg/sg66_35_cif.got.tgz:69723.got - 2010.06.03 17:51:23.
