data_PCOD9494782
_publ_section_title
;
Structure prediction by ZEFSAII (Michael W. Deem and Ramdas Pophale) SiO2 
 PCOD9494782
Probable space group: C M M M
;
_chemical_formula_sum "Si O2"
_cell_formula_units_Z 44
_cell_length_a 9.000000
_cell_length_b 18.000000
_cell_length_c 30.000000
_cell_angle_alpha 90.000000
_cell_angle_beta 90.000000
_cell_angle_gamma 90.000000
_cell_volume 4860.000000
_symmetry_space_group_name_H-M "C M M M"
_symmetry_group_IT_number 65
_symmetry_cell_setting 'orthorhombic'
loop_
_space_group_symop_operation_xyz
x,y,z
-x,-y,z
x,-y,-z
-x,y,-z
-x,-y,-z
x,y,-z
-x,y,z
x,-y,z
1/2+x,1/2+y,z
1/2-x,1/2-y,z
1/2+x,1/2-y,-z
1/2-x,1/2+y,-z
1/2-x,1/2-y,-z
1/2+x,1/2+y,-z
1/2-x,1/2+y,z
1/2+x,1/2-y,z
loop_
_atom_site_type_symbol
_atom_site_label
_atom_site_fract_x
_atom_site_fract_y
_atom_site_fract_z
Si Si1 0.821800 0.086850 0.589968
Si Si2 0.674012 0.409697 0.770615
Si Si3 0.827970 0.590535 0.319400
Si Si4 0.323035 0.830999 0.049319
Si Si5 0.679848 0.330368 0.500000
Si Si6 0.174573 0.089161 0.131315
O O1 0.753230 0.116491 0.635839
O O2 0.773998 0.127759 0.545112
O O3 0.000000 0.091293 0.593284
O O4 0.781839 0.000000 0.585824
O O5 0.500000 0.391608 0.766790
O O6 0.684037 0.500000 0.770726
O O7 0.758649 0.382459 0.727010
O O8 0.727638 0.385083 0.819550
O O9 0.814551 0.500000 0.319017
O O10 0.000000 0.609403 0.321537
O O11 0.500000 0.824161 0.052060
O O12 0.250000 0.750000 0.051916
O O13 0.262750 0.878198 0.090164
O O14 0.285770 0.862330 0.000000
O O15 0.500000 0.327191 0.500000
O O16 0.750000 0.250000 0.500000
O O17 0.000000 0.108689 0.127484
O O18 0.184495 0.000000 0.130509
#
# Coordination Sequence:
#
# PCOD9494782 Si02
#       6
#    16  16  16  16   8  16
#     4   9  17  31  51  72  94 123 161 200 234 275
#     4   8  14  26  44  67  97 131 162 191 230 283
#     4   9  16  25  41  69 100 126 155 194 239 281
#     4  10  21  36  53  72  96 129 168 208 250 297
#     4  10  21  35  51  71  95 126 160 194 238 288
#     4   9  18  32  51  76 104 133 165 202 245 293
#
# _framework density 9.0534979999999994
#
# number of rings (size 3 to 8) (size 9 to 14) (size 15 to 20)
#    0.000    2.909    0.000    2.455    0.000    6.545 
#    0.000    3.636    0.000    3.818    0.000    5.091 
#    0.000    0.000    0.000    0.000    0.000    0.000 
#
# Total GULP energy -245131.627775 kJ/mol
# GULP energy per Si atom -5571.173359 kJ/mol
# Density = 0.903289 g / cm^3
# Si number density = 9.053498 Si / 1000 Ang^3
#
#
#
# Elastic Constant Matrix: (Units=GPa)
#
#
# Indices 1 2 3 4 5 6 
#
# 1 38.8751 24.2263 82.0795 0.0000 0.0000 0.0000
# 2 24.2263 14.9360 49.3267 0.0000 0.0000 0.0000
# 3 82.0795 49.3267 227.9630 0.0000 0.0000 0.0000
# 4 0.0000 0.0000 0.0000 -34.9160 0.0000 0.0000
# 5 0.0000 0.0000 0.0000 0.0000 14.1960 0.0000
# 6 0.0000 0.0000 0.0000 0.0000 0.0000 20.0403
#
#
#
# Elastic Compliance Matrix: (Units=1/GPa)
#
#
# Indices 1 2 3 4 5 6 
#
# 1 -2.057193 3.120487 0.065494 0.000000 0.000000 0.000000
# 2 3.120487 -4.498766 -0.150107 0.000000 0.000000 0.000000
# 3 0.065494 -0.150107 0.013285 0.000000 0.000000 0.000000
# 4 0.000000 0.000000 0.000000 -0.028640 0.000000 0.000000
# 5 0.000000 0.000000 0.000000 0.000000 0.070443 0.000000
# 6 0.000000 0.000000 0.000000 0.000000 0.000000 0.049899
#
#
# Mechanical properties :
#
#
# Convention : Reuss Voigt Hill
#
# Bulk Modulus (GPa) = -2.12347 65.89323 31.88488
# Shear Modulus (GPa) = -0.39433 8.27350 3.93958
#
# Velocity S-wave (km/s) = -0.46717 2.13989 1.47663
# Velocity P-wave (km/s) = 1.21090 6.52500 4.53372
#
# Compressibility (1/GPa) = -0.47092651
#
# Stress axis : x y z
#
# Youngs Moduli (GPa) = -0.48610 -0.22228 75.27054
#
# Poissons Ratio (x) = 0.69363 -4.92975
# Poissons Ratio (y) = 1.51687 11.29863
# Poissons Ratio (z) = 0.03184 -0.03337
#
# Static dielectric constant tensor:
#      x y z
#    x 1.604410 0.000000 0.000000 
#    y 0.000000 1.604120 0.000000 
#    z 0.000000 0.000000 1.639480 
# 
# From -- ./inp_files/76525.got.cif
#   From: 2010.05.17/outbox.ucp.g08.bks.cvg/sg65_39_cif.got.tgz:76525.got - 2010.06.11 16:39:57.
