data_PCOD9494480
_publ_section_title
;
Structure prediction by ZEFSAII (Michael W. Deem and Ramdas Pophale) SiO2 
 PCOD9494480
Probable space group: C M M M
;
_chemical_formula_sum "Si O2"
_cell_formula_units_Z 64
_cell_length_a 7.445161
_cell_length_b 26.431886
_cell_length_c 19.597514
_cell_angle_alpha 90.000000
_cell_angle_beta 90.000000
_cell_angle_gamma 90.000000
_cell_volume 3856.587858
_symmetry_space_group_name_H-M "C M M M"
_symmetry_group_IT_number 65
_symmetry_cell_setting 'orthorhombic'
loop_
_space_group_symop_operation_xyz
x,y,z
-x,-y,z
x,-y,-z
-x,y,-z
-x,-y,-z
x,y,-z
-x,y,z
x,-y,z
1/2+x,1/2+y,z
1/2-x,1/2-y,z
1/2+x,1/2-y,-z
1/2-x,1/2+y,-z
1/2-x,1/2-y,-z
1/2+x,1/2+y,-z
1/2-x,1/2+y,z
1/2+x,1/2-y,z
loop_
_atom_site_type_symbol
_atom_site_label
_atom_site_fract_x
_atom_site_fract_y
_atom_site_fract_z
Si Si1 0.780630 0.402143 0.664803
Si Si2 0.000000 0.938653 0.922529
Si Si3 0.785179 0.307773 0.577623
Si Si4 0.219222 0.500000 0.578460
Si Si5 0.787924 0.439502 0.811626
O O1 0.719106 0.350430 0.629423
O O2 0.724601 0.449842 0.618765
O O3 0.727141 0.411367 0.742870
O O4 0.000000 0.402471 0.665403
O O5 0.827229 0.924588 0.877345
O O6 0.000000 0.000000 0.926191
O O7 0.000000 0.919535 0.000000
O O8 0.715958 0.314615 0.500000
O O9 0.750000 0.250000 0.598392
O O10 0.000000 0.313883 0.574175
O O11 0.277564 0.500000 0.500000
O O12 0.000000 0.500000 0.578141
O O13 0.763594 0.500000 0.799912
O O14 0.000000 0.431088 0.822066
#
# Coordination Sequence:
#
# PCOD9494480 Si02
#       5
#    16   8  16   8  16
#     4   9  15  25  41  62  87 116 149 188 230 273
#     4   9  18  30  44  66  94 124 156 182 214 275
#     4   9  17  29  43  59  83 117 154 194 234 269
#     4   9  14  20  36  63  87 110 149 191 224 266
#     4   9  16  28  45  65  92 123 151 184 230 273
#
# _framework density 16.594982000000002
#
# number of rings (size 3 to 8) (size 9 to 14) (size 15 to 20)
#    0.000    3.000    1.250    0.750    0.000    3.500 
#    2.250    2.500    0.000    0.000    0.000    0.875 
#    0.000    1.000    0.500    0.000    0.000    0.000 
#
# Total GULP energy -178425.103571 kJ/mol
# GULP energy per Si atom -5575.784487 kJ/mol
# Density = 1.655721 g / cm^3
# Si number density = 16.594982 Si / 1000 Ang^3
#
#
#
# Elastic Constant Matrix: (Units=GPa)
#
#
# Indices 1 2 3 4 5 6 
#
# 1 60.6890 21.3131 42.1691 0.0000 0.0000 0.0000
# 2 21.3131 94.2300 79.5194 0.0000 0.0000 0.0000
# 3 42.1691 79.5194 175.6196 0.0000 0.0000 0.0000
# 4 0.0000 0.0000 0.0000 16.3665 0.0000 0.0000
# 5 0.0000 0.0000 0.0000 0.0000 -73.5020 0.0000
# 6 0.0000 0.0000 0.0000 0.0000 0.0000 11.3352
#
#
#
# Elastic Compliance Matrix: (Units=1/GPa)
#
#
# Indices 1 2 3 4 5 6 
#
# 1 0.019810 -0.000755 -0.004415 0.000000 0.000000 0.000000
# 2 -0.000755 0.017204 -0.007608 0.000000 0.000000 0.000000
# 3 -0.004415 -0.007608 0.010199 0.000000 0.000000 0.000000
# 4 0.000000 0.000000 0.000000 0.061101 0.000000 0.000000
# 5 0.000000 0.000000 0.000000 0.000000 -0.013605 0.000000
# 6 0.000000 0.000000 0.000000 0.000000 0.000000 0.088221
#
#
# Mechanical properties :
#
#
# Convention : Reuss Voigt Hill
#
# Bulk Modulus (GPa) = 46.17551 68.50463 57.34007
# Shear Modulus (GPa) = 23.17980 3.34241 13.26111
#
# Velocity S-wave (km/s) = 3.74143 1.42073 2.82991
# Velocity P-wave (km/s) = 6.82274 6.63787 6.73094
#
# Compressibility (1/GPa) = 0.02165650
#
# Stress axis : x y z
#
# Youngs Moduli (GPa) = 50.47898 58.12671 98.04631
#
# Poissons Ratio (x) = 0.04389 0.43286
# Poissons Ratio (y) = 0.03812 0.74598
# Poissons Ratio (z) = 0.22286 0.44225
#
# Static dielectric constant tensor:
#      x y z
#    x 1.633140 0.000000 0.000000 
#    y 0.000000 1.535840 0.000000 
#    z 0.000000 0.000000 1.544210 
# 
# From -- ./inp_files/36372.got.cif
#   From: 2010.05.17/outbox.cif.g08.bks.cpg/sg65_19_cif.got.tgz:36372.got - 2010.06.03 17:01:31.
