data_PCOD9494045
_publ_section_title
;
Structure prediction by ZEFSAII (Michael W. Deem and Ramdas Pophale) SiO2 
 PCOD9494045
Probable space group: C M M M
;
_chemical_formula_sum "Si O2"
_cell_formula_units_Z 104
_cell_length_a 7.845235
_cell_length_b 21.165021
_cell_length_c 31.447468
_cell_angle_alpha 90.000000
_cell_angle_beta 90.000000
_cell_angle_gamma 90.000000
_cell_volume 5221.681098
_symmetry_space_group_name_H-M "C M M M"
_symmetry_group_IT_number 65
_symmetry_cell_setting 'orthorhombic'
loop_
_space_group_symop_operation_xyz
x,y,z
-x,-y,z
x,-y,-z
-x,y,-z
-x,-y,-z
x,y,-z
-x,y,z
x,-y,z
1/2+x,1/2+y,z
1/2-x,1/2-y,z
1/2+x,1/2-y,-z
1/2-x,1/2+y,-z
1/2-x,1/2-y,-z
1/2+x,1/2+y,-z
1/2-x,1/2+y,z
1/2+x,1/2-y,z
loop_
_atom_site_type_symbol
_atom_site_label
_atom_site_fract_x
_atom_site_fract_y
_atom_site_fract_z
Si Si1 0.795316 0.930164 0.803674
Si Si2 0.691716 0.500000 0.051273
Si Si3 0.299511 0.139579 0.952365
Si Si4 0.205941 0.175982 0.360790
Si Si5 0.708266 0.571872 0.706387
Si Si6 0.701459 0.182948 0.134863
Si Si7 0.794782 0.175688 0.454411
O O1 0.736765 0.917807 0.755256
O O2 0.749764 0.875429 0.835919
O O3 0.000000 0.932804 0.802055
O O4 0.733360 0.000000 0.816869
O O5 0.500000 0.500000 0.069222
O O6 0.781666 0.434137 0.060849
O O7 0.680470 0.500000 0.000000
O O8 0.500000 0.153815 0.955789
O O9 0.221458 0.176889 0.912762
O O10 0.225319 0.148575 0.000000
O O11 0.250000 0.250000 0.353925
O O12 0.267539 0.127260 0.324947
O O13 0.267185 0.154540 0.407945
O O14 0.000000 0.173168 0.361100
O O15 0.500000 0.572980 0.706041
O O16 0.757913 0.500000 0.694124
O O17 0.500000 0.181323 0.130064
O O18 0.750000 0.250000 0.154246
O O19 0.731953 0.149168 0.500000
O O20 0.750000 0.250000 0.454998
O O21 0.000000 0.169160 0.454432
#
# Coordination Sequence:
#
# PCOD9494045 Si02
#       7
#    16   8  16  16  16  16  16
#     4   9  19  37  59  79 100 130 167 208 251 298
#     4   9  17  29  49  79 107 131 165 207 243 277
#     4   9  19  36  55  75 103 138 170 201 242 291
#     4   9  16  26  43  67  93 122 158 200 241 285
#     4   8  15  30  51  72  94 124 161 195 236 292
#     4  11  24  39  56  79 107 137 169 205 248 298
#     4   8  13  21  34  55  85 119 154 193 236 279
#
# _framework density 19.916957
#
# number of rings (size 3 to 8) (size 9 to 14) (size 15 to 20)
#    0.000    3.000    0.000    1.615    1.077    3.385 
#    0.000    2.308    0.000    1.846    0.000    3.231 
#    0.000    0.000    0.000   24.923    0.000   11.692 
#
# Total GULP energy -289638.799026 kJ/mol
# GULP energy per Si atom -5569.976904 kJ/mol
# Density = 1.987163 g / cm^3
# Si number density = 19.916957 Si / 1000 Ang^3
#
#
#
# Elastic Constant Matrix: (Units=GPa)
#
#
# Indices 1 2 3 4 5 6 
#
# 1 24.7050 2.3833 14.4188 0.0000 0.0000 0.0000
# 2 2.3833 120.2090 99.8339 0.0000 0.0000 0.0000
# 3 14.4188 99.8339 142.1155 0.0000 0.0000 0.0000
# 4 0.0000 0.0000 0.0000 46.2412 0.0000 0.0000
# 5 0.0000 0.0000 0.0000 0.0000 8.7179 0.0000
# 6 0.0000 0.0000 0.0000 0.0000 0.0000 11.3005
#
#
#
# Elastic Compliance Matrix: (Units=1/GPa)
#
#
# Indices 1 2 3 4 5 6 
#
# 1 0.045364 0.007017 -0.009532 0.000000 0.000000 0.000000
# 2 0.007017 0.021054 -0.015502 0.000000 0.000000 0.000000
# 3 -0.009532 -0.015502 0.018894 0.000000 0.000000 0.000000
# 4 0.000000 0.000000 0.000000 0.021626 0.000000 0.000000
# 5 0.000000 0.000000 0.000000 0.000000 0.114706 0.000000
# 6 0.000000 0.000000 0.000000 0.000000 0.000000 0.088492
#
#
# Mechanical properties :
#
#
# Convention : Reuss Voigt Hill
#
# Bulk Modulus (GPa) = 20.29324 57.81128 39.05226
# Shear Modulus (GPa) = 13.78942 24.61147 19.20045
#
# Velocity S-wave (km/s) = 2.63410 3.51907 3.10824
# Velocity P-wave (km/s) = 4.41162 6.75285 5.70365
#
# Compressibility (1/GPa) = 0.04927750
#
# Stress axis : x y z
#
# Youngs Moduli (GPa) = 22.04395 47.49584 52.92750
#
# Poissons Ratio (x) = -0.33326 0.50449
# Poissons Ratio (y) = -0.15468 0.82050
# Poissons Ratio (z) = 0.21012 0.73630
#
# Static dielectric constant tensor:
#      x y z
#    x 1.857780 0.000000 0.000000 
#    y 0.000000 1.814780 0.000000 
#    z 0.000000 0.000000 1.764100 
# 
# From -- ./inp_files/76914.got.cif
#   From: 2010.05.17/outbox.cif.g08.bks.cpg/sg65_39_cif.got.tgz:76914.got - 2010.06.03 17:01:31.
