data_PCOD9494938
_publ_section_title
;
Structure prediction by ZEFSAII (Michael W. Deem and Ramdas Pophale) SiO2 
 PCOD9494938
Probable space group: C C C M
;
_chemical_formula_sum "Si O2"
_cell_formula_units_Z 72
_cell_length_a 14.581783
_cell_length_b 16.565208
_cell_length_c 16.020174
_cell_angle_alpha 90.000000
_cell_angle_beta 90.000000
_cell_angle_gamma 90.000000
_cell_volume 3869.677330
_symmetry_space_group_name_H-M "C C C M"
_symmetry_group_IT_number 66
_symmetry_cell_setting 'orthorhombic'
loop_
_space_group_symop_operation_xyz
x,y,z
-x,-y,z
x,-y,1/2-z
-x,y,1/2-z
-x,-y,-z
x,y,-z
-x,y,1/2+z
x,-y,1/2+z
1/2+x,1/2+y,z
1/2-x,1/2-y,z
1/2+x,1/2-y,1/2-z
1/2-x,1/2+y,1/2-z
1/2-x,1/2-y,-z
1/2+x,1/2+y,-z
1/2-x,1/2+y,1/2+z
1/2+x,1/2-y,1/2+z
loop_
_atom_site_type_symbol
_atom_site_label
_atom_site_fract_x
_atom_site_fract_y
_atom_site_fract_z
Si Si1 0.099999 0.198912 0.589933
Si Si2 0.702246 0.140845 0.129584
Si Si3 0.896004 0.482809 0.649186
Si Si4 0.674118 0.187445 0.317308
Si Si5 0.000000 0.786473 0.250000
O O1 0.054817 0.186913 0.500000
O O2 0.200249 0.159464 0.590406
O O3 0.125533 0.293860 0.602218
O O4 0.044678 0.169496 0.670698
O O5 0.714907 0.156287 0.228815
O O6 0.668306 0.051669 0.112391
O O7 0.896459 0.500000 0.750000
O O8 0.857820 0.392955 0.634456
O O9 0.000000 0.500000 0.621403
O O10 0.750000 0.250000 0.352704
O O11 0.581023 0.233453 0.291156
#
# Coordination Sequence:
#
# PCOD9494938 Si02
#       5
#    16  16  16  16   8
#     4  10  18  30  52  78 107 142 181 230 279 323
#     4   9  15  28  46  75 111 136 174 229 274 328
#     4   9  16  25  44  75 112 146 175 223 280 331
#     4  10  16  28  49  77 110 143 180 226 270 335
#     4  10  18  32  53  77 112 140 186 220 268 331
#
# _framework density 18.606202
#
# number of rings (size 3 to 8) (size 9 to 14) (size 15 to 20)
#    0.000    2.444    4.444    5.333    0.000    0.000 
#    0.000    0.000    0.000   15.333    0.000    1.556 
#    0.000    0.000    0.000    0.000    0.000    0.000 
#
# Total GULP energy -200460.929922 kJ/mol
# GULP energy per Si atom -5568.359164 kJ/mol
# Density = 1.856385 g / cm^3
# Si number density = 18.606202 Si / 1000 Ang^3
#
#
#
# Elastic Constant Matrix: (Units=GPa)
#
#
# Indices 1 2 3 4 5 6 
#
# 1 83.6411 45.2398 14.8089 0.0000 0.0000 0.0000
# 2 45.2398 94.0174 -1.4177 0.0000 0.0000 0.0000
# 3 14.8089 -1.4177 69.8805 0.0000 0.0000 0.0000
# 4 0.0000 0.0000 0.0000 0.3456 0.0000 0.0000
# 5 0.0000 0.0000 0.0000 0.0000 -2.4448 0.0000
# 6 0.0000 0.0000 0.0000 0.0000 0.0000 18.0657
#
#
#
# Elastic Compliance Matrix: (Units=1/GPa)
#
#
# Indices 1 2 3 4 5 6 
#
# 1 0.017112 -0.008291 -0.003795 0.000000 0.000000 0.000000
# 2 -0.008291 0.014657 0.002054 0.000000 0.000000 0.000000
# 3 -0.003795 0.002054 0.015156 0.000000 0.000000 0.000000
# 4 0.000000 0.000000 0.000000 2.893178 0.000000 0.000000
# 5 0.000000 0.000000 0.000000 0.000000 -0.409028 0.000000
# 6 0.000000 0.000000 0.000000 0.000000 0.000000 0.055353
#
#
# Mechanical properties :
#
#
# Convention : Reuss Voigt Hill
#
# Bulk Modulus (GPa) = 37.22710 40.53345 38.88027
# Shear Modulus (GPa) = 1.91172 15.78717 8.84945
#
# Velocity S-wave (km/s) = 1.01474 2.91604 2.18323
# Velocity P-wave (km/s) = 4.62863 5.75934 5.22466
#
# Compressibility (1/GPa) = 0.02686215
#
# Stress axis : x y z
#
# Youngs Moduli (GPa) = 58.43723 68.22659 65.98055
#
# Poissons Ratio (x) = 0.56570 0.25037
# Poissons Ratio (y) = 0.48453 -0.13555
# Poissons Ratio (z) = 0.22175 -0.14017
#
# Static dielectric constant tensor:
#      x y z
#    x 1.637590 0.000000 0.000000 
#    y 0.000000 1.650310 0.000000 
#    z 0.000000 0.000000 1.702300 
# 
# From -- ./inp_files/40064.got.cif
#   From: 2010.05.17/outbox.cif.g08.bks.cpg/sg66_21_cif.got.tgz:40064.got - 2010.06.03 17:51:23.
