data_PCOD9494134
_publ_section_title
;
Structure prediction by ZEFSAII (Michael W. Deem and Ramdas Pophale) SiO2 
 PCOD9494134
Probable space group: C M M M
;
_chemical_formula_sum "Si O2"
_cell_formula_units_Z 112
_cell_length_a 14.069667
_cell_length_b 31.474082
_cell_length_c 14.718510
_cell_angle_alpha 90.000000
_cell_angle_beta 90.000000
_cell_angle_gamma 90.000000
_cell_volume 6517.795618
_symmetry_space_group_name_H-M "C M M M"
_symmetry_group_IT_number 65
_symmetry_cell_setting 'orthorhombic'
loop_
_space_group_symop_operation_xyz
x,y,z
-x,-y,z
x,-y,-z
-x,y,-z
-x,-y,-z
x,y,-z
-x,y,z
x,-y,z
1/2+x,1/2+y,z
1/2-x,1/2-y,z
1/2+x,1/2-y,-z
1/2-x,1/2+y,-z
1/2-x,1/2-y,-z
1/2+x,1/2+y,-z
1/2-x,1/2+y,z
1/2+x,1/2-y,z
loop_
_atom_site_type_symbol
_atom_site_label
_atom_site_fract_x
_atom_site_fract_y
_atom_site_fract_z
Si Si1 0.115311 0.231118 0.103607
Si Si2 0.386989 0.660046 0.750000
Si Si3 0.615311 0.268882 0.603607
Si Si4 0.115215 0.300343 0.250000
Si Si5 0.788307 0.392319 0.750000
Si Si6 0.889252 0.549591 0.608190
Si Si7 0.610748 0.049591 0.108190
O O1 0.137370 0.189389 0.162749
O O2 0.144461 0.272323 0.162155
O O3 0.000000 0.232842 0.101439
O O4 0.148959 0.230076 0.000000
O O5 0.500000 0.652383 0.750000
O O6 0.362630 0.689389 0.662749
O O7 0.322721 0.618576 0.750000
O O8 0.648959 0.269924 0.500000
O O9 0.500000 0.267158 0.601439
O O10 0.644461 0.227677 0.662156
O O11 0.159830 0.346624 0.250000
O O12 0.000000 0.303425 0.250000
O O13 0.822606 0.419311 0.663810
O O14 0.822605 0.419311 0.836190
O O15 0.878881 0.554683 0.500000
O O16 0.871396 0.500000 0.629993
O O17 0.000000 0.558345 0.630987
O O18 0.500000 0.058345 0.130987
O O19 0.628603 0.000000 0.129993
O O20 0.621119 0.054683 0.000000
#
# Coordination Sequence:
#
# PCOD9494134 Si02
#       7
#    16  16  16  16  16  16  16
#     4   8  15  31  50  63  89 135 172 203 248 292
#     4   9  20  35  48  68  96 130 179 220 240 275
#     4   8  15  31  50  63  89 135 172 203 248 292
#     4   9  18  29  43  72 102 120 154 204 251 303
#     4  12  21  30  51  78 102 130 163 205 252 287
#     4   9  19  36  56  78 104 131 156 184 231 305
#     4   9  19  36  56  78 104 131 156 184 231 305
#
# _framework density 17.183724999999999
#
# number of rings (size 3 to 8) (size 9 to 14) (size 15 to 20)
#    0.000    2.857    0.000    4.286    0.000    5.714 
#    0.000    4.286    0.000    1.714    0.000    2.000 
#    0.000    0.000    0.000    0.000    0.000    0.000 
#
# Total GULP energy -312530.204115 kJ/mol
# GULP energy per Si atom -5580.896502 kJ/mol
# Density = 1.714461 g / cm^3
# Si number density = 17.183725 Si / 1000 Ang^3
#
#
#
# Elastic Constant Matrix: (Units=GPa)
#
#
# Indices 1 2 3 4 5 6 
#
# 1 92.5362 58.1297 36.6246 0.0000 0.0000 0.0000
# 2 58.1297 99.4048 56.5239 0.0000 0.0000 0.0000
# 3 36.6246 56.5239 131.9853 0.0000 0.0000 0.0000
# 4 0.0000 0.0000 0.0000 18.2328 0.0000 0.0000
# 5 0.0000 0.0000 0.0000 0.0000 -31.5653 0.0000
# 6 0.0000 0.0000 0.0000 0.0000 0.0000 34.8207
#
#
#
# Elastic Compliance Matrix: (Units=1/GPa)
#
#
# Indices 1 2 3 4 5 6 
#
# 1 0.017119 -0.009663 -0.000612 0.000000 0.000000 0.000000
# 2 -0.009663 0.018752 -0.005350 0.000000 0.000000 0.000000
# 3 -0.000612 -0.005350 0.010037 0.000000 0.000000 0.000000
# 4 0.000000 0.000000 0.000000 0.054846 0.000000 0.000000
# 5 0.000000 0.000000 0.000000 0.000000 -0.031680 0.000000
# 6 0.000000 0.000000 0.000000 0.000000 0.000000 0.028719
#
#
# Mechanical properties :
#
#
# Convention : Reuss Voigt Hill
#
# Bulk Modulus (GPa) = 68.21365 69.60921 68.91143
# Shear Modulus (GPa) = 37.33347 15.80750 26.57048
#
# Velocity S-wave (km/s) = 4.66618 3.03629 3.93652
# Velocity P-wave (km/s) = 8.29541 7.27247 7.80073
#
# Compressibility (1/GPa) = 0.01465982
#
# Stress axis : x y z
#
# Youngs Moduli (GPa) = 58.41558 53.32712 99.62669
#
# Poissons Ratio (x) = 0.51527 0.06099
# Poissons Ratio (y) = 0.56444 0.53296
# Poissons Ratio (z) = 0.03576 0.28528
#
# Static dielectric constant tensor:
#      x y z
#    x 1.613630 0.000000 0.000000 
#    y 0.000000 1.542710 0.000000 
#    z 0.000000 0.000000 1.598110 
# 
# From -- ./inp_files/40782.got.cif
#   From: 2010.05.17/outbox.cif.g08.bks.cpg/sg65_21_cif.got.tgz:40782.got - 2010.06.03 17:01:31.
