data_PCOD9494483
_publ_section_title
;
Structure prediction by ZEFSAII (Michael W. Deem and Ramdas Pophale) SiO2 
 PCOD9494483
Probable space group: C M M M
;
_chemical_formula_sum "Si O2"
_cell_formula_units_Z 56
_cell_length_a 10.636200
_cell_length_b 38.744102
_cell_length_c 7.361317
_cell_angle_alpha 90.000000
_cell_angle_beta 90.000000
_cell_angle_gamma 90.000000
_cell_volume 3033.525253
_symmetry_space_group_name_H-M "C M M M"
_symmetry_group_IT_number 65
_symmetry_cell_setting 'orthorhombic'
loop_
_space_group_symop_operation_xyz
x,y,z
-x,-y,z
x,-y,-z
-x,y,-z
-x,-y,-z
x,y,-z
-x,y,z
x,-y,z
1/2+x,1/2+y,z
1/2-x,1/2-y,z
1/2+x,1/2-y,-z
1/2-x,1/2+y,-z
1/2-x,1/2-y,-z
1/2+x,1/2+y,-z
1/2-x,1/2+y,z
1/2+x,1/2-y,z
loop_
_atom_site_type_symbol
_atom_site_label
_atom_site_fract_x
_atom_site_fract_y
_atom_site_fract_z
Si Si1 0.757957 0.829619 0.278497
Si Si2 0.650200 0.595949 0.714288
Si Si3 0.000000 0.785671 0.721695
Si Si4 0.500000 0.793978 0.721824
Si Si5 0.347382 0.539177 0.000000
O O1 0.759456 0.829577 0.500000
O O2 0.781121 0.869140 0.224369
O O3 0.875282 0.806033 0.220765
O O4 0.626275 0.813441 0.220237
O O5 0.670948 0.591066 0.500000
O O6 0.500000 0.601574 0.740532
O O7 0.688107 0.562304 0.826642
O O8 0.000000 0.785764 0.500000
O O9 0.000000 0.745921 0.779047
O O10 0.500000 0.793877 0.500000
O O11 0.300046 0.500000 0.000000
O O12 0.500000 0.537317 0.000000
#
# Coordination Sequence:
#
# PCOD9494483 Si02
#       5
#    16  16   8   8   8
#     4   9  15  24  38  60  90 125 162 197 236 283
#     4   9  16  28  46  67  94 127 158 191 234 284
#     4   9  14  22  36  57  89 126 161 201 244 280
#     4   9  16  22  34  61  93 122 161 207 240 272
#     4   9  18  30  46  73 100 120 151 192 237 289
#
# _framework density 18.460372
#
# number of rings (size 3 to 8) (size 9 to 14) (size 15 to 20)
#    0.000    3.000    1.429    0.857    0.000    4.000 
#    0.000    2.857    0.000    0.857    0.000    8.000 
#    0.000    5.714    0.000    0.000    0.000    0.000 
#
# Total GULP energy -156243.705939 kJ/mol
# GULP energy per Si atom -5580.132355 kJ/mol
# Density = 1.841836 g / cm^3
# Si number density = 18.460372 Si / 1000 Ang^3
#
#
#
# Elastic Constant Matrix: (Units=GPa)
#
#
# Indices 1 2 3 4 5 6 
#
# 1 117.3796 86.9040 24.4187 0.0000 0.0000 0.0000
# 2 86.9040 226.0815 50.8350 0.0000 0.0000 0.0000
# 3 24.4187 50.8350 71.2194 0.0000 0.0000 0.0000
# 4 0.0000 0.0000 0.0000 52.4566 0.0000 0.0000
# 5 0.0000 0.0000 0.0000 0.0000 -4.7343 0.0000
# 6 0.0000 0.0000 0.0000 0.0000 0.0000 0.6130
#
#
#
# Elastic Compliance Matrix: (Units=1/GPa)
#
#
# Indices 1 2 3 4 5 6 
#
# 1 0.011965 -0.004380 -0.000976 0.000000 0.000000 0.000000
# 2 -0.004380 0.006872 -0.003403 0.000000 0.000000 0.000000
# 3 -0.000976 -0.003403 0.016805 0.000000 0.000000 0.000000
# 4 0.000000 0.000000 0.000000 0.019063 0.000000 0.000000
# 5 0.000000 0.000000 0.000000 0.000000 -0.211226 0.000000
# 6 0.000000 0.000000 0.000000 0.000000 0.000000 1.631226
#
#
# Mechanical properties :
#
#
# Convention : Reuss Voigt Hill
#
# Bulk Modulus (GPa) = 55.17735 82.11066 68.64400
# Shear Modulus (GPa) = 3.33719 26.50193 14.91956
#
# Velocity S-wave (km/s) = 1.34599 3.79306 2.84596
# Velocity P-wave (km/s) = 5.68947 7.98492 6.93286
#
# Compressibility (1/GPa) = 0.01812338
#
# Stress axis : x y z
#
# Youngs Moduli (GPa) = 83.57633 145.51781 59.50568
#
# Poissons Ratio (x) = 0.63734 0.05809
# Poissons Ratio (y) = 0.36605 0.20252
# Poissons Ratio (z) = 0.08159 0.49526
#
# Static dielectric constant tensor:
#      x y z
#    x 1.598180 0.000000 0.000000 
#    y 0.000000 1.605700 0.000000 
#    z 0.000000 0.000000 1.705230 
# 
# From -- ./inp_files/4752.got.cif
#   From: 2010.05.17/outbox.cif.g08.bks.cpg/sg65_3_cif.got.tgz:4752.got - 2010.06.03 17:01:31.
