data_PCOD9494310
_publ_section_title
;
Structure prediction by ZEFSAII (Michael W. Deem and Ramdas Pophale) SiO2 
 PCOD9494310
Probable space group: C M M M
;
_chemical_formula_sum "Si O2"
_cell_formula_units_Z 72
_cell_length_a 7.884957
_cell_length_b 14.713423
_cell_length_c 27.512044
_cell_angle_alpha 90.000000
_cell_angle_beta 90.000000
_cell_angle_gamma 90.000000
_cell_volume 3191.801742
_symmetry_space_group_name_H-M "C M M M"
_symmetry_group_IT_number 65
_symmetry_cell_setting 'orthorhombic'
loop_
_space_group_symop_operation_xyz
x,y,z
-x,-y,z
x,-y,-z
-x,y,-z
-x,-y,-z
x,y,-z
-x,y,z
x,-y,z
1/2+x,1/2+y,z
1/2-x,1/2-y,z
1/2+x,1/2-y,-z
1/2-x,1/2+y,-z
1/2-x,1/2-y,-z
1/2+x,1/2+y,-z
1/2-x,1/2+y,z
1/2+x,1/2-y,z
loop_
_atom_site_type_symbol
_atom_site_label
_atom_site_fract_x
_atom_site_fract_y
_atom_site_fract_z
Si Si1 0.292064 0.000000 0.555477
Si Si2 0.795524 0.644566 0.633082
Si Si3 0.705128 0.642555 0.947661
Si Si4 0.298915 0.356896 0.156615
Si Si5 0.201072 0.356720 0.261392
O O1 0.236146 0.913807 0.587464
O O2 0.500000 0.000000 0.554129
O O3 0.233340 0.000000 0.500000
O O4 0.750000 0.750000 0.628322
O O5 0.732491 0.610455 0.686195
O O6 0.000000 0.636991 0.633969
O O7 0.500000 0.632884 0.947980
O O8 0.750000 0.750000 0.947524
O O9 0.768405 0.607028 0.895312
O O10 0.767107 0.606733 0.000000
O O11 0.500000 0.363112 0.154053
O O12 0.250000 0.250000 0.157817
O O13 0.251512 0.395849 0.209137
O O14 0.250000 0.250000 0.260482
O O15 0.000000 0.364249 0.263024
#
# Coordination Sequence:
#
# PCOD9494310 Si02
#       5
#     8  16  16  16  16
#     4   9  18  34  55  77 101 131 166 199 234 282
#     4   9  18  32  51  74  99 129 163 199 240 285
#     4   8  13  19  25  35  55  86 125 168 212 258
#     4   9  14  19  29  45  66  95 133 175 218 265
#     4   9  15  23  36  55  79 106 139 179 222 268
#
# _framework density 22.557791999999999
#
# number of rings (size 3 to 8) (size 9 to 14) (size 15 to 20)
#    0.000    3.222    0.000    2.667    0.000    2.222 
#    0.000    0.556    0.000    0.667    0.000    0.000 
#    0.000    0.000    0.000    1.000    0.000   24.889 
#
# Total GULP energy -200525.254075 kJ/mol
# GULP energy per Si atom -5570.145947 kJ/mol
# Density = 2.250645 g / cm^3
# Si number density = 22.557792 Si / 1000 Ang^3
#
#
#
# Elastic Constant Matrix: (Units=GPa)
#
#
# Indices 1 2 3 4 5 6 
#
# 1 27.2521 -5.1372 23.4977 0.0000 0.0000 0.0000
# 2 -5.1372 90.7269 69.4909 0.0000 0.0000 0.0000
# 3 23.4977 69.4909 336.4999 0.0000 0.0000 0.0000
# 4 0.0000 0.0000 0.0000 219.5018 0.0000 0.0000
# 5 0.0000 0.0000 0.0000 0.0000 12.8686 0.0000
# 6 0.0000 0.0000 0.0000 0.0000 0.0000 -9.3605
#
#
#
# Elastic Compliance Matrix: (Units=1/GPa)
#
#
# Indices 1 2 3 4 5 6 
#
# 1 0.041144 0.005382 -0.003984 0.000000 0.000000 0.000000
# 2 0.005382 0.013797 -0.003225 0.000000 0.000000 0.000000
# 3 -0.003984 -0.003225 0.003916 0.000000 0.000000 0.000000
# 4 0.000000 0.000000 0.000000 0.004556 0.000000 0.000000
# 5 0.000000 0.000000 0.000000 0.000000 0.077708 0.000000
# 6 0.000000 0.000000 0.000000 0.000000 0.000000 -0.106831
#
#
# Mechanical properties :
#
#
# Convention : Reuss Voigt Hill
#
# Bulk Modulus (GPa) = 18.11542 70.02020 44.06781
# Shear Modulus (GPa) = 88.73663 69.04382 78.89023
#
# Velocity S-wave (km/s) = 6.27876 5.53841 5.92017
# Velocity P-wave (km/s) = 7.78537 8.48566 8.14304
#
# Compressibility (1/GPa) = 0.05520158
#
# Stress axis : x y z
#
# Youngs Moduli (GPa) = 24.30461 72.47973 255.36237
#
# Poissons Ratio (x) = -0.39005 1.01748
# Poissons Ratio (y) = -0.13080 0.82355
# Poissons Ratio (z) = 0.09684 0.23375
#
# Static dielectric constant tensor:
#      x y z
#    x 1.806760 0.000000 0.000000 
#    y 0.000000 1.704040 0.000000 
#    z 0.000000 0.000000 1.927950 
# 
# From -- ./inp_files/76367.got.cif
#   From: 2010.05.17/outbox.cif.g08.bks.cpg/sg65_39_cif.got.tgz:76367.got - 2010.06.03 17:01:31.
