data_PCOD9494793
_publ_section_title
;
Structure prediction by ZEFSAII (Michael W. Deem and Ramdas Pophale) SiO2 
 PCOD9494793
Probable space group: C M M M
;
_chemical_formula_sum "Si O2"
_cell_formula_units_Z 40
_cell_length_a 18.000000
_cell_length_b 9.000000
_cell_length_c 27.000000
_cell_angle_alpha 90.000000
_cell_angle_beta 90.000000
_cell_angle_gamma 90.000000
_cell_volume 4374.000000
_symmetry_space_group_name_H-M "C M M M"
_symmetry_group_IT_number 65
_symmetry_cell_setting 'orthorhombic'
loop_
_space_group_symop_operation_xyz
x,y,z
-x,-y,z
x,-y,-z
-x,y,-z
-x,-y,-z
x,y,-z
-x,y,z
x,-y,z
1/2+x,1/2+y,z
1/2-x,1/2-y,z
1/2+x,1/2-y,-z
1/2-x,1/2+y,-z
1/2-x,1/2-y,-z
1/2+x,1/2+y,-z
1/2-x,1/2+y,z
1/2+x,1/2-y,z
loop_
_atom_site_type_symbol
_atom_site_label
_atom_site_fract_x
_atom_site_fract_y
_atom_site_fract_z
Si Si1 0.911135 0.822859 0.249713
Si Si2 0.910715 0.171629 0.642667
Si Si3 0.669745 0.823927 0.554741
Si Si4 0.830901 0.678982 0.053596
Si Si5 0.086610 0.678184 0.848646
O O1 0.882767 0.774780 0.303534
O O2 0.879567 0.745598 0.201267
O O3 0.000000 0.792135 0.249825
O O4 0.902488 0.000000 0.246393
O O5 0.882249 0.267964 0.597967
O O6 0.000000 0.172530 0.644094
O O7 0.887301 0.000000 0.636081
O O8 0.640944 0.782541 0.500000
O O9 0.750000 0.750000 0.560589
O O10 0.678013 0.000000 0.556697
O O11 0.824866 0.500000 0.056085
O O12 0.750000 0.750000 0.054858
O O13 0.875340 0.730698 0.101257
O O14 0.865540 0.715464 0.000000
O O15 0.091229 0.500000 0.845984
O O16 0.000000 0.718956 0.851220
#
# Coordination Sequence:
#
# PCOD9494793 Si02
#       5
#    16  16  16  16  16
#     4   8  15  29  48  70  97 127 156 189 233 281
#     4   9  18  33  53  76 101 130 164 200 240 288
#     4  10  21  36  53  73  99 131 165 202 245 291
#     4   9  18  32  48  66  91 123 156 191 233 280
#     4   9  17  29  47  71  95 120 154 194 234 277
#
# _framework density 9.1449470000000002
#
# number of rings (size 3 to 8) (size 9 to 14) (size 15 to 20)
#    0.000    3.000    0.000    1.800    0.000    4.000 
#    0.000    7.000    0.000    2.400    0.000    5.600 
#    0.000    0.000    0.000    0.000    0.000    0.000 
#
# Total GULP energy -222670.119662 kJ/mol
# GULP energy per Si atom -5566.752992 kJ/mol
# Density = 0.912413 g / cm^3
# Si number density = 9.144947 Si / 1000 Ang^3
#
#
#
# Elastic Constant Matrix: (Units=GPa)
#
#
# Indices 1 2 3 4 5 6 
#
# 1 6.4061 8.8769 42.0659 0.0000 0.0000 0.0000
# 2 8.8769 4.3745 43.3487 0.0000 0.0000 0.0000
# 3 42.0659 43.3487 178.9521 0.0000 0.0000 0.0000
# 4 0.0000 0.0000 0.0000 30.0652 0.0000 0.0000
# 5 0.0000 0.0000 0.0000 0.0000 29.9810 0.0000
# 6 0.0000 0.0000 0.0000 0.0000 0.0000 20.8938
#
#
#
# Elastic Compliance Matrix: (Units=1/GPa)
#
#
# Indices 1 2 3 4 5 6 
#
# 1 -0.312419 0.066960 0.057219 0.000000 0.000000 0.000000
# 2 0.066960 -0.177588 0.027278 0.000000 0.000000 0.000000
# 3 0.057219 0.027278 -0.014470 0.000000 0.000000 0.000000
# 4 0.000000 0.000000 0.000000 0.033261 0.000000 0.000000
# 5 0.000000 0.000000 0.000000 0.000000 0.033354 0.000000
# 6 0.000000 0.000000 0.000000 0.000000 0.000000 0.047861
#
#
# Mechanical properties :
#
#
# Convention : Reuss Voigt Hill
#
# Bulk Modulus (GPa) = -4.96127 42.03509 18.53691
# Shear Modulus (GPa) = -6.57805 22.55075 7.98635
#
# Velocity S-wave (km/s) = -1.89851 3.51517 2.09189
# Velocity P-wave (km/s) = 2.74304 6.28552 3.99897
#
# Compressibility (1/GPa) = -0.20156132
#
# Stress axis : x y z
#
# Youngs Moduli (GPa) = -3.20083 -5.63102 -69.10804
#
# Poissons Ratio (x) = 0.37706 3.95433
# Poissons Ratio (y) = 0.21433 1.88513
# Poissons Ratio (z) = 0.18315 0.15360
#
# Static dielectric constant tensor:
#      x y z
#    x 1.612850 0.000000 0.000000 
#    y 0.000000 1.611880 0.000000 
#    z 0.000000 0.000000 1.679210 
# 
# From -- ./inp_files/72764.got.cif
#   From: 2010.05.17/outbox.ucp.g08.bks.cvg/sg65_37_cif.got.tgz:72764.got - 2010.06.11 16:39:57.
