data_PCOD9494367
_publ_section_title
;
Structure prediction by ZEFSAII (Michael W. Deem and Ramdas Pophale) SiO2 
 PCOD9494367
Probable space group: C M M M
;
_chemical_formula_sum "Si O2"
_cell_formula_units_Z 80
_cell_length_a 28.557743
_cell_length_b 7.616539
_cell_length_c 19.547552
_cell_angle_alpha 90.000000
_cell_angle_beta 90.000000
_cell_angle_gamma 90.000000
_cell_volume 4251.810775
_symmetry_space_group_name_H-M "C M M M"
_symmetry_group_IT_number 65
_symmetry_cell_setting 'orthorhombic'
loop_
_space_group_symop_operation_xyz
x,y,z
-x,-y,z
x,-y,-z
-x,y,-z
-x,-y,-z
x,y,-z
-x,y,z
x,-y,z
1/2+x,1/2+y,z
1/2-x,1/2-y,z
1/2+x,1/2-y,-z
1/2-x,1/2+y,-z
1/2-x,1/2-y,-z
1/2+x,1/2+y,-z
1/2-x,1/2+y,z
1/2+x,1/2-y,z
loop_
_atom_site_type_symbol
_atom_site_label
_atom_site_fract_x
_atom_site_fract_y
_atom_site_fract_z
Si Si1 0.394548 0.710066 0.713220
Si Si2 0.552973 0.210482 0.576320
Si Si3 0.146196 0.785608 0.076428
Si Si4 0.303336 0.289680 0.212114
Si Si5 0.947529 0.214281 0.847940
O O1 0.393635 0.500000 0.719132
O O2 0.412263 0.748783 0.637708
O O3 0.343018 0.775214 0.735064
O O4 0.430620 0.771068 0.772228
O O5 0.566155 0.273709 0.500000
O O6 0.500000 0.274939 0.591446
O O7 0.550532 0.000000 0.572899
O O8 0.181270 0.726644 0.136408
O O9 0.093804 0.734209 0.100262
O O10 0.147100 0.000000 0.075746
O O11 0.157049 0.724933 0.000000
O O12 0.307237 0.500000 0.210379
O O13 0.250000 0.250000 0.228858
O O14 0.000000 0.274766 0.863401
O O15 0.948381 0.000000 0.848424
#
# Coordination Sequence:
#
# PCOD9494367 Si02
#       5
#    16  16  16  16  16
#     4   9  17  29  45  65  89 116 148 186 222 257
#     4   9  18  31  46  68  98 125 146 171 206 250
#     4   8  14  24  37  56  84 114 143 178 219 261
#     4   9  18  31  46  65  87 112 146 188 230 268
#     4   8  13  21  35  57  84 113 144 177 213 254
#
# _framework density 18.815511999999998
#
# number of rings (size 3 to 8) (size 9 to 14) (size 15 to 20)
#    0.000    3.400    0.000    3.600    0.000    3.200 
#    0.000    3.000    0.000    0.600    0.000    0.000 
#    0.000    0.000    0.000   21.200    0.000   16.000 
#
# Total GULP energy -222867.694457 kJ/mol
# GULP energy per Si atom -5571.692361 kJ/mol
# Density = 1.877269 g / cm^3
# Si number density = 18.815512 Si / 1000 Ang^3
#
#
#
# Elastic Constant Matrix: (Units=GPa)
#
#
# Indices 1 2 3 4 5 6 
#
# 1 100.5332 2.4146 54.4665 0.0000 0.0000 0.0000
# 2 2.4146 34.2187 3.6762 0.0000 0.0000 0.0000
# 3 54.4665 3.6762 135.6735 0.0000 0.0000 0.0000
# 4 0.0000 0.0000 0.0000 81.1917 0.0000 0.0000
# 5 0.0000 0.0000 0.0000 0.0000 13.6997 0.0000
# 6 0.0000 0.0000 0.0000 0.0000 0.0000 9.9972
#
#
#
# Elastic Compliance Matrix: (Units=1/GPa)
#
#
# Indices 1 2 3 4 5 6 
#
# 1 0.012716 -0.000350 -0.005095 0.000000 0.000000 0.000000
# 2 -0.000350 0.029319 -0.000654 0.000000 0.000000 0.000000
# 3 -0.005095 -0.000654 0.009434 0.000000 0.000000 0.000000
# 4 0.000000 0.000000 0.000000 0.012317 0.000000 0.000000
# 5 0.000000 0.000000 0.000000 0.000000 0.072995 0.000000
# 6 0.000000 0.000000 0.000000 0.000000 0.000000 0.100028
#
#
# Mechanical properties :
#
#
# Convention : Reuss Voigt Hill
#
# Bulk Modulus (GPa) = 25.46462 43.50442 34.48452
# Shear Modulus (GPa) = 19.07699 34.96892 27.02295
#
# Velocity S-wave (km/s) = 3.18763 4.31573 3.79384
# Velocity P-wave (km/s) = 5.20684 6.92862 6.12850
#
# Compressibility (1/GPa) = 0.03927017
#
# Stress axis : x y z
#
# Youngs Moduli (GPa) = 78.64168 34.10790 106.00071
#
# Poissons Ratio (x) = 0.01193 0.54011
# Poissons Ratio (y) = 0.02751 0.06932
# Poissons Ratio (z) = 0.40071 0.02230
#
# Static dielectric constant tensor:
#      x y z
#    x 1.653260 0.000000 0.000000 
#    y 0.000000 1.728770 0.000000 
#    z 0.000000 0.000000 1.654040 
# 
# From -- ./inp_files/49858.got.cif
#   From: 2010.05.17/outbox.cif.g08.bks.cpg/sg65_25_cif.got.tgz:49858.got - 2010.06.03 17:01:31.
