data_PCOD9494486
_publ_section_title
;
Structure prediction by ZEFSAII (Michael W. Deem and Ramdas Pophale) SiO2 
 PCOD9494486
Probable space group: C M M M
;
_chemical_formula_sum "Si O2"
_cell_formula_units_Z 104
_cell_length_a 20.862054
_cell_length_b 34.108972
_cell_length_c 7.492386
_cell_angle_alpha 90.000000
_cell_angle_beta 90.000000
_cell_angle_gamma 90.000000
_cell_volume 5331.456124
_symmetry_space_group_name_H-M "C M M M"
_symmetry_group_IT_number 65
_symmetry_cell_setting 'orthorhombic'
loop_
_space_group_symop_operation_xyz
x,y,z
-x,-y,z
x,-y,-z
-x,y,-z
-x,-y,-z
x,y,-z
-x,y,z
x,-y,z
1/2+x,1/2+y,z
1/2-x,1/2-y,z
1/2+x,1/2-y,-z
1/2-x,1/2+y,-z
1/2-x,1/2-y,-z
1/2+x,1/2+y,-z
1/2-x,1/2+y,z
1/2+x,1/2-y,z
loop_
_atom_site_type_symbol
_atom_site_label
_atom_site_fract_x
_atom_site_fract_y
_atom_site_fract_z
Si Si1 0.072848 0.500000 0.218859
Si Si2 0.829043 0.435282 0.212418
Si Si3 0.797280 0.350188 0.713817
Si Si4 0.313652 0.456794 0.214350
Si Si5 0.072932 0.798649 0.281506
Si Si6 0.678942 0.235829 0.282290
Si Si7 0.345454 0.371256 0.712734
O O1 0.113701 0.537662 0.277971
O O2 0.000000 0.500000 0.279984
O O3 0.071296 0.500000 0.000000
O O4 0.836480 0.389323 0.246209
O O5 0.759014 0.448564 0.281945
O O6 0.825993 0.441165 0.000000
O O7 0.792215 0.346999 0.500000
O O8 0.826262 0.309247 0.777175
O O9 0.724814 0.358082 0.782692
O O10 0.334890 0.500000 0.277140
O O11 0.353455 0.417572 0.255364
O O12 0.310799 0.458461 0.000000
O O13 0.072421 0.798166 0.500000
O O14 0.123052 0.765144 0.223525
O O15 0.101146 0.840821 0.223603
O O16 0.000000 0.792511 0.223012
O O17 0.677634 0.236779 0.500000
O O18 0.750000 0.250000 0.229834
O O19 0.342788 0.366448 0.500000
#
# Coordination Sequence:
#
# PCOD9494486 Si02
#       7
#     8  16  16  16  16  16  16
#     4   9  16  28  47  65  81 113 158 187 208 256
#     4   9  16  28  44  63  87 112 142 183 223 256
#     4   9  16  26  43  66  89 113 143 180 221 262
#     4   9  16  27  44  65  89 113 140 179 223 263
#     4   9  16  26  42  65  90 116 148 184 220 259
#     4   9  14  24  42  62  86 116 148 180 214 258
#     4   9  16  26  42  66  91 113 142 181 221 258
#
# _framework density 19.506868000000001
#
# number of rings (size 3 to 8) (size 9 to 14) (size 15 to 20)
#    0.000    3.000    2.308    0.000    0.000    0.308 
#    0.000    1.154    0.000    4.154    0.000    3.231 
#    0.000    0.000    0.000    0.000    0.000    0.000 
#
# Total GULP energy -289861.493237 kJ/mol
# GULP energy per Si atom -5574.259485 kJ/mol
# Density = 1.946247 g / cm^3
# Si number density = 19.506868 Si / 1000 Ang^3
#
#
#
# Elastic Constant Matrix: (Units=GPa)
#
#
# Indices 1 2 3 4 5 6 
#
# 1 121.0420 96.4846 4.1719 0.0000 0.0000 0.0000
# 2 96.4846 204.6442 -1.8659 0.0000 0.0000 0.0000
# 3 4.1719 -1.8659 50.2765 0.0000 0.0000 0.0000
# 4 0.0000 0.0000 0.0000 21.0364 0.0000 0.0000
# 5 0.0000 0.0000 0.0000 0.0000 2.2799 0.0000
# 6 0.0000 0.0000 0.0000 0.0000 0.0000 24.3359
#
#
#
# Elastic Compliance Matrix: (Units=1/GPa)
#
#
# Indices 1 2 3 4 5 6 
#
# 1 0.013325 -0.006295 -0.001339 0.000000 0.000000 0.000000
# 2 -0.006295 0.007862 0.000814 0.000000 0.000000 0.000000
# 3 -0.001339 0.000814 0.020031 0.000000 0.000000 0.000000
# 4 0.000000 0.000000 0.000000 0.047537 0.000000 0.000000
# 5 0.000000 0.000000 0.000000 0.000000 0.438622 0.000000
# 6 0.000000 0.000000 0.000000 0.000000 0.000000 0.041092
#
#
# Mechanical properties :
#
#
# Convention : Reuss Voigt Hill
#
# Bulk Modulus (GPa) = 36.26017 63.72712 49.99364
# Shear Modulus (GPa) = 8.45592 28.00858 18.23225
#
# Velocity S-wave (km/s) = 2.08429 3.79335 3.06053
# Velocity P-wave (km/s) = 4.94177 7.20597 6.17847
#
# Compressibility (1/GPa) = 0.02757847
#
# Stress axis : x y z
#
# Youngs Moduli (GPa) = 75.04421 127.19714 49.92175
#
# Poissons Ratio (x) = 0.80069 0.06686
# Poissons Ratio (y) = 0.47239 -0.04064
# Poissons Ratio (z) = 0.10051 -0.10355
#
# Static dielectric constant tensor:
#      x y z
#    x 1.647270 0.000000 0.000000 
#    y 0.000000 1.707200 0.000000 
#    z 0.000000 0.000000 1.749330 
# 
# From -- ./inp_files/29727.got.cif
#   From: 2010.05.17/outbox.cif.g08.bks.cpg/sg65_15_cif.got.tgz:29727.got - 2010.06.03 17:01:31.
