data_PCOD9494308
_publ_section_title
;
Structure prediction by ZEFSAII (Michael W. Deem and Ramdas Pophale) SiO2 
 PCOD9494308
Probable space group: C M M M
;
_chemical_formula_sum "Si O2"
_cell_formula_units_Z 96
_cell_length_a 10.156085
_cell_length_b 14.210514
_cell_length_c 31.497178
_cell_angle_alpha 90.000000
_cell_angle_beta 90.000000
_cell_angle_gamma 90.000000
_cell_volume 4545.773144
_symmetry_space_group_name_H-M "C M M M"
_symmetry_group_IT_number 65
_symmetry_cell_setting 'orthorhombic'
loop_
_space_group_symop_operation_xyz
x,y,z
-x,-y,z
x,-y,-z
-x,y,-z
-x,-y,-z
x,y,-z
-x,y,z
x,-y,z
1/2+x,1/2+y,z
1/2-x,1/2-y,z
1/2+x,1/2-y,-z
1/2-x,1/2+y,-z
1/2-x,1/2-y,-z
1/2+x,1/2+y,-z
1/2-x,1/2+y,z
1/2+x,1/2-y,z
loop_
_atom_site_type_symbol
_atom_site_label
_atom_site_fract_x
_atom_site_fract_y
_atom_site_fract_z
Si Si1 0.652947 0.337777 0.545948
Si Si2 0.853948 0.891160 0.640772
Si Si3 0.150887 0.385342 0.952332
Si Si4 0.350750 0.385325 0.879797
Si Si5 0.350057 0.885094 0.290389
Si Si6 0.649776 0.385424 0.782978
O O1 0.672575 0.386851 0.500000
O O2 0.500000 0.307524 0.546516
O O3 0.750000 0.250000 0.546594
O O4 0.673047 0.389540 0.590427
O O5 0.732243 0.854526 0.668135
O O6 0.000000 0.848397 0.648204
O O7 0.865034 0.000000 0.653816
O O8 0.150505 0.500000 0.951915
O O9 0.247352 0.354890 0.915066
O O10 0.000000 0.355418 0.945547
O O11 0.192172 0.357450 0.000000
O O12 0.500000 0.356159 0.890015
O O13 0.349719 0.500000 0.879677
O O14 0.321243 0.356430 0.831407
O O15 0.500000 0.850907 0.289250
O O16 0.261536 0.857150 0.250092
O O17 0.357062 0.000000 0.290350
O O18 0.500000 0.355629 0.771795
O O19 0.647774 0.500000 0.782481
#
# Coordination Sequence:
#
# PCOD9494308 Si02
#       6
#    16  16  16  16  16  16
#     4   9  18  32  49  68  89 114 143 173 206 244
#     4   9  17  29  45  64  86 112 140 170 205 244
#     4   8  13  19  24  30  42  61  86 120 165 214
#     4   8  13  19  26  36  48  65  93 128 166 211
#     4   9  16  24  35  53  75  97 122 153 190 232
#     4   8  13  21  31  42  59  83 109 138 176 224
#
# _framework density 21.118521000000001
#
# number of rings (size 3 to 8) (size 9 to 14) (size 15 to 20)
#    0.000    3.500    0.000    2.000    0.000    4.000 
#    0.000    6.667    0.000    0.000    0.000    4.667 
#    0.000    0.000    0.000    0.000    0.000    0.000 
#
# Total GULP energy -267599.356777 kJ/mol
# GULP energy per Si atom -5574.986600 kJ/mol
# Density = 2.107045 g / cm^3
# Si number density = 21.118521 Si / 1000 Ang^3
#
#
#
# Elastic Constant Matrix: (Units=GPa)
#
#
# Indices 1 2 3 4 5 6 
#
# 1 173.2769 17.3445 144.1872 0.0000 0.0000 0.0000
# 2 17.3445 58.0265 4.5203 0.0000 0.0000 0.0000
# 3 144.1872 4.5203 181.9246 0.0000 0.0000 0.0000
# 4 0.0000 0.0000 0.0000 -112.4822 0.0000 0.0000
# 5 0.0000 0.0000 0.0000 0.0000 55.8360 0.0000
# 6 0.0000 0.0000 0.0000 0.0000 0.0000 -1.3037
#
#
#
# Elastic Compliance Matrix: (Units=1/GPa)
#
#
# Indices 1 2 3 4 5 6 
#
# 1 0.017944 -0.004264 -0.014116 0.000000 0.000000 0.000000
# 2 -0.004264 0.018280 0.002925 0.000000 0.000000 0.000000
# 3 -0.014116 0.002925 0.016612 0.000000 0.000000 0.000000
# 4 0.000000 0.000000 0.000000 -0.008890 0.000000 0.000000
# 5 0.000000 0.000000 0.000000 0.000000 0.017910 0.000000
# 6 0.000000 0.000000 0.000000 0.000000 0.000000 -0.767034
#
#
# Mechanical properties :
#
#
# Convention : Reuss Voigt Hill
#
# Bulk Modulus (GPa) = 45.60609 82.81466 64.21037
# Shear Modulus (GPa) = -7.49670 4.88843 -1.30413
#
# Velocity S-wave (km/s) = -1.88614 1.52308 -0.78668
# Velocity P-wave (km/s) = 4.11082 6.51095 5.44478
#
# Compressibility (1/GPa) = 0.02192690
#
# Stress axis : x y z
#
# Youngs Moduli (GPa) = 55.72898 54.70411 60.19810
#
# Poissons Ratio (x) = 0.23326 0.84975
# Poissons Ratio (y) = 0.23763 -0.17609
# Poissons Ratio (z) = 0.78666 -0.16002
#
# Static dielectric constant tensor:
#      x y z
#    x 1.735720 0.000000 0.000000 
#    y 0.000000 1.857460 0.000000 
#    z 0.000000 0.000000 1.764150 
# 
# From -- ./inp_files/73446.got.cif
#   From: 2010.05.17/outbox.cif.g08.bks.cpg/sg65_37_cif.got.tgz:73446.got - 2010.06.03 17:01:31.
