data_PCOD9494491
_publ_section_title
;
Structure prediction by ZEFSAII (Michael W. Deem and Ramdas Pophale) SiO2 
 PCOD9494491
Probable space group: C M M M
;
_chemical_formula_sum "Si O2"
_cell_formula_units_Z 72
_cell_length_a 14.639856
_cell_length_b 8.049759
_cell_length_c 26.751455
_cell_angle_alpha 90.000000
_cell_angle_beta 90.000000
_cell_angle_gamma 90.000000
_cell_volume 3152.587080
_symmetry_space_group_name_H-M "C M M M"
_symmetry_group_IT_number 65
_symmetry_cell_setting 'orthorhombic'
loop_
_space_group_symop_operation_xyz
x,y,z
-x,-y,z
x,-y,-z
-x,y,-z
-x,-y,-z
x,y,-z
-x,y,z
x,-y,z
1/2+x,1/2+y,z
1/2-x,1/2-y,z
1/2+x,1/2-y,-z
1/2-x,1/2+y,-z
1/2-x,1/2-y,-z
1/2+x,1/2+y,-z
1/2-x,1/2+y,z
1/2+x,1/2-y,z
loop_
_atom_site_type_symbol
_atom_site_label
_atom_site_fract_x
_atom_site_fract_y
_atom_site_fract_z
Si Si1 0.393925 0.688587 0.620462
Si Si2 0.355834 0.699684 0.732159
Si Si3 0.643163 0.697900 0.160537
Si Si4 0.112261 0.500000 0.442028
Si Si5 0.356821 0.802088 0.946332
O O1 0.500000 0.672889 0.606270
O O2 0.354655 0.500000 0.617822
O O3 0.392325 0.750024 0.678138
O O4 0.354625 0.833412 0.585914
O O5 0.365969 0.500000 0.732897
O O6 0.250000 0.750000 0.731690
O O7 0.393334 0.761457 0.785816
O O8 0.638363 0.500000 0.161681
O O9 0.750000 0.750000 0.159854
O O10 0.603699 0.749719 0.107079
O O11 0.137687 0.500000 0.500000
O O12 0.000000 0.500000 0.439276
O O13 0.250000 0.750000 0.945702
O O14 0.361918 0.000000 0.947305
O O15 0.393464 0.738994 0.000000
#
# Coordination Sequence:
#
# PCOD9494491 Si02
#       5
#    16  16  16   8  16
#     4   9  18  33  51  73 100 126 155 193 232 273
#     4   9  18  29  44  68  91 122 156 187 231 277
#     4   9  15  23  34  51  77 103 140 181 216 266
#     4   9  18  32  52  78 100 122 156 192 230 274
#     4   9  15  21  29  43  66  99 137 175 217 263
#
# _framework density 22.838386
#
# number of rings (size 3 to 8) (size 9 to 14) (size 15 to 20)
#    0.000    3.000    0.000    2.667    1.556    2.667 
#    0.000    2.222    0.000    0.667    0.000    0.000 
#    0.000    0.889    0.000   11.111    0.000    6.000 
#
# Total GULP energy -200578.918453 kJ/mol
# GULP energy per Si atom -5571.636624 kJ/mol
# Density = 2.278640 g / cm^3
# Si number density = 22.838386 Si / 1000 Ang^3
#
#
#
# Elastic Constant Matrix: (Units=GPa)
#
#
# Indices 1 2 3 4 5 6 
#
# 1 62.6772 3.6059 8.1307 0.0000 0.0000 0.0000
# 2 3.6059 80.2986 99.4191 0.0000 0.0000 0.0000
# 3 8.1307 99.4191 253.6318 0.0000 0.0000 0.0000
# 4 0.0000 0.0000 0.0000 38.4544 0.0000 0.0000
# 5 0.0000 0.0000 0.0000 0.0000 18.8291 0.0000
# 6 0.0000 0.0000 0.0000 0.0000 0.0000 -2.6844
#
#
#
# Elastic Compliance Matrix: (Units=1/GPa)
#
#
# Indices 1 2 3 4 5 6 
#
# 1 0.016022 -0.000162 -0.000450 0.000000 0.000000 0.000000
# 2 -0.000162 0.024198 -0.009480 0.000000 0.000000 0.000000
# 3 -0.000450 -0.009480 0.007673 0.000000 0.000000 0.000000
# 4 0.000000 0.000000 0.000000 0.026005 0.000000 0.000000
# 5 0.000000 0.000000 0.000000 0.000000 0.053109 0.000000
# 6 0.000000 0.000000 0.000000 0.000000 0.000000 -0.372520
#
#
# Mechanical properties :
#
#
# Convention : Reuss Voigt Hill
#
# Bulk Modulus (GPa) = 36.08929 68.76877 52.42903
# Shear Modulus (GPa) = -23.13848 29.94994 3.40573
#
# Velocity S-wave (km/s) = -3.18644 3.62524 1.22248
# Velocity P-wave (km/s) = 1.51607 6.90648 4.99990
#
# Compressibility (1/GPa) = 0.02770905
#
# Stress axis : x y z
#
# Youngs Moduli (GPa) = 62.41231 41.32528 130.32422
#
# Poissons Ratio (x) = 0.00671 0.05864
# Poissons Ratio (y) = 0.01013 1.23548
# Poissons Ratio (z) = 0.02809 0.39177
#
# Static dielectric constant tensor:
#      x y z
#    x 1.873950 0.000000 0.000000 
#    y 0.000000 1.821650 0.000000 
#    z 0.000000 0.000000 1.913690 
# 
# From -- ./inp_files/71318.got.cif
#   From: 2010.05.17/outbox.cif.g08.bks.cpg/sg65_36_cif.got.tgz:71318.got - 2010.06.03 17:01:31.
