data_PCOD9494962
_publ_section_title
;
Structure prediction by ZEFSAII (Michael W. Deem and Ramdas Pophale) SiO2 
 PCOD9494962
Probable space group: C C C M
;
_chemical_formula_sum "Si O2"
_cell_formula_units_Z 104
_cell_length_a 20.563888
_cell_length_b 14.906984
_cell_length_c 19.124506
_cell_angle_alpha 90.000000
_cell_angle_beta 90.000000
_cell_angle_gamma 90.000000
_cell_volume 5862.532199
_symmetry_space_group_name_H-M "C C C M"
_symmetry_group_IT_number 66
_symmetry_cell_setting 'orthorhombic'
loop_
_space_group_symop_operation_xyz
x,y,z
-x,-y,z
x,-y,1/2-z
-x,y,1/2-z
-x,-y,-z
x,y,-z
-x,y,1/2+z
x,-y,1/2+z
1/2+x,1/2+y,z
1/2-x,1/2-y,z
1/2+x,1/2-y,1/2-z
1/2-x,1/2+y,1/2-z
1/2-x,1/2-y,-z
1/2+x,1/2+y,-z
1/2-x,1/2+y,1/2+z
1/2+x,1/2-y,1/2+z
loop_
_atom_site_type_symbol
_atom_site_label
_atom_site_fract_x
_atom_site_fract_y
_atom_site_fract_z
Si Si1 0.313087 0.102594 0.270206
Si Si2 0.116717 0.838606 0.644735
Si Si3 0.781860 0.162566 0.116100
Si Si4 0.602227 0.744836 0.705965
Si Si5 0.750000 0.250000 0.331373
Si Si6 0.112556 0.022424 0.577297
Si Si7 0.482123 0.316298 0.579772
O O1 0.274692 0.111069 0.343170
O O2 0.382083 0.152597 0.276004
O O3 0.274019 0.165288 0.215105
O O4 0.316800 0.000000 0.250000
O O5 0.092590 0.810721 0.722688
O O6 0.184883 0.787428 0.631436
O O7 0.058658 0.813716 0.592406
O O8 0.123987 0.945626 0.634312
O O9 0.750000 0.250000 0.080097
O O10 0.830995 0.205097 0.173431
O O11 0.827669 0.092674 0.077108
O O12 0.550974 0.736529 0.643726
O O13 0.107537 0.981087 0.500000
O O14 0.048751 0.083810 0.588686
O O15 0.465337 0.288796 0.500000
#
# Coordination Sequence:
#
# PCOD9494962 Si02
#       7
#    16  16  16  16   8  16  16
#     4  10  16  30  54  81 114 141 173 232 283 316
#     4  11  19  34  55  78 109 142 183 230 276 332
#     4   9  16  29  47  73 108 140 175 219 274 325
#     4   9  19  33  51  81 106 140 184 222 274 335
#     4  10  20  34  53  86 111 138 184 228 280 328
#     4  10  21  33  49  76 111 149 186 225 275 336
#     4  10  21  36  54  76 112 147 179 229 287 337
#
# _framework density 17.739774000000001
#
# number of rings (size 3 to 8) (size 9 to 14) (size 15 to 20)
#    0.000    2.154    3.846    2.308    0.000    3.385 
#    0.000    6.923    0.000    7.385    0.000    6.462 
#    0.000    0.000    0.000    0.000    0.000    0.000 
#
# Total GULP energy -289474.001616 kJ/mol
# GULP energy per Si atom -5566.807723 kJ/mol
# Density = 1.769940 g / cm^3
# Si number density = 17.739774 Si / 1000 Ang^3
#
#
#
# Elastic Constant Matrix: (Units=GPa)
#
#
# Indices 1 2 3 4 5 6 
#
# 1 98.1796 43.1232 37.1160 0.0000 0.0000 0.0000
# 2 43.1232 121.0459 48.3444 0.0000 0.0000 0.0000
# 3 37.1160 48.3444 77.2019 0.0000 0.0000 0.0000
# 4 0.0000 0.0000 0.0000 16.9385 0.0000 0.0000
# 5 0.0000 0.0000 0.0000 0.0000 5.7984 0.0000
# 6 0.0000 0.0000 0.0000 0.0000 0.0000 24.6838
#
#
#
# Elastic Compliance Matrix: (Units=1/GPa)
#
#
# Indices 1 2 3 4 5 6 
#
# 1 0.013161 -0.002883 -0.004522 0.000000 0.000000 0.000000
# 2 -0.002883 0.011648 -0.005908 0.000000 0.000000 0.000000
# 3 -0.004522 -0.005908 0.018827 0.000000 0.000000 0.000000
# 4 0.000000 0.000000 0.000000 0.059037 0.000000 0.000000
# 5 0.000000 0.000000 0.000000 0.000000 0.172461 0.000000
# 6 0.000000 0.000000 0.000000 0.000000 0.000000 0.040512
#
#
# Mechanical properties :
#
#
# Convention : Reuss Voigt Hill
#
# Bulk Modulus (GPa) = 58.78931 61.51049 60.14990
# Shear Modulus (GPa) = 14.37018 20.67374 17.52196
#
# Velocity S-wave (km/s) = 2.84923 3.41748 3.14621
# Velocity P-wave (km/s) = 6.63596 7.09375 6.86867
#
# Compressibility (1/GPa) = 0.01700989
#
# Stress axis : x y z
#
# Youngs Moduli (GPa) = 75.98118 85.85229 53.11528
#
# Poissons Ratio (x) = 0.24747 0.24021
# Poissons Ratio (y) = 0.21902 0.31381
# Poissons Ratio (z) = 0.34361 0.50723
#
# Static dielectric constant tensor:
#      x y z
#    x 1.648810 0.000000 0.000000 
#    y 0.000000 1.614190 0.000000 
#    z 0.000000 0.000000 1.624140 
# 
# From -- ./inp_files/40590.got.cif
#   From: 2010.05.17/outbox.cif.g08.bks.cpg/sg66_21_cif.got.tgz:40590.got - 2010.06.03 17:51:23.
