data_PCOD9494982
_publ_section_title
;
Structure prediction by ZEFSAII (Michael W. Deem and Ramdas Pophale) SiO2 
 PCOD9494982
Probable space group: C C C M
;
_chemical_formula_sum "Si O2"
_cell_formula_units_Z 56
_cell_length_a 8.323774
_cell_length_b 18.304146
_cell_length_c 15.855736
_cell_angle_alpha 90.000000
_cell_angle_beta 90.000000
_cell_angle_gamma 90.000000
_cell_volume 2415.773191
_symmetry_space_group_name_H-M "C C C M"
_symmetry_group_IT_number 66
_symmetry_cell_setting 'orthorhombic'
loop_
_space_group_symop_operation_xyz
x,y,z
-x,-y,z
x,-y,1/2-z
-x,y,1/2-z
-x,-y,-z
x,y,-z
-x,y,1/2+z
x,-y,1/2+z
1/2+x,1/2+y,z
1/2-x,1/2-y,z
1/2+x,1/2-y,1/2-z
1/2-x,1/2+y,1/2-z
1/2-x,1/2-y,-z
1/2+x,1/2+y,-z
1/2-x,1/2+y,1/2+z
1/2+x,1/2-y,1/2+z
loop_
_atom_site_type_symbol
_atom_site_label
_atom_site_fract_x
_atom_site_fract_y
_atom_site_fract_z
Si Si1 0.581231 0.146787 0.000000
Si Si2 0.619800 0.938308 0.140674
Si Si3 0.079482 0.793692 0.500000
Si Si4 0.850900 0.174870 0.687163
Si Si5 0.817165 0.977833 0.500000
O O1 0.482006 0.117080 0.081134
O O2 0.561217 0.233428 0.000000
O O3 0.753250 0.106057 0.000000
O O4 0.725693 0.890637 0.203726
O O5 0.500000 0.000000 0.170183
O O6 0.737534 0.983311 0.079999
O O7 0.250000 0.750000 0.500000
O O8 0.086535 0.833718 0.590188
O O9 0.750000 0.250000 0.693160
O O10 0.000000 0.175273 0.750000
O O11 0.000000 0.000000 0.500000
#
# Coordination Sequence:
#
# PCOD9494982 Si02
#       5
#     8  16   8  16   8
#     4   9  14  31  62  94 124 177 236 269 360 435
#     4   9  17  34  63  94 124 181 235 280 348 439
#     4  10  16  34  66  94 138 190 236 289 357 447
#     4  11  22  40  66 102 142 184 237 302 364 437
#     4   9  18  31  56  99 132 168 231 303 344 420
#
# _framework density 23.180985
#
# number of rings (size 3 to 8) (size 9 to 14) (size 15 to 20)
#    0.000    2.286    5.714    2.571    0.000    0.000 
#    5.143    0.714    0.000    5.143    0.000    1.000 
#    0.000    0.000    0.000    0.000    0.000    0.000 
#
# Total GULP energy -156536.195178 kJ/mol
# GULP energy per Si atom -5590.578399 kJ/mol
# Density = 2.312822 g / cm^3
# Si number density = 23.180985 Si / 1000 Ang^3
#
#
#
# Elastic Constant Matrix: (Units=GPa)
#
#
# Indices 1 2 3 4 5 6 
#
# 1 182.4779 71.5911 63.8445 0.0000 0.0000 0.0000
# 2 71.5911 147.0631 24.6996 0.0000 0.0000 0.0000
# 3 63.8445 24.6996 114.3110 0.0000 0.0000 0.0000
# 4 0.0000 0.0000 0.0000 -12.3124 0.0000 0.0000
# 5 0.0000 0.0000 0.0000 0.0000 28.1614 0.0000
# 6 0.0000 0.0000 0.0000 0.0000 0.0000 53.8001
#
#
#
# Elastic Compliance Matrix: (Units=1/GPa)
#
#
# Indices 1 2 3 4 5 6 
#
# 1 0.008114 -0.003309 -0.003817 0.000000 0.000000 0.000000
# 2 -0.003309 0.008405 0.000032 0.000000 0.000000 0.000000
# 3 -0.003817 0.000032 0.010873 0.000000 0.000000 0.000000
# 4 0.000000 0.000000 0.000000 -0.081219 0.000000 0.000000
# 5 0.000000 0.000000 0.000000 0.000000 0.035510 0.000000
# 6 0.000000 0.000000 0.000000 0.000000 0.000000 0.018587
#
#
# Mechanical properties :
#
#
# Convention : Reuss Voigt Hill
#
# Bulk Modulus (GPa) = 75.73152 84.90249 80.31701
# Shear Modulus (GPa) = 265.13993 32.84429 148.99211
#
# Velocity S-wave (km/s) = 10.70638 3.76821 8.02577
# Velocity P-wave (km/s) = 13.62263 7.45909 10.98212
#
# Compressibility (1/GPa) = 0.01320454
#
# Stress axis : x y z
#
# Youngs Moduli (GPa) = 123.25053 118.97465 91.97238
#
# Poissons Ratio (x) = 0.39365 0.35102
# Poissons Ratio (y) = 0.40780 -0.00293
# Poissons Ratio (z) = 0.47040 -0.00379
#
# Static dielectric constant tensor:
#      x y z
#    x 1.877030 0.000000 0.000000 
#    y 0.000000 1.832690 0.000000 
#    z 0.000000 0.000000 1.888660 
# 
# From -- ./inp_files/36095.got.cif
#   From: 2010.05.17/outbox.cif.g08.bks.cpg/sg66_19_cif.got.tgz:36095.got - 2010.06.03 17:51:23.
