data_PCOD9494088
_publ_section_title
;
Structure prediction by ZEFSAII (Michael W. Deem and Ramdas Pophale) SiO2 
 PCOD9494088
Probable space group: C M M M
;
_chemical_formula_sum "Si O2"
_cell_formula_units_Z 68
_cell_length_a 17.851289
_cell_length_b 7.816381
_cell_length_c 22.752548
_cell_angle_alpha 90.000000
_cell_angle_beta 90.000000
_cell_angle_gamma 90.000000
_cell_volume 3174.719362
_symmetry_space_group_name_H-M "C M M M"
_symmetry_group_IT_number 65
_symmetry_cell_setting 'orthorhombic'
loop_
_space_group_symop_operation_xyz
x,y,z
-x,-y,z
x,-y,-z
-x,y,-z
-x,-y,-z
x,y,-z
-x,y,z
x,-y,z
1/2+x,1/2+y,z
1/2-x,1/2-y,z
1/2+x,1/2-y,-z
1/2-x,1/2+y,-z
1/2-x,1/2-y,-z
1/2+x,1/2+y,-z
1/2-x,1/2+y,z
1/2+x,1/2-y,z
loop_
_atom_site_type_symbol
_atom_site_label
_atom_site_fract_x
_atom_site_fract_y
_atom_site_fract_z
Si Si1 0.584558 0.198807 0.300203
Si Si2 0.086974 0.706715 0.934597
Si Si3 0.836090 0.802023 0.814677
Si Si4 0.837089 0.801628 0.585847
Si Si5 0.385403 0.000000 0.500000
O O1 0.500000 0.267508 0.304307
O O2 0.613936 0.208899 0.233814
O O3 0.638883 0.290283 0.346206
O O4 0.583494 0.000000 0.316685
O O5 0.088852 0.500000 0.933817
O O6 0.135467 0.770327 0.880569
O O7 0.000000 0.758383 0.926953
O O8 0.111391 0.762636 0.000000
O O9 0.750000 0.750000 0.809471
O O10 0.843274 0.000000 0.800769
O O11 0.750000 0.750000 0.577992
O O12 0.881582 0.654618 0.550464
O O13 0.846983 0.000000 0.566905
#
# Coordination Sequence:
#
# PCOD9494088 Si02
#       5
#    16  16  16  16   4
#     4  11  24  45  68  93 128 168 212 264 325 385
#     4   9  19  38  63  91 125 167 211 256 315 384
#     4  12  25  40  62  91 126 165 214 267 321 380
#     4  12  24  41  69 100 134 171 218 267 316 385
#     4  12  24  44  67 104 133 174 218 258 328 378
#
# _framework density 21.419215999999999
#
# number of rings (size 3 to 8) (size 9 to 14) (size 15 to 20)
#    0.000    0.941    2.353    5.647    0.000    6.118 
#    0.000    2.353    0.000    1.412    0.000    0.000 
#    0.000    0.000    0.000    0.000    0.000    0.000 
#
# Total GULP energy -189554.069198 kJ/mol
# GULP energy per Si atom -5575.119682 kJ/mol
# Density = 2.137046 g / cm^3
# Si number density = 21.419216 Si / 1000 Ang^3
#
#
#
# Elastic Constant Matrix: (Units=GPa)
#
#
# Indices 1 2 3 4 5 6 
#
# 1 32.0842 11.8852 16.2785 0.0000 0.0000 0.0000
# 2 11.8852 134.3248 19.6073 0.0000 0.0000 0.0000
# 3 16.2785 19.6073 115.7156 0.0000 0.0000 0.0000
# 4 0.0000 0.0000 0.0000 15.6787 0.0000 0.0000
# 5 0.0000 0.0000 0.0000 0.0000 371.2281 0.0000
# 6 0.0000 0.0000 0.0000 0.0000 0.0000 8.8438
#
#
#
# Elastic Compliance Matrix: (Units=1/GPa)
#
#
# Indices 1 2 3 4 5 6 
#
# 1 0.034296 -0.002389 -0.004420 0.000000 0.000000 0.000000
# 2 -0.002389 0.007800 -0.000986 0.000000 0.000000 0.000000
# 3 -0.004420 -0.000986 0.009431 0.000000 0.000000 0.000000
# 4 0.000000 0.000000 0.000000 0.063781 0.000000 0.000000
# 5 0.000000 0.000000 0.000000 0.000000 0.002694 0.000000
# 6 0.000000 0.000000 0.000000 0.000000 0.000000 0.113074
#
#
# Mechanical properties :
#
#
# Convention : Reuss Voigt Hill
#
# Bulk Modulus (GPa) = 27.82656 41.96293 34.89474
# Shear Modulus (GPa) = 19.33168 94.77368 57.05268
#
# Velocity S-wave (km/s) = 3.00749 6.65906 5.16663
# Velocity P-wave (km/s) = 5.00795 8.87457 7.20547
#
# Compressibility (1/GPa) = 0.03593690
#
# Stress axis : x y z
#
# Youngs Moduli (GPa) = 29.15830 128.20659 106.03760
#
# Poissons Ratio (x) = 0.30633 0.46866
# Poissons Ratio (y) = 0.06967 0.10450
# Poissons Ratio (z) = 0.12887 0.12635
#
# Static dielectric constant tensor:
#      x y z
#    x 1.748820 0.000000 0.000000 
#    y 0.000000 1.796800 0.000000 
#    z 0.000000 0.000000 1.774960 
# 
# From -- ./inp_files/63359.got.cif
#   From: 2010.05.17/outbox.cif.g08.bks.cpg/sg65_32_cif.got.tgz:63359.got - 2010.06.03 17:01:31.
