data_PCOD9494847
_publ_section_title
;
Structure prediction by ZEFSAII (Michael W. Deem and Ramdas Pophale) SiO2 
 PCOD9494847
Probable space group: C M M M
;
_chemical_formula_sum "Si O2"
_cell_formula_units_Z 48
_cell_length_a 24.000000
_cell_length_b 18.000000
_cell_length_c 12.000000
_cell_angle_alpha 90.000000
_cell_angle_beta 90.000000
_cell_angle_gamma 90.000000
_cell_volume 5184.000000
_symmetry_space_group_name_H-M "C M M M"
_symmetry_group_IT_number 65
_symmetry_cell_setting 'orthorhombic'
loop_
_space_group_symop_operation_xyz
x,y,z
-x,-y,z
x,-y,-z
-x,y,-z
-x,-y,-z
x,y,-z
-x,y,z
x,-y,z
1/2+x,1/2+y,z
1/2-x,1/2-y,z
1/2+x,1/2-y,-z
1/2-x,1/2+y,-z
1/2-x,1/2-y,-z
1/2+x,1/2+y,-z
1/2-x,1/2+y,z
1/2+x,1/2-y,z
loop_
_atom_site_type_symbol
_atom_site_label
_atom_site_fract_x
_atom_site_fract_y
_atom_site_fract_z
Si Si1 0.899933 0.716334 0.215066
Si Si2 0.000000 0.918339 0.259253
Si Si3 0.886107 0.880692 0.130719
Si Si4 0.934070 0.377153 0.000000
Si Si5 0.794436 0.316706 0.628480
Si Si6 0.737121 0.585042 0.790101
Si Si7 0.000000 0.764117 0.629418
Si Si8 0.696159 0.086014 0.000000
O O1 0.885671 0.792528 0.151434
O O2 0.846198 0.691092 0.286352
O O3 0.946593 0.732676 0.307035
O O4 0.926717 0.666076 0.117517
O O5 0.056317 0.909156 0.185592
O O6 0.000000 0.852459 0.348205
O O7 0.000000 0.000000 0.309435
O O8 0.828435 0.907978 0.184883
O O9 0.885680 0.898635 0.000000
O O10 0.871295 0.414802 0.000000
O O11 0.000000 0.405624 0.000000
O O12 0.812855 0.323014 0.500000
O O13 0.750000 0.250000 0.636724
O O14 0.756850 0.383271 0.673293
O O15 0.752280 0.500000 0.787727
O O16 0.773824 0.620497 0.891204
O O17 0.000000 0.746842 0.500000
O O18 0.713476 0.000000 0.000000
#
# Coordination Sequence:
#
# PCOD9494847 Si02
#       8
#    16   8  16   8  16  16   8   8
#     4  11  21  36  59  89 115 146 193 240 294 346
#     4  10  23  37  52  80 116 158 206 242 285 341
#     4  11  21  34  57  84 120 156 191 242 294 350
#     4  12  22  36  63  91 120 150 185 239 294 353
#     4  11  23  39  60  84 113 153 201 245 289 346
#     4  11  22  37  58  86 117 152 195 239 291 351
#     4  10  22  39  58  78 112 153 196 246 289 335
#     4  10  22  38  59  86 115 149 188 232 292 361
#
# _framework density 9.2592590000000001
#
# number of rings (size 3 to 8) (size 9 to 14) (size 15 to 20)
#    0.000    1.167    5.833    1.250    0.000    2.000 
#    0.000    2.500    0.000    2.000    0.000    0.000 
#    0.000    5.333    0.000    0.000    0.000    0.000 
#
# Total GULP energy -267229.442769 kJ/mol
# GULP energy per Si atom -5567.280058 kJ/mol
# Density = 0.923818 g / cm^3
# Si number density = 9.259259 Si / 1000 Ang^3
#
#
#
# Elastic Constant Matrix: (Units=GPa)
#
#
# Indices 1 2 3 4 5 6 
#
# 1 98.8228 18.9667 53.2681 0.0000 0.0000 0.0000
# 2 18.9667 40.2713 29.3365 0.0000 0.0000 0.0000
# 3 53.2681 29.3365 81.6171 0.0000 0.0000 0.0000
# 4 0.0000 0.0000 0.0000 -151.9269 0.0000 0.0000
# 5 0.0000 0.0000 0.0000 0.0000 14.9403 0.0000
# 6 0.0000 0.0000 0.0000 0.0000 0.0000 46.3800
#
#
#
# Elastic Compliance Matrix: (Units=1/GPa)
#
#
# Indices 1 2 3 4 5 6 
#
# 1 0.015611 0.000095 -0.010223 0.000000 0.000000 0.000000
# 2 0.000095 0.033641 -0.012154 0.000000 0.000000 0.000000
# 3 -0.010223 -0.012154 0.023293 0.000000 0.000000 0.000000
# 4 0.000000 0.000000 0.000000 -0.006582 0.000000 0.000000
# 5 0.000000 0.000000 0.000000 0.000000 0.066933 0.000000
# 6 0.000000 0.000000 0.000000 0.000000 0.000000 0.021561
#
#
# Mechanical properties :
#
#
# Convention : Reuss Voigt Hill
#
# Bulk Modulus (GPa) = 35.73838 47.09487 41.41662
# Shear Modulus (GPa) = 23.99838 -10.17866 6.90986
#
# Velocity S-wave (km/s) = 3.60378 -2.34700 1.93376
# Velocity P-wave (km/s) = 6.05450 4.25933 5.23445
#
# Compressibility (1/GPa) = 0.02798112
#
# Stress axis : x y z
#
# Youngs Moduli (GPa) = 64.05587 29.72601 42.93160
#
# Poissons Ratio (x) = -0.00281 0.43888
# Poissons Ratio (y) = -0.00606 0.52177
# Poissons Ratio (z) = 0.65484 0.36128
#
# Static dielectric constant tensor:
#      x y z
#    x 1.653160 0.000000 0.000000 
#    y 0.000000 1.680330 0.000000 
#    z 0.000000 0.000000 1.626740 
# 
# From -- ./inp_files/30864.got.cif
#   From: 2010.05.17/outbox.ucp.g08.bks.cvg/sg65_16_cif.got.tgz:30864.got - 2010.06.11 16:39:57.
