data_PCOD9494345
_publ_section_title
;
Structure prediction by ZEFSAII (Michael W. Deem and Ramdas Pophale) SiO2 
 PCOD9494345
Probable space group: C M M M
;
_chemical_formula_sum "Si O2"
_cell_formula_units_Z 72
_cell_length_a 9.971898
_cell_length_b 14.452772
_cell_length_c 24.041440
_cell_angle_alpha 90.000000
_cell_angle_beta 90.000000
_cell_angle_gamma 90.000000
_cell_volume 3464.890035
_symmetry_space_group_name_H-M "C M M M"
_symmetry_group_IT_number 65
_symmetry_cell_setting 'orthorhombic'
loop_
_space_group_symop_operation_xyz
x,y,z
-x,-y,z
x,-y,-z
-x,y,-z
-x,-y,-z
x,y,-z
-x,y,z
x,-y,z
1/2+x,1/2+y,z
1/2-x,1/2-y,z
1/2+x,1/2-y,-z
1/2-x,1/2+y,-z
1/2-x,1/2-y,-z
1/2+x,1/2+y,-z
1/2-x,1/2+y,z
1/2+x,1/2-y,z
loop_
_atom_site_type_symbol
_atom_site_label
_atom_site_fract_x
_atom_site_fract_y
_atom_site_fract_z
Si Si1 0.152286 0.613313 0.161760
Si Si2 0.658410 0.340295 0.379877
Si Si3 0.850866 0.107679 0.744198
Si Si4 0.151869 0.887254 0.936465
Si Si5 0.341021 0.342197 0.500000
O O1 0.146919 0.500000 0.161776
O O2 0.234380 0.644119 0.216239
O O3 0.237438 0.641507 0.107821
O O4 0.000000 0.646602 0.160969
O O5 0.500000 0.317146 0.379411
O O6 0.750000 0.250000 0.379308
O O7 0.683413 0.389021 0.321189
O O8 0.683880 0.388617 0.439816
O O9 0.000000 0.149435 0.752275
O O10 0.862678 0.000000 0.759531
O O11 0.000000 0.858603 0.921215
O O12 0.151467 0.000000 0.936260
O O13 0.179163 0.858491 0.000000
O O14 0.500000 0.318817 0.500000
O O15 0.250000 0.250000 0.500000
#
# Coordination Sequence:
#
# PCOD9494345 Si02
#       5
#    16  16  16  16   8
#     4   9  16  24  35  53  77 106 139 174 212 250
#     4   9  17  29  46  66  86 110 140 175 213 252
#     4   9  17  29  43  59  83 115 146 173 207 254
#     4   8  13  21  33  49  71 102 138 172 207 249
#     4   8  14  26  43  63  85 107 135 170 210 254
#
# _framework density 20.779879999999999
#
# number of rings (size 3 to 8) (size 9 to 14) (size 15 to 20)
#    0.000    3.333    0.000    1.333    0.000    4.000 
#    0.000    2.778    0.000    3.333    0.000    0.000 
#    0.000   13.333    0.000    2.889    0.000    5.778 
#
# Total GULP energy -200509.780498 kJ/mol
# GULP energy per Si atom -5569.716125 kJ/mol
# Density = 2.073258 g / cm^3
# Si number density = 20.779880 Si / 1000 Ang^3
#
#
#
# Elastic Constant Matrix: (Units=GPa)
#
#
# Indices 1 2 3 4 5 6 
#
# 1 139.3625 18.3763 129.3028 0.0000 0.0000 0.0000
# 2 18.3763 46.0074 2.8320 0.0000 0.0000 0.0000
# 3 129.3028 2.8320 184.4050 0.0000 0.0000 0.0000
# 4 0.0000 0.0000 0.0000 15.2470 0.0000 0.0000
# 5 0.0000 0.0000 0.0000 0.0000 -13.6406 0.0000
# 6 0.0000 0.0000 0.0000 0.0000 0.0000 2.9173
#
#
#
# Elastic Compliance Matrix: (Units=1/GPa)
#
#
# Indices 1 2 3 4 5 6 
#
# 1 0.023336 -0.008322 -0.016235 0.000000 0.000000 0.000000
# 2 -0.008322 0.024724 0.005455 0.000000 0.000000 0.000000
# 3 -0.016235 0.005455 0.016723 0.000000 0.000000 0.000000
# 4 0.000000 0.000000 0.000000 0.065587 0.000000 0.000000
# 5 0.000000 0.000000 0.000000 0.000000 -0.073310 0.000000
# 6 0.000000 0.000000 0.000000 0.000000 0.000000 0.342788
#
#
# Mechanical properties :
#
#
# Convention : Reuss Voigt Hill
#
# Bulk Modulus (GPa) = 37.62256 74.53302 56.07779
# Shear Modulus (GPa) = 11.18794 15.52232 13.35513
#
# Velocity S-wave (km/s) = 2.32287 2.73607 2.53789
# Velocity P-wave (km/s) = 5.03377 6.77696 5.96934
#
# Compressibility (1/GPa) = 0.02657980
#
# Stress axis : x y z
#
# Youngs Moduli (GPa) = 42.85197 40.44711 59.79769
#
# Poissons Ratio (x) = 0.33658 0.97083
# Poissons Ratio (y) = 0.35660 -0.32622
# Poissons Ratio (z) = 0.69571 -0.22065
#
# Static dielectric constant tensor:
#      x y z
#    x 1.715120 0.000000 0.000000 
#    y 0.000000 1.804880 0.000000 
#    z 0.000000 0.000000 1.780560 
# 
# From -- ./inp_files/59494.got.cif
#   From: 2010.05.17/outbox.cif.g08.bks.cpg/sg65_30_cif.got.tgz:59494.got - 2010.06.03 17:01:31.
