data_PCOD9494963
_publ_section_title
;
Structure prediction by ZEFSAII (Michael W. Deem and Ramdas Pophale) SiO2 
 PCOD9494963
Probable space group: C C C M
;
_chemical_formula_sum "Si O2"
_cell_formula_units_Z 88
_cell_length_a 17.160876
_cell_length_b 16.814859
_cell_length_c 14.333606
_cell_angle_alpha 90.000000
_cell_angle_beta 90.000000
_cell_angle_gamma 90.000000
_cell_volume 4136.072527
_symmetry_space_group_name_H-M "C C C M"
_symmetry_group_IT_number 66
_symmetry_cell_setting 'orthorhombic'
loop_
_space_group_symop_operation_xyz
x,y,z
-x,-y,z
x,-y,1/2-z
-x,y,1/2-z
-x,-y,-z
x,y,-z
-x,y,1/2+z
x,-y,1/2+z
1/2+x,1/2+y,z
1/2-x,1/2-y,z
1/2+x,1/2-y,1/2-z
1/2-x,1/2+y,1/2-z
1/2-x,1/2-y,-z
1/2+x,1/2+y,-z
1/2-x,1/2+y,1/2+z
1/2+x,1/2-y,1/2+z
loop_
_atom_site_type_symbol
_atom_site_label
_atom_site_fract_x
_atom_site_fract_y
_atom_site_fract_z
Si Si1 0.375434 0.292571 0.106147
Si Si2 0.500000 0.130401 0.750000
Si Si3 0.128525 0.602586 0.609422
Si Si4 0.222663 0.080833 0.217794
Si Si5 0.946529 0.240406 0.107942
Si Si6 0.785176 0.162308 0.101943
O O1 0.358113 0.198735 0.119114
O O2 0.330826 0.351959 0.172684
O O3 0.468533 0.299055 0.116691
O O4 0.353370 0.312403 0.000000
O O5 0.556559 0.085136 0.678457
O O6 0.551641 0.188601 0.817087
O O7 0.113241 0.587067 0.500000
O O8 0.206734 0.563194 0.647799
O O9 0.254296 0.117157 0.313961
O O10 0.181158 0.000000 0.250000
O O11 0.876695 0.178545 0.121090
O O12 0.940422 0.270215 0.000000
O O13 0.750000 0.250000 0.098200
O O14 0.776068 0.124549 0.000000
#
# Coordination Sequence:
#
# PCOD9494963 Si02
#       6
#    16   8  16  16  16  16
#     4   9  18  35  60  85 109 143 189 242 292 340
#     4  10  16  30  59  88 113 134 174 234 294 352
#     4  10  21  38  63  90 113 143 186 237 291 349
#     4  12  24  36  53  78 114 154 191 233 284 343
#     4   9  17  30  53  85 114 142 185 241 293 339
#     4  10  20  35  55  79 109 146 190 237 284 337
#
# _framework density 21.276223000000002
#
# number of rings (size 3 to 8) (size 9 to 14) (size 15 to 20)
#    0.000    2.000    0.000    7.091    0.000    2.909 
#    0.000    3.182    0.000    4.364    0.000    0.000 
#    0.000    0.000    0.000    0.000    0.000    0.000 
#
# Total GULP energy -245687.238147 kJ/mol
# GULP energy per Si atom -5583.800867 kJ/mol
# Density = 2.122780 g / cm^3
# Si number density = 21.276223 Si / 1000 Ang^3
#
#
#
# Elastic Constant Matrix: (Units=GPa)
#
#
# Indices 1 2 3 4 5 6 
#
# 1 52.6010 13.0355 43.4429 0.0000 0.0000 0.0000
# 2 13.0355 35.1090 20.8693 0.0000 0.0000 0.0000
# 3 43.4429 20.8693 146.0242 0.0000 0.0000 0.0000
# 4 0.0000 0.0000 0.0000 0.5809 0.0000 0.0000
# 5 0.0000 0.0000 0.0000 0.0000 28.9012 0.0000
# 6 0.0000 0.0000 0.0000 0.0000 0.0000 0.5428
#
#
#
# Elastic Compliance Matrix: (Units=1/GPa)
#
#
# Indices 1 2 3 4 5 6 
#
# 1 0.026160 -0.005559 -0.006988 0.000000 0.000000 0.000000
# 2 -0.005559 0.032308 -0.002964 0.000000 0.000000 0.000000
# 3 -0.006988 -0.002964 0.009351 0.000000 0.000000 0.000000
# 4 0.000000 0.000000 0.000000 1.721324 0.000000 0.000000
# 5 0.000000 0.000000 0.000000 0.000000 0.034601 0.000000
# 6 0.000000 0.000000 0.000000 0.000000 0.000000 1.842337
#
#
# Mechanical properties :
#
#
# Convention : Reuss Voigt Hill
#
# Bulk Modulus (GPa) = 27.17571 43.15884 35.16728
# Shear Modulus (GPa) = 1.34794 16.43075 8.88934
#
# Velocity S-wave (km/s) = 0.79682 2.78197 2.04625
# Velocity P-wave (km/s) = 3.69420 5.53608 4.70613
#
# Compressibility (1/GPa) = 0.03679756
#
# Stress axis : x y z
#
# Youngs Moduli (GPa) = 38.22585 30.95180 106.94289
#
# Poissons Ratio (x) = 0.17206 0.74735
# Poissons Ratio (y) = 0.21250 0.31693
# Poissons Ratio (z) = 0.26714 0.09173
#
# Static dielectric constant tensor:
#      x y z
#    x 1.798430 0.000000 0.000000 
#    y 0.000000 1.760220 0.000000 
#    z 0.000000 0.000000 1.818460 
# 
# From -- ./inp_files/30051.got.cif
#   From: 2010.05.17/outbox.cif.g08.bks.cpg/sg66_16_cif.got.tgz:30051.got - 2010.06.03 17:51:23.
