data_PCOD9494498
_publ_section_title
;
Structure prediction by ZEFSAII (Michael W. Deem and Ramdas Pophale) SiO2 
 PCOD9494498
Probable space group: C M M M
;
_chemical_formula_sum "Si O2"
_cell_formula_units_Z 88
_cell_length_a 7.349920
_cell_length_b 29.812602
_cell_length_c 18.669190
_cell_angle_alpha 90.000000
_cell_angle_beta 90.000000
_cell_angle_gamma 90.000000
_cell_volume 4090.797388
_symmetry_space_group_name_H-M "C M M M"
_symmetry_group_IT_number 65
_symmetry_cell_setting 'orthorhombic'
loop_
_space_group_symop_operation_xyz
x,y,z
-x,-y,z
x,-y,-z
-x,y,-z
-x,-y,-z
x,y,-z
-x,y,z
x,-y,z
1/2+x,1/2+y,z
1/2-x,1/2-y,z
1/2+x,1/2-y,-z
1/2-x,1/2+y,-z
1/2-x,1/2-y,-z
1/2+x,1/2+y,-z
1/2-x,1/2+y,z
1/2+x,1/2-y,z
loop_
_atom_site_type_symbol
_atom_site_label
_atom_site_fract_x
_atom_site_fract_y
_atom_site_fract_z
Si Si1 0.221786 0.051459 0.217320
Si Si2 0.777690 0.051872 0.500000
Si Si3 0.216915 0.200055 0.309448
Si Si4 0.722237 0.392465 0.079700
Si Si5 0.722009 0.605311 0.640853
Si Si6 0.283210 0.700124 0.145354
O O1 0.279918 0.075023 0.143798
O O2 0.277590 0.080055 0.286431
O O3 0.000000 0.051730 0.217377
O O4 0.279887 0.000000 0.222317
O O5 0.718845 0.078321 0.429038
O O6 0.000000 0.051525 0.500000
O O7 0.720375 0.000000 0.500000
O O8 0.250000 0.250000 0.338229
O O9 0.281908 0.157074 0.353564
O O10 0.287708 0.198236 0.227332
O O11 0.000000 0.195283 0.304587
O O12 0.500000 0.392981 0.079498
O O13 0.781632 0.341927 0.099527
O O14 0.781116 0.405138 0.000000
O O15 0.500000 0.604896 0.639426
O O16 0.500000 0.694966 0.150004
O O17 0.250000 0.750000 0.116431
#
# Coordination Sequence:
#
# PCOD9494498 Si02
#       6
#    16   8  16  16  16  16
#     4   9  15  23  36  53  76 108 141 170 206 255
#     4   9  16  24  37  60  87 113 141 173 210 253
#     4   9  16  27  44  63  86 115 145 175 210 253
#     4   9  16  25  36  53  79 108 138 173 211 250
#     4   9  15  25  39  57  83 112 139 171 212 252
#     4   9  16  27  42  60  83 112 143 175 212 252
#
# _framework density 21.511700000000001
#
# number of rings (size 3 to 8) (size 9 to 14) (size 15 to 20)
#    0.000    3.000    1.818    0.545    0.000    2.909 
#    0.000    2.273    0.000    0.000    0.000    0.000 
#    0.000    5.818    0.000    1.636    0.000    1.818 
#
# Total GULP energy -245625.509032 kJ/mol
# GULP energy per Si atom -5582.397933 kJ/mol
# Density = 2.146274 g / cm^3
# Si number density = 21.511700 Si / 1000 Ang^3
#
#
#
# Elastic Constant Matrix: (Units=GPa)
#
#
# Indices 1 2 3 4 5 6 
#
# 1 79.3013 0.5223 3.9550 0.0000 0.0000 0.0000
# 2 0.5223 207.1342 116.5880 0.0000 0.0000 0.0000
# 3 3.9550 116.5880 165.0773 0.0000 0.0000 0.0000
# 4 0.0000 0.0000 0.0000 12.2703 0.0000 0.0000
# 5 0.0000 0.0000 0.0000 0.0000 7.2950 0.0000
# 6 0.0000 0.0000 0.0000 0.0000 0.0000 10.4861
#
#
#
# Elastic Compliance Matrix: (Units=1/GPa)
#
#
# Indices 1 2 3 4 5 6 
#
# 1 0.012632 0.000230 -0.000465 0.000000 0.000000 0.000000
# 2 0.000230 0.008017 -0.005668 0.000000 0.000000 0.000000
# 3 -0.000465 -0.005668 0.010072 0.000000 0.000000 0.000000
# 4 0.000000 0.000000 0.000000 0.081498 0.000000 0.000000
# 5 0.000000 0.000000 0.000000 0.000000 0.137080 0.000000
# 6 0.000000 0.000000 0.000000 0.000000 0.000000 0.095365
#
#
# Mechanical properties :
#
#
# Convention : Reuss Voigt Hill
#
# Bulk Modulus (GPa) = 52.86776 77.07148 64.96962
# Shear Modulus (GPa) = 13.78265 28.04011 20.91138
#
# Velocity S-wave (km/s) = 2.53396 3.61429 3.12122
# Velocity P-wave (km/s) = 5.76116 7.30226 6.57700
#
# Compressibility (1/GPa) = 0.01891512
#
# Stress axis : x y z
#
# Youngs Moduli (GPa) = 79.16525 124.72736 99.28534
#
# Poissons Ratio (x) = -0.02867 0.04617
# Poissons Ratio (y) = -0.01820 0.56275
# Poissons Ratio (z) = 0.03681 0.70695
#
# Static dielectric constant tensor:
#      x y z
#    x 1.883730 0.000000 0.000000 
#    y 0.000000 1.760230 0.000000 
#    z 0.000000 0.000000 1.733560 
# 
# From -- ./inp_files/50395.got.cif
#   From: 2010.05.17/outbox.cif.g08.bks.cpg/sg65_26_cif.got.tgz:50395.got - 2010.06.03 17:01:31.
