data_PCOD9494988
_publ_section_title
;
Structure prediction by ZEFSAII (Michael W. Deem and Ramdas Pophale) SiO2 
 PCOD9494988
Probable space group: C C C M
;
_chemical_formula_sum "Si O2"
_cell_formula_units_Z 80
_cell_length_a 24.947141
_cell_length_b 7.220378
_cell_length_c 17.313892
_cell_angle_alpha 90.000000
_cell_angle_beta 90.000000
_cell_angle_gamma 90.000000
_cell_volume 3118.713068
_symmetry_space_group_name_H-M "C C C M"
_symmetry_group_IT_number 66
_symmetry_cell_setting 'orthorhombic'
loop_
_space_group_symop_operation_xyz
x,y,z
-x,-y,z
x,-y,1/2-z
-x,y,1/2-z
-x,-y,-z
x,y,-z
-x,y,1/2+z
x,-y,1/2+z
1/2+x,1/2+y,z
1/2-x,1/2-y,z
1/2+x,1/2-y,1/2-z
1/2-x,1/2+y,1/2-z
1/2-x,1/2-y,-z
1/2+x,1/2+y,-z
1/2-x,1/2+y,1/2+z
1/2+x,1/2-y,1/2+z
loop_
_atom_site_type_symbol
_atom_site_label
_atom_site_fract_x
_atom_site_fract_y
_atom_site_fract_z
Si Si1 0.999646 0.271895 0.584133
Si Si2 0.922059 0.701666 0.214324
Si Si3 0.883209 0.175544 0.876182
Si Si4 0.728077 0.552930 0.407019
Si Si5 0.838413 0.419914 0.588404
O O1 0.974569 0.229690 0.500000
O O2 0.058152 0.178598 0.585497
O O3 0.000000 0.500000 0.587394
O O4 0.969788 0.216413 0.662844
O O5 0.937062 0.500000 0.250000
O O6 0.897642 0.808153 0.286285
O O7 0.877084 0.668802 0.150181
O O8 0.750000 0.250000 0.875823
O O9 0.834367 0.032271 0.886796
O O10 0.857325 0.365219 0.909403
O O11 0.729944 0.558628 0.500000
O O12 0.776731 0.417983 0.385749
O O13 0.843032 0.353076 0.500000
#
# Coordination Sequence:
#
# PCOD9494988 Si02
#       5
#    16  16  16  16  16
#     4  11  18  23  32  45  69 101 128 152 178 218
#     4  10  18  23  32  49  74  97 124 156 189 226
#     4  10  17  23  33  49  71  96 126 159 190 221
#     4   8  14  24  36  48  64  91 128 164 192 220
#     4   9  15  24  36  48  66  92 127 164 192 222
#
# _framework density 25.651608
#
# number of rings (size 3 to 8) (size 9 to 14) (size 15 to 20)
#    0.000    2.400    4.000    4.200    0.000    0.000 
#    0.000    0.000    0.000    0.000    0.000    0.000 
#    0.000  123.200    0.000    0.000    0.000  262.000 
#
# Total GULP energy -223537.802663 kJ/mol
# GULP energy per Si atom -5588.445067 kJ/mol
# Density = 2.559322 g / cm^3
# Si number density = 25.651608 Si / 1000 Ang^3
#
#
#
# Elastic Constant Matrix: (Units=GPa)
#
#
# Indices 1 2 3 4 5 6 
#
# 1 215.4940 23.5998 67.8887 0.0000 0.0000 0.0000
# 2 23.5998 50.4744 2.6054 0.0000 0.0000 0.0000
# 3 67.8887 2.6054 155.7695 0.0000 0.0000 0.0000
# 4 0.0000 0.0000 0.0000 -3.7840 0.0000 0.0000
# 5 0.0000 0.0000 0.0000 0.0000 20.1843 0.0000
# 6 0.0000 0.0000 0.0000 0.0000 0.0000 11.1350
#
#
#
# Elastic Compliance Matrix: (Units=1/GPa)
#
#
# Indices 1 2 3 4 5 6 
#
# 1 0.005685 -0.002532 -0.002435 0.000000 0.000000 0.000000
# 2 -0.002532 0.020957 0.000753 0.000000 0.000000 0.000000
# 3 -0.002435 0.000753 0.007469 0.000000 0.000000 0.000000
# 4 0.000000 0.000000 0.000000 -0.264272 0.000000 0.000000
# 5 0.000000 0.000000 0.000000 0.000000 0.049544 0.000000
# 6 0.000000 0.000000 0.000000 0.000000 0.000000 0.089807
#
#
# Mechanical properties :
#
#
# Convention : Reuss Voigt Hill
#
# Bulk Modulus (GPa) = 38.93838 67.76955 53.35396
# Shear Modulus (GPa) = -67.73182 27.34999 -20.19092
#
# Velocity S-wave (km/s) = -5.14411 3.26883 -2.80861
# Velocity P-wave (km/s) = 4.47993 6.38150 3.21355
#
# Compressibility (1/GPa) = 0.02568160
#
# Stress axis : x y z
#
# Youngs Moduli (GPa) = 175.89950 47.71633 133.89498
#
# Poissons Ratio (x) = 0.12084 0.32608
# Poissons Ratio (y) = 0.44545 -0.10084
# Poissons Ratio (z) = 0.42838 -0.03594
#
# Static dielectric constant tensor:
#      x y z
#    x 2.074260 0.000000 0.000000 
#    y 0.000000 2.147620 0.000000 
#    z 0.000000 0.000000 1.911050 
# 
# From -- ./inp_files/42856.got.cif
#   From: 2010.05.17/outbox.cif.g08.bks.cpg/sg66_22_cif.got.tgz:42856.got - 2010.06.03 17:51:23.
