data_PCOD9494001
_publ_section_title
;
Structure prediction by ZEFSAII (Michael W. Deem and Ramdas Pophale) SiO2 
 PCOD9494001
Probable space group: C M M M
;
_chemical_formula_sum "Si O2"
_cell_formula_units_Z 112
_cell_length_a 16.002357
_cell_length_b 15.512968
_cell_length_c 23.369608
_cell_angle_alpha 90.000000
_cell_angle_beta 90.000000
_cell_angle_gamma 90.000000
_cell_volume 5801.366185
_symmetry_space_group_name_H-M "C M M M"
_symmetry_group_IT_number 65
_symmetry_cell_setting 'orthorhombic'
loop_
_space_group_symop_operation_xyz
x,y,z
-x,-y,z
x,-y,-z
-x,y,-z
-x,-y,-z
x,y,-z
-x,y,z
x,-y,z
1/2+x,1/2+y,z
1/2-x,1/2-y,z
1/2+x,1/2-y,-z
1/2-x,1/2+y,-z
1/2-x,1/2-y,-z
1/2+x,1/2+y,-z
1/2-x,1/2+y,z
1/2+x,1/2-y,z
loop_
_atom_site_type_symbol
_atom_site_label
_atom_site_fract_x
_atom_site_fract_y
_atom_site_fract_z
Si Si1 0.595026 0.599047 0.647169
Si Si2 0.629911 0.901323 0.934423
Si Si3 0.168160 0.901110 0.065447
Si Si4 0.652389 0.751660 0.724916
Si Si5 0.905228 0.598904 0.356525
Si Si6 0.404525 0.255797 0.852480
Si Si7 0.751423 0.146080 0.565885
O O1 0.500000 0.612081 0.625430
O O2 0.602246 0.500000 0.666559
O O3 0.611511 0.666311 0.697994
O O4 0.666443 0.615689 0.600029
O O5 0.731051 0.898163 0.933206
O O6 0.599009 0.831024 0.890024
O O7 0.605139 0.000000 0.921521
O O8 0.604476 0.881981 0.000000
O O9 0.133232 0.832212 0.109375
O O10 0.143059 0.000000 0.077913
O O11 0.142354 0.880784 0.000000
O O12 0.750000 0.750000 0.709448
O O13 0.611391 0.833964 0.694338
O O14 0.642662 0.755128 0.792771
O O15 0.899115 0.500000 0.336651
O O16 0.832785 0.614322 0.403000
O O17 0.000000 0.612526 0.378645
O O18 0.500000 0.276194 0.838580
O O19 0.753950 0.117809 0.500000
O O20 0.750000 0.250000 0.567291
#
# Coordination Sequence:
#
# PCOD9494001 Si02
#       7
#    16  16  16  16  16  16  16
#     4  11  23  41  66  93 125 165 207 256 311 365
#     4   9  19  38  62  86 115 154 201 250 301 362
#     4   9  19  38  62  86 115 154 201 250 301 362
#     4  12  24  43  65  86 118 161 210 259 307 366
#     4  11  23  41  66  93 125 165 207 256 311 365
#     4  12  25  37  56  87 123 158 197 249 306 367
#     4  11  23  41  67  98 131 169 208 251 304 362
#
# _framework density 19.305796999999998
#
# number of rings (size 3 to 8) (size 9 to 14) (size 15 to 20)
#    0.000    1.286    2.857    4.286    0.000    5.714 
#    0.000    4.286    0.000    0.000    0.000    0.000 
#    0.000    0.000    0.000    0.000    0.000    0.000 
#
# Total GULP energy -312976.541867 kJ/mol
# GULP energy per Si atom -5588.866819 kJ/mol
# Density = 1.926186 g / cm^3
# Si number density = 19.305797 Si / 1000 Ang^3
#
#
#
# Elastic Constant Matrix: (Units=GPa)
#
#
# Indices 1 2 3 4 5 6 
#
# 1 117.0112 45.0632 33.6275 0.0000 0.0000 0.0000
# 2 45.0632 123.4379 66.6951 0.0000 0.0000 0.0000
# 3 33.6275 66.6951 119.9704 0.0000 0.0000 0.0000
# 4 0.0000 0.0000 0.0000 -11.3434 0.0000 0.0000
# 5 0.0000 0.0000 0.0000 0.0000 2.7330 0.0000
# 6 0.0000 0.0000 0.0000 0.0000 0.0000 38.4006
#
#
#
# Elastic Compliance Matrix: (Units=1/GPa)
#
#
# Indices 1 2 3 4 5 6 
#
# 1 0.010047 -0.003068 -0.001111 0.000000 0.000000 0.000000
# 2 -0.003068 0.012516 -0.006098 0.000000 0.000000 0.000000
# 3 -0.001111 -0.006098 0.012037 0.000000 0.000000 0.000000
# 4 0.000000 0.000000 0.000000 -0.088157 0.000000 0.000000
# 5 0.000000 0.000000 0.000000 0.000000 0.365897 0.000000
# 6 0.000000 0.000000 0.000000 0.000000 0.000000 0.026041
#
#
# Mechanical properties :
#
#
# Convention : Reuss Voigt Hill
#
# Bulk Modulus (GPa) = 71.19128 72.35458 71.77293
# Shear Modulus (GPa) = 13.75074 20.29361 17.02218
#
# Velocity S-wave (km/s) = 2.67171 3.24569 2.97259
# Velocity P-wave (km/s) = 6.81712 7.18370 7.00281
#
# Compressibility (1/GPa) = 0.01404666
#
# Stress axis : x y z
#
# Youngs Moduli (GPa) = 99.53426 79.89728 83.07788
#
# Poissons Ratio (x) = 0.24510 0.09228
# Poissons Ratio (y) = 0.30533 0.50663
# Poissons Ratio (z) = 0.11055 0.48723
#
# Static dielectric constant tensor:
#      x y z
#    x 1.687610 0.000000 0.000000 
#    y 0.000000 1.665600 0.000000 
#    z 0.000000 0.000000 1.639490 
# 
# From -- ./inp_files/70012.got.cif
#   From: 2010.05.17/outbox.cif.g08.bks.cpg/sg65_36_cif.got.tgz:70012.got - 2010.06.03 17:01:31.
