data_PCOD9494350
_publ_section_title
;
Structure prediction by ZEFSAII (Michael W. Deem and Ramdas Pophale) SiO2 
 PCOD9494350
Probable space group: C M M M
;
_chemical_formula_sum "Si O2"
_cell_formula_units_Z 104
_cell_length_a 7.322258
_cell_length_b 28.424546
_cell_length_c 22.239461
_cell_angle_alpha 90.000000
_cell_angle_beta 90.000000
_cell_angle_gamma 90.000000
_cell_volume 4628.740369
_symmetry_space_group_name_H-M "C M M M"
_symmetry_group_IT_number 65
_symmetry_cell_setting 'orthorhombic'
loop_
_space_group_symop_operation_xyz
x,y,z
-x,-y,z
x,-y,-z
-x,y,-z
-x,-y,-z
x,y,-z
-x,y,z
x,-y,z
1/2+x,1/2+y,z
1/2-x,1/2-y,z
1/2+x,1/2-y,-z
1/2-x,1/2+y,-z
1/2-x,1/2-y,-z
1/2+x,1/2+y,-z
1/2-x,1/2+y,z
1/2+x,1/2-y,z
loop_
_atom_site_type_symbol
_atom_site_label
_atom_site_fract_x
_atom_site_fract_y
_atom_site_fract_z
Si Si1 0.217334 0.196205 0.689223
Si Si2 0.777213 0.102806 0.877215
Si Si3 0.777823 0.947466 0.621961
Si Si4 0.222146 0.053884 0.000000
Si Si5 0.277353 0.599005 0.745667
Si Si6 0.282975 0.697281 0.931448
Si Si7 0.777456 0.151262 0.566514
O O1 0.250000 0.250000 0.707242
O O2 0.280973 0.152692 0.730476
O O3 0.283485 0.184339 0.621489
O O4 0.000000 0.191077 0.687840
O O5 0.716775 0.077184 0.937896
O O6 0.716812 0.084942 0.812281
O O7 0.719582 0.156788 0.887314
O O8 0.000000 0.100367 0.876638
O O9 0.722790 0.933903 0.690140
O O10 0.723192 0.902644 0.581827
O O11 0.000000 0.947993 0.620473
O O12 0.717015 0.000000 0.605181
O O13 0.000000 0.057396 0.000000
O O14 0.273505 0.000000 0.000000
O O15 0.500000 0.598405 0.745817
O O16 0.500000 0.691148 0.936190
O O17 0.250000 0.750000 0.910461
O O18 0.210543 0.692518 0.000000
O O19 0.716754 0.165016 0.500000
O O20 0.000000 0.151912 0.566623
#
# Coordination Sequence:
#
# PCOD9494350 Si02
#       7
#    16  16  16   8  16  16  16
#     4   9  17  29  43  60  83 112 143 172 202 239
#     4   9  15  25  38  53  77 107 135 166 206 245
#     4   8  13  21  33  51  76 105 136 167 200 243
#     4   9  16  24  35  54  79 107 139 169 198 243
#     4   8  15  25  37  53  76 106 136 167 205 245
#     4   9  16  26  40  57  78 103 130 160 195 236
#     4   8  14  24  37  55  80 108 137 169 205 243
#
# _framework density 22.468316999999999
#
# number of rings (size 3 to 8) (size 9 to 14) (size 15 to 20)
#    0.000    3.462    0.769    1.846    0.000    1.846 
#    0.000    4.615    0.000    0.000    0.000    0.000 
#    0.000   11.077    0.000   11.077    0.000   12.308 
#
# Total GULP energy -290029.136921 kJ/mol
# GULP energy per Si atom -5577.483402 kJ/mol
# Density = 2.241718 g / cm^3
# Si number density = 22.468317 Si / 1000 Ang^3
#
#
#
# Elastic Constant Matrix: (Units=GPa)
#
#
# Indices 1 2 3 4 5 6 
#
# 1 85.6974 -6.5867 0.6630 0.0000 0.0000 0.0000
# 2 -6.5867 41.9415 -15.7332 0.0000 0.0000 0.0000
# 3 0.6630 -15.7332 87.6249 0.0000 0.0000 0.0000
# 4 0.0000 0.0000 0.0000 7.3469 0.0000 0.0000
# 5 0.0000 0.0000 0.0000 0.0000 -13.5788 0.0000
# 6 0.0000 0.0000 0.0000 0.0000 0.0000 3.6827
#
#
#
# Elastic Compliance Matrix: (Units=1/GPa)
#
#
# Indices 1 2 3 4 5 6 
#
# 1 0.011817 0.001954 0.000261 0.000000 0.000000 0.000000
# 2 0.001954 0.025888 0.004633 0.000000 0.000000 0.000000
# 3 0.000261 0.004633 0.012242 0.000000 0.000000 0.000000
# 4 0.000000 0.000000 0.000000 0.136113 0.000000 0.000000
# 5 0.000000 0.000000 0.000000 0.000000 -0.073644 0.000000
# 6 0.000000 0.000000 0.000000 0.000000 0.000000 0.271543
#
#
# Mechanical properties :
#
#
# Convention : Reuss Voigt Hill
#
# Bulk Modulus (GPa) = 15.71229 19.10555 17.40892
# Shear Modulus (GPa) = 12.77216 15.28486 14.02851
#
# Velocity S-wave (km/s) = 2.38681 2.61106 2.50145
# Velocity P-wave (km/s) = 3.82153 4.19666 4.01348
#
# Compressibility (1/GPa) = 0.06364443
#
# Stress axis : x y z
#
# Youngs Moduli (GPa) = 84.62304 38.62840 81.68442
#
# Poissons Ratio (x) = -0.07547 -0.02135
# Poissons Ratio (y) = -0.16534 -0.37848
# Poissons Ratio (z) = -0.02212 -0.17898
#
# Static dielectric constant tensor:
#      x y z
#    x 1.898660 0.000000 0.000000 
#    y 0.000000 1.803490 0.000000 
#    z 0.000000 0.000000 1.825910 
# 
# From -- ./inp_files/68584.got.cif
#   From: 2010.05.17/outbox.cif.g08.bks.cpg/sg65_35_cif.got.tgz:68584.got - 2010.06.03 17:01:31.
