data_PCOD9494402
_publ_section_title
;
Structure prediction by ZEFSAII (Michael W. Deem and Ramdas Pophale) SiO2 
 PCOD9494402
Probable space group: C M M M
;
_chemical_formula_sum "Si O2"
_cell_formula_units_Z 80
_cell_length_a 23.141033
_cell_length_b 19.796462
_cell_length_c 7.530982
_cell_angle_alpha 90.000000
_cell_angle_beta 90.000000
_cell_angle_gamma 90.000000
_cell_volume 3450.022535
_symmetry_space_group_name_H-M "C M M M"
_symmetry_group_IT_number 65
_symmetry_cell_setting 'orthorhombic'
loop_
_space_group_symop_operation_xyz
x,y,z
-x,-y,z
x,-y,-z
-x,y,-z
-x,-y,-z
x,y,-z
-x,y,z
x,-y,z
1/2+x,1/2+y,z
1/2-x,1/2-y,z
1/2+x,1/2-y,-z
1/2-x,1/2+y,-z
1/2-x,1/2-y,-z
1/2+x,1/2+y,-z
1/2-x,1/2+y,z
1/2+x,1/2-y,z
loop_
_atom_site_type_symbol
_atom_site_label
_atom_site_fract_x
_atom_site_fract_y
_atom_site_fract_z
Si Si1 0.626601 0.145259 0.712698
Si Si2 0.374220 0.000000 0.792652
Si Si3 0.627560 0.290865 0.717833
Si Si4 0.568129 0.572806 0.715338
Si Si5 0.257837 0.500000 0.213466
Si Si6 0.742387 0.352470 0.292672
O O1 0.628713 0.147693 0.500000
O O2 0.603080 0.217963 0.772692
O O3 0.693039 0.144166 0.783802
O O4 0.598346 0.072699 0.751340
O O5 0.308932 0.000000 0.713630
O O6 0.365771 0.000000 0.000000
O O7 0.626876 0.292267 0.500000
O O8 0.595199 0.357637 0.780892
O O9 0.694316 0.300982 0.775098
O O10 0.574022 0.572811 0.500000
O O11 0.500000 0.574066 0.753873
O O12 0.591341 0.500000 0.779532
O O13 0.282715 0.571319 0.277099
O O14 0.258650 0.500000 0.000000
O O15 0.749534 0.336527 0.500000
#
# Coordination Sequence:
#
# PCOD9494402 Si02
#       6
#    16   8  16  16   8  16
#     4   9  16  27  41  61  86 112 142 177 212 248
#     4   9  17  29  43  57  80 115 146 170 203 251
#     4   9  16  24  39  61  84 111 143 176 213 254
#     4   8  14  24  37  57  88 119 142 169 209 253
#     4   9  17  27  37  53  80 113 146 176 205 243
#     4   9  16  25  39  58  82 112 143 176 210 248
#
# _framework density 23.188255999999999
#
# number of rings (size 3 to 8) (size 9 to 14) (size 15 to 20)
#    0.000    3.200    0.000    1.800    1.400    4.800 
#    0.000    1.000    0.000    4.800    0.000    0.700 
#    0.000    9.600    0.000    0.000    0.000    0.000 
#
# Total GULP energy -222943.441999 kJ/mol
# GULP energy per Si atom -5573.586050 kJ/mol
# Density = 2.313548 g / cm^3
# Si number density = 23.188256 Si / 1000 Ang^3
#
#
#
# Elastic Constant Matrix: (Units=GPa)
#
#
# Indices 1 2 3 4 5 6 
#
# 1 13.7167 27.5068 0.4944 0.0000 0.0000 0.0000
# 2 27.5068 246.7657 3.2031 0.0000 0.0000 0.0000
# 3 0.4944 3.2031 62.3529 0.0000 0.0000 0.0000
# 4 0.0000 0.0000 0.0000 -83.6846 0.0000 0.0000
# 5 0.0000 0.0000 0.0000 0.0000 -6.3353 0.0000
# 6 0.0000 0.0000 0.0000 0.0000 0.0000 24.3993
#
#
#
# Elastic Compliance Matrix: (Units=1/GPa)
#
#
# Indices 1 2 3 4 5 6 
#
# 1 0.093895 -0.010464 -0.000207 0.000000 0.000000 0.000000
# 2 -0.010464 0.005221 -0.000185 0.000000 0.000000 0.000000
# 3 -0.000207 -0.000185 0.016049 0.000000 0.000000 0.000000
# 4 0.000000 0.000000 0.000000 -0.011950 0.000000 0.000000
# 5 0.000000 0.000000 0.000000 0.000000 -0.157847 0.000000
# 6 0.000000 0.000000 0.000000 0.000000 0.000000 0.040985
#
#
# Mechanical properties :
#
#
# Convention : Reuss Voigt Hill
#
# Bulk Modulus (GPa) = 10.70054 42.80488 26.75271
# Shear Modulus (GPa) = 127.49931 6.31796 66.90863
#
# Velocity S-wave (km/s) = 7.42319 1.65244 5.37747
# Velocity P-wave (km/s) = 8.83722 4.70537 7.07944
#
# Compressibility (1/GPa) = 0.09345319
#
# Stress axis : x y z
#
# Youngs Moduli (GPa) = 10.65022 191.52628 62.30955
#
# Poissons Ratio (x) = 2.00408 0.01289
# Poissons Ratio (y) = 0.11144 0.01154
# Poissons Ratio (z) = 0.00220 0.03548
#
# Static dielectric constant tensor:
#      x y z
#    x 1.862370 0.000000 0.000000 
#    y 0.000000 1.969990 0.000000 
#    z 0.000000 0.000000 1.854660 
# 
# From -- ./inp_files/16249.got.cif
#   From: 2010.05.17/outbox.cif.g08.bks.cpg/sg65_9_cif.got.tgz:16249.got - 2010.06.03 17:01:31.
