data_PCOD9494256
_publ_section_title
;
Structure prediction by ZEFSAII (Michael W. Deem and Ramdas Pophale) SiO2 
 PCOD9494256
Probable space group: C M M M
;
_chemical_formula_sum "Si O2"
_cell_formula_units_Z 96
_cell_length_a 9.544838
_cell_length_b 14.404193
_cell_length_c 32.687988
_cell_angle_alpha 90.000000
_cell_angle_beta 90.000000
_cell_angle_gamma 90.000000
_cell_volume 4494.130543
_symmetry_space_group_name_H-M "C M M M"
_symmetry_group_IT_number 65
_symmetry_cell_setting 'orthorhombic'
loop_
_space_group_symop_operation_xyz
x,y,z
-x,-y,z
x,-y,-z
-x,y,-z
-x,-y,-z
x,y,-z
-x,y,z
x,-y,z
1/2+x,1/2+y,z
1/2-x,1/2-y,z
1/2+x,1/2-y,-z
1/2-x,1/2+y,-z
1/2-x,1/2-y,-z
1/2+x,1/2+y,-z
1/2-x,1/2+y,z
1/2+x,1/2-y,z
loop_
_atom_site_type_symbol
_atom_site_label
_atom_site_fract_x
_atom_site_fract_y
_atom_site_fract_z
Si Si1 0.832041 0.153817 0.455917
Si Si2 0.343362 0.608202 0.635509
Si Si3 0.158591 0.386401 0.290226
Si Si4 0.832014 0.611472 0.956113
Si Si5 0.659699 0.613368 0.211707
Si Si6 0.162611 0.386482 0.133199
O O1 0.799731 0.107244 0.500000
O O2 0.750000 0.250000 0.456326
O O3 0.798208 0.110897 0.411931
O O4 0.000000 0.166851 0.455517
O O5 0.500000 0.650101 0.639333
O O6 0.357527 0.500000 0.646075
O O7 0.230767 0.644617 0.667562
O O8 0.152339 0.500000 0.290077
O O9 0.254199 0.359566 0.251900
O O10 0.000000 0.352555 0.286317
O O11 0.812781 0.500000 0.956508
O O12 0.781635 0.643353 0.911588
O O13 0.000000 0.627170 0.955908
O O14 0.775430 0.645731 0.000000
O O15 0.500000 0.646412 0.212695
O O16 0.656167 0.500000 0.211541
O O17 0.740929 0.642092 0.170775
O O18 0.160703 0.500000 0.133026
O O19 0.000000 0.357738 0.138386
#
# Coordination Sequence:
#
# PCOD9494256 Si02
#       6
#    16  16  16  16  16  16
#     4   9  18  32  49  68  90 117 146 174 205 242
#     4   9  17  29  45  65  88 112 139 172 209 247
#     4   9  16  25  37  53  73  96 122 153 191 235
#     4   7   9  13  21  32  44  59  84 122 167 212
#     4   9  15  21  29  41  59  83 109 138 176 224
#     4   8  12  17  25  36  49  67  95 131 170 215
#
# _framework density 21.361194999999999
#
# number of rings (size 3 to 8) (size 9 to 14) (size 15 to 20)
#    0.000    3.500    0.000    2.500    0.000    5.000 
#    0.000    1.667    0.000    0.500    0.000    8.167 
#    0.000    0.000    0.000    0.000    0.000    0.000 
#
# Total GULP energy -267439.504503 kJ/mol
# GULP energy per Si atom -5571.656344 kJ/mol
# Density = 2.131258 g / cm^3
# Si number density = 21.361195 Si / 1000 Ang^3
#
#
#
# Elastic Constant Matrix: (Units=GPa)
#
#
# Indices 1 2 3 4 5 6 
#
# 1 108.1076 9.1442 115.4325 0.0000 0.0000 0.0000
# 2 9.1442 51.3240 1.3754 0.0000 0.0000 0.0000
# 3 115.4325 1.3754 239.0929 0.0000 0.0000 0.0000
# 4 0.0000 0.0000 0.0000 -362.0294 0.0000 0.0000
# 5 0.0000 0.0000 0.0000 0.0000 33.0868 0.0000
# 6 0.0000 0.0000 0.0000 0.0000 0.0000 -0.3567
#
#
#
# Elastic Compliance Matrix: (Units=1/GPa)
#
#
# Indices 1 2 3 4 5 6 
#
# 1 0.019617 -0.003242 -0.009452 0.000000 0.000000 0.000000
# 2 -0.003242 0.020023 0.001450 0.000000 0.000000 0.000000
# 3 -0.009452 0.001450 0.008738 0.000000 0.000000 0.000000
# 4 0.000000 0.000000 0.000000 -0.002762 0.000000 0.000000
# 5 0.000000 0.000000 0.000000 0.000000 0.030224 0.000000
# 6 0.000000 0.000000 0.000000 0.000000 0.000000 -2.803559
#
#
# Mechanical properties :
#
#
# Convention : Reuss Voigt Hill
#
# Bulk Modulus (GPa) = 38.62630 72.26988 55.44809
# Shear Modulus (GPa) = -1.85419 -47.68838 -24.77128
#
# Velocity S-wave (km/s) = -0.93268 -4.73004 -3.40904
# Velocity P-wave (km/s) = 4.11848 2.01861 3.24320
#
# Compressibility (1/GPa) = 0.02588909
#
# Stress axis : x y z
#
# Youngs Moduli (GPa) = 50.97612 49.94313 114.44715
#
# Poissons Ratio (x) = 0.16190 1.08179
# Poissons Ratio (y) = 0.16525 -0.16594
# Poissons Ratio (z) = 0.48184 -0.07241
#
# Static dielectric constant tensor:
#      x y z
#    x 1.743090 0.000000 0.000000 
#    y 0.000000 1.826310 0.000000 
#    z 0.000000 0.000000 1.810650 
# 
# From -- ./inp_files/73448.got.cif
#   From: 2010.05.17/outbox.cif.g08.bks.cpg/sg65_37_cif.got.tgz:73448.got - 2010.06.03 17:01:31.
