data_PCOD9494048
_publ_section_title
;
Structure prediction by ZEFSAII (Michael W. Deem and Ramdas Pophale) SiO2 
 PCOD9494048
Probable space group: C M M M
;
_chemical_formula_sum "Si O2"
_cell_formula_units_Z 64
_cell_length_a 8.134750
_cell_length_b 27.085140
_cell_length_c 14.600959
_cell_angle_alpha 90.000000
_cell_angle_beta 90.000000
_cell_angle_gamma 90.000000
_cell_volume 3217.041599
_symmetry_space_group_name_H-M "C M M M"
_symmetry_group_IT_number 65
_symmetry_cell_setting 'orthorhombic'
loop_
_space_group_symop_operation_xyz
x,y,z
-x,-y,z
x,-y,-z
-x,y,-z
-x,-y,-z
x,y,-z
-x,y,z
x,-y,z
1/2+x,1/2+y,z
1/2-x,1/2-y,z
1/2+x,1/2-y,-z
1/2-x,1/2+y,-z
1/2-x,1/2-y,-z
1/2+x,1/2+y,-z
1/2-x,1/2+y,z
1/2+x,1/2-y,z
loop_
_atom_site_type_symbol
_atom_site_label
_atom_site_fract_x
_atom_site_fract_y
_atom_site_fract_z
Si Si1 0.197367 0.893350 0.395657
Si Si2 0.691988 0.500000 0.388125
Si Si3 0.500000 0.556164 0.111376
Si Si4 0.309806 0.877356 0.890671
Si Si5 0.192797 0.305699 0.734162
O O1 0.256403 0.885704 0.500000
O O2 0.263403 0.946654 0.360730
O O3 0.234210 0.846487 0.333807
O O4 0.000000 0.898556 0.399435
O O5 0.500000 0.500000 0.360803
O O6 0.695511 0.500000 0.500000
O O7 0.500000 0.500000 0.144051
O O8 0.666813 0.584563 0.138306
O O9 0.500000 0.555180 0.000000
O O10 0.500000 0.892614 0.870456
O O11 0.276360 0.827006 0.835906
O O12 0.298209 0.870970 0.000000
O O13 0.250000 0.250000 0.721867
O O14 0.000000 0.306213 0.718427
#
# Coordination Sequence:
#
# PCOD9494048 Si02
#       5
#    16   8   8  16  16
#     4   9  18  35  59  85 114 148 185 229 282 340
#     4   7  12  28  55  83 108 139 180 222 270 330
#     4   9  18  34  60  90 117 155 199 234 284 347
#     4   9  20  39  59  84 120 155 194 242 291 344
#     4  11  24  39  57  81 110 148 192 241 294 343
#
# _framework density 19.894054000000001
#
# number of rings (size 3 to 8) (size 9 to 14) (size 15 to 20)
#    0.000    2.750    0.000    2.250    3.500    2.000 
#    2.250    3.125    0.000    2.250    0.000    0.000 
#    0.000    0.000    0.000    0.000    0.000    0.000 
#
# Total GULP energy -178399.817680 kJ/mol
# GULP energy per Si atom -5574.994303 kJ/mol
# Density = 1.984877 g / cm^3
# Si number density = 19.894054 Si / 1000 Ang^3
#
#
#
# Elastic Constant Matrix: (Units=GPa)
#
#
# Indices 1 2 3 4 5 6 
#
# 1 55.0684 66.4370 35.2461 0.0000 0.0000 0.0000
# 2 66.4370 203.6838 60.4165 0.0000 0.0000 0.0000
# 3 35.2461 60.4165 62.1614 0.0000 0.0000 0.0000
# 4 0.0000 0.0000 0.0000 28.6723 0.0000 0.0000
# 5 0.0000 0.0000 0.0000 0.0000 84.6788 0.0000
# 6 0.0000 0.0000 0.0000 0.0000 0.0000 14.9143
#
#
#
# Elastic Compliance Matrix: (Units=1/GPa)
#
#
# Indices 1 2 3 4 5 6 
#
# 1 0.035791 -0.007945 -0.012572 0.000000 0.000000 0.000000
# 2 -0.007945 0.008662 -0.003914 0.000000 0.000000 0.000000
# 3 -0.012572 -0.003914 0.027019 0.000000 0.000000 0.000000
# 4 0.000000 0.000000 0.000000 0.034877 0.000000 0.000000
# 5 0.000000 0.000000 0.000000 0.000000 0.011809 0.000000
# 6 0.000000 0.000000 0.000000 0.000000 0.000000 0.067050
#
#
# Mechanical properties :
#
#
# Convention : Reuss Voigt Hill
#
# Bulk Modulus (GPa) = 44.22625 71.67921 57.95273
# Shear Modulus (GPa) = 20.69473 36.24068 28.46771
#
# Velocity S-wave (km/s) = 3.22879 4.27275 3.78691
# Velocity P-wave (km/s) = 6.01492 7.77499 6.95089
#
# Compressibility (1/GPa) = 0.02261101
#
# Stress axis : x y z
#
# Youngs Moduli (GPa) = 27.93982 115.44595 37.01031
#
# Poissons Ratio (x) = 0.91725 0.46528
# Poissons Ratio (y) = 0.22199 0.14485
# Poissons Ratio (z) = 0.35125 0.45184
#
# Static dielectric constant tensor:
#      x y z
#    x 1.704080 0.000000 0.000000 
#    y 0.000000 1.169510 0.000000 
#    z 0.000000 0.000000 1.731790 
# 
# From -- ./inp_files/36013.got.cif
#   From: 2010.05.17/outbox.cif.g08.bks.cpg/sg65_19_cif.got.tgz:36013.got - 2010.06.03 17:01:31.
