data_PCOD9494533
_publ_section_title
;
Structure prediction by ZEFSAII (Michael W. Deem and Ramdas Pophale) SiO2 
 PCOD9494533
Probable space group: C M M M
;
_chemical_formula_sum "Si O2"
_cell_formula_units_Z 96
_cell_length_a 19.864838
_cell_length_b 28.387683
_cell_length_c 7.406072
_cell_angle_alpha 90.000000
_cell_angle_beta 90.000000
_cell_angle_gamma 90.000000
_cell_volume 4176.407860
_symmetry_space_group_name_H-M "C M M M"
_symmetry_group_IT_number 65
_symmetry_cell_setting 'orthorhombic'
loop_
_space_group_symop_operation_xyz
x,y,z
-x,-y,z
x,-y,-z
-x,y,-z
-x,-y,-z
x,y,-z
-x,y,z
x,-y,z
1/2+x,1/2+y,z
1/2-x,1/2-y,z
1/2+x,1/2-y,-z
1/2-x,1/2+y,-z
1/2-x,1/2-y,-z
1/2+x,1/2+y,-z
1/2-x,1/2+y,z
1/2+x,1/2-y,z
loop_
_atom_site_type_symbol
_atom_site_label
_atom_site_fract_x
_atom_site_fract_y
_atom_site_fract_z
Si Si1 0.426551 0.421928 0.293885
Si Si2 0.923588 0.651772 0.221026
Si Si3 0.368655 0.946402 0.208425
Si Si4 0.782142 0.943950 0.296693
Si Si5 0.324567 0.235209 0.220536
Si Si6 0.072888 0.186151 0.216340
O O1 0.424983 0.440546 0.500000
O O2 0.500000 0.435963 0.216494
O O3 0.354526 0.433896 0.208713
O O4 0.425976 0.365481 0.297934
O O5 0.908464 0.598317 0.284412
O O6 0.864298 0.687869 0.277963
O O7 0.000000 0.665701 0.271954
O O8 0.921924 0.651584 0.000000
O O9 0.289541 0.931615 0.212039
O O10 0.375210 0.000000 0.285185
O O11 0.389199 0.950267 0.000000
O O12 0.782877 0.923438 0.500000
O O13 0.779843 0.000000 0.308888
O O14 0.250000 0.250000 0.279453
O O15 0.370454 0.278899 0.276796
O O16 0.323064 0.233086 0.000000
O O17 0.000000 0.207921 0.251670
O O18 0.078967 0.179595 0.000000
#
# Coordination Sequence:
#
# PCOD9494533 Si02
#       6
#    16  16  16  16  16  16
#     4   9  18  31  47  68  93 123 159 197 238 283
#     4   9  17  29  46  69  98 129 160 198 241 283
#     4   9  18  31  49  74  99 124 156 196 243 291
#     4   9  18  32  49  68  93 126 160 196 238 285
#     4   9  17  27  42  68  97 126 159 195 233 276
#     4   9  17  29  46  67  92 122 155 192 232 277
#
# _framework density 22.986262
#
# number of rings (size 3 to 8) (size 9 to 14) (size 15 to 20)
#    0.000    3.000    0.000    0.500    2.333    3.333 
#    0.000    3.333    0.000    2.000    0.000    7.000 
#    0.000    0.000    0.000    0.000    0.000    0.000 
#
# Total GULP energy -267460.955840 kJ/mol
# GULP energy per Si atom -5572.103247 kJ/mol
# Density = 2.293394 g / cm^3
# Si number density = 22.986262 Si / 1000 Ang^3
#
#
#
# Elastic Constant Matrix: (Units=GPa)
#
#
# Indices 1 2 3 4 5 6 
#
# 1 147.2027 67.4885 7.1553 0.0000 0.0000 0.0000
# 2 67.4885 92.4150 3.8712 0.0000 0.0000 0.0000
# 3 7.1553 3.8712 70.1487 0.0000 0.0000 0.0000
# 4 0.0000 0.0000 0.0000 6.8561 0.0000 0.0000
# 5 0.0000 0.0000 0.0000 0.0000 -54.4305 0.0000
# 6 0.0000 0.0000 0.0000 0.0000 0.0000 46.9523
#
#
#
# Elastic Compliance Matrix: (Units=1/GPa)
#
#
# Indices 1 2 3 4 5 6 
#
# 1 0.010241 -0.007452 -0.000633 0.000000 0.000000 0.000000
# 2 -0.007452 0.016269 -0.000138 0.000000 0.000000 0.000000
# 3 -0.000633 -0.000138 0.014328 0.000000 0.000000 0.000000
# 4 0.000000 0.000000 0.000000 0.145856 0.000000 0.000000
# 5 0.000000 0.000000 0.000000 0.000000 -0.018372 0.000000
# 6 0.000000 0.000000 0.000000 0.000000 0.000000 0.021298
#
#
# Mechanical properties :
#
#
# Convention : Reuss Voigt Hill
#
# Bulk Modulus (GPa) = 40.99897 51.86627 46.43262
# Shear Modulus (GPa) = 23.34320 15.29234 19.31777
#
# Velocity S-wave (km/s) = 3.19019 2.58210 2.90212
# Velocity P-wave (km/s) = 5.60757 5.61273 5.61015
#
# Compressibility (1/GPa) = 0.02439085
#
# Stress axis : x y z
#
# Youngs Moduli (GPa) = 97.64971 61.46828 69.79521
#
# Poissons Ratio (x) = 0.45806 0.04420
# Poissons Ratio (y) = 0.72769 0.00961
# Poissons Ratio (z) = 0.06184 0.00846
#
# Static dielectric constant tensor:
#      x y z
#    x 1.932690 0.000000 0.000000 
#    y 0.000000 1.821890 0.000000 
#    z 0.000000 0.000000 1.904730 
# 
# From -- ./inp_files/27143.got.cif
#   From: 2010.05.17/outbox.cif.g08.bks.cpg/sg65_14_cif.got.tgz:27143.got - 2010.06.03 17:01:31.
