data_PCOD9494283
_publ_section_title
;
Structure prediction by ZEFSAII (Michael W. Deem and Ramdas Pophale) SiO2 
 PCOD9494283
Probable space group: C M M M
;
_chemical_formula_sum "Si O2"
_cell_formula_units_Z 88
_cell_length_a 14.547895
_cell_length_b 7.760631
_cell_length_c 32.706660
_cell_angle_alpha 90.000000
_cell_angle_beta 90.000000
_cell_angle_gamma 90.000000
_cell_volume 3692.609549
_symmetry_space_group_name_H-M "C M M M"
_symmetry_group_IT_number 65
_symmetry_cell_setting 'orthorhombic'
loop_
_space_group_symop_operation_xyz
x,y,z
-x,-y,z
x,-y,-z
-x,y,-z
-x,-y,-z
x,y,-z
-x,y,z
x,-y,z
1/2+x,1/2+y,z
1/2-x,1/2-y,z
1/2+x,1/2-y,-z
1/2-x,1/2+y,-z
1/2-x,1/2-y,-z
1/2+x,1/2+y,-z
1/2-x,1/2+y,z
1/2+x,1/2-y,z
loop_
_atom_site_type_symbol
_atom_site_label
_atom_site_fract_x
_atom_site_fract_y
_atom_site_fract_z
Si Si1 0.859019 0.792001 0.632116
Si Si2 0.358952 0.292115 0.544043
Si Si3 0.142963 0.207170 0.719916
Si Si4 0.112842 0.000000 0.953257
Si Si5 0.891289 0.193939 0.809716
Si Si6 0.887657 0.685595 0.897215
O O1 0.750000 0.750000 0.631717
O O2 0.894708 0.728774 0.588077
O O3 0.895505 0.729664 0.676169
O O4 0.869386 0.000000 0.632380
O O5 0.394536 0.228602 0.500000
O O6 0.369942 0.500000 0.544081
O O7 0.250000 0.250000 0.543993
O O8 0.250000 0.250000 0.717290
O O9 0.117025 0.275067 0.764686
O O10 0.125746 0.000000 0.721179
O O11 0.142047 0.835530 0.927088
O O12 0.000000 0.000000 0.953924
O O13 0.143858 0.000000 0.000000
O O14 0.857319 0.287651 0.850227
O O15 0.000000 0.176846 0.815874
O O16 0.850904 0.000000 0.808561
O O17 0.857540 0.500000 0.912037
O O18 0.000000 0.687912 0.897038
#
# Coordination Sequence:
#
# PCOD9494283 Si02
#       6
#    16  16  16   8  16  16
#     4   8  13  21  31  45  67  94 124 155 199 249
#     4   8  12  17  26  40  59  85 117 152 188 235
#     4   9  17  27  40  58  81 109 136 173 216 257
#     4   9  16  26  40  60  90 122 148 180 220 262
#     4   9  16  28  44  59  80 113 148 179 214 256
#     4   9  16  26  41  61  85 116 150 181 218 261
#
# _framework density 23.831385999999998
#
# number of rings (size 3 to 8) (size 9 to 14) (size 15 to 20)
#    0.000    3.364    0.909    0.000    0.000    1.091 
#    0.000    1.818    0.000    0.000    0.000    0.000 
#    0.000    1.455    0.364   10.182    0.000    3.455 
#
# Total GULP energy -245189.531771 kJ/mol
# GULP energy per Si atom -5572.489358 kJ/mol
# Density = 2.377714 g / cm^3
# Si number density = 23.831386 Si / 1000 Ang^3
#
#
#
# Elastic Constant Matrix: (Units=GPa)
#
#
# Indices 1 2 3 4 5 6 
#
# 1 70.2459 1.2983 6.5018 0.0000 0.0000 0.0000
# 2 1.2983 89.8989 84.2439 0.0000 0.0000 0.0000
# 3 6.5018 84.2439 281.3004 0.0000 0.0000 0.0000
# 4 0.0000 0.0000 0.0000 -12.8031 0.0000 0.0000
# 5 0.0000 0.0000 0.0000 0.0000 12.3696 0.0000
# 6 0.0000 0.0000 0.0000 0.0000 0.0000 -6.8127
#
#
#
# Elastic Compliance Matrix: (Units=1/GPa)
#
#
# Indices 1 2 3 4 5 6 
#
# 1 0.014268 0.000143 -0.000373 0.000000 0.000000 0.000000
# 2 0.000143 0.015465 -0.004635 0.000000 0.000000 0.000000
# 3 -0.000373 -0.004635 0.004952 0.000000 0.000000 0.000000
# 4 0.000000 0.000000 0.000000 -0.078106 0.000000 0.000000
# 5 0.000000 0.000000 0.000000 0.000000 0.080843 0.000000
# 6 0.000000 0.000000 0.000000 0.000000 0.000000 -0.146784
#
#
# Mechanical properties :
#
#
# Convention : Reuss Voigt Hill
#
# Bulk Modulus (GPa) = 40.07143 69.50367 54.78755
# Shear Modulus (GPa) = -54.75452 21.84417 -16.45518
#
# Velocity S-wave (km/s) = -4.79851 3.03085 -2.63056
# Velocity P-wave (km/s) = 3.72154 6.44020 3.71660
#
# Compressibility (1/GPa) = 0.02495544
#
# Stress axis : x y z
#
# Youngs Moduli (GPa) = 70.08911 64.66350 201.95797
#
# Poissons Ratio (x) = -0.00926 0.07526
# Poissons Ratio (y) = -0.01003 0.93601
# Poissons Ratio (z) = 0.02612 0.29969
#
# Static dielectric constant tensor:
#      x y z
#    x 2.072850 0.000000 0.000000 
#    y 0.000000 1.484500 0.000000 
#    z 0.000000 0.000000 1.951270 
# 
# From -- ./inp_files/78127.got.cif
#   From: 2010.05.17/outbox.cif.g08.bks.cpg/sg65_40_cif.got.tgz:78127.got - 2010.06.03 17:01:31.
