data_PCOD9494964
_publ_section_title
;
Structure prediction by ZEFSAII (Michael W. Deem and Ramdas Pophale) SiO2 
 PCOD9494964
Probable space group: C C C M
;
_chemical_formula_sum "Si O2"
_cell_formula_units_Z 64
_cell_length_a 7.492652
_cell_length_b 19.363902
_cell_length_c 22.137756
_cell_angle_alpha 90.000000
_cell_angle_beta 90.000000
_cell_angle_gamma 90.000000
_cell_volume 3211.900141
_symmetry_space_group_name_H-M "C C C M"
_symmetry_group_IT_number 66
_symmetry_cell_setting 'orthorhombic'
loop_
_space_group_symop_operation_xyz
x,y,z
-x,-y,z
x,-y,1/2-z
-x,y,1/2-z
-x,-y,-z
x,y,-z
-x,y,1/2+z
x,-y,1/2+z
1/2+x,1/2+y,z
1/2-x,1/2-y,z
1/2+x,1/2-y,1/2-z
1/2-x,1/2+y,1/2-z
1/2-x,1/2-y,-z
1/2+x,1/2+y,-z
1/2-x,1/2+y,1/2+z
1/2+x,1/2-y,1/2+z
loop_
_atom_site_type_symbol
_atom_site_label
_atom_site_fract_x
_atom_site_fract_y
_atom_site_fract_z
Si Si1 0.621034 0.814453 0.690010
Si Si2 0.603214 0.810082 0.067370
Si Si3 0.792296 0.472093 0.812457
Si Si4 0.797420 0.530836 0.934870
O O1 0.500000 0.817012 0.750000
O O2 0.750000 0.750000 0.697306
O O3 0.518815 0.804782 0.626431
O O4 0.710479 0.889719 0.686741
O O5 0.750000 0.750000 0.070274
O O6 0.688312 0.886569 0.070013
O O7 0.516206 0.805339 0.000000
O O8 0.714416 0.500000 0.750000
O O9 0.712762 0.500981 0.874388
O O10 0.000000 0.500000 0.812600
O O11 0.000000 0.500000 0.936345
O O12 0.716865 0.512522 0.000000
#
# Coordination Sequence:
#
# PCOD9494964 Si02
#       4
#    16  16  16  16
#     4  12  23  36  56  86 114 144 184 231 280 326
#     4  10  20  35  56  84 115 147 181 224 278 331
#     4  10  16  31  55  77  98 135 188 230 254 305
#     4   9  15  27  52  80 100 132 189 227 249 306
#
# _framework density 19.925898
#
# number of rings (size 3 to 8) (size 9 to 14) (size 15 to 20)
#    0.000    1.750    7.500    0.750    0.000    0.500 
#    0.000    0.000    0.000    5.250    0.000    5.250 
#    0.000    0.000    0.000    0.000    0.000    0.000 
#
# Total GULP energy -178411.893522 kJ/mol
# GULP energy per Si atom -5575.371673 kJ/mol
# Density = 1.988055 g / cm^3
# Si number density = 19.925898 Si / 1000 Ang^3
#
#
#
# Elastic Constant Matrix: (Units=GPa)
#
#
# Indices 1 2 3 4 5 6 
#
# 1 24.2670 24.1677 23.3593 0.0000 0.0000 0.0000
# 2 24.1677 173.4712 50.4889 0.0000 0.0000 0.0000
# 3 23.3593 50.4889 226.6219 0.0000 0.0000 0.0000
# 4 0.0000 0.0000 0.0000 -199.3484 0.0000 0.0000
# 5 0.0000 0.0000 0.0000 0.0000 -0.0552 0.0000
# 6 0.0000 0.0000 0.0000 0.0000 0.0000 20.7049
#
#
#
# Elastic Compliance Matrix: (Units=1/GPa)
#
#
# Indices 1 2 3 4 5 6 
#
# 1 0.050910 -0.005951 -0.003922 0.000000 0.000000 0.000000
# 2 -0.005951 0.006860 -0.000915 0.000000 0.000000 0.000000
# 3 -0.003922 -0.000915 0.005021 0.000000 0.000000 0.000000
# 4 0.000000 0.000000 0.000000 -0.005016 0.000000 0.000000
# 5 0.000000 0.000000 0.000000 0.000000-18.122701 0.000000
# 6 0.000000 0.000000 0.000000 0.000000 0.000000 0.048298
#
#
# Mechanical properties :
#
#
# Convention : Reuss Voigt Hill
#
# Bulk Modulus (GPa) = 24.26296 68.93244 46.59770
# Shear Modulus (GPa) = -0.27807 -13.98345 -7.13076
#
# Velocity S-wave (km/s) = -0.37397 -2.65197 -1.89378
# Velocity P-wave (km/s) = 3.46649 5.02914 4.31907
#
# Compressibility (1/GPa) = 0.04121508
#
# Stress axis : x y z
#
# Youngs Moduli (GPa) = 19.64241 145.77135 199.17512
#
# Poissons Ratio (x) = 0.86753 0.78112
# Poissons Ratio (y) = 0.11690 0.18223
# Poissons Ratio (z) = 0.07703 0.13337
#
# Static dielectric constant tensor:
#      x y z
#    x 1.651730 0.000000 0.000000 
#    y 0.000000 1.664240 0.000000 
#    z 0.000000 0.000000 1.193340 
# 
# From -- ./inp_files/54950.got.cif
#   From: 2010.05.17/outbox.cif.g08.bks.cpg/sg66_28_cif.got.tgz:54950.got - 2010.06.03 17:51:23.
