data_PCOD9494196
_publ_section_title
;
Structure prediction by ZEFSAII (Michael W. Deem and Ramdas Pophale) SiO2 
 PCOD9494196
Probable space group: C M M M
;
_chemical_formula_sum "Si O2"
_cell_formula_units_Z 72
_cell_length_a 11.068006
_cell_length_b 14.400487
_cell_length_c 20.128945
_cell_angle_alpha 90.000000
_cell_angle_beta 90.000000
_cell_angle_gamma 90.000000
_cell_volume 3208.245387
_symmetry_space_group_name_H-M "C M M M"
_symmetry_group_IT_number 65
_symmetry_cell_setting 'orthorhombic'
loop_
_space_group_symop_operation_xyz
x,y,z
-x,-y,z
x,-y,-z
-x,y,-z
-x,-y,-z
x,y,-z
-x,y,z
x,-y,z
1/2+x,1/2+y,z
1/2-x,1/2-y,z
1/2+x,1/2-y,-z
1/2-x,1/2+y,-z
1/2-x,1/2-y,-z
1/2+x,1/2+y,-z
1/2-x,1/2+y,z
1/2+x,1/2-y,z
loop_
_atom_site_type_symbol
_atom_site_label
_atom_site_fract_x
_atom_site_fract_y
_atom_site_fract_z
Si Si1 0.635588 0.818371 0.926581
Si Si2 0.000000 0.394165 0.580551
Si Si3 0.868704 0.608412 0.782230
Si Si4 0.234198 0.113326 0.574955
Si Si5 0.129602 0.886922 0.710880
O O1 0.500000 0.773823 0.923820
O O2 0.750000 0.750000 0.922316
O O3 0.641037 0.881724 0.861690
O O4 0.642822 0.863494 0.000000
O O5 0.868745 0.353793 0.596060
O O6 0.000000 0.500000 0.607168
O O7 0.000000 0.600216 0.500000
O O8 0.871272 0.500000 0.764922
O O9 0.747679 0.646715 0.749329
O O10 0.000000 0.646924 0.761236
O O11 0.204596 0.144046 0.500000
O O12 0.143981 0.137528 0.633440
O O13 0.240477 0.000000 0.572476
O O14 0.000000 0.856333 0.737647
O O15 0.130361 0.000000 0.714293
#
# Coordination Sequence:
#
# PCOD9494196 Si02
#       5
#    16   8  16  16  16
#     4   9  18  33  53  76  99 123 154 192 233 276
#     4   7  10  16  26  42  62  88 129 179 223 261
#     4   9  18  31  47  68  95 128 161 192 229 276
#     4   8  13  20  31  48  72 106 149 192 231 272
#     4   9  17  26  36  54  83 119 155 192 234 278
#
# _framework density 22.442173
#
# number of rings (size 3 to 8) (size 9 to 14) (size 15 to 20)
#    0.000    3.444    0.000    1.333    1.556    1.778 
#    0.000    4.444    0.000    0.000    0.000    6.222 
#    0.000    0.889    0.000    1.778    0.000    4.000 
#
# Total GULP energy -200656.357772 kJ/mol
# GULP energy per Si atom -5573.787716 kJ/mol
# Density = 2.239109 g / cm^3
# Si number density = 22.442173 Si / 1000 Ang^3
#
#
#
# Elastic Constant Matrix: (Units=GPa)
#
#
# Indices 1 2 3 4 5 6 
#
# 1 204.0860 13.6749 75.0201 0.0000 0.0000 0.0000
# 2 13.6749 72.7437 7.0823 0.0000 0.0000 0.0000
# 3 75.0201 7.0823 94.0243 0.0000 0.0000 0.0000
# 4 0.0000 0.0000 0.0000 65.6988 0.0000 0.0000
# 5 0.0000 0.0000 0.0000 0.0000 -30.0558 0.0000
# 6 0.0000 0.0000 0.0000 0.0000 0.0000 -8.2464
#
#
#
# Elastic Compliance Matrix: (Units=1/GPa)
#
#
# Indices 1 2 3 4 5 6 
#
# 1 0.006977 -0.000775 -0.005508 0.000000 0.000000 0.000000
# 2 -0.000775 0.013935 -0.000431 0.000000 0.000000 0.000000
# 3 -0.005508 -0.000431 0.015063 0.000000 0.000000 0.000000
# 4 0.000000 0.000000 0.000000 0.015221 0.000000 0.000000
# 5 0.000000 0.000000 0.000000 0.000000 -0.033271 0.000000
# 6 0.000000 0.000000 0.000000 0.000000 0.000000 -0.121264
#
#
# Mechanical properties :
#
#
# Convention : Reuss Voigt Hill
#
# Bulk Modulus (GPa) = 44.35531 62.48985 53.42258
# Shear Modulus (GPa) = -60.68166 23.81777 -18.43194
#
# Velocity S-wave (km/s) = -5.20556 3.26129 -2.86896
# Velocity P-wave (km/s) = 4.04020 6.48742 3.58910
#
# Compressibility (1/GPa) = 0.02254522
#
# Stress axis : x y z
#
# Youngs Moduli (GPa) = 143.33735 71.76379 66.38878
#
# Poissons Ratio (x) = 0.05563 0.36567
# Poissons Ratio (y) = 0.11112 0.02862
# Poissons Ratio (z) = 0.78951 0.03094
#
# Static dielectric constant tensor:
#      x y z
#    x 1.868320 0.000000 0.000000 
#    y 0.000000 1.840180 0.000000 
#    z 0.000000 0.000000 1.820430 
# 
# From -- ./inp_files/51269.got.cif
#   From: 2010.05.17/outbox.cif.g08.bks.cpg/sg65_26_cif.got.tgz:51269.got - 2010.06.03 17:01:31.
