data_PCOD9494248
_publ_section_title
;
Structure prediction by ZEFSAII (Michael W. Deem and Ramdas Pophale) SiO2 
 PCOD9494248
Probable space group: C M M M
;
_chemical_formula_sum "Si O2"
_cell_formula_units_Z 80
_cell_length_a 14.522006
_cell_length_b 7.184074
_cell_length_c 28.789820
_cell_angle_alpha 90.000000
_cell_angle_beta 90.000000
_cell_angle_gamma 90.000000
_cell_volume 3003.560323
_symmetry_space_group_name_H-M "C M M M"
_symmetry_group_IT_number 65
_symmetry_cell_setting 'orthorhombic'
loop_
_space_group_symop_operation_xyz
x,y,z
-x,-y,z
x,-y,-z
-x,y,-z
-x,-y,-z
x,y,-z
-x,y,z
x,-y,z
1/2+x,1/2+y,z
1/2-x,1/2-y,z
1/2+x,1/2-y,-z
1/2-x,1/2+y,-z
1/2-x,1/2-y,-z
1/2+x,1/2+y,-z
1/2-x,1/2+y,z
1/2+x,1/2-y,z
loop_
_atom_site_type_symbol
_atom_site_label
_atom_site_fract_x
_atom_site_fract_y
_atom_site_fract_z
Si Si1 0.609523 0.710242 0.748136
Si Si2 0.360866 0.278388 0.949912
Si Si3 0.141223 0.220283 0.149948
Si Si4 0.608901 0.274024 0.350613
Si Si5 0.610318 0.275770 0.450193
O O1 0.500000 0.695778 0.741237
O O2 0.648744 0.500000 0.751937
O O3 0.618451 0.796547 0.799112
O O4 0.644925 0.792659 0.699467
O O5 0.377483 0.500000 0.949687
O O6 0.250000 0.250000 0.950302
O O7 0.394880 0.208410 0.899782
O O8 0.394183 0.207603 0.000000
O O9 0.250000 0.250000 0.146819
O O10 0.117762 0.000000 0.151278
O O11 0.500000 0.228390 0.352496
O O12 0.615045 0.500000 0.349226
O O13 0.647241 0.209378 0.400328
O O14 0.646479 0.207314 0.500000
O O15 0.500000 0.238967 0.450373
O O16 0.619639 0.500000 0.450090
#
# Coordination Sequence:
#
# PCOD9494248 Si02
#       5
#    16  16  16  16  16
#     4   8  13  21  33  48  66  90 118 143 168 203
#     4   8  13  21  33  49  68  88 110 137 169 203
#     4   9  16  25  38  55  73  92 115 145 176 204
#     4   7   9  13  21  34  53  77 105 134 161 193
#     4   7   8   9  14  26  46  72  99 126 158 194
#
# _framework density 26.635057
#
# number of rings (size 3 to 8) (size 9 to 14) (size 15 to 20)
#    0.000    4.200    0.000    3.000    0.000    0.000 
#    0.000    0.000    0.000    1.200    0.000    4.200 
#    0.000    0.800    0.000   33.000    0.000   18.200 
#
# Total GULP energy -222834.577899 kJ/mol
# GULP energy per Si atom -5570.864447 kJ/mol
# Density = 2.657443 g / cm^3
# Si number density = 26.635057 Si / 1000 Ang^3
#
#
#
# Elastic Constant Matrix: (Units=GPa)
#
#
# Indices 1 2 3 4 5 6 
#
# 1 89.9465 -9.6641 15.6246 0.0000 0.0000 0.0000
# 2 -9.6641 143.4656 25.4861 0.0000 0.0000 0.0000
# 3 15.6246 25.4861 448.8944 0.0000 0.0000 0.0000
# 4 0.0000 0.0000 0.0000 -46.1329 0.0000 0.0000
# 5 0.0000 0.0000 0.0000 0.0000 12.9179 0.0000
# 6 0.0000 0.0000 0.0000 0.0000 0.0000 -12.3413
#
#
#
# Elastic Compliance Matrix: (Units=1/GPa)
#
#
# Indices 1 2 3 4 5 6 
#
# 1 0.011284 0.000838 -0.000440 0.000000 0.000000 0.000000
# 2 0.000838 0.007104 -0.000432 0.000000 0.000000 0.000000
# 3 -0.000440 -0.000432 0.002268 0.000000 0.000000 0.000000
# 4 0.000000 0.000000 0.000000 -0.021676 0.000000 0.000000
# 5 0.000000 0.000000 0.000000 0.000000 0.077412 0.000000
# 6 0.000000 0.000000 0.000000 0.000000 0.000000 -0.081029
#
#
# Mechanical properties :
#
#
# Convention : Reuss Voigt Hill
#
# Bulk Modulus (GPa) = 48.57556 82.79996 65.68776
# Shear Modulus (GPa) = 2180.40680 34.27941 1107.34310
#
# Velocity S-wave (km/s) = 28.64263 3.59137 20.41198
# Velocity P-wave (km/s) = 33.34882 6.95353 24.08833
#
# Compressibility (1/GPa) = 0.02058648
#
# Stress axis : x y z
#
# Youngs Moduli (GPa) = 88.61879 140.77341 440.99915
#
# Poissons Ratio (x) = -0.11802 0.19420
# Poissons Ratio (y) = -0.07429 0.19073
# Poissons Ratio (z) = 0.03902 0.06088
#
# Static dielectric constant tensor:
#      x y z
#    x 2.122130 0.000000 0.000000 
#    y 0.000000 2.008790 0.000000 
#    z 0.000000 0.000000 2.190520 
# 
# From -- ./inp_files/74182.got.cif
#   From: 2010.05.17/outbox.cif.g08.bks.cpg/sg65_38_cif.got.tgz:74182.got - 2010.06.03 17:01:31.
