data_PCOD9494408
_publ_section_title
;
Structure prediction by ZEFSAII (Michael W. Deem and Ramdas Pophale) SiO2 
 PCOD9494408
Probable space group: C M M M
;
_chemical_formula_sum "Si O2"
_cell_formula_units_Z 88
_cell_length_a 18.850126
_cell_length_b 7.394268
_cell_length_c 30.215385
_cell_angle_alpha 90.000000
_cell_angle_beta 90.000000
_cell_angle_gamma 90.000000
_cell_volume 4211.507487
_symmetry_space_group_name_H-M "C M M M"
_symmetry_group_IT_number 65
_symmetry_cell_setting 'orthorhombic'
loop_
_space_group_symop_operation_xyz
x,y,z
-x,-y,z
x,-y,-z
-x,y,-z
-x,-y,-z
x,y,-z
-x,y,z
x,-y,z
1/2+x,1/2+y,z
1/2-x,1/2-y,z
1/2+x,1/2-y,-z
1/2-x,1/2+y,-z
1/2-x,1/2-y,-z
1/2+x,1/2+y,-z
1/2-x,1/2+y,z
1/2+x,1/2-y,z
loop_
_atom_site_type_symbol
_atom_site_label
_atom_site_fract_x
_atom_site_fract_y
_atom_site_fract_z
Si Si1 0.081860 0.278593 0.365141
Si Si2 0.666756 0.216139 0.450718
Si Si3 0.165813 0.283485 0.913665
Si Si4 0.417984 0.778609 0.000000
Si Si5 0.665859 0.783516 0.721051
Si Si6 0.665387 0.784119 0.182683
O O1 0.084184 0.500000 0.365185
O O2 0.120469 0.216182 0.409899
O O3 0.123453 0.216347 0.321429
O O4 0.000000 0.225548 0.364131
O O5 0.649379 0.286350 0.500000
O O6 0.750000 0.250000 0.442660
O O7 0.656964 0.000000 0.452156
O O8 0.157030 0.500000 0.912585
O O9 0.250000 0.250000 0.918788
O O10 0.141158 0.214225 0.865279
O O11 0.122630 0.216579 0.955878
O O12 0.500000 0.725394 0.000000
O O13 0.415937 0.000000 0.000000
O O14 0.750000 0.750000 0.716224
O O15 0.640916 0.714281 0.769388
O O16 0.656854 0.000000 0.722096
O O17 0.750000 0.750000 0.182726
O O18 0.653438 0.000000 0.182671
#
# Coordination Sequence:
#
# PCOD9494408 Si02
#       6
#    16  16  16   8  16  16
#     4   9  17  28  42  62  87 112 138 169 204 241
#     4   9  17  29  46  66  85 107 137 172 207 243
#     4   9  16  27  44  63  82 105 135 170 204 240
#     4   9  17  28  41  59  84 111 136 164 202 245
#     4   9  16  27  44  63  83 108 137 169 204 241
#     4   8  14  24  39  61  83 102 130 167 204 239
#
# _framework density 20.895129000000001
#
# number of rings (size 3 to 8) (size 9 to 14) (size 15 to 20)
#    0.000    3.182    0.000    0.818    0.000    0.364 
#    0.000    2.727    0.000    8.727    0.000    2.545 
#    0.000   14.545    0.000    0.000    0.000    0.000 
#
# Total GULP energy -245313.103423 kJ/mol
# GULP energy per Si atom -5575.297805 kJ/mol
# Density = 2.084757 g / cm^3
# Si number density = 20.895129 Si / 1000 Ang^3
#
#
#
# Elastic Constant Matrix: (Units=GPa)
#
#
# Indices 1 2 3 4 5 6 
#
# 1 98.9120 -1.6210 130.3561 0.0000 0.0000 0.0000
# 2 -1.6210 75.5791 13.4924 0.0000 0.0000 0.0000
# 3 130.3561 13.4924 291.7547 0.0000 0.0000 0.0000
# 4 0.0000 0.0000 0.0000-1012.9813 0.0000 0.0000
# 5 0.0000 0.0000 0.0000 0.0000 -4.3161 0.0000
# 6 0.0000 0.0000 0.0000 0.0000 0.0000 12.2683
#
#
#
# Elastic Compliance Matrix: (Units=1/GPa)
#
#
# Indices 1 2 3 4 5 6 
#
# 1 0.025070 0.002558 -0.011320 0.000000 0.000000 0.000000
# 2 0.002558 0.013602 -0.001772 0.000000 0.000000 0.000000
# 3 -0.011320 -0.001772 0.008567 0.000000 0.000000 0.000000
# 4 0.000000 0.000000 0.000000 -0.000987 0.000000 0.000000
# 5 0.000000 0.000000 0.000000 0.000000 -0.231693 0.000000
# 6 0.000000 0.000000 0.000000 0.000000 0.000000 0.081511
#
#
# Mechanical properties :
#
#
# Convention : Reuss Voigt Hill
#
# Bulk Modulus (GPa) = 38.20742 83.41118 60.80930
# Shear Modulus (GPa) = -67.44061 -179.40456 -123.42259
#
# Velocity S-wave (km/s) = -5.68734 -9.27609 -7.69388
# Velocity P-wave (km/s) = 4.98024 8.64420 7.05425
#
# Compressibility (1/GPa) = 0.02617293
#
# Stress axis : x y z
#
# Youngs Moduli (GPa) = 39.88822 73.51639 116.72557
#
# Poissons Ratio (x) = -0.18809 1.32129
# Poissons Ratio (y) = -0.10205 0.20686
# Poissons Ratio (z) = 0.45152 0.13028
#
# Static dielectric constant tensor:
#      x y z
#    x 1.669310 0.000000 0.000000 
#    y 0.000000 1.784030 0.000000 
#    z 0.000000 0.000000 1.794790 
# 
# From -- ./inp_files/77594.got.cif
#   From: 2010.05.17/outbox.cif.g08.bks.cpg/sg65_39_cif.got.tgz:77594.got - 2010.06.03 17:01:31.
