data_PCOD9494726
_publ_section_title
;
Structure prediction by ZEFSAII (Michael W. Deem and Ramdas Pophale) SiO2 
 PCOD9494726
Probable space group: C M M M
;
_chemical_formula_sum "Si O2"
_cell_formula_units_Z 52
_cell_length_a 9.000000
_cell_length_b 27.000000
_cell_length_c 21.000000
_cell_angle_alpha 90.000000
_cell_angle_beta 90.000000
_cell_angle_gamma 90.000000
_cell_volume 5103.000000
_symmetry_space_group_name_H-M "C M M M"
_symmetry_group_IT_number 65
_symmetry_cell_setting 'orthorhombic'
loop_
_space_group_symop_operation_xyz
x,y,z
-x,-y,z
x,-y,-z
-x,y,-z
-x,-y,-z
x,y,-z
-x,y,z
x,-y,z
1/2+x,1/2+y,z
1/2-x,1/2-y,z
1/2+x,1/2-y,-z
1/2-x,1/2+y,-z
1/2-x,1/2-y,-z
1/2+x,1/2+y,-z
1/2-x,1/2+y,z
1/2+x,1/2-y,z
loop_
_atom_site_type_symbol
_atom_site_label
_atom_site_fract_x
_atom_site_fract_y
_atom_site_fract_z
Si Si1 0.828522 0.654895 0.806224
Si Si2 0.175114 0.801289 0.686275
Si Si3 0.178988 0.396548 0.073508
Si Si4 0.831726 0.056832 0.399189
Si Si5 0.331873 0.500000 0.077315
Si Si6 0.832966 0.445823 0.730388
Si Si7 0.673561 0.852127 0.431154
O O1 0.730435 0.684616 0.756627
O O2 0.777335 0.647419 0.878526
O O3 0.825578 0.599162 0.778304
O O4 0.000000 0.672550 0.803821
O O5 0.250000 0.750000 0.669682
O O6 0.236058 0.836134 0.630680
O O7 0.000000 0.799354 0.684683
O O8 0.249618 0.448984 0.093245
O O9 0.000000 0.401195 0.077832
O O10 0.218297 0.386940 0.000000
O O11 0.789451 0.058028 0.324308
O O12 0.710621 0.090033 0.433044
O O13 0.000000 0.075109 0.409904
O O14 0.825528 0.000000 0.419037
O O15 0.500000 0.500000 0.102281
O O16 0.337382 0.500000 0.000000
O O17 0.819407 0.500000 0.760967
O O18 0.000000 0.443379 0.701026
O O19 0.717954 0.830145 0.500000
O O20 0.500000 0.842417 0.421436
#
# Coordination Sequence:
#
# PCOD9494726 Si02
#       7
#    16  16  16  16   8  16  16
#     4  10  20  35  59  87 118 154 197 244 292 347
#     4  12  26  45  69  92 117 146 185 239 299 360
#     4   9  18  32  52  80 116 160 205 245 288 343
#     4  10  20  34  54  83 120 160 201 244 287 334
#     4   9  17  29  45  71 113 163 208 249 290 335
#     4   9  17  29  49  77 112 155 198 239 285 339
#     4  11  24  42  64  90 121 157 197 238 285 345
#
# _framework density 10.190084000000001
#
# number of rings (size 3 to 8) (size 9 to 14) (size 15 to 20)
#    0.000    1.923    1.538    2.538    1.077    4.308 
#    0.000    1.538    0.000    0.462    0.000    0.000 
#    0.000    0.000    0.000    0.000    0.000    0.000 
#
# Total GULP energy -289942.834914 kJ/mol
# GULP energy per Si atom -5575.823748 kJ/mol
# Density = 1.016689 g / cm^3
# Si number density = 10.190084 Si / 1000 Ang^3
#
#
#
# Elastic Constant Matrix: (Units=GPa)
#
#
# Indices 1 2 3 4 5 6 
#
# 1 71.4327 17.6659 36.7273 0.0000 0.0000 0.0000
# 2 17.6659 44.6545 11.9391 0.0000 0.0000 0.0000
# 3 36.7273 11.9391 86.1282 0.0000 0.0000 0.0000
# 4 0.0000 0.0000 0.0000 -26.3671 0.0000 0.0000
# 5 0.0000 0.0000 0.0000 0.0000 -820.3108 0.0000
# 6 0.0000 0.0000 0.0000 0.0000 0.0000 19.0026
#
#
#
# Elastic Compliance Matrix: (Units=1/GPa)
#
#
# Indices 1 2 3 4 5 6 
#
# 1 0.019196 -0.005614 -0.007408 0.000000 0.000000 0.000000
# 2 -0.005614 0.024898 -0.001057 0.000000 0.000000 0.000000
# 3 -0.007408 -0.001057 0.014916 0.000000 0.000000 0.000000
# 4 0.000000 0.000000 0.000000 -0.037926 0.000000 0.000000
# 5 0.000000 0.000000 0.000000 0.000000 -0.001219 0.000000
# 6 0.000000 0.000000 0.000000 0.000000 0.000000 0.052624
#
#
# Mechanical properties :
#
#
# Convention : Reuss Voigt Hill
#
# Bulk Modulus (GPa) = 32.41249 37.20890 34.81070
# Shear Modulus (GPa) = 45.07318 -156.47618 -55.70150
#
# Velocity S-wave (km/s) = 4.70789 -8.77185 -5.23360
# Velocity P-wave (km/s) = 6.74468 9.18132 4.40488
#
# Compressibility (1/GPa) = 0.03085230
#
# Stress axis : x y z
#
# Youngs Moduli (GPa) = 52.09381 40.16430 67.04223
#
# Poissons Ratio (x) = 0.22547 0.49662
# Poissons Ratio (y) = 0.29244 0.07090
# Poissons Ratio (z) = 0.38589 0.04247
#
# Static dielectric constant tensor:
#      x y z
#    x 1.700070 0.000000 0.000000 
#    y 0.000000 1.736340 0.000000 
#    z 0.000000 0.000000 1.784580 
# 
# From -- ./inp_files/60368.got.cif
#   From: 2010.05.17/outbox.ucp.g08.bks.cvg/sg65_31_cif.got.tgz:60368.got - 2010.06.11 16:39:57.
