data_PCOD9494473
_publ_section_title
;
Structure prediction by ZEFSAII (Michael W. Deem and Ramdas Pophale) SiO2 
 PCOD9494473
Probable space group: C M M M
;
_chemical_formula_sum "Si O2"
_cell_formula_units_Z 64
_cell_length_a 7.611575
_cell_length_b 29.766109
_cell_length_c 16.201531
_cell_angle_alpha 90.000000
_cell_angle_beta 90.000000
_cell_angle_gamma 90.000000
_cell_volume 3670.731806
_symmetry_space_group_name_H-M "C M M M"
_symmetry_group_IT_number 65
_symmetry_cell_setting 'orthorhombic'
loop_
_space_group_symop_operation_xyz
x,y,z
-x,-y,z
x,-y,-z
-x,y,-z
-x,-y,-z
x,y,-z
-x,y,z
x,-y,z
1/2+x,1/2+y,z
1/2-x,1/2-y,z
1/2+x,1/2-y,-z
1/2-x,1/2+y,-z
1/2-x,1/2-y,-z
1/2+x,1/2+y,-z
1/2-x,1/2+y,z
1/2+x,1/2-y,z
loop_
_atom_site_type_symbol
_atom_site_label
_atom_site_fract_x
_atom_site_fract_y
_atom_site_fract_z
Si Si1 0.285753 0.948413 0.500000
Si Si2 0.790882 0.551430 0.819762
Si Si3 0.284763 0.106606 0.337325
Si Si4 0.789453 0.699962 0.594670
Si Si5 0.708847 0.448901 0.000000
O O1 0.500000 0.948656 0.500000
O O2 0.232172 0.922217 0.582449
O O3 0.227411 0.000000 0.500000
O O4 0.720163 0.500000 0.816363
O O5 0.722961 0.582456 0.745998
O O6 0.761743 0.570616 0.911651
O O7 0.000000 0.548040 0.808216
O O8 0.500000 0.106711 0.335583
O O9 0.226366 0.157829 0.351956
O O10 0.722263 0.696477 0.500000
O O11 0.750000 0.750000 0.625567
O O12 0.000000 0.696043 0.590111
O O13 0.782982 0.500000 0.000000
O O14 0.500000 0.451263 0.000000
#
# Coordination Sequence:
#
# PCOD9494473 Si02
#       5
#     8  16  16  16   8
#     4   9  14  20  33  56  87 117 141 165 198 243
#     4   9  16  26  42  64  87 110 139 174 209 247
#     4   9  15  24  38  60  87 113 139 171 210 246
#     4   9  16  27  42  59  82 111 143 177 210 243
#     4   9  17  29  43  59  82 113 144 173 208 247
#
# _framework density 17.435214999999999
#
# number of rings (size 3 to 8) (size 9 to 14) (size 15 to 20)
#    0.000    3.000    1.250    1.125    0.000    4.500 
#    0.000    1.250    0.000    0.000    0.000    0.875 
#    0.000    6.000    0.000    0.000    0.000    0.000 
#
# Total GULP energy -178313.191424 kJ/mol
# GULP energy per Si atom -5572.287232 kJ/mol
# Density = 1.739553 g / cm^3
# Si number density = 17.435215 Si / 1000 Ang^3
#
#
#
# Elastic Constant Matrix: (Units=GPa)
#
#
# Indices 1 2 3 4 5 6 
#
# 1 34.7784 4.5070 2.0319 0.0000 0.0000 0.0000
# 2 4.5070 142.4239 90.2350 0.0000 0.0000 0.0000
# 3 2.0319 90.2350 162.8424 0.0000 0.0000 0.0000
# 4 0.0000 0.0000 0.0000-3233.2126 0.0000 0.0000
# 5 0.0000 0.0000 0.0000 0.0000 -11.2043 0.0000
# 6 0.0000 0.0000 0.0000 0.0000 0.0000 11.4160
#
#
#
# Elastic Compliance Matrix: (Units=1/GPa)
#
#
# Indices 1 2 3 4 5 6 
#
# 1 0.028877 -0.001056 0.000225 0.000000 0.000000 0.000000
# 2 -0.001056 0.010859 -0.006004 0.000000 0.000000 0.000000
# 3 0.000225 -0.006004 0.009465 0.000000 0.000000 0.000000
# 4 0.000000 0.000000 0.000000 -0.000309 0.000000 0.000000
# 5 0.000000 0.000000 0.000000 0.000000 -0.089251 0.000000
# 6 0.000000 0.000000 0.000000 0.000000 0.000000 0.087596
#
#
# Mechanical properties :
#
#
# Convention : Reuss Voigt Hill
#
# Bulk Modulus (GPa) = 28.14492 59.28807 43.71650
# Shear Modulus (GPa) = 68.72875 -630.38212 -280.82669
#
# Velocity S-wave (km/s) = 6.28531 -19.03528 -12.70505
# Velocity P-wave (km/s) = 8.29765 21.19065 13.78754
#
# Compressibility (1/GPa) = 0.03553039
#
# Stress axis : x y z
#
# Youngs Moduli (GPa) = 34.62939 92.09350 105.65291
#
# Poissons Ratio (x) = 0.09729 -0.02378
# Poissons Ratio (y) = 0.03658 0.63432
# Poissons Ratio (z) = -0.00779 0.55291
#
# Static dielectric constant tensor:
#      x y z
#    x 1.668000 0.000000 0.000000 
#    y 0.000000 1.593160 0.000000 
#    z 0.000000 0.000000 1.596090 
# 
# From -- ./inp_files/36837.got.cif
#   From: 2010.05.17/outbox.cif.g08.bks.cpg/sg65_19_cif.got.tgz:36837.got - 2010.06.03 17:01:31.
