data_PCOD9494788
_publ_section_title
;
Structure prediction by ZEFSAII (Michael W. Deem and Ramdas Pophale) SiO2 
 PCOD9494788
Probable space group: C M M M
;
_chemical_formula_sum "Si O2"
_cell_formula_units_Z 44
_cell_length_a 18.000000
_cell_length_b 15.000000
_cell_length_c 18.000000
_cell_angle_alpha 90.000000
_cell_angle_beta 90.000000
_cell_angle_gamma 90.000000
_cell_volume 4860.000000
_symmetry_space_group_name_H-M "C M M M"
_symmetry_group_IT_number 65
_symmetry_cell_setting 'orthorhombic'
loop_
_space_group_symop_operation_xyz
x,y,z
-x,-y,z
x,-y,-z
-x,y,-z
-x,-y,-z
x,y,-z
-x,y,z
x,-y,z
1/2+x,1/2+y,z
1/2-x,1/2-y,z
1/2+x,1/2-y,-z
1/2-x,1/2+y,-z
1/2-x,1/2-y,-z
1/2+x,1/2+y,-z
1/2-x,1/2+y,z
1/2+x,1/2-y,z
loop_
_atom_site_type_symbol
_atom_site_label
_atom_site_fract_x
_atom_site_fract_y
_atom_site_fract_z
Si Si1 0.155320 0.601448 0.686122
Si Si2 0.700316 0.600773 0.414511
Si Si3 0.200604 0.607794 0.142059
Si Si4 0.150955 0.796875 0.088527
Si Si5 0.084687 0.257787 0.415226
Si Si6 0.000000 0.896487 0.090181
O O1 0.129498 0.500000 0.675326
O O2 0.231590 0.613637 0.640551
O O3 0.174569 0.613213 0.772493
O O4 0.099632 0.669614 0.647815
O O5 0.726494 0.608689 0.500000
O O6 0.671378 0.500000 0.404815
O O7 0.639011 0.675188 0.402658
O O8 0.195615 0.500000 0.120819
O O9 0.155216 0.689621 0.102573
O O10 0.283886 0.646493 0.129118
O O11 0.073271 0.841299 0.111615
O O12 0.161880 0.810066 0.000000
O O13 0.098454 0.292155 0.500000
O O14 0.000000 0.227759 0.412554
O O15 0.000000 0.000000 0.115731
O O16 0.000000 0.899565 0.000000
#
# Coordination Sequence:
#
# PCOD9494788 Si02
#       6
#    16  16  16  16  16   8
#     4  10  21  36  54  77 106 142 184 226 273 323
#     4   9  18  33  55  80 105 138 180 224 270 325
#     4  10  21  36  55  82 114 149 187 232 279 328
#     4  10  21  36  59  88 112 146 189 226 277 334
#     4  10  21  35  54  80 108 143 183 227 277 324
#     4   9  18  36  61  87 115 141 173 224 276 326
#
# _framework density 9.0534979999999994
#
# number of rings (size 3 to 8) (size 9 to 14) (size 15 to 20)
#    0.000    2.273    0.000    2.727    5.091    5.455 
#    1.636    3.182    0.000    1.636    0.000    0.000 
#    0.000    0.000    0.000    0.000    0.000    0.000 
#
# Total GULP energy -245140.725867 kJ/mol
# GULP energy per Si atom -5571.380133 kJ/mol
# Density = 0.903289 g / cm^3
# Si number density = 9.053498 Si / 1000 Ang^3
#
#
#
# Elastic Constant Matrix: (Units=GPa)
#
#
# Indices 1 2 3 4 5 6 
#
# 1 37.5087 25.6644 -13.4899 0.0000 0.0000 0.0000
# 2 25.6644 89.1326 0.1823 0.0000 0.0000 0.0000
# 3 -13.4899 0.1823 20.5021 0.0000 0.0000 0.0000
# 4 0.0000 0.0000 0.0000 31.9197 0.0000 0.0000
# 5 0.0000 0.0000 0.0000 0.0000 0.6021 0.0000
# 6 0.0000 0.0000 0.0000 0.0000 0.0000 -140.4177
#
#
#
# Elastic Compliance Matrix: (Units=1/GPa)
#
#
# Indices 1 2 3 4 5 6 
#
# 1 0.047229 -0.013663 0.031197 0.000000 0.000000 0.000000
# 2 -0.013663 0.015172 -0.009125 0.000000 0.000000 0.000000
# 3 0.031197 -0.009125 0.069384 0.000000 0.000000 0.000000
# 4 0.000000 0.000000 0.000000 0.031329 0.000000 0.000000
# 5 0.000000 0.000000 0.000000 0.000000 1.660728 0.000000
# 6 0.000000 0.000000 0.000000 0.000000 0.000000 -0.007122
#
#
# Mechanical properties :
#
#
# Convention : Reuss Voigt Hill
#
# Bulk Modulus (GPa) = 6.72931 19.09522 12.91226
# Shear Modulus (GPa) = 2.70353 -12.59339 -4.94493
#
# Velocity S-wave (km/s) = 1.22324 -2.64009 -1.65435
# Velocity P-wave (km/s) = 2.39157 1.12926 1.87013
#
# Compressibility (1/GPa) = 0.14860368
#
# Stress axis : x y z
#
# Youngs Moduli (GPa) = 21.17354 65.91152 14.41262
#
# Poissons Ratio (x) = 0.90052 -0.44963
# Poissons Ratio (y) = 0.28929 0.13151
# Poissons Ratio (z) = -0.66055 0.60142
#
# Static dielectric constant tensor:
#      x y z
#    x 1.617170 0.000000 0.000000 
#    y 0.000000 1.630940 0.000000 
#    z 0.000000 0.000000 1.623780 
# 
# From -- ./inp_files/53037.got.cif
#   From: 2010.05.17/outbox.ucp.g08.bks.cvg/sg65_27_cif.got.tgz:53037.got - 2010.06.11 16:39:57.
