data_PCOD9494033
_publ_section_title
;
Structure prediction by ZEFSAII (Michael W. Deem and Ramdas Pophale) SiO2 
 PCOD9494033
Probable space group: C M M M
;
_chemical_formula_sum "Si O2"
_cell_formula_units_Z 80
_cell_length_a 14.316533
_cell_length_b 17.700800
_cell_length_c 15.687823
_cell_angle_alpha 90.000000
_cell_angle_beta 90.000000
_cell_angle_gamma 90.000000
_cell_volume 3975.515348
_symmetry_space_group_name_H-M "C M M M"
_symmetry_group_IT_number 65
_symmetry_cell_setting 'orthorhombic'
loop_
_space_group_symop_operation_xyz
x,y,z
-x,-y,z
x,-y,-z
-x,y,-z
-x,-y,-z
x,y,-z
-x,y,z
x,-y,z
1/2+x,1/2+y,z
1/2-x,1/2-y,z
1/2+x,1/2-y,-z
1/2-x,1/2+y,-z
1/2-x,1/2-y,-z
1/2+x,1/2+y,-z
1/2-x,1/2+y,z
1/2+x,1/2-y,z
loop_
_atom_site_type_symbol
_atom_site_label
_atom_site_fract_x
_atom_site_fract_y
_atom_site_fract_z
Si Si1 0.388836 0.581531 0.363489
Si Si2 0.610460 0.201013 0.775389
Si Si3 0.114178 0.248551 0.592638
Si Si4 0.704247 0.912716 0.904817
Si Si5 0.106735 0.126156 0.832310
O O1 0.500000 0.580064 0.382896
O O2 0.349504 0.500000 0.390556
O O3 0.354443 0.660988 0.400496
O O4 0.380990 0.589249 0.261190
O O5 0.500000 0.184515 0.774140
O O6 0.644555 0.207772 0.677589
O O7 0.661722 0.139749 0.832054
O O8 0.621276 0.284235 0.816417
O O9 0.140567 0.279303 0.500000
O O10 0.000000 0.247153 0.597020
O O11 0.815598 0.905048 0.894733
O O12 0.677469 0.000000 0.893411
O O13 0.675658 0.888419 0.000000
O O14 0.000000 0.113816 0.859362
#
# Coordination Sequence:
#
# PCOD9494033 Si02
#       5
#    16  16  16  16  16
#     4   8  13  22  40  69 105 143 176 207 254 315
#     4   9  19  36  57  80 108 145 184 222 267 317
#     4   8  14  26  47  76 106 137 178 224 267 314
#     4  11  24  38  54  79 108 141 182 226 275 330
#     4   9  18  34  56  80 107 141 180 221 266 319
#
# _framework density 20.123177999999999
#
# number of rings (size 3 to 8) (size 9 to 14) (size 15 to 20)
#    0.000    3.000    0.000    3.600    0.000    4.400 
#    0.000    6.000    0.000   10.200    0.000    2.800 
#    0.000    0.000    0.000    0.000    0.000    0.200 
#
# Total GULP energy -223197.097056 kJ/mol
# GULP energy per Si atom -5579.927426 kJ/mol
# Density = 2.007738 g / cm^3
# Si number density = 20.123178 Si / 1000 Ang^3
#
#
#
# Elastic Constant Matrix: (Units=GPa)
#
#
# Indices 1 2 3 4 5 6 
#
# 1 46.3585 28.5990 29.7240 0.0000 0.0000 0.0000
# 2 28.5990 84.2086 77.8865 0.0000 0.0000 0.0000
# 3 29.7240 77.8865 133.4070 0.0000 0.0000 0.0000
# 4 0.0000 0.0000 0.0000 17.2110 0.0000 0.0000
# 5 0.0000 0.0000 0.0000 0.0000 15.8911 0.0000
# 6 0.0000 0.0000 0.0000 0.0000 0.0000 18.5173
#
#
#
# Elastic Compliance Matrix: (Units=1/GPa)
#
#
# Indices 1 2 3 4 5 6 
#
# 1 0.027419 -0.007960 -0.001462 0.000000 0.000000 0.000000
# 2 -0.007960 0.028126 -0.014647 0.000000 0.000000 0.000000
# 3 -0.001462 -0.014647 0.016373 0.000000 0.000000 0.000000
# 4 0.000000 0.000000 0.000000 0.058103 0.000000 0.000000
# 5 0.000000 0.000000 0.000000 0.000000 0.062928 0.000000
# 6 0.000000 0.000000 0.000000 0.000000 0.000000 0.054004
#
#
# Mechanical properties :
#
#
# Convention : Reuss Voigt Hill
#
# Bulk Modulus (GPa) = 42.05218 59.59923 50.82571
# Shear Modulus (GPa) = 16.50068 18.84150 17.67109
#
# Velocity S-wave (km/s) = 2.86664 3.06323 2.96657
# Velocity P-wave (km/s) = 5.64797 6.49559 6.08656
#
# Compressibility (1/GPa) = 0.02377998
#
# Stress axis : x y z
#
# Youngs Moduli (GPa) = 36.47125 35.55391 61.07575
#
# Poissons Ratio (x) = 0.28300 0.08929
# Poissons Ratio (y) = 0.29030 0.89460
# Poissons Ratio (z) = 0.05332 0.52077
#
# Static dielectric constant tensor:
#      x y z
#    x 1.743360 0.000000 0.000000 
#    y 0.000000 1.701090 0.000000 
#    z 0.000000 0.000000 1.729440 
# 
# From -- ./inp_files/52869.got.cif
#   From: 2010.05.17/outbox.cif.g08.bks.cpg/sg65_27_cif.got.tgz:52869.got - 2010.06.03 17:01:31.
