data_PCOD9494107
_publ_section_title
;
Structure prediction by ZEFSAII (Michael W. Deem and Ramdas Pophale) SiO2 
 PCOD9494107
Probable space group: C M M M
;
_chemical_formula_sum "Si O2"
_cell_formula_units_Z 72
_cell_length_a 29.502218
_cell_length_b 14.072978
_cell_length_c 8.978744
_cell_angle_alpha 90.000000
_cell_angle_beta 90.000000
_cell_angle_gamma 90.000000
_cell_volume 3727.831431
_symmetry_space_group_name_H-M "C M M M"
_symmetry_group_IT_number 65
_symmetry_cell_setting 'orthorhombic'
loop_
_space_group_symop_operation_xyz
x,y,z
-x,-y,z
x,-y,-z
-x,y,-z
-x,-y,-z
x,y,-z
-x,y,z
x,-y,z
1/2+x,1/2+y,z
1/2-x,1/2-y,z
1/2+x,1/2-y,-z
1/2-x,1/2+y,-z
1/2-x,1/2-y,-z
1/2+x,1/2+y,-z
1/2-x,1/2+y,z
1/2+x,1/2-y,z
loop_
_atom_site_type_symbol
_atom_site_label
_atom_site_fract_x
_atom_site_fract_y
_atom_site_fract_z
Si Si1 0.587034 0.704582 0.676334
Si Si2 0.945539 0.609449 0.175262
Si Si3 0.000000 0.113330 0.170583
Si Si4 0.275944 0.105405 0.180701
Si Si5 0.319451 0.302893 0.179653
O O1 0.586473 0.696136 0.500000
O O2 0.580099 0.813806 0.727091
O O3 0.544571 0.650467 0.747645
O O4 0.634133 0.668183 0.743857
O O5 0.934318 0.500000 0.209756
O O6 0.000000 0.620650 0.194193
O O7 0.935478 0.625431 0.000000
O O8 0.000000 0.000000 0.169020
O O9 0.000000 0.149068 0.000000
O O10 0.306565 0.194792 0.226322
O O11 0.224014 0.132603 0.217875
O O12 0.288154 0.000000 0.234533
O O13 0.278154 0.104201 0.000000
O O14 0.324477 0.304596 0.000000
#
# Coordination Sequence:
#
# PCOD9494107 Si02
#       5
#    16  16   8  16  16
#     4  12  24  37  56  85 122 156 186 231 288 346
#     4   9  18  34  57  81 106 143 191 236 276 325
#     4  11  25  45  66  83 104 145 201 250 286 327
#     4   8  15  31  56  83 108 138 184 240 285 321
#     4   9  18  33  55  82 110 144 189 235 277 331
#
# _framework density 19.314177999999998
#
# number of rings (size 3 to 8) (size 9 to 14) (size 15 to 20)
#    0.000    2.333    1.111    4.333    0.000    3.111 
#    0.000    7.778    0.000    1.333    0.000    0.000 
#    0.000    0.000    0.000    0.000    0.000    0.000 
#
# Total GULP energy -201009.918431 kJ/mol
# GULP energy per Si atom -5583.608845 kJ/mol
# Density = 1.927022 g / cm^3
# Si number density = 19.314178 Si / 1000 Ang^3
#
#
#
# Elastic Constant Matrix: (Units=GPa)
#
#
# Indices 1 2 3 4 5 6 
#
# 1 96.4131 -1.0854 35.0683 0.0000 0.0000 0.0000
# 2 -1.0854 46.7440 5.1834 0.0000 0.0000 0.0000
# 3 35.0683 5.1834 64.8668 0.0000 0.0000 0.0000
# 4 0.0000 0.0000 0.0000 -5.6434 0.0000 0.0000
# 5 0.0000 0.0000 0.0000 0.0000 -15.5020 0.0000
# 6 0.0000 0.0000 0.0000 0.0000 0.0000 3.6223
#
#
#
# Elastic Compliance Matrix: (Units=1/GPa)
#
#
# Indices 1 2 3 4 5 6 
#
# 1 0.012965 0.001088 -0.007096 0.000000 0.000000 0.000000
# 2 0.001088 0.021676 -0.002320 0.000000 0.000000 0.000000
# 3 -0.007096 -0.002320 0.019438 0.000000 0.000000 0.000000
# 4 0.000000 0.000000 0.000000 -0.177198 0.000000 0.000000
# 5 0.000000 0.000000 0.000000 0.000000 -0.064508 0.000000
# 6 0.000000 0.000000 0.000000 0.000000 0.000000 0.276071
#
#
# Mechanical properties :
#
#
# Convention : Reuss Voigt Hill
#
# Bulk Modulus (GPa) = 26.72231 31.81741 29.26986
# Shear Modulus (GPa) = 42.52573 7.75253 25.13913
#
# Velocity S-wave (km/s) = 4.69741 2.00565 3.61167
# Velocity P-wave (km/s) = 6.57925 4.67684 5.70786
#
# Compressibility (1/GPa) = 0.03742192
#
# Stress axis : x y z
#
# Youngs Moduli (GPa) = 77.12827 46.13467 51.44558
#
# Poissons Ratio (x) = -0.05019 0.36507
# Poissons Ratio (y) = -0.08391 0.11937
# Poissons Ratio (z) = 0.54733 0.10704
#
# Static dielectric constant tensor:
#      x y z
#    x 1.669190 0.000000 0.000000 
#    y 0.000000 1.692050 0.000000 
#    z 0.000000 0.000000 1.635660 
# 
# From -- ./inp_files/7274.got.cif
#   From: 2010.05.17/outbox.cif.g08.bks.cpg/sg65_4_cif.got.tgz:7274.got - 2010.06.03 17:01:31.
