data_PCOD9494072
_publ_section_title
;
Structure prediction by ZEFSAII (Michael W. Deem and Ramdas Pophale) SiO2 
 PCOD9494072
Probable space group: C M M M
;
_chemical_formula_sum "Si O2"
_cell_formula_units_Z 66
_cell_length_a 14.861543
_cell_length_b 23.861076
_cell_length_c 9.415120
_cell_angle_alpha 90.000000
_cell_angle_beta 90.000000
_cell_angle_gamma 90.000000
_cell_volume 3338.718365
_symmetry_space_group_name_H-M "C M M M"
_symmetry_group_IT_number 65
_symmetry_cell_setting 'orthorhombic'
loop_
_space_group_symop_operation_xyz
x,y,z
-x,-y,z
x,-y,-z
-x,y,-z
-x,-y,-z
x,y,-z
-x,y,z
x,-y,z
1/2+x,1/2+y,z
1/2-x,1/2-y,z
1/2+x,1/2-y,-z
1/2-x,1/2+y,-z
1/2-x,1/2-y,-z
1/2+x,1/2+y,-z
1/2-x,1/2+y,z
1/2+x,1/2-y,z
loop_
_atom_site_type_symbol
_atom_site_label
_atom_site_fract_x
_atom_site_fract_y
_atom_site_fract_z
Si Si1 0.500000 0.500000 0.000000
Si Si2 0.354450 0.000000 0.170047
Si Si3 0.500000 0.907060 0.827659
Si Si4 0.500000 0.788363 0.670852
Si Si5 0.107003 0.876538 0.343643
Si Si6 0.352990 0.500000 0.743496
Si Si7 0.847366 0.778001 0.163405
O O1 0.420471 0.500000 0.877121
O O2 0.413180 0.054737 0.209252
O O3 0.253049 0.000000 0.222847
O O4 0.351808 0.000000 0.000000
O O5 0.500000 0.849871 0.740895
O O6 0.500000 0.897310 0.000000
O O7 0.500000 0.789550 0.500000
O O8 0.414267 0.755346 0.733632
O O9 0.132351 0.855017 0.500000
O O10 0.126499 0.942144 0.335619
O O11 0.155200 0.841419 0.221145
O O12 0.000000 0.868602 0.324961
O O13 0.750000 0.750000 0.168074
O O14 0.879570 0.776696 0.000000
#
# Coordination Sequence:
#
# PCOD9494072 Si02
#       7
#     2   8   8   8  16   8  16
#     4  12  24  36  58  98 136 164 214 276 312 384
#     4   9  20  39  65  94 126 167 220 269 328 374
#     4   9  20  42  67  93 125 169 221 279 314 378
#     4  12  25  44  68  98 136 175 214 268 334 398
#     4  11  24  43  65  92 130 172 212 261 324 391
#     4  12  24  39  62  97 132 171 210 265 327 390
#     4  11  26  45  69  98 128 170 224 275 323 384
#
# _framework density 19.768063999999999
#
# number of rings (size 3 to 8) (size 9 to 14) (size 15 to 20)
#    0.000    1.212    3.030    2.909    5.091    2.909 
#    0.000    2.424    0.000    0.000    0.000    0.000 
#    0.000    0.000    0.000    0.000    0.000    0.000 
#
# Total GULP energy -184116.332216 kJ/mol
# GULP energy per Si atom -5579.282794 kJ/mol
# Density = 1.972307 g / cm^3
# Si number density = 19.768064 Si / 1000 Ang^3
#
#
#
# Elastic Constant Matrix: (Units=GPa)
#
#
# Indices 1 2 3 4 5 6 
#
# 1 98.9886 19.1831 49.6613 0.0000 0.0000 0.0000
# 2 19.1831 121.4892 60.3194 0.0000 0.0000 0.0000
# 3 49.6613 60.3194 136.2953 0.0000 0.0000 0.0000
# 4 0.0000 0.0000 0.0000 -16.0997 0.0000 0.0000
# 5 0.0000 0.0000 0.0000 0.0000 30.5685 0.0000
# 6 0.0000 0.0000 0.0000 0.0000 0.0000 -21.0767
#
#
#
# Elastic Compliance Matrix: (Units=1/GPa)
#
#
# Indices 1 2 3 4 5 6 
#
# 1 0.012375 0.000365 -0.004670 0.000000 0.000000 0.000000
# 2 0.000365 0.010560 -0.004806 0.000000 0.000000 0.000000
# 3 -0.004670 -0.004806 0.011166 0.000000 0.000000 0.000000
# 4 0.000000 0.000000 0.000000 -0.062113 0.000000 0.000000
# 5 0.000000 0.000000 0.000000 0.000000 0.032713 0.000000
# 6 0.000000 0.000000 0.000000 0.000000 0.000000 -0.047446
#
#
# Mechanical properties :
#
#
# Convention : Reuss Voigt Hill
#
# Bulk Modulus (GPa) = 62.98569 68.34453 65.66511
# Shear Modulus (GPa) = -260.02360 13.85237 -123.08562
#
# Velocity S-wave (km/s) = -11.48141 2.65003 -7.89937
# Velocity P-wave (km/s) = 11.99301 6.63414 7.06471
#
# Compressibility (1/GPa) = 0.01587662
#
# Stress axis : x y z
#
# Youngs Moduli (GPa) = 80.81126 94.69742 89.55867
#
# Poissons Ratio (x) = -0.03455 0.41827
# Poissons Ratio (y) = -0.02949 0.43046
# Poissons Ratio (z) = 0.37742 0.45515
#
# Static dielectric constant tensor:
#      x y z
#    x 1.711770 0.000000 0.000000 
#    y 0.000000 1.716910 0.000000 
#    z 0.000000 0.000000 1.691930 
# 
# From -- ./inp_files/6878.got.cif
#   From: 2010.05.17/outbox.cif.g08.bks.cpg/sg65_4_cif.got.tgz:6878.got - 2010.06.03 17:01:31.
