data_PCOD9494328
_publ_section_title
;
Structure prediction by ZEFSAII (Michael W. Deem and Ramdas Pophale) SiO2 
 PCOD9494328
Probable space group: C M M M
;
_chemical_formula_sum "Si O2"
_cell_formula_units_Z 80
_cell_length_a 30.762669
_cell_length_b 15.092695
_cell_length_c 7.306592
_cell_angle_alpha 90.000000
_cell_angle_beta 90.000000
_cell_angle_gamma 90.000000
_cell_volume 3392.389149
_symmetry_space_group_name_H-M "C M M M"
_symmetry_group_IT_number 65
_symmetry_cell_setting 'orthorhombic'
loop_
_space_group_symop_operation_xyz
x,y,z
-x,-y,z
x,-y,-z
-x,y,-z
-x,-y,-z
x,y,-z
-x,y,z
x,-y,z
1/2+x,1/2+y,z
1/2-x,1/2-y,z
1/2+x,1/2-y,-z
1/2-x,1/2+y,-z
1/2-x,1/2-y,-z
1/2+x,1/2+y,-z
1/2-x,1/2+y,z
1/2+x,1/2-y,z
loop_
_atom_site_type_symbol
_atom_site_label
_atom_site_fract_x
_atom_site_fract_y
_atom_site_fract_z
Si Si1 0.179956 0.399591 0.777378
Si Si2 0.640197 0.719049 0.224410
Si Si3 0.447790 0.094241 0.287628
Si Si4 0.451379 0.705236 0.206066
Si Si5 0.721288 0.398258 0.777791
O O1 0.170807 0.500000 0.715902
O O2 0.148289 0.321053 0.719166
O O3 0.229439 0.375623 0.722786
O O4 0.179026 0.401095 0.000000
O O5 0.594651 0.676435 0.289182
O O6 0.682567 0.664644 0.282706
O O7 0.639052 0.717268 0.000000
O O8 0.434947 0.100800 0.500000
O O9 0.500000 0.086288 0.285136
O O10 0.442190 0.188853 0.195606
O O11 0.430436 0.000000 0.212807
O O12 0.500000 0.693345 0.287600
O O13 0.453815 0.669564 0.000000
O O14 0.713335 0.500000 0.725188
O O15 0.721548 0.394779 0.000000
#
# Coordination Sequence:
#
# PCOD9494328 Si02
#       5
#    16  16  16  16  16
#     4   8  13  20  30  46  68  93 121 152 187 229
#     4   9  15  22  33  48  70 100 127 153 189 229
#     4   8  14  25  39  52  68  95 131 166 195 222
#     4   9  17  26  35  51  76 104 131 157 185 219
#     4   8  13  21  33  48  66  91 124 159 194 232
#
# _framework density 23.582201000000001
#
# number of rings (size 3 to 8) (size 9 to 14) (size 15 to 20)
#    0.000    3.600    0.000    2.400    0.000    3.600 
#    0.000    4.000    0.000    0.600    0.000    4.200 
#    0.000    4.000    0.000    9.400    0.000    9.200 
#
# Total GULP energy -222938.878433 kJ/mol
# GULP energy per Si atom -5573.471961 kJ/mol
# Density = 2.352853 g / cm^3
# Si number density = 23.582201 Si / 1000 Ang^3
#
#
#
# Elastic Constant Matrix: (Units=GPa)
#
#
# Indices 1 2 3 4 5 6 
#
# 1 222.2712 50.9502 3.1479 0.0000 0.0000 0.0000
# 2 50.9502 26.2124 -3.1065 0.0000 0.0000 0.0000
# 3 3.1479 -3.1065 92.1665 0.0000 0.0000 0.0000
# 4 0.0000 0.0000 0.0000 -8.6676 0.0000 0.0000
# 5 0.0000 0.0000 0.0000 0.0000 -20.6380 0.0000
# 6 0.0000 0.0000 0.0000 0.0000 0.0000 3.7577
#
#
#
# Elastic Compliance Matrix: (Units=1/GPa)
#
#
# Indices 1 2 3 4 5 6 
#
# 1 0.008175 -0.015988 -0.000818 0.000000 0.000000 0.000000
# 2 -0.015988 0.069569 0.002891 0.000000 0.000000 0.000000
# 3 -0.000818 0.002891 0.010975 0.000000 0.000000 0.000000
# 4 0.000000 0.000000 0.000000 -0.115372 0.000000 0.000000
# 5 0.000000 0.000000 0.000000 0.000000 -0.048454 0.000000
# 6 0.000000 0.000000 0.000000 0.000000 0.000000 0.266117
#
#
# Mechanical properties :
#
#
# Convention : Reuss Voigt Hill
#
# Bulk Modulus (GPa) = 16.42318 49.18145 32.80232
# Shear Modulus (GPa) = 20.90853 14.20100 17.55476
#
# Velocity S-wave (km/s) = 2.98085 2.45662 2.73134
# Velocity P-wave (km/s) = 4.33897 5.38026 4.88743
#
# Compressibility (1/GPa) = 0.06088953
#
# Stress axis : x y z
#
# Youngs Moduli (GPa) = 122.31774 14.37423 91.11354
#
# Poissons Ratio (x) = 0.22981 0.07454
# Poissons Ratio (y) = 1.95560 -0.26340
# Poissons Ratio (z) = 0.10007 -0.04155
#
# Static dielectric constant tensor:
#      x y z
#    x 1.934990 0.000000 0.000000 
#    y 0.000000 1.885270 0.000000 
#    z 0.000000 0.000000 1.880410 
# 
# From -- ./inp_files/18171.got.cif
#   From: 2010.05.17/outbox.cif.g08.bks.cpg/sg65_10_cif.got.tgz:18171.got - 2010.06.03 17:01:31.
