data_PCOD9494743
_publ_section_title
;
Structure prediction by ZEFSAII (Michael W. Deem and Ramdas Pophale) SiO2 
 PCOD9494743
Probable space group: C M M M
;
_chemical_formula_sum "Si O2"
_cell_formula_units_Z 52
_cell_length_a 27.000000
_cell_length_b 9.000000
_cell_length_c 21.000000
_cell_angle_alpha 90.000000
_cell_angle_beta 90.000000
_cell_angle_gamma 90.000000
_cell_volume 5103.000000
_symmetry_space_group_name_H-M "C M M M"
_symmetry_group_IT_number 65
_symmetry_cell_setting 'orthorhombic'
loop_
_space_group_symop_operation_xyz
x,y,z
-x,-y,z
x,-y,-z
-x,y,-z
-x,-y,-z
x,y,-z
-x,y,z
x,-y,z
1/2+x,1/2+y,z
1/2-x,1/2-y,z
1/2+x,1/2-y,-z
1/2-x,1/2+y,-z
1/2-x,1/2-y,-z
1/2+x,1/2+y,-z
1/2-x,1/2+y,z
1/2+x,1/2-y,z
loop_
_atom_site_type_symbol
_atom_site_label
_atom_site_fract_x
_atom_site_fract_y
_atom_site_fract_z
Si Si1 0.637545 0.176460 0.120719
Si Si2 0.802962 0.319981 0.000000
Si Si3 0.302224 0.822661 0.611907
Si Si4 0.558632 0.336044 0.826984
Si Si5 0.441444 0.833317 0.700544
Si Si6 0.406765 0.819045 0.433741
Si Si7 0.697067 0.821621 0.756944
O O1 0.581776 0.229832 0.120999
O O2 0.662626 0.228718 0.185953
O O3 0.638920 0.000000 0.120655
O O4 0.668120 0.231783 0.061779
O O5 0.750000 0.250000 0.000000
O O6 0.800319 0.500000 0.000000
O O7 0.250000 0.750000 0.596112
O O8 0.348821 0.781983 0.569375
O O9 0.317172 0.782503 0.684602
O O10 0.296195 0.000000 0.609054
O O11 0.500000 0.339130 0.830997
O O12 0.578896 0.500000 0.835203
O O13 0.571789 0.271680 0.757972
O O14 0.500000 0.851616 0.704014
O O15 0.429945 0.768690 0.631759
O O16 0.418570 0.000000 0.708164
O O17 0.429075 0.766656 0.500000
O O18 0.411078 0.000000 0.432382
O O19 0.750000 0.750000 0.767676
O O20 0.700840 0.000000 0.759295
#
# Coordination Sequence:
#
# PCOD9494743 Si02
#       7
#    16   8  16  16  16  16  16
#     4  10  20  35  55  79 108 142 178 213 252 302
#     4  10  22  38  57  84 117 151 184 215 251 302
#     4   9  17  29  44  63  89 122 160 203 249 292
#     4  10  21  36  55  80 106 133 171 218 266 314
#     4   9  17  31  53  78 102 129 162 205 258 312
#     4   9  17  29  46  69  97 129 165 205 250 302
#     4   9  17  29  47  71  98 128 165 209 254 301
#
# _framework density 10.190084000000001
#
# number of rings (size 3 to 8) (size 9 to 14) (size 15 to 20)
#    0.000    2.615    0.000    1.846    0.000    5.231 
#    0.000    5.769    0.000    3.692    0.000    2.154 
#    0.000    0.000    0.000    0.000    0.000    0.000 
#
# Total GULP energy -289520.212759 kJ/mol
# GULP energy per Si atom -5567.696399 kJ/mol
# Density = 1.016689 g / cm^3
# Si number density = 10.190084 Si / 1000 Ang^3
#
#
#
# Elastic Constant Matrix: (Units=GPa)
#
#
# Indices 1 2 3 4 5 6 
#
# 1 38.6694 19.6156 72.8715 0.0000 0.0000 0.0000
# 2 19.6156 -26.8462 18.8680 0.0000 0.0000 0.0000
# 3 72.8715 18.8680 68.2616 0.0000 0.0000 0.0000
# 4 0.0000 0.0000 0.0000 -5.7233 0.0000 0.0000
# 5 0.0000 0.0000 0.0000 0.0000 15.9822 0.0000
# 6 0.0000 0.0000 0.0000 0.0000 0.0000 20.8839
#
#
#
# Elastic Compliance Matrix: (Units=1/GPa)
#
#
# Indices 1 2 3 4 5 6 
#
# 1 -0.025566 0.000420 0.027176 0.000000 0.000000 0.000000
# 2 0.000420 -0.031197 0.008175 0.000000 0.000000 0.000000
# 3 0.027176 0.008175 -0.016622 0.000000 0.000000 0.000000
# 4 0.000000 0.000000 0.000000 -0.174725 0.000000 0.000000
# 5 0.000000 0.000000 0.000000 0.000000 0.062570 0.000000
# 6 0.000000 0.000000 0.000000 0.000000 0.000000 0.047884
#
#
# Mechanical properties :
#
#
# Convention : Reuss Voigt Hill
#
# Bulk Modulus (GPa) = -542.74709 33.64388 -254.55161
# Shear Modulus (GPa) = -23.83075 4.14388 -9.84344
#
# Velocity S-wave (km/s) = -3.42323 1.42748 -2.20009
# Velocity P-wave (km/s) = 16.80816 4.38873 11.47286
#
# Compressibility (1/GPa) = -0.00184248
#
# Stress axis : x y z
#
# Youngs Moduli (GPa) = -39.11456 -32.05432 -60.16215
#
# Poissons Ratio (x) = 0.01346 1.63499
# Poissons Ratio (y) = 0.01642 0.49182
# Poissons Ratio (z) = 1.06299 0.26204
#
# Static dielectric constant tensor:
#      x y z
#    x 1.763490 0.000000 0.000000 
#    y 0.000000 1.639100 0.000000 
#    z 0.000000 0.000000 1.748600 
# 
# From -- ./inp_files/65852.got.cif
#   From: 2010.05.17/outbox.ucp.g08.bks.cvg/sg65_33_cif.got.tgz:65852.got - 2010.06.11 16:39:57.
