data_PCOD9494438
_publ_section_title
;
Structure prediction by ZEFSAII (Michael W. Deem and Ramdas Pophale) SiO2 
 PCOD9494438
Probable space group: C M M M
;
_chemical_formula_sum "Si O2"
_cell_formula_units_Z 72
_cell_length_a 7.448557
_cell_length_b 19.806354
_cell_length_c 26.112169
_cell_angle_alpha 90.000000
_cell_angle_beta 90.000000
_cell_angle_gamma 90.000000
_cell_volume 3852.295828
_symmetry_space_group_name_H-M "C M M M"
_symmetry_group_IT_number 65
_symmetry_cell_setting 'orthorhombic'
loop_
_space_group_symop_operation_xyz
x,y,z
-x,-y,z
x,-y,-z
-x,y,-z
-x,-y,-z
x,y,-z
-x,y,z
x,-y,z
1/2+x,1/2+y,z
1/2-x,1/2-y,z
1/2+x,1/2-y,-z
1/2-x,1/2+y,-z
1/2-x,1/2-y,-z
1/2+x,1/2+y,-z
1/2-x,1/2+y,z
1/2+x,1/2-y,z
loop_
_atom_site_type_symbol
_atom_site_label
_atom_site_fract_x
_atom_site_fract_y
_atom_site_fract_z
Si Si1 0.500000 0.081805 0.941975
Si Si2 0.286535 0.580122 0.141730
Si Si3 0.284991 0.328742 0.649216
Si Si4 0.218987 0.921899 0.557231
Si Si5 0.714531 0.328902 0.763756
O O1 0.326427 0.100293 0.908238
O O2 0.500000 0.000000 0.944961
O O3 0.500000 0.107819 0.000000
O O4 0.500000 0.590571 0.134352
O O5 0.258537 0.500000 0.150787
O O6 0.222819 0.622973 0.190701
O O7 0.500000 0.337840 0.650851
O O8 0.250000 0.250000 0.639136
O O9 0.216374 0.375150 0.603328
O O10 0.215479 0.344209 0.706512
O O11 0.275323 0.900490 0.500000
O O12 0.000000 0.920245 0.557443
O O13 0.270741 0.000000 0.564535
O O14 0.500000 0.337670 0.761798
O O15 0.750000 0.250000 0.774311
#
# Coordination Sequence:
#
# PCOD9494438 Si02
#       5
#     8  16  16  16  16
#     4   9  18  32  52  78 104 132 164 200 246 291
#     4   9  18  32  50  75 102 128 165 207 244 290
#     4   9  17  29  44  65  92 118 153 195 235 284
#     4   8  14  25  42  64  88 117 155 196 238 283
#     4   9  18  30  46  69  93 126 160 193 244 294
#
# _framework density 18.690154
#
# number of rings (size 3 to 8) (size 9 to 14) (size 15 to 20)
#    0.000    3.222    0.000    0.667    1.556    1.778 
#    0.000    6.667    0.000    1.333    0.000    1.556 
#    0.000    0.000    0.000    0.000    0.000    0.000 
#
# Total GULP energy -200645.779260 kJ/mol
# GULP energy per Si atom -5573.493868 kJ/mol
# Density = 1.864761 g / cm^3
# Si number density = 18.690154 Si / 1000 Ang^3
#
#
#
# Elastic Constant Matrix: (Units=GPa)
#
#
# Indices 1 2 3 4 5 6 
#
# 1 67.4139 21.0351 44.1923 0.0000 0.0000 0.0000
# 2 21.0351 64.6740 106.3680 0.0000 0.0000 0.0000
# 3 44.1923 106.3680 224.7859 0.0000 0.0000 0.0000
# 4 0.0000 0.0000 0.0000 17.7816 0.0000 0.0000
# 5 0.0000 0.0000 0.0000 0.0000 -6.2602 0.0000
# 6 0.0000 0.0000 0.0000 0.0000 0.0000 17.5878
#
#
#
# Elastic Compliance Matrix: (Units=1/GPa)
#
#
# Indices 1 2 3 4 5 6 
#
# 1 0.017029 -0.000147 -0.003278 0.000000 0.000000 0.000000
# 2 -0.000147 0.069731 -0.032968 0.000000 0.000000 0.000000
# 3 -0.003278 -0.032968 0.020693 0.000000 0.000000 0.000000
# 4 0.000000 0.000000 0.000000 0.056238 0.000000 0.000000
# 5 0.000000 0.000000 0.000000 0.000000 -0.159741 0.000000
# 6 0.000000 0.000000 0.000000 0.000000 0.000000 0.056858
#
#
# Mechanical properties :
#
#
# Convention : Reuss Voigt Hill
#
# Bulk Modulus (GPa) = 28.84526 77.78496 53.31511
# Shear Modulus (GPa) = 34.44723 18.17374 26.31048
#
# Velocity S-wave (km/s) = 4.29775 3.12167 3.75603
# Velocity P-wave (km/s) = 6.33202 7.39605 6.88462
#
# Compressibility (1/GPa) = 0.03466775
#
# Stress axis : x y z
#
# Youngs Moduli (GPa) = 58.72479 14.34080 48.32449
#
# Poissons Ratio (x) = 0.00210 0.15843
# Poissons Ratio (y) = 0.00860 1.59315
# Poissons Ratio (z) = 0.19253 0.47278
#
# Static dielectric constant tensor:
#      x y z
#    x 1.701460 0.000000 0.000000 
#    y 0.000000 1.647140 0.000000 
#    z 0.000000 0.000000 1.652730 
# 
# From -- ./inp_files/59240.got.cif
#   From: 2010.05.17/outbox.cif.g08.bks.cpg/sg65_30_cif.got.tgz:59240.got - 2010.06.03 17:01:31.
