data_PCOD9494243
_publ_section_title
;
Structure prediction by ZEFSAII (Michael W. Deem and Ramdas Pophale) SiO2 
 PCOD9494243
Probable space group: C M M M
;
_chemical_formula_sum "Si O2"
_cell_formula_units_Z 88
_cell_length_a 19.691377
_cell_length_b 7.326502
_cell_length_c 30.304054
_cell_angle_alpha 90.000000
_cell_angle_beta 90.000000
_cell_angle_gamma 90.000000
_cell_volume 4371.932929
_symmetry_space_group_name_H-M "C M M M"
_symmetry_group_IT_number 65
_symmetry_cell_setting 'orthorhombic'
loop_
_space_group_symop_operation_xyz
x,y,z
-x,-y,z
x,-y,-z
-x,y,-z
-x,-y,-z
x,y,-z
-x,y,z
x,-y,z
1/2+x,1/2+y,z
1/2-x,1/2-y,z
1/2+x,1/2-y,-z
1/2-x,1/2+y,-z
1/2-x,1/2-y,-z
1/2+x,1/2+y,-z
1/2-x,1/2+y,z
1/2+x,1/2-y,z
loop_
_atom_site_type_symbol
_atom_site_label
_atom_site_fract_x
_atom_site_fract_y
_atom_site_fract_z
Si Si1 0.419165 0.221372 0.500000
Si Si2 0.081084 0.280178 0.594960
Si Si3 0.170365 0.282154 0.129449
Si Si4 0.329714 0.217854 0.772058
Si Si5 0.578625 0.777649 0.049251
Si Si6 0.420876 0.222966 0.691325
O O1 0.500000 0.262815 0.500000
O O2 0.391629 0.285717 0.547503
O O3 0.414289 0.000000 0.500000
O O4 0.088453 0.500000 0.594597
O O5 0.105571 0.216899 0.642944
O O6 0.000000 0.243582 0.595062
O O7 0.160166 0.500000 0.130887
O O8 0.250000 0.250000 0.121502
O O9 0.154059 0.211711 0.178687
O O10 0.125135 0.212270 0.089247
O O11 0.250000 0.250000 0.763929
O O12 0.375897 0.286883 0.732207
O O13 0.339670 0.000000 0.773431
O O14 0.500000 0.725375 0.055325
O O15 0.580349 0.000000 0.049379
O O16 0.600473 0.720484 0.000000
O O17 0.500000 0.274983 0.696071
O O18 0.419753 0.000000 0.690992
#
# Coordination Sequence:
#
# PCOD9494243 Si02
#       6
#     8  16  16  16  16  16
#     4   7   8  10  18  34  59  90 115 135 172 225
#     4   7   9  13  22  39  64  90 114 143 181 222
#     4   9  17  28  42  60  80 102 129 160 191 223
#     4   9  17  28  41  57  78 103 129 157 189 226
#     4   8  14  25  41  61  83 104 127 157 191 225
#     4   8  13  21  34  53  74  94 121 159 195 222
#
# _framework density 20.128395999999999
#
# number of rings (size 3 to 8) (size 9 to 14) (size 15 to 20)
#    0.000    3.909    0.000    2.727    0.000    1.091 
#    0.000    3.636    0.000    1.091    0.000    7.000 
#    0.000    0.000    0.000    0.000    0.000   10.545 
#
# Total GULP energy -244982.445376 kJ/mol
# GULP energy per Si atom -5567.782849 kJ/mol
# Density = 2.008258 g / cm^3
# Si number density = 20.128396 Si / 1000 Ang^3
#
#
#
# Elastic Constant Matrix: (Units=GPa)
#
#
# Indices 1 2 3 4 5 6 
#
# 1 53.9945 0.2502 110.9853 0.0000 0.0000 0.0000
# 2 0.2502 78.2770 11.9772 0.0000 0.0000 0.0000
# 3 110.9853 11.9772 285.8191 0.0000 0.0000 0.0000
# 4 0.0000 0.0000 0.0000 -9.6443 0.0000 0.0000
# 5 0.0000 0.0000 0.0000 0.0000 11.6370 0.0000
# 6 0.0000 0.0000 0.0000 0.0000 0.0000 -21.8079
#
#
#
# Elastic Compliance Matrix: (Units=1/GPa)
#
#
# Indices 1 2 3 4 5 6 
#
# 1 0.093903 0.005313 -0.036686 0.000000 0.000000 0.000000
# 2 0.005313 0.013158 -0.002614 0.000000 0.000000 0.000000
# 3 -0.036686 -0.002614 0.017854 0.000000 0.000000 0.000000
# 4 0.000000 0.000000 0.000000 -0.103689 0.000000 0.000000
# 5 0.000000 0.000000 0.000000 0.000000 0.085933 0.000000
# 6 0.000000 0.000000 0.000000 0.000000 0.000000 -0.045855
#
#
# Mechanical properties :
#
#
# Convention : Reuss Voigt Hill
#
# Bulk Modulus (GPa) = 17.56221 73.83510 45.69866
# Shear Modulus (GPa) = 33.72495 15.69550 24.71023
#
# Velocity S-wave (km/s) = 4.09772 2.79546 3.50756
# Velocity P-wave (km/s) = 5.57964 6.86886 6.25754
#
# Compressibility (1/GPa) = 0.05694043
#
# Stress axis : x y z
#
# Youngs Moduli (GPa) = 10.64930 75.99825 56.01127
#
# Poissons Ratio (x) = -0.40378 2.05481
# Poissons Ratio (y) = -0.05658 0.14644
# Poissons Ratio (z) = 0.39068 0.19870
#
# Static dielectric constant tensor:
#      x y z
#    x 1.639820 0.000000 0.000000 
#    y 0.000000 1.823220 0.000000 
#    z 0.000000 0.000000 1.772020 
# 
# From -- ./inp_files/76780.got.cif
#   From: 2010.05.17/outbox.cif.g08.bks.cpg/sg65_39_cif.got.tgz:76780.got - 2010.06.03 17:01:31.
