data_PCOD9494890
_publ_section_title
;
Structure prediction by ZEFSAII (Michael W. Deem and Ramdas Pophale) SiO2 
 PCOD9494890
Probable space group: C C C M
;
_chemical_formula_sum "Si O2"
_cell_formula_units_Z 96
_cell_length_a 25.020486
_cell_length_b 7.257625
_cell_length_c 22.061502
_cell_angle_alpha 90.000000
_cell_angle_beta 90.000000
_cell_angle_gamma 90.000000
_cell_volume 4006.132809
_symmetry_space_group_name_H-M "C C C M"
_symmetry_group_IT_number 66
_symmetry_cell_setting 'orthorhombic'
loop_
_space_group_symop_operation_xyz
x,y,z
-x,-y,z
x,-y,1/2-z
-x,y,1/2-z
-x,-y,-z
x,y,-z
-x,y,1/2+z
x,-y,1/2+z
1/2+x,1/2+y,z
1/2-x,1/2-y,z
1/2+x,1/2-y,1/2-z
1/2-x,1/2+y,1/2-z
1/2-x,1/2-y,-z
1/2+x,1/2+y,-z
1/2-x,1/2+y,1/2+z
1/2+x,1/2-y,1/2+z
loop_
_atom_site_type_symbol
_atom_site_label
_atom_site_fract_x
_atom_site_fract_y
_atom_site_fract_z
Si Si1 0.313705 0.235333 0.500000
Si Si2 0.808586 0.180572 0.629222
Si Si3 0.500000 0.234126 0.750000
Si Si4 0.974619 0.203703 0.878156
Si Si5 0.650284 0.269157 0.126793
Si Si6 0.523734 0.708384 0.000000
Si Si7 0.850199 0.840088 0.000000
Si Si8 0.374450 0.289016 0.241939
O O1 0.250000 0.250000 0.500000
O O2 0.330929 0.159792 0.433381
O O3 0.340483 0.439190 0.500000
O O4 0.750000 0.250000 0.644451
O O5 0.823617 0.233042 0.560907
O O6 0.849343 0.265098 0.678114
O O7 0.814619 0.956814 0.629990
O O8 0.514216 0.178612 0.818603
O O9 0.438642 0.298585 0.762956
O O10 0.911470 0.176123 0.885874
O O11 0.000750 0.286292 0.937932
O O12 0.000000 0.000000 0.866622
O O13 0.645994 0.192202 0.196019
O O14 0.500000 0.500000 0.000000
O O15 0.587133 0.701593 0.000000
O O16 0.356761 0.500000 0.250000
#
# Coordination Sequence:
#
# PCOD9494890 Si02
#       8
#     8  16   8  16  16   8   8  16
#     4  10  18  29  43  54  73 109 142 170 202 232
#     4  10  18  28  41  56  81 118 147 168 197 235
#     4  10  15  22  38  58  80 108 133 150 193 252
#     4  10  15  22  38  58  81 109 129 147 191 253
#     4   9  18  29  40  60  86 109 138 169 199 236
#     4  10  16  23  39  58  81 109 130 150 194 256
#     4  10  19  30  40  60  86 110 141 170 200 238
#     4   9  16  26  40  59  83 111 136 163 198 244
#
# _framework density 23.963259000000001
#
# number of rings (size 3 to 8) (size 9 to 14) (size 15 to 20)
#    0.000    2.333    0.000    9.250    0.000    0.667 
#    0.000    0.000    0.000    0.000    0.000    0.000 
#    0.000    0.000    0.000  744.750    0.000    5.000 
#
# Total GULP energy -267371.614416 kJ/mol
# GULP energy per Si atom -5570.241967 kJ/mol
# Density = 2.390872 g / cm^3
# Si number density = 23.963259 Si / 1000 Ang^3
#
#
#
# Elastic Constant Matrix: (Units=GPa)
#
#
# Indices 1 2 3 4 5 6 
#
# 1 105.2090 4.4687 62.0910 0.0000 0.0000 0.0000
# 2 4.4687 68.6508 -7.4586 0.0000 0.0000 0.0000
# 3 62.0910 -7.4586 215.6091 0.0000 0.0000 0.0000
# 4 0.0000 0.0000 0.0000 -57.1406 0.0000 0.0000
# 5 0.0000 0.0000 0.0000 0.0000 463.3314 0.0000
# 6 0.0000 0.0000 0.0000 0.0000 0.0000 -405.0486
#
#
#
# Elastic Compliance Matrix: (Units=1/GPa)
#
#
# Indices 1 2 3 4 5 6 
#
# 1 0.011536 -0.001116 -0.003361 0.000000 0.000000 0.000000
# 2 -0.001116 0.014729 0.000831 0.000000 0.000000 0.000000
# 3 -0.003361 0.000831 0.005635 0.000000 0.000000 0.000000
# 4 0.000000 0.000000 0.000000 -0.017501 0.000000 0.000000
# 5 0.000000 0.000000 0.000000 0.000000 0.002158 0.000000
# 6 0.000000 0.000000 0.000000 0.000000 0.000000 -0.002469
#
#
# Mechanical properties :
#
#
# Convention : Reuss Voigt Hill
#
# Bulk Modulus (GPa) = 40.63692 56.40788 48.52240
# Shear Modulus (GPa) = 169.01894 22.25298 95.63596
#
# Velocity S-wave (km/s) = 8.40748 3.05065 6.32424
# Velocity P-wave (km/s) = 10.54715 5.99992 8.58025
#
# Compressibility (1/GPa) = 0.02460817
#
# Stress axis : x y z
#
# Youngs Moduli (GPa) = 86.68793 67.89144 177.47616
#
# Poissons Ratio (x) = 0.07577 0.59643
# Poissons Ratio (y) = 0.09674 -0.14747
# Poissons Ratio (z) = 0.29133 -0.05641
#
# Static dielectric constant tensor:
#      x y z
#    x 1.784450 0.000000 0.000000 
#    y 0.000000 1.971120 0.000000 
#    z 0.000000 0.000000 1.979760 
# 
# From -- ./inp_files/59524.got.cif
#   From: 2010.05.17/outbox.cif.g08.bks.cpg/sg66_30_cif.got.tgz:59524.got - 2010.06.03 17:51:23.
