data_PCOD9494237
_publ_section_title
;
Structure prediction by ZEFSAII (Michael W. Deem and Ramdas Pophale) SiO2 
 PCOD9494237
Probable space group: C M M M
;
_chemical_formula_sum "Si O2"
_cell_formula_units_Z 104
_cell_length_a 24.744869
_cell_length_b 14.339847
_cell_length_c 15.177639
_cell_angle_alpha 90.000000
_cell_angle_beta 90.000000
_cell_angle_gamma 90.000000
_cell_volume 5385.597535
_symmetry_space_group_name_H-M "C M M M"
_symmetry_group_IT_number 65
_symmetry_cell_setting 'orthorhombic'
loop_
_space_group_symop_operation_xyz
x,y,z
-x,-y,z
x,-y,-z
-x,y,-z
-x,-y,-z
x,y,-z
-x,y,z
x,-y,z
1/2+x,1/2+y,z
1/2-x,1/2-y,z
1/2+x,1/2-y,-z
1/2-x,1/2+y,-z
1/2-x,1/2-y,-z
1/2+x,1/2+y,-z
1/2-x,1/2+y,z
1/2+x,1/2-y,z
loop_
_atom_site_type_symbol
_atom_site_label
_atom_site_fract_x
_atom_site_fract_y
_atom_site_fract_z
Si Si1 0.231231 0.896944 0.138630
Si Si2 0.272770 0.395189 0.645979
Si Si3 0.939380 0.394171 0.394206
Si Si4 0.939314 0.202397 0.894780
Si Si5 0.832936 0.285711 0.351582
Si Si6 0.434073 0.500000 0.100829
Si Si7 0.331944 0.214441 0.140987
O O1 0.228138 0.897397 0.246156
O O2 0.292462 0.868615 0.112506
O O3 0.194048 0.811674 0.107636
O O4 0.216065 0.000000 0.108270
O O5 0.282504 0.500000 0.615452
O O6 0.214068 0.356413 0.617119
O O7 0.316337 0.317669 0.617813
O O8 0.941558 0.398164 0.500000
O O9 0.926721 0.500000 0.362791
O O10 0.892058 0.323055 0.371765
O O11 0.000000 0.369499 0.362865
O O12 0.920147 0.100628 0.857901
O O13 0.894921 0.281214 0.879930
O O14 0.000000 0.222533 0.862260
O O15 0.943082 0.189359 0.000000
O O16 0.827738 0.283834 0.246217
O O17 0.500000 0.500000 0.097728
O O18 0.413888 0.500000 0.000000
#
# Coordination Sequence:
#
# PCOD9494237 Si02
#       7
#    16  16  16  16  16   8  16
#     4   8  15  28  43  62  91 120 146 179 222 270
#     4   8  14  26  44  66  94 122 146 179 227 276
#     4   9  18  32  49  69  94 124 154 185 225 267
#     4   9  17  29  44  62  88 119 148 185 232 275
#     4   9  16  27  46  70  91 117 151 188 227 265
#     4   7  12  24  40  58  80 110 145 175 216 272
#     4   9  17  27  45  70  87 114 152 183 223 268
#
# _framework density 19.310763999999999
#
# number of rings (size 3 to 8) (size 9 to 14) (size 15 to 20)
#    0.000    3.462    0.000    3.692    1.077    1.231 
#    0.000    3.077    0.000    3.692    0.000    2.154 
#    0.000    0.000    0.000    0.000    0.000    0.000 
#
# Total GULP energy -289514.629709 kJ/mol
# GULP energy per Si atom -5567.589033 kJ/mol
# Density = 1.926681 g / cm^3
# Si number density = 19.310764 Si / 1000 Ang^3
#
#
#
# Elastic Constant Matrix: (Units=GPa)
#
#
# Indices 1 2 3 4 5 6 
#
# 1 124.7719 61.9511 0.1108 0.0000 0.0000 0.0000
# 2 61.9511 113.9484 6.7101 0.0000 0.0000 0.0000
# 3 0.1108 6.7101 22.0125 0.0000 0.0000 0.0000
# 4 0.0000 0.0000 0.0000 1.1068 0.0000 0.0000
# 5 0.0000 0.0000 0.0000 0.0000 27.0932 0.0000
# 6 0.0000 0.0000 0.0000 0.0000 0.0000 25.1340
#
#
#
# Elastic Compliance Matrix: (Units=1/GPa)
#
#
# Indices 1 2 3 4 5 6 
#
# 1 0.011048 -0.006113 0.001808 0.000000 0.000000 0.000000
# 2 -0.006113 0.012319 -0.003724 0.000000 0.000000 0.000000
# 3 0.001808 -0.003724 0.046555 0.000000 0.000000 0.000000
# 4 0.000000 0.000000 0.000000 0.903493 0.000000 0.000000
# 5 0.000000 0.000000 0.000000 0.000000 0.036910 0.000000
# 6 0.000000 0.000000 0.000000 0.000000 0.000000 0.039787
#
#
# Mechanical properties :
#
#
# Convention : Reuss Voigt Hill
#
# Bulk Modulus (GPa) = 18.56571 44.25296 31.40934
# Shear Modulus (GPa) = 4.61202 23.46420 14.03811
#
# Velocity S-wave (km/s) = 1.54709 3.48959 2.69914
# Velocity P-wave (km/s) = 3.58139 6.26117 5.10042
#
# Compressibility (1/GPa) = 0.05386273
#
# Stress axis : x y z
#
# Youngs Moduli (GPa) = 90.51171 81.17672 21.47998
#
# Poissons Ratio (x) = 0.49625 -0.03883
# Poissons Ratio (y) = 0.55331 0.08000
# Poissons Ratio (z) = -0.16363 0.30233
#
# Static dielectric constant tensor:
#      x y z
#    x 1.704020 0.000000 0.000000 
#    y 0.000000 1.704830 0.000000 
#    z 0.000000 0.000000 1.695950 
# 
# From -- ./inp_files/65509.got.cif
#   From: 2010.05.17/outbox.cif.g08.bks.cpg/sg65_33_cif.got.tgz:65509.got - 2010.06.03 17:01:31.
