data_PCOD9494221
_publ_section_title
;
Structure prediction by ZEFSAII (Michael W. Deem and Ramdas Pophale) SiO2 
 PCOD9494221
Probable space group: C M M M
;
_chemical_formula_sum "Si O2"
_cell_formula_units_Z 72
_cell_length_a 14.630985
_cell_length_b 7.215618
_cell_length_c 25.942786
_cell_angle_alpha 90.000000
_cell_angle_beta 90.000000
_cell_angle_gamma 90.000000
_cell_volume 2738.821393
_symmetry_space_group_name_H-M "C M M M"
_symmetry_group_IT_number 65
_symmetry_cell_setting 'orthorhombic'
loop_
_space_group_symop_operation_xyz
x,y,z
-x,-y,z
x,-y,-z
-x,y,-z
-x,-y,-z
x,y,-z
-x,y,z
x,-y,z
1/2+x,1/2+y,z
1/2-x,1/2-y,z
1/2+x,1/2-y,-z
1/2-x,1/2+y,-z
1/2-x,1/2-y,-z
1/2+x,1/2+y,-z
1/2-x,1/2+y,z
1/2+x,1/2-y,z
loop_
_atom_site_type_symbol
_atom_site_label
_atom_site_fract_x
_atom_site_fract_y
_atom_site_fract_z
Si Si1 0.642034 0.280345 0.722529
Si Si2 0.860048 0.779099 0.166708
Si Si3 0.108931 0.790288 0.390375
Si Si4 0.393107 0.273311 0.500000
Si Si5 0.859968 0.779262 0.944423
O O1 0.619159 0.500000 0.721063
O O2 0.750000 0.250000 0.725968
O O3 0.605903 0.209424 0.777694
O O4 0.618939 0.204053 0.666086
O O5 0.750000 0.750000 0.166205
O O6 0.893219 0.708508 0.111138
O O7 0.876099 0.000000 0.167018
O O8 0.144795 0.710542 0.444543
O O9 0.000000 0.803940 0.397506
O O10 0.147252 0.000000 0.386424
O O11 0.389690 0.500000 0.500000
O O12 0.500000 0.219520 0.500000
O O13 0.750000 0.750000 0.944486
O O14 0.876597 0.000000 0.944368
O O15 0.893043 0.708433 0.000000
#
# Coordination Sequence:
#
# PCOD9494221 Si02
#       5
#    16  16  16   8  16
#     4   9  16  25  37  53  74  97 118 142 174 212
#     4   8  13  20  29  42  61  85 110 134 164 201
#     4   8  13  22  37  55  72  91 118 150 178 203
#     4   7  10  18  33  52  71  89 112 145 180 206
#     4   8  12  17  25  37  54  77 105 134 161 191
#
# _framework density 26.288678000000001
#
# number of rings (size 3 to 8) (size 9 to 14) (size 15 to 20)
#    0.000    3.889    0.000    1.333    0.000    0.000 
#    0.000    0.556    0.000    0.667    0.000    0.000 
#    0.000    3.556    0.000   12.444    0.000    4.222 
#
# Total GULP energy -200511.467513 kJ/mol
# GULP energy per Si atom -5569.762986 kJ/mol
# Density = 2.622884 g / cm^3
# Si number density = 26.288678 Si / 1000 Ang^3
#
#
#
# Elastic Constant Matrix: (Units=GPa)
#
#
# Indices 1 2 3 4 5 6 
#
# 1 82.2224 -11.3172 18.6030 0.0000 0.0000 0.0000
# 2 -11.3172 138.7531 25.8304 0.0000 0.0000 0.0000
# 3 18.6030 25.8304 446.8105 0.0000 0.0000 0.0000
# 4 0.0000 0.0000 0.0000 -43.1101 0.0000 0.0000
# 5 0.0000 0.0000 0.0000 0.0000 30.0707 0.0000
# 6 0.0000 0.0000 0.0000 0.0000 0.0000 -14.1210
#
#
#
# Elastic Compliance Matrix: (Units=1/GPa)
#
#
# Indices 1 2 3 4 5 6 
#
# 1 0.012449 0.001124 -0.000583 0.000000 0.000000 0.000000
# 2 0.001124 0.007387 -0.000474 0.000000 0.000000 0.000000
# 3 -0.000583 -0.000474 0.002290 0.000000 0.000000 0.000000
# 4 0.000000 0.000000 0.000000 -0.023196 0.000000 0.000000
# 5 0.000000 0.000000 0.000000 0.000000 0.033255 0.000000
# 6 0.000000 0.000000 0.000000 0.000000 0.000000 -0.070816
#
#
# Mechanical properties :
#
#
# Convention : Reuss Voigt Hill
#
# Bulk Modulus (GPa) = 44.92530 81.55759 63.24145
# Shear Modulus (GPa) = -159.50878 36.87924 -61.31477
#
# Velocity S-wave (km/s) = -7.79792 3.74954 -4.83469
# Velocity P-wave (km/s) = 7.99690 7.05950 2.65649
#
# Compressibility (1/GPa) = 0.02225917
#
# Stress axis : x y z
#
# Youngs Moduli (GPa) = 80.32900 135.37420 436.72637
#
# Poissons Ratio (x) = -0.15215 0.25474
# Poissons Ratio (y) = -0.09029 0.20694
# Poissons Ratio (z) = 0.04685 0.06415
#
# Static dielectric constant tensor:
#      x y z
#    x 2.032170 0.000000 0.000000 
#    y 0.000000 2.066590 0.000000 
#    z 0.000000 0.000000 2.169440 
# 
# From -- ./inp_files/59533.got.cif
#   From: 2010.05.17/outbox.cif.g08.bks.cpg/sg65_30_cif.got.tgz:59533.got - 2010.06.03 17:01:31.
