data_PCOD9494439
_publ_section_title
;
Structure prediction by ZEFSAII (Michael W. Deem and Ramdas Pophale) SiO2 
 PCOD9494439
Probable space group: C M M M
;
_chemical_formula_sum "Si O2"
_cell_formula_units_Z 72
_cell_length_a 7.469179
_cell_length_b 35.421703
_cell_length_c 13.218028
_cell_angle_alpha 90.000000
_cell_angle_beta 90.000000
_cell_angle_gamma 90.000000
_cell_volume 3497.107417
_symmetry_space_group_name_H-M "C M M M"
_symmetry_group_IT_number 65
_symmetry_cell_setting 'orthorhombic'
loop_
_space_group_symop_operation_xyz
x,y,z
-x,-y,z
x,-y,-z
-x,y,-z
-x,-y,-z
x,y,-z
-x,y,z
x,-y,z
1/2+x,1/2+y,z
1/2-x,1/2-y,z
1/2+x,1/2-y,-z
1/2-x,1/2+y,-z
1/2-x,1/2-y,-z
1/2+x,1/2+y,-z
1/2-x,1/2+y,z
1/2+x,1/2-y,z
loop_
_atom_site_type_symbol
_atom_site_label
_atom_site_fract_x
_atom_site_fract_y
_atom_site_fract_z
Si Si1 0.214600 0.207103 0.614490
Si Si2 0.718904 0.000000 0.616458
Si Si3 0.717850 0.644164 0.000000
Si Si4 0.793253 0.444409 0.000000
Si Si5 0.785661 0.850535 0.219489
Si Si6 0.285339 0.939573 0.779068
O O1 0.284612 0.202846 0.500000
O O2 0.250000 0.250000 0.647928
O O3 0.285596 0.176026 0.692110
O O4 0.000000 0.202728 0.609429
O O5 0.776086 0.036013 0.683595
O O6 0.500000 0.000000 0.613386
O O7 0.779357 0.000000 0.500000
O O8 0.786017 0.601162 0.000000
O O9 0.777017 0.660983 0.106908
O O10 0.500000 0.642589 0.000000
O O11 0.715417 0.453703 0.889179
O O12 0.000000 0.456892 0.000000
O O13 0.750280 0.895075 0.233428
O O14 0.000000 0.846382 0.219228
O O15 0.500000 0.944012 0.784556
#
# Coordination Sequence:
#
# PCOD9494439 Si02
#       6
#    16   8   8   8  16  16
#     4   9  18  32  48  66  89 116 146 182 220 256
#     4   9  18  31  44  62  91 121 148 182 222 261
#     4   8  14  26  44  64  88 117 142 169 213 264
#     4   8  14  25  42  65  87 107 141 185 220 251
#     4   9  17  30  48  68  90 116 146 179 217 262
#     4   9  17  29  46  66  88 116 148 182 219 259
#
# _framework density 20.588443999999999
#
# number of rings (size 3 to 8) (size 9 to 14) (size 15 to 20)
#    0.000    3.222    0.000    0.000    0.000    2.222 
#    0.000    3.333    0.000    0.667    0.000    7.778 
#    0.000    0.000    0.000    0.000    0.000    0.000 
#
# Total GULP energy -200614.205651 kJ/mol
# GULP energy per Si atom -5572.616824 kJ/mol
# Density = 2.054158 g / cm^3
# Si number density = 20.588444 Si / 1000 Ang^3
#
#
#
# Elastic Constant Matrix: (Units=GPa)
#
#
# Indices 1 2 3 4 5 6 
#
# 1 62.2425 -3.3081 8.6747 0.0000 0.0000 0.0000
# 2 -3.3081 117.0597 113.6739 0.0000 0.0000 0.0000
# 3 8.6747 113.6739 219.6933 0.0000 0.0000 0.0000
# 4 0.0000 0.0000 0.0000 49.6306 0.0000 0.0000
# 5 0.0000 0.0000 0.0000 0.0000 -2.4877 0.0000
# 6 0.0000 0.0000 0.0000 0.0000 0.0000 -24.5011
#
#
#
# Elastic Compliance Matrix: (Units=1/GPa)
#
#
# Indices 1 2 3 4 5 6 
#
# 1 0.016432 0.002200 -0.001787 0.000000 0.000000 0.000000
# 2 0.002200 0.017464 -0.009123 0.000000 0.000000 0.000000
# 3 -0.001787 -0.009123 0.009343 0.000000 0.000000 0.000000
# 4 0.000000 0.000000 0.000000 0.020149 0.000000 0.000000
# 5 0.000000 0.000000 0.000000 0.000000 -0.401973 0.000000
# 6 0.000000 0.000000 0.000000 0.000000 0.000000 -0.040814
#
#
# Mechanical properties :
#
#
# Convention : Reuss Voigt Hill
#
# Bulk Modulus (GPa) = 38.73236 70.78627 54.75932
# Shear Modulus (GPa) = -14.14938 23.19202 4.52132
#
# Velocity S-wave (km/s) = -2.62439 3.35992 1.48351
# Velocity P-wave (km/s) = 3.10971 7.03621 5.43960
#
# Compressibility (1/GPa) = 0.02581821
#
# Stress axis : x y z
#
# Youngs Moduli (GPa) = 60.85625 57.26038 107.03357
#
# Poissons Ratio (x) = -0.12595 0.19127
# Poissons Ratio (y) = -0.13386 0.97648
# Poissons Ratio (z) = 0.10875 0.52239
#
# Static dielectric constant tensor:
#      x y z
#    x 1.757940 0.000000 0.000000 
#    y 0.000000 1.693880 0.000000 
#    z 0.000000 0.000000 1.782480 
# 
# From -- ./inp_files/22554.got.cif
#   From: 2010.05.17/outbox.cif.g08.bks.cpg/sg65_12_cif.got.tgz:22554.got - 2010.06.03 17:01:31.
