data_PCOD9494182
_publ_section_title
;
Structure prediction by ZEFSAII (Michael W. Deem and Ramdas Pophale) SiO2 
 PCOD9494182
Probable space group: C M M M
;
_chemical_formula_sum "Si O2"
_cell_formula_units_Z 104
_cell_length_a 8.271291
_cell_length_b 21.451926
_cell_length_c 30.777785
_cell_angle_alpha 90.000000
_cell_angle_beta 90.000000
_cell_angle_gamma 90.000000
_cell_volume 5461.060050
_symmetry_space_group_name_H-M "C M M M"
_symmetry_group_IT_number 65
_symmetry_cell_setting 'orthorhombic'
loop_
_space_group_symop_operation_xyz
x,y,z
-x,-y,z
x,-y,-z
-x,y,-z
-x,-y,-z
x,y,-z
-x,y,z
x,-y,z
1/2+x,1/2+y,z
1/2-x,1/2-y,z
1/2+x,1/2-y,-z
1/2-x,1/2+y,-z
1/2-x,1/2-y,-z
1/2+x,1/2+y,-z
1/2-x,1/2+y,z
1/2+x,1/2-y,z
loop_
_atom_site_type_symbol
_atom_site_label
_atom_site_fract_x
_atom_site_fract_y
_atom_site_fract_z
Si Si1 0.804955 0.930691 0.808477
Si Si2 0.682861 0.500000 0.052659
Si Si3 0.194936 0.135550 0.951077
Si Si4 0.195935 0.178118 0.357347
Si Si5 0.697087 0.570053 0.707569
Si Si6 0.690066 0.185790 0.136025
Si Si7 0.804864 0.178043 0.453444
O O1 0.756144 0.922632 0.758056
O O2 0.743412 0.874527 0.837342
O O3 0.000000 0.929929 0.809982
O O4 0.752284 0.000000 0.823077
O O5 0.500000 0.500000 0.071414
O O6 0.759503 0.433376 0.062264
O O7 0.668754 0.500000 0.000000
O O8 0.239313 0.180635 0.912483
O O9 0.000000 0.130278 0.953029
O O10 0.250737 0.151318 0.000000
O O11 0.250000 0.250000 0.350411
O O12 0.252756 0.127602 0.322022
O O13 0.248788 0.155883 0.405812
O O14 0.000000 0.178828 0.356562
O O15 0.500000 0.570512 0.706485
O O16 0.747103 0.500000 0.693399
O O17 0.500000 0.187454 0.132887
O O18 0.750000 0.250000 0.156925
O O19 0.749319 0.150220 0.500000
O O20 0.750000 0.250000 0.454128
O O21 0.000000 0.175458 0.453473
#
# Coordination Sequence:
#
# PCOD9494182 Si02
#       7
#    16   8  16  16  16  16  16
#     4   9  19  38  62  82 102 133 172 212 258 314
#     4   7  12  26  51  81 107 133 167 203 239 283
#     4   9  18  35  59  85 112 143 178 212 250 298
#     4   9  16  26  43  68  96 125 162 207 250 294
#     4   8  15  30  52  75  97 126 164 201 243 301
#     4  12  26  41  57  80 112 144 177 214 257 306
#     4   8  13  21  34  55  86 123 160 199 243 289
#
# _framework density 19.043921999999998
#
# number of rings (size 3 to 8) (size 9 to 14) (size 15 to 20)
#    0.000    3.000    0.000    3.231    1.077    1.538 
#    0.000    2.308    0.000    3.231    0.000    3.231 
#    0.000    0.000    0.000   24.923    0.000   11.692 
#
# Total GULP energy -289583.680660 kJ/mol
# GULP energy per Si atom -5568.916936 kJ/mol
# Density = 1.900058 g / cm^3
# Si number density = 19.043922 Si / 1000 Ang^3
#
#
#
# Elastic Constant Matrix: (Units=GPa)
#
#
# Indices 1 2 3 4 5 6 
#
# 1 15.6334 13.6410 16.6524 0.0000 0.0000 0.0000
# 2 13.6410 128.5817 78.3778 0.0000 0.0000 0.0000
# 3 16.6524 78.3778 103.7360 0.0000 0.0000 0.0000
# 4 0.0000 0.0000 0.0000 23.4940 0.0000 0.0000
# 5 0.0000 0.0000 0.0000 0.0000 1.4454 0.0000
# 6 0.0000 0.0000 0.0000 0.0000 0.0000 20.1835
#
#
#
# Elastic Compliance Matrix: (Units=1/GPa)
#
#
# Indices 1 2 3 4 5 6 
#
# 1 0.077255 -0.001180 -0.011510 0.000000 0.000000 0.000000
# 2 -0.001180 0.014435 -0.010717 0.000000 0.000000 0.000000
# 3 -0.011510 -0.010717 0.019585 0.000000 0.000000 0.000000
# 4 0.000000 0.000000 0.000000 0.042564 0.000000 0.000000
# 5 0.000000 0.000000 0.000000 0.000000 0.691828 0.000000
# 6 0.000000 0.000000 0.000000 0.000000 0.000000 0.049545
#
#
# Mechanical properties :
#
#
# Convention : Reuss Voigt Hill
#
# Bulk Modulus (GPa) = 15.51321 51.69928 33.60624
# Shear Modulus (GPa) = 5.18934 18.30991 11.74963
#
# Velocity S-wave (km/s) = 1.65253 3.10410 2.48659
# Velocity P-wave (km/s) = 3.43582 6.32879 5.09207
#
# Compressibility (1/GPa) = 0.06446121
#
# Stress axis : x y z
#
# Youngs Moduli (GPa) = 12.94410 69.27674 51.06031
#
# Poissons Ratio (x) = 0.08173 0.58771
# Poissons Ratio (y) = 0.01527 0.54721
# Poissons Ratio (z) = 0.14899 0.74243
#
# Static dielectric constant tensor:
#      x y z
#    x 1.678650 0.000000 0.000000 
#    y 0.000000 1.635730 0.000000 
#    z 0.000000 0.000000 1.702270 
# 
# From -- ./inp_files/76913.got.cif
#   From: 2010.05.17/outbox.cif.g08.bks.cpg/sg65_39_cif.got.tgz:76913.got - 2010.06.03 17:01:31.
