data_PCOD9494671
_publ_section_title
;
Structure prediction by ZEFSAII (Michael W. Deem and Ramdas Pophale) SiO2 
 PCOD9494671
Probable space group: C M M M
;
_chemical_formula_sum "Si O2"
_cell_formula_units_Z 52
_cell_length_a 30.000000
_cell_length_b 9.000000
_cell_length_c 24.000000
_cell_angle_alpha 90.000000
_cell_angle_beta 90.000000
_cell_angle_gamma 90.000000
_cell_volume 6480.000000
_symmetry_space_group_name_H-M "C M M M"
_symmetry_group_IT_number 65
_symmetry_cell_setting 'orthorhombic'
loop_
_space_group_symop_operation_xyz
x,y,z
-x,-y,z
x,-y,-z
-x,y,-z
-x,-y,-z
x,y,-z
-x,y,z
x,-y,z
1/2+x,1/2+y,z
1/2-x,1/2-y,z
1/2+x,1/2-y,-z
1/2-x,1/2+y,-z
1/2-x,1/2-y,-z
1/2+x,1/2+y,-z
1/2-x,1/2+y,z
1/2+x,1/2-y,z
loop_
_atom_site_type_symbol
_atom_site_label
_atom_site_fract_x
_atom_site_fract_y
_atom_site_fract_z
Si Si1 0.048663 0.171599 0.067456
Si Si2 0.700675 0.320201 0.284972
Si Si3 0.550915 0.820992 0.565785
Si Si4 0.799123 0.820594 0.500000
Si Si5 0.140865 0.821454 0.607047
Si Si6 0.640258 0.821996 0.936088
Si Si7 0.701195 0.180058 0.168291
O O1 0.091378 0.267324 0.081780
O O2 0.000000 0.224758 0.087011
O O3 0.054302 0.000000 0.084789
O O4 0.047256 0.171802 0.000000
O O5 0.704751 0.500000 0.280301
O O6 0.750000 0.250000 0.295215
O O7 0.667295 0.285503 0.335946
O O8 0.684049 0.249924 0.226506
O O9 0.556268 0.782648 0.500000
O O10 0.500000 0.776870 0.582016
O O11 0.592139 0.750542 0.599121
O O12 0.553259 0.000000 0.570057
O O13 0.750000 0.750000 0.500000
O O14 0.827597 0.777722 0.445243
O O15 0.794575 0.000000 0.500000
O O16 0.135723 0.000000 0.604917
O O17 0.673867 0.777662 0.887144
O O18 0.640688 0.000000 0.938608
O O19 0.649573 0.767960 0.000000
O O20 0.750000 0.250000 0.162126
O O21 0.702788 0.000000 0.172607
#
# Coordination Sequence:
#
# PCOD9494671 Si02
#       7
#    16  16  16   8  16  16  16
#     4   8  14  25  42  66  95 124 153 185 225 277
#     4  10  20  34  52  73  96 126 165 203 239 287
#     4   9  18  32  50  74 102 131 165 202 241 289
#     4  10  20  32  45  68 101 129 156 191 235 284
#     4  10  20  33  50  73 100 129 162 200 242 287
#     4   9  18  31  47  70  98 125 156 196 242 291
#     4  10  20  34  51  70  94 126 163 201 241 287
#
# _framework density 8.0246910000000007
#
# number of rings (size 3 to 8) (size 9 to 14) (size 15 to 20)
#    0.000    2.615    0.769    3.231    0.000    4.000 
#    0.000    2.308    0.000    0.923    0.000    0.000 
#    0.000    0.000    0.000    0.000    0.000    0.000 
#
# Total GULP energy -289632.075725 kJ/mol
# GULP energy per Si atom -5569.847610 kJ/mol
# Density = 0.800643 g / cm^3
# Si number density = 8.024691 Si / 1000 Ang^3
#
#
#
# Elastic Constant Matrix: (Units=GPa)
#
#
# Indices 1 2 3 4 5 6 
#
# 1 124.3268 34.9894 79.5056 0.0000 0.0000 0.0000
# 2 34.9894 34.6268 36.1773 0.0000 0.0000 0.0000
# 3 79.5056 36.1773 121.6130 0.0000 0.0000 0.0000
# 4 0.0000 0.0000 0.0000 22.9933 0.0000 0.0000
# 5 0.0000 0.0000 0.0000 0.0000 19.2957 0.0000
# 6 0.0000 0.0000 0.0000 0.0000 0.0000 33.3743
#
#
#
# Elastic Compliance Matrix: (Units=1/GPa)
#
#
# Indices 1 2 3 4 5 6 
#
# 1 0.014934 -0.007095 -0.007652 0.000000 0.000000 0.000000
# 2 -0.007095 0.045274 -0.008829 0.000000 0.000000 0.000000
# 3 -0.007652 -0.008829 0.015852 0.000000 0.000000 0.000000
# 4 0.000000 0.000000 0.000000 0.043491 0.000000 0.000000
# 5 0.000000 0.000000 0.000000 0.000000 0.051825 0.000000
# 6 0.000000 0.000000 0.000000 0.000000 0.000000 0.029963
#
#
# Mechanical properties :
#
#
# Convention : Reuss Voigt Hill
#
# Bulk Modulus (GPa) = 34.59534 64.65679 49.62606
# Shear Modulus (GPa) = 19.37025 23.79227 21.58126
#
# Velocity S-wave (km/s) = 3.47784 3.85443 3.67096
# Velocity P-wave (km/s) = 6.14243 7.75773 6.99685
#
# Compressibility (1/GPa) = 0.02890563
#
# Stress axis : x y z
#
# Youngs Moduli (GPa) = 66.96249 22.08794 63.08257
#
# Poissons Ratio (x) = 0.15671 0.48274
# Poissons Ratio (y) = 0.47510 0.55699
# Poissons Ratio (z) = 0.51243 0.19503
#
# Static dielectric constant tensor:
#      x y z
#    x 1.537250 0.000000 0.000000 
#    y 0.000000 1.541520 0.000000 
#    z 0.000000 0.000000 1.538620 
# 
# From -- ./inp_files/72110.got.cif
#   From: 2010.05.17/outbox.ucp.g08.bks.cvg/sg65_37_cif.got.tgz:72110.got - 2010.06.11 16:39:57.
