data_PCOD9494074
_publ_section_title
;
Structure prediction by ZEFSAII (Michael W. Deem and Ramdas Pophale) SiO2 
 PCOD9494074
Probable space group: C M M M
;
_chemical_formula_sum "Si O2"
_cell_formula_units_Z 72
_cell_length_a 18.355736
_cell_length_b 8.435513
_cell_length_c 24.868631
_cell_angle_alpha 90.000000
_cell_angle_beta 90.000000
_cell_angle_gamma 90.000000
_cell_volume 3850.660059
_symmetry_space_group_name_H-M "C M M M"
_symmetry_group_IT_number 65
_symmetry_cell_setting 'orthorhombic'
loop_
_space_group_symop_operation_xyz
x,y,z
-x,-y,z
x,-y,-z
-x,y,-z
-x,-y,-z
x,y,-z
-x,y,z
x,-y,z
1/2+x,1/2+y,z
1/2-x,1/2-y,z
1/2+x,1/2-y,-z
1/2-x,1/2+y,-z
1/2-x,1/2-y,-z
1/2+x,1/2+y,-z
1/2-x,1/2+y,z
1/2+x,1/2-y,z
loop_
_atom_site_type_symbol
_atom_site_label
_atom_site_fract_x
_atom_site_fract_y
_atom_site_fract_z
Si Si1 0.585409 0.307889 0.290757
Si Si2 0.167918 0.311800 0.395585
Si Si3 0.912694 0.192038 0.942133
Si Si4 0.588279 0.311322 0.173437
Si Si5 0.083403 0.810033 0.500000
O O1 0.500000 0.264771 0.296711
O O2 0.588693 0.500000 0.290801
O O3 0.630690 0.244134 0.340409
O O4 0.612234 0.249927 0.231795
O O5 0.168054 0.500000 0.397633
O O6 0.250000 0.250000 0.398134
O O7 0.123722 0.247472 0.446607
O O8 0.884893 0.253351 0.884268
O O9 0.000000 0.220966 0.942499
O O10 0.904486 0.000000 0.941756
O O11 0.883624 0.250370 0.000000
O O12 0.500000 0.296464 0.173528
O O13 0.603467 0.500000 0.173154
O O14 0.000000 0.753403 0.500000
O O15 0.083365 0.000000 0.500000
#
# Coordination Sequence:
#
# PCOD9494074 Si02
#       5
#    16  16  16  16   8
#     4   9  17  31  51  74 102 136 173 211 253 302
#     4  12  25  40  58  80 108 138 171 210 251 295
#     4   7   8  10  19  40  74 115 155 193 235 284
#     4   7  10  17  31  53  83 121 161 199 241 290
#     4  11  24  43  66  89 113 139 166 197 238 289
#
# _framework density 18.698094000000001
#
# number of rings (size 3 to 8) (size 9 to 14) (size 15 to 20)
#    0.000    3.000    0.000    6.667    0.000    4.000 
#    0.000    0.000    0.000    0.000    0.000    0.000 
#    0.000    1.778    0.000   10.222    0.000   11.556 
#
# Total GULP energy -200423.259327 kJ/mol
# GULP energy per Si atom -5567.312759 kJ/mol
# Density = 1.865554 g / cm^3
# Si number density = 18.698094 Si / 1000 Ang^3
#
#
#
# Elastic Constant Matrix: (Units=GPa)
#
#
# Indices 1 2 3 4 5 6 
#
# 1 70.6655 24.3221 79.1286 0.0000 0.0000 0.0000
# 2 24.3221 29.8227 36.4841 0.0000 0.0000 0.0000
# 3 79.1286 36.4841 259.4984 0.0000 0.0000 0.0000
# 4 0.0000 0.0000 0.0000 -28.8925 0.0000 0.0000
# 5 0.0000 0.0000 0.0000 0.0000 -10.6541 0.0000
# 6 0.0000 0.0000 0.0000 0.0000 0.0000 -87.5905
#
#
#
# Elastic Compliance Matrix: (Units=1/GPa)
#
#
# Indices 1 2 3 4 5 6 
#
# 1 0.025327 -0.013536 -0.005820 0.000000 0.000000 0.000000
# 2 -0.013536 0.047731 -0.002583 0.000000 0.000000 0.000000
# 3 -0.005820 -0.002583 0.005991 0.000000 0.000000 0.000000
# 4 0.000000 0.000000 0.000000 -0.034611 0.000000 0.000000
# 5 0.000000 0.000000 0.000000 0.000000 -0.093860 0.000000
# 6 0.000000 0.000000 0.000000 0.000000 0.000000 -0.011417
#
#
# Mechanical properties :
#
#
# Convention : Reuss Voigt Hill
#
# Bulk Modulus (GPa) = 28.43202 71.09511 49.76357
# Shear Modulus (GPa) = -954.61649 -10.75731 -482.68690
#
# Velocity S-wave (km/s) = -22.61969 -2.40118 -16.08440
# Velocity P-wave (km/s) = 25.82560 5.51522 17.84018
#
# Compressibility (1/GPa) = 0.03517161
#
# Stress axis : x y z
#
# Youngs Moduli (GPa) = 39.48393 20.95075 166.90533
#
# Poissons Ratio (x) = 0.28358 0.97136
# Poissons Ratio (y) = 0.53444 0.43117
# Poissons Ratio (z) = 0.22979 0.05412
#
# Static dielectric constant tensor:
#      x y z
#    x 1.607710 0.000000 0.000000 
#    y 0.000000 1.632080 0.000000 
#    z 0.000000 0.000000 1.729450 
# 
# From -- ./inp_files/70363.got.cif
#   From: 2010.05.17/outbox.cif.g08.bks.cpg/sg65_36_cif.got.tgz:70363.got - 2010.06.03 17:01:31.
