data_PCOD9494145
_publ_section_title
;
Structure prediction by ZEFSAII (Michael W. Deem and Ramdas Pophale) SiO2 
 PCOD9494145
Probable space group: C M M M
;
_chemical_formula_sum "Si O2"
_cell_formula_units_Z 72
_cell_length_a 28.996731
_cell_length_b 15.667964
_cell_length_c 9.037639
_cell_angle_alpha 90.000000
_cell_angle_beta 90.000000
_cell_angle_gamma 90.000000
_cell_volume 4105.977777
_symmetry_space_group_name_H-M "C M M M"
_symmetry_group_IT_number 65
_symmetry_cell_setting 'orthorhombic'
loop_
_space_group_symop_operation_xyz
x,y,z
-x,-y,z
x,-y,-z
-x,y,-z
-x,-y,-z
x,y,-z
-x,y,z
x,-y,z
1/2+x,1/2+y,z
1/2-x,1/2-y,z
1/2+x,1/2-y,-z
1/2-x,1/2+y,-z
1/2-x,1/2-y,-z
1/2+x,1/2+y,-z
1/2-x,1/2+y,z
1/2+x,1/2-y,z
loop_
_atom_site_type_symbol
_atom_site_label
_atom_site_fract_x
_atom_site_fract_y
_atom_site_fract_z
Si Si1 0.553718 0.688456 0.179196
Si Si2 0.139903 0.255102 0.675423
Si Si3 0.698557 0.098684 0.174615
Si Si4 0.444065 0.500000 0.831687
Si Si5 0.808607 0.901947 0.175729
O O1 0.500000 0.703393 0.215220
O O2 0.589453 0.753045 0.250373
O O3 0.567206 0.592309 0.233255
O O4 0.557388 0.688465 0.000000
O O5 0.136373 0.254332 0.500000
O O6 0.169593 0.335120 0.731023
O O7 0.165439 0.170023 0.733778
O O8 0.753561 0.107717 0.198301
O O9 0.686739 0.000000 0.205642
O O10 0.690404 0.114878 0.000000
O O11 0.500000 0.500000 0.841193
O O12 0.425822 0.500000 0.000000
O O13 0.821301 0.000000 0.213001
O O14 0.817549 0.890161 0.000000
#
# Coordination Sequence:
#
# PCOD9494145 Si02
#       5
#    16  16  16   8  16
#     4   9  18  34  55  76 100 136 183 227 261 300
#     4  12  24  33  49  80 116 147 172 208 266 330
#     4   9  19  38  61  80  99 132 183 233 268 304
#     4   7  12  26  49  73  93 121 167 217 257 291
#     4   9  19  36  57  79 105 140 182 225 261 300
#
# _framework density 17.535409999999999
#
# number of rings (size 3 to 8) (size 9 to 14) (size 15 to 20)
#    0.000    2.556    0.000    5.333    1.556    4.889 
#    0.000    2.222    0.000    2.667    0.000    4.667 
#    0.000    0.000    0.000    0.000    0.000    0.000 
#
# Total GULP energy -200877.767520 kJ/mol
# GULP energy per Si atom -5579.937987 kJ/mol
# Density = 1.749550 g / cm^3
# Si number density = 17.535410 Si / 1000 Ang^3
#
#
#
# Elastic Constant Matrix: (Units=GPa)
#
#
# Indices 1 2 3 4 5 6 
#
# 1 83.2134 56.2335 55.7196 0.0000 0.0000 0.0000
# 2 56.2335 66.1836 52.6973 0.0000 0.0000 0.0000
# 3 55.7196 52.6973 63.2625 0.0000 0.0000 0.0000
# 4 0.0000 0.0000 0.0000 -7.5922 0.0000 0.0000
# 5 0.0000 0.0000 0.0000 0.0000 -265.7869 0.0000
# 6 0.0000 0.0000 0.0000 0.0000 0.0000 25.9440
#
#
#
# Elastic Compliance Matrix: (Units=1/GPa)
#
#
# Indices 1 2 3 4 5 6 
#
# 1 0.033545 -0.014779 -0.017234 0.000000 0.000000 0.000000
# 2 -0.014779 0.051381 -0.029783 0.000000 0.000000 0.000000
# 3 -0.017234 -0.029783 0.055795 0.000000 0.000000 0.000000
# 4 0.000000 0.000000 0.000000 -0.131714 0.000000 0.000000
# 5 0.000000 0.000000 0.000000 0.000000 -0.003762 0.000000
# 6 0.000000 0.000000 0.000000 0.000000 0.000000 0.038545
#
#
# Mechanical properties :
#
#
# Convention : Reuss Voigt Hill
#
# Bulk Modulus (GPa) = 58.38224 60.21782 59.30003
# Shear Modulus (GPa) = 28.88662 -46.28643 -8.69990
#
# Velocity S-wave (km/s) = 4.06314 -5.14328 -2.22982
# Velocity P-wave (km/s) = 7.44166 0.92509 5.22123
#
# Compressibility (1/GPa) = 0.01712850
#
# Stress axis : x y z
#
# Youngs Moduli (GPa) = 29.81106 19.46254 17.92271
#
# Poissons Ratio (x) = 0.28764 0.30888
# Poissons Ratio (y) = 0.44059 0.53379
# Poissons Ratio (z) = 0.51376 0.57965
#
# Static dielectric constant tensor:
#      x y z
#    x 1.614210 0.000000 0.000000 
#    y 0.000000 1.596430 0.000000 
#    z 0.000000 0.000000 1.575980 
# 
# From -- ./inp_files/7245.got.cif
#   From: 2010.05.17/outbox.cif.g08.bks.cpg/sg65_4_cif.got.tgz:7245.got - 2010.06.03 17:01:31.
