data_PCOD9494746
_publ_section_title
;
Structure prediction by ZEFSAII (Michael W. Deem and Ramdas Pophale) SiO2 
 PCOD9494746
Probable space group: C M M M
;
_chemical_formula_sum "Si O2"
_cell_formula_units_Z 36
_cell_length_a 9.000000
_cell_length_b 30.000000
_cell_length_c 15.000000
_cell_angle_alpha 90.000000
_cell_angle_beta 90.000000
_cell_angle_gamma 90.000000
_cell_volume 4050.000000
_symmetry_space_group_name_H-M "C M M M"
_symmetry_group_IT_number 65
_symmetry_cell_setting 'orthorhombic'
loop_
_space_group_symop_operation_xyz
x,y,z
-x,-y,z
x,-y,-z
-x,y,-z
-x,-y,-z
x,y,-z
-x,y,z
x,-y,z
1/2+x,1/2+y,z
1/2-x,1/2-y,z
1/2+x,1/2-y,-z
1/2-x,1/2+y,-z
1/2-x,1/2-y,-z
1/2+x,1/2+y,-z
1/2-x,1/2+y,z
1/2+x,1/2-y,z
loop_
_atom_site_type_symbol
_atom_site_label
_atom_site_fract_x
_atom_site_fract_y
_atom_site_fract_z
Si Si1 0.331310 0.706090 0.893693
Si Si2 0.679657 0.699690 0.500000
Si Si3 0.179907 0.949070 0.500000
Si Si4 0.320061 0.376408 0.353283
Si Si5 0.820436 0.053834 0.000000
Si Si6 0.678910 0.885473 0.156510
O O1 0.500000 0.700580 0.858177
O O2 0.250000 0.750000 0.856575
O O3 0.232299 0.662660 0.878962
O O4 0.344427 0.711978 0.000000
O O5 0.500000 0.704326 0.500000
O O6 0.750000 0.750000 0.500000
O O7 0.717414 0.668258 0.412723
O O8 0.219935 0.918991 0.585202
O O9 0.000000 0.951162 0.500000
O O10 0.235573 0.000000 0.500000
O O11 0.500000 0.375552 0.341388
O O12 0.241812 0.384093 0.258016
O O13 0.750886 0.077993 0.088276
O O14 0.000000 0.060892 0.000000
O O15 0.793762 0.000000 0.000000
O O16 0.500000 0.889814 0.155457
#
# Coordination Sequence:
#
# PCOD9494746 Si02
#       6
#    16   8   8  16   8  16
#     4  10  20  35  57  82 112 149 192 236 281 332
#     4   9  19  36  59  85 117 158 198 243 290 340
#     4   8  15  32  60  87 107 136 183 237 290 345
#     4   9  19  36  57  84 117 150 191 240 290 345
#     4  11  25  45  66  85 110 153 205 253 303 357
#     4  12  24  38  59  87 122 158 195 242 297 352
#
# _framework density 8.8888890000000007
#
# number of rings (size 3 to 8) (size 9 to 14) (size 15 to 20)
#    0.000    2.000    1.111    4.333    0.000    4.444 
#    0.000    6.111    0.000    0.667    0.000    0.000 
#    0.000    0.000    0.000    0.000    0.000    0.000 
#
# Total GULP energy -200691.244993 kJ/mol
# GULP energy per Si atom -5574.756805 kJ/mol
# Density = 0.886866 g / cm^3
# Si number density = 8.888889 Si / 1000 Ang^3
#
#
#
# Elastic Constant Matrix: (Units=GPa)
#
#
# Indices 1 2 3 4 5 6 
#
# 1 119.3661 60.4562 58.2051 0.0000 0.0000 0.0000
# 2 60.4562 177.7899 65.9868 0.0000 0.0000 0.0000
# 3 58.2051 65.9868 127.1517 0.0000 0.0000 0.0000
# 4 0.0000 0.0000 0.0000 13.7464 0.0000 0.0000
# 5 0.0000 0.0000 0.0000 0.0000 27.6230 0.0000
# 6 0.0000 0.0000 0.0000 0.0000 0.0000 31.2406
#
#
#
# Elastic Compliance Matrix: (Units=1/GPa)
#
#
# Indices 1 2 3 4 5 6 
#
# 1 0.011581 -0.002441 -0.004035 0.000000 0.000000 0.000000
# 2 -0.002441 0.007481 -0.002765 0.000000 0.000000 0.000000
# 3 -0.004035 -0.002765 0.011147 0.000000 0.000000 0.000000
# 4 0.000000 0.000000 0.000000 0.072746 0.000000 0.000000
# 5 0.000000 0.000000 0.000000 0.000000 0.036202 0.000000
# 6 0.000000 0.000000 0.000000 0.000000 0.000000 0.032010
#
#
# Mechanical properties :
#
#
# Convention : Reuss Voigt Hill
#
# Bulk Modulus (GPa) = 85.26897 88.17823 86.72360
# Shear Modulus (GPa) = 25.83230 30.49931 28.16580
#
# Velocity S-wave (km/s) = 3.81605 4.14646 3.98468
# Velocity P-wave (km/s) = 8.21488 8.52245 8.37007
#
# Compressibility (1/GPa) = 0.01172760
#
# Stress axis : x y z
#
# Youngs Moduli (GPa) = 86.34737 133.67643 89.71375
#
# Poissons Ratio (x) = 0.32624 0.36198
# Poissons Ratio (y) = 0.21073 0.24806
# Poissons Ratio (z) = 0.34840 0.36962
#
# Static dielectric constant tensor:
#      x y z
#    x 1.611150 0.000000 0.000000 
#    y 0.000000 1.607250 0.000000 
#    z 0.000000 0.000000 1.632390 
# 
# From -- ./inp_files/37064.got.cif
#   From: 2010.05.17/outbox.ucp.g08.bks.cvg/sg65_19_cif.got.tgz:37064.got - 2010.06.11 16:39:57.
