data_PCOD9494418
_publ_section_title
;
Structure prediction by ZEFSAII (Michael W. Deem and Ramdas Pophale) SiO2 
 PCOD9494418
Probable space group: C M M M
;
_chemical_formula_sum "Si O2"
_cell_formula_units_Z 64
_cell_length_a 11.206072
_cell_length_b 19.162950
_cell_length_c 14.392166
_cell_angle_alpha 90.000000
_cell_angle_beta 90.000000
_cell_angle_gamma 90.000000
_cell_volume 3090.593839
_symmetry_space_group_name_H-M "C M M M"
_symmetry_group_IT_number 65
_symmetry_cell_setting 'orthorhombic'
loop_
_space_group_symop_operation_xyz
x,y,z
-x,-y,z
x,-y,-z
-x,y,-z
-x,-y,-z
x,y,-z
-x,y,z
x,-y,z
1/2+x,1/2+y,z
1/2-x,1/2-y,z
1/2+x,1/2-y,-z
1/2-x,1/2+y,-z
1/2-x,1/2-y,-z
1/2+x,1/2+y,-z
1/2-x,1/2+y,z
1/2+x,1/2-y,z
loop_
_atom_site_type_symbol
_atom_site_label
_atom_site_fract_x
_atom_site_fract_y
_atom_site_fract_z
Si Si1 0.749482 0.079415 0.105338
Si Si2 0.629534 0.583909 0.291878
Si Si3 0.630760 0.915596 0.610289
Si Si4 0.372494 0.218324 0.889035
O O1 0.849944 0.092473 0.181879
O O2 0.645545 0.135307 0.118663
O O3 0.707384 0.000000 0.117539
O O4 0.794489 0.087558 0.000000
O O5 0.500000 0.611598 0.321167
O O6 0.627439 0.500000 0.309426
O O7 0.749906 0.611402 0.340169
O O8 0.638892 0.902798 0.500000
O O9 0.500000 0.890116 0.643145
O O10 0.629880 0.000000 0.622532
O O11 0.500000 0.240577 0.849787
O O12 0.250000 0.250000 0.850359
O O13 0.374006 0.234604 0.000000
#
# Coordination Sequence:
#
# PCOD9494418 Si02
#       4
#    16  16  16  16
#     4   9  18  31  46  67  97 131 165 200 237 279
#     4   9  17  27  40  62  90 119 154 196 240 283
#     4   8  14  25  40  57  80 114 153 190 233 286
#     4   9  18  32  49  68  90 120 160 204 247 287
#
# _framework density 20.707995
#
# number of rings (size 3 to 8) (size 9 to 14) (size 15 to 20)
#    0.000    3.250    0.000    0.750    0.000    3.500 
#    0.000   12.500    0.000    0.000    0.000    0.000 
#    0.000    1.000    0.000    2.000    0.000    2.750 
#
# Total GULP energy -178181.892677 kJ/mol
# GULP energy per Si atom -5568.184146 kJ/mol
# Density = 2.066086 g / cm^3
# Si number density = 20.707995 Si / 1000 Ang^3
#
#
#
# Elastic Constant Matrix: (Units=GPa)
#
#
# Indices 1 2 3 4 5 6 
#
# 1 236.7122 28.2855 58.4440 0.0000 0.0000 0.0000
# 2 28.2855 44.8876 1.3902 0.0000 0.0000 0.0000
# 3 58.4440 1.3902 47.9575 0.0000 0.0000 0.0000
# 4 0.0000 0.0000 0.0000 2.6824 0.0000 0.0000
# 5 0.0000 0.0000 0.0000 0.0000 7.9527 0.0000
# 6 0.0000 0.0000 0.0000 0.0000 0.0000 -1.1730
#
#
#
# Elastic Compliance Matrix: (Units=1/GPa)
#
#
# Indices 1 2 3 4 5 6 
#
# 1 0.006679 -0.003960 -0.008025 0.000000 0.000000 0.000000
# 2 -0.003960 0.024646 0.004112 0.000000 0.000000 0.000000
# 3 -0.008025 0.004112 0.030512 0.000000 0.000000 0.000000
# 4 0.000000 0.000000 0.000000 0.372796 0.000000 0.000000
# 5 0.000000 0.000000 0.000000 0.000000 0.125743 0.000000
# 6 0.000000 0.000000 0.000000 0.000000 0.000000 -0.852517
#
#
# Mechanical properties :
#
#
# Convention : Reuss Voigt Hill
#
# Bulk Modulus (GPa) = 21.69639 56.19963 38.94801
# Shear Modulus (GPa) = -19.15481 17.98828 -0.58327
#
# Velocity S-wave (km/s) = -3.04467 2.95051 -0.53129
# Velocity P-wave (km/s) = 1.36382 6.22939 4.29798
#
# Compressibility (1/GPa) = 0.04609062
#
# Stress axis : x y z
#
# Youngs Moduli (GPa) = 149.72204 40.57456 32.77403
#
# Poissons Ratio (x) = 0.16068 0.26300
# Poissons Ratio (y) = 0.59293 -0.13476
# Poissons Ratio (z) = 1.20147 -0.16683
#
# Static dielectric constant tensor:
#      x y z
#    x 1.782180 0.000000 0.000000 
#    y 0.000000 1.757800 0.000000 
#    z 0.000000 0.000000 1.745390 
# 
# From -- ./inp_files/37748.got.cif
#   From: 2010.05.17/outbox.cif.g08.bks.cpg/sg65_19_cif.got.tgz:37748.got - 2010.06.03 17:01:31.
