data_PCOD9494646
_publ_section_title
;
Structure prediction by ZEFSAII (Michael W. Deem and Ramdas Pophale) SiO2 
 PCOD9494646
Probable space group: C M M M
;
_chemical_formula_sum "Si O2"
_cell_formula_units_Z 50
_cell_length_a 15.000000
_cell_length_b 18.000000
_cell_length_c 21.000000
_cell_angle_alpha 90.000000
_cell_angle_beta 90.000000
_cell_angle_gamma 90.000000
_cell_volume 5670.000000
_symmetry_space_group_name_H-M "C M M M"
_symmetry_group_IT_number 65
_symmetry_cell_setting 'orthorhombic'
loop_
_space_group_symop_operation_xyz
x,y,z
-x,-y,z
x,-y,-z
-x,y,-z
-x,-y,-z
x,y,-z
-x,y,z
x,-y,z
1/2+x,1/2+y,z
1/2-x,1/2-y,z
1/2+x,1/2-y,-z
1/2-x,1/2+y,-z
1/2-x,1/2-y,-z
1/2+x,1/2+y,-z
1/2-x,1/2+y,z
1/2+x,1/2-y,z
loop_
_atom_site_type_symbol
_atom_site_label
_atom_site_fract_x
_atom_site_fract_y
_atom_site_fract_z
Si Si1 0.350323 0.781939 0.248639
Si Si2 0.104193 0.412595 0.663599
Si Si3 0.851358 0.770284 0.888336
Si Si4 0.235912 0.910733 0.426592
Si Si5 0.100534 0.140062 0.679390
Si Si6 0.107731 0.917256 0.816673
Si Si7 0.500000 0.740668 0.000000
O O1 0.250000 0.750000 0.249494
O O2 0.361133 0.862361 0.278535
O O3 0.379046 0.775880 0.175285
O O4 0.400473 0.724336 0.294868
O O5 0.113730 0.500000 0.677828
O O6 0.166515 0.396042 0.602932
O O7 0.000000 0.397363 0.652138
O O8 0.750000 0.750000 0.906209
O O9 0.852075 0.854607 0.861479
O O10 0.921700 0.761138 0.944164
O O11 0.228581 0.887382 0.500000
O O12 0.165595 0.872558 0.379356
O O13 0.221366 0.000000 0.423860
O O14 0.131690 0.095590 0.742624
O O15 0.000000 0.116334 0.663499
O O16 0.000000 0.909346 0.819515
O O17 0.131992 0.000000 0.836478
#
# Coordination Sequence:
#
# PCOD9494646 Si02
#       7
#    16  16  16  16  16  16   4
#     4  10  19  37  60  87 115 143 185 241 287 329
#     4  10  21  37  59  85 110 144 195 248 291 331
#     4  10  22  37  57  89 116 151 191 224 277 338
#     4  10  21  36  53  79 117 156 192 233 289 351
#     4  10  19  32  54  82 115 151 188 232 283 343
#     4   9  17  33  57  87 116 144 186 240 290 326
#     4  12  22  40  61  82 125 158 184 226 274 350
#
# _framework density 8.8183419999999995
#
# number of rings (size 3 to 8) (size 9 to 14) (size 15 to 20)
#    0.000    2.080    2.400    1.200    2.240    1.600 
#    0.000    4.800    0.000    1.920    0.000    3.920 
#    0.000    0.000    0.000    0.000    0.000    0.000 
#
# Total GULP energy -278361.201650 kJ/mol
# GULP energy per Si atom -5567.224033 kJ/mol
# Density = 0.879827 g / cm^3
# Si number density = 8.818342 Si / 1000 Ang^3
#
#
#
# Elastic Constant Matrix: (Units=GPa)
#
#
# Indices 1 2 3 4 5 6 
#
# 1 132.5931 45.7219 90.9410 0.0000 0.0000 0.0000
# 2 45.7219 47.7755 47.7133 0.0000 0.0000 0.0000
# 3 90.9410 47.7133 164.1025 0.0000 0.0000 0.0000
# 4 0.0000 0.0000 0.0000 2.4231 0.0000 0.0000
# 5 0.0000 0.0000 0.0000 0.0000 14.8629 0.0000
# 6 0.0000 0.0000 0.0000 0.0000 0.0000 22.5258
#
#
#
# Elastic Compliance Matrix: (Units=1/GPa)
#
#
# Indices 1 2 3 4 5 6 
#
# 1 0.014039 -0.007984 -0.005459 0.000000 0.000000 0.000000
# 2 -0.007984 0.034037 -0.005472 0.000000 0.000000 0.000000
# 3 -0.005459 -0.005472 0.010710 0.000000 0.000000 0.000000
# 4 0.000000 0.000000 0.000000 0.412701 0.000000 0.000000
# 5 0.000000 0.000000 0.000000 0.000000 0.067282 0.000000
# 6 0.000000 0.000000 0.000000 0.000000 0.000000 0.044394
#
#
# Mechanical properties :
#
#
# Convention : Reuss Voigt Hill
#
# Bulk Modulus (GPa) = 47.71773 79.24705 63.48239
# Shear Modulus (GPa) = 7.96210 18.63534 13.29872
#
# Velocity S-wave (km/s) = 2.12704 3.25410 2.74895
# Velocity P-wave (km/s) = 5.75735 7.69087 6.79326
#
# Compressibility (1/GPa) = 0.02095657
#
# Stress axis : x y z
#
# Youngs Moduli (GPa) = 71.23125 29.38012 93.37346
#
# Poissons Ratio (x) = 0.23457 0.50968
# Poissons Ratio (y) = 0.56870 0.51092
# Poissons Ratio (z) = 0.38882 0.16076
#
# Static dielectric constant tensor:
#      x y z
#    x 1.640740 0.000000 0.000000 
#    y 0.000000 1.628730 0.000000 
#    z 0.000000 0.000000 1.572050 
# 
# From -- ./inp_files/62831.got.cif
#   From: 2010.05.17/outbox.ucp.g08.bks.cvg/sg65_32_cif.got.tgz:62831.got - 2010.06.11 16:39:57.
