data_PCOD9494176
_publ_section_title
;
Structure prediction by ZEFSAII (Michael W. Deem and Ramdas Pophale) SiO2 
 PCOD9494176
Probable space group: C M M M
;
_chemical_formula_sum "Si O2"
_cell_formula_units_Z 48
_cell_length_a 39.237027
_cell_length_b 8.236761
_cell_length_c 7.880035
_cell_angle_alpha 90.000000
_cell_angle_beta 90.000000
_cell_angle_gamma 90.000000
_cell_volume 2546.717100
_symmetry_space_group_name_H-M "C M M M"
_symmetry_group_IT_number 65
_symmetry_cell_setting 'orthorhombic'
loop_
_space_group_symop_operation_xyz
x,y,z
-x,-y,z
x,-y,-z
-x,y,-z
-x,-y,-z
x,y,-z
-x,y,z
x,-y,z
1/2+x,1/2+y,z
1/2-x,1/2-y,z
1/2+x,1/2-y,-z
1/2-x,1/2+y,-z
1/2-x,1/2-y,-z
1/2+x,1/2+y,-z
1/2-x,1/2+y,z
1/2+x,1/2-y,z
loop_
_atom_site_type_symbol
_atom_site_label
_atom_site_fract_x
_atom_site_fract_y
_atom_site_fract_z
Si Si1 0.664563 0.195810 0.307437
Si Si2 0.960832 0.698933 0.000000
Si Si3 0.788796 0.808349 0.000000
Si Si4 0.913231 0.301940 0.692921
O O1 0.672643 0.250107 0.500000
O O2 0.625680 0.248122 0.267258
O O3 0.664333 0.000000 0.308524
O O4 0.690937 0.250181 0.166278
O O5 0.940015 0.752030 0.833604
O O6 0.960858 0.500000 0.000000
O O7 0.000000 0.751602 0.000000
O O8 0.750000 0.750000 0.000000
O O9 0.788742 0.000000 0.000000
O O10 0.921232 0.251539 0.500000
O O11 0.913382 0.500000 0.694324
#
# Coordination Sequence:
#
# PCOD9494176 Si02
#       4
#    16   8   8  16
#     4   9  18  35  58  78  98 131 175 218 257 300
#     4   9  15  20  30  55  94 135 166 195 237 291
#     4  12  25  38  54  77 107 138 165 201 251 307
#     4   8  14  25  42  63  87 121 165 207 246 290
#
# _framework density 18.847795000000001
#
# number of rings (size 3 to 8) (size 9 to 14) (size 15 to 20)
#    0.000    2.833    0.000    4.500    0.000    4.667 
#    0.000    3.333    0.000    0.000    0.000    0.000 
#    0.000   10.667    0.000   29.333    0.000   29.333 
#
# Total GULP energy -133868.728447 kJ/mol
# GULP energy per Si atom -5577.863685 kJ/mol
# Density = 1.880490 g / cm^3
# Si number density = 18.847795 Si / 1000 Ang^3
#
#
#
# Elastic Constant Matrix: (Units=GPa)
#
#
# Indices 1 2 3 4 5 6 
#
# 1 194.5416 21.2982 159.0241 0.0000 0.0000 0.0000
# 2 21.2982 15.9552 21.5566 0.0000 0.0000 0.0000
# 3 159.0241 21.5566 183.0380 0.0000 0.0000 0.0000
# 4 0.0000 0.0000 0.0000 6.8210 0.0000 0.0000
# 5 0.0000 0.0000 0.0000 0.0000 -5.5236 0.0000
# 6 0.0000 0.0000 0.0000 0.0000 0.0000 11.2194
#
#
#
# Elastic Compliance Matrix: (Units=1/GPa)
#
#
# Indices 1 2 3 4 5 6 
#
# 1 0.017893 -0.003427 -0.015142 0.000000 0.000000 0.000000
# 2 -0.003427 0.075192 -0.005878 0.000000 0.000000 0.000000
# 3 -0.015142 -0.005878 0.019311 0.000000 0.000000 0.000000
# 4 0.000000 0.000000 0.000000 0.146605 0.000000 0.000000
# 5 0.000000 0.000000 0.000000 0.000000 -0.181041 0.000000
# 6 0.000000 0.000000 0.000000 0.000000 0.000000 0.089131
#
#
# Mechanical properties :
#
#
# Convention : Reuss Voigt Hill
#
# Bulk Modulus (GPa) = 15.74760 88.58806 52.16783
# Shear Modulus (GPa) = 21.08359 15.28043 18.18201
#
# Velocity S-wave (km/s) = 3.34821 2.85042 3.10929
# Velocity P-wave (km/s) = 4.82915 7.61164 6.37408
#
# Compressibility (1/GPa) = 0.06350173
#
# Stress axis : x y z
#
# Youngs Moduli (GPa) = 55.88874 13.29935 51.78476
#
# Poissons Ratio (x) = 0.04558 0.78411
# Poissons Ratio (y) = 0.19153 0.30439
# Poissons Ratio (z) = 0.84625 0.07817
#
# Static dielectric constant tensor:
#      x y z
#    x 1.586500 0.000000 0.000000 
#    y 0.000000 1.692530 0.000000 
#    z 0.000000 0.000000 1.667670 
# 
# From -- ./inp_files/3123.got.cif
#   From: 2010.05.17/outbox.cif.g08.bks.cpg/sg65_2_cif.got.tgz:3123.got - 2010.06.03 17:01:31.
