data_PCOD9494583
_publ_section_title
;
Structure prediction by ZEFSAII (Michael W. Deem and Ramdas Pophale) SiO2 
 PCOD9494583
Probable space group: C M M M
;
_chemical_formula_sum "Si O2"
_cell_formula_units_Z 60
_cell_length_a 27.000000
_cell_length_b 9.000000
_cell_length_c 27.000000
_cell_angle_alpha 90.000000
_cell_angle_beta 90.000000
_cell_angle_gamma 90.000000
_cell_volume 6561.000000
_symmetry_space_group_name_H-M "C M M M"
_symmetry_group_IT_number 65
_symmetry_cell_setting 'orthorhombic'
loop_
_space_group_symop_operation_xyz
x,y,z
-x,-y,z
x,-y,-z
-x,y,-z
-x,-y,-z
x,y,-z
-x,y,z
x,-y,z
1/2+x,1/2+y,z
1/2-x,1/2-y,z
1/2+x,1/2-y,-z
1/2-x,1/2+y,-z
1/2-x,1/2-y,-z
1/2+x,1/2+y,-z
1/2-x,1/2+y,z
1/2+x,1/2-y,z
loop_
_atom_site_type_symbol
_atom_site_label
_atom_site_fract_x
_atom_site_fract_y
_atom_site_fract_z
Si Si1 0.303509 0.677264 0.754461
Si Si2 0.304059 0.820930 0.945747
Si Si3 0.500000 0.826757 0.558825
Si Si4 0.642237 0.825759 0.846553
Si Si5 0.941340 0.834456 0.810364
Si Si6 0.441254 0.837131 0.714438
Si Si7 0.898599 0.327617 0.605110
Si Si8 0.803748 0.177355 0.639507
O O1 0.301390 0.500000 0.759047
O O2 0.250000 0.750000 0.761075
O O3 0.335547 0.744573 0.798630
O O4 0.317416 0.711909 0.697300
O O5 0.250000 0.750000 0.942669
O O6 0.334396 0.772427 0.897865
O O7 0.299880 0.000000 0.943938
O O8 0.325261 0.781738 0.000000
O O9 0.500000 0.825645 0.500000
O O10 0.447311 0.764533 0.577424
O O11 0.500000 0.000000 0.576730
O O12 0.584833 0.784582 0.844721
O O13 0.651201 0.000000 0.841719
O O14 0.930506 0.790766 0.753418
O O15 0.000000 0.830025 0.815711
O O16 0.923136 0.000000 0.820896
O O17 0.500000 0.833988 0.704779
O O18 0.414828 0.826696 0.662417
O O19 0.429361 0.000000 0.736853
O O20 0.891084 0.500000 0.589523
O O21 0.846970 0.240526 0.604383
O O22 0.750000 0.250000 0.630279
O O23 0.800128 0.000000 0.635137
#
# Coordination Sequence:
#
# PCOD9494583 Si02
#       8
#    16  16   8  16  16  16  16  16
#     4  10  20  33  49  72 106 140 173 208 248 298
#     4   9  19  35  53  74  98 122 153 196 245 297
#     4   9  18  34  57  85 113 141 175 215 264 317
#     4  11  21  32  50  73  97 130 168 205 251 301
#     4  10  21  34  47  67  98 133 168 207 249 295
#     4   9  16  28  47  72 102 135 172 208 246 297
#     4  10  18  31  53  79 107 139 176 217 259 306
#     4  10  21  35  51  74 105 143 181 216 257 306
#
# _framework density 9.1449470000000002
#
# number of rings (size 3 to 8) (size 9 to 14) (size 15 to 20)
#    0.000    2.200    0.667    2.800    0.000    7.200 
#    0.000    0.333    0.000    1.600    0.000    2.800 
#    0.000    0.000    0.000    0.000    0.000    0.000 
#
# Total GULP energy -334389.168658 kJ/mol
# GULP energy per Si atom -5573.152811 kJ/mol
# Density = 0.912413 g / cm^3
# Si number density = 9.144947 Si / 1000 Ang^3
#
#
#
# Elastic Constant Matrix: (Units=GPa)
#
#
# Indices 1 2 3 4 5 6 
#
# 1 88.9221 35.1696 58.8851 0.0000 0.0000 0.0000
# 2 35.1696 36.2088 27.6098 0.0000 0.0000 0.0000
# 3 58.8851 27.6098 34.3930 0.0000 0.0000 0.0000
# 4 0.0000 0.0000 0.0000 -6.1994 0.0000 0.0000
# 5 0.0000 0.0000 0.0000 0.0000 8.1614 0.0000
# 6 0.0000 0.0000 0.0000 0.0000 0.0000 25.1422
#
#
#
# Elastic Compliance Matrix: (Units=1/GPa)
#
#
# Indices 1 2 3 4 5 6 
#
# 1 -0.044794 -0.038598 0.107678 0.000000 0.000000 0.000000
# 2 -0.038598 0.037944 0.035625 0.000000 0.000000 0.000000
# 3 0.107678 0.035625 -0.183881 0.000000 0.000000 0.000000
# 4 0.000000 0.000000 0.000000 -0.161307 0.000000 0.000000
# 5 0.000000 0.000000 0.000000 0.000000 0.122527 0.000000
# 6 0.000000 0.000000 0.000000 0.000000 0.000000 0.039774
#
#
# Mechanical properties :
#
#
# Convention : Reuss Voigt Hill
#
# Bulk Modulus (GPa) = 53.53923 44.76144 49.15034
# Shear Modulus (GPa) = -12.72523 7.94482 -2.39021
#
# Velocity S-wave (km/s) = -2.64057 2.08645 -1.14441
# Velocity P-wave (km/s) = 4.47653 5.50734 5.01847
#
# Compressibility (1/GPa) = 0.01867789
#
# Stress axis : x y z
#
# Youngs Moduli (GPa) = -22.32459 26.35490 -5.43829
#
# Poissons Ratio (x) = 1.01725 0.58558
# Poissons Ratio (y) = -0.86169 0.19374
# Poissons Ratio (z) = 2.40387 -0.93889
#
# Static dielectric constant tensor:
#      x y z
#    x 1.714570 0.000000 0.000000 
#    y 0.000000 1.813180 0.000000 
#    z 0.000000 0.000000 1.617820 
# 
# From -- ./inp_files/76120.got.cif
#   From: 2010.05.17/outbox.ucp.g08.bks.cvg/sg65_39_cif.got.tgz:76120.got - 2010.06.11 16:39:57.
