data_PCOD9494849
_publ_section_title
;
Structure prediction by ZEFSAII (Michael W. Deem and Ramdas Pophale) SiO2 
 PCOD9494849
Probable space group: C M M M
;
_chemical_formula_sum "Si O2"
_cell_formula_units_Z 44
_cell_length_a 18.000000
_cell_length_b 12.000000
_cell_length_c 21.000000
_cell_angle_alpha 90.000000
_cell_angle_beta 90.000000
_cell_angle_gamma 90.000000
_cell_volume 4536.000000
_symmetry_space_group_name_H-M "C M M M"
_symmetry_group_IT_number 65
_symmetry_cell_setting 'orthorhombic'
loop_
_space_group_symop_operation_xyz
x,y,z
-x,-y,z
x,-y,-z
-x,y,-z
-x,-y,-z
x,y,-z
-x,y,z
x,-y,z
1/2+x,1/2+y,z
1/2-x,1/2-y,z
1/2+x,1/2-y,-z
1/2-x,1/2+y,-z
1/2-x,1/2-y,-z
1/2+x,1/2+y,-z
1/2-x,1/2+y,z
1/2+x,1/2-y,z
loop_
_atom_site_type_symbol
_atom_site_label
_atom_site_fract_x
_atom_site_fract_y
_atom_site_fract_z
Si Si1 0.335396 0.233480 0.834349
Si Si2 0.835863 0.711109 0.364445
Si Si3 0.580631 0.372586 0.075853
Si Si4 0.088518 0.127660 0.277954
Si Si5 0.915115 0.500000 0.157851
Si Si6 0.415290 0.000000 0.692345
Si Si7 0.803155 0.636307 0.500000
O O1 0.250000 0.250000 0.816191
O O2 0.351820 0.306505 0.896264
O O3 0.381788 0.292936 0.778065
O O4 0.366468 0.111583 0.852166
O O5 0.750000 0.750000 0.355380
O O6 0.882950 0.818440 0.343754
O O7 0.866402 0.608583 0.323173
O O8 0.845480 0.660933 0.434902
O O9 0.500000 0.325429 0.096786
O O10 0.583237 0.500000 0.098244
O O11 0.581315 0.372960 0.000000
O O12 0.000000 0.128318 0.276447
O O13 0.114737 0.000000 0.270397
O O14 0.925809 0.500000 0.233049
O O15 0.000000 0.500000 0.129403
O O16 0.500000 0.000000 0.663840
O O17 0.780196 0.500000 0.500000
O O18 0.750000 0.750000 0.500000
#
# Coordination Sequence:
#
# PCOD9494849 Si02
#       7
#    16  16  16  16   8   8   8
#     4  12  25  37  62  92 128 162 205 258 310 370
#     4  11  23  38  64  89 123 158 209 257 311 370
#     4   9  19  39  66  89 116 161 210 253 304 367
#     4  11  24  41  63  90 123 161 205 259 317 375
#     4  11  24  40  60  90 130 169 201 245 319 385
#     4  11  22  39  62  86 124 165 202 250 310 373
#     4  10  22  40  62  93 126 168 213 262 323 381
#
# _framework density 9.7001760000000008
#
# number of rings (size 3 to 8) (size 9 to 14) (size 15 to 20)
#    0.000    1.273    2.727    3.818    3.818    2.545 
#    0.000    2.727    0.000    2.727    0.000    0.000 
#    0.000    0.000    0.000    0.000    0.000    0.000 
#
# Total GULP energy -244977.760507 kJ/mol
# GULP energy per Si atom -5567.676375 kJ/mol
# Density = 0.967810 g / cm^3
# Si number density = 9.700176 Si / 1000 Ang^3
#
#
#
# Elastic Constant Matrix: (Units=GPa)
#
#
# Indices 1 2 3 4 5 6 
#
# 1 91.8754 45.6996 14.8574 0.0000 0.0000 0.0000
# 2 45.6996 139.7069 23.6461 0.0000 0.0000 0.0000
# 3 14.8574 23.6461 38.9392 0.0000 0.0000 0.0000
# 4 0.0000 0.0000 0.0000 -174.1640 0.0000 0.0000
# 5 0.0000 0.0000 0.0000 0.0000 2.2605 0.0000
# 6 0.0000 0.0000 0.0000 0.0000 0.0000 22.5209
#
#
#
# Elastic Compliance Matrix: (Units=1/GPa)
#
#
# Indices 1 2 3 4 5 6 
#
# 1 0.013250 -0.003877 -0.002701 0.000000 0.000000 0.000000
# 2 -0.003877 0.009112 -0.004054 0.000000 0.000000 0.000000
# 3 -0.002701 -0.004054 0.029174 0.000000 0.000000 0.000000
# 4 0.000000 0.000000 0.000000 -0.005742 0.000000 0.000000
# 5 0.000000 0.000000 0.000000 0.000000 0.442374 0.000000
# 6 0.000000 0.000000 0.000000 0.000000 0.000000 0.044403
#
#
# Mechanical properties :
#
#
# Convention : Reuss Voigt Hill
#
# Bulk Modulus (GPa) = 33.03500 48.76975 40.90238
# Shear Modulus (GPa) = 8.86642 -17.45530 -4.29444
#
# Velocity S-wave (km/s) = 2.14013 -3.00282 -1.48943
# Velocity P-wave (km/s) = 4.81372 3.62913 4.26277
#
# Compressibility (1/GPa) = 0.03027092
#
# Stress axis : x y z
#
# Youngs Moduli (GPa) = 75.47453 109.74287 34.27748
#
# Poissons Ratio (x) = 0.42546 0.09259
# Poissons Ratio (y) = 0.29261 0.13897
# Poissons Ratio (z) = 0.20387 0.44492
#
# Static dielectric constant tensor:
#      x y z
#    x -16.645000 0.000000 0.000000 
#    y 0.000000 1.717850 0.000000 
#    z 0.000000 0.000000 1.735900 
# 
# From -- ./inp_files/63651.got.cif
#   From: 2010.05.17/outbox.ucp.g08.bks.cvg/sg65_32_cif.got.tgz:63651.got - 2010.06.11 16:39:57.
