data_PCOD9494898
_publ_section_title
;
Structure prediction by ZEFSAII (Michael W. Deem and Ramdas Pophale) SiO2 
 PCOD9494898
Probable space group: C C C M
;
_chemical_formula_sum "Si O2"
_cell_formula_units_Z 64
_cell_length_a 11.318001
_cell_length_b 13.834089
_cell_length_c 19.478356
_cell_angle_alpha 90.000000
_cell_angle_beta 90.000000
_cell_angle_gamma 90.000000
_cell_volume 3049.808653
_symmetry_space_group_name_H-M "C C C M"
_symmetry_group_IT_number 66
_symmetry_cell_setting 'orthorhombic'
loop_
_space_group_symop_operation_xyz
x,y,z
-x,-y,z
x,-y,1/2-z
-x,y,1/2-z
-x,-y,-z
x,y,-z
-x,y,1/2+z
x,-y,1/2+z
1/2+x,1/2+y,z
1/2-x,1/2-y,z
1/2+x,1/2-y,1/2-z
1/2-x,1/2+y,1/2-z
1/2-x,1/2-y,-z
1/2+x,1/2+y,-z
1/2-x,1/2+y,1/2+z
1/2+x,1/2-y,1/2+z
loop_
_atom_site_type_symbol
_atom_site_label
_atom_site_fract_x
_atom_site_fract_y
_atom_site_fract_z
Si Si1 0.371318 0.611359 0.275062
Si Si2 0.879907 0.609620 0.279179
Si Si3 0.632479 0.540132 0.923929
Si Si4 0.807382 0.643296 0.423466
O O1 0.374241 0.500000 0.250000
O O2 0.500000 0.647914 0.250000
O O3 0.249469 0.649040 0.241786
O O4 0.355293 0.608135 0.357535
O O5 0.877152 0.500000 0.250000
O O6 0.891877 0.620525 0.360609
O O7 0.000000 0.652663 0.250000
O O8 0.500000 0.500000 0.921694
O O9 0.712721 0.443959 0.918325
O O10 0.653605 0.583437 0.000000
O O11 0.859788 0.640141 0.500000
O O12 0.750000 0.750000 0.415699
#
# Coordination Sequence:
#
# PCOD9494898 Si02
#       4
#    16  16  16  16
#     4  10  15  28  49  75 102 133 174 232 272 317
#     4  10  19  34  53  77 110 144 180 230 278 333
#     4  10  17  28  48  76 103 131 178 232 276 321
#     4  10  20  35  54  79 114 152 189 234 292 349
#
# _framework density 20.984922999999998
#
# number of rings (size 3 to 8) (size 9 to 14) (size 15 to 20)
#    0.000    2.000    7.500    0.000    0.000    0.000 
#    0.000    8.750    0.000    0.000    0.000    0.000 
#    0.000   25.000    0.000    0.000    0.000    0.000 
#
# Total GULP energy -178239.160543 kJ/mol
# GULP energy per Si atom -5569.973767 kJ/mol
# Density = 2.093716 g / cm^3
# Si number density = 20.984923 Si / 1000 Ang^3
#
#
#
# Elastic Constant Matrix: (Units=GPa)
#
#
# Indices 1 2 3 4 5 6 
#
# 1 150.1978 10.6120 49.8544 0.0000 0.0000 0.0000
# 2 10.6120 85.9257 31.7913 0.0000 0.0000 0.0000
# 3 49.8544 31.7913 222.9969 0.0000 0.0000 0.0000
# 4 0.0000 0.0000 0.0000 -7.9483 0.0000 0.0000
# 5 0.0000 0.0000 0.0000 0.0000 -173.8884 0.0000
# 6 0.0000 0.0000 0.0000 0.0000 0.0000 -35.0639
#
#
#
# Elastic Compliance Matrix: (Units=1/GPa)
#
#
# Indices 1 2 3 4 5 6 
#
# 1 0.007199 -0.000310 -0.001565 0.000000 0.000000 0.000000
# 2 -0.000310 0.012299 -0.001684 0.000000 0.000000 0.000000
# 3 -0.001565 -0.001684 0.005074 0.000000 0.000000 0.000000
# 4 0.000000 0.000000 0.000000 -0.125812 0.000000 0.000000
# 5 0.000000 0.000000 0.000000 0.000000 -0.005751 0.000000
# 6 0.000000 0.000000 0.000000 0.000000 0.000000 -0.028519
#
#
# Mechanical properties :
#
#
# Convention : Reuss Voigt Hill
#
# Bulk Modulus (GPa) = 57.29277 71.51511 64.40394
# Shear Modulus (GPa) = -40.79218 -18.92262 -29.85740
#
# Velocity S-wave (km/s) = -4.41373 -3.00613 -3.77610
# Velocity P-wave (km/s) = 1.17748 4.70151 3.42714
#
# Compressibility (1/GPa) = 0.01745421
#
# Stress axis : x y z
#
# Youngs Moduli (GPa) = 138.90122 81.30503 197.06684
#
# Poissons Ratio (x) = 0.02520 0.30848
# Poissons Ratio (y) = 0.04306 0.33189
# Poissons Ratio (z) = 0.21743 0.13693
#
# Static dielectric constant tensor:
#      x y z
#    x 1.774490 0.000000 0.000000 
#    y 0.000000 1.581360 0.000000 
#    z 0.000000 0.000000 1.837920 
# 
# From -- ./inp_files/38223.got.cif
#   From: 2010.05.17/outbox.cif.g08.bks.cpg/sg66_20_cif.got.tgz:38223.got - 2010.06.03 17:51:23.
