data_PCOD9494761
_publ_section_title
;
Structure prediction by ZEFSAII (Michael W. Deem and Ramdas Pophale) SiO2 
 PCOD9494761
Probable space group: C M M M
;
_chemical_formula_sum "Si O2"
_cell_formula_units_Z 40
_cell_length_a 18.000000
_cell_length_b 9.000000
_cell_length_c 27.000000
_cell_angle_alpha 90.000000
_cell_angle_beta 90.000000
_cell_angle_gamma 90.000000
_cell_volume 4374.000000
_symmetry_space_group_name_H-M "C M M M"
_symmetry_group_IT_number 65
_symmetry_cell_setting 'orthorhombic'
loop_
_space_group_symop_operation_xyz
x,y,z
-x,-y,z
x,-y,-z
-x,y,-z
-x,-y,-z
x,y,-z
-x,y,z
x,-y,z
1/2+x,1/2+y,z
1/2-x,1/2-y,z
1/2+x,1/2-y,-z
1/2-x,1/2+y,-z
1/2-x,1/2-y,-z
1/2+x,1/2+y,-z
1/2-x,1/2+y,z
1/2+x,1/2-y,z
loop_
_atom_site_type_symbol
_atom_site_label
_atom_site_fract_x
_atom_site_fract_y
_atom_site_fract_z
Si Si1 0.909657 0.328188 0.000000
Si Si2 0.588645 0.000000 0.440512
Si Si3 0.334966 0.689226 0.395845
Si Si4 0.910468 0.175782 0.103355
Si Si5 0.331338 0.177519 0.197658
Si Si6 0.912573 0.173301 0.288951
O O1 0.887189 0.244980 0.050435
O O2 0.885398 0.500000 0.000000
O O3 0.000000 0.327536 0.000000
O O4 0.622020 0.164671 0.422066
O O5 0.500000 0.000000 0.428731
O O6 0.598423 0.000000 0.500000
O O7 0.338505 0.500000 0.410118
O O8 0.250000 0.750000 0.397403
O O9 0.368349 0.689450 0.340475
O O10 0.871317 0.258567 0.148719
O O11 0.000000 0.193111 0.107847
O O12 0.894080 0.000000 0.104701
O O13 0.250000 0.250000 0.201515
O O14 0.377995 0.226754 0.245899
O O15 0.325906 0.000000 0.195060
O O16 0.000000 0.205871 0.296583
O O17 0.906629 0.000000 0.273403
#
# Coordination Sequence:
#
# PCOD9494761 Si02
#       6
#     8   8  16  16  16  16
#     4   9  17  31  54  83 112 145 188 241 291 353
#     4  11  26  46  70 102 139 181 231 284 337 395
#     4  11  23  43  69 102 137 180 225 278 336 400
#     4  10  20  36  58  83 114 149 191 240 298 361
#     4  12  25  39  57  83 116 158 200 249 305 366
#     4  10  22  40  64  93 126 163 206 256 315 378
#
# _framework density 9.1449470000000002
#
# number of rings (size 3 to 8) (size 9 to 14) (size 15 to 20)
#    0.000    1.400    1.000    4.500    1.400    8.800 
#    0.000    1.500    0.000    0.000    0.000    0.000 
#    0.000    0.000    0.000    0.000    0.000    0.000 
#
# Total GULP energy -222847.267488 kJ/mol
# GULP energy per Si atom -5571.181687 kJ/mol
# Density = 0.912413 g / cm^3
# Si number density = 9.144947 Si / 1000 Ang^3
#
#
#
# Elastic Constant Matrix: (Units=GPa)
#
#
# Indices 1 2 3 4 5 6 
#
# 1 107.2741 65.2888 42.5907 0.0000 0.0000 0.0000
# 2 65.2888 187.4487 70.2571 0.0000 0.0000 0.0000
# 3 42.5907 70.2571 106.8680 0.0000 0.0000 0.0000
# 4 0.0000 0.0000 0.0000 46.6142 0.0000 0.0000
# 5 0.0000 0.0000 0.0000 0.0000 10.7435 0.0000
# 6 0.0000 0.0000 0.0000 0.0000 0.0000 35.6035
#
#
#
# Elastic Compliance Matrix: (Units=1/GPa)
#
#
# Indices 1 2 3 4 5 6 
#
# 1 0.012429 -0.003281 -0.002796 0.000000 0.000000 0.000000
# 2 -0.003281 0.007945 -0.003916 0.000000 0.000000 0.000000
# 3 -0.002796 -0.003916 0.013046 0.000000 0.000000 0.000000
# 4 0.000000 0.000000 0.000000 0.021453 0.000000 0.000000
# 5 0.000000 0.000000 0.000000 0.000000 0.093080 0.000000
# 6 0.000000 0.000000 0.000000 0.000000 0.000000 0.028087
#
#
# Mechanical properties :
#
#
# Convention : Reuss Voigt Hill
#
# Bulk Modulus (GPa) = 74.43777 84.20712 79.32245
# Shear Modulus (GPa) = 24.93711 33.48918 29.21314
#
# Velocity S-wave (km/s) = 3.69648 4.28369 4.00087
# Velocity P-wave (km/s) = 7.68153 8.40279 8.05024
#
# Compressibility (1/GPa) = 0.01343404
#
# Stress axis : x y z
#
# Youngs Moduli (GPa) = 80.45696 125.86214 76.65103
#
# Poissons Ratio (x) = 0.41294 0.21435
# Poissons Ratio (y) = 0.26397 0.30015
# Poissons Ratio (z) = 0.22500 0.49285
#
# Static dielectric constant tensor:
#      x y z
#    x 1.634500 0.000000 0.000000 
#    y 0.000000 1.675750 0.000000 
#    z 0.000000 0.000000 1.611300 
# 
# From -- ./inp_files/75051.got.cif
#   From: 2010.05.17/outbox.ucp.g08.bks.cvg/sg65_38_cif.got.tgz:75051.got - 2010.06.11 16:39:57.
