data_PCOD9494528
_publ_section_title
;
Structure prediction by ZEFSAII (Michael W. Deem and Ramdas Pophale) SiO2 
 PCOD9494528
Probable space group: C M M M
;
_chemical_formula_sum "Si O2"
_cell_formula_units_Z 72
_cell_length_a 33.981747
_cell_length_b 14.165971
_cell_length_c 7.417581
_cell_angle_alpha 90.000000
_cell_angle_beta 90.000000
_cell_angle_gamma 90.000000
_cell_volume 3570.708095
_symmetry_space_group_name_H-M "C M M M"
_symmetry_group_IT_number 65
_symmetry_cell_setting 'orthorhombic'
loop_
_space_group_symop_operation_xyz
x,y,z
-x,-y,z
x,-y,-z
-x,y,-z
-x,-y,-z
x,y,-z
-x,y,z
x,-y,z
1/2+x,1/2+y,z
1/2-x,1/2-y,z
1/2+x,1/2-y,-z
1/2-x,1/2+y,-z
1/2-x,1/2-y,-z
1/2+x,1/2+y,-z
1/2-x,1/2+y,z
1/2+x,1/2-y,z
loop_
_atom_site_type_symbol
_atom_site_label
_atom_site_fract_x
_atom_site_fract_y
_atom_site_fract_z
Si Si1 0.621608 0.390796 0.214521
Si Si2 0.920222 0.291569 0.781616
Si Si3 0.661049 0.113710 0.208365
Si Si4 0.000000 0.390595 0.220794
Si Si5 0.186494 0.114124 0.500000
Si Si6 0.724235 0.115516 0.500000
O O1 0.612620 0.500000 0.256808
O O2 0.587166 0.317860 0.263020
O O3 0.660299 0.361684 0.325826
O O4 0.628701 0.383910 0.000000
O O5 0.880533 0.345539 0.724643
O O6 0.960423 0.338166 0.717656
O O7 0.921125 0.298769 0.000000
O O8 0.698047 0.143159 0.328165
O O9 0.658414 0.000000 0.215189
O O10 0.666204 0.142007 0.000000
O O11 0.000000 0.500000 0.274294
O O12 0.000000 0.389126 0.000000
O O13 0.230959 0.149924 0.500000
O O14 0.189186 0.000000 0.500000
O O15 0.725710 0.000000 0.500000
#
# Coordination Sequence:
#
# PCOD9494528 Si02
#       6
#    16  16  16   8   8   8
#     4   9  18  33  52  73 100 134 170 210 253 295
#     4   9  17  30  49  75 103 133 171 207 247 303
#     4   9  17  30  48  70 100 135 166 203 253 304
#     4   9  16  28  51  82 111 136 166 206 247 295
#     4   9  18  33  53  75  98 131 175 214 252 300
#     4   9  18  31  49  75 101 129 170 212 253 304
#
# _framework density 20.164068
#
# number of rings (size 3 to 8) (size 9 to 14) (size 15 to 20)
#    0.000    3.000    0.000    0.667    0.000    4.444 
#    0.000    7.222    0.000   10.000    0.000    7.778 
#    0.000    0.000    0.000    0.000    0.000    0.000 
#
# Total GULP energy -200926.485448 kJ/mol
# GULP energy per Si atom -5581.291262 kJ/mol
# Density = 2.011817 g / cm^3
# Si number density = 20.164068 Si / 1000 Ang^3
#
#
#
# Elastic Constant Matrix: (Units=GPa)
#
#
# Indices 1 2 3 4 5 6 
#
# 1 196.3840 92.1455 50.6775 0.0000 0.0000 0.0000
# 2 92.1455 109.5685 32.2432 0.0000 0.0000 0.0000
# 3 50.6775 32.2432 80.8210 0.0000 0.0000 0.0000
# 4 0.0000 0.0000 0.0000 3.7198 0.0000 0.0000
# 5 0.0000 0.0000 0.0000 0.0000 24.6896 0.0000
# 6 0.0000 0.0000 0.0000 0.0000 0.0000 36.0633
#
#
#
# Elastic Compliance Matrix: (Units=1/GPa)
#
#
# Indices 1 2 3 4 5 6 
#
# 1 0.009000 -0.006694 -0.002973 0.000000 0.000000 0.000000
# 2 -0.006694 0.015320 -0.001914 0.000000 0.000000 0.000000
# 3 -0.002973 -0.001914 0.015001 0.000000 0.000000 0.000000
# 4 0.000000 0.000000 0.000000 0.268831 0.000000 0.000000
# 5 0.000000 0.000000 0.000000 0.000000 0.040503 0.000000
# 6 0.000000 0.000000 0.000000 0.000000 0.000000 0.027729
#
#
# Mechanical properties :
#
#
# Convention : Reuss Voigt Hill
#
# Bulk Modulus (GPa) = 61.88815 81.87843 71.88329
# Shear Modulus (GPa) = 12.34773 27.00836 19.67805
#
# Velocity S-wave (km/s) = 2.47728 3.66379 3.12732
# Velocity P-wave (km/s) = 6.24031 7.65455 6.98332
#
# Compressibility (1/GPa) = 0.01615818
#
# Stress axis : x y z
#
# Youngs Moduli (GPa) = 111.10860 65.27523 66.66327
#
# Poissons Ratio (x) = 0.43697 0.19818
# Poissons Ratio (y) = 0.74378 0.12761
# Poissons Ratio (z) = 0.33031 0.12495
#
# Static dielectric constant tensor:
#      x y z
#    x 1.664660 0.000000 0.000000 
#    y 0.000000 1.743460 0.000000 
#    z 0.000000 0.000000 1.750290 
# 
# From -- ./inp_files/15808.got.cif
#   From: 2010.05.17/outbox.cif.g08.bks.cpg/sg65_8_cif.got.tgz:15808.got - 2010.06.03 17:01:31.
